#------------------------------------------------------------------------------
#$Date: 2021-02-26 01:25:09 +0200 (Fri, 26 Feb 2021) $
#$Revision: 262242 $
#$URL: file:///home/coder/svn-repositories/cod/cif/4/00/38/4003874.cif $
#------------------------------------------------------------------------------
#
# This file is available in the Crystallography Open Database (COD),
# http://www.crystallography.net/
#
# All data on this site have been placed in the public domain by the
# contributors.
#
data_4003874
loop_
_publ_author_name
'Jo, Hongil'
'Lee, Min Hyung'
'Ok, Kang Min'
_publ_section_title
;
 Order and Disorder: Toward the Thermodynamically Stable \a-BaMoO2F4 from
 the Metastable Polymorph
;
_journal_name_full               'Chemistry of Materials'
_journal_paper_doi               10.1021/acs.chemmater.1c00074
_journal_year                    2021
_chemical_absolute_configuration ad
_chemical_formula_moiety         'F4 Mo O2, Sr'
_chemical_formula_sum            'F4 Mo O2 Sr'
_chemical_formula_weight         291.56
_space_group_IT_number           29
_space_group_name_Hall           'P 2c -2ac'
_space_group_name_H-M_alt        'P c a 21'
_symmetry_cell_setting           orthorhombic
_symmetry_Int_Tables_number      29
_symmetry_space_group_name_Hall  'P 2c -2ac'
_symmetry_space_group_name_H-M   'P c a 21'
_atom_sites_solution_primary     direct
_atom_sites_solution_secondary   difmap
_cell_angle_alpha                90
_cell_angle_beta                 90
_cell_angle_gamma                90
_cell_formula_units_Z            8
_cell_length_a                   18.6213(4)
_cell_length_b                   4.87200(10)
_cell_length_c                   9.8741(2)
_cell_measurement_reflns_used    4354
_cell_measurement_temperature    296(2)
_cell_measurement_theta_max      28.17
_cell_measurement_theta_min      4.13
_cell_measurement_wavelength     0.71073
_cell_volume                     895.81(3)
_computing_cell_refinement       'SAINT V8.34A integration software'
_computing_data_collection       'Bruker APEX2 software'
_computing_data_reduction        'Bruker APEX2 software'
_computing_molecular_graphics    'Ortep for Windows (Farrugia, 2012)'
_computing_publication_material  'WinGX publication routines (Farrugia, 2012)'
_computing_structure_refinement  'SHELXL-2018/3 (Sheldrick, 2018)'
_computing_structure_solution    'SHELXS-2013/2 (Sheldrick, 2013)'
_diffrn_ambient_temperature      296(2)
_diffrn_detector                 'SMART BREZZE 1k CCD'
_diffrn_measured_fraction_theta_full 1
_diffrn_measured_fraction_theta_max 0.998
_diffrn_measurement_device       'three-circle diffractometer'
_diffrn_measurement_device_type  'Bruker SMART BREEZE'
_diffrn_measurement_method       '\w and \f scans'
_diffrn_orient_matrix_type       'x-axis to radiation source'
_diffrn_orient_matrix_UB_11      -0.046348
_diffrn_orient_matrix_UB_12      -0.09006
_diffrn_orient_matrix_UB_13      0.021367
_diffrn_orient_matrix_UB_21      0.048627
_diffrn_orient_matrix_UB_22      -0.045186
_diffrn_orient_matrix_UB_23      -0.046354
_diffrn_orient_matrix_UB_31      0.193951
_diffrn_orient_matrix_UB_32      -0.010198
_diffrn_orient_matrix_UB_33      0.016694
_diffrn_radiation_monochromator  graphite
_diffrn_radiation_type           MoK\a
_diffrn_radiation_wavelength     0.71073
_diffrn_reflns_av_R_equivalents  0.0603
_diffrn_reflns_av_unetI/netI     0.0392
_diffrn_reflns_Laue_measured_fraction_full 1
_diffrn_reflns_Laue_measured_fraction_max 0.998
_diffrn_reflns_limit_h_max       24
_diffrn_reflns_limit_h_min       -25
_diffrn_reflns_limit_k_max       6
_diffrn_reflns_limit_k_min       -6
_diffrn_reflns_limit_l_max       13
_diffrn_reflns_limit_l_min       -13
_diffrn_reflns_number            16204
_diffrn_reflns_point_group_measured_fraction_full 0.999
_diffrn_reflns_point_group_measured_fraction_max 0.997
_diffrn_reflns_theta_full        25.242
_diffrn_reflns_theta_max         28.49
_diffrn_reflns_theta_min         2.187
_diffrn_source                   'sealed x-ray tube'
_exptl_absorpt_coefficient_mu    14.709
_exptl_absorpt_correction_T_max  0.7457
_exptl_absorpt_correction_T_min  0.5357
_exptl_absorpt_correction_type   multi-scan
_exptl_absorpt_process_details
;
        SADABS-2014/2 - Bruker AXS area detector scaling and absorption correcti
;
_exptl_crystal_colour            colourless
_exptl_crystal_density_diffrn    4.324
_exptl_crystal_density_method    'not measured'
_exptl_crystal_description       brick
_exptl_crystal_F_000             1056
_exptl_crystal_size_max          0.13
_exptl_crystal_size_mid          0.119
_exptl_crystal_size_min          0.038
_refine_diff_density_max         1.149
_refine_diff_density_min         -1.001
_refine_diff_density_rms         0.196
_refine_ls_abs_structure_details
;
 Refined as an inversion twin.
;
_refine_ls_abs_structure_Flack   0.040(11)
_refine_ls_extinction_method     none
_refine_ls_goodness_of_fit_ref   1.006
_refine_ls_hydrogen_treatment    undef
_refine_ls_matrix_type           full
_refine_ls_number_constraints    0
_refine_ls_number_parameters     147
_refine_ls_number_reflns         2269
_refine_ls_number_restraints     1
_refine_ls_restrained_S_all      1.006
_refine_ls_R_factor_all          0.0315
_refine_ls_R_factor_gt           0.0267
_refine_ls_shift/su_max          0.001
_refine_ls_shift/su_mean         0
_refine_ls_structure_factor_coef Fsqd
_refine_ls_weighting_details
'w=1/[\s^2^(Fo^2^)+(0.0262P)^2^] where P=(Fo^2^+2Fc^2^)/3'
_refine_ls_weighting_scheme      calc
_refine_ls_wR_factor_gt          0.0536
_refine_ls_wR_factor_ref         0.0553
_reflns_Friedel_coverage         0.889
_reflns_Friedel_fraction_full    0.997
_reflns_Friedel_fraction_max     0.996
_reflns_number_gt                2074
_reflns_number_total             2269
_reflns_threshold_expression     'I > 2\s(I)'
_cod_data_source_file            cm1c00074_si_002.cif
_cod_data_source_block           SrMoO2F4
_cod_database_code               4003874
_shelx_estimated_absorpt_t_min   0.251
_shelx_estimated_absorpt_t_max   0.605
_shelx_shelxl_version_number     2018/3
_shelx_res_file
;
TITL SrMoOF_190219_0ma in Pca2(1)
    SrMoOF_190219_0ma.res
    created by SHELXL-2018/3 at 18:45:04 on 02-Feb-2021
CELL 0.71073  18.62130   4.87200   9.87410  90.0000  90.0000  90.0000
ZERR    8.00   0.00040   0.00010   0.00020   0.0000   0.0000   0.0000
LATT -1
SYMM -X, -Y, 0.5+Z
SYMM 0.5+X, -Y, Z
SYMM 0.5-X, Y, 0.5+Z
SFAC O F SR MO
UNIT 16 32 8 8
TEMP 23.000
SIZE 0.038 0.119 0.13
MERG 2
LIST 4
TWIN
L.S. 10
BOND
FMAP 2
PLAN 4
ACTA
WGHT    0.026200
BASF   0.03957
FVAR       0.06727   1.30111
MO1   4    0.241703    0.969543    0.946645    11.00000    0.00892    0.01410 =
         0.00974   -0.00087    0.00031    0.00005
MO2   4    0.493115    0.925963    0.516016    11.00000    0.00967    0.01305 =
         0.01002    0.00175   -0.00039   -0.00016
SR1   3    0.370891    0.548980    0.762070    11.00000    0.01144    0.02289 =
         0.01111    0.00384    0.00119    0.00252
SR2   3    0.621326    0.507577    0.692101    11.00000    0.01133    0.01446 =
         0.00903    0.00085   -0.00096    0.00000
O1    1    0.269639    1.188419    1.070296    11.00000    0.02519    0.01733 =
         0.01326   -0.00027   -0.00464   -0.00050
O2    1    0.172319    1.146957    0.872952    11.00000    0.01329    0.02382 =
         0.01701    0.00971    0.00010    0.00283
O3    1    0.517566    1.171189    0.405573    11.00000    0.02905    0.01880 =
         0.01727    0.00456    0.00061   -0.00236
O4    1    0.425821    1.076680    0.613075    11.00000    0.01046    0.02550 =
         0.01816   -0.00779   -0.00097    0.00223
F1    2    0.188581    0.724329    1.051990    11.00000    0.01610    0.02337 =
         0.01982    0.00586    0.00001   -0.00200
F2    2    0.312776    1.094055    0.812107    11.00000    0.01603    0.02776 =
         0.01304    0.00097    0.00482   -0.00707
F3    2    0.325995    0.709116    0.987172    11.00000    0.01104    0.01929 =
         0.01456    0.00293   -0.00198    0.00449
F4    2    0.233378    0.666596    0.797087    11.00000    0.01714    0.01929 =
         0.01256   -0.00331   -0.00065   -0.00430
F5    2    0.437405    0.702986    0.403618    11.00000    0.01932    0.02273 =
         0.01958   -0.00513   -0.00720   -0.00246
F6    2    0.568890    1.023708    0.651004    11.00000    0.01411    0.01964 =
         0.01034   -0.00334   -0.00237   -0.00431
F7    2    0.576440    0.680808    0.459745    11.00000    0.01431    0.02426 =
         0.01105   -0.00351    0.00131    0.00364
F8    2    0.488558    0.590791    0.651337    11.00000    0.01525    0.01839 =
         0.00944    0.00288    0.00163   -0.00272
HKLF 4




REM  SrMoOF_190219_0ma in Pca2(1)
REM wR2 = 0.0553, GooF = S = 1.006, Restrained GooF = 1.006 for all data
REM R1 = 0.0267 for 2074 Fo > 4sig(Fo) and 0.0315 for all 2269 data
REM 147 parameters refined using 1 restraints

END

WGHT      0.0262      0.0000

REM Highest difference peak  1.149,  deepest hole -1.001,  1-sigma level  0.196
Q1    1   0.6227  0.3164  0.6871  11.00000  0.05    1.15
Q2    1   0.3676  0.7341  0.7645  11.00000  0.05    1.14
Q3    1   0.2454  0.7801  0.9500  11.00000  0.05    1.06
Q4    1   0.4967  0.7392  0.5123  11.00000  0.05    0.95
;
_shelx_res_checksum              74719
_shelx_hkl_file
;
   0   1   0   20.13    0.76
   0   1   0   20.21    1.03
   0  -2   0  406.65   12.24
   0   2   0  381.92   11.56
   0   2   0  389.25   12.13
   0   2   0  382.39   12.29
   0   2   0  412.14   11.48
   0  -3   0    1.32    0.66
   0   3   0    0.90    0.59
   0   3   0    0.63    0.53
   0   3   0    1.38    0.38
   0   3   0    1.63    0.61
   0   3   0    1.04    0.44
   0  -4   0   56.04    3.47
   0   4   0   55.85    2.55
   0   4   0   56.67    3.32
   0   4   0   50.72    3.32
   0  -5   0   26.08    2.80
   0   5   0   26.41    2.64
   0   5   0   27.82    1.81
   0   5   0   29.43    2.92
   0   6   0    0.68    0.65
   0   6   0    0.38    1.22
   0   6   0    1.34    1.30
   0   6  -1   -0.52    1.21
   0   6  -1   -0.23    0.45
   0   6  -1   -0.61    0.46
   0   6  -1    2.06    1.37
   0   5  -1    0.95    0.91
   0   5  -1   -0.06    0.43
   0   5  -1    1.50    1.07
   0   4  -1    0.51    0.70
   0   4  -1   -0.11    0.37
   0   4  -1   -0.42    0.61
   0  -4   1   -0.14    0.62
   0   3  -1    0.45    0.57
   0   3  -1    0.12    0.29
   0   3  -1   -0.30    0.44
   0   3  -1   -0.13    0.46
   0   3  -1   -0.14    0.23
   0  -3   1   -0.01    0.43
   0   2  -1    0.21    0.17
   0   2  -1   -0.05    0.24
   0   2  -1    0.11    0.18
   0   2  -1    0.15    0.35
   0   2  -1    0.00    0.32
   0  -2   1   -0.06    0.24
   0   1  -1    0.10    0.28
   0   1  -1    0.31    0.18
   0   0  -1    0.10    0.06
   0   1   1    0.18    0.17
   0   1   1   -0.04    0.21
   0   1   1   -0.28    0.20
   0  -2  -1    0.20    0.35
   0   2   1    0.17    0.28
   0   2   1    0.09    0.23
   0   2   1   -0.07    0.18
   0   2   1    0.39    0.36
   0  -3  -1    0.29    0.39
   0  -3  -1   -0.16    0.48
   0   3   1   -0.23    0.43
   0   3   1    0.23    0.35
   0   3   1    0.39    0.53
   0   3   1   -0.24    0.32
   0  -4  -1   -0.59    0.68
   0   4   1   -0.49    0.46
   0   4   1   -0.99    0.58
   0   4   1   -0.93    0.62
   0  -5  -1   -0.93    0.90
   0   5   1    0.50    0.65
   0   5   1    0.33    0.84
   0   5   1   -0.48    0.79
   0  -6  -1    1.03    1.59
   0   6   1    0.45    0.70
   0   6   1   -0.85    1.06
   0   6  -2   11.77    2.50
   0   6  -2    7.95    1.01
   0   6  -2    9.31    2.27
   0   5  -2   12.09    1.11
   0   5  -2   10.83    1.95
   0   5  -2    9.83    1.95
   0   4  -2    6.90    1.40
   0   4  -2    7.65    0.86
   0   4  -2    8.27    0.88
   0   4  -2    5.00    1.26
   0   3  -2  187.63    7.31
   0   3  -2  188.60    7.07
   0   3  -2  187.63    7.15
   0   3  -2  192.05    6.03
   0   3  -2  184.74    5.98
   0  -3   2  192.66    6.63
   0   2  -2   65.64    3.08
   0   2  -2   57.94    2.82
   0   2  -2   61.83    2.26
   0   2  -2   60.07    2.23
   0   2  -2   59.51    2.86
   0   1  -2  720.59   21.06
   0   1  -2  690.94   21.61
   0   1  -2  722.88   21.39
   0  -1   2  787.89   21.52
   0   0  -2   43.15    1.42
   0   0   2   35.67    1.70
   0  -1  -2  737.10   21.27
   0  -1  -2  728.88   20.52
   0   1   2  715.80   20.97
   0   1   2  689.57   21.06
   0   1   2  747.41   21.13
   0  -2  -2   56.75    2.72
   0   2   2   49.59    2.09
   0   2   2   45.13    2.42
   0   2   2   49.44    2.33
   0  -3  -2  178.71    7.17
   0  -3  -2  190.93    6.05
   0   3   2  186.40    6.24
   0   3   2  185.54    6.98
   0   3   2  180.15    6.70
   0  -4  -2    8.94    1.81
   0   4   2    5.73    1.00
   0   4   2    5.58    1.30
   0   4   2    4.12    1.13
   0  -5  -2   10.48    2.22
   0   5   2    8.59    1.37
   0   5   2    7.79    1.68
   0  -6  -2    5.80    2.25
   0   6   2   13.82    2.48
   0   6   2   14.62    1.84
   0   6   2   11.33    2.28
   0   6  -3    0.73    1.29
   0   6  -3   -0.09    0.49
   0  -6   3    0.89    1.59
   0   5  -3    0.01    0.41
   0   5  -3    0.58    1.10
   0   5  -3   -0.30    0.91
   0   4  -3   -0.01    0.74
   0   4  -3    0.24    0.36
   0   4  -3    0.34    0.92
   0   4  -3   -0.52    0.77
   0   3  -3    0.32    0.66
   0   3  -3    0.19    0.73
   0   3  -3    0.02    0.29
   0   3  -3    0.10    0.60
   0   2  -3    0.40    0.47
   0   2  -3    0.30    0.29
   0   2  -3   -0.45    0.38
   0   2  -3   -0.02    0.48
   0  -2   3   -0.34    0.41
   0   1  -3   -0.14    0.25
   0   1  -3    0.16    0.36
   0   1  -3   -0.21    0.24
   0   1  -3    0.10    0.32
   0  -1   3    0.34    0.32
   0   0  -3   -0.01    0.32
   0   0  -3   -0.15    0.17
   0   0   3    0.08    0.26
   0   0   3    0.06    0.36
   0  -1  -3    0.06    0.30
   0  -1  -3    0.08    0.17
   0  -1  -3    0.19    0.30
   0   1   3    0.08    0.26
   0   1   3   -0.01    0.08
   0   1   3    0.29    0.29
   0   1   3    0.16    0.26
   0  -2  -3   -0.27    0.38
   0   2   3   -0.37    0.25
   0   2   3    0.06    0.38
   0   2   3    0.14    0.43
   0  -3  -3   -0.70    0.51
   0   3   3   -0.14    0.54
   0   3   3    0.06    0.41
   0   3   3   -0.06    0.47
   0  -4  -3   -0.48    0.83
   0   4   3   -0.39    0.57
   0   4   3   -0.21    0.64
   0   4   3    0.26    0.50
   0  -5  -3    0.33    1.22
   0   5   3    0.67    0.95
   0   5   3   -0.81    0.79
   0   5   3   -0.90    0.58
   0  -6  -3    2.31    1.77
   0   6   3    0.41    0.94
   0   6   3    1.47    1.22
   0   6   3   -1.31    1.03
   0   6  -4   45.87    4.10
   0   6  -4   39.86    2.36
   0  -6   4   41.99    4.18
   0   5  -4    8.42    1.15
   0   5  -4    8.26    1.89
   0   5  -4   10.72    2.12
   0  -5   4   15.74    2.67
   0   4  -4   65.82    3.03
   0   4  -4   71.78    4.17
   0   4  -4   73.73    4.24
   0   4  -4   75.97    4.75
   0  -4   4   64.80    4.27
   0   3  -4    0.65    0.45
   0   3  -4    0.90    0.78
   0   3  -4    0.81    0.81
   0   3  -4    0.61    0.92
   0  -3   4    2.10    1.01
   0   2  -4  165.78    6.48
   0   2  -4  166.77    5.74
   0   2  -4  160.14    6.29
   0   2  -4  170.73    6.10
   0  -2   4  158.13    6.29
   0   1  -4   12.30    1.10
   0   1  -4   12.47    1.24
   0   1  -4   12.68    1.12
   0  -1   4   11.94    1.17
   0  -1   4   12.61    0.87
   0   0  -4  264.16    8.24
   0   0  -4  255.50    7.66
   0   0  -4  244.94    8.23
   0   0   4  249.86    8.18
   0   0   4  247.83    8.43
   0   0   4  248.71    7.70
   0  -1  -4   13.81    1.04
   0  -1  -4   12.54    1.15
   0  -1  -4   12.35    0.81
   0   1   4   12.12    0.74
   0   1   4   12.68    1.11
   0   1   4   12.44    1.26
   0  -2  -4  167.21    5.25
   0  -2  -4  155.40    6.21
   0  -2  -4  164.06    5.43
   0  -2  -4  162.29    5.01
   0   2   4  155.74    5.70
   0   2   4  160.99    5.90
   0   2   4  147.83    5.81
   0  -3  -4   -0.12    0.70
   0   3   4    2.14    0.86
   0   3   4    2.08    0.85
   0   3   4    2.54    0.73
   0  -4  -4   67.77    4.57
   0   4   4   66.75    3.41
   0   4   4   62.40    3.67
   0   4   4   67.90    4.01
   0  -5  -4   12.05    2.53
   0   5   4   16.60    2.33
   0   5   4   14.54    1.98
   0   5   4   16.89    2.47
   0  -6  -4   31.23    4.26
   0   6   4   34.50    4.03
   0   6   4   37.61    3.05
   0   6  -5   -0.45    0.57
   0   6  -5   -0.24    1.43
   0  -6   5   -0.91    1.56
   0   5  -5    0.18    1.15
   0   5  -5    0.17    0.53
   0  -5   5    0.64    1.33
   0   4  -5    1.72    1.33
   0   4  -5    0.52    0.99
   0   4  -5    0.06    0.53
   0   4  -5   -0.60    0.85
   0  -4   5    0.32    1.09
   0   3  -5   -0.64    0.71
   0   3  -5    0.09    0.50
   0   3  -5   -0.64    0.87
   0   3  -5    0.57    0.76
   0  -3   5   -0.69    0.67
   0   2  -5   -0.44    0.48
   0   2  -5    0.75    0.70
   0   2  -5    0.46    0.49
   0  -2   5    0.31    0.36
   0  -2   5   -0.01    0.50
   0   1  -5    0.42    0.56
   0   1  -5    0.04    0.43
   0   1  -5   -0.37    0.44
   0  -1   5    0.03    0.44
   0  -1   5   -0.42    0.28
   0   0  -5    0.21    0.46
   0   0  -5    0.44    0.47
   0   0  -5    0.10    0.26
   0   0  -5   -0.03    0.31
   0   0   5    0.21    0.53
   0   0   5    0.02    0.30
   0   0   5   -0.06    0.36
   0  -1  -5    0.19    0.40
   0  -1  -5   -0.16    0.25
   0  -1  -5    0.51    0.44
   0   1   5    0.04    0.40
   0   1   5   -0.08    0.23
   0   1   5   -0.57    0.39
   0   1   5    0.21    0.25
   0  -2  -5    0.33    0.65
   0  -2  -5    0.58    0.53
   0  -2  -5    0.10    0.30
   0  -2  -5    0.18    0.45
   0   2   5    0.12    0.45
   0   2   5   -0.37    0.47
   0   2   5    0.41    0.51
   0  -3  -5    0.37    0.83
   0  -3  -5   -0.25    0.49
   0   3   5   -0.29    0.55
   0   3   5   -0.26    0.64
   0   3   5   -0.43    0.51
   0  -4  -5    0.84    1.19
   0   4   5    0.03    0.60
   0   4   5   -0.59    0.68
   0   4   5   -0.13    0.72
   0  -5  -5   -0.19    1.30
   0   5   5    0.09    1.03
   0   5   5    0.07    1.00
   0   5   5    0.80    0.87
   0  -6  -5    1.25    1.91
   0   6   5    0.12    1.06
   0   6   5    0.31    1.38
   0   5  -6   52.40    4.21
   0   5  -6   48.29    2.89
   0  -5   6   45.49    4.08
   0   4  -6   -0.25    1.30
   0   4  -6    1.71    1.20
   0   4  -6    2.12    0.79
   0  -4   6    5.28    1.65
   0   3  -6   69.66    4.51
   0   3  -6   63.94    3.77
   0   3  -6   62.62    3.33
   0  -3   6   72.98    4.22
   0   2  -6    8.73    1.40
   0   2  -6    6.28    1.41
   0   2  -6    7.99    1.27
   0  -2   6    7.48    0.95
   0  -2   6    7.03    1.37
   0   1  -6   31.39    2.08
   0   1  -6   29.58    2.21
   0   1  -6   34.00    2.42
   0  -1   6   32.31    1.79
   0  -1   6   31.58    2.38
   0   0  -6   13.80    1.61
   0   0  -6    8.11    0.91
   0   0  -6   10.49    1.51
   0   0  -6    9.69    1.38
   0   0  -6    9.56    1.05
   0   0   6    9.43    1.32
   0   0   6   10.08    1.54
   0  -1  -6   34.56    2.26
   0  -1  -6   34.03    2.16
   0  -1  -6   35.54    1.81
   0   1   6   33.59    2.24
   0   1   6   33.35    1.70
   0   1   6   31.88    1.55
   0   1   6   32.57    2.46
   0  -2  -6    9.78    1.30
   0  -2  -6    9.96    1.07
   0  -2  -6   10.24    1.73
   0   2   6    6.86    1.24
   0   2   6    8.14    1.44
   0  -3  -6   70.66    3.43
   0  -3  -6   65.55    4.41
   0   3   6   66.31    3.75
   0   3   6   71.06    3.85
   0   3   6   75.63    3.76
   0  -4  -6    3.10    1.51
   0   4   6    4.56    1.38
   0   4   6    2.19    0.94
   0   4   6    3.37    1.08
   0  -5  -6   50.02    4.74
   0   5   6   40.83    3.17
   0   5   6   48.92    3.96
   0   5  -7   -1.41    1.55
   0   5  -7   -0.04    0.71
   0  -5   7    1.21    1.40
   0   4  -7    0.12    0.76
   0   4  -7    1.16    1.36
   0  -4   7   -1.06    1.02
   0   3  -7    0.15    0.66
   0   3  -7    0.98    1.09
   0  -3   7   -0.07    0.92
   0   2  -7    0.02    0.72
   0   2  -7    0.23    0.83
   0   2  -7   -0.31    0.93
   0  -2   7   -0.26    0.52
   0  -2   7    0.74    0.84
   0   1  -7   -0.54    0.63
   0   1  -7   -0.06    0.68
   0   1  -7   -0.64    0.59
   0  -1   7    1.01    0.80
   0  -1   7    0.23    0.50
   0   0  -7   -0.23    0.61
   0   0  -7   -0.23    0.66
   0   0  -7   -0.07    0.40
   0   0  -7    0.26    0.68
   0   0   7   -0.23    0.44
   0   0   7   -0.43    0.71
   0  -1  -7   -0.44    0.55
   0  -1  -7    0.42    0.47
   0  -1  -7   -0.52    0.58
   0   1   7   -0.05    0.41
   0   1   7    0.44    0.62
   0   1   7    1.10    0.91
   0   1   7   -0.16    0.35
   0  -2  -7    0.03    0.48
   0  -2  -7   -0.26    0.58
   0  -2  -7    0.59    0.84
   0   2   7    0.17    0.61
   0   2   7   -0.55    0.72
   0  -3  -7   -0.65    0.85
   0   3   7   -0.32    0.66
   0   3   7   -0.74    0.55
   0  -4  -7   -0.33    0.91
   0  -4  -7    0.48    1.30
   0   4   7   -0.55    0.82
   0   4   7   -0.30    0.72
   0   4   7    0.62    0.91
   0  -5  -7   -0.13    1.47
   0   5   7    1.14    1.08
   0   5   7    1.21    1.28
   0   5  -8    1.65    1.04
   0   5  -8    2.31    2.21
   0  -5   8    0.27    1.45
   0   4  -8   34.16    4.49
   0   4  -8   29.67    2.65
   0  -4   8   29.65    3.46
   0   3  -8    1.75    1.36
   0   3  -8    2.19    1.01
   0  -3   8    0.02    1.13
   0  -3   8    1.51    0.81
   0   2  -8   10.58    2.17
   0   2  -8   10.59    1.80
   0  -2   8    8.17    1.23
   0  -2   8   10.58    2.10
   0   1  -8    2.61    1.20
   0   1  -8   -0.25    0.91
   0   1  -8   -0.18    0.88
   0  -1   8   -0.10    0.55
   0  -1   8   -0.60    0.79
   0   0  -8   33.34    3.34
   0   0  -8   33.32    2.71
   0   0  -8   39.08    2.81
   0   0  -8   33.21    1.95
   0   0   8   30.26    2.74
   0  -1  -8    0.23    0.69
   0  -1  -8    0.81    0.60
   0  -1  -8   -0.59    0.64
   0   1   8   -0.21    0.43
   0   1   8   -0.02    0.46
   0   1   8    0.33    0.74
   0   1   8    0.00    0.88
   0  -2  -8    8.60    1.73
   0  -2  -8    7.12    1.39
   0  -2  -8    7.57    1.12
   0   2   8    7.90    1.49
   0   2   8    9.89    1.76
   0  -3  -8    2.81    1.38
   0  -3  -8    1.90    0.80
   0   3   8    1.62    0.95
   0   3   8    1.99    1.06
   0  -4  -8   26.12    3.70
   0   4   8   32.82    3.30
   0   4   8   34.30    3.00
   0  -5  -8    1.33    1.71
   0   5   8    0.64    1.06
   0   4  -9    0.22    1.75
   0   4  -9    0.12    0.93
   0  -4   9   -0.91    1.30
   0   3  -9   -0.39    0.86
   0   3  -9    0.84    1.37
   0  -3   9   -0.45    1.01
   0  -3   9    0.02    0.73
   0   2  -9    0.29    0.99
   0   2  -9   -0.10    0.92
   0  -2   9    0.01    0.95
   0  -2   9    0.94    0.74
   0   1  -9   -0.59    0.75
   0   1  -9    0.01    0.92
   0  -1   9   -0.50    0.82
   0   0  -9   -0.50    0.50
   0   0  -9    0.40    0.84
   0   0  -9    0.12    0.99
   0   0   9   -0.30    0.54
   0   0   9   -0.22    1.03
   0  -1  -9   -0.56    0.53
   0  -1  -9   -1.11    0.73
   0   1   9   -0.49    0.98
   0   1   9   -0.54    0.45
   0  -2  -9    1.25    0.77
   0  -2  -9    0.31    0.85
   0   2   9    0.12    0.89
   0   2   9    0.08    0.79
   0  -3  -9   -0.07    0.71
   0  -3  -9    1.07    1.21
   0   3   9    1.00    1.02
   0   3   9   -0.21    0.82
   0  -4  -9    0.11    1.39
   0   4   9   -0.82    0.87
   0   4 -10    8.59    2.04
   0   4 -10   10.28    2.99
   0  -4  10    4.82    2.21
   0   3 -10   34.13    4.58
   0   3 -10   35.47    3.36
   0  -3  10   41.94    4.19
   0  -3  10   38.59    2.78
   0   2 -10    9.26    2.13
   0   2 -10    9.35    2.01
   0  -2  10    5.70    1.91
   0  -2  10    3.53    1.13
   0   1 -10   87.58    5.38
   0  -1  10   88.83    4.23
   0  -1  10   90.70    5.43
   0   0 -10    5.04    1.67
   0   0  10    0.80    0.75
   0   0  10    1.06    1.27
   0  -1 -10   86.28    4.98
   0  -1 -10   89.36    5.78
   0  -1 -10   83.59    4.01
   0   1  10   87.41    3.82
   0   1  10   95.00    5.51
   0  -2 -10    7.58    1.41
   0   2  10    1.55    1.32
   0  -3 -10   29.26    2.50
   0  -3 -10   32.36    3.63
   0   3  10   39.49    5.21
   0   3  10   43.07    3.64
   0  -4 -10   10.53    2.88
   0   3 -11   -0.15    1.23
   0   3 -11   -0.22    1.56
   0  -3  11   -0.81    0.91
   0  -3  11    0.54    1.49
   0   2 -11   -0.93    1.19
   0   2 -11   -1.27    1.27
   0  -2  11   -0.62    0.88
   0  -2  11   -0.90    1.11
   0   1 -11   -0.25    1.02
   0  -1  11   -0.47    1.21
   0  -1  11   -0.63    0.75
   0   0 -11   -0.22    1.11
   0   0 -11   -0.37    0.68
   0   0  11    0.79    0.85
   0   0  11    0.25    1.36
   0  -1 -11   -0.44    1.05
   0  -1 -11   -0.46    0.74
   0   1  11    0.07    1.16
   0   1  11    0.63    0.65
   0  -2 -11    0.94    0.96
   0   2  11    0.33    1.22
   0  -3 -11    0.02    1.02
   0  -3 -11   -0.13    1.23
   0   2 -12   78.48    6.08
   0  -2  12   90.68    6.28
   0   1 -12    5.95    2.27
   0  -1  12    1.42    1.11
   0  -1  12    0.91    1.43
   0   0 -12   81.68    5.56
   0   0  12   83.44    4.09
   0   0  12   87.38    5.87
   0  -1 -12    9.21    2.43
   0  -1 -12    7.73    1.57
   0   1  12   -0.41    1.38
   0   1  12    0.65    0.98
   0   1 -13   -0.36    1.46
   0  -1  13    0.14    1.79
   0  -1  13    0.13    1.06
   0   0 -13   -0.89    1.32
   0   0  13    1.70    1.70
   0  -1 -13    1.70    2.85
   0   1  13   -1.46    1.50
  -1   1  13    1.42    1.90
  -1   0  13    0.28    1.75
   1   0 -13    2.24    1.77
  -1  -1  13    1.76    1.26
  -1  -1  13    1.17    1.80
   1   1 -13    2.85    2.13
  -1   2  12    0.78    1.49
  -1   1  12    0.60    1.56
  -1   1  12    1.52    0.80
   1  -1 -12    0.12    1.32
   1  -1 -12    0.70    0.97
  -1   0  12    0.06    1.54
  -1   0  12    0.43    0.85
   1   0 -12   -0.07    1.41
  -1  -1  12    0.17    0.88
  -1  -1  12    0.32    1.49
   1   1 -12   -0.23    1.47
  -1  -2  12    0.29    1.13
  -1  -2  12    0.96    1.84
   1   2 -12    3.58    2.33
  -1   3  11   11.80    3.61
   1  -3 -11   10.75    2.62
   1  -3 -11    9.19    1.81
  -1   2  11   14.68    2.71
   1  -2 -11   13.46    1.93
  -1   1  11    2.57    0.90
  -1   1  11    1.84    1.43
   1  -1 -11    0.09    1.09
   1  -1 -11    2.25    0.99
  -1   0  11   -0.28    0.78
  -1   0  11   -0.18    1.30
   1   0 -11   -0.03    1.20
   1   0 -11   -1.23    0.59
  -1  -1  11    0.97    0.99
  -1  -1  11    1.00    1.47
   1   1 -11    1.77    1.42
  -1  -2  11   10.73    1.74
  -1  -2  11   13.81    2.95
   1   2 -11   13.65    2.57
   1   2 -11   12.90    2.83
  -1  -3  11   13.07    1.99
  -1  -3  11   14.77    2.87
   1   3 -11   11.88    3.00
   1   3 -11    8.84    2.13
  -1   4  10    0.42    1.20
   1  -4 -10    0.29    1.73
  -1   3  10   14.88    2.50
   1  -3 -10   13.52    2.69
   1  -3 -10   16.76    2.11
  -1   2  10    5.88    1.75
   1  -2 -10    1.95    0.94
   1  -2 -10    2.33    1.34
  -1   1  10   -0.08    0.64
  -1   1  10   -0.85    1.11
   1  -1 -10    0.13    0.74
   1  -1 -10    1.26    1.22
  -1   0  10   -0.13    1.21
  -1   0  10   -0.12    0.68
   1   0 -10    0.86    0.66
   1   0 -10   -0.36    1.00
  -1  -1  10    1.04    0.73
  -1  -1  10   -0.15    1.22
   1   1 -10    2.65    1.46
  -1  -2  10    6.47    1.34
  -1  -2  10    2.72    1.60
   1   2 -10    1.46    1.32
   1   2 -10    2.43    1.34
  -1  -3  10   12.48    1.77
   1   3 -10   15.11    3.10
   1   3 -10   13.72    2.35
  -1  -4  10    4.26    2.05
   1   4 -10    0.58    1.96
   1   4 -10    0.40    1.11
  -1   4   9   17.15    2.68
  -1   4   9   11.57    2.32
   1  -4  -9   10.10    2.68
  -1   3   9   15.95    2.47
  -1   3   9   16.93    2.50
   1  -3  -9   19.92    3.11
   1  -3  -9   21.25    1.97
  -1   2   9   10.71    1.96
   1  -2  -9    9.32    1.97
   1  -2  -9    9.82    1.40
  -1   1   9    7.11    1.08
  -1   1   9    6.80    1.75
   1  -1  -9    5.47    1.08
   1  -1  -9    4.02    1.30
  -1   0   9    0.87    1.14
   1   0  -9   -0.68    0.84
   1   0  -9    0.68    0.59
  -1  -1   9    6.03    1.14
  -1  -1   9    5.78    1.63
   1   1  -9    8.05    1.80
   1   1  -9    3.90    1.39
  -1  -2   9   11.05    2.18
  -1  -2   9   11.31    1.50
   1   2  -9   10.40    2.00
   1   2  -9    8.38    2.16
  -1  -3   9   19.99    3.05
  -1  -3   9   17.78    1.92
   1   3  -9   19.98    3.31
   1   3  -9   20.14    2.57
  -1  -4   9   12.06    2.80
   1   4  -9   13.83    3.25
   1   4  -9    8.74    1.84
  -1   5   8    0.08    1.02
   1  -5  -8    0.75    1.81
   1  -5  -8    2.79    1.46
  -1   4   8   22.49    2.62
  -1   4   8   18.19    2.45
   1  -4  -8   21.06    3.45
  -1   3   8    0.10    0.97
  -1   3   8    0.90    0.90
   1  -3  -8    0.79    0.99
   1  -3  -8    0.77    0.70
  -1   2   8   13.99    1.99
  -1   2   8   13.30    2.06
   1  -2  -8   11.74    1.98
   1  -2  -8    8.58    1.21
  -1   1   8    3.54    0.80
  -1   1   8    3.62    1.39
  -1   1   8    2.87    0.71
   1  -1  -8    3.51    1.11
   1  -1  -8    2.52    1.06
   1  -1  -8    2.54    0.78
  -1   0   8   -0.89    0.83
  -1   0   8   -1.18    0.45
   1   0  -8    0.40    0.88
   1   0  -8    1.50    0.96
   1   0  -8    0.15    0.75
   1   0  -8   -0.36    0.52
  -1  -1   8    3.75    0.90
  -1  -1   8    1.34    1.07
   1   1  -8    2.28    1.14
   1   1  -8    4.09    1.35
  -1  -2   8   11.91    2.18
  -1  -2   8   11.94    1.45
   1   2  -8   14.96    2.45
   1   2  -8   10.33    1.79
  -1  -3   8    0.31    0.97
   1   3  -8    1.71    1.03
   1   3  -8   -0.02    1.06
  -1  -4   8   19.79    3.16
   1   4  -8   15.24    3.11
   1   4  -8   21.04    2.24
  -1  -5   8   -0.74    1.45
   1   5  -8   -0.89    1.80
   1   5  -8   -0.10    0.81
  -1   5   7    5.62    1.80
  -1   5   7    6.52    1.71
   1  -5  -7    3.92    2.27
  -1   4   7   18.25    2.49
  -1   4   7   16.83    2.23
  -1   4   7   16.09    2.35
   1  -4  -7   19.19    3.15
   1  -4  -7   18.05    2.18
  -1   3   7   27.19    2.47
  -1   3   7   27.49    2.39
   1  -3  -7   20.71    2.94
  -1   2   7   12.62    1.95
  -1   2   7   11.49    1.63
   1  -2  -7   17.16    1.68
   1  -2  -7   12.89    1.33
   1  -2  -7   17.66    2.12
  -1   1   7    4.21    1.23
  -1   1   7    2.57    0.93
  -1   1   7    3.68    0.76
  -1   1   7    2.71    0.61
   1  -1  -7    2.29    0.68
   1  -1  -7    4.51    1.13
   1  -1  -7    2.96    0.93
  -1   0   7    0.11    0.80
  -1   0   7    0.22    0.52
   1   0  -7    0.32    0.71
   1   0  -7   -0.27    0.49
   1   0  -7    0.25    0.43
   1   0  -7   -0.14    0.64
   1   0  -7    0.37    0.77
  -1  -1   7    3.75    0.83
  -1  -1   7    3.00    1.16
   1   1  -7    2.63    0.88
   1   1  -7    2.46    0.98
   1   1  -7    4.41    1.27
  -1  -2   7   12.67    2.10
  -1  -2   7    9.89    1.24
   1   2  -7   12.70    2.12
   1   2  -7   15.20    1.99
  -1  -3   7   28.33    2.82
   1   3  -7   22.28    2.17
   1   3  -7   26.50    3.40
  -1  -4   7   19.62    2.97
   1   4  -7   21.01    3.57
   1   4  -7   15.93    2.00
  -1  -5   7    5.47    1.95
   1   5  -7    3.92    1.16
   1   5  -7    2.25    2.03
  -1   5   6   17.74    2.69
  -1   5   6   19.30    2.51
  -1   5   6   23.77    2.93
   1  -5  -6   20.38    3.59
  -1   4   6    1.19    0.95
  -1   4   6    1.32    0.90
  -1   4   6    1.42    0.97
   1  -4  -6    1.83    1.41
  -1   3   6   28.33    2.40
  -1   3   6   28.02    2.40
  -1   3   6   32.55    2.39
   1  -3  -6   27.04    2.14
   1  -3  -6   28.01    2.85
  -1   2   6    1.15    0.69
  -1   2   6   -0.17    0.72
   1  -2  -6    2.52    0.65
   1  -2  -6    2.96    1.01
   1  -2  -6    2.24    0.73
  -1   1   6    6.78    0.81
  -1   1   6    5.14    1.05
  -1   1   6    4.91    0.75
  -1   1   6    5.37    1.28
   1  -1  -6    6.06    1.06
   1  -1  -6    5.52    1.11
   1  -1  -6    6.39    0.87
   1  -1  -6    5.04    1.41
  -1   0   6    0.04    0.39
  -1   0   6    0.66    0.50
  -1   0   6    0.62    0.69
   1   0  -6   -0.08    0.45
   1   0  -6    0.24    0.36
   1   0  -6    0.49    0.63
   1   0  -6   -0.58    0.52
   1   0  -6    0.39    0.44
  -1  -1   6    6.85    1.30
  -1  -1   6    6.41    0.90
   1   1  -6    4.61    1.08
   1   1  -6    4.73    0.94
   1   1  -6    4.59    1.12
  -1  -2   6    0.91    0.52
  -1  -2   6    0.21    0.69
   1   2  -6    1.09    0.89
   1   2  -6    1.29    0.76
   1   2  -6    1.79    0.78
  -1  -3   6   32.68    2.76
   1   3  -6   26.62    2.10
   1   3  -6   28.47    3.02
  -1  -4   6    0.20    1.06
   1   4  -6    1.84    0.79
   1   4  -6    2.00    1.30
   1   4  -6    2.63    1.61
  -1  -5   6   21.92    3.24
   1   5  -6   15.66    2.72
   1   5  -6   19.73    3.48
   1   5  -6   20.19    1.89
  -1   6   5    2.24    1.35
  -1   6   5    1.18    1.38
   1  -6  -5    4.22    2.24
  -1   5   5   14.42    2.34
  -1   5   5   12.41    2.33
  -1   5   5   14.49    2.14
   1  -5  -5   17.27    3.23
  -1   4   5   13.95    1.83
  -1   4   5   13.40    2.11
  -1   4   5   15.19    2.10
   1  -4  -5    9.51    2.18
  -1   3   5   47.15    2.98
  -1   3   5   43.87    2.71
  -1   3   5   42.92    2.88
   1  -3  -5   48.61    2.37
   1  -3  -5   49.87    3.54
  -1   2   5   56.74    2.89
  -1   2   5   58.31    2.89
  -1   2   5   55.14    3.03
   1  -2  -5   50.80    3.18
   1  -2  -5   57.21    2.30
   1  -2  -5   52.29    2.51
   1  -2  -5   52.28    2.62
  -1   1   5   11.00    0.91
  -1   1   5   12.21    1.61
  -1   1   5   12.58    0.88
  -1   1   5   12.40    1.29
   1  -1  -5   14.51    1.39
   1  -1  -5   14.28    1.53
   1  -1  -5   14.70    1.23
   1  -1  -5   14.64    1.02
  -1   0   5   -0.27    0.39
  -1   0   5   -0.29    0.30
  -1   0   5   -0.30    0.52
   1   0  -5    0.37    0.47
   1   0  -5   -0.05    0.28
   1   0  -5   -0.22    0.30
   1   0  -5    0.07    0.46
  -1  -1   5   13.30    1.03
  -1  -1   5   12.99    1.39
   1   1  -5   12.73    1.17
   1   1  -5   14.67    1.51
   1   1  -5   12.74    1.34
  -1  -2   5   56.38    3.14
   1   2  -5   51.47    3.27
   1   2  -5   53.59    2.74
   1   2  -5   53.31    2.76
  -1  -3   5   42.86    3.11
   1   3  -5   50.50    3.09
   1   3  -5   49.02    2.58
   1   3  -5   52.19    3.77
   1   3  -5   53.22    3.39
  -1  -4   5   16.26    2.46
   1   4  -5    8.43    1.82
   1   4  -5    9.69    2.17
   1   4  -5   11.76    1.30
  -1  -5   5   13.62    2.68
   1   5  -5   15.18    1.51
   1   5  -5   13.36    2.57
  -1  -6   5    2.41    2.04
   1   6  -5    0.86    1.61
   1   6  -5    2.47    0.84
  -1   6   4   15.09    2.23
  -1   6   4   17.12    2.70
  -1   6   4   17.79    2.82
   1  -6  -4    9.28    2.70
  -1   5   4    6.68    1.63
  -1   5   4    7.74    1.71
  -1   5   4    7.13    1.48
   1  -5  -4   13.48    2.79
  -1   4   4   15.82    1.68
  -1   4   4   17.83    2.35
  -1   4   4   13.67    1.95
   1  -4  -4   13.44    2.49
  -1   3   4   14.19    1.64
  -1   3   4   14.96    1.48
  -1   3   4   15.57    1.88
   1  -3  -4   18.99    2.18
  -1   2   4   54.62    2.75
  -1   2   4   53.19    2.52
  -1   2   4   50.80    2.62
   1  -2  -4   46.50    2.87
   1  -2  -4   45.23    2.37
   1  -2  -4   46.22    2.09
   1  -2  -4   47.38    1.91
  -1   1   4   20.21    0.99
  -1   1   4   20.66    1.64
  -1   1   4   20.22    1.43
  -1   1   4   19.23    1.29
  -1   1   4   19.20    1.03
   1  -1  -4   21.65    1.13
   1  -1  -4   23.57    1.37
   1  -1  -4   22.24    1.57
  -1   0   4    0.51    0.51
  -1   0   4   -0.03    0.28
  -1   0   4   -0.22    0.33
   1   0  -4   -0.31    0.32
   1   0  -4   -0.40    0.30
   1   0  -4   -0.05    0.23
   1   0  -4   -0.33    0.27
  -1  -1   4   17.44    1.46
  -1  -1   4   20.85    1.12
   1   1  -4   22.24    1.34
   1   1  -4   20.93    1.63
   1   1  -4   20.66    1.47
  -1  -2   4   49.07    2.74
   1   2  -4   47.14    2.46
   1   2  -4   43.95    2.64
   1   2  -4   44.75    2.21
   1   2  -4   43.72    2.89
  -1  -3   4   15.94    2.18
   1   3  -4   19.51    2.04
   1   3  -4   20.74    1.96
   1   3  -4   22.29    2.45
   1   3  -4   21.49    1.46
  -1  -4   4   20.22    2.63
   1   4  -4   11.69    1.16
   1   4  -4   11.20    2.29
   1   4  -4   12.52    1.96
   1   4  -4   13.68    1.99
  -1  -5   4    5.53    1.72
   1   5  -4   11.65    2.11
   1   5  -4   10.63    1.18
  -1  -6   4   17.35    3.13
   1   6  -4   13.14    2.62
   1   6  -4   14.79    1.39
  -1   6   3    8.71    2.06
  -1   6   3    4.73    1.70
  -1   6   3    8.06    1.75
   1  -6  -3    9.58    2.73
  -1   5   3    9.73    1.91
  -1   5   3   10.98    1.73
  -1   5   3   14.85    2.25
   1  -5  -3   10.26    2.42
  -1   4   3   25.14    2.05
  -1   4   3   32.05    2.53
   1  -4  -3   36.33    3.15
  -1   3   3   35.02    2.28
  -1   3   3   35.39    2.07
  -1   3   3   36.58    2.48
   1  -3  -3   26.81    2.46
  -1   2   3   78.55    3.51
  -1   2   3   78.58    3.28
  -1   2   3   78.97    3.46
   1  -2  -3   88.98    2.66
   1  -2  -3   80.91    3.77
  -1   1   3   17.00    0.77
  -1   1   3   17.32    1.17
  -1   1   3   16.95    1.11
  -1   1   3   18.16    1.30
   1  -1  -3   15.05    1.05
   1  -1  -3   15.45    0.83
   1  -1  -3   15.66    1.24
  -1   0   3    0.00    0.28
  -1   0   3   -0.37    0.31
   1   0  -3    1.16    0.29
   1   0  -3    0.04    0.33
  -1  -1   3   15.96    1.23
   1   1  -3   14.97    1.04
   1   1  -3   15.82    1.27
   1   1  -3   16.22    1.06
  -1  -2   3   82.83    3.79
   1   2  -3   86.98    3.58
   1   2  -3   87.28    3.17
   1   2  -3   88.11    4.09
   1   2  -3   85.02    3.75
   1   2  -3   83.86    3.12
   1   3  -3   31.51    2.63
   1   3  -3   24.01    1.62
   1   3  -3   30.63    2.24
   1   3  -3   30.75    2.20
   1   3  -3   25.46    1.44
  -1  -4   3   27.33    2.64
   1   4  -3   35.29    2.69
   1   4  -3   33.18    2.72
   1   4  -3   37.15    3.15
  -1  -5   3   16.00    2.53
   1   5  -3   10.26    1.86
   1   5  -3    7.89    1.71
   1   5  -3    9.28    1.00
  -1  -6   3    8.81    2.49
   1   6  -3    8.95    2.17
   1   6  -3    8.06    1.02
  -1   6   2    8.75    2.14
  -1   6   2    8.71    2.14
  -1   6   2    8.79    1.60
   1  -6  -2    9.22    2.60
  -1   5   2   10.43    2.02
  -1   5   2   11.04    1.94
  -1   5   2   11.75    1.70
   1  -5  -2    9.06    2.16
  -1   4   2   29.78    2.63
  -1   4   2   31.18    2.19
  -1   4   2   38.32    2.68
   1  -4  -2   35.30    3.06
  -1   3   2    5.29    0.85
  -1   3   2    4.61    1.08
  -1   3   2    5.09    1.02
   1  -3  -2    3.77    1.12
  -1   2   2   31.21    1.92
  -1   2   2   29.77    1.79
  -1   2   2   32.23    1.65
   1  -2  -2   34.00    2.07
  -1   1   2    2.70    0.54
  -1   1   2    3.50    0.61
  -1   1   2    4.77    0.65
   1  -1  -2    3.12    0.33
   1  -1  -2    1.78    0.52
  -1   0   2    0.10    0.30
   1   0  -2   -0.04    0.13
  -1  -1   2    3.14    0.62
   1   1  -2    1.71    0.52
   1   1  -2    2.10    0.41
   1   2  -2   30.56    1.30
   1   2  -2   31.13    1.30
   1   2  -2   31.39    1.87
   1   2  -2   32.17    1.92
   1   2  -2   31.19    2.09
  -1  -3   2    5.20    0.91
   1   3  -2    2.70    0.44
   1   3  -2    2.27    0.77
   1   3  -2    3.79    0.52
   1   3  -2    2.70    0.92
   1   3  -2    4.56    1.17
   1   4  -2   35.33    2.70
   1   4  -2   41.72    3.04
   1   4  -2   35.83    2.75
   1   4  -2   37.35    1.70
   1   5  -2    8.44    0.89
   1   5  -2    6.57    1.60
   1   5  -2    7.76    1.79
   1   6  -2    9.56    2.20
   1   6  -2   12.14    2.34
   1   6  -2    9.46    0.97
  -1   6   1    4.13    1.12
  -1   6   1    4.49    1.66
  -1   6   1    4.47    1.74
   1  -6  -1    2.01    2.64
  -1   5   1   11.96    1.54
  -1   5   1   11.06    2.10
   1  -5  -1   17.03    2.59
  -1   4   1   60.25    2.90
  -1   4   1   59.46    3.57
  -1   4   1   57.78    3.37
   1  -4  -1   50.83    3.53
  -1   3   1   34.63    2.43
  -1   3   1   39.54    2.37
  -1   3   1   40.85    2.11
  -1   3   1   41.70    2.11
   1  -3  -1   53.12    2.88
  -1   2   1   14.40    0.97
  -1   2   1   14.23    1.14
   1  -2  -1   14.53    1.27
  -1   1   1   37.05    1.52
  -1   1   1   36.31    1.62
  -1   1   1   36.91    1.67
   1   0  -1    0.05    0.08
   1   1  -1   39.45    1.30
   1   1  -1   39.66    1.70
   1   2  -1   16.17    1.24
   1   2  -1   14.99    0.68
   1   2  -1   14.55    1.18
   1   2  -1   14.63    1.32
  -1  -3   1   41.38    2.46
   1   3  -1   48.95    1.82
   1   3  -1   47.33    2.71
   1   3  -1   49.31    1.75
   1   3  -1   46.45    2.72
   1   3  -1   48.96    2.66
  -1  -4   1   59.78    3.33
   1   4  -1   52.31    2.17
   1   4  -1   53.73    3.33
   1   4  -1   51.27    3.22
   1   5  -1   18.64    1.27
   1   5  -1   18.69    2.44
   1   5  -1   20.55    2.38
   1   6  -1    0.65    1.07
   1   6  -1    3.96    0.70
   1   6  -1    2.52    1.46
  -1   6   0    0.52    1.38
  -1   6   0    2.46    0.85
  -1   6   0    2.70    1.47
  -1   5   0   28.66    2.70
  -1   5   0   29.04    1.98
  -1   5   0   34.16    3.05
   1  -5   0   29.65    2.94
  -1   4   0    8.10    1.57
  -1   4   0   11.33    1.25
  -1   4   0    6.49    1.30
   1  -4   0   10.59    1.73
  -1   3   0   11.81    1.10
  -1   3   0   11.40    1.32
  -1   3   0   13.01    1.69
  -1   3   0   11.63    0.94
   1  -3   0   13.43    1.43
  -1   2   0   33.56    1.79
  -1   2   0   31.98    1.39
  -1   2   0   30.69    1.48
  -1   2   0   34.05    1.97
   1  -2   0   31.58    1.79
  -1   1   0   24.41    1.51
  -1   1   0   24.11    1.16
  -1   1   0   23.24    1.05
   1   1   0   23.27    1.25
   1   2   0   30.87    1.06
   1   2   0   31.19    1.77
   1   2   0   29.00    1.62
  -1  -3   0   11.91    1.34
   1   3   0   10.59    0.82
   1   3   0   10.92    0.74
   1   3   0   12.89    1.31
   1   3   0   12.19    1.54
  -1  -4   0   11.68    1.76
   1   4   0   10.54    1.06
   1   4   0   12.23    1.83
   1   4   0    9.09    1.50
  -1  -5   0   29.10    2.95
   1   5   0   28.22    2.84
   1   5   0   35.81    2.87
   1   5   0   32.06    1.81
   1   6   0    3.31    0.73
   1   6   0    1.98    1.44
  -1   6  -1    2.86    0.84
  -1   6  -1    3.50    1.71
  -1   6  -1    3.12    1.60
  -1   5  -1   20.60    2.59
  -1   5  -1   14.47    2.33
  -1   5  -1   17.90    1.46
  -1   4  -1   55.16    2.51
  -1   4  -1   53.04    3.48
  -1   4  -1   52.49    3.29
   1  -4   1   60.42    3.42
  -1   3  -1   47.77    2.67
  -1   3  -1   50.77    2.16
  -1   3  -1   52.24    2.10
  -1   3  -1   47.95    2.92
  -1   3  -1   51.10    2.80
   1  -3   1   44.77    2.59
  -1   2  -1   15.73    0.93
  -1   2  -1   12.83    1.29
  -1   2  -1   14.37    1.21
  -1   2  -1   15.39    0.85
   1  -2   1   16.01    1.13
  -1   1  -1   42.27    1.80
  -1   1  -1   40.12    1.54
  -1   1  -1   40.97    1.88
  -1   0  -1    0.21    0.09
   1   1   1   35.47    1.29
   1   1   1   34.56    1.54
   1   1   1   33.30    1.56
   1   2   1   15.31    0.80
   1   2   1   15.21    1.10
   1   2   1   12.98    1.20
   1   2   1   16.99    0.96
  -1  -3  -1   46.90    2.76
  -1  -3  -1   52.86    2.37
   1   3   1   42.35    2.43
   1   3   1   40.56    1.86
   1   3   1   41.49    2.59
   1   3   1   44.15    2.03
  -1  -4  -1   49.98    3.44
   1   4   1   59.41    3.52
   1   4   1   55.91    2.59
   1   4   1   58.86    3.29
  -1  -5  -1   16.29    2.67
   1   5   1   13.71    1.48
   1   5   1   18.85    2.45
   1   5   1   12.95    2.18
  -1  -6  -1    3.35    1.89
   1   6   1    5.40    1.02
   1   6   1    4.90    1.52
   1   6   1    4.25    1.64
  -1   6  -2   11.98    2.35
  -1   6  -2    9.02    2.31
  -1   5  -2    6.51    0.96
  -1   5  -2    9.03    1.92
  -1   5  -2    9.10    1.10
  -1   5  -2    7.13    1.67
  -1   4  -2   34.94    2.85
  -1   4  -2   37.26    1.94
  -1   4  -2   38.63    2.81
  -1   3  -2    1.75    0.74
  -1   3  -2    3.90    0.63
  -1   3  -2    2.86    0.54
  -1   3  -2    1.05    0.62
  -1   3  -2    0.88    0.68
   1  -3   2    5.52    0.97
  -1   2  -2   31.75    1.45
  -1   2  -2   31.24    1.98
  -1   2  -2   31.11    1.47
  -1   2  -2   30.75    1.89
  -1   2  -2   33.26    1.66
  -1   2  -2   33.80    2.03
  -1   1  -2    2.59    0.44
  -1   1  -2    2.41    0.57
  -1   1  -2    2.39    0.58
   1  -1   2    3.98    0.71
  -1   0  -2    0.04    0.12
   1   1   2    2.43    0.44
   1   1   2    2.88    0.49
   1   1   2    4.24    0.63
   1   2   2   29.83    1.46
   1   2   2   31.60    1.86
   1   2   2   30.90    1.67
  -1  -3  -2    3.70    0.71
  -1  -3  -2    3.59    1.04
   1   3   2    5.09    0.97
   1   3   2    6.22    0.80
   1   3   2    6.18    0.87
  -1  -4  -2   32.04    2.86
   1   4   2   34.88    2.51
   1   4   2   33.55    1.98
  -1  -5  -2   10.35    2.26
   1   5   2   10.56    1.86
   1   5   2    9.16    1.40
   1   5   2   11.81    1.97
  -1  -6  -2   10.51    2.60
   1   6   2    7.99    1.38
   1   6   2    9.29    2.09
   1   6   2   11.61    2.33
  -1   6  -3   10.60    2.31
  -1   6  -3    8.79    2.24
   1  -6   3    6.22    2.18
  -1   5  -3   10.76    1.16
  -1   5  -3    8.09    1.90
  -1   5  -3    9.63    2.03
  -1   4  -3   34.20    2.80
  -1   4  -3   32.47    2.97
  -1   4  -3   31.19    2.83
  -1   4  -3   33.80    1.88
  -1   3  -3   27.61    2.31
  -1   3  -3   29.14    1.63
  -1   3  -3   30.66    2.26
  -1   3  -3   30.05    2.45
  -1   2  -3   88.46    3.76
  -1   2  -3   86.87    3.25
  -1   2  -3   86.04    3.81
  -1   2  -3   88.40    3.82
   1  -2   3   81.79    3.79
  -1   1  -3   14.91    1.16
  -1   1  -3   16.22    1.21
  -1   1  -3   14.19    1.13
  -1   1  -3   15.53    1.08
   1  -1   3   16.18    1.22
  -1   0  -3   -0.08    0.42
  -1   0  -3    0.12    0.39
  -1   0  -3   -0.50    0.29
  -1   0  -3   -0.11    0.19
   1   0   3    0.24    0.35
   1   0   3   -0.27    0.23
  -1  -1  -3   14.74    0.76
  -1  -1  -3   15.02    0.96
   1   1   3   16.70    1.17
   1   1   3   16.57    1.11
  -1  -2  -3   88.64    3.13
  -1  -2  -3   78.89    3.73
   1   2   3   80.37    3.53
   1   2   3   84.09    3.41
   1   2   3   80.50    3.22
  -1  -3  -3   31.64    1.78
  -1  -3  -3   31.62    2.54
   1   3   3   36.02    2.43
   1   3   3   34.41    1.88
   1   3   3   38.58    2.26
  -1  -4  -3   35.91    3.08
   1   4   3   25.70    2.42
   1   4   3   27.47    1.92
   1   4   3   28.75    2.35
  -1  -5  -3   10.01    2.43
   1   5   3   12.61    1.98
   1   5   3   13.19    1.74
   1   5   3   12.93    2.19
  -1  -6  -3    5.87    2.21
   1   6   3    6.40    1.43
   1   6   3    9.33    2.18
  -1   6  -4   14.26    2.66
  -1   6  -4   14.42    1.55
   1  -6   4   19.37    3.40
  -1   5  -4   14.04    2.43
  -1   5  -4   10.62    2.18
  -1   5  -4    9.92    1.27
   1  -5   4   10.59    2.33
  -1   4  -4   11.52    1.93
  -1   4  -4   10.65    1.89
  -1   4  -4   12.92    2.32
  -1   4  -4   12.44    1.25
   1  -4   4   15.10    2.27
  -1   3  -4   19.56    2.21
  -1   3  -4   22.19    2.05
  -1   3  -4   19.57    1.48
  -1   3  -4   23.33    2.33
   1  -3   4   18.09    2.26
  -1   2  -4   47.25    2.31
  -1   2  -4   46.43    2.62
  -1   2  -4   45.50    2.68
  -1   2  -4   45.18    2.69
   1  -2   4   49.22    2.77
  -1   1  -4   22.28    1.52
  -1   1  -4   24.98    1.64
  -1   1  -4   20.57    1.44
   1  -1   4   19.71    1.52
   1  -1   4   20.24    1.12
  -1   0  -4   -0.38    0.20
  -1   0  -4    0.19    0.38
  -1   0  -4   -0.34    0.43
  -1   0  -4   -0.17    0.30
   1   0   4   -0.51    0.22
   1   0   4   -0.24    0.34
   1   0   4   -0.26    0.33
  -1  -1  -4   20.70    1.08
  -1  -1  -4   22.00    1.39
  -1  -1  -4   21.30    1.51
   1   1   4   21.04    1.54
   1   1   4   21.60    1.46
   1   1   4   20.66    0.96
  -1  -2  -4   46.09    2.79
  -1  -2  -4   45.09    2.00
  -1  -2  -4   46.19    1.81
  -1  -2  -4   49.06    2.25
   1   2   4   50.58    2.53
   1   2   4   48.44    2.40
   1   2   4   52.12    2.63
  -1  -3  -4   21.71    2.23
   1   3   4   13.97    1.78
   1   3   4   14.42    1.37
   1   3   4   15.88    1.59
  -1  -4  -4   10.03    2.03
   1   4   4   15.41    1.99
   1   4   4   18.45    2.33
   1   4   4   15.11    1.56
  -1  -5  -4   13.49    2.78
   1   5   4    9.06    1.52
   1   5   4    7.82    1.87
   1   5   4    7.48    1.66
  -1  -6  -4   13.53    3.02
   1   6   4   16.74    2.83
   1   6   4   16.68    2.26
  -1   6  -5   -0.39    1.39
  -1   6  -5    0.38    0.73
   1  -6   5    2.29    1.83
  -1   5  -5   16.37    1.63
  -1   5  -5   17.50    2.79
   1  -5   5   16.64    2.97
  -1   4  -5    9.32    1.89
  -1   4  -5   13.43    2.21
  -1   4  -5   10.58    1.38
  -1   4  -5   13.57    2.54
   1  -4   5   12.58    2.19
  -1   3  -5   46.64    2.57
  -1   3  -5   49.55    3.32
  -1   3  -5   49.69    3.22
  -1   3  -5   48.19    3.50
   1  -3   5   46.16    3.28
  -1   2  -5   55.04    3.18
  -1   2  -5   54.86    2.86
  -1   2  -5   53.84    3.20
  -1   2  -5   53.27    3.02
   1  -2   5   63.78    2.33
   1  -2   5   56.82    3.27
  -1   1  -5   12.78    1.35
  -1   1  -5   13.65    1.37
  -1   1  -5   12.81    1.31
  -1   1  -5   14.38    0.68
   1  -1   5   12.12    1.00
   1  -1   5   12.30    1.38
  -1   0  -5   -0.28    0.41
  -1   0  -5   -0.36    0.51
  -1   0  -5    0.00    0.43
  -1   0  -5    0.13    0.26
  -1   0  -5    0.10    0.31
   1   0   5   -0.24    0.37
   1   0   5    0.12    0.31
   1   0   5   -0.36    0.34
  -1  -1  -5   13.91    0.95
  -1  -1  -5   12.43    1.28
  -1  -1  -5   12.51    1.18
   1   1   5   11.67    0.85
   1   1   5   11.13    1.24
   1   1   5   11.64    1.35
   1   1   5   11.07    0.78
  -1  -2  -5   50.94    3.12
  -1  -2  -5   49.45    2.49
  -1  -2  -5   53.78    2.61
  -1  -2  -5   51.80    2.17
   1   2   5   59.70    2.85
   1   2   5   57.69    2.89
  -1  -3  -5   52.72    3.49
   1   3   5   40.41    2.80
   1   3   5   43.38    2.58
   1   3   5   40.96    2.68
  -1  -4  -5    8.62    1.99
   1   4   5   14.61    1.96
   1   4   5   15.23    2.25
   1   4   5   14.72    1.64
  -1  -5  -5   17.70    3.24
   1   5   5   13.67    1.88
   1   5   5   14.15    2.40
  -1  -6  -5    4.86    2.21
   1   6   5    0.15    1.08
   1   6   5    1.83    1.39
  -1   5  -6   16.79    2.76
  -1   5  -6   16.04    1.78
   1  -5   6   18.23    3.00
  -1   4  -6    1.82    1.14
  -1   4  -6    1.36    1.49
  -1   4  -6    1.51    0.81
   1  -4   6    0.87    1.05
  -1   3  -6   28.46    2.91
  -1   3  -6   26.01    2.10
  -1   3  -6   28.76    2.56
  -1   3  -6   32.44    2.78
   1  -3   6   27.99    2.70
  -1   2  -6    1.24    0.71
  -1   2  -6    1.32    0.99
  -1   2  -6    1.01    0.74
   1  -2   6    0.46    0.50
   1  -2   6    0.62    0.72
  -1   1  -6    5.01    1.04
  -1   1  -6    4.56    1.04
  -1   1  -6    5.64    0.57
  -1   1  -6    6.40    1.24
   1  -1   6    5.22    0.82
   1  -1   6    5.81    1.23
  -1   0  -6   -0.36    0.58
  -1   0  -6    0.02    0.55
  -1   0  -6    0.12    0.32
  -1   0  -6    0.16    0.48
  -1   0  -6   -0.43    0.33
   1   0   6   -0.63    0.28
   1   0   6    0.29    0.51
   1   0   6    0.46    0.65
  -1  -1  -6    3.01    0.87
  -1  -1  -6    4.25    0.70
  -1  -1  -6    4.38    0.97
   1   1   6    5.79    1.20
   1   1   6    6.70    1.18
   1   1   6    6.66    0.74
   1   1   6    5.95    0.75
  -1  -2  -6    2.09    0.54
  -1  -2  -6    1.71    0.93
  -1  -2  -6    2.43    0.76
   1   2   6    0.86    0.63
   1   2   6    0.43    0.70
  -1  -3  -6   27.73    2.13
  -1  -3  -6   26.69    2.82
   1   3   6   28.53    2.22
   1   3   6   31.27    2.44
   1   3   6   27.56    2.34
  -1  -4  -6    1.34    1.37
   1   4   6    0.49    0.93
   1   4   6    0.51    0.84
   1   4   6    2.16    0.93
  -1  -5  -6   19.91    3.45
   1   5   6   20.18    2.85
   1   5   6   17.23    2.32
  -1   5  -7    3.86    1.15
  -1   5  -7    5.09    1.94
   1  -5   7    4.36    2.04
  -1   4  -7   17.85    1.95
  -1   4  -7   18.91    3.11
   1  -4   7   14.57    2.58
  -1   3  -7   21.75    2.11
  -1   3  -7   23.06    3.19
   1  -3   7   28.44    2.79
  -1   2  -7   12.66    1.72
  -1   2  -7   15.18    2.17
  -1   2  -7   17.16    1.90
   1  -2   7   11.21    1.97
   1  -2   7   11.79    1.33
  -1   1  -7    3.60    1.14
  -1   1  -7    3.14    1.05
  -1   1  -7    2.06    0.94
  -1   1  -7    2.58    0.47
   1  -1   7    4.16    1.26
   1  -1   7    3.77    0.81
  -1   0  -7    0.06    0.37
  -1   0  -7   -0.42    0.62
  -1   0  -7   -0.04    0.72
   1   0   7    0.38    0.46
   1   0   7    0.08    0.69
  -1  -1  -7    2.21    0.66
  -1  -1  -7    3.29    1.01
  -1  -1  -7    3.51    1.01
   1   1   7    3.86    1.07
   1   1   7    3.73    0.64
   1   1   7    2.96    1.14
   1   1   7    3.25    0.68
  -1  -2  -7   16.82    1.73
  -1  -2  -7   13.64    1.26
  -1  -2  -7   11.84    1.92
   1   2   7   10.96    1.65
   1   2   7    9.79    1.58
  -1  -3  -7   20.45    2.86
   1   3   7   27.38    2.30
   1   3   7   28.72    2.40
  -1  -4  -7   17.61    3.01
  -1  -4  -7   16.31    2.06
   1   4   7   16.87    3.20
   1   4   7   14.31    2.04
   1   5   7    7.16    1.66
   1   5   7    6.50    1.87
  -1   5  -8   -0.18    1.83
  -1   5  -8    0.72    0.98
   1  -5   8    0.69    1.71
  -1   4  -8   21.44    3.60
  -1   4  -8   20.75    2.25
   1  -4   8   18.64    3.06
  -1   3  -8    0.28    0.90
  -1   3  -8    0.16    1.11
   1  -3   8    1.37    1.19
   1  -3   8    0.71    0.71
  -1   2  -8    6.84    1.68
  -1   2  -8   10.54    1.78
   1  -2   8   11.46    1.42
   1  -2   8   11.70    2.13
  -1   1  -8    1.64    0.98
  -1   1  -8    2.84    1.13
  -1   1  -8    2.63    1.14
   1  -1   8    3.85    1.29
   1  -1   8    4.11    0.93
  -1   0  -8    0.34    0.52
  -1   0  -8   -1.20    0.79
  -1   0  -8   -0.34    0.67
   1   0   8   -0.82    0.85
   1   0   8   -0.48    0.49
  -1  -1  -8    3.07    0.99
  -1  -1  -8    2.39    0.75
  -1  -1  -8    3.19    1.13
   1   1   8    3.59    0.78
   1   1   8    3.29    1.12
   1   1   8    3.63    1.28
  -1  -2  -8    7.83    1.67
  -1  -2  -8   10.38    1.62
  -1  -2  -8   10.69    1.34
   1   2   8   13.13    1.93
   1   2   8   11.88    1.77
  -1  -3  -8    1.45    1.25
  -1  -3  -8    0.93    0.92
   1   3   8    1.04    0.88
   1   3   8   -0.14    0.83
  -1  -4  -8   26.53    3.90
   1   4   8   19.08    2.48
  -1  -5  -8   -0.31    1.56
   1   5   8    1.64    1.18
  -1   4  -9   10.88    2.02
  -1   4  -9    9.70    2.86
   1  -4   9   16.45    3.13
  -1   3  -9   23.10    2.81
  -1   3  -9   18.90    3.14
   1  -3   9   19.23    1.92
   1  -3   9   17.35    2.97
  -1   2  -9   11.37    1.98
  -1   2  -9   10.19    2.13
   1  -2   9   11.08    1.51
   1  -2   9   11.25    2.31
  -1   1  -9    6.58    1.70
  -1   1  -9    8.11    1.80
   1  -1   9    6.30    1.74
   1  -1   9    7.32    1.23
  -1   0  -9   -0.07    0.51
  -1   0  -9   -0.02    1.06
  -1   0  -9   -0.12    0.94
   1   0   9   -0.09    0.97
   1   0   9    0.53    0.59
  -1  -1  -9    4.79    1.03
  -1  -1  -9    7.29    1.60
   1   1   9    5.02    0.94
   1   1   9    6.44    1.69
  -1  -2  -9   10.03    1.89
  -1  -2  -9   11.82    1.50
  -1  -2  -9   10.47    1.82
   1   2   9   11.58    1.91
   1   2   9   11.81    1.97
  -1  -3  -9   18.71    1.91
  -1  -3  -9   21.29    3.07
   1   3   9   17.76    2.39
   1   3   9   13.88    3.13
  -1  -4  -9   15.29    3.18
   1   4   9   11.05    2.13
  -1   4 -10   -0.81    1.05
  -1   4 -10   -0.68    1.86
   1  -4  10    1.32    1.18
   1  -4  10   -1.01    1.34
  -1   3 -10   14.83    3.08
  -1   3 -10   12.13    2.25
   1  -3  10   15.02    1.92
   1  -3  10   13.14    2.83
  -1   2 -10    2.20    1.33
  -1   2 -10    3.18    1.58
   1  -2  10    5.38    1.75
   1  -2  10    6.23    1.28
  -1   1 -10    0.27    1.10
   1  -1  10    0.38    1.08
  -1   0 -10    0.23    0.65
  -1   0 -10   -1.17    0.84
   1   0  10    0.72    1.24
   1   0  10   -0.94    0.49
  -1  -1 -10    0.33    0.73
  -1  -1 -10    1.52    1.44
  -1  -1 -10    2.62    1.24
   1   1  10    1.63    0.71
   1   1  10   -0.20    1.14
  -1  -2 -10    3.53    1.04
   1   2  10    4.44    1.58
  -1  -3 -10   14.48    1.89
  -1  -3 -10   15.15    2.70
   1   3  10   16.30    2.62
  -1  -4 -10    0.15    1.62
   1   4  10    1.20    1.39
  -1   3 -11    8.64    2.27
  -1   3 -11    9.86    2.69
   1  -3  11   15.64    2.19
   1  -3  11   12.76    2.80
  -1   2 -11   14.21    2.82
  -1   2 -11   14.95    2.70
   1  -2  11   11.16    1.85
   1  -2  11   16.06    2.93
  -1   1 -11    1.19    1.40
   1  -1  11   -0.15    1.22
   1  -1  11    1.79    1.03
  -1   0 -11    0.11    1.11
  -1   0 -11    0.52    0.74
   1   0  11   -0.41    0.66
   1   0  11   -0.78    1.08
  -1  -1 -11    1.98    1.27
  -1  -1 -11    1.37    0.91
   1   1  11    0.53    1.40
   1   1  11    3.25    0.92
  -1  -2 -11   11.73    1.71
  -1  -3 -11    7.72    1.61
  -1  -3 -11   11.36    2.70
  -1   2 -12    2.35    1.86
   1  -2  12    0.81    1.63
   1  -2  12    1.14    1.15
  -1   1 -12    0.71    1.56
   1  -1  12    0.88    1.03
   1  -1  12   -0.89    1.33
  -1   0 -12    0.81    1.39
   1   0  12   -1.53    1.23
  -1  -1 -12    0.01    1.35
  -1  -1 -12    0.83    1.00
   1   1  12   -0.25    1.37
  -1   1 -13    2.20    2.05
   1  -1  13    4.43    2.25
   1  -1  13    2.46    1.29
  -1   0 -13   -1.68    1.49
   1   0  13    0.33    1.65
  -1  -1 -13    2.31    1.76
  -2   1  13   -0.01    1.41
   2  -1 -13    2.77    1.61
  -2   0  13    4.65    2.25
   2   0 -13    3.62    2.09
  -2  -1  13    0.21    1.12
  -2  -1  13    4.99    2.34
   2   1 -13   -1.15    1.64
  -2   2  12    6.01    2.05
  -2   1  12   16.18    3.05
  -2   1  12   14.15    1.68
   2  -1 -12    8.12    1.60
  -2   0  12   17.76    3.01
   2   0 -12   16.70    3.12
  -2  -1  12   12.78    2.94
   2   1 -12   10.39    2.70
  -2  -2  12    4.32    2.14
  -2  -2  12    1.30    0.90
   2   2 -12    5.72    2.43
  -2   3  11   13.75    2.76
   2  -3 -11   17.77    2.32
   2  -3 -11   17.17    3.33
  -2   2  11   11.22    2.42
   2  -2 -11   12.92    1.85
  -2   1  11   37.73    2.39
  -2   1  11   33.40    3.55
   2  -1 -11   31.42    2.53
   2  -1 -11   34.17    3.37
  -2   0  11    8.23    2.32
  -2   0  11   15.25    1.85
   2   0 -11   15.18    2.76
  -2  -1  11   29.79    2.56
  -2  -1  11   32.03    3.62
   2   1 -11   28.33    3.76
  -2  -2  11   12.17    1.83
  -2  -2  11    9.25    2.42
   2   2 -11   14.81    3.20
   2   2 -11   11.81    2.59
  -2  -3  11   19.11    3.44
  -2  -3  11   17.00    2.22
   2   3 -11   20.03    3.13
   2   3 -11   15.73    3.60
  -2   4  10    4.63    2.64
  -2   4  10    4.62    1.73
   2  -4 -10    2.67    2.08
  -2   3  10    4.94    1.74
   2  -3 -10    4.01    1.87
   2  -3 -10    3.60    1.25
  -2   2  10   17.77    2.74
   2  -2 -10   18.22    2.02
   2  -2 -10   17.87    2.84
  -2   1  10   46.29    2.65
  -2   1  10   49.67    4.09
   2  -1 -10   48.54    2.91
   2  -1 -10   43.67    3.53
  -2   0  10   52.39    4.05
   2   0 -10   52.82    2.75
   2   0 -10   45.80    3.71
  -2  -1  10   45.67    3.95
  -2  -1  10   45.04    2.83
   2   1 -10   46.49    3.94
   2   1 -10   47.07    4.13
  -2  -2  10   23.06    3.37
  -2  -2  10   17.98    2.05
   2   2 -10   13.77    2.40
   2   2 -10   16.55    2.96
  -2  -3  10    4.73    1.28
  -2  -3  10    4.05    2.04
   2   3 -10    4.28    1.66
   2   3 -10    2.12    1.94
  -2  -4  10    5.67    2.35
   2   4 -10    4.82    1.67
   2   4 -10    3.85    2.41
  -2   4   9   18.52    2.69
  -2   4   9   20.15    2.91
   2  -4  -9   10.54    2.86
  -2   3   9   18.20    2.64
  -2   3   9   21.10    2.83
   2  -3  -9   20.56    2.06
   2  -3  -9   22.13    3.30
  -2   2   9   30.35    3.01
   2  -2  -9   32.58    3.15
   2  -2  -9   29.13    2.24
  -2   1   9   79.78    3.54
  -2   1   9   86.75    5.06
  -2   1   9   74.32    4.03
   2  -1  -9   77.20    3.65
   2  -1  -9   83.82    4.53
  -2   0   9   74.12    3.51
  -2   0   9   72.42    4.60
   2   0  -9   76.88    3.32
   2   0  -9   71.71    4.39
  -2  -1   9   78.08    4.86
  -2  -1   9   79.29    3.70
   2   1  -9   78.64    4.75
   2   1  -9   79.67    4.88
  -2  -2   9   30.46    2.28
  -2  -2   9   33.86    3.18
   2   2  -9   27.55    3.17
   2   2  -9   26.73    2.81
  -2  -3   9   16.40    1.86
  -2  -3   9   16.60    2.83
   2   3  -9   15.90    2.27
   2   3  -9   20.64    3.47
  -2  -4   9   18.68    3.32
   2   4  -9   17.87    3.40
   2   4  -9   12.21    2.09
  -2   5   8    0.87    1.14
  -2   5   8   -0.98    0.97
   2  -5  -8   -2.03    1.57
   2  -5  -8    2.96    1.43
  -2   4   8    2.73    1.37
  -2   4   8    0.88    1.01
   2  -4  -8    0.12    1.37
  -2   3   8   19.68    2.53
  -2   3   8   22.49    2.69
   2  -3  -8   21.76    3.07
   2  -3  -8   19.18    1.81
  -2   2   8   49.03    3.33
  -2   2   8   46.60    3.40
   2  -2  -8   52.75    3.76
   2  -2  -8   48.58    2.73
  -2   1   8  117.78    4.46
  -2   1   8  117.14    5.90
  -2   1   8  116.30    4.32
   2  -1  -8  111.43    4.55
   2  -1  -8  113.82    5.26
   2  -1  -8  112.28    5.37
  -2   0   8  158.28    7.13
  -2   0   8  158.35    5.79
   2   0  -8  161.82    5.64
   2   0  -8  155.03    6.99
   2   0  -8  163.69    6.88
  -2  -1   8  111.11    4.46
  -2  -1   8  108.28    5.56
   2   1  -8  111.99    5.60
   2   1  -8  108.28    5.40
  -2  -2   8   47.55    2.63
   2   2  -8   49.69    3.35
   2   2  -8   44.96    3.83
  -2  -3   8   17.45    2.62
   2   3  -8   14.34    2.82
   2   3  -8   20.48    2.25
  -2  -4   8    1.53    1.50
   2   4  -8    0.43    0.92
   2   4  -8    1.40    1.79
  -2  -5   8    0.33    1.55
   2   5  -8    1.08    2.03
   2   5  -8   -0.47    0.82
  -2   5   7    5.56    1.68
  -2   5   7    4.50    1.66
  -2   5   7    5.46    1.68
   2  -5  -7    3.65    2.20
  -2   4   7   13.58    2.18
  -2   4   7   17.35    2.29
  -2   4   7   14.78    2.19
   2  -4  -7   21.02    2.36
   2  -4  -7   14.03    2.84
  -2   3   7   62.02    3.70
  -2   3   7   61.43    3.58
  -2   3   7   60.35    3.79
   2  -3  -7   53.93    4.13
   2  -3  -7   60.20    2.96
  -2   2   7  107.74    5.01
  -2   2   7  102.98    5.14
   2  -2  -7  102.02    5.30
   2  -2  -7  112.04    4.28
  -2   1   7   91.86    3.54
  -2   1   7   92.25    4.80
  -2   1   7   95.22    3.67
  -2   1   7   93.65    4.44
   2  -1  -7   92.36    3.76
   2  -1  -7   92.52    4.47
   2  -1  -7   89.05    4.25
  -2   0   7   75.70    3.18
  -2   0   7   71.33    4.15
   2   0  -7   76.77    3.62
   2   0  -7   71.39    4.01
   2   0  -7   74.19    3.52
   2   0  -7   73.87    3.05
   2   0  -7   73.59    3.86
  -2  -1   7   88.20    4.64
  -2  -1   7   89.86    3.67
   2   1  -7   88.56    4.61
  -2  -2   7  101.63    5.25
  -2  -2   7  103.46    4.05
   2   2  -7  101.50    5.61
   2   2  -7  107.70    4.95
  -2  -3   7   55.27    3.91
   2   3  -7   56.73    4.34
   2   3  -7   57.90    3.36
  -2  -4   7   17.13    2.73
   2   4  -7   17.08    3.18
   2   4  -7   20.07    2.00
  -2  -5   7    6.16    1.99
   2   5  -7    3.97    1.17
   2   5  -7    4.25    2.24
  -2   5   6    0.96    1.16
  -2   5   6    0.64    0.99
  -2   5   6   -0.76    0.95
   2  -5  -6   -0.16    1.54
  -2   4   6    4.66    1.21
  -2   4   6    2.35    1.18
  -2   4   6    2.52    1.09
   2  -4  -6    2.06    1.44
   2  -4  -6    4.86    1.21
  -2   3   6   24.80    2.24
  -2   3   6   24.63    2.29
  -2   3   6   23.43    2.16
   2  -3  -6   20.76    1.95
   2  -3  -6   22.61    2.65
  -2   2   6   81.69    4.27
  -2   2   6   86.27    3.89
  -2   2   6   86.12    4.09
   2  -2  -6   84.22    4.42
   2  -2  -6   83.55    3.41
   2  -2  -6   87.78    3.72
  -2   1   6   99.44    4.88
  -2   1   6  103.17    3.68
  -2   1   6  100.88    4.49
  -2   1   6  104.79    3.85
   2  -1  -6  105.99    4.96
   2  -1  -6  102.73    3.94
   2  -1  -6  111.23    4.42
   2  -1  -6  104.30    4.62
  -2   0   6  133.76    5.91
  -2   0   6  139.63    5.50
  -2   0   6  138.08    4.94
   2   0  -6  147.85    4.91
   2   0  -6  144.24    5.34
   2   0  -6  144.36    5.84
   2   0  -6  143.01    5.71
   2   0  -6  147.13    5.38
  -2  -1   6  102.17    4.78
  -2  -1   6  101.61    3.90
   2   1  -6  104.72    4.03
   2   1  -6  107.71    4.91
   2   1  -6  103.10    4.58
  -2  -2   6   83.63    3.22
  -2  -2   6   79.48    4.26
   2   2  -6   78.47    4.61
   2   2  -6   87.14    3.97
  -2  -3   6   24.22    2.42
   2   3  -6   20.90    2.90
   2   3  -6   25.04    2.02
  -2  -4   6    5.81    1.74
   2   4  -6    4.48    1.07
   2   4  -6    5.75    2.10
  -2  -5   6    1.25    1.52
   2   5  -6    0.12    1.64
   2   5  -6    0.27    0.62
   2   5  -6   -0.40    1.10
  -2   6   5    4.18    1.76
  -2   6   5    3.18    1.71
   2  -6  -5    4.14    2.30
  -2   5   5   17.53    2.51
  -2   5   5   18.46    2.43
  -2   5   5   14.88    2.43
   2  -5  -5   12.26    2.78
  -2   4   5   20.06    2.29
  -2   4   5   23.88    2.44
  -2   4   5   23.63    2.17
   2  -4  -5   23.75    3.22
  -2   3   5   33.51    2.34
  -2   3   5   31.57    2.52
  -2   3   5   30.32    2.38
   2  -3  -5   28.69    2.79
   2  -3  -5   28.89    1.91
  -2   2   5   55.74    3.14
  -2   2   5   59.49    2.93
  -2   2   5   55.55    2.93
   2  -2  -5   54.24    2.36
   2  -2  -5   55.27    2.53
   2  -2  -5   52.01    3.23
   2  -2  -5   52.32    2.64
  -2   1   5  108.92    4.89
  -2   1   5  106.98    3.89
  -2   1   5  111.74    4.54
   2  -1  -5  119.09    4.38
   2  -1  -5  113.89    4.88
   2  -1  -5  114.90    4.01
   2  -1  -5  113.30    4.66
  -2   0   5  270.02    9.45
  -2   0   5  276.17    8.52
  -2   0   5  270.73    8.99
   2   0  -5  274.16    8.42
   2   0  -5  279.11    8.86
   2   0  -5  267.84    9.11
   2   0  -5  262.07    9.17
  -2  -1   5  114.23    3.97
  -2  -1   5  107.89    4.82
   2   1  -5  117.96    4.14
   2   1  -5  112.85    4.56
   2   1  -5  109.94    4.85
  -2  -2   5   54.21    3.12
   2   2  -5   50.49    3.34
   2   2  -5   50.04    2.70
   2   2  -5   56.17    2.72
  -2  -3   5   32.61    2.74
   2   3  -5   30.76    3.12
   2   3  -5   35.48    2.81
   2   3  -5   33.10    2.08
  -2  -4   5   20.99    2.78
   2   4  -5   23.38    1.72
   2   4  -5   21.02    3.03
   2   4  -5   22.31    2.52
  -2  -5   5   19.73    3.02
   2   5  -5   19.86    2.92
   2   5  -5   16.87    1.56
   2   5  -5   12.03    3.50
  -2  -6   5    3.62    2.16
   2   6  -5    3.31    0.87
   2   6  -5    3.23    1.95
  -2   6   4   11.18    2.34
  -2   6   4    6.77    2.09
  -2   6   4    6.04    1.73
   2  -6  -4    5.58    2.51
  -2   5   4    9.46    1.89
  -2   5   4    7.90    1.81
   2  -5  -4   10.97    2.59
  -2   4   4   14.77    1.85
  -2   4   4   13.60    1.96
  -2   4   4   12.16    1.81
   2  -4  -4   15.98    2.57
  -2   3   4   20.64    1.95
  -2   3   4   22.24    1.83
  -2   3   4   22.15    2.02
   2  -3  -4   20.74    2.23
   2  -3  -4   21.78    1.31
  -2   2   4   92.09    3.81
  -2   2   4   82.25    3.74
  -2   2   4   86.74    3.93
   2  -2  -4   87.66    3.10
   2  -2  -4   88.39    3.31
   2  -2  -4   90.15    4.20
  -2   1   4  126.71    4.74
  -2   1   4  117.73    4.42
  -2   1   4  125.35    4.13
  -2   1   4  124.24    5.00
   2  -1  -4  129.25    4.21
   2  -1  -4  128.46    4.88
   2  -1  -4  130.56    4.47
  -2   0   4    2.00    0.66
  -2   0   4    2.48    0.52
   2   0  -4    1.62    0.40
   2   0  -4    2.58    0.67
   2   0  -4    1.93    0.53
   2   0  -4    1.67    0.54
  -2  -1   4  120.63    4.88
  -2  -1   4  123.61    4.13
   2   1  -4  130.53    4.33
   2   1  -4  126.05    4.66
   2   1  -4  131.53    5.10
  -2  -2   4   90.96    4.13
   2   2  -4   86.48    4.44
   2   2  -4   90.75    3.58
   2   2  -4   92.59    3.70
  -2  -3   4   20.57    2.11
   2   3  -4   22.33    1.91
   2   3  -4   22.95    2.18
   2   3  -4   19.74    1.41
   2   3  -4   22.80    2.52
  -2  -4   4   13.26    2.20
   2   4  -4   11.33    2.19
   2   4  -4   12.78    2.08
   2   4  -4   13.92    1.22
   2   4  -4   13.27    1.82
  -2  -5   4    7.88    2.07
   2   5  -4    9.70    1.13
   2   5  -4    9.64    2.09
  -2  -6   4   11.65    2.72
   2   6  -4    6.72    1.02
   2   6  -4    7.05    2.03
  -2   6   3    4.91    1.49
  -2   6   3    5.36    1.81
  -2   6   3    2.72    1.48
   2  -6  -3    3.30    2.12
  -2   5   3    9.60    1.62
  -2   5   3   11.20    1.97
   2  -5  -3   10.16    2.32
  -2   4   3   22.09    2.21
  -2   4   3   21.92    2.19
  -2   4   3   18.93    1.89
   2  -4  -3   17.93    2.56
  -2   3   3   28.50    2.20
  -2   3   3   25.43    1.84
  -2   3   3   26.85    2.07
   2  -3  -3   29.47    2.46
  -2   2   3  104.32    4.19
  -2   2   3  103.72    4.33
  -2   2   3  114.16    4.42
   2  -2  -3  113.51    3.52
   2  -2  -3  112.07    3.59
   2  -2  -3  105.35    4.61
  -2   1   3   32.24    1.88
  -2   1   3   28.19    1.54
  -2   1   3   30.14    1.24
   2  -1  -3   30.05    1.51
   2  -1  -3   30.54    1.80
   2  -1  -3   33.77    1.36
  -2   0   3   82.99    2.89
  -2   0   3   83.56    3.47
   2   0  -3   82.77    3.25
   2   0  -3   85.91    2.85
  -2  -1   3   29.27    1.76
   2   1  -3   31.93    1.96
   2   1  -3   30.39    1.54
  -2  -2   3  107.47    4.49
   2   2  -3  107.77    4.89
   2   2  -3  107.63    4.14
   2   2  -3  110.65    3.81
   2   2  -3  106.35    3.77
   2   2  -3  110.33    4.51
  -2  -3   3   26.75    2.20
   2   3  -3   30.00    2.64
   2   3  -3   31.91    1.52
   2   3  -3   27.49    2.15
   2   3  -3   27.81    2.03
   2   3  -3   25.78    1.41
  -2  -4   3   20.77    2.24
   2   4  -3   18.01    2.00
   2   4  -3   21.05    2.77
   2   4  -3   23.84    2.19
   2   4  -3   20.27    1.27
  -2  -5   3   12.59    2.27
   2   5  -3    8.32    1.84
   2   5  -3    9.62    0.94
   2   5  -3    9.62    1.81
  -2  -6   3    6.50    2.12
   2   6  -3    6.62    0.83
   2   6  -3    6.58    1.97
  -2   6   2   13.85    2.01
  -2   6   2   17.26    2.70
   2  -6  -2   18.72    3.49
  -2   5   2   28.14    3.27
  -2   5   2   26.75    2.69
  -2   5   2   24.91    2.33
   2  -5  -2   27.50    3.23
  -2   4   2   28.32    2.58
  -2   4   2   30.56    2.21
  -2   4   2   30.84    2.52
   2  -4  -2   27.22    2.78
  -2   3   2   23.24    1.98
  -2   3   2   23.95    1.92
  -2   3   2   26.00    1.80
   2  -3  -2   27.53    2.26
  -2   2   2   96.44    3.67
  -2   2   2   94.82    3.92
  -2   2   2   95.56    3.84
   2  -2  -2   95.23    4.07
  -2   1   2   56.67    2.37
  -2   1   2   54.27    2.32
  -2   1   2   54.54    2.42
   2  -1  -2   59.28    2.54
   2  -1  -2   60.27    1.97
  -2   0   2  112.16    4.05
   2   0  -2  114.18    4.26
   2   0  -2  117.81    3.61
  -2  -1   2   55.32    2.38
   2   1  -2   56.36    2.69
   2   1  -2   58.73    2.12
  -2  -2   2   97.71    4.01
   2   2  -2   95.45    3.80
   2   2  -2  101.11    3.24
   2   2  -2  100.50    4.45
   2   2  -2  101.22    3.26
   2   2  -2   98.71    3.97
   2   3  -2   24.22    1.13
   2   3  -2   25.27    1.89
   2   3  -2   25.03    1.99
   2   3  -2   25.99    1.15
   2   3  -2   27.48    2.30
   2   4  -2   26.58    2.40
   2   4  -2   29.72    2.65
   2   4  -2   26.50    2.30
   2   4  -2   27.67    1.32
   2   5  -2   28.28    2.76
   2   5  -2   24.48    2.64
   2   5  -2   25.08    1.31
  -2  -6   2   14.45    2.86
   2   6  -2   12.74    0.98
   2   6  -2    8.92    2.08
  -2   6   1   17.71    1.94
  -2   6   1   16.76    2.73
  -2   6   1   13.34    2.51
  -2   5   1    7.89    1.39
  -2   5   1    7.06    1.62
  -2   5   1    8.95    1.91
   2  -5  -1    9.21    2.03
  -2   4   1   16.16    1.65
  -2   4   1   15.22    1.99
  -2   4   1   12.81    1.83
   2  -4  -1   11.95    1.92
  -2   3   1    6.73    1.14
  -2   3   1    5.17    1.12
  -2   3   1    5.70    0.95
   2  -3  -1    6.07    1.19
  -2   2   1    3.52    0.79
  -2   2   1    4.52    0.72
  -2   2   1    4.18    0.74
   2  -2  -1    3.73    0.79
  -2   1   1   30.02    1.56
  -2   1   1   29.69    1.57
  -2   1   1   32.81    1.58
   2  -1  -1   32.53    1.66
   2  -1  -1   33.99    1.33
   2   0  -1   12.59    0.63
  -2  -1   1   32.42    1.52
   2   1  -1   30.60    1.12
   2   1  -1   31.69    1.49
   2   2  -1    3.58    0.69
   2   2  -1    5.31    0.84
   2   2  -1    4.91    0.98
   2   3  -1    6.01    0.46
   2   3  -1    6.59    1.05
   2   3  -1    6.44    1.27
   2   3  -1    6.01    1.07
   2   3  -1    5.54    0.40
  -2  -4   1   14.68    1.91
   2   4  -1   15.16    0.91
   2   4  -1   17.20    2.06
   2   4  -1   15.88    1.78
   2   4  -1   13.65    1.89
   2   5  -1    9.67    1.87
   2   5  -1    8.46    0.84
   2   5  -1    8.90    1.83
   2   6  -1   16.77    1.07
   2   6  -1   15.70    2.70
  -2   6   0   22.10    3.26
  -2   6   0   18.62    2.83
  -2   6   0   19.02    1.84
  -2   5   0   19.24    1.74
  -2   5   0   20.70    2.34
  -2   5   0   19.32    2.71
   2  -5   0   16.84    2.55
  -2   4   0   16.47    1.59
  -2   4   0   24.20    2.20
  -2   4   0   18.77    2.24
   2  -4   0   23.89    2.30
  -2   3   0   12.28    1.38
  -2   3   0   10.75    1.01
  -2   3   0   12.69    1.22
   2  -3   0   11.75    1.39
  -2   2   0    0.93    0.40
  -2   2   0    0.95    0.49
  -2   2   0    1.13    0.44
   2  -2   0    0.54    0.39
  -2   1   0    1.48    0.39
  -2   1   0    1.66    0.42
  -2   1   0    0.88    0.37
  -2   0   0    0.11    0.06
   2   2   0    0.89    0.47
   2   2   0    1.08    0.47
   2   2   0    0.91    0.39
   2   3   0   11.54    1.26
   2   3   0   12.54    0.69
   2   3   0   10.66    1.41
  -2  -4   0   24.71    2.35
   2   4   0   23.16    1.41
   2   4   0   24.00    1.34
   2   4   0   26.88    2.21
   2   4   0   25.41    2.29
  -2  -5   0   19.52    2.73
   2   5   0   19.84    1.31
   2   5   0   23.92    2.80
   2   5   0   18.72    2.19
   2   6   0   20.31    2.96
   2   6   0   20.96    1.36
   2   6   0   19.89    2.85
  -2   6  -1   17.00    2.72
  -2   6  -1   17.22    1.73
  -2   6  -1   21.12    3.20
  -2   5  -1    6.39    1.61
  -2   5  -1    6.87    1.12
  -2   5  -1    6.64    1.62
  -2   4  -1   16.13    1.39
  -2   4  -1   14.55    2.11
  -2   4  -1   17.75    2.20
   2  -4   1   15.34    1.85
  -2   3  -1    4.29    0.68
  -2   3  -1    5.93    0.83
  -2   3  -1    5.71    1.28
  -2   3  -1    6.68    1.12
  -2   3  -1    5.34    1.06
   2  -3   1    5.83    1.02
  -2   2  -1    5.39    0.86
  -2   2  -1    3.31    0.79
  -2   2  -1    4.33    0.63
   2  -2   1    4.99    0.76
  -2   1  -1   33.96    1.58
  -2   1  -1   31.50    1.66
  -2   1  -1   33.48    1.46
  -2   0  -1    9.45    0.46
   2   1   1   31.04    1.46
   2   1   1   30.72    1.21
  -2  -2  -1    4.68    0.74
   2   2   1    2.76    0.55
   2   2   1    3.81    0.40
   2   2   1    4.85    0.48
  -2  -3  -1    8.34    1.09
   2   3   1    5.23    0.67
   2   3   1    4.89    0.56
   2   3   1    7.69    1.26
   2   3   1    6.39    1.04
  -2  -4  -1   14.91    2.11
   2   4   1   15.26    2.04
   2   4   1   13.05    1.13
  -2  -5  -1    8.39    1.93
   2   5   1   11.91    1.97
   2   5   1    7.61    1.71
   2   5   1    8.32    1.09
  -2  -6  -1   15.39    2.90
   2   6   1   19.84    2.82
   2   6   1   19.81    2.97
   2   6   1   17.57    1.50
  -2   6  -2   12.64    2.54
  -2   6  -2   13.78    1.50
  -2   6  -2   13.09    2.46
  -2   5  -2   25.24    3.01
  -2   5  -2   29.62    2.81
  -2   5  -2   27.62    1.84
  -2   4  -2   26.11    2.40
  -2   4  -2   24.69    2.58
  -2   4  -2   29.31    1.79
  -2   3  -2   26.73    1.57
  -2   3  -2   27.33    2.11
  -2   3  -2   24.46    1.99
  -2   3  -2   25.06    2.23
   2  -3   2   26.89    1.85
  -2   2  -2   98.75    4.18
  -2   2  -2  107.33    4.02
  -2   2  -2   99.36    4.04
  -2   2  -2   97.68    3.58
  -2   1  -2   61.24    2.35
  -2   1  -2   61.40    2.60
  -2   1  -2   61.93    2.50
   2  -1   2   59.81    2.05
  -2   0  -2  155.91    4.59
  -2   0  -2  148.82    5.01
   2   1   2   58.10    2.18
   2   1   2   55.35    2.10
  -2  -2  -2  100.29    3.57
   2   2   2  100.46    3.93
   2   2   2   94.15    3.37
   2   2   2   96.88    3.63
   2   2   2   97.69    3.46
  -2  -3  -2   23.73    2.12
  -2  -3  -2   25.71    1.63
   2   3   2   24.91    1.39
   2   3   2   26.91    1.50
   2   3   2   24.23    1.75
   2   3   2   26.94    2.02
  -2  -4  -2   29.42    2.78
   2   4   2   28.92    2.46
   2   4   2   31.20    1.81
   2   4   2   29.51    2.28
  -2  -5  -2   24.45    2.97
   2   5   2   22.56    1.87
   2   5   2   28.01    2.79
   2   5   2   27.71    2.53
  -2  -6  -2   10.63    2.66
   2   6   2   18.95    2.91
  -2   6  -3    4.23    0.96
  -2   6  -3    3.85    1.84
  -2   6  -3    6.23    1.98
  -2   5  -3    8.61    2.03
  -2   5  -3    9.77    2.06
  -2   5  -3    9.32    1.23
  -2   4  -3   20.18    1.54
  -2   4  -3   20.16    2.17
  -2   4  -3   18.13    2.36
  -2   3  -3   28.86    1.74
  -2   3  -3   30.24    2.35
  -2   3  -3   26.57    2.36
  -2   3  -3   35.98    2.54
  -2   2  -3  109.78    4.46
  -2   2  -3  107.68    3.97
  -2   2  -3  109.17    4.42
  -2   2  -3  110.78    4.56
  -2   1  -3   31.83    1.72
  -2   1  -3   31.58    1.78
  -2   1  -3   29.64    1.68
  -2   1  -3   32.30    1.64
   2  -1   3   31.44    1.31
   2  -1   3   30.18    1.73
  -2   0  -3  118.73    3.64
  -2   0  -3  110.32    4.02
  -2   0  -3  119.25    4.19
  -2   0  -3  118.13    4.09
   2   0   3  106.24    4.02
   2   0   3  112.58    3.67
   2   0   3  112.26    4.02
  -2  -1  -3   28.67    1.88
  -2  -1  -3   29.21    1.51
   2   1   3   30.18    1.57
  -2  -2  -3  112.47    4.01
   2   2   3  110.70    4.39
   2   2   3  108.16    4.01
   2   2   3  111.41    4.16
  -2  -3  -3   25.29    2.31
  -2  -3  -3   30.36    1.74
   2   3   3   28.28    1.92
   2   3   3   25.07    1.58
   2   3   3   27.95    2.15
  -2  -4  -3   21.61    2.53
   2   4   3   20.87    1.99
   2   4   3   18.40    2.29
   2   4   3   20.23    1.59
  -2  -5  -3   13.48    2.59
   2   5   3   10.42    1.82
   2   5   3   12.03    1.58
   2   5   3   11.36    2.09
  -2  -6  -3    8.17    2.45
   2   6   3    7.04    1.40
   2   6   3    4.05    1.67
  -2   6  -4    8.58    2.32
  -2   6  -4    7.41    2.34
  -2   6  -4    7.82    1.29
   2  -6   4    9.78    2.61
  -2   5  -4   10.46    2.18
  -2   5  -4    7.85    1.87
  -2   5  -4    7.79    1.23
   2  -5   4   11.41    2.38
  -2   4  -4   15.34    2.20
  -2   4  -4   13.72    2.21
  -2   4  -4   16.11    2.53
  -2   4  -4   15.06    1.41
   2  -4   4   14.86    2.29
  -2   3  -4   21.18    2.20
  -2   3  -4   20.79    1.55
  -2   3  -4   19.06    1.97
  -2   3  -4   21.34    2.40
   2  -3   4   20.75    2.13
  -2   2  -4   92.32    3.69
  -2   2  -4   91.25    4.07
  -2   2  -4   90.61    4.09
  -2   2  -4   90.55    4.11
   2  -2   4   90.13    3.14
   2  -2   4   93.92    4.23
   2  -2   4   92.28    3.06
  -2   1  -4  130.43    4.95
  -2   1  -4  137.86    4.01
  -2   1  -4  133.09    4.99
  -2   1  -4  125.81    4.81
   2  -1   4  132.40    5.01
   2  -1   4  133.50    4.34
  -2   0  -4    2.68    0.72
  -2   0  -4    2.27    0.58
  -2   0  -4    1.31    0.31
  -2   0  -4    1.29    0.52
   2   0   4    2.04    0.53
   2   0   4    2.19    0.61
   2   0   4    2.55    0.45
  -2  -1  -4  134.62    4.72
  -2  -1  -4  126.38    4.19
   2   1   4  127.70    4.80
   2   1   4  132.71    4.78
  -2  -2  -4   86.48    3.85
  -2  -2  -4   87.75    4.11
  -2  -2  -4   89.68    3.48
  -2  -2  -4   86.80    3.09
   2   2   4   84.39    3.55
   2   2   4   86.00    3.57
   2   2   4   82.51    3.71
  -2  -3  -4   18.77    2.16
  -2  -3  -4   20.10    1.51
   2   3   4   17.92    1.86
   2   3   4   21.43    1.59
   2   3   4   24.10    1.80
  -2  -4  -4   17.38    2.65
   2   4   4   11.51    1.46
   2   4   4   15.50    2.19
   2   4   4   14.79    1.87
  -2  -5  -4    7.33    2.16
   2   5   4    7.95    1.36
   2   5   4    9.83    1.93
  -2  -6  -4    7.59    2.54
   2   6   4    3.61    1.65
   2   6   4    7.68    1.64
  -2   6  -5    3.66    1.08
  -2   6  -5    5.07    2.06
   2  -6   5    4.13    2.23
  -2   5  -5   19.04    2.84
  -2   5  -5   17.60    2.79
  -2   5  -5   15.98    1.67
   2  -5   5   17.30    2.87
  -2   4  -5   27.01    3.01
  -2   4  -5   23.84    2.86
  -2   4  -5   22.49    1.82
  -2   4  -5   23.00    2.45
   2  -4   5   21.55    2.52
  -2   3  -5   32.70    2.82
  -2   3  -5   29.85    2.59
  -2   3  -5   31.31    2.59
  -2   3  -5   29.39    2.04
   2  -3   5   34.17    2.73
  -2   2  -5   50.34    3.01
  -2   2  -5   53.50    3.05
  -2   2  -5   51.45    3.03
  -2   2  -5   50.39    2.72
   2  -2   5   55.36    3.14
   2  -2   5   57.04    2.26
  -2   1  -5  113.80    4.59
  -2   1  -5  114.14    4.67
  -2   1  -5  111.73    4.51
   2  -1   5  111.55    3.95
   2  -1   5  111.12    4.68
  -2   0  -5  276.60    9.04
  -2   0  -5  309.46    9.94
  -2   0  -5  304.26    9.86
  -2   0  -5  330.07    9.32
   2   0   5  305.07    9.80
   2   0   5  282.92    9.12
   2   0   5  274.59    9.86
  -2  -1  -5  121.62    4.53
  -2  -1  -5  113.64    3.91
  -2  -1  -5  114.29    4.55
   2   1   5  111.40    3.76
   2   1   5  106.04    4.55
   2   1   5  108.27    4.49
   2   1   5  116.05    3.66
  -2  -2  -5   50.53    3.07
  -2  -2  -5   50.06    2.46
  -2  -2  -5   50.33    2.57
  -2  -2  -5   51.24    2.08
   2   2   5   52.22    2.74
   2   2   5   50.26    2.65
  -2  -3  -5   32.81    2.85
   2   3   5   31.55    2.44
   2   3   5   33.36    2.29
   2   3   5   32.57    2.18
  -2  -4  -5   18.85    2.72
   2   4   5   19.47    1.83
   2   4   5   22.34    2.18
   2   4   5   21.55    2.51
  -2  -5  -5   17.70    3.19
   2   5   5   16.54    2.66
   2   5   5   16.95    2.16
  -2  -6  -5    2.89    2.15
   2   6   5    3.93    1.79
  -2   5  -6   -0.22    0.67
  -2   5  -6   -0.38    1.29
   2  -5   6    0.30    1.40
  -2   4  -6    1.54    1.25
  -2   4  -6    5.39    1.21
  -2   4  -6    4.62    1.75
  -2   4  -6    5.44    1.66
   2  -4   6    3.97    1.52
  -2   3  -6   23.97    2.47
  -2   3  -6   25.23    2.04
  -2   3  -6   22.34    2.47
  -2   3  -6   24.72    2.61
   2  -3   6   26.15    2.60
  -2   2  -6   81.40    4.05
  -2   2  -6   84.90    4.33
  -2   2  -6   79.54    3.89
   2  -2   6   84.87    4.30
   2  -2   6   81.21    3.25
  -2   1  -6  110.81    4.68
  -2   1  -6  107.78    4.63
  -2   1  -6  104.46    4.71
   2  -1   6  105.49    3.95
   2  -1   6  107.06    4.80
  -2   0  -6  142.47    5.03
  -2   0  -6  154.13    5.96
  -2   0  -6  150.72    5.89
  -2   0  -6  156.43    5.28
  -2   0  -6  143.69    5.85
   2   0   6  145.19    6.00
   2   0   6  157.00    5.89
   2   0   6  150.67    5.14
  -2  -1  -6  108.76    4.44
  -2  -1  -6  105.25    3.80
  -2  -1  -6  106.03    4.42
   2   1   6   93.26    4.49
   2   1   6  106.09    3.55
   2   1   6  103.14    3.69
   2   1   6  102.12    4.51
  -2  -2  -6   84.91    3.24
  -2  -2  -6   82.18    4.29
  -2  -2  -6   81.90    3.77
   2   2   6   83.13    3.91
   2   2   6   81.78    3.94
  -2  -3  -6   21.38    1.85
  -2  -3  -6   19.29    2.57
   2   3   6   22.94    2.03
   2   3   6   25.18    2.05
  -2  -4  -6    1.97    1.39
   2   4   6    4.03    1.27
   2   4   6    4.04    1.06
  -2  -5  -6    1.33    1.69
   2   5   6   -0.17    1.06
   2   5   6   -0.03    0.83
  -2   5  -7    4.92    1.29
  -2   5  -7    4.27    1.72
   2  -5   7    7.32    2.15
  -2   4  -7   18.42    1.99
  -2   4  -7   24.42    3.17
  -2   4  -7   23.77    3.40
   2  -4   7   15.94    2.87
  -2   3  -7   64.45    3.99
  -2   3  -7   58.93    3.43
  -2   3  -7   58.66    4.09
   2  -3   7   60.08    2.84
   2  -3   7   59.14    4.04
  -2   2  -7  100.96    4.77
  -2   2  -7  108.50    4.91
  -2   2  -7  103.83    5.24
   2  -2   7  105.70    4.09
   2  -2   7   95.58    5.07
  -2   1  -7   87.35    4.40
  -2   1  -7   87.47    4.24
  -2   1  -7   87.35    4.40
   2  -1   7   85.88    4.47
  -2   0  -7   75.22    3.86
  -2   0  -7   73.58    3.98
  -2   0  -7   75.38    3.09
  -2   0  -7   73.99    3.98
   2   0   7   78.87    4.13
   2   0   7   78.41    3.19
  -2  -1  -7   90.04    4.26
  -2  -1  -7   84.89    4.07
  -2  -1  -7   88.16    3.55
   2   1   7   89.34    3.34
   2   1   7   88.93    4.32
   2   1   7   89.40    4.47
   2   1   7   92.35    3.46
  -2  -2  -7  102.65    5.07
  -2  -2  -7  103.14    4.57
  -2  -2  -7  107.03    3.99
   2   2   7   97.07    4.66
   2   2   7   99.86    4.69
  -2  -3  -7   54.67    4.07
   2   3   7   62.83    3.51
   2   3   7   59.72    3.52
  -2  -4  -7   23.52    3.57
   2   4   7   17.12    2.20
  -2  -5  -7    3.08    1.91
   2   5   7    4.22    1.32
  -2   5  -8   -0.22    0.84
   2  -5   8    0.54    1.53
  -2   4  -8   -0.29    0.82
  -2   4  -8    2.14    1.72
   2  -4   8    1.16    1.55
  -2   3  -8   19.26    2.80
  -2   3  -8   22.00    2.31
   2  -3   8   17.58    1.70
   2  -3   8   19.80    2.77
  -2   2  -8   48.06    3.25
  -2   2  -8   45.18    3.29
  -2   2  -8   53.81    3.74
   2  -2   8   46.81    2.61
   2  -2   8   51.38    3.70
  -2   1  -8  116.35    5.53
  -2   1  -8  121.84    5.73
  -2   1  -8  106.24    5.21
   2  -1   8  119.21    4.66
   2  -1   8  113.56    5.60
  -2   0  -8  162.33    5.77
  -2   0  -8  158.46    6.82
  -2   0  -8  161.72    6.90
   2   0   8  175.51    7.23
   2   0   8  159.45    5.79
  -2  -1  -8  113.27    5.12
  -2  -1  -8  117.65    5.33
  -2  -1  -8  108.60    4.42
   2   1   8  121.97    5.41
   2   1   8  118.10    5.58
   2   1   8  109.82    4.27
  -2  -2  -8   48.57    3.48
  -2  -2  -8   47.34    2.54
  -2  -2  -8   46.84    3.07
   2   2   8   45.68    3.15
   2   2   8   51.02    3.28
  -2  -3  -8   16.99    2.75
   2   3   8   16.68    2.18
  -2  -4  -8    0.57    1.43
   2   4   8    1.94    1.10
  -2  -5  -8   -0.72    1.45
   2   5   8   -0.08    0.99
  -2   4  -9   18.18    3.45
  -2   4  -9   11.14    2.06
   2  -4   9   14.83    2.89
  -2   3  -9   18.32    3.14
  -2   3  -9   16.57    2.42
   2  -3   9   19.50    1.92
   2  -3   9   14.76    2.57
  -2   2  -9   34.77    3.29
  -2   2  -9   34.48    3.04
   2  -2   9   30.38    2.24
   2  -2   9   31.33    3.13
  -2   1  -9   77.33    4.40
  -2   1  -9   83.44    4.85
   2  -1   9   83.93    4.96
   2  -1   9   83.37    3.74
  -2   0  -9   78.27    4.50
  -2   0  -9   73.91    3.32
  -2   0  -9   73.25    4.37
   2   0   9   73.92    3.37
   2   0   9   79.01    4.70
  -2  -1  -9   78.12    4.90
  -2  -1  -9   82.96    4.52
  -2  -1  -9   80.14    3.62
   2   1   9   82.43    4.78
   2   1   9   82.72    3.47
  -2  -2  -9   33.18    2.99
  -2  -2  -9   27.77    2.66
  -2  -2  -9   28.01    2.13
   2   2   9   33.39    2.88
   2   2   9   33.63    2.85
  -2  -3  -9   15.50    1.78
  -2  -3  -9   17.60    2.77
   2   3   9   17.11    2.28
  -2  -4  -9   11.66    2.86
   2   4   9   17.88    2.66
  -2   4 -10    5.63    2.52
  -2   4 -10    5.48    1.64
   2  -4  10    6.36    2.27
  -2   3 -10    3.12    1.79
  -2   3 -10    2.99    1.40
   2  -3  10    1.09    1.29
   2  -3  10    4.83    1.27
  -2   2 -10   20.68    3.18
  -2   2 -10   23.72    3.09
   2  -2  10   16.17    2.66
   2  -2  10   18.17    2.06
  -2   1 -10   39.41    3.52
   2  -1  10   47.53    3.82
   2  -1  10   46.56    2.85
  -2   0 -10   44.80    3.57
  -2   0 -10   50.21    2.69
  -2   0 -10   48.72    3.84
   2   0  10   50.46    2.73
   2   0  10   50.25    3.99
  -2  -1 -10   48.70    3.63
  -2  -1 -10   55.72    4.25
  -2  -1 -10   45.83    2.82
   2   1  10   43.83    3.71
   2   1  10   48.30    2.56
  -2  -2 -10   18.24    1.85
  -2  -2 -10   15.51    2.42
  -2  -3 -10    3.20    1.63
   2   3  10    3.57    1.33
  -2  -4 -10    3.05    2.10
   2   4  10    5.84    1.80
  -2   3 -11   19.23    3.15
  -2   3 -11   16.21    3.19
   2  -3  11   17.66    2.34
   2  -3  11   14.02    2.93
  -2   2 -11   12.35    2.66
   2  -2  11    9.99    2.48
   2  -2  11   10.26    1.67
  -2   1 -11   28.33    3.66
   2  -1  11   37.81    2.70
   2  -1  11   35.28    3.72
  -2   0 -11   15.50    2.61
  -2   0 -11   16.81    1.76
   2   0  11   13.41    2.55
   2   0  11   12.69    1.69
  -2  -1 -11   28.12    3.10
  -2  -1 -11   31.90    2.46
  -2  -1 -11   31.67    3.86
   2   1  11   34.76    3.54
   2   1  11   37.39    2.27
  -2  -2 -11   10.81    1.64
  -2  -3 -11   13.74    1.94
  -2  -3 -11   15.82    3.17
  -2   2 -12    5.94    2.21
   2  -2  12    5.17    2.28
   2  -2  12    6.73    1.63
  -2   1 -12    9.31    2.46
   2  -1  12   11.58    1.78
   2  -1  12   10.14    2.62
  -2   0 -12   15.84    2.93
   2   0  12   13.72    2.78
  -2  -1 -12    9.10    2.35
  -2  -1 -12   11.15    1.76
  -2   1 -13    2.11    1.91
   2  -1  13    0.12    1.06
   2  -1  13    0.64    1.64
  -2   0 -13    0.87    1.61
   2   0  13    9.38    2.67
  -2  -1 -13    3.57    1.95
  -3   0  13    0.22    1.43
   3   0 -13    0.50    1.63
  -3   2  12    4.73    2.07
  -3   1  12    5.41    1.15
  -3   1  12    4.01    1.92
   3  -1 -12    6.83    1.48
  -3   0  12    2.12    1.62
  -3   0  12    1.28    1.01
   3   0 -12    0.39    1.49
  -3  -1  12    6.20    2.25
  -3  -1  12    3.91    1.38
   3   1 -12    0.65    1.87
  -3  -2  12    4.29    1.42
  -3  -2  12    3.38    2.04
   3   2 -12    3.46    2.44
  -3   3  11   12.26    2.66
   3  -3 -11   10.97    1.95
   3  -3 -11   11.62    2.81
  -3   2  11   10.96    2.48
   3  -2 -11    7.11    1.50
  -3   1  11    2.74    0.89
  -3   1  11    3.30    1.77
   3  -1 -11    2.34    1.46
   3  -1 -11    3.39    1.13
  -3   0  11   -0.35    1.29
  -3   0  11    0.95    0.78
   3   0 -11    1.51    1.43
  -3  -1  11    0.80    1.23
  -3  -1  11    2.66    1.10
   3   1 -11    2.12    1.71
  -3  -2  11   10.06    1.71
  -3  -2  11   10.49    2.49
   3   2 -11    9.45    2.75
   3   2 -11    7.59    2.12
  -3  -3  11   10.31    2.62
  -3  -3  11   10.72    1.84
   3   3 -11   16.95    2.92
   3   3 -11   10.79    3.02
  -3   4  10   17.11    2.80
  -3   4  10   15.96    2.88
   3  -4 -10   16.52    3.67
   3  -4 -10   14.40    2.23
  -3   3  10    3.15    1.60
   3  -3 -10    1.62    1.62
   3  -3 -10    1.41    1.00
  -3   2  10    4.01    1.63
   3  -2 -10    8.01    2.09
   3  -2 -10    5.95    1.30
  -3   1  10   -0.41    1.04
  -3   1  10    0.74    0.66
   3  -1 -10    0.09    1.11
   3  -1 -10    0.17    0.72
  -3   0  10    0.27    1.22
  -3   0  10    0.22    0.76
   3   0 -10   -0.30    0.55
   3   0 -10    0.31    1.17
  -3  -1  10    0.75    1.26
  -3  -1  10    0.01    0.71
   3   1 -10   -0.34    1.18
   3   1 -10    1.13    1.29
  -3  -2  10    4.42    1.22
  -3  -2  10   11.15    2.43
   3   2 -10    7.15    2.26
   3   2 -10    6.38    1.82
  -3  -3  10    0.42    1.49
  -3  -3  10    2.39    1.14
   3   3 -10   -0.22    1.08
   3   3 -10    0.48    1.60
  -3  -4  10   13.65    3.17
   3   4 -10   18.75    2.77
   3   4 -10   17.30    3.88
  -3   4   9    7.36    1.81
  -3   4   9    7.76    2.00
   3  -4  -9   15.38    3.31
  -3   3   9   12.91    2.25
  -3   3   9   11.76    2.16
   3  -3  -9   15.58    2.93
   3  -3  -9    9.82    1.58
  -3   2   9   10.29    2.08
   3  -2  -9    9.98    1.44
   3  -2  -9   11.78    2.26
  -3   1   9   10.64    2.14
  -3   1   9   12.05    1.36
  -3   1   9   10.00    1.31
   3  -1  -9    6.57    1.57
   3  -1  -9    9.84    1.45
  -3   0   9    0.18    1.06
  -3   0   9    0.00    0.59
   3   0  -9   -0.40    0.81
   3   0  -9    0.17    0.57
  -3  -1   9    9.01    1.33
  -3  -1   9   10.72    2.20
   3   1  -9    9.91    1.97
   3   1  -9    8.31    1.94
  -3  -2   9    9.71    1.46
  -3  -2   9    7.96    1.95
   3   2  -9    8.96    1.87
   3   2  -9    7.28    2.09
  -3  -3   9   15.01    1.76
  -3  -3   9   18.28    2.88
   3   3  -9    8.17    1.80
   3   3  -9   11.53    2.74
  -3  -4   9   10.33    2.55
   3   4  -9   11.89    2.10
   3   4  -9   13.84    3.25
  -3   5   8   21.92    3.05
  -3   5   8   23.17    3.20
  -3   5   8   17.89    2.82
   3  -5  -8   20.73    2.67
   3  -5  -8   21.03    4.10
  -3   4   8    4.67    1.40
  -3   4   8    1.96    1.22
  -3   4   8    2.78    1.43
   3  -4  -8    2.02    1.77
  -3   3   8   23.63    2.56
  -3   3   8   23.56    2.50
   3  -3  -8   20.23    2.97
   3  -3  -8   25.64    2.13
  -3   2   8   -0.25    0.69
  -3   2   8    0.80    1.03
   3  -2  -8    2.09    0.82
   3  -2  -8    1.46    1.22
  -3   1   8   11.13    1.30
  -3   1   8   12.06    1.24
  -3   1   8   11.27    2.10
   3  -1  -8   14.01    2.00
   3  -1  -8   11.92    1.89
   3  -1  -8    9.49    1.29
  -3   0   8   -0.44    0.79
  -3   0   8    0.13    0.59
   3   0  -8    0.20    0.91
   3   0  -8    0.86    0.97
   3   0  -8   -0.03    0.51
  -3  -1   8   12.63    2.21
  -3  -1   8   11.90    1.45
   3   1  -8   10.26    1.90
   3   1  -8   10.50    1.82
  -3  -2   8    0.64    1.02
  -3  -2   8    0.07    0.64
   3   2  -8    0.66    0.89
   3   2  -8    2.19    1.45
  -3  -3   8   22.54    3.01
   3   3  -8   21.33    3.41
   3   3  -8   23.06    2.36
  -3  -4   8    0.93    1.34
   3   4  -8    3.92    1.95
   3   4  -8    2.02    1.03
  -3  -5   8   26.46    3.95
   3   5  -8   18.16    2.33
   3   5  -8   24.01    4.23
  -3   5   7    7.66    1.85
  -3   5   7    9.96    2.18
  -3   5   7   10.09    2.24
   3  -5  -7    7.40    2.70
  -3   4   7   19.87    2.59
  -3   4   7   17.65    2.48
  -3   4   7   19.18    2.53
   3  -4  -7   12.03    2.63
   3  -4  -7   14.34    2.05
  -3   3   7   37.64    2.83
  -3   3   7   41.13    3.05
  -3   3   7   42.71    3.21
   3  -3  -7   38.97    3.59
   3  -3  -7   42.84    2.91
   3  -3  -7   43.55    2.47
  -3   2   7   19.69    2.31
  -3   2   7   24.29    2.24
   3  -2  -7   17.53    1.63
   3  -2  -7   23.53    2.55
  -3   1   7   27.34    2.27
  -3   1   7   22.03    2.35
  -3   1   7   24.23    1.65
   3  -1  -7   25.57    1.73
   3  -1  -7   28.21    2.19
   3  -1  -7   24.17    2.30
  -3   0   7   -0.50    0.43
  -3   0   7   -0.48    0.72
   3   0  -7    0.11    0.45
   3   0  -7   -0.38    0.68
   3   0  -7    0.16    0.80
   3   0  -7   -0.47    0.57
   3   0  -7    0.29    0.68
  -3  -1   7   18.48    2.14
  -3  -1   7   23.30    1.73
   3   1  -7   26.26    2.32
   3   1  -7   25.24    2.39
  -3  -2   7   22.33    2.46
  -3  -2   7   23.73    1.68
   3   2  -7   16.81    2.50
   3   2  -7   18.48    2.05
  -3  -3   7   42.42    3.43
   3   3  -7   44.49    2.94
   3   3  -7   46.81    4.11
  -3  -4   7   22.62    3.13
   3   4  -7   13.47    1.84
   3   4  -7   12.50    2.81
  -3  -5   7   11.87    2.72
   3   5  -7   13.89    3.14
   3   5  -7   12.12    1.75
  -3   5   6   -0.48    0.93
  -3   5   6    0.98    1.08
  -3   5   6    1.59    1.24
   3  -5  -6   -0.03    1.59
  -3   4   6   42.55    3.23
  -3   4   6   42.17    3.08
  -3   4   6   44.61    3.35
   3  -4  -6   34.73    2.61
   3  -4  -6   38.44    3.89
  -3   3   6    1.19    0.82
  -3   3   6    0.21    0.71
  -3   3   6    0.87    0.78
   3  -3  -6    1.42    0.86
   3  -3  -6    2.55    1.19
   3  -3  -6    1.42    0.66
  -3   2   6   21.14    1.98
  -3   2   6   19.80    2.04
  -3   2   6   20.80    1.74
   3  -2  -6   22.88    1.57
   3  -2  -6   21.12    2.23
  -3   1   6   12.56    1.11
  -3   1   6   12.03    1.65
  -3   1   6   10.80    1.04
  -3   1   6   12.76    1.93
   3  -1  -6   13.61    1.46
   3  -1  -6   14.72    2.09
   3  -1  -6   13.60    1.17
   3  -1  -6   13.56    1.77
  -3   0   6    0.07    0.48
  -3   0   6    0.17    0.43
  -3   0   6    0.01    0.66
   3   0  -6    0.16    0.65
   3   0  -6   -0.18    0.34
   3   0  -6    0.43    0.58
   3   0  -6   -0.22    0.47
  -3  -1   6   11.48    1.17
  -3  -1   6   12.78    1.86
   3   1  -6   15.09    1.83
   3   1  -6   11.95    1.87
  -3  -2   6   20.60    2.17
  -3  -2   6   22.03    1.46
   3   2  -6   23.34    2.84
   3   2  -6   19.83    1.84
  -3  -3   6    1.43    1.04
   3   3  -6    1.57    0.76
   3   3  -6    2.42    1.40
  -3  -4   6   41.18    3.46
   3   4  -6   40.48    2.55
   3   4  -6   40.26    4.13
  -3  -5   6    1.80    1.58
   3   5  -6    2.98    1.97
   3   5  -6    1.87    0.85
  -3   5   5    8.80    1.97
  -3   5   5   12.19    2.10
  -3   5   5    8.13    1.87
   3  -5  -5    3.00    2.00
  -3   4   5   27.24    2.60
  -3   4   5   21.71    2.26
  -3   4   5   26.41    2.47
   3  -4  -5   28.39    3.19
  -3   3   5   19.36    1.90
  -3   3   5   18.44    1.91
  -3   3   5   17.30    2.00
   3  -3  -5   15.76    1.52
   3  -3  -5   19.75    2.38
  -3   2   5   50.74    3.07
  -3   2   5   57.05    3.06
  -3   2   5   52.44    2.83
   3  -2  -5   56.17    3.38
   3  -2  -5   61.49    3.46
   3  -2  -5   54.79    2.73
   3  -2  -5   54.67    2.41
  -3   1   5   19.35    1.61
  -3   1   5   14.40    1.16
  -3   1   5   14.61    1.64
  -3   1   5   15.71    1.09
   3  -1  -5   17.51    1.38
   3  -1  -5   15.28    1.16
   3  -1  -5   15.35    1.61
   3  -1  -5   17.52    1.80
  -3   0   5   -0.76    0.35
  -3   0   5    0.19    0.51
  -3   0   5    0.13    0.38
   3   0  -5   -0.22    0.30
   3   0  -5   -0.09    0.48
   3   0  -5   -0.24    0.46
   3   0  -5    0.35    0.50
  -3  -1   5   16.78    1.18
  -3  -1   5   16.60    1.62
   3   1  -5   16.64    1.49
   3   1  -5   16.25    1.76
   3   1  -5   15.14    1.12
  -3  -2   5   54.30    3.22
   3   2  -5   56.80    2.84
   3   2  -5   53.73    2.83
   3   2  -5   54.97    3.56
  -3  -3   5   19.58    2.08
   3   3  -5   14.85    2.52
   3   3  -5   14.70    1.44
  -3  -4   5   24.36    2.78
   3   4  -5   28.72    2.86
   3   4  -5   29.17    1.96
   3   4  -5   29.57    3.31
  -3  -5   5    9.74    2.18
   3   5  -5    5.07    2.03
   3   5  -5    4.53    0.94
   3   5  -5    4.35    1.77
  -3   6   4    4.69    1.80
  -3   6   4    2.38    1.51
  -3   6   4    4.30    1.86
   3  -6  -4    4.61    2.37
  -3   5   4   15.77    2.43
  -3   5   4   20.80    2.34
  -3   5   4   22.33    2.89
   3  -5  -4   16.07    3.16
  -3   4   4    9.90    1.79
  -3   4   4    8.08    1.51
  -3   4   4    8.73    1.67
   3  -4  -4   11.41    2.25
  -3   3   4   29.12    2.13
  -3   3   4   27.86    2.22
   3  -3  -4   26.61    2.53
   3  -3  -4   27.77    1.59
  -3   2   4    7.16    1.16
  -3   2   4    7.14    1.09
  -3   2   4    6.19    1.17
   3  -2  -4    7.38    1.31
   3  -2  -4    9.80    1.01
   3  -2  -4    8.23    0.78
  -3   1   4    5.72    0.95
  -3   1   4    6.00    0.67
  -3   1   4    6.43    0.64
  -3   1   4    6.33    1.13
  -3   1   4    5.67    0.76
   3  -1  -4    3.86    0.58
   3  -1  -4    5.31    1.02
   3  -1  -4    7.28    1.53
  -3   0   4   -0.10    0.30
  -3   0   4    0.07    0.43
   3   0  -4   -0.06    0.27
   3   0  -4   -0.11    0.39
   3   0  -4   -0.04    0.41
   3   0  -4   -0.38    0.16
  -3  -1   4    5.84    1.05
   3   1  -4    3.24    0.69
   3   1  -4    3.69    0.94
  -3  -2   4    7.29    1.24
   3   2  -4    8.67    1.03
   3   2  -4    7.94    1.49
   3   2  -4    7.81    0.99
  -3  -3   4   27.12    2.27
   3   3  -4   25.39    1.91
   3   3  -4   25.21    1.61
   3   3  -4   25.26    2.72
   3   3  -4   25.03    2.32
  -3  -4   4    8.50    1.72
   3   4  -4    9.74    1.05
   3   4  -4    9.64    1.81
   3   4  -4   10.06    2.11
  -3  -5   4   23.94    3.21
   3   5  -4   20.63    2.87
   3   5  -4   16.28    1.34
  -3  -6   4    5.74    2.22
   3   6  -4    4.48    2.01
   3   6  -4    8.20    0.99
  -3   6   3    0.91    1.25
  -3   6   3    1.80    1.17
  -3   6   3    0.87    1.40
   3  -6  -3   -0.49    1.65
  -3   5   3   14.63    2.32
  -3   5   3   14.77    2.24
  -3   5   3   15.01    2.11
   3  -5  -3   20.26    3.15
  -3   4   3   41.18    2.94
  -3   4   3   46.77    2.91
  -3   4   3   46.68    3.26
   3  -4  -3   34.35    3.25
  -3   3   3   51.23    3.10
  -3   3   3   53.08    3.05
  -3   3   3   52.89    2.90
   3  -3  -3   56.96    3.49
  -3   2   3   44.46    2.43
  -3   2   3   46.58    2.35
  -3   2   3   43.78    2.40
   3  -2  -3   39.68    1.69
   3  -2  -3   43.20    2.62
   3  -2  -3   39.11    1.75
  -3   1   3   10.57    0.71
  -3   1   3    9.71    1.03
  -3   1   3    9.57    0.89
  -3   1   3   12.05    1.21
  -3   1   3   11.63    0.76
   3  -1  -3   14.63    0.87
   3  -1  -3   15.53    1.31
   3  -1  -3   13.70    1.01
  -3   0   3   -0.49    0.26
  -3   0   3   -0.36    0.39
   3   0  -3   -0.40    0.35
   3   0  -3    0.18    0.26
   3   0  -3   -0.63    0.29
  -3  -1   3   10.22    1.06
   3   1  -3   14.83    1.44
   3   1  -3   14.55    1.03
  -3  -2   3   44.44    2.40
   3   2  -3   40.13    2.35
   3   2  -3   39.55    1.83
   3   2  -3   36.30    2.62
   3   2  -3   40.13    1.82
   3   2  -3   38.27    1.98
  -3  -3   3   50.22    3.13
   3   3  -3   56.67    2.29
   3   3  -3   60.88    3.77
   3   3  -3   55.65    2.89
   3   3  -3   56.60    3.22
   3   3  -3   59.64    2.31
  -3  -4   3   39.54    2.99
   3   4  -3   36.44    2.59
   3   4  -3   33.35    2.73
   3   4  -3   33.06    3.15
   3   4  -3   35.15    1.68
  -3  -5   3   15.71    2.53
   3   5  -3   17.76    2.48
   3   5  -3   20.52    1.22
  -3  -6   3    3.13    1.88
   3   6  -3    0.91    0.42
   3   6  -3    0.27    1.22
  -3   6   2    9.93    2.28
  -3   6   2   11.43    1.91
   3  -6  -2    9.06    2.59
  -3   5   2   15.91    2.50
  -3   5   2   16.67    2.39
  -3   5   2   13.33    1.93
   3  -5  -2   17.02    2.87
  -3   4   2    8.55    1.65
  -3   4   2    8.83    1.39
  -3   4   2    7.81    1.48
   3  -4  -2    4.25    1.36
  -3   3   2   17.45    2.01
  -3   3   2   18.67    1.68
  -3   3   2   19.16    1.68
   3  -3  -2   23.24    2.10
  -3   2   2    1.93    0.60
  -3   2   2    1.60    0.60
  -3   2   2    1.68    0.58
   3  -2  -2    1.73    0.71
   3  -2  -2    1.52    0.27
  -3   1   2    4.12    0.37
  -3   1   2    5.04    0.70
  -3   1   2    5.46    0.81
  -3   1   2    6.17    0.86
   3  -1  -2    5.15    0.86
   3  -1  -2    5.04    0.49
   3  -1  -2    4.39    0.55
  -3   0   2   -0.23    0.50
   3   0  -2    0.13    0.32
   3   0  -2    0.11    0.45
  -3  -1   2    4.21    0.66
   3   1  -2    4.77    0.54
   3   1  -2    3.63    0.83
  -3  -2   2    2.95    0.73
   3   2  -2    1.08    0.42
   3   2  -2    1.43    0.31
   3   2  -2    1.30    0.52
   3   2  -2    0.82    0.68
   3   2  -2    1.35    0.33
  -3  -3   2   19.14    1.74
   3   3  -2   18.15    2.05
   3   3  -2   22.20    0.98
   3   3  -2   21.24    0.98
   3   3  -2   20.43    1.80
   3   3  -2   19.55    1.62
  -3  -4   2    9.85    1.79
   3   4  -2    6.95    1.39
   3   4  -2    5.94    1.24
   3   4  -2    6.19    0.58
   3   4  -2    5.59    1.51
  -3  -5   2   17.24    2.54
   3   5  -2   18.67    1.02
   3   5  -2   17.00    2.34
   3   5  -2   17.63    2.35
  -3  -6   2   12.69    2.66
   3   6  -2   10.05    2.18
  -3   6   1    6.86    1.48
  -3   6   1    7.20    2.13
  -3   6   1    5.46    1.75
  -3   5   1   14.77    2.23
  -3   5   1   12.40    1.80
  -3   5   1   10.55    1.98
   3  -5  -1   10.15    2.19
  -3   4   1   31.09    2.30
  -3   4   1   28.18    2.41
  -3   4   1   30.29    2.65
   3  -4  -1   32.65    2.84
  -3   3   1   37.01    2.53
  -3   3   1   39.12    2.25
  -3   3   1   38.47    2.38
   3  -3  -1   29.45    2.37
  -3   2   1   17.12    1.34
  -3   2   1   18.11    1.50
  -3   2   1   17.08    1.32
   3  -2  -1   21.89    1.59
  -3   1   1   20.53    1.31
  -3   1   1   19.23    0.66
  -3   1   1   17.95    1.25
   3  -1  -1   19.87    1.38
   3  -1  -1   16.95    0.84
   3   0  -1    0.15    0.14
  -3  -1   1   18.95    1.05
   3   1  -1   15.41    0.79
   3   2  -1   23.68    1.79
   3   2  -1   24.19    1.52
   3   2  -1   23.84    1.44
   3   3  -1   32.79    2.15
   3   3  -1   32.16    2.37
   3   3  -1   31.97    2.09
  -3  -4   1   29.04    2.49
   3   4  -1   38.01    1.43
   3   4  -1   38.69    2.68
   3   4  -1   37.73    1.38
   3   4  -1   36.98    2.68
   3   4  -1   38.85    2.82
   3   5  -1   10.68    1.91
   3   5  -1    7.46    1.64
   3   5  -1   10.18    0.69
   3   6  -1    6.66    1.83
   3   6  -1    4.90    1.77
  -3   6   0    7.55    2.19
  -3   6   0    7.80    2.02
  -3   6   0   10.86    1.57
  -3   5   0    0.88    0.70
  -3   5   0    3.10    1.34
  -3   5   0    1.35    1.16
   3  -5   0    0.57    1.09
  -3   4   0   42.07    2.92
  -3   4   0   42.32    2.49
  -3   4   0   38.60    3.06
   3  -4   0   40.16    3.05
  -3   3   0    0.14    0.63
  -3   3   0    0.34    0.53
  -3   3   0    0.32    0.51
   3  -3   0    0.29    0.54
  -3   2   0    1.22    0.50
  -3   2   0    1.55    0.52
   3  -2   0    1.37    0.52
  -3   1   0    0.41    0.38
  -3   1   0    0.17    0.46
  -3   1   0    0.03    0.31
   3  -1   0    0.15    0.18
  -3   0   0    0.01    0.08
   3   1   0    0.19    0.20
   3   2   0    0.96    0.55
   3   2   0    2.50    0.58
   3   2   0    1.09    0.40
   3   3   0    0.37    0.47
   3   3   0    0.09    0.54
  -3  -4   0   39.65    2.90
   3   4   0   39.90    2.61
   3   4   0   30.78    1.53
   3   4   0   42.79    2.82
   3   4   0   39.46    1.61
  -3  -5   0    1.19    1.06
   3   5   0    0.41    0.96
   3   5   0    1.87    0.48
   3   5   0    1.21    1.01
   3   6   0   12.99    2.39
   3   6   0    7.48    0.79
   3   6   0    8.19    2.10
  -3   6  -1    8.61    2.10
  -3   6  -1    4.15    1.85
  -3   6  -1    7.54    1.34
  -3   5  -1    7.84    1.76
  -3   5  -1   11.90    2.20
  -3   5  -1    8.53    1.29
  -3   4  -1   37.84    2.82
  -3   4  -1   40.25    3.04
  -3   4  -1   34.30    2.13
   3  -4   1   30.54    2.61
  -3   3  -1   29.28    1.79
  -3   3  -1   32.93    2.06
  -3   3  -1   27.78    2.34
  -3   2  -1   23.66    1.75
  -3   2  -1   21.86    1.50
  -3   2  -1   23.06    1.37
   3  -2   1   21.70    1.50
  -3   1  -1   17.92    1.11
  -3   1  -1   17.86    1.32
  -3   1  -1   16.99    1.06
   3  -1   1   18.88    0.88
  -3   0  -1    0.03    0.09
   3   1   1   19.17    0.93
  -3  -2  -1   24.53    1.48
   3   2   1   18.82    0.88
   3   2   1   20.04    0.93
   3   2   1   17.75    1.34
  -3  -3  -1   30.86    2.10
   3   3   1   43.70    2.49
   3   3   1   38.19    1.53
   3   3   1   37.02    2.14
   3   3   1   40.67    1.62
  -3  -4  -1   31.58    2.71
   3   4   1   29.86    2.26
   3   4   1   27.49    1.49
   3   4   1   29.57    2.41
  -3  -5  -1   10.16    2.17
   3   5   1   12.98    1.21
   3   5   1   12.85    1.99
   3   5   1   10.80    1.81
  -3  -6  -1    9.31    2.38
   3   6   1    8.65    2.08
   3   6   1    7.08    0.97
  -3   6  -2    8.35    1.30
  -3   6  -2    8.91    2.23
  -3   6  -2    7.57    2.21
  -3   5  -2   17.10    2.45
  -3   5  -2   18.06    1.65
  -3   5  -2   20.46    2.85
  -3   4  -2    5.23    1.32
  -3   4  -2    5.25    0.97
  -3   4  -2    4.96    1.48
  -3   3  -2   25.79    1.60
  -3   3  -2   23.28    1.92
  -3   3  -2   19.50    1.84
  -3   3  -2   24.63    2.25
   3  -3   2   21.67    1.79
  -3   2  -2    0.67    0.58
  -3   2  -2    1.49    0.49
  -3   2  -2    1.40    0.55
   3  -2   2    2.25    0.59
  -3   1  -2    6.15    0.70
  -3   1  -2    5.52    0.70
  -3   1  -2    5.11    0.83
   3  -1   2    4.78    0.51
  -3   0  -2   -0.20    0.18
  -3   0  -2    0.52    0.46
   3   0   2   -0.41    0.39
   3   1   2    3.33    0.50
  -3  -2  -2    1.75    0.52
   3   2   2    1.90    0.42
   3   2   2    1.88    0.43
   3   2   2    2.55    0.52
   3   2   2    2.55    0.66
  -3  -3  -2   21.88    1.58
   3   3   2   21.42    1.57
   3   3   2   18.65    1.19
   3   3   2   20.41    1.25
   3   3   2   19.28    1.74
  -3  -4  -2    4.76    1.40
   3   4   2    9.54    1.57
   3   4   2    9.97    1.50
   3   4   2    8.03    0.96
  -3  -5  -2   18.75    2.87
   3   5   2   16.21    2.16
   3   5   2   15.80    1.52
   3   5   2   16.33    2.34
  -3  -6  -2    9.72    2.56
   3   6   2   10.50    1.48
   3   6   2   13.05    2.42
  -3   6  -3    0.00    1.37
  -3   6  -3    0.15    0.65
  -3   6  -3    0.26    1.37
  -3   5  -3   20.84    2.74
  -3   5  -3   24.78    3.14
  -3   5  -3   20.34    1.74
  -3   4  -3   34.54    2.80
  -3   4  -3   39.20    3.27
  -3   4  -3   36.57    2.16
  -3   3  -3   61.42    3.36
  -3   3  -3   55.34    3.45
  -3   3  -3   57.48    2.71
  -3   3  -3   58.04    3.29
  -3   2  -3   40.42    2.08
  -3   2  -3   41.41    2.30
  -3   2  -3   39.35    2.49
  -3   2  -3   40.96    2.39
   3  -2   3   47.34    1.69
  -3   1  -3   14.23    1.10
  -3   1  -3   15.48    1.11
  -3   1  -3   13.48    1.09
  -3   1  -3   13.17    0.60
  -3   1  -3   14.97    1.26
   3  -1   3   11.75    1.08
  -3   0  -3   -0.14    0.41
  -3   0  -3   -0.33    0.31
  -3   0  -3    0.02    0.32
  -3   0  -3   -0.05    0.19
   3   0   3   -0.13    0.24
   3   0   3    0.01    0.34
   3   0   3   -0.31    0.13
  -3  -1  -3   14.41    0.70
  -3  -1  -3   13.23    1.01
   3   1   3   11.92    0.90
   3   1   3   11.15    0.97
  -3  -2  -3   41.90    2.14
   3   2   3   44.70    2.10
   3   2   3   45.75    2.40
   3   2   3   49.13    2.18
  -3  -3  -3   58.85    2.72
   3   3   3   49.55    2.98
   3   3   3   53.64    2.47
   3   3   3   53.56    2.75
  -3  -4  -3   30.75    3.01
   3   4   3   41.82    2.95
   3   4   3   43.79    2.73
   3   4   3   41.19    2.18
  -3  -5  -3   19.30    2.92
   3   5   3   16.37    2.41
   3   5   3   17.23    1.67
  -3  -6  -3    0.40    1.69
   3   6   3    0.51    0.85
   3   6   3    0.48    1.29
  -3   6  -4    4.45    1.13
  -3   6  -4    7.57    2.10
  -3   6  -4    9.14    2.48
   3  -6   4    8.11    2.44
  -3   5  -4   19.67    3.04
  -3   5  -4   14.70    2.35
  -3   5  -4   15.80    1.60
   3  -5   4   18.72    2.87
  -3   4  -4   11.49    1.98
  -3   4  -4   10.05    1.29
  -3   4  -4    7.74    1.80
  -3   3  -4   25.91    2.27
  -3   3  -4   24.48    1.74
  -3   3  -4   26.19    2.29
  -3   3  -4   26.99    2.46
   3  -3   4   28.50    2.40
  -3   2  -4   10.24    1.36
  -3   2  -4    9.28    1.43
  -3   2  -4    9.29    1.29
   3  -2   4    6.14    0.69
   3  -2   4    6.91    0.78
   3  -2   4    5.16    1.07
  -3   1  -4    2.65    0.63
  -3   1  -4    5.47    1.01
  -3   1  -4    5.19    0.47
  -3   1  -4    4.41    0.80
  -3   1  -4    4.92    0.89
   3  -1   4    6.22    0.98
  -3   0  -4    0.35    0.42
  -3   0  -4   -0.14    0.47
  -3   0  -4   -0.29    0.34
  -3   0  -4   -0.23    0.20
   3   0   4    0.01    0.38
   3   0   4   -0.29    0.22
   3   0   4   -0.11    0.35
  -3  -1  -4    4.90    0.84
  -3  -1  -4    4.53    0.55
   3   1   4    5.94    0.41
   3   1   4    6.97    0.97
   3   1   4    6.10    0.86
  -3  -2  -4    9.17    1.12
  -3  -2  -4    9.06    0.82
  -3  -2  -4    9.56    0.63
   3   2   4    6.81    1.03
  -3  -3  -4   28.02    1.88
  -3  -3  -4   24.99    2.46
   3   3   4   29.43    2.26
   3   3   4   29.53    2.02
   3   3   4   31.21    1.94
  -3  -4  -4   10.28    2.06
   3   4   4    7.08    1.47
   3   4   4    8.81    1.27
   3   4   4    9.27    1.50
  -3  -5  -4   15.21    2.88
   3   5   4   17.25    1.81
   3   5   4   24.72    3.08
  -3  -6  -4    6.81    2.41
   3   6   4    5.49    1.36
   3   6   4    1.97    1.54
  -3   5  -5    5.73    1.14
  -3   5  -5    5.68    1.76
  -3   5  -5    6.86    2.02
   3  -5   5   13.47    2.69
  -3   4  -5   28.80    2.72
  -3   4  -5   29.59    2.12
  -3   4  -5   29.70    3.31
  -3   4  -5   29.54    3.04
   3  -4   5   24.75    2.74
  -3   3  -5   15.54    2.07
  -3   3  -5   14.77    2.10
  -3   3  -5   14.90    2.08
  -3   3  -5   14.87    1.52
   3  -3   5   18.71    2.42
  -3   2  -5   57.04    3.17
  -3   2  -5   58.48    3.23
  -3   2  -5   54.29    2.85
  -3   2  -5   54.40    3.15
   3  -2   5   56.07    2.32
   3  -2   5   52.04    3.12
  -3   1  -5   15.40    1.46
  -3   1  -5   18.26    1.65
  -3   1  -5   16.51    0.91
  -3   1  -5   15.98    1.50
   3  -1   5   18.57    1.22
   3  -1   5   14.33    1.41
  -3   0  -5   -0.42    0.40
  -3   0  -5    0.12    0.56
  -3   0  -5   -0.16    0.42
  -3   0  -5   -0.05    0.25
   3   0   5   -0.04    0.30
   3   0   5   -0.38    0.36
   3   0   5   -0.31    0.34
  -3  -1  -5   15.30    1.00
  -3  -1  -5   13.40    1.31
   3   1   5   16.32    0.90
   3   1   5   11.56    1.22
   3   1   5   15.31    1.42
  -3  -2  -5   54.82    2.19
  -3  -2  -5   54.15    2.73
   3   2   5   52.95    2.80
  -3  -3  -5   14.41    1.50
  -3  -3  -5   14.82    2.33
   3   3   5   20.96    1.97
   3   3   5   19.27    1.70
   3   3   5   20.22    1.79
  -3  -4  -5   25.32    3.05
   3   4   5   23.46    1.98
   3   4   5   27.78    2.58
  -3  -5  -5    6.45    2.09
   3   5   5    9.39    1.60
   3   5   5    7.91    1.91
  -3   5  -6    1.97    0.91
  -3   5  -6    1.17    1.35
   3  -5   6   -0.27    1.11
  -3   4  -6   43.20    3.65
  -3   4  -6   38.29    2.66
  -3   4  -6   40.98    3.73
  -3   4  -6   39.45    3.49
   3  -4   6   44.42    3.75
  -3   3  -6    2.54    1.16
  -3   3  -6    1.71    1.09
  -3   3  -6    3.03    1.29
  -3   3  -6    1.31    0.76
   3  -3   6    1.12    0.97
   3  -3   6    0.95    0.67
  -3   2  -6   19.78    1.98
  -3   2  -6   23.09    1.99
  -3   2  -6   22.97    2.13
   3  -2   6   18.77    1.97
   3  -2   6   20.17    1.46
  -3   1  -6   12.48    0.86
  -3   1  -6   10.06    1.47
  -3   1  -6   12.13    1.52
  -3   1  -6   14.55    1.85
   3  -1   6   10.68    1.51
   3  -1   6   11.60    1.16
  -3   0  -6    0.12    0.71
  -3   0  -6   -0.44    0.41
  -3   0  -6    0.51    0.65
  -3   0  -6    0.23    0.42
  -3   0  -6    0.30    0.35
   3   0   6    0.09    0.36
   3   0   6    0.37    0.62
   3   0   6    0.50    0.53
  -3  -1  -6   11.94    1.43
  -3  -1  -6   11.33    1.50
  -3  -1  -6   12.82    1.04
   3   1   6   11.55    0.86
   3   1   6    9.98    1.45
   3   1   6   10.42    0.90
   3   1   6    9.32    1.38
  -3  -2  -6   21.27    1.34
  -3  -2  -6   19.38    2.06
  -3  -2  -6   21.55    1.79
   3   2   6   18.54    1.69
   3   2   6   20.14    1.85
  -3  -3  -6    1.52    0.78
  -3  -3  -6    1.57    1.13
   3   3   6    1.50    0.79
   3   3   6    0.79    0.66
  -3  -4  -6   39.54    3.74
   3   4   6   41.17    2.75
  -3  -5  -6   -0.12    1.45
   3   5   6    0.95    0.89
   3   5   6   -0.27    1.04
  -3   5  -7    9.42    1.69
  -3   5  -7   11.70    2.55
   3  -5   7   11.42    2.76
  -3   4  -7   16.92    2.13
  -3   4  -7   13.70    2.37
  -3   4  -7   15.76    2.82
   3  -4   7   13.51    2.51
  -3   3  -7   45.50    3.46
  -3   3  -7   45.07    3.37
  -3   3  -7   44.01    2.98
   3  -3   7   42.14    3.39
   3  -3   7   42.75    2.34
  -3   2  -7   14.57    2.03
  -3   2  -7   17.79    1.96
  -3   2  -7   20.26    2.27
   3  -2   7   22.79    2.28
   3  -2   7   23.00    1.67
  -3   1  -7   28.52    2.34
  -3   1  -7   28.11    1.42
  -3   1  -7   24.35    2.28
   3  -1   7   23.18    2.22
  -3   0  -7    0.32    0.84
  -3   0  -7    0.21    0.71
  -3   0  -7    0.20    0.42
  -3   0  -7   -0.57    0.54
   3   0   7   -0.22    0.40
   3   0   7    0.15    0.70
  -3  -1  -7   22.75    1.53
  -3  -1  -7   22.70    2.05
  -3  -1  -7   26.04    2.05
   3   1   7   24.32    2.09
   3   1   7   22.37    1.43
   3   1   7   24.08    2.16
  -3  -2  -7   18.00    2.15
  -3  -2  -7   17.72    1.42
  -3  -2  -7   17.03    1.82
   3   2   7   27.78    2.26
   3   2   7   22.10    2.00
  -3  -3  -7   43.05    3.58
   3   3   7   40.89    2.85
  -3  -4  -7   13.77    2.75
   3   4   7   18.69    2.06
  -3  -5  -7    9.75    2.88
   3   5   7   11.58    2.02
  -3   5  -8   18.39    2.45
   3  -5   8   20.06    3.40
  -3   4  -8    2.13    1.63
  -3   4  -8    2.06    1.02
   3  -4   8    1.13    1.43
  -3   3  -8   21.36    2.92
  -3   3  -8   20.14    2.24
   3  -3   8   27.75    2.01
   3  -3   8   28.01    3.00
  -3   2  -8    0.75    0.89
  -3   2  -8    1.04    1.01
  -3   2  -8    2.03    1.00
   3  -2   8    1.21    1.00
   3  -2   8    0.27    0.64
  -3   1  -8   10.15    0.98
  -3   1  -8   12.82    1.99
  -3   1  -8    9.81    1.85
  -3   1  -8    7.87    1.67
   3  -1   8   10.37    1.33
   3  -1   8   10.22    1.89
  -3   0  -8   -0.27    0.71
  -3   0  -8    0.37    0.97
  -3   0  -8    0.21    0.49
   3   0   8    0.25    0.52
   3   0   8   -0.02    0.83
  -3  -1  -8   10.82    1.75
  -3  -1  -8   12.45    1.76
  -3  -1  -8   10.80    1.26
   3   1   8    8.33    1.59
   3   1   8   10.65    1.14
   3   1   8   12.00    1.95
  -3  -2  -8    1.40    0.63
  -3  -2  -8    1.96    0.96
  -3  -2  -8    1.74    1.08
   3   2   8    0.60    0.80
   3   2   8    1.14    0.84
  -3  -3  -8   19.14    2.82
   3   3   8   23.75    2.37
  -3  -4  -8    3.45    1.84
   3   4   8   -0.07    0.84
  -3  -5  -8   21.94    4.05
   3   5   8   25.38    2.83
  -3   4  -9   15.02    3.05
  -3   4  -9   12.31    2.17
   3  -4   9    5.41    2.04
  -3   3  -9   11.66    2.14
  -3   3  -9   11.64    2.36
   3  -3   9   15.12    2.61
  -3   2  -9    8.19    1.81
  -3   2  -9   10.52    2.20
   3  -2   9    7.59    1.35
   3  -2   9    8.85    2.01
  -3   1  -9   10.82    1.86
  -3   1  -9   10.54    1.88
  -3   1  -9    8.99    1.91
   3  -1   9   12.07    2.19
   3  -1   9    7.44    1.25
  -3   0  -9    1.11    1.10
  -3   0  -9    0.48    0.94
  -3   0  -9   -0.19    0.51
   3   0   9    0.58    0.61
   3   0   9    0.37    0.99
  -3  -1  -9    7.48    1.64
  -3  -1  -9    7.99    2.02
  -3  -1  -9    8.53    1.23
   3   1   9    9.61    1.93
   3   1   9    9.47    1.15
  -3  -2  -9   10.29    1.81
  -3  -2  -9   10.91    2.05
  -3  -2  -9   10.66    1.45
   3   2   9    8.20    1.78
  -3  -3  -9    9.08    1.36
  -3  -3  -9   11.70    2.47
   3   3   9   12.05    2.03
  -3  -4  -9   12.85    2.86
   3   4   9    9.59    1.94
  -3   4 -10   16.48    2.63
  -3   4 -10   11.65    2.91
   3  -4  10   14.49    3.02
   3  -4  10   16.87    2.20
  -3   3 -10    0.69    1.33
  -3   3 -10    0.93    1.15
   3  -3  10    1.25    1.03
   3  -3  10    1.53    1.50
  -3   2 -10    5.75    1.85
  -3   2 -10    5.04    1.73
   3  -2  10    5.78    1.77
   3  -2  10    5.39    1.25
  -3   1 -10    0.47    1.09
   3  -1  10    0.30    1.26
   3  -1  10   -0.09    0.75
  -3   0 -10    0.25    1.23
  -3   0 -10   -0.87    0.57
  -3   0 -10   -0.50    0.89
   3   0  10    0.04    0.65
   3   0  10    0.28    1.16
  -3  -1 -10   -0.03    0.62
  -3  -1 -10    0.44    1.30
  -3  -1 -10    0.30    0.86
   3   1  10    0.07    1.08
   3   1  10    0.31    0.58
  -3  -2 -10    6.37    1.27
  -3  -2 -10    5.25    1.51
  -3  -3 -10    0.48    1.28
  -3  -3 -10    2.39    1.02
   3   3  10    1.44    1.20
  -3  -4 -10   22.37    3.81
   3   4  10   17.90    2.83
  -3   3 -11   10.65    2.72
  -3   3 -11    9.66    2.24
   3  -3  11   13.52    1.98
   3  -3  11    2.97    1.99
  -3   2 -11    8.20    2.32
   3  -2  11   11.36    2.53
   3  -2  11   10.64    1.75
  -3   1 -11    2.00    1.47
   3  -1  11    0.39    1.31
   3  -1  11    1.96    0.99
  -3   0 -11   -0.09    1.09
  -3   0 -11   -0.24    0.71
   3   0  11    0.42    1.27
   3   0  11   -0.52    0.66
  -3  -1 -11    2.65    1.05
  -3  -1 -11    2.02    1.69
  -3  -1 -11    1.40    1.28
  -3  -2 -11   10.52    1.64
  -3  -3 -11   11.83    1.89
  -3   2 -12    0.60    1.48
   3  -2  12    5.37    1.55
   3  -2  12    2.68    1.80
  -3   1 -12    4.57    2.04
   3  -1  12    5.23    2.00
   3  -1  12    3.74    1.25
  -3   0 -12   -1.02    1.09
  -3   0 -12   -0.91    0.82
   3   0  12   -0.70    1.30
  -3  -1 -12    4.61    1.32
  -3  -1 -12    3.54    1.80
  -3  -2 -12    3.43    2.20
  -3   0 -13    0.67    1.60
  -4   0  13    1.16    1.85
   4   0 -13    1.67    2.16
  -4   2  12    1.91    1.77
  -4   1  12  128.79    5.30
   4  -1 -12  122.78    5.58
  -4   0  12    0.24    0.93
  -4   0  12    0.10    1.45
   4   0 -12    4.00    2.15
  -4  -1  12  114.07    7.03
   4   1 -12  107.49    7.32
  -4  -2  12   -1.63    1.29
  -4  -2  12    0.79    1.17
   4   2 -12    2.84    2.08
  -4   3  11    2.45    1.73
   4  -3 -11    0.42    1.64
  -4   2  11   -0.78    1.23
   4  -2 -11    0.36    0.88
  -4   1  11    3.61    1.90
   4  -1 -11    2.39    1.08
  -4   0  11    8.89    2.36
  -4   0  11    7.85    1.48
   4   0 -11    8.07    2.20
  -4  -1  11    4.93    1.26
  -4  -1  11    1.99    1.63
   4   1 -11    3.05    1.97
  -4  -2  11   -1.22    1.18
  -4  -2  11    0.67    1.00
   4   2 -11   -0.48    1.68
   4   2 -11    1.66    1.59
  -4  -3  11    1.51    1.22
  -4  -3  11    2.78    2.01
   4   3 -11    4.59    1.93
  -4   4  10   20.03    3.03
   4  -4 -10   22.15    4.23
   4  -4 -10   17.59    2.40
  -4   3  10    2.02    1.50
   4  -3 -10    1.55    1.77
   4  -3 -10    1.13    1.04
  -4   2  10   54.37    4.26
   4  -2 -10   49.92    4.28
   4  -2 -10   49.79    3.23
  -4   1  10   -1.02    1.14
  -4   1  10    0.20    0.61
   4  -1 -10    4.63    1.54
   4  -1 -10    2.57    0.97
  -4   0  10   85.61    4.00
  -4   0  10   91.11    5.51
   4   0 -10   80.32    3.60
   4   0 -10   78.36    5.15
  -4  -1  10   -0.30    1.06
   4   1 -10    3.32    1.50
   4   1 -10    3.56    1.84
  -4  -2  10   52.84    3.28
  -4  -2  10   59.77    4.63
   4   2 -10   48.87    4.68
   4   2 -10   56.31    4.34
  -4  -3  10    0.01    1.36
  -4  -3  10   -0.27    0.89
   4   3 -10    3.58    2.08
   4   3 -10    6.94    2.00
   4   4 -10   23.34    4.35
   4   4 -10   22.74    3.05
  -4   4   9    0.15    1.37
  -4   4   9    4.67    1.58
   4  -4  -9    5.04    2.42
  -4   3   9    4.02    1.39
  -4   3   9    3.78    1.52
   4  -3  -9    4.63    1.84
   4  -3  -9    3.77    1.14
  -4   2   9    2.25    1.35
   4  -2  -9    0.56    0.77
   4  -2  -9    1.61    1.30
  -4   1   9    2.01    0.74
  -4   1   9    1.23    0.65
  -4   1   9    1.23    1.13
   4  -1  -9    1.32    0.75
   4  -1  -9    2.42    1.16
  -4   0   9   12.47    2.19
   4   0  -9   15.01    1.46
   4   0  -9   12.02    2.09
  -4  -1   9    1.23    0.83
  -4  -1   9    0.63    1.12
   4   1  -9    1.07    1.26
   4   1  -9    2.19    1.27
  -4  -2   9    0.38    0.77
  -4  -2   9   -0.05    1.14
   4   2  -9    1.12    1.12
   4   2  -9    0.17    1.28
  -4  -3   9    4.21    1.67
  -4  -3   9    6.25    1.24
   4   3  -9    3.88    1.46
   4   3  -9    3.40    1.92
  -4  -4   9    4.17    1.97
   4   4  -9    1.39    1.15
   4   4  -9    1.88    2.15
  -4   5   8   37.64    3.69
  -4   5   8   31.62    3.41
  -4   5   8   37.80    3.76
   4  -5  -8   38.55    3.54
   4  -5  -8   32.42    5.07
  -4   4   8    4.03    1.44
  -4   4   8    4.65    1.66
  -4   4   8    5.83    1.70
   4  -4  -8    5.55    1.61
   4  -4  -8    6.75    2.32
  -4   3   8   18.04    2.56
  -4   3   8   17.29    2.31
   4  -3  -8   21.30    2.02
   4  -3  -8   25.96    3.53
  -4   2   8    1.13    1.07
  -4   2   8    0.69    0.90
   4  -2  -8    0.79    0.71
   4  -2  -8   -0.01    1.01
  -4   1   8    9.48    1.20
  -4   1   8   13.12    2.25
  -4   1   8   10.96    1.27
   4  -1  -8    7.86    1.57
   4  -1  -8   11.95    1.96
   4  -1  -8    8.62    1.26
  -4   0   8    4.50    0.97
  -4   0   8    3.39    1.38
   4   0  -8    4.53    1.40
   4   0  -8    5.44    0.93
   4   0  -8    4.12    1.44
  -4  -1   8    9.27    1.32
  -4  -1   8    7.93    1.69
   4   1  -8    6.81    1.73
   4   1  -8   11.52    2.05
  -4  -2   8    1.20    0.75
  -4  -2   8    0.98    1.15
   4   2  -8    1.21    1.03
   4   2  -8    0.12    1.08
  -4  -3   8   20.46    2.94
   4   3  -8   21.92    3.47
   4   3  -8   19.97    2.46
  -4  -4   8    3.78    1.83
   4   4  -8    6.21    2.48
   4   4  -8    3.62    1.26
  -4  -5   8   39.56    4.44
   4   5  -8   31.94    4.71
   4   5  -8   38.68    3.02
  -4   5   7    0.63    1.09
  -4   5   7    1.03    1.30
  -4   5   7    0.92    1.21
   4  -5  -7    0.94    1.20
   4  -5  -7    0.15    1.63
  -4   4   7    0.05    0.86
  -4   4   7    0.21    1.07
  -4   4   7    0.46    0.95
   4  -4  -7    0.64    1.01
   4  -4  -7   -0.04    1.29
  -4   3   7    2.38    1.11
  -4   3   7    7.62    1.51
  -4   3   7    2.73    1.08
   4  -3  -7    4.03    1.00
   4  -3  -7    2.55    1.38
   4  -3  -7    4.21    1.23
  -4   2   7   -0.02    0.95
  -4   2   7    0.80    0.83
   4  -2  -7   -0.30    0.85
   4  -2  -7   -0.05    0.51
  -4   1   7    2.49    1.10
  -4   1   7    1.56    0.62
  -4   1   7    0.84    0.83
   4  -1  -7    1.31    0.64
   4  -1  -7    1.68    0.91
   4  -1  -7    1.94    1.00
  -4   0   7    2.29    0.72
  -4   0   7    2.84    1.12
   4   0  -7    2.46    0.67
   4   0  -7    2.46    0.95
   4   0  -7    2.54    1.18
   4   0  -7    2.82    1.10
  -4  -1   7    1.86    1.04
  -4  -1   7    1.18    0.64
   4   1  -7    1.15    0.98
   4   1  -7    1.84    1.02
  -4  -2   7    0.67    0.89
  -4  -2   7    0.78    0.65
   4   2  -7    1.12    1.12
   4   2  -7    0.79    0.82
  -4  -3   7    2.32    1.27
   4   3  -7    3.31    1.10
   4   3  -7   -0.18    1.35
  -4  -4   7    1.96    1.30
   4   4  -7    1.03    0.79
   4   4  -7    0.34    1.59
  -4  -5   7    0.56    1.41
   4   5  -7   -0.29    0.76
   4   5  -7   -0.78    1.79
  -4   5   6    0.53    1.19
  -4   5   6    2.99    1.35
  -4   5   6    1.63    1.33
   4  -5  -6    1.37    1.84
  -4   4   6   40.27    3.23
  -4   4   6   44.72    3.45
  -4   4   6   39.69    3.16
   4  -4  -6   42.42    2.84
   4  -4  -6   39.90    4.01
  -4   3   6    1.31    0.84
  -4   3   6    0.84    0.86
  -4   3   6    0.76    0.77
   4  -3  -6    1.59    1.13
   4  -3  -6    0.27    0.55
   4  -3  -6    0.01    0.70
  -4   2   6   36.10    2.28
  -4   2   6   35.02    2.56
  -4   2   6   35.30    2.73
   4  -2  -6   33.50    2.01
   4  -2  -6   31.93    2.79
  -4   1   6    2.86    0.65
  -4   1   6    3.00    1.08
  -4   1   6    4.24    1.07
  -4   1   6    2.75    0.64
   4  -1  -6    1.78    1.06
   4  -1  -6    1.86    0.81
   4  -1  -6    2.20    0.89
   4  -1  -6    1.90    0.62
  -4   0   6   33.91    1.96
  -4   0   6   35.23    2.65
   4   0  -6   33.75    2.44
   4   0  -6   36.42    1.87
   4   0  -6   38.61    2.51
   4   0  -6   38.51    2.71
  -4  -1   6    1.87    0.66
  -4  -1   6    2.07    1.00
   4   1  -6    2.11    1.01
   4   1  -6    2.72    0.96
  -4  -2   6   34.02    2.71
   4   2  -6   34.68    3.03
   4   2  -6   32.67    2.32
  -4  -3   6    0.96    0.95
   4   3  -6    2.00    1.40
   4   3  -6   -0.19    0.55
  -4  -4   6   41.75    3.60
   4   4  -6   44.84    2.69
   4   4  -6   43.83    4.11
  -4  -5   6    1.17    1.59
   4   5  -6    1.19    1.90
   4   5  -6    0.25    0.67
  -4   5   5   -0.32    0.88
  -4   5   5   -0.36    0.94
  -4   5   5   -0.36    0.94
   4  -5  -5   -0.87    1.49
  -4   4   5    0.05    0.86
  -4   4   5    1.24    0.87
  -4   4   5    0.37    0.88
   4  -4  -5    0.89    1.31
   4  -4  -5    0.27    0.70
  -4   3   5    4.72    1.17
  -4   3   5    4.82    1.23
  -4   3   5    4.50    1.11
   4  -3  -5    3.63    0.92
   4  -3  -5    2.83    1.21
  -4   2   5    6.10    1.09
  -4   2   5    7.62    1.43
  -4   2   5    5.85    1.21
   4  -2  -5    6.00    0.88
   4  -2  -5    5.97    1.05
   4  -2  -5    7.35    1.48
  -4   1   5   19.27    1.21
  -4   1   5   16.38    1.85
  -4   1   5   20.10    1.26
  -4   1   5   19.00    1.32
  -4   1   5   20.19    1.74
   4  -1  -5   19.79    1.53
   4  -1  -5   19.30    2.00
   4  -1  -5   19.65    1.83
   4  -1  -5   20.74    1.34
  -4   0   5    3.64    0.68
  -4   0   5    3.87    1.04
  -4   0   5    3.52    0.80
   4   0  -5    3.36    0.90
   4   0  -5    2.38    0.55
   4   0  -5    2.69    0.79
  -4  -1   5   20.44    1.80
  -4  -1   5   18.09    1.30
   4   1  -5   18.10    1.93
   4   1  -5   18.51    1.67
   4   1  -5   19.31    1.43
  -4  -2   5    7.49    1.41
   4   2  -5    6.63    1.52
   4   2  -5    5.74    1.00
  -4  -3   5    4.04    1.29
   4   3  -5    4.83    0.94
   4   3  -5    3.87    1.56
  -4  -4   5    0.59    0.96
   4   4  -5    0.66    1.23
   4   4  -5    0.93    0.62
   4   4  -5    1.89    1.20
  -4  -5   5    0.96    1.28
   4   5  -5   -1.29    1.33
   4   5  -5    0.54    0.59
   4   5  -5    0.64    1.27
  -4   6   4    4.62    1.68
  -4   6   4    6.87    2.06
  -4   6   4   10.03    2.30
   4  -6  -4    6.54    2.66
  -4   5   4   45.76    3.74
  -4   5   4   42.71    3.45
  -4   5   4   40.80    3.29
   4  -5  -4   50.70    4.64
  -4   4   4    7.97    1.54
  -4   4   4    4.72    1.28
  -4   4   4    8.04    1.61
   4  -4  -4    4.93    1.62
  -4   3   4   84.66    4.14
  -4   3   4   91.94    4.22
  -4   3   4   78.25    4.11
   4  -3  -4   79.78    3.25
   4  -3  -4   75.10    4.52
  -4   2   4    3.01    0.93
  -4   2   4    3.75    0.91
   4  -2  -4    0.24    0.57
   4  -2  -4    0.53    0.48
   4  -2  -4    1.28    0.42
  -4   1   4  328.16   10.02
  -4   1   4  306.19   10.74
  -4   1   4  323.39    9.78
  -4   1   4  333.21   10.55
  -4   1   4  324.86    9.70
   4  -1  -4  320.63    9.86
   4  -1  -4  308.44   10.82
   4  -1  -4  326.09   10.80
   4   0  -4    8.18    1.17
   4   0  -4    6.67    1.09
   4   0  -4    8.76    1.26
   4   0  -4    7.82    0.76
  -4  -1   4  315.78   10.42
  -4  -1   4  318.24    9.45
   4   1  -4  320.19    9.85
   4   1  -4  301.39   10.03
   4   1  -4  303.29   10.71
  -4  -2   4    2.01    0.71
   4   2  -4    0.80    0.46
   4   2  -4    0.70    0.84
   4   2  -4    0.91    0.47
  -4  -3   4   82.38    4.24
   4   3  -4   79.45    3.25
   4   3  -4   75.76    4.72
   4   3  -4   78.76    4.21
  -4  -4   4    5.56    1.44
   4   4  -4    3.31    0.70
   4   4  -4    3.61    1.38
   4   4  -4    1.91    1.35
  -4  -5   4   49.13    4.04
   4   5  -4   61.01    4.70
   4   5  -4   50.62    2.38
   4   5  -4   49.47    3.95
  -4  -6   4   12.63    2.86
   4   6  -4    3.98    0.72
   4   6  -4    3.25    1.82
  -4   6   3   -0.84    1.00
  -4   6   3   -0.47    1.19
   4  -6  -3   -0.16    1.71
  -4   5   3    1.00    1.07
  -4   5   3    0.86    1.01
  -4   5   3   -0.67    0.78
   4  -5  -3    0.26    1.31
  -4   4   3    0.51    0.82
  -4   4   3   -0.10    0.74
  -4   4   3    1.10    0.79
   4  -4  -3    0.66    1.00
  -4   3   3    3.10    1.02
  -4   3   3    3.62    0.97
  -4   3   3    3.66    0.99
   4  -3  -3    2.78    1.12
   4  -3  -3    4.70    0.65
  -4   2   3   12.23    1.29
  -4   2   3   14.75    1.36
  -4   2   3   13.30    1.38
   4  -2  -3   14.25    1.01
   4  -2  -3   14.89    1.60
   4  -2  -3   12.62    0.89
  -4   1   3   11.26    0.80
  -4   1   3   10.52    0.94
  -4   1   3   11.92    1.22
  -4   1   3   12.43    1.18
  -4   1   3   10.97    0.77
   4  -1  -3   12.57    1.00
   4  -1  -3   12.64    1.30
   4  -1  -3   13.00    0.88
  -4   0   3   19.45    1.53
  -4   0   3   18.35    1.14
   4   0  -3   17.89    1.03
   4   0  -3   16.01    1.43
   4   0  -3   22.50    1.52
   4   0  -3   18.69    1.46
  -4  -1   3   11.22    1.11
   4   1  -3   10.44    0.97
   4   1  -3   11.30    0.99
   4   1  -3   10.53    1.48
  -4  -2   3   14.16    1.38
   4   2  -3   13.11    0.98
   4   2  -3   13.40    1.01
   4   2  -3   12.15    1.00
   4   2  -3   11.33    1.71
  -4  -3   3    3.32    1.01
   4   3  -3    3.06    1.00
   4   3  -3    3.59    0.58
   4   3  -3    2.96    0.74
   4   3  -3    4.46    0.65
   4   3  -3    4.12    1.30
  -4  -4   3    0.66    0.86
   4   4  -3   -0.97    0.52
   4   4  -3    0.71    1.06
   4   4  -3    0.87    0.40
   4   4  -3    0.51    0.81
  -4  -5   3    0.99    1.28
   4   5  -3    0.09    0.35
   4   5  -3    1.28    1.10
  -4  -6   3   -0.35    1.50
   4   6  -3   -1.12    1.18
  -4   6   2   11.39    1.97
  -4   6   2   16.51    2.90
   4  -6  -2   20.18    3.50
  -4   5   2   10.57    1.78
  -4   5   2   11.78    2.09
  -4   5   2    9.48    2.06
   4  -5  -2    9.39    2.26
  -4   4   2   63.82    3.88
  -4   4   2   62.57    3.69
  -4   4   2   63.73    3.55
   4  -4  -2   65.12    4.30
  -4   3   2   20.35    1.76
  -4   3   2   19.58    1.80
  -4   3   2   22.15    1.98
   4  -3  -2   12.50    1.87
  -4   2   2  415.17   13.18
  -4   2   2  408.14   13.16
  -4   2   2  412.36   13.23
   4  -2  -2  403.66   13.50
   4  -2  -2  428.18   12.24
   4  -2  -2  430.37   12.23
  -4   1   2   12.45    0.70
  -4   1   2   12.88    1.14
  -4   1   2   14.26    1.06
  -4   1   2   14.49    1.22
   4  -1  -2   12.80    0.84
   4  -1  -2   12.25    1.23
   4  -1  -2   10.74    0.85
  -4   0   2  862.11   27.12
  -4   0   2  971.95   27.68
   4   0  -2 1000.00   27.71
   4   0  -2  926.80   27.80
   4   0  -2  968.15   27.06
  -4  -1   2   11.64    0.98
   4   1  -2   11.26    1.25
   4   1  -2   10.17    0.85
  -4  -2   2  419.88   12.94
   4   2  -2  413.34   12.39
   4   2  -2  395.21   13.48
   4   2  -2  385.92   12.14
   4   2  -2  416.87   12.04
   4   2  -2  428.65   12.98
  -4  -3   2   23.00    1.90
   4   3  -2   15.06    0.83
   4   3  -2   14.71    1.42
   4   3  -2   18.50    2.10
   4   3  -2   13.95    1.55
  -4  -4   2   66.14    3.89
   4   4  -2   66.24    4.13
   4   4  -2   64.75    2.23
   4   4  -2   70.03    3.63
   4   4  -2   63.75    3.66
   4   4  -2   64.05    2.22
  -4  -5   2   12.05    2.17
   4   5  -2    8.42    1.62
   4   5  -2    6.90    1.66
  -4  -6   2   11.32    2.57
   4   6  -2   18.59    2.79
  -4   6   1    1.81    1.53
  -4   6   1    2.06    1.12
  -4   6   1    3.45    1.68
  -4   5   1    1.87    1.02
  -4   5   1    1.48    1.16
  -4   5   1    2.70    1.36
   4  -5  -1    0.97    1.26
  -4   4   1    3.49    1.05
  -4   4   1    3.66    1.23
  -4   4   1    2.74    1.14
   4  -4  -1    4.48    1.37
  -4   3   1    0.36    0.64
  -4   3   1   -0.15    0.62
  -4   3   1    1.18    0.68
   4  -3  -1    0.34    0.59
  -4   2   1    2.88    0.78
  -4   2   1    2.25    0.68
  -4   2   1    3.51    0.74
   4  -2  -1    1.95    0.68
   4  -2  -1    2.61    0.33
  -4   1   1    1.03    0.20
  -4   1   1    0.48    0.32
  -4   1   1    0.45    0.44
  -4   1   1    0.93    0.41
   4  -1  -1    0.22    0.23
   4  -1  -1    0.75    0.28
   4  -1  -1    0.63    0.47
  -4   0   1    3.53    0.41
  -4   0   1    2.49    0.51
   4   0  -1    3.60    0.61
   4   0  -1    3.32    0.40
  -4  -1   1    0.54    0.28
   4   1  -1   -0.09    0.22
   4   1  -1    0.19    0.39
  -4  -2   1    2.83    0.65
   4   2  -1    3.73    0.97
   4   2  -1    3.09    0.62
   4   2  -1    3.04    0.29
   4   2  -1    2.58    0.60
   4   3  -1    0.24    0.70
   4   3  -1    0.79    0.56
   4   3  -1    0.64    0.60
   4   4  -1    3.05    1.13
   4   4  -1    3.06    0.96
   4   4  -1    3.31    1.03
   4   5  -1    3.26    1.28
  -4   6   0   13.43    2.67
  -4   6   0   10.81    1.68
  -4   6   0   10.48    2.31
  -4   5   0   20.81    2.33
  -4   5   0   16.46    2.60
  -4   5   0   15.07    1.87
   4  -5   0   18.97    2.84
  -4   4   0   22.14    2.61
  -4   4   0   20.76    2.10
  -4   4   0   22.00    1.92
   4  -4   0   24.56    2.48
  -4   3   0  186.23    7.35
  -4   3   0  183.24    6.92
   4  -3   0  188.39    7.20
  -4   2   0    7.48    1.03
  -4   2   0    5.52    0.83
  -4   2   0    7.50    1.18
   4  -2   0    5.74    1.01
  -4   1   0  801.35   24.22
  -4   1   0  850.20   24.13
  -4   1   0  833.31   24.10
  -4   1   0  823.64   24.33
   4  -1   0  816.47   24.53
   4  -1   0  851.80   23.80
  -4   0   0   43.24    1.55
   4   0   0   44.36    2.02
   4   1   0  807.99   23.13
   4   2   0    4.57    0.87
   4   2   0    5.55    0.37
   4   2   0    7.58    0.94
   4   3   0  190.79    6.84
   4   3   0  180.70    6.63
   4   3   0  191.79    7.07
   4   4   0   21.36    2.05
   4   4   0   23.54    0.99
   4   4   0   19.63    2.09
   4   4   0   22.00    2.02
  -4  -5   0   16.90    2.46
   4   5   0   19.49    2.25
   4   5   0   18.50    2.38
   4   6   0   13.13    2.39
  -4   6  -1    1.74    0.96
  -4   6  -1    3.33    1.66
  -4   6  -1    5.46    1.95
  -4   5  -1    2.32    0.89
  -4   5  -1    3.13    1.39
  -4   5  -1    1.34    1.21
  -4   4  -1    5.33    1.51
  -4   4  -1    4.08    0.98
  -4   4  -1    4.51    1.28
   4  -4   1    5.55    1.44
  -4   3  -1    2.13    0.88
  -4   3  -1    0.25    0.58
  -4   3  -1    0.80    0.52
   4  -3   1    1.05    0.72
  -4   2  -1    2.86    0.62
  -4   2  -1    2.76    0.80
  -4   2  -1    3.31    0.71
   4  -2   1    3.73    0.76
  -4   1  -1    0.31    0.27
  -4   1  -1    0.33    0.37
  -4   1  -1    0.48    0.34
  -4   1  -1    0.22    0.11
   4  -1   1    0.51    0.26
  -4   0  -1    3.65    0.60
  -4   0  -1    2.23    0.29
   4   0   1    3.23    0.51
  -4  -1  -1    0.41    0.39
   4   1   1    0.42    0.23
  -4  -2  -1    2.90    0.67
   4   2   1    3.38    0.43
   4   2   1    2.95    0.40
   4   2   1    2.60    0.52
   4   2   1    2.05    0.54
  -4  -3  -1    0.58    0.55
   4   3   1    1.47    0.61
   4   3   1    1.40    0.34
   4   3   1    1.19    0.32
   4   3   1    0.93    0.60
  -4  -4  -1    4.51    1.09
   4   4   1    3.59    1.01
   4   4   1    3.87    1.08
   4   4   1    3.35    0.54
  -4  -5  -1    1.30    1.34
   4   5   1    1.59    1.12
   4   5   1    2.25    0.64
   4   5   1    2.69    1.14
  -4  -6  -1    0.88    1.48
   4   6   1    2.81    0.62
   4   6   1    1.09    1.24
  -4   6  -2   15.28    1.70
  -4   6  -2   14.22    1.78
  -4   6  -2   16.02    2.89
  -4   6  -2   17.65    2.88
  -4   5  -2    8.84    1.38
  -4   5  -2    9.62    2.11
  -4   5  -2    7.24    1.72
  -4   4  -2   62.13    4.15
  -4   4  -2   65.60    3.81
  -4   4  -2   64.90    3.15
  -4   3  -2   15.13    2.06
  -4   3  -2   15.16    1.38
  -4   3  -2   18.36    1.68
  -4   3  -2   14.13    1.66
   4  -3   2   21.04    1.76
  -4   2  -2  424.31   13.85
  -4   2  -2  434.46   13.21
  -4   2  -2  418.99   13.51
   4  -2   2  431.27   12.55
   4  -2   2  440.00   13.43
  -4   1  -2   12.46    0.98
  -4   1  -2   13.46    1.73
  -4   1  -2   11.41    0.57
  -4   1  -2   12.58    1.16
  -4   1  -2   11.37    0.95
  -4   1  -2   10.49    0.92
   4  -1   2   12.61    0.83
   4  -1   2   12.69    0.76
  -4   0  -2  812.42   22.63
  -4   0  -2  756.32   23.20
   4   0   2  805.73   23.04
  -4  -1  -2   12.37    0.97
   4   1   2   10.86    0.85
  -4  -2  -2  422.93   12.83
   4   2   2  420.25   12.47
   4   2   2  400.86   12.34
   4   2   2  395.98   12.88
   4   2   2  431.93   12.43
  -4  -3  -2   16.62    1.51
   4   3   2   23.17    1.31
   4   3   2   22.30    1.84
   4   3   2   21.40    1.24
  -4  -4  -2   64.79    4.03
   4   4   2   61.12    3.64
   4   4   2   59.66    2.59
   4   4   2   65.69    3.35
  -4  -5  -2    8.87    2.14
   4   5   2   11.13    1.27
   4   5   2   12.98    2.18
  -4  -6  -2   17.27    3.17
   4   6   2   14.20    1.50
   4   6   2   14.04    2.51
  -4   6  -3    0.20    0.68
  -4   6  -3    1.97    1.59
  -4   6  -3    0.53    1.33
  -4   5  -3    0.67    1.27
  -4   5  -3    0.24    1.06
  -4   5  -3    0.71    0.64
  -4   4  -3    0.03    0.77
  -4   4  -3    0.66    0.54
  -4   4  -3   -0.13    0.92
  -4   4  -3    0.60    0.60
  -4   3  -3    4.26    0.84
  -4   3  -3    2.29    0.71
  -4   3  -3    4.13    1.20
  -4   3  -3    4.30    1.19
  -4   2  -3   12.70    1.54
  -4   2  -3   13.92    1.22
  -4   2  -3   13.29    1.34
  -4   2  -3   13.56    1.27
   4  -2   3   14.44    0.96
   4  -2   3   15.41    0.87
  -4   1  -3   12.23    1.03
  -4   1  -3   10.16    0.94
  -4   1  -3   12.48    0.65
  -4   1  -3   12.72    1.04
  -4   1  -3   13.88    1.29
   4  -1   3   11.81    0.83
   4  -1   3   11.80    1.06
  -4   0  -3   16.51    1.23
  -4   0  -3   18.33    0.95
  -4   0  -3   19.18    1.27
  -4   0  -3   19.99    1.49
   4   0   3   19.55    1.01
   4   0   3   23.80    1.38
   4   0   3   18.67    1.13
  -4  -1  -3   11.07    0.63
  -4  -1  -3   10.54    0.95
   4   1   3   11.33    0.97
   4   1   3    9.88    0.77
  -4  -2  -3   14.33    1.21
   4   2   3   14.41    1.07
   4   2   3   14.51    1.13
  -4  -3  -3    3.23    0.85
   4   3   3    3.85    0.73
   4   3   3    5.10    1.13
   4   3   3    3.42    0.77
  -4  -4  -3    0.43    1.05
   4   4   3    0.13    0.59
   4   4   3    0.58    0.48
   4   4   3   -0.41    0.60
  -4  -5  -3    0.52    1.18
   4   5   3    0.04    0.93
   4   5   3    0.33    0.62
  -4  -6  -3    0.65    1.62
   4   6   3   -0.33    1.13
   4   6   3    0.37    0.78
  -4   6  -4    2.21    1.73
  -4   6  -4    3.63    1.05
  -4   6  -4    3.68    1.75
   4  -6   4    3.91    2.25
  -4   5  -4   49.06    4.31
  -4   5  -4   50.68    2.89
  -4   5  -4   53.87    4.06
  -4   4  -4    4.75    1.46
  -4   4  -4    3.64    0.89
  -4   4  -4    3.29    1.41
  -4   3  -4   76.10    4.32
  -4   3  -4   80.30    3.57
  -4   3  -4   77.92    4.15
  -4   3  -4   82.82    4.13
  -4   2  -4    1.13    0.53
  -4   2  -4    0.39    0.51
  -4   2  -4    0.48    0.56
  -4   2  -4    1.22    0.72
   4  -2   4    2.67    0.57
   4  -2   4    3.13    0.57
   4  -2   4    2.92    0.85
  -4   1  -4  331.85   10.71
  -4   1  -4  332.49    9.76
  -4   1  -4  330.68   10.89
  -4   1  -4  333.85   10.62
  -4   1  -4  331.23   10.62
   4  -1   4  328.83   10.67
   4  -1   4  331.75   10.04
  -4   0  -4    8.24    1.18
  -4   0  -4    9.12    0.99
  -4   0  -4    9.90    0.74
  -4   0  -4   11.62    1.13
  -4  -1  -4  326.19   10.36
  -4  -1  -4  317.49    9.67
   4   1   4  327.85   10.14
   4   1   4  324.63    9.30
   4   1   4  326.01   10.39
  -4  -2  -4    0.78    0.25
  -4  -2  -4    0.41    0.41
  -4  -2  -4    0.10    0.39
   4   2   4    2.73    0.60
   4   2   4    3.62    0.78
  -4  -3  -4   79.35    3.61
   4   3   4   83.56    3.56
   4   3   4   78.29    3.55
   4   3   4   86.07    4.09
  -4  -4  -4    2.82    1.35
   4   4   4    8.73    1.66
   4   4   4    6.35    1.05
  -4  -5  -4   46.55    4.30
   4   5   4   42.44    2.72
   4   5   4   51.49    3.84
  -4  -6  -4    2.03    2.07
   4   6   4    7.40    2.10
   4   6   4    6.31    1.45
  -4   5  -5    0.11    0.62
  -4   5  -5    1.07    1.12
   4  -5   5    1.41    1.31
  -4   4  -5    1.21    1.15
  -4   4  -5    1.29    1.23
  -4   4  -5    1.03    0.67
  -4   4  -5    2.98    1.46
   4  -4   5   -0.22    1.04
  -4   3  -5    4.23    1.28
  -4   3  -5    3.62    1.24
  -4   3  -5    3.61    1.30
  -4   3  -5    3.38    0.87
   4  -3   5    2.37    1.18
  -4   2  -5    7.57    1.32
  -4   2  -5    7.50    1.39
  -4   2  -5    7.17    1.32
  -4   2  -5    6.97    1.18
   4  -2   5    7.88    1.42
   4  -2   5    6.22    0.85
  -4   1  -5   17.97    1.19
  -4   1  -5   16.60    1.69
  -4   1  -5   18.75    1.60
  -4   1  -5   19.01    1.61
  -4   1  -5   18.81    1.02
   4  -1   5   19.11    1.26
   4  -1   5   18.67    1.60
  -4   0  -5    5.35    0.67
  -4   0  -5    5.37    1.13
  -4   0  -5    3.90    0.87
  -4   0  -5    5.14    0.95
   4   0   5    4.37    0.90
   4   0   5    6.09    1.04
   4   0   5    4.41    0.66
  -4  -1  -5   20.47    1.55
  -4  -1  -5   18.13    1.12
   4   1   5   18.56    0.94
   4   1   5   16.43    1.48
   4   1   5   18.93    1.47
  -4  -2  -5    6.66    0.73
  -4  -2  -5    7.15    1.11
   4   2   5    6.86    1.02
   4   2   5    7.83    1.21
  -4  -3  -5    3.15    0.94
  -4  -3  -5    4.10    1.39
   4   3   5    4.89    1.02
   4   3   5    4.86    1.00
  -4  -4  -5    0.57    1.22
   4   4   5    0.43    0.55
   4   4   5    1.21    0.96
  -4  -5  -5   -0.67    1.25
   4   5   5    1.58    1.19
   4   5   5    1.00    0.79
  -4   5  -6    3.93    1.55
  -4   5  -6    1.81    1.68
  -4   5  -6    1.55    0.90
   4  -5   6    2.36    1.63
  -4   4  -6   42.93    3.75
  -4   4  -6   40.93    2.76
  -4   4  -6   45.06    3.84
  -4   4  -6   39.45    3.41
   4  -4   6   42.89    3.64
  -4   3  -6    0.65    0.74
  -4   3  -6    0.71    0.99
  -4   3  -6    0.70    0.99
  -4   3  -6    0.78    0.82
   4  -3   6    0.46    0.97
   4  -3   6    1.33    0.62
  -4   2  -6   34.91    2.63
  -4   2  -6   32.73    2.36
  -4   2  -6   33.96    2.63
   4  -2   6   34.23    2.63
  -4   1  -6    2.53    0.91
  -4   1  -6    3.10    1.02
  -4   1  -6    2.86    0.54
  -4   1  -6    1.04    0.73
   4  -1   6    3.34    0.71
   4  -1   6    3.79    0.99
  -4   0  -6   46.73    3.00
  -4   0  -6   44.69    2.68
  -4   0  -6   49.90    2.84
  -4   0  -6   45.47    2.06
   4   0   6   43.59    2.11
   4   0   6   43.42    2.70
   4   0   6   44.44    2.66
  -4  -1  -6    2.35    0.57
  -4  -1  -6    2.81    0.94
   4   1   6    3.29    0.96
   4   1   6    2.72    0.52
  -4  -2  -6   28.92    1.64
  -4  -2  -6   31.53    2.24
   4   2   6   34.18    2.35
   4   2   6   34.62    2.15
  -4  -3  -6    0.30    0.92
  -4  -3  -6    0.41    0.69
   4   3   6    1.02    0.78
  -4  -4  -6   43.01    3.96
   4   4   6   40.80    2.82
  -4  -5  -6    0.64    1.50
   4   5   6    1.97    0.98
  -4   5  -7    0.90    1.45
  -4   5  -7    1.05    0.95
   4  -5   7    0.35    1.48
  -4   4  -7    0.15    0.80
  -4   4  -7    0.67    1.09
  -4   4  -7   -1.20    0.98
  -4   4  -7    0.75    1.44
   4  -4   7    0.92    1.30
  -4   3  -7    3.70    1.07
  -4   3  -7    3.11    1.33
  -4   3  -7    5.35    1.56
   4  -3   7    4.21    0.95
   4  -3   7    4.48    1.52
  -4   2  -7    0.38    0.80
  -4   2  -7    0.42    0.85
  -4   2  -7   -0.15    0.74
   4  -2   7   -0.48    0.73
   4  -2   7    0.31    0.59
  -4   1  -7    1.79    0.53
  -4   1  -7    1.27    0.87
  -4   1  -7    2.08    1.06
  -4   1  -7    1.48    0.90
   4  -1   7    1.31    0.67
   4  -1   7    1.21    0.83
  -4   0  -7    3.11    0.70
  -4   0  -7    2.49    1.01
  -4   0  -7    2.51    1.11
  -4   0  -7    3.22    1.15
   4   0   7    3.11    1.03
   4   0   7    2.08    0.65
  -4  -1  -7    1.18    0.77
  -4  -1  -7    2.36    0.91
  -4  -1  -7    2.16    0.63
   4   1   7    0.86    0.74
   4   1   7    0.59    0.43
   4   1   7    0.81    0.81
  -4  -2  -7    0.14    0.63
  -4  -2  -7    0.22    0.50
  -4  -2  -7    0.18    0.81
   4   2   7   -0.30    0.27
   4   2   7    0.21    0.71
  -4  -3  -7    3.68    1.45
   4   3   7    4.56    1.17
  -4  -4  -7   -0.23    1.28
   4   4   7   -0.36    0.72
  -4  -5  -7    0.94    1.49
   4   5   7    0.83    0.94
  -4   5  -8   34.27    2.96
   4  -5   8   32.74    4.36
  -4   4  -8    2.39    1.75
  -4   4  -8    4.02    1.30
   4  -4   8    2.92    1.52
  -4   3  -8   20.30    2.67
  -4   3  -8   19.24    2.87
  -4   3  -8   16.44    2.15
   4  -3   8   20.90    2.98
   4  -3   8   20.26    1.88
  -4   2  -8    2.39    1.10
  -4   2  -8    1.30    0.96
  -4   2  -8    1.60    1.09
   4  -2   8    0.17    0.52
   4  -2   8    0.13    0.84
  -4   1  -8   11.93    1.90
  -4   1  -8    9.75    1.01
  -4   1  -8    7.64    1.61
  -4   1  -8    9.47    1.77
   4  -1   8    9.67    1.29
   4  -1   8   10.01    1.88
  -4   0  -8    7.15    1.52
  -4   0  -8    6.02    0.95
  -4   0  -8    7.96    1.73
   4   0   8    6.28    1.51
   4   0   8    5.60    0.98
  -4  -1  -8    8.61    1.59
  -4  -1  -8    6.87    1.72
  -4  -1  -8   11.26    1.72
  -4  -1  -8    9.36    1.22
   4   1   8   10.56    1.77
   4   1   8    9.63    1.05
   4   1   8   10.82    1.79
  -4  -2  -8    0.67    0.81
  -4  -2  -8    2.12    0.72
  -4  -2  -8    0.09    0.81
   4   2   8    0.21    0.80
  -4  -3  -8   20.31    2.83
   4   3   8   19.15    2.41
  -4  -4  -8    7.43    2.35
  -4  -5  -8   34.09    4.96
   4   5   8   37.00    3.25
  -4   4  -9    2.52    1.72
  -4   4  -9    3.18    1.40
   4  -4   9    2.90    1.21
   4  -4   9    2.18    1.54
  -4   3  -9    3.31    1.57
  -4   3  -9    3.47    1.47
   4  -3   9    4.76    1.79
   4  -3   9    5.43    1.31
  -4   2  -9    1.05    1.04
  -4   2  -9    1.62    1.10
  -4   2  -9    1.50    1.15
   4  -2   9    1.16    1.12
   4  -2   9    0.70    0.78
  -4   1  -9    2.46    1.26
  -4   1  -9    0.96    1.10
   4  -1   9    1.20    1.14
   4  -1   9    1.32    0.74
  -4   0  -9   12.69    1.46
  -4   0  -9   14.67    1.89
  -4   0  -9   13.36    2.24
  -4   0  -9   14.18    2.23
   4   0   9   18.35    2.55
   4   0   9   12.93    1.46
  -4  -1  -9    2.26    1.15
  -4  -1  -9    0.45    0.61
  -4  -1  -9    2.85    1.50
   4   1   9    1.57    0.61
   4   1   9    1.72    1.15
  -4  -2  -9    0.63    0.62
  -4  -2  -9    0.87    1.04
  -4  -2  -9    0.47    0.85
   4   2   9    0.63    0.92
  -4  -3  -9    3.49    1.58
   4   3   9    2.91    1.28
  -4  -4  -9    2.60    1.86
   4   4   9    2.74    1.38
  -4   4 -10   24.61    3.24
  -4   4 -10   21.91    3.90
   4  -4  10   25.70    3.94
  -4   3 -10    4.54    1.74
  -4   3 -10    3.02    1.41
   4  -3  10    0.84    1.39
  -4   2 -10   54.63    4.33
  -4   2 -10   46.65    3.89
   4  -2  10   56.23    3.29
   4  -2  10   53.82    4.33
  -4   1 -10    4.17    1.66
  -4   1 -10    2.34    1.34
   4  -1  10    0.26    0.69
   4  -1  10    1.33    1.20
  -4   0 -10   85.18    3.84
  -4   0 -10   89.43    5.28
  -4   0 -10   81.33    4.92
   4   0  10   85.22    5.20
   4   0  10   87.22    3.87
  -4  -1 -10    1.71    1.17
  -4  -1 -10    1.27    0.80
  -4  -1 -10    2.86    1.67
   4   1  10    0.09    0.53
  -4  -2 -10   46.78    3.57
  -4  -2 -10   45.57    2.85
  -4  -3 -10    2.56    1.63
  -4  -3 -10    4.22    1.16
   4   3  10    3.91    1.57
  -4  -4 -10   20.57    3.66
   4   4  10   21.94    3.04
  -4   3 -11    3.48    1.99
  -4   3 -11    0.91    1.40
   4  -3  11    2.07    1.30
   4  -3  11    1.53    1.85
  -4   2 -11    0.91    1.44
   4  -2  11    0.54    0.92
   4  -2  11    0.89    1.32
  -4   1 -11    3.29    1.71
   4  -1  11    4.31    1.81
   4  -1  11    3.82    1.16
  -4   0 -11    7.46    1.26
  -4   0 -11    3.72    1.68
  -4   0 -11    6.49    1.99
   4   0  11    8.67    2.15
  -4  -1 -11    3.27    1.86
  -4  -1 -11    5.80    1.80
  -4  -1 -11    2.53    1.04
  -4  -2 -11    0.14    1.66
  -4  -2 -11    0.68    0.85
  -4  -2 -11   -0.08    1.12
  -4  -3 -11    1.80    1.15
   4  -2  12    1.43    1.12
   4  -2  12   -0.03    1.42
  -4   1 -12  115.30    7.07
   4  -1  12  127.07    7.34
   4  -1  12  125.54    5.58
  -4   0 -12    3.90    1.94
  -4   0 -12    6.82    1.33
  -4  -1 -12  109.49    5.05
  -4  -1 -12  118.30    8.31
  -4  -1 -12   97.61    6.11
  -4  -2 -12    5.65    2.45
  -4   0 -13    1.17    1.70
  -5   2  12    7.75    2.32
  -5   1  12    1.06    0.86
  -5   1  12   -1.73    1.43
   5  -1 -12    0.49    1.06
  -5   0  12   -0.63    1.44
  -5   0  12   -0.75    0.79
   5   0 -12   -1.67    1.46
  -5  -1  12    0.24    1.29
  -5  -1  12   -0.28    0.92
   5   1 -12    1.49    1.90
  -5  -2  12    8.06    1.72
  -5  -2  12    6.32    2.38
   5   2 -12    5.90    2.50
  -5   3  11    9.33    2.37
   5  -3 -11   10.80    2.78
  -5   2  11   11.29    2.47
   5  -2 -11   10.55    1.80
  -5   1  11    0.74    1.50
  -5   0  11    1.16    1.44
   5   0 -11   -2.45    1.08
  -5  -1  11    1.61    1.42
  -5  -1  11    2.95    1.13
   5   1 -11    2.16    1.82
  -5  -2  11   12.56    2.74
  -5  -2  11   12.17    1.86
   5   2 -11   10.72    2.60
   5   2 -11    9.06    2.79
  -5  -3  11    9.70    2.71
  -5  -3  11    9.16    1.81
   5   3 -11   13.17    3.54
   5   3 -11   12.69    2.65
  -5   4  10    9.12    2.45
   5  -4 -10    7.11    2.28
  -5   3  10    7.30    2.06
   5  -3 -10    2.91    1.29
   5  -3 -10   -0.22    1.56
  -5   2  10    7.71    2.07
   5  -2 -10    7.00    1.47
   5  -2 -10    6.66    2.01
  -5   1  10    5.52    1.07
  -5   1  10    4.76    1.88
   5  -1 -10    5.05    1.21
  -5   0  10   -0.42    1.00
  -5   0  10   -0.28    0.68
   5   0 -10   -0.72    1.03
  -5  -1  10    3.35    1.10
  -5  -1  10    5.35    1.74
   5   1 -10    4.79    1.86
   5   1 -10    3.20    1.83
  -5  -2  10    7.12    1.46
  -5  -2  10    7.18    2.12
   5   2 -10    4.91    1.76
   5   2 -10    9.33    2.45
  -5  -3  10    5.54    2.06
  -5  -3  10    5.82    1.43
   5   3 -10    0.29    1.28
   5   3 -10    4.01    2.28
  -5  -4  10    6.82    2.63
   5   4 -10   11.51    3.40
   5   4 -10   13.46    2.54
  -5   4   9   14.98    2.67
  -5   4   9   16.10    2.74
   5  -4  -9   21.65    2.44
   5  -4  -9   15.28    3.38
  -5   3   9   24.21    3.25
   5  -3  -9   12.78    2.73
   5  -3  -9   19.06    2.21
  -5   2   9    7.97    1.96
   5  -2  -9    8.25    2.03
   5  -2  -9    6.10    1.29
  -5   1   9    6.00    1.71
  -5   1   9    5.53    1.05
  -5   1   9    6.67    1.15
   5  -1  -9    3.80    1.34
   5  -1  -9    3.47    1.01
  -5   0   9    0.78    1.15
   5   0  -9   -0.28    0.49
   5   0  -9    0.97    1.24
  -5  -1   9    5.40    1.69
  -5  -1   9    3.61    1.04
   5   1  -9    5.22    1.85
   5   1  -9    2.90    1.46
  -5  -2   9    7.58    1.37
  -5  -2   9    5.94    1.74
   5   2  -9    6.16    1.77
   5   2  -9    6.23    2.07
  -5  -3   9   23.83    3.40
   5   3  -9   17.57    3.41
   5   3  -9   13.88    2.31
  -5  -4   9   11.26    2.78
   5   4  -9   17.99    3.62
   5   4  -9   12.42    2.18
  -5   5   8   14.47    2.70
  -5   5   8   21.09    3.15
  -5   5   8   20.49    3.17
   5  -5  -8   19.06    4.09
   5  -5  -8   18.63    2.66
  -5   4   8    4.71    1.74
  -5   4   8    7.34    1.89
  -5   4   8    2.40    1.24
   5  -4  -8    1.62    1.29
   5  -4  -8    2.11    1.91
  -5   3   8   22.91    2.51
  -5   3   8   15.54    2.46
  -5   3   8   15.25    2.00
   5  -3  -8   13.60    2.72
   5  -3  -8   13.41    1.71
  -5   2   8    1.72    1.20
   5  -2  -8    1.42    0.82
   5  -2  -8    2.30    1.30
  -5   1   8    2.84    1.35
  -5   1   8    2.57    0.74
   5  -1  -8    2.40    1.21
   5  -1  -8    4.04    1.24
   5  -1  -8    4.38    0.97
  -5   0   8    1.01    0.70
  -5   0   8   -0.26    0.89
   5   0  -8    0.81    1.17
   5   0  -8    0.48    0.58
   5   0  -8   -0.49    0.90
  -5  -1   8    2.94    0.92
  -5  -1   8    1.94    1.22
   5   1  -8    5.19    1.56
   5   1  -8    3.60    1.48
  -5  -2   8    2.11    1.22
  -5  -2   8    1.29    0.75
   5   2  -8    1.14    1.17
   5   2  -8    4.20    1.39
  -5  -3   8   16.02    2.64
   5   3  -8   18.24    2.37
   5   3  -8   18.09    3.13
  -5  -4   8    4.51    1.78
   5   4  -8    1.99    1.73
   5   4  -8    2.04    1.13
  -5  -5   8   20.61    3.51
   5   5  -8   18.59    2.39
   5   5  -8   15.54    3.43
  -5   5   7    7.20    1.94
  -5   5   7    7.22    2.03
  -5   5   7    2.02    1.42
   5  -5  -7    3.69    2.23
   5  -5  -7    7.81    1.80
  -5   4   7    7.17    1.88
  -5   4   7    8.80    1.97
  -5   4   7    7.37    1.62
   5  -4  -7    7.28    1.67
   5  -4  -7    5.53    2.16
  -5   3   7   15.88    1.99
  -5   3   7   14.15    2.06
  -5   3   7   13.69    2.23
   5  -3  -7   19.11    1.79
   5  -3  -7   19.63    2.25
   5  -3  -7   15.75    2.73
  -5   2   7   10.48    1.96
  -5   2   7   11.67    1.85
  -5   2   7   10.28    1.40
  -5   2   7    7.61    0.72
   5  -2  -7    7.94    1.19
   5  -2  -7    9.33    1.90
  -5   1   7    3.80    0.80
  -5   1   7    4.09    1.39
  -5   1   7    2.81    0.76
   5  -1  -7    3.05    1.18
   5  -1  -7    4.19    1.15
   5  -1  -7    2.32    0.77
  -5   0   7    0.20    0.89
  -5   0   7    0.11    0.57
   5   0  -7   -0.90    0.56
   5   0  -7    0.57    0.96
   5   0  -7    0.10    0.78
   5   0  -7   -0.64    0.42
  -5  -1   7    3.43    0.89
  -5  -1   7    4.84    1.43
   5   1  -7    3.90    1.20
   5   1  -7    3.05    1.28
  -5  -2   7    9.29    1.27
  -5  -2   7    7.57    1.62
   5   2  -7    8.95    2.13
   5   2  -7    9.42    1.73
  -5  -3   7   12.23    2.18
   5   3  -7   16.54    2.06
   5   3  -7   16.80    2.90
  -5  -4   7    8.25    2.07
   5   4  -7    4.78    1.21
   5   4  -7    6.34    2.42
  -5  -5   7    5.51    2.17
   5   5  -7    6.75    1.39
   5   5  -7    7.51    2.77
  -5   5   6    1.60    1.20
  -5   5   6    0.62    1.25
  -5   5   6    1.57    1.41
   5  -5  -6    6.10    2.44
  -5   4   6   22.23    2.79
  -5   4   6   23.75    2.76
  -5   4   6   18.38    2.43
   5  -4  -6   18.44    2.19
   5  -4  -6   22.84    3.62
  -5   3   6   11.67    1.93
  -5   3   6   10.93    1.78
  -5   3   6   10.45    1.66
   5  -3  -6   12.24    1.63
   5  -3  -6   13.88    2.40
   5  -3  -6   15.01    1.52
  -5   2   6    6.15    0.55
  -5   2   6    4.91    1.33
  -5   2   6    5.87    1.29
  -5   2   6    6.80    1.12
   5  -2  -6    3.93    1.31
   5  -2  -6    4.83    0.90
  -5   1   6    1.53    0.56
  -5   1   6    1.70    0.79
  -5   1   6    0.98    0.52
  -5   1   6    1.33    1.01
   5  -1  -6    1.27    0.90
   5  -1  -6    1.48    1.17
   5  -1  -6    0.54    0.55
   5  -1  -6    2.21    0.84
  -5   0   6   -0.17    0.64
  -5   0   6    0.11    0.50
   5   0  -6    0.05    0.29
   5   0  -6   -0.14    0.40
   5   0  -6   -0.03    0.67
   5   0  -6    0.06    0.74
  -5  -1   6    0.96    0.79
  -5  -1   6    1.77    0.66
   5   1  -6    2.89    1.02
   5   1  -6    1.26    0.96
  -5  -2   6    4.27    1.01
  -5  -2   6    5.11    1.39
   5   2  -6    3.73    1.35
   5   2  -6    4.19    1.14
  -5  -3   6   11.99    1.99
   5   3  -6   14.34    1.76
   5   3  -6   12.32    2.45
  -5  -4   6   23.41    3.08
   5   4  -6   21.49    3.32
   5   4  -6   21.09    1.89
  -5  -5   6    2.59    1.69
   5   5  -6    3.47    2.22
   5   5  -6    3.34    0.98
  -5   5   5    2.31    1.31
  -5   5   5    4.47    1.51
  -5   5   5    3.55    1.62
   5  -5  -5    3.51    1.95
  -5   4   5   25.11    2.55
  -5   4   5   23.33    2.44
  -5   4   5   23.56    2.46
   5  -4  -5   17.78    2.92
   5  -4  -5   24.33    1.96
  -5   3   5   32.99    2.51
  -5   3   5   31.82    2.72
  -5   3   5   34.62    2.65
   5  -3  -5   31.64    3.09
   5  -3  -5   30.89    2.11
   5  -3  -5   29.22    1.95
  -5   2   5   27.49    2.37
  -5   2   5   29.86    2.03
  -5   2   5   29.15    2.25
  -5   2   5   28.14    1.13
   5  -2  -5   34.50    1.88
   5  -2  -5   31.72    2.12
   5  -2  -5   32.43    2.73
  -5   1   5   16.52    1.24
  -5   1   5   17.88    1.24
  -5   1   5   20.77    1.70
  -5   1   5   18.65    1.23
  -5   1   5   15.91    1.77
   5  -1  -5   16.01    1.79
   5  -1  -5   15.71    1.27
   5  -1  -5   14.86    1.46
   5  -1  -5   20.07    2.01
  -5   0   5    0.50    0.62
  -5   0   5    0.01    0.46
  -5   0   5   -0.24    0.39
   5   0  -5   -0.36    0.55
   5   0  -5    0.42    0.66
   5   0  -5   -0.23    0.34
   5   0  -5    0.05    0.63
  -5  -1   5   17.83    1.33
  -5  -1   5   19.52    1.81
   5   1  -5   16.02    2.08
   5   1  -5   15.42    1.41
   5   1  -5   14.45    1.56
  -5  -2   5   25.37    2.24
   5   2  -5   30.28    2.87
   5   2  -5   29.86    2.02
  -5  -3   5   32.92    2.72
   5   3  -5   30.08    3.09
   5   3  -5   28.24    1.97
  -5  -4   5   23.60    3.00
   5   4  -5   23.51    3.32
   5   4  -5   24.88    1.79
  -5  -5   5    4.95    1.69
   5   5  -5    2.49    1.85
   5   5  -5    3.43    0.84
  -5   6   4   12.56    2.38
  -5   6   4   10.70    2.51
  -5   6   4   11.99    2.58
   5  -6  -4   11.01    3.15
  -5   5   4   21.00    2.93
  -5   5   4   23.55    3.02
  -5   5   4   22.15    2.75
   5  -5  -4   13.54    2.95
  -5   4   4   12.60    1.98
  -5   4   4   13.29    2.09
  -5   4   4   14.34    2.13
   5  -4  -4   10.76    2.27
  -5   3   4   14.65    1.97
  -5   3   4   12.62    1.77
  -5   3   4   11.60    1.70
   5  -3  -4    7.54    1.08
   5  -3  -4    7.89    1.76
  -5   2   4   22.51    1.94
  -5   2   4   23.98    2.00
  -5   2   4   22.01    1.76
   5  -2  -4   25.93    1.67
   5  -2  -4   27.44    2.39
   5  -2  -4   26.44    1.53
  -5   1   4   18.38    1.58
  -5   1   4   17.87    1.16
  -5   1   4   19.20    1.77
  -5   1   4   16.95    1.20
  -5   1   4   17.65    1.13
   5  -1  -4   16.73    1.45
   5  -1  -4   17.97    1.73
   5  -1  -4   16.37    1.19
   5  -1  -4   16.99    1.78
  -5   0   4    0.07    0.48
  -5   0   4   -0.21    0.33
   5   0  -4    0.24    0.51
   5   0  -4    0.23    0.54
   5   0  -4   -0.20    0.49
   5   0  -4    0.07    0.31
  -5  -1   4   16.25    1.11
  -5  -1   4   16.11    1.51
   5   1  -4   19.59    1.97
   5   1  -4   15.86    1.42
   5   1  -4   17.43    1.40
  -5  -2   4   19.40    1.76
   5   2  -4   21.97    1.54
   5   2  -4   25.03    2.40
  -5  -3   4   14.67    1.96
   5   3  -4    6.82    1.67
   5   3  -4    7.58    0.98
  -5  -4   4   12.80    2.08
   5   4  -4   15.20    1.23
   5   4  -4   15.31    2.24
   5   4  -4   15.35    2.66
  -5  -5   4   22.61    3.03
   5   5  -4   17.12    3.08
   5   5  -4   15.72    2.51
   5   5  -4   15.19    1.25
  -5  -6   4    8.45    2.56
   5   6  -4    8.52    2.35
  -5   6   3    6.53    1.92
  -5   6   3    4.01    1.48
  -5   6   3    4.06    1.75
   5  -6  -3    0.56    1.99
  -5   5   3   10.09    1.93
  -5   5   3   10.25    2.07
  -5   5   3   10.76    2.05
   5  -5  -3   17.85    3.16
  -5   4   3   18.22    2.37
  -5   4   3   13.72    1.92
  -5   4   3   14.65    2.05
   5  -4  -3   13.78    2.54
  -5   3   3   24.97    2.11
  -5   3   3   23.49    2.13
  -5   3   3   26.37    2.20
   5  -3  -3   25.52    2.53
   5  -3  -3   25.50    1.50
  -5   2   3   51.65    2.69
  -5   2   3   50.84    2.74
  -5   2   3   55.04    2.88
   5  -2  -3   48.73    2.11
   5  -2  -3   44.21    2.13
   5  -2  -3   43.60    2.95
  -5   1   3   73.56    2.93
  -5   1   3   72.64    3.34
  -5   1   3   75.16    3.37
  -5   1   3   73.79    2.68
  -5   1   3   75.48    2.71
   5  -1  -3   70.21    2.78
   5  -1  -3   71.37    3.50
   5  -1  -3   72.48    3.49
   5  -1  -3   73.84    2.91
  -5   0   3   -0.40    0.30
  -5   0   3    0.12    0.46
   5   0  -3    0.17    0.27
   5   0  -3    0.34    0.44
   5   0  -3    0.05    0.40
   5   0  -3    0.02    0.48
  -5  -1   3   77.70    3.25
   5   1  -3   69.05    2.99
   5   1  -3   65.62    2.97
   5   1  -3   65.26    3.51
  -5  -2   3   51.99    2.63
   5   2  -3   45.45    3.03
   5   2  -3   40.93    2.13
   5   2  -3   44.31    2.07
   5   2  -3   43.66    1.93
  -5  -3   3   24.86    2.13
   5   3  -3   26.58    1.82
   5   3  -3   25.30    1.71
   5   3  -3   26.71    2.18
   5   3  -3   28.66    1.46
   5   3  -3   21.90    2.55
  -5  -4   3   15.67    2.19
   5   4  -3   13.43    2.43
   5   4  -3   12.50    2.00
   5   4  -3    9.85    0.88
  -5  -5   3   13.64    2.42
   5   5  -3   12.48    2.15
   5   5  -3   12.58    2.50
   5   5  -3   14.61    0.97
  -5  -6   3    8.27    2.38
   5   6  -3    5.62    1.95
  -5   6   2    4.98    1.94
  -5   6   2    8.08    1.76
  -5   6   2    3.55    1.79
   5  -6  -2    5.62    2.37
  -5   5   2   23.00    2.60
  -5   5   2   20.68    2.71
  -5   5   2   23.28    2.49
   5  -5  -2   32.60    3.73
  -5   4   2    9.45    1.72
  -5   4   2   10.15    1.73
  -5   4   2    7.40    1.57
   5  -4  -2    6.61    1.74
  -5   3   2   39.95    2.78
  -5   3   2   43.57    2.73
  -5   3   2   37.75    2.61
   5  -3  -2   42.25    1.78
   5  -3  -2   47.20    3.18
  -5   2   2   22.56    1.67
  -5   2   2   20.24    1.66
  -5   2   2   19.84    1.68
   5  -2  -2   18.16    1.08
   5  -2  -2   18.02    1.80
   5  -2  -2   17.51    1.09
  -5   1   2   20.47    1.39
  -5   1   2   21.91    1.06
  -5   1   2   23.56    1.56
  -5   1   2   20.51    1.10
  -5   1   2   20.19    1.56
   5  -1  -2   25.74    1.29
   5  -1  -2   26.35    1.29
   5  -1  -2   26.64    1.86
  -5   0   2   -0.17    0.28
  -5   0   2    0.35    0.42
   5   0  -2   -0.08    0.34
   5   0  -2   -0.41    0.38
   5   0  -2   -0.32    0.20
  -5  -1   2   20.23    1.40
   5   1  -2   24.73    1.54
   5   1  -2   26.45    1.92
   5   1  -2   23.96    1.44
  -5  -2   2   23.41    1.59
   5   2  -2   19.73    1.51
   5   2  -2   18.74    1.09
   5   2  -2   16.84    1.16
   5   2  -2   18.76    1.86
  -5  -3   2   48.82    2.82
   5   3  -2   40.70    3.10
   5   3  -2   48.20    2.79
   5   3  -2   44.29    1.81
   5   3  -2   44.24    2.38
   5   3  -2   43.54    1.71
  -5  -4   2   10.49    1.80
   5   4  -2    4.75    1.55
   5   4  -2    4.78    1.26
   5   4  -2    6.67    1.26
  -5  -5   2   23.65    2.74
   5   5  -2   30.61    2.83
  -5   6   1    4.15    1.81
  -5   6   1    8.11    1.64
  -5   6   1    8.58    2.28
  -5   5   1   25.05    2.79
  -5   5   1   27.51    3.19
  -5   5   1   28.41    2.53
   5  -5  -1   23.76    3.37
  -5   4   1   30.07    2.45
  -5   4   1   26.03    2.60
  -5   4   1   28.48    2.54
   5  -4  -1   36.80    3.17
  -5   3   1   68.41    3.52
  -5   3   1   74.03    3.86
  -5   3   1   76.96    3.69
   5  -3  -1   60.44    3.77
  -5   2   1   49.48    2.60
  -5   2   1   47.65    2.74
  -5   2   1   49.26    2.82
   5  -2  -1   57.91    3.05
   5  -2  -1   56.75    2.01
   5  -2  -1   59.07    2.07
  -5   1   1   15.44    1.09
  -5   1   1   14.50    1.28
  -5   1   1   14.30    1.14
  -5   1   1   15.44    0.74
   5  -1  -1   14.06    1.40
   5  -1  -1   12.38    0.88
   5  -1  -1   13.99    0.87
  -5   0   1    0.06    0.36
  -5   0   1   -0.11    0.21
   5   0  -1    0.21    0.51
   5   0  -1   -0.08    0.23
   5   0  -1   -0.26    0.34
  -5  -1   1   14.47    0.94
   5   1  -1   10.88    1.04
   5   1  -1   12.45    0.94
   5   1  -1   14.07    1.30
  -5  -2   1   51.89    2.55
   5   2  -1   58.52    2.45
   5   2  -1   56.44    2.12
   5   2  -1   59.46    2.06
   5   2  -1   58.97    3.17
   5   2  -1   60.64    2.65
  -5  -3   1   74.18    3.37
   5   3  -1   64.37    3.65
   5   3  -1   60.91    3.14
   5   3  -1   62.73    3.08
   5   4  -1   34.81    2.57
   5   4  -1   36.06    2.88
   5   4  -1   33.96    2.48
  -5  -5   1   32.43    2.95
   5   5  -1   24.25    2.70
   5   5  -1   19.90    2.54
  -5   6   0   23.13    3.34
  -5   6   0   21.06    3.15
  -5   6   0   18.96    2.28
  -5   5   0    2.46    1.32
  -5   5   0    0.91    0.87
  -5   5   0    1.64    1.20
   5  -5   0    2.17    1.42
  -5   4   0   44.73    2.81
  -5   4   0   43.94    3.03
  -5   4   0   45.68    3.37
   5  -4   0   44.85    3.44
  -5   3   0    9.65    1.62
  -5   3   0   10.58    1.43
  -5   3   0   10.48    1.45
   5  -3   0   11.49    1.71
  -5   2   0   41.40    2.50
  -5   2   0   43.87    2.36
  -5   2   0   39.09    2.20
   5  -2   0   44.71    1.62
   5  -2   0   41.00    2.47
   5  -2   0   42.80    1.68
  -5   1   0    3.34    0.69
  -5   1   0    2.34    0.57
  -5   1   0    2.75    0.31
  -5   1   0    2.79    0.55
   5  -1   0    2.52    0.75
   5  -1   0    2.63    0.41
   5  -1   0    3.11    0.51
  -5   0   0   -0.15    0.25
   5   0   0    0.10    0.41
   5   0   0    0.08    0.48
   5   1   0    2.80    0.68
   5   1   0    2.58    0.43
   5   2   0   42.49    1.55
   5   2   0   41.23    2.37
   5   2   0   40.92    1.56
   5   2   0   41.94    2.05
   5   2   0   43.50    2.01
   5   3   0   10.94    1.26
   5   3   0   10.32    0.56
   5   3   0   10.61    1.36
   5   3   0   10.88    1.58
   5   3   0   11.30    0.58
   5   4   0   47.14    2.98
   5   4   0   43.61    3.12
   5   4   0   45.39    2.85
  -5  -5   0    2.14    1.31
   5   5   0    2.62    1.27
   5   5   0    1.14    0.99
   5   6   0   18.91    2.70
  -5   6  -1    9.39    1.59
  -5   6  -1    7.27    2.14
  -5   6  -1    8.87    2.12
  -5   5  -1   23.26    3.03
  -5   5  -1   18.68    1.98
  -5   5  -1   24.31    2.75
  -5   4  -1   40.48    3.29
  -5   4  -1   36.04    2.76
  -5   4  -1   33.89    2.31
   5  -4   1   27.39    2.66
  -5   3  -1   57.44    3.62
  -5   3  -1   65.43    3.16
  -5   3  -1   64.92    3.39
   5  -3   1   70.94    3.62
  -5   2  -1   56.72    2.65
  -5   2  -1   55.42    2.68
  -5   2  -1   59.12    3.02
   5  -2   1   54.77    2.88
   5  -2   1   52.47    2.07
   5  -2   1   54.22    1.96
  -5   1  -1   13.10    1.07
  -5   1  -1   12.80    0.65
  -5   1  -1   13.26    0.98
  -5   1  -1   12.62    1.16
   5  -1   1   14.55    0.81
   5  -1   1   14.93    0.93
   5  -1   1   14.40    1.30
  -5   0  -1    0.47    0.31
  -5   0  -1    0.59    0.41
  -5   0  -1   -0.06    0.16
   5   0   1   -0.07    0.33
   5   0   1    0.07    0.29
  -5  -1  -1   11.02    1.01
   5   1   1   14.89    0.89
  -5  -2  -1   57.18    2.70
   5   2   1   48.64    2.41
   5   2   1   51.94    2.20
   5   2   1   53.43    2.01
   5   2   1   51.27    2.00
  -5  -3  -1   60.98    3.39
   5   3   1   69.93    2.50
   5   3   1   76.30    2.56
   5   3   1   75.16    3.46
  -5  -4  -1   29.73    2.32
   5   4   1   27.39    2.10
   5   4   1   26.42    1.32
   5   4   1   26.48    2.32
  -5  -5  -1   22.22    3.03
   5   5   1   24.20    2.84
   5   5   1   25.87    1.48
  -5  -6  -1   11.00    2.52
   5   6   1    7.59    1.91
  -5   6  -2    2.70    1.00
  -5   6  -2    0.43    1.66
  -5   6  -2    3.43    1.07
  -5   6  -2    1.40    1.50
  -5   5  -2   32.04    3.36
  -5   5  -2   30.83    2.95
  -5   5  -2   26.22    2.21
  -5   4  -2    6.00    1.60
  -5   4  -2    6.33    1.12
  -5   4  -2    5.62    1.30
  -5   3  -2   55.78    2.77
  -5   3  -2   44.82    3.15
  -5   3  -2   44.15    2.86
  -5   3  -2   45.82    2.53
   5  -3   2   43.43    2.77
  -5   2  -2   19.75    1.57
  -5   2  -2   21.80    1.39
  -5   2  -2   16.30    1.41
  -5   2  -2   21.55    1.85
   5  -2   2   23.58    1.24
   5  -2   2   21.67    1.73
   5  -2   2   25.91    1.12
  -5   1  -2   25.55    1.05
  -5   1  -2   26.86    1.73
  -5   1  -2   28.82    1.57
  -5   1  -2   27.27    1.47
  -5   1  -2   26.55    1.49
  -5   1  -2   27.07    1.45
   5  -1   2   25.41    1.33
   5  -1   2   22.68    1.50
   5  -1   2   24.34    1.21
  -5   0  -2    0.00    0.16
  -5   0  -2    0.02    0.27
  -5   0  -2    0.15    0.39
   5   0   2   -0.09    0.19
   5   0   2   -0.05    0.28
  -5  -1  -2   26.68    1.51
  -5  -1  -2   26.57    1.23
   5   1   2   21.90    1.31
  -5  -2  -2   17.42    1.42
   5   2   2   21.56    1.19
   5   2   2   22.93    1.28
   5   2   2   21.02    1.21
  -5  -3  -2   43.20    2.50
   5   3   2   43.57    2.26
   5   3   2   42.38    2.58
   5   3   2   40.01    1.89
  -5  -4  -2    8.58    1.43
   5   4   2    7.82    1.46
   5   4   2    8.81    1.37
   5   4   2    7.69    0.90
  -5  -5  -2   24.05    3.23
   5   5   2   23.70    2.77
   5   5   2   22.80    1.61
  -5  -6  -2    3.79    1.78
   5   6   2    7.09    1.07
   5   6   2    5.15    1.82
  -5   6  -3    4.68    1.16
  -5   6  -3    5.29    2.07
  -5   6  -3    3.92    1.83
  -5   5  -3   13.73    1.72
  -5   5  -3   16.82    2.61
  -5   5  -3   14.04    2.62
  -5   4  -3   10.41    2.03
  -5   4  -3   13.76    2.00
  -5   4  -3   11.89    1.46
  -5   4  -3   11.30    1.42
  -5   3  -3   25.72    1.82
  -5   3  -3   26.28    1.89
  -5   3  -3   28.78    2.58
  -5   3  -3   28.70    2.31
  -5   2  -3   50.42    2.73
  -5   2  -3   47.69    2.47
  -5   2  -3   43.05    2.82
  -5   2  -3   45.73    2.44
   5  -2   3   54.66    2.54
   5  -2   3   54.44    2.18
  -5   1  -3   71.44    2.99
  -5   1  -3   71.35    3.04
  -5   1  -3   70.67    2.43
  -5   1  -3   72.10    3.34
  -5   1  -3   73.51    3.06
   5  -1   3   76.04    3.09
   5  -1   3   73.40    2.66
  -5   0  -3    0.39    0.36
  -5   0  -3   -0.05    0.43
  -5   0  -3   -0.04    0.20
  -5   0  -3   -0.14    0.32
   5   0   3    0.49    0.29
   5   0   3    0.24    0.32
   5   0   3   -0.20    0.22
  -5  -1  -3   67.96    2.93
  -5  -1  -3   70.92    2.41
   5   1   3   70.43    2.67
   5   1   3   70.18    2.90
  -5  -2  -3   45.12    2.42
   5   2   3   52.76    2.17
   5   2   3   53.22    2.34
  -5  -3  -3   26.71    1.92
   5   3   3   25.34    1.69
   5   3   3   25.29    1.59
   5   3   3   22.72    1.96
   5   4   3   16.72    2.20
   5   4   3   13.64    1.28
  -5  -5  -3   15.94    2.82
   5   5   3   10.79    1.36
   5   5   3   12.23    2.17
  -5  -6  -3    2.67    1.80
   5   6   3    5.24    1.16
   5   6   3    7.39    2.02
  -5   6  -4   11.87    1.68
  -5   6  -4   11.97    2.84
  -5   6  -4   14.04    2.82
   5  -6   4   10.59    2.75
  -5   5  -4   16.51    2.91
  -5   5  -4   15.38    1.73
  -5   5  -4   12.93    2.38
  -5   4  -4   15.68    2.23
  -5   4  -4   13.89    2.38
  -5   4  -4   14.75    1.60
  -5   3  -4   10.08    1.40
  -5   3  -4    9.88    1.53
  -5   3  -4    7.53    1.57
  -5   3  -4    9.90    1.72
  -5   2  -4   28.43    2.24
  -5   2  -4   27.40    1.96
  -5   2  -4   24.42    1.72
  -5   2  -4   23.84    1.78
   5  -2   4   21.53    1.90
   5  -2   4   23.40    1.46
   5  -2   4   22.19    1.37
  -5   1  -4   18.21    0.95
  -5   1  -4   16.87    1.60
  -5   1  -4   17.05    1.40
  -5   1  -4   16.79    1.38
  -5   1  -4   16.56    1.17
   5  -1   4   18.43    1.45
   5  -1   4   18.19    1.15
  -5   0  -4    0.33    0.45
  -5   0  -4    0.27    0.26
  -5   0  -4    0.35    0.45
  -5   0  -4    0.23    0.57
   5   0   4    0.16    0.35
   5   0   4    0.07    0.27
   5   0   4   -0.02    0.39
  -5  -1  -4   16.31    1.33
  -5  -1  -4   15.90    0.93
   5   1   4   12.85    1.23
   5   1   4   16.10    1.14
  -5  -2  -4   26.37    1.38
  -5  -2  -4   25.99    1.75
   5   2   4   21.08    1.40
   5   2   4   21.42    1.60
  -5  -3  -4    9.28    1.32
   5   3   4   11.97    1.26
  -5  -4  -4   14.88    2.49
   5   4   4   10.79    1.76
   5   4   4   12.70    1.36
  -5  -5  -4   17.41    3.20
   5   5   4   19.46    1.80
   5   5   4   17.07    2.53
  -5  -6  -4    8.52    2.45
   5   6   4    8.89    2.17
   5   6   4   11.09    1.71
  -5   5  -5    4.35    1.95
  -5   5  -5    3.04    1.46
  -5   4  -5   24.01    2.06
  -5   4  -5   27.66    3.33
  -5   4  -5   28.13    2.78
   5  -4   5   26.89    2.90
  -5   3  -5   29.07    2.78
  -5   3  -5   30.21    2.59
  -5   3  -5   29.22    2.48
  -5   3  -5   25.58    2.07
   5  -3   5   33.25    2.80
  -5   2  -5   31.00    2.17
  -5   2  -5   31.98    2.31
  -5   2  -5   32.22    2.26
  -5   2  -5   31.67    2.51
   5  -2   5   29.61    2.29
   5  -2   5   29.17    1.70
  -5   1  -5   15.93    1.55
  -5   1  -5   17.79    1.82
  -5   1  -5   18.67    1.32
  -5   1  -5   16.64    1.61
  -5   1  -5   15.46    0.98
   5  -1   5   21.29    1.87
   5  -1   5   19.28    1.28
   5  -1   5   19.24    1.59
  -5   0  -5   -0.69    0.54
  -5   0  -5   -0.16    0.52
  -5   0  -5   -0.17    0.27
  -5   0  -5    0.17    0.47
   5   0   5   -0.08    0.31
   5   0   5   -0.40    0.17
   5   0   5   -0.20    0.50
  -5  -1  -5   15.83    1.51
  -5  -1  -5   16.13    1.09
   5   1   5   18.97    1.61
   5   1   5   19.39    1.45
   5   1   5   18.56    0.89
  -5  -2  -5   30.92    1.48
  -5  -2  -5   28.92    2.03
   5   2   5   27.57    2.02
   5   2   5   29.49    1.76
  -5  -3  -5   28.74    2.12
   5   3   5   29.54    2.10
  -5  -4  -5   21.36    2.81
   5   4   5   18.21    1.73
  -5  -5  -5    4.95    2.08
   5   5   5    4.36    1.14
  -5   5  -6    4.90    1.76
  -5   5  -6    4.69    1.27
  -5   5  -6    4.47    2.05
   5  -5   6    2.39    1.57
  -5   4  -6   21.14    2.98
  -5   4  -6   17.61    1.96
  -5   4  -6   19.84    2.89
  -5   4  -6   19.93    2.82
   5  -4   6   18.44    2.78
  -5   3  -6   15.18    2.19
  -5   3  -6   14.88    1.88
  -5   3  -6   12.69    2.09
  -5   3  -6   11.12    1.88
   5  -3   6    9.71    1.81
   5  -3   6   11.41    1.31
  -5   2  -6    4.70    1.15
  -5   2  -6    5.13    1.17
  -5   2  -6    4.61    1.24
  -5   2  -6    6.18    1.37
   5  -2   6    5.42    1.32
   5  -2   6    6.48    0.97
  -5   1  -6    0.86    0.62
  -5   1  -6    0.96    0.78
  -5   1  -6    1.81    0.46
  -5   1  -6    0.71    0.77
  -5   1  -6    1.42    0.76
   5  -1   6    1.99    0.85
   5  -1   6    1.36    0.57
  -5   0  -6    0.72    0.43
  -5   0  -6    0.41    0.81
  -5   0  -6   -0.19    0.55
  -5   0  -6    0.26    0.60
   5   0   6    0.02    0.39
   5   0   6   -0.24    0.52
   5   0   6    0.78    0.57
  -5  -1  -6    1.68    0.77
  -5  -1  -6    1.86    0.55
   5   1   6    1.17    0.67
   5   1   6    1.32    0.74
  -5  -2  -6    4.24    1.03
  -5  -2  -6    4.87    0.74
   5   2   6    6.22    1.16
  -5  -3  -6   13.29    2.23
  -5  -3  -6   11.68    1.65
   5   3   6   10.09    1.55
  -5  -4  -6   18.79    2.84
   5   4   6   21.95    2.05
  -5  -5  -6    3.17    1.86
   5   5   6    2.90    1.09
  -5   5  -7    5.29    1.43
  -5   5  -7    9.70    2.43
   5  -5   7    8.49    2.41
  -5   4  -7    5.21    1.88
  -5   4  -7    5.64    1.38
  -5   4  -7    6.33    1.87
  -5   4  -7    3.73    1.72
   5  -4   7    8.04    2.00
  -5   3  -7   20.49    2.33
  -5   3  -7   18.66    2.03
  -5   3  -7   13.77    2.23
  -5   3  -7   18.25    2.57
   5  -3   7   11.06    2.06
   5  -3   7   15.66    1.61
  -5   2  -7    7.71    1.62
  -5   2  -7    9.36    1.63
  -5   2  -7    9.29    1.80
   5  -2   7    9.33    1.74
   5  -2   7    9.69    1.26
  -5   1  -7    3.50    1.17
  -5   1  -7    3.48    1.13
  -5   1  -7    3.71    1.08
  -5   1  -7    3.28    0.63
   5  -1   7    2.28    0.72
   5  -1   7    4.56    1.21
  -5   0  -7    0.26    0.72
  -5   0  -7    0.02    0.89
  -5   0  -7   -0.16    0.39
   5   0   7   -0.06    0.45
   5   0   7    0.60    0.77
  -5  -1  -7    4.30    1.11
  -5  -1  -7    5.11    0.88
   5   1   7    3.76    1.10
   5   1   7    2.17    0.82
  -5  -2  -7    9.57    1.14
  -5  -2  -7    8.46    1.53
   5   2   7   11.89    1.81
  -5  -3  -7   19.52    2.78
  -5  -3  -7   15.32    1.94
   5   3   7   14.35    1.91
  -5  -4  -7    5.98    1.95
   5   4   7    7.31    1.53
  -5  -5  -7    9.05    2.68
   5   5   7    5.04    1.45
  -5   5  -8   12.36    2.86
  -5   5  -8   17.46    2.46
   5  -5   8   14.54    3.36
  -5   4  -8    3.15    1.25
  -5   4  -8    2.56    1.58
   5  -4   8    6.22    1.99
  -5   3  -8   14.98    2.35
  -5   3  -8   17.03    2.29
  -5   3  -8   15.70    2.40
   5  -3   8   15.27    1.66
   5  -3   8   17.26    2.74
  -5   2  -8    2.94    1.19
  -5   2  -8    2.07    1.08
  -5   2  -8    0.23    0.88
   5  -2   8    3.10    1.30
   5  -2   8    1.36    0.77
  -5   1  -8    5.07    0.77
  -5   1  -8    5.84    1.41
  -5   1  -8    3.64    1.22
  -5   1  -8    4.44    1.42
   5  -1   8    2.84    0.82
   5  -1   8    3.70    1.30
  -5   0  -8    0.20    0.49
  -5   0  -8   -0.49    1.00
  -5   0  -8   -0.44    0.68
   5   0   8   -0.03    0.86
   5   0   8   -0.53    0.48
  -5  -1  -8    3.43    1.21
  -5  -1  -8    4.36    0.90
  -5  -1  -8    3.74    1.55
  -5  -1  -8    2.73    0.98
   5   1   8    2.28    0.62
   5   1   8    4.37    1.21
   5   1   8    2.60    1.08
  -5  -2  -8    1.30    0.94
  -5  -2  -8    2.56    0.74
  -5  -2  -8    2.46    1.22
   5   2   8    1.69    0.92
  -5  -3  -8   18.63    2.90
   5   3   8   14.40    2.05
  -5  -4  -8    1.53    1.60
   5   4   8    2.17    1.11
  -5  -5  -8   15.32    3.33
   5   5   8   17.77    2.56
  -5   4  -9   17.11    2.43
  -5   4  -9   16.48    3.20
   5  -4   9   14.16    2.92
   5  -4   9   15.45    1.99
  -5   3  -9   17.01    2.79
   5  -3   9   18.16    2.00
   5  -3   9   20.47    3.00
  -5   2  -9    6.41    1.63
  -5   2  -9    7.98    1.99
  -5   2  -9   11.98    2.16
   5  -2   9    6.42    1.69
   5  -2   9    5.68    1.21
  -5   1  -9    4.39    1.52
  -5   1  -9    2.95    1.39
  -5   1  -9    2.92    0.78
   5  -1   9    6.04    1.58
   5  -1   9    5.08    1.07
  -5   0  -9    0.16    0.89
  -5   0  -9   -0.29    0.84
  -5   0  -9   -0.06    1.11
  -5   0  -9   -0.16    0.53
   5   0   9    0.04    0.96
   5   0   9    0.05    0.56
  -5  -1  -9    3.29    0.89
  -5  -1  -9    2.97    1.26
  -5  -1  -9    5.50    1.86
   5   1   9    6.91    0.94
  -5  -2  -9    8.22    1.23
  -5  -2  -9    8.81    1.90
  -5  -2  -9    8.27    1.63
   5   2   9    7.26    1.73
  -5  -3  -9   17.32    2.85
   5   3   9   16.71    2.34
  -5  -4  -9   17.20    3.18
   5   4   9   12.16    2.19
  -5   4 -10    9.74    2.08
  -5   4 -10   10.43    2.89
   5  -4  10    6.30    2.35
   5  -4  10    7.99    1.72
  -5   3 -10    3.65    1.93
  -5   3 -10    1.21    1.32
   5  -3  10    5.21    2.00
   5  -3  10    5.41    1.40
  -5   2 -10    9.31    2.23
   5  -2  10    2.43    1.55
   5  -2  10    8.15    1.45
  -5   1 -10    2.91    1.37
  -5   1 -10    2.83    1.43
   5  -1  10    5.58    1.20
   5  -1  10    5.13    1.72
  -5   0 -10   -1.73    0.53
  -5   0 -10   -1.05    0.99
  -5   0 -10    0.74    1.30
   5   0  10    0.36    0.63
   5   0  10   -0.54    1.02
  -5  -1 -10    3.88    0.98
  -5  -1 -10    4.45    1.85
  -5  -1 -10    3.58    1.46
  -5  -2 -10    9.18    1.40
  -5  -2 -10    6.95    1.87
  -5  -3 -10    4.64    1.81
  -5  -3 -10    2.98    1.01
   5   3  10    6.43    1.80
  -5  -4 -10    5.79    2.39
   5   4  10    7.14    2.02
  -5   3 -11   12.01    2.56
  -5   3 -11   10.65    2.62
   5  -3  11   10.61    1.86
   5  -3  11    8.08    2.58
  -5   2 -11   10.76    2.62
   5  -2  11   12.29    2.59
   5  -2  11   14.11    1.91
  -5   1 -11    1.00    1.48
   5  -1  11    3.37    1.74
   5  -1  11    2.50    1.10
  -5   0 -11   -0.01    0.71
  -5   0 -11    0.41    1.26
  -5   0 -11   -0.15    1.27
  -5  -1 -11    1.77    1.36
  -5  -1 -11    3.44    1.96
  -5  -1 -11    1.29    0.95
  -5  -2 -11   10.68    1.62
  -5  -2 -11   13.08    2.43
  -5  -2 -11   10.78    2.94
  -5  -3 -11   12.00    1.85
  -5   2 -12    4.44    2.11
   5  -2  12    3.68    1.44
   5  -2  12    7.63    2.50
  -5   1 -12   -1.68    1.07
   5  -1  12    1.65    1.06
  -5   0 -12    0.29    1.41
  -5   0 -12   -0.14    0.85
  -5  -1 -12    2.33    1.08
  -5  -1 -12   -0.86    1.64
  -5  -1 -12    0.73    1.44
  -5  -2 -12    5.41    2.66
  -5  -2 -12    7.35    2.73
  -6   2  12    6.90    2.34
  -6   1  12    4.87    2.14
  -6   1  12    4.14    1.12
   6  -1 -12    3.60    1.34
  -6   0  12   19.88    2.29
  -6   0  12   17.17    2.20
  -6   0  12   18.84    3.31
   6   0 -12   18.90    3.62
  -6  -1  12    4.94    2.11
  -6  -1  12    5.71    1.50
   6   1 -12    4.82    2.46
  -6  -2  12    5.03    2.26
  -6  -2  12    6.94    1.67
   6   2 -12    8.80    4.04
   6   2 -12    4.94    2.82
  -6   3  11   10.58    2.63
   6  -3 -11   12.45    3.11
  -6   2  11   27.13    3.68
   6  -2 -11   26.06    2.61
  -6   1  11    6.81    2.05
  -6   1  11    5.60    1.17
   6  -1 -11    8.91    1.56
  -6   0  11   40.41    2.86
  -6   0  11   41.27    2.84
  -6   0  11   41.65    4.04
   6   0 -11   37.02    4.08
  -6  -1  11    4.10    1.24
  -6  -1  11    4.82    1.95
   6   1 -11    5.82    2.34
  -6  -2  11   26.03    3.76
  -6  -2  11   25.13    2.58
   6   2 -11   30.49    4.08
   6   2 -11   24.48    4.24
  -6  -3  11   10.46    2.93
  -6  -3  11    9.75    1.88
   6   3 -11    7.58    2.83
   6   3 -11   10.71    2.65
  -6   3  10    9.27    2.41
   6  -3 -10   11.84    2.77
   6  -3 -10   11.89    1.91
  -6   2  10   15.88    2.70
   6  -2 -10   16.48    2.03
   6  -2 -10   12.46    2.62
  -6   1  10   71.49    5.02
  -6   1  10   62.27    3.27
   6  -1 -10   63.52    3.52
  -6   0  10   30.15    2.38
  -6   0  10   31.27    3.41
   6   0 -10   31.17    3.49
  -6  -1  10   57.51    4.54
  -6  -1  10   65.33    3.57
   6   1 -10   63.20    5.04
   6   1 -10   57.34    4.80
  -6  -2  10   17.75    3.02
  -6  -2  10   14.21    1.93
   6   2 -10   20.33    3.21
   6   2 -10   14.86    3.20
  -6  -3  10   13.22    1.94
  -6  -3  10   11.28    2.59
   6   3 -10    5.56    2.54
   6   3 -10   11.32    2.42
  -6   4   9   14.17    2.65
  -6   4   9   17.70    2.57
  -6   4   9   14.54    2.69
   6  -4  -9   13.28    2.14
   6  -4  -9   17.49    3.55
  -6   3   9   29.52    3.19
   6  -3  -9   32.74    2.73
   6  -3  -9   30.75    4.14
  -6   2   9   39.63    3.64
   6  -2  -9   42.91    2.82
   6  -2  -9   40.03    3.80
  -6   1   9   51.18    2.76
  -6   1   9   50.98    4.01
  -6   1   9   51.33    2.81
   6  -1  -9   50.47    2.98
  -6   0   9   39.19    3.53
   6   0  -9   42.09    3.66
   6   0  -9   37.13    2.13
  -6  -1   9   47.19    2.86
  -6  -1   9   46.32    3.72
   6   1  -9   45.99    3.99
   6   1  -9   43.96    4.03
  -6  -2   9   42.13    2.72
  -6  -2   9   41.63    3.77
   6   2  -9   41.38    4.23
   6   2  -9   42.73    3.70
  -6  -3   9   31.39    3.53
   6   3  -9   29.55    4.33
   6   3  -9   32.42    3.19
  -6  -4   9   16.34    3.30
   6   4  -9   16.16    2.48
   6   4  -9   18.57    3.84
  -6   4   8    2.07    1.35
  -6   4   8    2.78    1.27
  -6   4   8    0.03    1.23
   6  -4  -8    2.78    1.38
   6  -4  -8    0.17    1.56
  -6   3   8    4.84    1.23
  -6   3   8    7.48    1.72
  -6   3   8    7.36    1.88
   6  -3  -8    5.95    2.00
   6  -3  -8    3.66    1.09
  -6   2   8   44.84    2.35
  -6   2   8   43.60    3.50
   6  -2  -8   41.68    2.70
   6  -2  -8   44.53    3.79
  -6   1   8   38.61    2.28
  -6   1   8   40.76    3.41
  -6   1   8   46.24    2.42
   6  -1  -8   38.13    3.37
   6  -1  -8   36.92    3.04
   6  -1  -8   40.52    2.50
  -6   0   8  139.42    6.66
  -6   0   8  135.55    5.41
   6   0  -8  145.59    7.00
   6   0  -8  139.53    6.70
   6   0  -8  138.01    5.03
  -6  -1   8   38.47    3.29
  -6  -1   8   39.46    2.45
   6   1  -8   41.98    3.47
   6   1  -8   36.29    3.49
  -6  -2   8   40.75    3.46
  -6  -2   8   45.91    2.66
   6   2  -8   41.37    3.90
   6   2  -8   48.16    3.54
  -6  -3   8    7.71    1.98
   6   3  -8    7.80    1.63
   6   3  -8    0.73    1.64
  -6  -4   8    0.97    1.43
   6   4  -8    2.26    1.16
   6   4  -8    4.57    2.30
  -6   5   7   16.93    2.85
  -6   5   7   12.88    2.45
  -6   5   7   19.17    2.91
   6  -5  -7   15.94    3.63
   6  -5  -7   15.17    2.34
  -6   4   7   24.11    2.96
  -6   4   7   27.02    2.69
  -6   4   7   28.54    3.08
   6  -4  -7   21.94    2.56
   6  -4  -7   16.52    3.26
  -6   3   7   29.56    2.97
  -6   3   7   31.33    2.89
  -6   3   7   31.51    2.57
   6  -3  -7   30.65    3.46
   6  -3  -7   33.62    2.38
   6  -3  -7   34.49    2.72
  -6   2   7   56.76    2.97
  -6   2   7   50.40    3.64
  -6   2   7   52.59    3.43
  -6   2   7   53.92    2.16
   6  -2  -7   42.38    3.60
   6  -2  -7   47.59    2.79
  -6   1   7  101.47    4.01
  -6   1   7  100.62    4.06
  -6   1   7  101.83    5.39
   6  -1  -7  101.38    4.95
   6  -1  -7  101.20    4.22
   6  -1  -7  102.85    5.34
  -6   0   7  111.67    5.61
  -6   0   7  118.66    4.62
   6   0  -7  118.00    4.30
   6   0  -7  115.19    5.65
   6   0  -7  112.42    5.75
  -6  -1   7   96.51    5.02
  -6  -1   7   97.44    4.01
   6   1  -7   92.60    5.33
   6   1  -7   95.62    4.97
  -6  -2   7   52.02    2.66
  -6  -2   7   47.79    3.53
   6   2  -7   50.63    3.38
   6   2  -7   47.61    3.98
  -6  -3   7   30.74    3.09
   6   3  -7   33.84    2.66
   6   3  -7   33.04    3.80
  -6  -4   7   22.73    3.14
   6   4  -7   18.90    3.37
   6   4  -7   19.45    2.12
  -6  -5   7   12.55    2.93
   6   5  -7   13.48    1.84
   6   5  -7   14.49    3.54
  -6   5   6    1.78    1.36
  -6   5   6    3.11    1.40
  -6   5   6    3.85    1.52
   6  -5  -6    0.47    1.91
   6  -5  -6    1.87    1.21
  -6   4   6    1.28    0.92
  -6   4   6    1.36    1.20
  -6   4   6    1.96    1.22
   6  -4  -6    1.51    1.03
   6  -4  -6    2.03    1.77
  -6   3   6   42.87    2.88
  -6   3   6   38.30    3.05
  -6   3   6   40.48    3.06
   6  -3  -6   38.64    2.68
   6  -3  -6   39.02    3.66
   6  -3  -6   33.63    2.31
  -6   2   6   28.79    2.49
  -6   2   6   30.13    2.65
  -6   2   6   30.84    2.13
  -6   2   6   30.78    1.40
   6  -2  -6   29.29    2.03
   6  -2  -6   29.41    2.87
  -6   1   6  148.96    5.06
  -6   1   6  136.46    6.22
  -6   1   6  136.29    4.94
  -6   1   6  138.58    5.82
  -6   1   6  142.27    4.96
   6  -1  -6  131.17    5.08
   6  -1  -6  136.57    6.19
   6  -1  -6  132.95    5.69
  -6   0   6  165.38    7.00
  -6   0   6  164.72    5.93
   6   0  -6  177.87    7.00
   6   0  -6  165.26    7.07
   6   0  -6  173.46    5.73
   6   0  -6  164.38    6.93
  -6  -1   6  144.31    5.08
  -6  -1   6  139.12    6.08
   6   1  -6  131.59    5.85
   6   1  -6  139.73    6.79
   6   1  -6  126.87    6.31
  -6  -2   6   33.37    2.74
   6   2  -6   29.11    3.01
   6   2  -6   25.80    2.26
  -6  -3   6   38.45    3.18
   6   3  -6   41.09    3.79
   6   3  -6   39.27    2.63
  -6  -4   6    1.88    1.27
   6   4  -6    1.82    0.83
   6   4  -6    3.91    1.93
  -6  -5   6    3.16    1.74
   6   5  -6    1.74    1.90
   6   5  -6    2.13    0.93
  -6   5   5    9.27    2.07
  -6   5   5    8.95    1.95
  -6   5   5    8.91    1.95
   6  -5  -5    6.54    2.57
  -6   4   5   16.94    2.45
  -6   4   5   19.81    2.57
   6  -4  -5   17.96    1.86
   6  -4  -5   20.79    3.43
  -6   3   5   41.52    3.14
  -6   3   5   34.64    2.69
  -6   3   5   44.32    3.09
   6  -3  -5   42.50    2.51
   6  -3  -5   37.65    3.48
   6  -3  -5   43.72    2.38
  -6   2   5   90.91    4.57
  -6   2   5   87.25    4.40
  -6   2   5   92.05    4.00
   6  -2  -5   87.82    4.81
   6  -2  -5   90.62    3.72
   6  -2  -5   89.48    3.94
  -6   1   5   85.30    3.37
  -6   1   5   84.78    4.33
  -6   1   5   89.97    4.18
  -6   1   5   85.94    3.39
  -6   1   5   87.13    3.38
   6  -1  -5   82.29    3.46
   6  -1  -5   88.17    4.48
   6  -1  -5   84.41    3.89
   6  -1  -5   90.62    4.49
  -6   0   5  124.08    5.58
  -6   0   5  125.02    4.75
   6   0  -5  132.11    4.58
   6   0  -5  141.81    5.85
   6   0  -5  135.72    5.69
   6   0  -5  139.67    5.76
  -6  -1   5   82.46    4.07
   6   1  -5   79.00    3.67
   6   1  -5   78.63    4.42
   6   1  -5   83.14    3.96
  -6  -2   5   88.81    4.44
   6   2  -5   85.28    5.00
   6   2  -5   87.30    3.99
  -6  -3   5   40.06    2.99
   6   3  -5   38.05    2.37
   6   3  -5   39.60    3.52
  -6  -4   5   17.78    2.61
   6   4  -5   17.98    1.62
   6   4  -5   21.40    3.31
  -6  -5   5   10.09    2.31
   6   5  -5    3.74    2.04
   6   5  -5    6.69    1.13
  -6   6   4    5.57    1.99
  -6   6   4    9.01    2.38
   6  -6  -4   10.67    3.07
  -6   5   4   12.79    2.42
  -6   5   4   11.70    2.20
  -6   5   4   10.76    2.19
   6  -5  -4   12.89    3.04
  -6   4   4   13.11    2.04
  -6   4   4   15.57    2.19
  -6   4   4   13.89    2.12
   6  -4  -4   13.15    2.59
   6  -4  -4   14.45    1.53
  -6   3   4   28.91    2.39
  -6   3   4   25.99    2.35
   6  -3  -4   26.75    1.87
   6  -3  -4   27.35    2.89
   6  -3  -4   28.99    1.81
  -6   2   4   71.02    3.74
  -6   2   4   71.01    3.43
  -6   2   4   75.87    3.79
  -6   2   4   72.67    2.32
   6  -2  -4   73.05    3.21
   6  -2  -4   69.91    3.03
   6  -2  -4   74.83    4.15
  -6   1   4  100.53    3.68
  -6   1   4  103.65    3.71
  -6   1   4  100.60    3.78
  -6   1   4  103.62    4.63
  -6   1   4  105.78    4.50
   6  -1  -4  102.94    4.77
   6  -1  -4  102.43    3.96
   6  -1  -4   98.65    4.12
   6  -1  -4  101.09    3.83
   6  -1  -4  101.42    4.66
  -6   0   4  164.54    5.90
  -6   0   4  177.43    6.73
   6   0  -4  178.62    6.82
   6   0  -4  171.63    5.71
   6   0  -4  187.48    6.82
   6   0  -4  183.78    6.84
  -6  -1   4  101.00    4.45
  -6  -1   4  101.31    3.65
   6   1  -4   99.64    4.91
   6   1  -4  106.00    4.26
   6   1  -4   99.93    4.32
  -6  -2   4   69.97    3.54
   6   2  -4   65.08    4.15
   6   2  -4   70.59    3.19
  -6  -3   4   24.22    2.26
   6   3  -4   28.92    1.79
   6   3  -4   27.04    2.85
  -6  -4   4   19.39    2.56
   6   4  -4   15.28    2.75
   6   4  -4   13.58    1.24
  -6  -5   4   11.15    2.25
   6   5  -4   15.49    2.87
   6   5  -4   11.45    1.17
   6   5  -4   12.39    2.31
  -6  -6   4    7.96    3.25
   6   6  -4    9.12    3.67
  -6   6   3   13.15    2.59
  -6   6   3    9.87    2.34
   6  -6  -3   11.88    3.10
  -6   5   3    3.41    1.54
  -6   5   3    5.53    1.53
  -6   5   3    6.84    1.90
   6  -5  -3    7.25    2.32
  -6   4   3   10.72    1.82
  -6   4   3   14.86    2.10
  -6   4   3   15.34    2.17
   6  -4  -3   10.29    2.24
  -6   3   3   31.49    2.44
  -6   3   3   28.72    2.34
  -6   3   3   26.32    2.32
   6  -3  -3   30.94    1.75
   6  -3  -3   28.58    2.79
  -6   2   3   11.62    1.54
  -6   2   3   13.99    1.77
  -6   2   3   10.76    1.34
   6  -2  -3    8.64    1.45
   6  -2  -3    8.07    0.93
   6  -2  -3    9.47    1.03
  -6   1   3  179.86    6.83
  -6   1   3  189.07    6.10
  -6   1   3  190.35    6.33
  -6   1   3  189.19    6.07
  -6   1   3  192.94    6.91
   6  -1  -3  189.60    6.30
   6  -1  -3  187.21    7.27
   6  -1  -3  200.91    7.10
   6  -1  -3  194.23    6.28
  -6   0   3   41.40    2.39
  -6   0   3   41.27    2.02
   6   0  -3   44.87    1.85
   6   0  -3   50.81    2.63
   6   0  -3   46.32    2.55
   6   0  -3   41.40    2.54
  -6  -1   3  184.45    6.56
   6   1  -3  197.54    6.63
   6   1  -3  183.08    7.08
   6   1  -3  168.67    6.42
  -6  -2   3   12.07    1.32
   6   2  -3    9.44    1.68
   6   2  -3   10.91    0.84
   6   2  -3   11.17    1.07
   6   2  -3    8.41    1.07
  -6  -3   3   34.45    2.50
   6   3  -3   31.35    2.97
   6   3  -3   37.14    1.84
   6   3  -3   35.70    2.56
  -6  -4   3   13.26    2.03
   6   4  -3   12.83    2.03
   6   4  -3   11.94    2.20
   6   4  -3   10.06    0.94
  -6  -5   3    6.99    1.85
   6   5  -3    6.54    1.71
   6   5  -3    8.74    2.14
  -6   6   2   12.25    2.65
  -6   6   2   14.55    2.40
  -6   6   2   12.74    2.49
   6  -6  -2   10.27    2.93
  -6   5   2   22.39    2.91
  -6   5   2   23.73    2.79
  -6   5   2   22.09    2.84
   6  -5  -2   25.27    3.70
  -6   4   2    9.44    1.66
  -6   4   2    7.39    1.59
  -6   4   2    9.34    1.71
   6  -4  -2   10.50    2.24
  -6   3   2   33.33    2.60
  -6   3   2   39.77    2.77
  -6   3   2   36.17    2.56
   6  -3  -2   37.64    3.01
   6  -3  -2   37.86    1.81
  -6   2   2    8.34    1.29
  -6   2   2    9.07    1.39
  -6   2   2    7.87    1.23
   6  -2  -2   10.66    1.63
   6  -2  -2    8.01    0.83
   6  -2  -2    8.69    0.85
  -6   1   2    0.55    0.33
  -6   1   2    0.16    0.22
  -6   1   2    0.38    0.48
  -6   1   2    0.24    0.42
  -6   1   2    0.62    0.42
   6  -1  -2    1.60    0.74
   6  -1  -2    1.50    0.46
   6  -1  -2    0.91    0.37
   6  -1  -2    0.96    0.58
  -6   0   2   13.71    1.04
  -6   0   2   13.32    1.17
  -6   0   2   12.57    0.88
   6   0  -2   16.23    1.36
   6   0  -2   14.31    0.86
   6   0  -2   14.74    1.44
   6   0  -2   15.87    1.30
  -6  -1   2    0.10    0.34
   6   1  -2    1.24    0.49
   6   1  -2    1.64    0.68
   6   1  -2    0.38    0.41
  -6  -2   2    8.99    1.04
   6   2  -2    8.29    0.89
   6   2  -2    9.39    1.61
   6   2  -2    8.22    0.81
  -6  -3   2   36.56    2.46
   6   3  -2   40.82    2.99
   6   3  -2   36.34    2.12
   6   3  -2   36.36    1.69
   6   3  -2   37.70    1.73
   6   3  -2   39.84    2.56
  -6  -4   2    9.41    1.68
   6   4  -2    8.08    1.88
   6   4  -2    9.34    1.61
   6   4  -2    9.76    0.76
   6   4  -2   10.49    0.67
  -6  -5   2   23.36    2.90
   6   5  -2   18.40    2.47
   6   5  -2   18.94    2.80
  -6   6   1    8.02    1.67
  -6   6   1    6.09    2.02
  -6   6   1    5.90    1.89
  -6   5   1   17.62    2.72
  -6   5   1   15.36    2.37
  -6   5   1   15.34    2.15
   6  -5  -1   14.41    2.74
  -6   4   1    8.14    1.56
  -6   4   1    8.64    1.72
  -6   4   1    5.72    1.38
   6  -4  -1    9.19    1.96
  -6   3   1   14.02    1.63
  -6   3   1   13.12    1.79
  -6   3   1   13.62    1.74
   6  -3  -1    8.83    1.64
   6  -3  -1   10.77    0.89
  -6   2   1   25.52    2.01
  -6   2   1   24.93    1.80
  -6   2   1   25.49    2.01
   6  -2  -1   28.52    1.41
   6  -2  -1   27.24    2.15
   6  -2  -1   27.35    1.35
  -6   1   1    0.75    0.25
  -6   1   1    0.38    0.40
  -6   1   1    0.40    0.35
  -6   1   1    0.90    0.47
  -6   1   1    1.57    0.63
   6  -1  -1    0.45    0.32
   6  -1  -1    0.39    0.37
   6  -1  -1    1.05    0.62
  -6   0   1   73.12    2.87
  -6   0   1   69.63    2.71
  -6   0   1   68.79    2.53
   6   0  -1   74.37    3.03
   6   0  -1   74.22    3.37
  -6  -1   1    1.08    0.39
   6   1  -1    0.37    0.47
   6   1  -1    0.46    0.35
   6   1  -1    0.29    0.41
  -6  -2   1   25.56    1.58
   6   2  -1   26.76    2.07
   6   2  -1   28.26    1.31
   6   2  -1   25.81    1.47
   6   2  -1   26.74    1.36
  -6  -3   1   13.01    1.40
   6   3  -1   10.55    1.38
   6   3  -1   11.48    1.83
   6   3  -1   11.20    1.34
   6   3  -1    9.63    0.71
  -6  -4   1    5.89    1.37
   6   4  -1    9.87    1.85
   6   4  -1   10.29    1.57
   6   4  -1   12.39    1.65
   6   5  -1   15.65    2.44
  -6   6   0   30.24    3.87
  -6   6   0   26.52    2.59
  -6   6   0   30.88    3.54
  -6   5   0   22.00    3.10
  -6   5   0   18.91    2.62
  -6   5   0   19.25    2.12
   6  -5   0   16.92    2.84
  -6   4   0   31.70    2.44
  -6   4   0   29.58    2.50
  -6   4   0   30.04    2.89
   6  -4   0   27.91    2.85
  -6   3   0   38.77    2.58
  -6   3   0   39.36    2.93
  -6   3   0   38.63    2.59
   6  -3   0   41.10    2.88
   6  -3   0   42.75    1.76
  -6   2   0    9.02    1.28
  -6   2   0    8.80    1.31
  -6   2   0    9.85    1.10
   6  -2   0    9.99    0.84
   6  -2   0   10.21    1.48
   6  -2   0   10.17    0.76
  -6   1   0    2.91    0.57
  -6   1   0    2.17    0.62
  -6   1   0    2.45    0.33
  -6   1   0    2.53    0.51
  -6   1   0    2.00    0.59
   6  -1   0    2.87    0.52
   6  -1   0    1.60    0.64
   6  -1   0    2.12    0.42
  -6   0   0    0.04    0.20
  -6   0   0    0.25    0.34
  -6   0   0    0.34    0.31
   6   0   0    0.02    0.32
   6   0   0   -0.10    0.34
   6   1   0    2.49    0.47
   6   1   0    2.47    0.66
  -6  -2   0   10.14    0.91
   6   2   0    9.68    0.90
   6   2   0    9.18    0.71
   6   2   0   10.34    0.73
   6   2   0   12.43    1.55
   6   3   0   38.59    2.32
   6   3   0   40.48    1.54
   6   3   0   42.96    2.83
   6   4   0   30.34    2.39
   6   4   0   32.46    2.42
  -6  -5   0   19.54    2.70
   6   5   0   17.71    2.37
  -6   6  -1    0.74    1.51
  -6   6  -1    5.47    1.84
  -6   6  -1    2.62    1.17
  -6   5  -1   13.23    2.42
  -6   5  -1   14.85    2.42
  -6   5  -1   14.35    1.87
  -6   4  -1   10.84    1.96
  -6   4  -1    9.71    1.58
   6  -4   1    7.15    1.63
  -6   3  -1   10.35    1.55
  -6   3  -1   10.50    1.76
  -6   3  -1   11.92    1.49
   6  -3   1   15.29    1.95
  -6   2  -1   25.92    1.80
  -6   2  -1   29.57    2.14
  -6   2  -1   28.85    1.87
   6  -2   1   26.31    2.07
   6  -2   1   27.64    1.47
   6  -2   1   26.89    1.31
  -6   1  -1    0.31    0.32
  -6   1  -1    0.69    0.24
  -6   1  -1    0.88    0.38
  -6   1  -1    0.27    0.42
  -6   1  -1    0.71    0.47
   6  -1   1    0.70    0.35
   6  -1   1    0.75    0.32
   6  -1   1   -0.10    0.45
  -6   0  -1   67.41    2.62
  -6   0  -1   71.00    2.87
  -6   0  -1   70.83    2.43
   6   0   1   72.55    2.83
   6   0   1   70.41    3.05
  -6  -1  -1    0.22    0.39
   6   1   1    0.23    0.28
  -6  -2  -1   25.64    1.79
   6   2   1   25.12    1.28
   6   2   1   25.92    1.28
   6   2   1   25.65    1.37
  -6  -3  -1    8.10    1.39
   6   3   1   13.50    0.90
   6   3   1   13.97    0.88
   6   3   1   13.90    1.26
   6   3   1   12.58    1.51
  -6  -4  -1    9.48    1.68
   6   4   1    8.47    1.52
   6   4   1    7.22    0.71
  -6  -5  -1   10.88    2.25
   6   5   1   13.08    2.03
   6   5   1   12.91    1.03
  -6  -6  -1    4.76    2.04
   6   6   1    6.35    1.94
  -6   6  -2   10.28    2.33
  -6   6  -2    9.56    1.56
  -6   6  -2   11.08    1.68
  -6   6  -2   12.92    2.92
  -6   5  -2   19.91    2.03
  -6   5  -2   15.68    2.30
  -6   5  -2   18.84    2.91
  -6   4  -2   10.87    1.52
  -6   4  -2    9.00    1.63
  -6   4  -2   13.55    2.37
  -6   3  -2   43.19    2.51
  -6   3  -2   39.09    2.64
  -6   3  -2   41.14    3.01
   6  -3   2   36.58    2.75
  -6   2  -2    8.30    1.11
  -6   2  -2    8.69    1.21
  -6   2  -2    9.47    0.95
  -6   2  -2   11.56    1.63
   6  -2   2    9.60    0.78
   6  -2   2   11.09    0.95
   6  -2   2    8.84    1.34
  -6   1  -2    1.67    0.62
  -6   1  -2    1.04    0.41
  -6   1  -2    1.18    0.43
  -6   1  -2    1.31    0.28
  -6   1  -2    1.18    0.45
  -6   1  -2    1.77    0.48
  -6   1  -2    1.33    0.49
   6  -1   2    0.43    0.29
   6  -1   2    1.14    0.51
   6  -1   2    0.12    0.30
  -6   0  -2   13.45    1.00
  -6   0  -2   13.21    0.77
  -6   0  -2   12.51    1.18
  -6   0  -2   12.76    1.03
   6   0   2   12.88    0.80
   6   0   2   12.30    1.07
   6   0   2   13.63    1.15
  -6  -1  -2    0.92    0.22
  -6  -1  -2    1.07    0.46
   6   1   2    0.34    0.33
  -6  -2  -2    8.63    1.21
   6   2   2    8.98    0.82
   6   2   2    8.53    0.73
  -6  -3  -2   37.42    2.44
   6   3   2   38.73    2.06
   6   3   2   37.74    1.81
   6   3   2   38.63    2.45
  -6  -4  -2   13.30    1.80
   6   4   2    9.36    0.95
   6   4   2   15.01    2.01
  -6  -5  -2   20.08    2.95
   6   5   2   22.31    2.70
   6   5   2   20.49    1.48
  -6  -6  -2   12.04    2.82
   6   6   2    8.67    2.16
   6   6   2   10.49    1.21
  -6   6  -3   11.67    1.78
  -6   6  -3   10.50    2.40
  -6   6  -3   10.35    2.61
  -6   5  -3   11.78    2.61
  -6   5  -3    7.91    1.35
  -6   5  -3    6.87    1.82
  -6   5  -3    7.32    1.34
  -6   4  -3   10.77    1.84
  -6   4  -3   10.59    1.46
  -6   4  -3    9.90    2.10
  -6   4  -3   10.87    1.48
  -6   3  -3   31.43    2.15
  -6   3  -3   32.96    2.48
  -6   3  -3   30.35    2.71
  -6   3  -3   35.68    2.32
  -6   3  -3   29.24    2.06
  -6   2  -3    9.97    1.34
  -6   2  -3   10.19    1.15
  -6   2  -3   10.35    1.58
  -6   2  -3   12.60    1.29
  -6   2  -3   11.46    1.27
   6  -2   3   13.04    1.35
   6  -2   3   13.53    1.08
   6  -2   3   13.24    0.98
  -6   1  -3  188.86    5.85
  -6   1  -3  192.27    6.43
  -6   1  -3  193.38    6.54
  -6   1  -3  188.07    6.21
  -6   1  -3  189.21    6.59
  -6   1  -3  189.61    6.91
   6  -1   3  193.12    6.39
   6  -1   3  189.28    6.07
  -6   0  -3   37.30    2.17
  -6   0  -3   37.99    1.57
  -6   0  -3   39.18    2.01
  -6   0  -3   36.78    1.96
   6   0   3   33.71    1.62
   6   0   3   38.75    2.01
   6   0   3   36.25    1.57
  -6  -1  -3  182.89    5.61
  -6  -1  -3  181.21    6.31
   6   1   3  182.60    6.23
  -6  -2  -3   10.24    1.32
   6   2   3   12.34    0.88
   6   2   3   10.18    1.03
  -6  -3  -3   34.65    2.29
   6   3   3   31.56    1.85
  -6  -4  -3   13.21    1.82
   6   4   3   13.79    1.26
   6   4   3   15.46    2.07
  -6  -5  -3    6.69    2.00
   6   5   3    5.58    1.58
   6   5   3    5.17    0.94
  -6  -6  -3   12.19    2.73
   6   6   3   11.02    1.55
   6   6   3   15.19    2.64
  -6   6  -4   11.51    2.50
  -6   6  -4    3.81    1.96
  -6   6  -4    9.47    1.60
  -6   5  -4   12.01    2.59
  -6   5  -4   13.29    1.80
  -6   5  -4   10.92    2.16
  -6   4  -4   18.22    2.70
  -6   4  -4   17.76    1.81
  -6   4  -4   15.42    2.27
  -6   3  -4   28.82    2.44
  -6   3  -4   28.59    2.75
  -6   3  -4   28.52    2.31
  -6   3  -4   31.93    2.23
  -6   2  -4   69.99    3.54
  -6   2  -4   70.96    3.89
  -6   2  -4   72.46    3.48
  -6   2  -4   74.98    3.47
   6  -2   4   81.06    3.01
   6  -2   4   76.20    3.11
  -6   1  -4  108.25    4.66
  -6   1  -4  103.90    3.88
  -6   1  -4  106.01    3.54
  -6   1  -4  106.80    4.32
  -6   1  -4  104.22    4.29
  -6   1  -4  103.62    4.15
   6  -1   4  105.78    3.82
   6  -1   4  111.49    4.40
   6  -1   4  107.74    4.28
  -6   0  -4  162.00    5.96
  -6   0  -4  167.42    5.36
  -6   0  -4  170.54    6.07
  -6   0  -4  164.48    6.28
   6   0   4  162.54    5.98
   6   0   4  167.06    5.70
   6   0   4  168.91    5.36
  -6  -1  -4  101.80    4.12
  -6  -1  -4   99.33    3.44
   6   1   4  102.82    4.10
   6   1   4  100.09    3.58
  -6  -2  -4   76.45    3.44
   6   2   4   72.65    2.86
   6   2   4   70.16    3.25
  -6  -3  -4   28.01    2.12
   6   3   4   26.18    1.85
   6   4   4   16.61    1.56
  -6  -5  -4    9.84    2.45
   6   5   4   10.75    1.42
   6   5   4    8.56    1.95
  -6  -6  -4    9.07    2.58
  -6   5  -5    6.92    1.41
  -6   5  -5    3.07    1.50
  -6   5  -5    5.64    2.11
   6  -5   5    8.79    2.32
  -6   4  -5   16.96    1.83
  -6   4  -5   15.17    2.33
  -6   4  -5   15.44    2.64
   6  -4   5   17.54    2.63
  -6   3  -5   40.86    2.66
  -6   3  -5   37.82    2.94
  -6   3  -5   42.09    3.34
  -6   3  -5   40.50    2.87
   6  -3   5   42.71    3.19
  -6   2  -5   92.39    4.65
  -6   2  -5   96.83    4.26
  -6   2  -5   88.88    4.30
  -6   2  -5   98.44    4.39
   6  -2   5   89.17    4.41
   6  -2   5   92.00    3.62
  -6   1  -5   86.52    3.89
  -6   1  -5   85.80    3.91
  -6   1  -5   81.11    3.35
  -6   1  -5   86.05    4.21
  -6   1  -5   85.10    3.04
   6  -1   5   84.92    3.83
   6  -1   5   86.40    3.33
  -6   0  -5  136.58    4.69
  -6   0  -5  137.64    5.47
  -6   0  -5  141.38    5.80
  -6   0  -5  129.39    5.37
   6   0   5  141.15    5.28
   6   0   5  140.52    4.71
   6   0   5  153.09    5.53
  -6  -1  -5   86.56    3.83
  -6  -1  -5   83.00    3.11
   6   1   5   82.06    2.69
   6   1   5   84.70    3.83
   6   1   5   83.75    3.41
  -6  -2  -5   93.41    3.53
  -6  -2  -5   92.41    4.16
   6   2   5   93.52    4.11
  -6  -3  -5   39.13    2.56
   6   3   5   39.80    2.49
  -6  -4  -5   14.87    2.47
   6   4   5   15.65    1.89
  -6  -5  -5    5.72    2.06
   6   5   5    8.58    1.48
  -6   5  -6    4.61    2.05
  -6   5  -6    2.20    1.51
  -6   5  -6    1.26    0.89
   6  -5   6    2.56    1.80
  -6   4  -6    2.11    0.97
  -6   4  -6    1.35    1.39
  -6   4  -6    3.67    1.39
   6  -4   6    1.67    1.35
  -6   3  -6   40.55    3.16
  -6   3  -6   33.00    3.13
  -6   3  -6   39.27    2.72
  -6   3  -6   37.70    2.96
   6  -3   6   40.34    3.23
   6  -3   6   37.36    2.15
  -6   2  -6   35.21    2.59
  -6   2  -6   32.79    2.53
  -6   2  -6   29.61    2.66
  -6   2  -6   33.23    2.44
   6  -2   6   24.87    2.28
   6  -2   6   28.96    1.89
  -6   1  -6  142.45    6.15
  -6   1  -6  135.60    5.82
  -6   1  -6  141.85    4.73
  -6   1  -6  134.37    5.06
  -6   1  -6  143.16    5.84
   6  -1   6  144.04    5.07
   6  -1   6  148.51    5.85
  -6   0  -6  220.32    7.86
  -6   0  -6  210.38    7.88
  -6   0  -6  216.91    6.93
  -6   0  -6  208.62    8.15
   6   0   6  224.10    7.94
   6   0   6  199.65    6.86
  -6  -1  -6  129.91    5.50
  -6  -1  -6  136.50    4.75
   6   1   6  144.59    5.70
   6   1   6  132.50    5.20
  -6  -2  -6   32.06    1.72
  -6  -2  -6   30.63    2.30
   6   2   6   28.77    2.27
  -6  -3  -6   36.27    2.58
   6   3   6   36.96    2.59
  -6  -4  -6    1.62    1.36
   6   4   6    1.77    0.93
  -6  -5  -6   -0.18    1.43
   6   5   6    2.59    1.09
  -6   5  -7   15.56    2.20
  -6   5  -7   14.62    2.96
  -6   5  -7   16.77    3.17
   6  -5   7   12.83    2.93
  -6   4  -7   22.77    2.41
  -6   4  -7   22.41    3.12
  -6   4  -7   19.78    3.01
  -6   4  -7   18.62    2.87
   6  -4   7   23.71    1.94
   6  -4   7   20.18    3.01
  -6   3  -7   36.34    3.31
  -6   3  -7   33.40    2.97
  -6   3  -7   31.85    2.67
  -6   3  -7   35.52    3.03
   6  -3   7   27.30    2.07
   6  -3   7   29.43    2.89
  -6   2  -7   50.25    3.41
  -6   2  -7   49.84    3.27
  -6   2  -7   49.42    3.55
   6  -2   7   53.68    2.73
   6  -2   7   50.98    3.44
  -6   1  -7  105.21    4.94
  -6   1  -7   97.42    4.92
  -6   1  -7  105.43    3.80
  -6   1  -7  112.41    5.37
   6  -1   7  103.12    4.16
   6  -1   7  107.59    5.00
  -6   0  -7  176.47    7.18
  -6   0  -7  169.48    5.72
  -6   0  -7  166.53    6.74
   6   0   7  162.98    6.64
   6   0   7  154.87    5.68
  -6  -1  -7  101.48    4.00
  -6  -1  -7  105.88    5.46
  -6  -1  -7  101.77    4.83
   6   1   7  107.01    4.97
  -6  -2  -7   50.06    3.15
  -6  -2  -7   48.14    2.40
   6   2   7   49.97    3.17
  -6  -3  -7   28.85    3.11
  -6  -3  -7   34.97    2.70
   6   3   7   31.86    2.60
  -6  -4  -7   18.19    3.19
   6   4   7   23.73    2.28
  -6  -5  -7   13.42    3.03
   6   5   7   11.84    1.99
  -6   4  -8    5.41    2.00
  -6   4  -8    1.59    1.61
  -6   4  -8    3.32    1.30
   6  -4   8    3.88    1.13
   6  -4   8    4.15    1.84
  -6   3  -8    6.26    1.48
  -6   3  -8    8.12    1.91
  -6   3  -8    2.91    1.47
   6  -3   8    9.24    2.01
   6  -3   8    6.19    1.28
  -6   2  -8   39.14    3.25
  -6   2  -8   46.34    3.51
  -6   2  -8   41.14    3.12
   6  -2   8   44.63    3.44
   6  -2   8   41.31    2.50
  -6   1  -8   46.14    2.11
  -6   1  -8   44.62    3.66
  -6   1  -8   37.81    3.21
  -6   1  -8   40.55    3.07
   6  -1   8   38.53    2.38
   6  -1   8   35.09    2.99
  -6   0  -8  196.90    6.72
  -6   0  -8  209.10    8.40
  -6   0  -8  205.40    7.47
  -6   0  -8  197.06    7.99
   6   0   8  180.56    7.75
   6   0   8  182.35    6.64
  -6  -1  -8   44.53    3.62
  -6  -1  -8   39.44    2.23
  -6  -1  -8   39.37    2.96
   6   1   8   41.26    3.04
   6   1   8   38.52    1.93
  -6  -2  -8   39.03    2.98
  -6  -2  -8   44.40    3.33
  -6  -2  -8   44.22    2.40
   6   2   8   42.57    3.18
  -6  -3  -8    4.61    1.42
  -6  -3  -8    7.21    1.87
   6   3   8    4.95    1.38
  -6  -4  -8    3.24    1.77
   6   4   8    2.35    1.14
  -6   4  -9   12.72    2.23
  -6   4  -9   16.95    3.13
   6  -4   9   14.33    2.01
   6  -4   9   16.12    3.04
  -6   3  -9   34.60    3.11
  -6   3  -9   33.87    3.51
  -6   3  -9   34.09    3.36
   6  -3   9   31.40    2.56
   6  -3   9   32.69    3.49
  -6   2  -9   43.02    3.62
  -6   2  -9   44.56    3.67
  -6   2  -9   45.13    3.45
   6  -2   9   41.46    3.56
   6  -2   9   39.33    2.66
  -6   1  -9   49.24    3.89
  -6   1  -9   51.78    3.71
  -6   1  -9   47.87    2.32
   6  -1   9   53.09    3.78
   6  -1   9   50.14    2.86
  -6   0  -9   66.79    4.45
  -6   0  -9   56.01    2.83
  -6   0  -9   55.10    3.76
   6   0   9   53.38    2.79
   6   0   9   55.93    4.29
  -6  -1  -9   51.11    4.18
  -6  -1  -9   45.44    3.37
  -6  -1  -9   47.82    2.62
  -6  -2  -9   37.25    3.10
  -6  -2  -9   42.87    2.51
  -6  -2  -9   42.76    3.46
   6   2   9   41.42    3.36
  -6  -3  -9   27.91    3.34
   6   3   9   38.47    3.22
  -6  -4  -9   11.82    2.85
   6   4   9   11.75    2.12
  -6   3 -10   11.46    2.63
  -6   3 -10   13.39    2.41
   6  -3  10   12.29    1.81
   6  -3  10    9.73    2.51
  -6   2 -10   20.93    2.95
  -6   2 -10   13.53    2.58
   6  -2  10   19.32    3.05
   6  -2  10   13.71    1.81
  -6   1 -10   60.83    4.51
  -6   1 -10   60.56    4.35
   6  -1  10   63.79    3.42
   6  -1  10   68.58    4.61
  -6   0 -10   51.51    4.22
  -6   0 -10   40.28    2.51
  -6   0 -10   39.91    3.49
  -6  -1 -10   61.97    4.18
  -6  -1 -10   55.74    4.65
  -6  -1 -10   55.57    3.12
  -6  -2 -10   13.34    2.87
  -6  -2 -10   14.33    2.29
  -6  -2 -10    9.95    1.44
  -6  -3 -10    9.67    2.44
  -6  -3 -10   12.72    1.72
   6   3  10   11.80    2.34
  -6   3 -11   14.16    3.07
   6  -3  11    9.89    1.73
   6  -3  11    6.95    2.31
  -6   2 -11   21.93    3.32
   6  -2  11   27.03    2.57
   6  -2  11   22.33    3.32
  -6   1 -11    5.87    1.96
  -6   1 -11    8.96    2.25
   6  -1  11    4.46    1.24
  -6   0 -11   47.72    4.37
  -6   0 -11   39.02    2.61
  -6   0 -11   35.91    3.55
  -6  -1 -11    7.91    1.97
  -6  -1 -11    8.82    2.50
  -6  -1 -11    6.81    1.29
  -6  -2 -11   27.48    4.17
  -6  -2 -11   24.22    2.33
  -6  -2 -11   26.63    3.06
  -6  -3 -11    6.07    1.47
  -6   2 -12    7.13    2.47
   6  -2  12    8.35    1.81
   6  -2  12    7.89    2.47
  -6   1 -12    3.99    1.87
   6  -1  12    3.92    1.33
  -6   0 -12   19.70    2.05
  -6   0 -12   15.72    2.82
  -6   0 -12   26.59    3.92
  -6  -1 -12    2.38    1.17
  -6  -1 -12    2.64    1.62
  -6  -1 -12    1.53    2.06
  -6  -2 -12    6.11    2.03
  -6  -2 -12    7.55    2.58
  -7   2  12    5.06    2.24
  -7   1  12    2.81    1.76
  -7   1  12    1.69    0.95
  -7   0  12   -1.09    1.40
  -7   0  12    1.05    0.97
   7   0 -12   -0.10    1.75
  -7  -1  12    2.20    1.24
  -7  -1  12    3.62    1.85
   7   1 -12    6.60    2.60
  -7  -2  12    2.52    1.36
  -7  -2  12    1.99    1.76
   7   2 -12    3.91    2.78
   7   2 -12    2.73    2.50
  -7   3  11   11.10    2.75
   7  -3 -11    9.97    2.83
  -7   2  11   10.26    2.62
   7  -2 -11   13.16    2.10
  -7   1  11    3.92    1.09
  -7   1  11    3.87    1.86
   7  -1 -11    4.64    1.30
  -7   0  11   -0.79    0.74
  -7   0  11   -0.38    1.17
  -7   0  11   -0.54    0.85
   7   0 -11   -0.21    1.49
  -7  -1  11    4.55    1.35
  -7  -1  11    5.91    2.14
   7   1 -11    5.56    2.39
  -7  -2  11    9.48    1.75
  -7  -2  11    8.59    2.46
   7   2 -11    7.65    2.73
   7   2 -11   13.39    2.99
  -7  -3  11   10.97    1.92
  -7  -3  11    9.32    2.65
   7   3 -11    8.58    2.52
   7   3 -11    3.84    2.60
  -7   3  10   16.21    2.86
   7  -3 -10   11.58    1.98
   7  -3 -10   14.60    3.13
  -7   2  10    2.10    1.56
   7  -2 -10   -1.24    1.29
   7  -2 -10    1.91    1.11
  -7   1  10   -1.15    1.28
  -7   1  10    2.06    0.80
   7  -1 -10    2.01    0.97
  -7   0  10   -0.13    0.66
  -7   0  10   -0.35    0.76
  -7   0  10   -0.78    1.04
   7   0 -10    1.57    1.46
  -7  -1  10    2.41    1.37
  -7  -1  10    1.37    0.98
   7   1 -10    0.32    1.63
   7   1 -10    1.39    1.49
  -7  -2  10    1.97    1.52
  -7  -2  10    2.01    1.11
   7   2 -10    0.43    1.34
   7   2 -10    0.85    1.68
  -7  -3  10   12.30    2.83
  -7  -3  10   10.80    1.75
   7   3 -10   16.35    2.82
   7   3 -10   10.29    3.00
  -7   4   9   23.26    3.41
  -7   4   9   23.37    3.42
   7  -4  -9   16.73    2.40
   7  -4  -9   14.56    3.45
  -7   3   9   18.38    3.02
   7  -3  -9   24.89    3.81
   7  -3  -9   23.83    2.61
  -7   2   9   21.29    2.95
   7  -2  -9   17.64    2.09
   7  -2  -9   17.23    2.92
  -7   1   9    6.00    1.82
  -7   1   9    4.70    1.05
  -7   1   9    4.98    1.03
   7  -1  -9    5.21    1.21
   7  -1  -9    6.41    2.02
  -7   0   9   -0.67    0.62
  -7   0   9   -1.14    0.96
   7   0  -9   -0.31    1.05
  -7  -1   9    3.38    1.61
  -7  -1   9    2.72    1.05
   7   1  -9    6.72    1.92
   7   1  -9    5.04    1.98
  -7  -2   9   21.09    2.05
  -7  -2   9   16.39    2.65
   7   2  -9   18.44    3.35
   7   2  -9   17.90    2.73
  -7  -3   9   17.65    2.90
   7   3  -9   25.38    4.11
   7   3  -9   22.48    2.98
  -7  -4   9   19.57    3.32
   7   4  -9   17.65    3.79
   7   4  -9   18.45    2.68
  -7   4   8   33.15    3.47
  -7   4   8   31.44    3.52
  -7   4   8   37.05    3.22
   7  -4  -8   27.80    3.09
   7  -4  -8   33.09    4.67
   7  -4  -8   32.98    2.91
  -7   3   8    5.69    1.63
  -7   3   8    3.07    1.51
  -7   3   8    3.81    1.15
   7  -3  -8    3.56    1.17
   7  -3  -8    5.30    1.93
  -7   2   8   15.67    1.20
  -7   2   8   16.18    2.57
   7  -2  -8   14.10    1.74
   7  -2  -8   14.47    2.50
  -7   1   8    0.29    0.61
  -7   1   8    1.63    0.67
  -7   1   8    1.09    1.26
   7  -1  -8    0.26    0.70
   7  -1  -8   -0.20    1.13
  -7   0   8   -0.02    0.64
  -7   0   8   -0.19    0.94
   7   0  -8    0.64    1.11
   7   0  -8   -1.05    1.11
   7   0  -8   -0.32    0.46
  -7  -1   8    0.29    1.03
  -7  -1   8    0.28    0.66
   7   1  -8    0.53    1.17
   7   1  -8    2.21    1.45
  -7  -2   8   16.56    2.60
   7   2  -8   13.84    2.84
   7   2  -8   13.80    2.31
  -7  -3   8    3.47    1.64
   7   3  -8    2.09    1.76
   7   3  -8    2.92    1.33
  -7  -4   8   26.63    3.69
   7   4  -8   32.06    2.94
   7   4  -8   30.85    4.32
  -7   5   7   16.31    2.71
  -7   5   7    7.65    2.03
  -7   5   7   12.75    2.67
   7  -5  -7    7.23    2.84
   7  -5  -7   10.19    2.04
  -7   4   7   24.61    2.86
  -7   4   7   22.25    2.95
  -7   4   7   26.58    3.10
   7  -4  -7   26.33    2.80
   7  -4  -7   32.00    4.48
  -7   3   7   34.02    3.17
  -7   3   7   35.97    2.63
  -7   3   7   34.02    3.03
   7  -3  -7   27.56    2.31
   7  -3  -7   29.40    2.64
   7  -3  -7   19.09    3.01
  -7   2   7   10.02    2.00
  -7   2   7   12.53    1.57
  -7   2   7   13.39    1.06
  -7   2   7   14.21    2.13
   7  -2  -7   13.34    2.38
   7  -2  -7   13.06    1.56
  -7   1   7   25.13    1.73
  -7   1   7   23.30    2.63
  -7   1   7   23.32    1.71
   7  -1  -7   20.32    1.80
   7  -1  -7   20.47    2.24
   7  -1  -7   17.79    2.52
  -7   0   7    0.31    0.98
  -7   0   7   -0.32    0.59
   7   0  -7   -0.11    0.86
   7   0  -7    0.32    0.51
   7   0  -7   -1.17    1.04
   7   0  -7    0.92    1.05
  -7  -1   7   22.62    2.49
  -7  -1   7   25.55    1.96
   7   1  -7   21.99    3.01
   7   1  -7   25.87    2.75
  -7  -2   7   14.49    1.53
  -7  -2   7   12.64    2.20
   7   2  -7   14.68    2.67
   7   2  -7   16.22    2.21
  -7  -3   7   31.35    3.17
   7   3  -7   27.49    2.54
   7   3  -7   25.23    3.58
  -7  -4   7   26.60    3.50
   7   4  -7   28.65    4.16
   7   4  -7   30.43    2.61
  -7  -5   7   14.25    2.94
   7   5  -7   11.55    3.17
   7   5  -7   10.11    1.79
  -7   5   6   27.62    3.39
  -7   5   6   31.22    3.24
  -7   5   6   26.50    3.51
   7  -5  -6   26.75    2.82
   7  -5  -6   19.87    3.84
  -7   4   6    4.60    1.56
  -7   4   6    3.87    1.29
  -7   4   6    3.80    1.48
   7  -4  -6    7.15    1.50
   7  -4  -6    4.88    1.99
  -7   3   6   30.37    2.46
  -7   3   6   33.35    2.97
  -7   3   6   27.16    2.64
   7  -3  -6   29.22    3.29
   7  -3  -6   28.64    2.17
   7  -3  -6   28.77    2.43
  -7   2   6    1.95    1.11
  -7   2   6    1.72    0.72
  -7   2   6    1.81    0.45
  -7   2   6    0.62    0.90
   7  -2  -6    3.11    0.87
   7  -2  -6    2.07    1.24
  -7   1   6   10.85    1.90
  -7   1   6    8.63    1.55
  -7   1   6    9.32    1.17
  -7   1   6   10.73    1.21
   7  -1  -6   11.94    1.76
   7  -1  -6   10.42    1.89
   7  -1  -6    8.85    1.19
  -7   0   6    0.37    0.80
  -7   0   6    0.53    0.59
   7   0  -6    0.36    0.77
   7   0  -6    0.15    0.84
   7   0  -6   -0.23    0.41
   7   0  -6   -0.54    0.75
  -7  -1   6   10.92    1.36
  -7  -1   6    9.87    1.77
   7   1  -6    9.18    1.48
   7   1  -6    9.15    1.66
   7   1  -6    8.22    1.77
  -7  -2   6    2.40    1.00
   7   2  -6    2.29    1.38
   7   2  -6    3.91    1.16
  -7  -3   6   29.00    2.78
   7   3  -6   27.22    2.29
   7   3  -6   28.03    3.62
  -7  -4   6    5.71    1.71
   7   4  -6    7.21    2.39
   7   4  -6    7.66    1.39
  -7  -5   6   23.35    3.38
   7   5  -6   30.52    4.43
   7   5  -6   25.18    2.21
  -7   5   5   12.03    2.26
  -7   5   5   16.09    2.53
  -7   5   5   18.06    2.79
   7  -5  -5   13.81    2.07
   7  -5  -5   14.82    3.40
  -7   4   5   14.97    2.19
  -7   4   5   13.25    2.13
  -7   4   5   12.22    2.07
   7  -4  -5    6.85    1.35
   7  -4  -5    9.05    2.32
  -7   3   5   22.00    2.14
  -7   3   5   21.75    2.37
   7  -3  -5   27.07    1.95
   7  -3  -5   26.29    3.38
   7  -3  -5   26.73    2.14
  -7   2   5   23.91    2.26
  -7   2   5   24.68    1.19
  -7   2   5   24.73    2.26
   7  -2  -5   19.43    1.85
   7  -2  -5   18.94    2.53
   7  -2  -5   22.15    1.72
  -7   1   5   10.44    1.16
  -7   1   5    8.71    1.07
  -7   1   5    8.50    1.00
  -7   1   5    8.79    1.53
  -7   1   5   10.77    1.62
   7  -1  -5   11.83    1.91
   7  -1  -5   11.41    1.27
   7  -1  -5   11.76    1.54
   7  -1  -5   11.69    1.91
  -7   0   5   -0.36    0.67
  -7   0   5    0.89    0.53
   7   0  -5   -0.02    0.75
   7   0  -5   -0.03    0.71
   7   0  -5   -0.48    0.62
   7   0  -5    0.20    0.38
  -7  -1   5    9.65    1.55
  -7  -1   5    9.41    1.17
   7   1  -5   10.38    1.92
   7   1  -5   12.78    1.61
   7   1  -5   12.04    1.72
   7   2  -5   22.85    3.02
   7   2  -5   20.50    1.92
  -7  -3   5   23.48    2.33
   7   3  -5   28.75    3.06
   7   3  -5   23.11    1.92
  -7  -4   5   13.13    2.17
   7   4  -5    8.72    1.32
   7   4  -5    6.31    2.24
  -7  -5   5   13.24    2.56
   7   5  -5   16.79    3.28
   7   5  -5   15.23    1.60
  -7   5   4    5.97    1.84
  -7   5   4    7.16    1.86
  -7   5   4    5.83    1.66
   7  -5  -4   10.00    2.76
  -7   4   4   20.71    2.73
  -7   4   4   20.25    2.52
  -7   4   4   28.44    3.13
   7  -4  -4   20.28    3.07
  -7   3   4    2.47    1.03
  -7   3   4    2.91    1.15
  -7   3   4    2.43    0.99
   7  -3  -4    2.42    0.75
   7  -3  -4    2.33    1.34
   7  -3  -4    4.79    1.00
  -7   2   4   23.42    1.82
  -7   2   4   24.11    2.11
  -7   2   4   22.93    2.14
   7  -2  -4   22.15    1.61
   7  -2  -4   21.45    1.72
   7  -2  -4   24.61    2.45
  -7   1   4   -0.50    0.55
  -7   1   4    0.28    0.38
  -7   1   4    0.54    0.41
  -7   1   4    0.24    0.42
  -7   1   4   -0.25    0.50
   7  -1  -4    0.73    0.71
   7  -1  -4    1.49    0.83
   7  -1  -4    0.46    0.43
   7  -1  -4   -0.20    0.55
  -7   0   4    0.09    0.44
  -7   0   4   -0.53    0.45
   7   0  -4   -0.36    0.55
   7   0  -4    0.20    0.60
   7   0  -4    0.36    0.35
   7   0  -4    0.36    0.62
  -7  -1   4    0.51    0.46
  -7  -1   4    0.95    0.68
   7   1  -4    1.27    0.70
   7   1  -4   -0.18    0.64
   7   1  -4   -0.20    0.36
  -7  -2   4   24.32    2.05
   7   2  -4   21.22    1.76
   7   2  -4   20.07    2.30
  -7  -3   4    3.16    1.08
   7   3  -4    3.95    1.47
   7   3  -4    3.37    0.80
  -7  -4   4   17.76    2.33
   7   4  -4   17.98    1.50
   7   4  -4   17.64    2.90
  -7  -5   4    4.62    1.66
   7   5  -4    8.00    1.09
   7   5  -4    8.04    2.37
  -7   6   3    7.92    2.25
  -7   6   3    6.22    2.10
  -7   6   3   13.29    2.46
   7  -6  -3    7.99    2.75
  -7   5   3    2.13    1.41
  -7   5   3    2.35    1.32
  -7   5   3    2.87    1.49
   7  -5  -3    0.70    1.56
  -7   4   3   41.18    3.32
  -7   4   3   40.15    3.14
  -7   4   3   37.62    3.12
   7  -4  -3   41.27    3.86
   7  -4  -3   41.91    2.32
  -7   3   3   19.35    2.17
  -7   3   3   19.59    2.11
  -7   3   3   18.97    1.94
   7  -3  -3   12.02    1.29
   7  -3  -3   10.47    1.93
   7  -3  -3   11.10    1.28
  -7   2   3   40.29    1.46
  -7   2   3   41.78    2.52
  -7   2   3   37.94    2.53
  -7   2   3   42.21    2.78
   7  -2  -3   49.56    3.21
   7  -2  -3   43.89    2.15
   7  -2  -3   45.76    2.21
  -7   1   3    5.40    1.11
  -7   1   3    6.64    1.14
  -7   1   3    5.09    0.76
  -7   1   3    5.50    0.86
  -7   1   3    5.07    0.67
   7  -1  -3    5.27    1.17
   7  -1  -3    5.85    0.91
   7  -1  -3    5.55    0.86
   7  -1  -3    4.17    1.09
  -7   0   3    0.12    0.40
  -7   0   3   -0.17    0.45
  -7   0   3   -0.14    0.27
   7   0  -3   -0.06    0.28
   7   0  -3   -0.09    0.53
   7   0  -3    0.02    0.52
   7   0  -3   -0.37    0.47
  -7  -1   3    4.29    0.59
  -7  -1   3    6.10    1.04
   7   1  -3    3.01    0.82
   7   1  -3    4.81    0.96
   7   1  -3    4.80    1.28
  -7  -2   3   45.44    2.60
   7   2  -3   45.90    3.26
   7   2  -3   47.27    2.47
  -7  -3   3   18.72    1.83
   7   3  -3   13.18    1.26
   7   3  -3   10.70    1.99
  -7  -4   3   40.19    3.08
   7   4  -3   42.94    3.19
   7   4  -3   46.16    2.18
   7   4  -3   45.86    3.84
  -7  -5   3    4.05    1.55
   7   5  -3    3.14    1.41
   7   5  -3    0.40    1.39
  -7   6   2   11.13    2.21
  -7   6   2    8.45    2.26
  -7   6   2    8.03    2.33
   7  -6  -2    9.51    2.89
  -7   5   2    9.02    2.06
  -7   5   2    5.77    1.67
  -7   5   2    6.80    1.72
   7  -5  -2    2.92    1.70
  -7   4   2    1.16    0.89
  -7   4   2    4.43    1.39
  -7   4   2    3.09    1.22
   7  -4  -2    3.56    1.52
  -7   3   2   19.16    2.32
  -7   3   2   15.15    1.72
  -7   3   2   17.45    2.12
   7  -3  -2   15.56    1.28
   7  -3  -2   15.12    2.27
  -7   2   2    5.82    1.09
  -7   2   2    7.66    1.35
  -7   2   2    8.39    1.34
   7  -2  -2   11.45    1.78
   7  -2  -2   10.19    0.97
   7  -2  -2   10.38    0.99
  -7   1   2   53.29    2.22
  -7   1   2   48.17    2.77
  -7   1   2   51.57    2.50
  -7   1   2   54.31    2.66
  -7   1   2   51.55    2.07
   7  -1  -2   51.95    2.76
   7  -1  -2   49.21    2.30
   7  -1  -2   53.82    2.28
   7  -1  -2   53.49    3.19
  -7   0   2    0.12    0.35
  -7   0   2    0.70    0.48
  -7   0   2   -0.17    0.25
   7   0  -2    0.29    0.44
   7   0  -2   -0.30    0.21
   7   0  -2    0.13    0.46
   7   0  -2   -0.37    0.39
  -7  -1   2   53.00    2.52
   7   1  -2   54.44    2.81
   7   1  -2   51.86    2.61
   7   1  -2   51.27    2.94
  -7  -2   2    8.11    1.11
   7   2  -2    9.95    0.85
   7   2  -2   10.67    1.05
   7   2  -2   11.31    1.76
   7   2  -2   10.07    1.00
  -7  -3   2   17.36    1.72
   7   3  -2   13.30    1.09
   7   3  -2   16.83    2.32
   7   3  -2   13.96    1.35
   7   3  -2   14.42    1.63
   7   3  -2   12.58    1.10
  -7  -4   2    3.45    1.21
   7   4  -2    2.78    1.11
   7   4  -2    4.92    1.56
   7   4  -2    3.97    0.58
   7   5  -2    7.27    2.00
  -7   6   1    6.03    2.02
  -7   6   1    5.48    1.50
  -7   6   1    2.42    1.56
  -7   5   1   18.33    2.75
  -7   5   1   16.40    2.37
  -7   5   1   15.87    2.50
   7  -5  -1   16.81    2.94
  -7   4   1   13.32    1.93
  -7   4   1   10.88    1.89
  -7   4   1   10.12    1.75
   7  -4  -1    6.47    1.67
  -7   3   1   75.56    4.05
  -7   3   1   72.47    4.15
  -7   3   1   77.46    3.95
   7  -3  -1   77.75    2.95
   7  -3  -1   84.30    4.52
  -7   2   1   35.61    2.41
  -7   2   1   37.52    2.20
  -7   2   1   39.85    2.47
   7  -2  -1   34.63    2.63
   7  -2  -1   32.31    1.65
   7  -2  -1   32.68    1.75
  -7   1   1   44.73    1.73
  -7   1   1   45.34    2.49
  -7   1   1   42.66    2.18
  -7   1   1   41.15    1.90
  -7   1   1   45.79    2.25
   7  -1  -1   42.75    2.00
   7  -1  -1   42.36    1.88
   7  -1  -1   39.88    2.71
  -7   0   1   -0.08    0.20
  -7   0   1   -0.15    0.30
  -7   0   1    0.14    0.28
  -7   0   1    0.43    0.34
   7   0  -1    0.12    0.35
   7   0  -1   -0.11    0.33
   7   0  -1    0.27    0.46
  -7  -1   1   46.28    2.04
   7   1  -1   42.91    2.43
   7   1  -1   42.55    2.44
   7   1  -1   40.44    2.08
  -7  -2   1   38.41    1.94
   7   2  -1   35.76    2.51
   7   2  -1   32.77    1.71
   7   2  -1   36.03    1.69
  -7  -3   1   79.54    3.64
   7   3  -1   67.51    2.72
   7   3  -1   81.32    4.27
   7   3  -1   80.52    2.81
   7   3  -1   83.19    3.50
  -7  -4   1   13.75    1.84
   7   4  -1    8.49    1.85
   7   4  -1    7.43    1.42
   7   4  -1    9.03    1.41
   7   5  -1   23.63    3.46
  -7   6   0    3.07    1.82
  -7   6   0    3.90    1.37
  -7   6   0    2.53    1.78
  -7   5   0    4.23    1.34
  -7   5   0   10.20    2.19
  -7   5   0    5.36    1.52
   7  -5   0    6.45    2.02
  -7   4   0   -0.02    0.71
  -7   4   0   -0.11    0.75
  -7   4   0    0.55    0.96
   7  -4   0    0.29    0.95
  -7   3   0   25.01    2.44
  -7   3   0   28.20    2.28
  -7   3   0   26.69    2.13
   7  -3   0   32.50    2.70
   7  -3   0   27.22    1.43
  -7   2   0    1.83    0.78
  -7   2   0    1.21    0.63
  -7   2   0    1.27    0.59
   7  -2   0    1.65    0.85
   7  -2   0    1.74    0.52
   7  -2   0    1.27    0.42
  -7   1   0    4.24    0.67
  -7   1   0    3.45    0.46
  -7   1   0    3.93    0.78
  -7   1   0    3.55    0.64
  -7   1   0    3.89    0.79
   7  -1   0    3.86    0.59
   7  -1   0    3.52    0.64
   7  -1   0    3.36    0.90
  -7   0   0    0.14    0.24
  -7   0   0    0.22    0.34
  -7   0   0   -0.12    0.27
  -7   0   0    0.08    0.20
  -7   0   0    0.00    0.28
   7   0   0    0.04    0.39
   7   0   0    0.17    0.36
   7   1   0    3.41    0.58
   7   1   0    2.79    0.76
  -7  -2   0    1.70    0.47
   7   2   0    1.57    0.79
   7   2   0    2.01    0.44
   7   2   0    1.86    0.43
   7   2   0    1.79    0.51
  -7  -3   0   30.64    1.95
   7   3   0   26.33    1.28
   7   3   0   27.21    1.30
   7   3   0   28.91    1.87
   7   3   0   29.05    2.43
   7   3   0   23.76    1.85
   7   4   0    0.25    0.25
   7   4   0    0.06    0.63
   7   4   0    0.24    0.30
   7   5   0    5.54    1.41
  -7   6  -1    2.35    1.44
  -7   6  -1    2.56    1.97
  -7   6  -1    2.65    1.19
  -7   5  -1   22.08    3.09
  -7   5  -1   20.94    2.24
  -7   5  -1   21.57    2.81
  -7   4  -1    8.91    1.55
  -7   4  -1    8.72    1.98
  -7   4  -1    7.88    1.52
   7  -4   1   12.65    2.12
  -7   3  -1   83.13    3.99
  -7   3  -1   77.48    4.37
  -7   3  -1   85.41    3.95
   7  -3   1   77.47    2.96
   7  -3   1   73.23    4.26
  -7   2  -1   31.65    2.14
  -7   2  -1   29.82    2.00
  -7   2  -1   30.91    2.34
   7  -2   1   37.26    1.86
   7  -2   1   38.04    2.63
   7  -2   1   38.50    1.65
  -7   1  -1   42.61    2.02
  -7   1  -1   41.36    1.65
  -7   1  -1   44.57    2.36
  -7   1  -1   42.97    1.97
  -7   1  -1   43.09    2.25
   7  -1   1   44.21    1.99
   7  -1   1   44.88    2.60
   7  -1   1   43.96    1.84
  -7   0  -1   -0.02    0.28
  -7   0  -1   -0.27    0.35
  -7   0  -1   -0.07    0.26
  -7   0  -1    0.09    0.20
   7   0   1   -0.07    0.33
   7   0   1   -0.29    0.22
   7   0   1   -0.30    0.29
  -7  -1  -1   43.94    2.29
   7   1   1   43.14    2.00
  -7  -2  -1   31.05    2.16
  -7  -2  -1   34.19    1.64
   7   2   1   41.58    1.72
   7   2   1   39.14    1.77
   7   2   1   37.32    1.72
  -7  -3  -1   81.51    3.97
   7   3   1   72.39    2.82
   7   3   1   75.89    2.82
   7   3   1   76.21    3.32
   7   3   1   76.22    3.57
  -7  -4  -1    8.30    1.57
   7   4   1   12.65    1.77
   7   4   1   12.99    0.91
   7   5   1   17.51    2.39
   7   5   1   16.18    1.09
  -7  -6  -1    3.24    1.85
   7   6   1    0.66    1.30
  -7   6  -2    9.94    2.39
  -7   6  -2   10.11    1.62
  -7   6  -2   11.47    1.85
  -7   6  -2   12.36    2.85
  -7   5  -2    8.24    1.90
  -7   5  -2    6.34    1.41
  -7   5  -2    7.28    2.14
  -7   4  -2    3.97    1.53
  -7   4  -2    5.93    1.52
  -7   4  -2    3.35    1.03
  -7   3  -2   14.66    1.89
  -7   3  -2   12.71    2.00
  -7   3  -2   14.99    1.65
   7  -3   2   16.94    2.16
   7  -3   2   17.92    1.17
  -7   2  -2    9.20    1.24
  -7   2  -2    9.73    1.26
  -7   2  -2    8.80    0.96
  -7   2  -2    9.27    1.45
   7  -2   2    9.24    0.87
   7  -2   2    8.73    1.36
   7  -2   2    7.55    0.92
  -7   1  -2   50.14    2.33
  -7   1  -2   50.37    2.33
  -7   1  -2   48.56    2.47
  -7   1  -2   50.06    2.72
  -7   1  -2   50.22    1.92
  -7   1  -2   53.35    2.53
  -7   1  -2   51.75    2.30
   7  -1   2   53.55    2.28
   7  -1   2   54.75    2.83
   7  -1   2   53.78    2.68
   7  -1   2   49.87    2.08
  -7   0  -2    0.02    0.41
  -7   0  -2    0.24    0.32
  -7   0  -2    0.02    0.27
  -7   0  -2   -0.01    0.19
   7   0   2   -0.08    0.34
   7   0   2   -0.06    0.23
   7   0   2   -0.12    0.33
  -7  -1  -2   48.47    2.46
  -7  -1  -2   51.61    1.86
   7   1   2   53.58    2.40
  -7  -2  -2   10.84    1.40
   7   2   2    8.31    0.69
   7   2   2    7.95    0.94
   7   2   2    9.59    0.92
  -7  -3  -2   14.26    1.64
   7   3   2   16.27    1.17
  -7  -4  -2    6.10    1.36
   7   4   2    3.79    1.13
   7   4   2    2.67    0.60
   7   5   2    8.75    1.88
   7   5   2    7.71    0.99
  -7  -6  -2   11.21    2.65
   7   6   2    9.08    1.14
   7   6   2    5.53    1.89
  -7   6  -3    7.47    1.57
  -7   6  -3   11.17    2.68
  -7   6  -3    4.78    2.24
  -7   5  -3    2.20    1.26
  -7   5  -3    2.05    0.92
  -7   5  -3    1.36    0.91
  -7   5  -3    3.16    1.71
  -7   4  -3   40.82    2.75
  -7   4  -3   42.33    2.70
  -7   4  -3   46.05    3.80
  -7   4  -3   40.91    3.12
  -7   3  -3   11.39    1.94
  -7   3  -3   15.18    1.61
  -7   3  -3   12.83    1.61
  -7   3  -3   12.76    1.81
  -7   3  -3   15.88    1.57
   7  -3   3   18.95    1.27
  -7   2  -3   48.87    2.59
  -7   2  -3   47.42    2.46
  -7   2  -3   47.39    2.63
  -7   2  -3   58.37    3.26
  -7   2  -3   50.06    2.72
   7  -2   3   44.89    2.63
   7  -2   3   44.48    2.25
   7  -2   3   43.14    2.08
  -7   1  -3    4.68    0.83
  -7   1  -3    4.45    0.97
  -7   1  -3    4.32    0.53
  -7   1  -3    4.57    0.87
  -7   1  -3    4.05    0.78
  -7   1  -3    3.91    0.74
   7  -1   3    6.87    1.00
   7  -1   3    4.93    0.67
   7  -1   3    5.24    0.86
  -7   0  -3    0.01    0.50
  -7   0  -3   -0.05    0.21
  -7   0  -3   -0.08    0.36
  -7   0  -3    0.53    0.35
  -7   0  -3   -0.28    0.32
   7   0   3    0.31    0.30
   7   0   3    0.14    0.38
   7   0   3    0.33    0.25
  -7  -1  -3    5.30    0.94
  -7  -1  -3    4.47    0.52
   7   1   3    5.52    0.88
  -7  -2  -3   45.71    2.53
   7   2   3   38.95    2.11
  -7  -3  -3   14.71    1.66
   7   3   3   17.95    1.37
  -7  -4  -3   44.99    2.98
   7   4   3   38.83    2.18
  -7  -5  -3    0.96    1.39
   7   5   3    3.43    1.37
   7   5   3    2.97    0.82
  -7  -6  -3    8.14    2.50
   7   6   3    7.06    1.21
  -7   5  -4    8.00    1.53
  -7   5  -4   10.60    2.65
  -7   5  -4    8.20    2.05
  -7   4  -4   22.69    3.22
  -7   4  -4   17.08    1.90
  -7   4  -4   19.98    2.65
  -7   3  -4    6.53    1.28
  -7   3  -4    4.08    1.09
  -7   3  -4    4.79    1.30
  -7   3  -4    4.71    1.48
   7  -3   4    2.64    0.71
  -7   2  -4   22.42    1.80
  -7   2  -4   27.92    2.37
  -7   2  -4   22.01    1.90
  -7   2  -4   23.46    1.90
   7  -2   4   24.09    1.49
  -7   1  -4    0.50    0.52
  -7   1  -4   -0.29    0.43
  -7   1  -4   -0.09    0.25
  -7   1  -4    0.48    0.42
  -7   1  -4    0.09    0.46
  -7   1  -4    0.76    0.63
   7  -1   4    0.60    0.46
   7  -1   4    0.26    0.39
   7  -1   4    0.59    0.50
  -7   0  -4   -0.40    0.30
  -7   0  -4   -0.39    0.39
  -7   0  -4   -0.03    0.27
  -7   0  -4   -0.06    0.51
   7   0   4    0.27    0.52
   7   0   4    0.01    0.32
   7   0   4   -0.31    0.31
  -7  -1  -4    0.31    0.45
  -7  -1  -4   -0.40    0.21
   7   1   4    0.76    0.57
   7   1   4    0.50    0.31
  -7  -2  -4   23.96    1.84
   7   2   4   20.74    1.66
  -7  -3  -4    4.76    1.12
   7   3   4    2.24    0.72
  -7  -4  -4   17.56    2.22
   7   4   4   18.64    1.64
  -7  -5  -4    4.61    2.05
   7   5   4    5.37    1.14
  -7   5  -5   14.51    1.98
  -7   5  -5   13.70    2.97
  -7   5  -5   14.76    2.53
   7  -5   5   15.29    2.88
  -7   4  -5    6.68    1.74
  -7   4  -5    6.63    1.84
  -7   4  -5    9.32    1.53
   7  -4   5   12.81    2.37
  -7   3  -5   28.75    2.23
  -7   3  -5   30.49    2.45
  -7   3  -5   31.82    2.62
  -7   3  -5   26.80    3.09
   7  -3   5   22.65    1.73
   7  -3   5   26.67    2.52
  -7   2  -5   23.21    1.99
  -7   2  -5   22.98    2.04
  -7   2  -5   16.54    2.12
  -7   2  -5   22.80    1.97
   7  -2   5   23.85    2.15
   7  -2   5   26.18    1.63
  -7   1  -5   11.23    0.88
  -7   1  -5   12.82    1.43
  -7   1  -5    9.72    1.42
  -7   1  -5   10.93    1.34
  -7   1  -5   12.37    1.59
  -7   1  -5   11.28    1.74
   7  -1   5   11.15    1.12
   7  -1   5    9.31    1.29
  -7   0  -5    0.06    0.33
  -7   0  -5    0.21    0.58
  -7   0  -5   -0.61    0.46
  -7   0  -5   -0.16    0.61
   7   0   5    0.00    0.33
   7   0   5   -0.45    0.38
   7   0   5    0.67    0.61
  -7  -1  -5    8.86    1.28
  -7  -1  -5   11.94    0.95
   7   1   5    8.95    1.32
   7   1   5    9.29    1.56
  -7  -2  -5   21.19    1.88
   7   2   5   24.40    1.92
  -7  -3  -5   23.82    2.08
   7   3   5   23.05    1.91
   7   4   5    9.10    1.42
  -7  -5  -5    9.36    2.31
   7   5   5   13.28    1.77
  -7   5  -6   23.63    3.75
  -7   5  -6   21.32    3.13
  -7   5  -6   25.77    2.49
   7  -5   6   24.53    3.59
  -7   4  -6    5.63    1.94
  -7   4  -6    1.53    0.93
  -7   4  -6    6.46    1.80
   7  -4   6    3.27    1.00
   7  -4   6    4.71    1.66
  -7   3  -6   29.52    2.44
  -7   3  -6   33.24    2.88
  -7   3  -6   28.63    2.61
  -7   3  -6   29.45    3.00
   7  -3   6   33.29    2.99
   7  -3   6   28.49    2.00
  -7   2  -6    3.10    1.09
  -7   2  -6    3.22    1.03
  -7   2  -6    2.73    1.15
  -7   2  -6    3.26    1.11
   7  -2   6    2.52    0.76
   7  -2   6    2.22    0.99
  -7   1  -6   10.20    0.95
  -7   1  -6   12.03    1.45
  -7   1  -6    6.30    1.40
  -7   1  -6   11.78    1.73
  -7   1  -6    7.72    1.47
   7  -1   6   11.09    1.53
   7  -1   6   10.30    1.21
  -7   0  -6    0.05    0.60
  -7   0  -6    0.40    0.42
  -7   0  -6   -0.17    0.75
   7   0   6   -0.15    0.42
   7   0   6    0.41    0.74
   7   0   6    0.16    0.56
  -7  -1  -6   10.79    1.05
  -7  -1  -6    7.66    1.68
  -7  -1  -6    9.92    1.53
   7   1   6    8.60    1.40
   7   1   6    9.49    0.70
  -7  -2  -6    2.73    0.98
  -7  -2  -6    2.39    0.59
   7   2   6    1.53    0.87
  -7  -3  -6   28.78    2.37
   7   3   6   29.53    2.36
  -7  -4  -6    5.36    1.88
   7   4   6    5.54    1.31
  -7  -5  -6   17.13    3.06
   7   5   6   27.41    2.45
  -7   5  -7    8.49    1.83
  -7   5  -7    6.16    2.49
  -7   5  -7    6.59    2.23
   7  -5   7   12.45    2.76
  -7   4  -7   31.51    3.83
  -7   4  -7   27.41    3.60
  -7   4  -7   27.40    2.61
   7  -4   7   23.94    3.42
   7  -4   7   24.46    2.18
  -7   3  -7   29.67    2.94
  -7   3  -7   30.05    3.10
  -7   3  -7   27.27    2.76
  -7   3  -7   25.15    2.54
   7  -3   7   33.46    3.01
   7  -3   7   32.46    2.21
  -7   2  -7   14.12    2.10
  -7   2  -7   17.73    2.20
  -7   2  -7   15.39    2.24
   7  -2   7   12.41    1.46
   7  -2   7   15.61    2.19
  -7   1  -7   18.44    2.07
  -7   1  -7   23.79    2.32
  -7   1  -7   20.56    1.40
  -7   1  -7   20.32    2.48
   7  -1   7   26.60    2.27
   7  -1   7   25.70    1.83
  -7   0  -7   -0.65    0.75
  -7   0  -7   -0.35    0.39
  -7   0  -7   -0.13    0.77
  -7   0  -7   -0.01    0.91
   7   0   7   -0.25    0.59
   7   0   7    0.25    0.49
  -7  -1  -7   22.57    2.19
  -7  -1  -7   22.44    1.59
  -7  -1  -7   21.03    2.61
   7   1   7   22.91    2.23
  -7  -2  -7   15.14    2.03
  -7  -2  -7   14.15    1.30
   7   2   7   11.92    1.84
  -7  -3  -7   31.29    2.62
   7   3   7   29.26    2.56
  -7  -4  -7   29.96    3.57
   7   4   7   26.91    2.56
  -7  -5  -7    7.64    2.46
   7   5   7   13.09    2.07
  -7   4  -8   33.01    3.05
  -7   4  -8   31.89    3.55
  -7   4  -8   33.91    4.13
  -7   4  -8   34.90    3.61
   7  -4   8   28.72    3.76
   7  -4   8   29.63    2.50
  -7   3  -8    2.35    1.50
  -7   3  -8    2.10    1.34
  -7   3  -8    2.93    1.29
   7  -3   8    3.27    1.41
   7  -3   8    3.33    1.02
  -7   2  -8   17.73    2.57
  -7   2  -8   12.99    2.12
  -7   2  -8   19.38    2.39
   7  -2   8   18.31    2.50
   7  -2   8   14.11    1.60
  -7   1  -8   -0.24    0.90
  -7   1  -8    0.09    0.46
  -7   1  -8    0.55    0.99
   7  -1   8    0.37    0.95
   7  -1   8    0.39    0.62
  -7   0  -8   -0.38    0.85
  -7   0  -8   -0.06    1.04
  -7   0  -8   -0.37    0.85
  -7   0  -8    0.06    0.48
   7   0   8   -0.45    0.44
  -7  -1  -8    0.08    0.87
  -7  -1  -8    0.47    0.53
  -7  -1  -8    0.59    1.14
   7   1   8    0.12    0.76
  -7  -2  -8   17.41    2.30
  -7  -2  -8   14.26    1.47
   7   2   8   17.10    2.27
  -7  -3  -8    5.52    1.74
  -7  -3  -8    3.17    1.24
   7   3   8    5.40    1.48
  -7  -4  -8   28.66    3.81
   7   4   8   34.12    2.93
  -7   4  -9   14.27    2.97
  -7   4  -9   16.07    2.60
   7  -4   9   24.18    3.73
   7  -4   9   18.26    2.15
  -7   3  -9   25.21    2.74
  -7   3  -9   20.70    3.18
  -7   3  -9   23.51    3.20
   7  -3   9   18.89    2.10
   7  -3   9   20.13    2.98
  -7   2  -9   16.80    2.66
  -7   2  -9   18.04    2.52
  -7   2  -9   15.82    2.49
   7  -2   9   21.20    2.01
   7  -2   9   18.99    2.69
  -7   1  -9    6.53    0.98
  -7   1  -9    2.12    1.38
  -7   1  -9    5.83    1.53
   7  -1   9    4.99    1.13
   7  -1   9    3.73    1.44
  -7   0  -9   -0.95    1.14
  -7   0  -9   -0.39    0.56
  -7   0  -9    1.06    1.04
  -7   0  -9    0.25    1.00
   7   0   9    0.00    0.60
  -7  -1  -9    5.55    1.43
  -7  -1  -9    5.45    1.05
  -7  -1  -9    8.05    2.18
  -7  -2  -9   17.31    2.45
  -7  -2  -9   13.46    2.15
  -7  -2  -9   18.88    1.72
   7   2   9   19.55    2.66
  -7  -3  -9   18.91    3.25
  -7  -3  -9   17.51    2.86
   7   3   9   22.13    2.90
  -7  -4  -9   13.87    3.03
   7   4   9   20.84    2.68
  -7   3 -10   10.40    2.25
  -7   3 -10   12.48    2.69
   7  -3  10   12.20    2.77
   7  -3  10   11.71    1.76
  -7   2 -10    2.12    1.46
  -7   2 -10    0.37    1.14
   7  -2  10    2.62    1.09
   7  -2  10    1.06    1.38
  -7   1 -10    1.60    1.41
  -7   1 -10    1.09    1.18
   7  -1  10    0.11    0.76
  -7   0 -10   -0.18    1.25
  -7   0 -10   -0.18    0.65
  -7   0 -10   -1.52    0.90
  -7  -1 -10    1.14    1.55
  -7  -1 -10    1.72    1.19
  -7  -1 -10    1.59    0.87
  -7  -2 -10    1.57    0.81
  -7  -2 -10    3.00    1.39
  -7  -2 -10   -0.28    1.48
  -7  -3 -10   11.43    2.49
  -7  -3 -10   11.15    1.63
   7   3  10   12.34    2.27
  -7   3 -11    5.66    2.32
   7  -3  11   10.11    1.89
   7  -3  11   10.58    2.61
  -7   2 -11   12.77    2.72
   7  -2  11    9.34    2.30
   7  -2  11    8.43    1.74
  -7   1 -11    5.06    1.89
  -7   1 -11    2.87    1.44
   7  -1  11    5.23    1.30
  -7   0 -11   -0.60    1.22
  -7   0 -11   -0.33    1.31
  -7   0 -11   -0.44    0.75
  -7  -1 -11    3.16    1.58
  -7  -1 -11    2.83    1.07
  -7  -1 -11    5.36    2.21
  -7  -2 -11    8.30    2.74
  -7  -2 -11   12.72    2.58
  -7  -2 -11   10.93    1.73
  -7  -3 -11    6.49    1.71
  -7   2 -12    1.57    1.76
   7  -2  12    2.63    1.35
  -7   1 -12    1.23    1.35
   7  -1  12    3.20    1.21
  -7   0 -12   -0.70    1.70
  -7   0 -12   -0.12    0.82
  -7   0 -12    1.24    1.51
  -7  -1 -12    3.05    1.69
  -7  -1 -12    3.78    2.37
  -7  -2 -12    3.13    2.20
  -7  -2 -12    3.44    1.80
  -8   1  12    0.27    0.85
  -8   1  12    0.18    1.63
  -8   0  12  118.87    7.39
  -8   0  12  126.15    5.68
  -8  -1  12    0.68    1.69
  -8  -1  12   -0.05    1.02
   8   1 -12    2.89    2.32
  -8   2  11    3.25    1.74
   8  -2 -11    4.27    1.50
  -8   1  11    1.79    1.48
  -8   1  11   -0.65    0.68
   8  -1 -11    0.54    1.02
  -8   0  11    1.78    1.09
  -8   0  11    1.88    1.66
  -8   0  11    1.51    0.95
   8   0 -11    3.12    2.05
  -8  -1  11   -1.83    1.17
  -8  -1  11    0.69    1.08
   8   1 -11    0.62    1.79
  -8  -2  11    5.97    2.28
  -8  -2  11    5.45    1.49
   8   2 -11    4.59    2.28
   8   2 -11    4.50    2.16
  -8   3  10   22.08    3.30
   8  -3 -10   19.34    3.76
   8  -3 -10   21.39    2.65
  -8   2  10    1.82    1.48
   8  -2 -10    3.55    2.03
   8  -2 -10    3.10    1.25
  -8   1  10   47.54    4.10
  -8   1  10   62.16    4.77
  -8   1  10   54.41    3.03
   8  -1 -10   52.81    3.23
  -8   0  10   -0.08    1.26
  -8   0  10   -0.24    0.72
  -8   0  10    0.48    0.80
   8   0 -10    2.55    1.66
  -8  -1  10   55.61    4.37
  -8  -1  10   55.39    3.35
   8   1 -10   49.97    4.71
   8   1 -10   48.99    4.76
  -8  -2  10    3.14    1.17
  -8  -2  10    1.22    1.58
   8   2 -10    1.36    1.85
   8   2 -10    7.56    2.21
  -8  -3  10   26.32    2.54
  -8  -3  10   26.65    3.77
   8   3 -10   20.60    3.99
   8   3 -10   22.33    3.39
  -8   4   9   -0.18    1.42
   8  -4  -9   -1.38    1.61
   8  -4  -9   -0.22    1.07
  -8   3   9    2.22    1.66
   8  -3  -9    2.98    1.30
   8  -3  -9    2.03    1.84
  -8   2   9    5.82    1.96
   8  -2  -9    8.15    1.51
   8  -2  -9    7.91    2.36
  -8   1   9   13.08    2.44
  -8   1   9    7.93    1.31
  -8   1   9    9.84    1.38
   8  -1  -9    8.73    2.24
   8  -1  -9   13.25    1.75
  -8   0   9    1.33    0.86
  -8   0   9    1.57    1.48
  -8   0   9    0.06    0.72
   8   0  -9   -0.30    1.16
  -8  -1   9    9.75    2.06
  -8  -1   9   11.58    1.63
   8   1  -9   10.71    2.43
   8   1  -9    5.48    1.98
  -8  -2   9    5.07    1.23
  -8  -2   9    4.81    1.74
   8   2  -9    5.61    2.21
   8   2  -9    4.85    1.98
  -8  -3   9    1.45    1.50
   8   3  -9    1.25    1.81
   8   3  -9    2.93    1.51
  -8  -4   9   -1.35    1.35
   8   4  -9    0.53    1.77
   8   4  -9    0.17    1.14
  -8   4   8   28.97    3.81
  -8   4   8   30.65    3.00
  -8   4   8   36.04    3.52
   8  -4  -8   28.77    2.79
   8  -4  -8   26.15    4.30
   8  -4  -8   29.63    3.17
  -8   3   8    0.37    1.22
   8  -3  -8    1.33    1.05
   8  -3  -8    2.22    1.69
  -8   2   8    8.50    1.01
  -8   2   8    9.09    2.06
   8  -2  -8    6.92    1.34
   8  -2  -8   10.52    2.38
  -8   1   8    2.13    0.79
  -8   1   8    1.80    1.14
   8  -1  -8    3.36    1.53
   8  -1  -8    2.59    0.95
  -8   0   8   14.23    2.35
  -8   0   8   14.31    1.70
   8   0  -8   17.29    2.89
   8   0  -8   15.04    1.26
   8   0  -8   13.90    2.49
  -8  -1   8    2.26    1.27
  -8  -1   8    1.44    0.83
   8   1  -8    2.19    1.38
   8   1  -8    1.47    1.44
  -8  -2   8    7.39    1.98
  -8  -2   8    9.81    1.44
   8   2  -8    9.81    2.62
   8   2  -8    8.41    1.93
  -8  -3   8    0.37    1.33
   8   3  -8    1.51    1.66
   8   3  -8    2.31    1.31
   8   4  -8   26.60    2.83
   8   4  -8   31.59    4.65
  -8   5   7    0.05    1.31
  -8   5   7   -0.80    1.05
  -8   5   7    0.04    1.47
   8  -5  -7    1.43    1.99
   8  -5  -7    2.86    1.49
  -8   4   7    0.06    1.23
  -8   4   7    0.38    1.05
  -8   4   7    0.40    0.91
   8  -4  -7   -1.49    1.40
   8  -4  -7    0.82    1.20
   8  -4  -7    1.42    1.29
  -8   3   7    5.84    1.65
  -8   3   7    6.58    1.35
  -8   3   7    6.46    1.65
   8  -3  -7    4.04    1.82
   8  -3  -7    4.10    1.33
   8  -3  -7    5.52    1.25
  -8   2   7   10.38    1.00
  -8   2   7    9.15    1.86
   8  -2  -7    9.20    1.40
   8  -2  -7    6.54    1.92
  -8   1   7   13.81    1.43
  -8   1   7   14.79    2.26
  -8   1   7   14.68    1.53
   8  -1  -7   16.59    2.62
   8  -1  -7   17.57    1.73
  -8   0   7   20.85    1.81
  -8   0   7   21.29    2.77
   8   0  -7   24.02    1.53
   8   0  -7   23.74    2.58
   8   0  -7   17.01    2.55
   8   0  -7   19.92    2.74
  -8  -1   7   15.34    2.24
  -8  -1   7   14.89    1.62
   8   1  -7   10.56    2.12
   8   1  -7   14.74    2.42
  -8  -2   7   10.30    1.96
  -8  -2   7   10.13    1.38
   8   2  -7   11.74    2.09
   8   2  -7    9.01    2.28
  -8  -3   7    3.99    1.48
   8   3  -7    6.79    1.53
   8   3  -7    6.35    2.16
  -8  -4   7    1.14    1.10
   8   4  -7    1.40    0.99
   8   4  -7   -0.58    1.62
  -8  -5   7    0.10    1.66
   8   5  -7    2.47    2.25
   8   5  -7    0.86    1.02
  -8   5   6   44.04    3.83
  -8   5   6   48.42    4.09
  -8   5   6   43.84    3.96
   8  -5  -6   42.83    5.00
   8  -5  -6   42.34    3.49
  -8   4   6    3.75    1.58
  -8   4   6    2.45    1.14
  -8   4   6    2.88    1.29
   8  -4  -6    2.53    1.21
   8  -4  -6    1.84    1.51
  -8   3   6   24.13    2.58
  -8   3   6   26.13    2.29
  -8   3   6   23.21    2.54
   8  -3  -6   22.30    2.31
   8  -3  -6   17.05    2.76
   8  -3  -6   25.48    2.12
  -8   2   6    2.40    1.30
  -8   2   6    1.35    0.70
  -8   2   6    1.99    1.05
  -8   2   6    2.06    0.52
   8  -2  -6    0.54    1.14
   8  -2  -6    1.68    0.85
  -8   1   6    4.60    0.91
  -8   1   6    6.41    1.06
  -8   1   6    6.63    1.62
   8  -1  -6    6.13    1.64
   8  -1  -6    6.68    1.14
   8  -1  -6    6.49    1.46
  -8   0   6   -0.30    0.84
  -8   0   6    0.47    0.63
   8   0  -6    1.57    1.02
   8   0  -6    0.51    0.91
   8   0  -6    1.24    0.51
  -8  -1   6    6.80    1.14
  -8  -1   6    5.62    1.46
   8   1  -6    7.29    1.46
   8   1  -6    4.83    1.52
   8   1  -6    7.49    1.66
  -8  -2   6    1.92    1.14
   8   2  -6    1.57    0.99
   8   2  -6    2.66    1.58
  -8  -3   6   28.82    2.87
   8   3  -6   20.73    3.21
   8   3  -6   22.49    2.22
  -8  -4   6    1.75    1.39
   8   4  -6    0.75    1.46
   8   4  -6    0.95    0.91
  -8  -5   6   46.67    4.30
   8   5  -6   42.68    2.95
   8   5  -6   44.67    4.89
  -8   5   5    1.03    1.31
  -8   5   5    1.60    1.48
  -8   5   5    0.04    1.06
   8  -5  -5    0.91    1.72
   8  -5  -5    0.88    1.07
  -8   4   5    2.12    0.95
  -8   4   5    0.39    1.00
  -8   4   5    2.24    1.16
   8  -4  -5    0.62    1.35
   8  -4  -5    1.30    0.97
  -8   3   5    0.70    0.73
  -8   3   5   -0.38    0.86
  -8   3   5    1.51    0.96
   8  -3  -5    1.33    1.23
   8  -3  -5    0.54    0.65
   8  -3  -5    0.51    0.81
  -8   2   5   13.96    2.04
  -8   2   5   15.09    2.09
  -8   2   5   11.44    0.91
   8  -2  -5   16.34    1.84
   8  -2  -5   14.84    1.62
   8  -2  -5   13.61    2.30
  -8   1   5   15.09    1.99
  -8   1   5   14.75    1.29
  -8   1   5   15.07    1.38
  -8   1   5   14.97    1.19
   8  -1  -5   16.54    1.51
   8  -1  -5   17.53    1.78
   8  -1  -5   16.47    2.32
   8  -1  -5   14.56    2.17
  -8   0   5   24.65    2.29
  -8   0   5   24.61    1.80
   8   0  -5   29.34    2.53
   8   0  -5   27.05    2.42
   8   0  -5   24.72    1.45
   8   0  -5   23.26    2.32
  -8  -1   5   16.00    1.43
  -8  -1   5   13.50    1.87
   8   1  -5   12.12    2.02
   8   1  -5   16.59    2.19
  -8  -2   5   11.98    1.78
   8   2  -5   11.17    1.66
   8   2  -5    9.74    1.97
  -8  -3   5    0.10    0.82
   8   3  -5    0.33    1.23
   8   3  -5    0.31    0.65
  -8  -4   5    3.00    1.40
   8   4  -5    0.88    0.72
   8   4  -5    2.62    1.69
  -8  -5   5    1.77    1.40
   8   5  -5    1.66    0.85
   8   5  -5   -0.18    1.61
  -8   5   4    8.07    1.94
  -8   5   4    7.41    1.97
  -8   5   4    9.71    2.13
   8  -5  -4    3.68    2.08
  -8   4   4   36.46    3.20
  -8   4   4   40.41    3.39
  -8   4   4   36.79    3.11
   8  -4  -4   33.51    3.72
   8  -4  -4   34.71    2.46
  -8   3   4    3.66    1.09
  -8   3   4    4.41    1.34
  -8   3   4    4.45    1.29
   8  -3  -4    4.92    1.59
   8  -3  -4    4.67    1.01
   8  -3  -4    5.50    1.02
  -8   2   4  160.35    5.08
  -8   2   4  166.10    6.74
  -8   2   4  164.34    6.74
  -8   2   4  165.49    6.18
   8  -2  -4  153.11    7.15
   8  -2  -4  162.39    5.87
   8  -2  -4  159.49    5.91
  -8   1   4    8.12    1.00
  -8   1   4    9.15    1.48
  -8   1   4    7.82    1.40
  -8   1   4    8.00    0.99
  -8   1   4    9.19    1.15
   8  -1  -4   13.19    1.41
   8  -1  -4   12.45    1.25
   8  -1  -4   14.15    2.15
   8  -1  -4   13.04    1.83
  -8   0   4  317.30   11.03
  -8   0   4  325.02   10.12
  -8   0   4  303.75   10.21
   8   0  -4  350.67   11.27
   8   0  -4  343.40   11.31
   8   0  -4  315.57   11.26
   8   0  -4  306.03    9.77
  -8  -1   4    8.53    1.39
  -8  -1   4    7.31    1.00
   8   1  -4   12.04    1.57
   8   1  -4   13.71    1.57
   8   1  -4    8.98    1.66
   8   2  -4  147.73    6.93
   8   2  -4  148.78    5.91
  -8  -3   4    5.22    1.24
   8   3  -4    6.85    1.16
   8   3  -4    6.64    1.83
  -8  -4   4   38.98    3.16
   8   4  -4   38.54    3.81
   8   4  -4   38.18    2.35
  -8  -5   4    7.47    1.96
   8   5  -4    4.87    0.92
   8   5  -4    5.84    2.11
  -8   6   3    3.19    1.80
  -8   6   3    2.56    1.71
  -8   5   3    6.11    1.88
  -8   5   3    2.37    1.31
  -8   5   3    4.62    1.58
   8  -5  -3    3.04    1.95
  -8   4   3    3.97    1.26
  -8   4   3    2.93    1.34
  -8   4   3    1.72    1.05
   8  -4  -3    2.56    0.88
   8  -4  -3    5.06    1.73
  -8   3   3    3.43    1.28
  -8   3   3    1.82    0.91
  -8   3   3    2.42    1.08
   8  -3  -3    2.23    0.75
   8  -3  -3    1.75    0.73
   8  -3  -3    1.63    1.18
  -8   2   3    1.72    0.78
  -8   2   3    1.98    0.96
  -8   2   3    0.60    0.21
  -8   2   3    0.87    0.65
   8  -2  -3    2.19    0.67
   8  -2  -3    1.58    0.62
   8  -2  -3    1.40    0.96
  -8   1   3   29.09    1.75
  -8   1   3   29.26    1.68
  -8   1   3   27.46    2.10
  -8   1   3   26.57    1.52
  -8   1   3   28.81    2.20
   8  -1  -3   31.70    1.81
   8  -1  -3   27.68    2.08
   8  -1  -3   30.62    1.77
   8  -1  -3   27.32    2.25
   8  -1  -3   27.73    2.51
  -8   0   3    1.31    0.68
  -8   0   3    1.53    0.56
  -8   0   3    2.26    0.55
   8   0  -3    2.26    0.91
   8   0  -3    3.62    0.95
   8   0  -3    1.78    0.45
   8   0  -3    2.77    0.86
  -8  -1   3   28.24    1.96
   8   1  -3   26.80    2.10
   8   1  -3   25.76    2.26
   8   1  -3   29.26    2.09
  -8  -2   3    0.80    0.62
   8   2  -3    2.84    0.79
   8   2  -3    1.57    1.04
  -8  -3   3    3.95    1.05
   8   3  -3    1.07    1.09
   8   3  -3    3.11    0.79
  -8  -4   3    2.48    1.17
   8   4  -3    4.88    1.63
   8   4  -3    4.12    0.79
   8   5  -3    2.37    1.49
   8   5  -3    3.73    0.60
  -8   6   2   13.65    2.43
  -8   6   2   12.21    2.58
  -8   6   2   14.43    2.87
   8  -6  -2    5.51    2.63
  -8   5   2   19.73    2.75
  -8   5   2   22.34    2.95
  -8   5   2   27.80    2.92
   8  -5  -2   22.73    3.67
  -8   4   2   14.17    2.16
  -8   4   2   17.06    2.34
  -8   4   2   16.54    2.37
   8  -4  -2    8.34    1.15
   8  -4  -2    3.76    1.63
  -8   3   2   92.98    4.63
  -8   3   2   88.44    4.62
  -8   3   2   92.92    4.85
   8  -3  -2   92.34    5.18
   8  -3  -2   98.52    3.76
   8  -3  -2   99.95    3.86
  -8   2   2    5.68    0.43
  -8   2   2    7.12    1.29
  -8   2   2    6.12    1.15
  -8   2   2    5.05    1.20
   8  -2  -2    6.43    0.92
   8  -2  -2    4.40    0.80
   8  -2  -2    4.96    1.39
  -8   1   2  640.83   20.71
  -8   1   2  674.29   20.19
  -8   1   2  640.39   19.80
  -8   1   2  660.53   20.40
  -8   1   2  683.22   19.65
   8  -1  -2  708.25   19.89
   8  -1  -2  676.24   19.98
   8  -1  -2  673.54   21.41
   8  -1  -2  691.16   20.64
  -8   0   2    9.89    1.16
  -8   0   2    8.54    0.83
  -8   0   2    9.63    1.06
   8   0  -2   14.70    1.34
   8   0  -2   12.84    0.85
   8   0  -2   14.58    1.44
   8   0  -2   13.20    1.62
  -8  -1   2  665.07   19.89
   8   1  -2  658.98   20.62
   8   1  -2  635.47   20.01
   8   1  -2  683.06   20.48
  -8  -2   2    5.38    0.95
   8   2  -2    5.02    0.87
   8   2  -2    5.76    0.88
   8   2  -2    4.81    1.23
  -8  -3   2   92.03    4.30
   8   3  -2   99.10    3.76
   8   3  -2  101.21    5.25
  -8  -4   2   13.37    1.86
   8   4  -2    9.87    2.07
   8   4  -2   10.71    1.77
   8   4  -2    8.72    0.88
   8   5  -2   22.45    3.17
  -8   6   1    1.45    1.22
  -8   6   1    2.26    1.69
  -8   6   1    0.85    1.40
  -8   5   1    0.93    1.14
  -8   5   1   -0.42    0.92
  -8   5   1    2.42    1.39
   8  -5  -1    2.14    1.64
  -8   4   1    8.05    1.72
  -8   4   1    4.94    1.44
  -8   4   1    3.74    1.26
   8  -4  -1    3.47    1.50
  -8   3   1    3.22    1.03
  -8   3   1    6.46    1.46
  -8   3   1    5.29    1.40
   8  -3  -1    5.03    0.84
   8  -3  -1    6.57    1.64
   8  -3  -1    5.28    0.83
  -8   2   1    7.87    0.40
  -8   2   1    5.91    1.13
  -8   2   1    4.20    1.08
  -8   2   1    7.64    1.15
   8  -2  -1    8.25    0.93
   8  -2  -1    6.76    1.42
   8  -2  -1    5.57    0.87
  -8   1   1    7.18    0.95
  -8   1   1    4.92    0.59
  -8   1   1    8.33    1.13
  -8   1   1    7.82    1.23
  -8   1   1    6.57    0.93
   8  -1  -1    8.60    1.21
   8  -1  -1    6.51    0.81
   8  -1  -1    6.81    0.87
   8  -1  -1    7.87    1.50
  -8   0   1   37.92    1.69
  -8   0   1   39.03    1.90
  -8   0   1   35.68    1.87
  -8   0   1   38.12    1.79
   8   0  -1   40.63    2.12
   8   0  -1   35.50    2.40
   8   0  -1   37.48    2.10
  -8  -1   1    6.86    0.87
  -8  -1   1    6.70    0.74
   8   1  -1    7.75    1.27
   8   1  -1    5.37    0.85
   8   1  -1    7.83    1.26
  -8  -2   1    8.09    1.00
   8   2  -1    7.30    0.89
   8   2  -1    7.33    0.93
   8   2  -1    6.13    1.28
  -8  -3   1    2.70    0.85
   8   3  -1    5.71    0.73
   8   3  -1    5.61    1.09
   8   3  -1    3.74    1.24
   8   3  -1    4.92    0.70
   8   3  -1    6.44    1.02
   8   4  -1    4.05    1.44
   8   4  -1    4.77    0.55
   8   5  -1    2.44    1.48
  -8   6   0    1.11    1.48
  -8   6   0    0.79    1.01
  -8   6   0    0.93    1.51
  -8   5   0    4.70    1.49
  -8   5   0    3.18    1.26
  -8   5   0    2.29    1.47
   8  -5   0    4.12    1.88
  -8   4   0   31.25    3.07
  -8   4   0   29.06    2.59
  -8   4   0   31.01    2.74
   8  -4   0   32.59    3.17
  -8   3   0   26.64    2.16
  -8   3   0   26.60    2.54
  -8   3   0   24.64    2.22
   8  -3   0   24.27    2.65
   8  -3   0   24.59    1.49
  -8   2   0  413.78   13.16
  -8   2   0  403.24   13.41
  -8   2   0  406.65   13.52
   8  -2   0  413.06   12.40
   8  -2   0  418.80   12.69
   8  -2   0  409.05   14.08
  -8   1   0   16.37    1.22
  -8   1   0   15.32    0.91
  -8   1   0   14.69    1.38
  -8   1   0   15.08    1.40
  -8   1   0   16.91    1.23
   8  -1   0   17.04    1.40
   8  -1   0   14.89    1.15
   8  -1   0   14.20    1.67
   8  -1   0   16.20    1.10
  -8   0   0  474.89   14.06
  -8   0   0  455.78   13.77
  -8   0   0  469.71   13.92
  -8   0   0  456.12   13.57
  -8   0   0  448.62   13.53
   8   0   0  451.59   14.59
   8   0   0  452.04   14.12
  -8  -1   0   16.33    1.47
  -8  -1   0   15.52    1.20
   8   1   0   16.99    1.54
   8   1   0   16.29    1.24
  -8  -2   0  424.17   12.90
   8   2   0  453.02   12.97
   8   2   0  408.10   12.92
  -8  -3   0   25.49    1.82
   8   3   0   26.94    1.41
   8   3   0   26.45    1.89
   8   3   0   25.07    1.35
   8   3   0   24.94    1.84
  -8  -4   0   31.41    2.84
   8   4   0   38.12    2.60
   8   4   0   32.81    1.45
  -8   6  -1    4.71    2.00
  -8   6  -1    1.19    1.13
  -8   6  -1    0.86    1.30
  -8   5  -1    2.42    1.38
  -8   5  -1    1.16    1.03
  -8   5  -1    3.33    1.41
  -8   4  -1    1.77    1.10
  -8   4  -1    3.46    1.17
  -8   4  -1    5.88    1.62
   8  -4   1    7.37    1.85
  -8   3  -1    6.55    1.51
  -8   3  -1    3.64    1.08
  -8   3  -1    5.15    1.19
   8  -3   1    2.95    0.68
   8  -3   1    3.72    1.33
  -8   2  -1    7.51    1.16
  -8   2  -1    7.10    0.74
  -8   2  -1    4.89    1.07
  -8   2  -1    9.02    1.38
   8  -2   1    6.45    1.37
   8  -2   1    6.44    0.91
   8  -2   1    8.14    0.85
  -8   1  -1    8.40    1.03
  -8   1  -1    6.87    0.62
  -8   1  -1    7.55    1.10
  -8   1  -1    6.93    0.90
  -8   1  -1    7.44    1.15
   8  -1   1    8.23    0.98
   8  -1   1    7.35    0.85
   8  -1   1    8.24    1.13
   8  -1   1    7.04    1.26
  -8   0  -1   36.04    1.92
  -8   0  -1   37.14    1.59
  -8   0  -1   37.89    1.83
  -8   0  -1   40.09    2.09
   8   0   1   36.11    1.55
   8   0   1   38.31    2.03
   8   0   1   36.03    2.24
  -8  -1  -1    6.10    0.53
  -8  -1  -1    5.99    0.96
   8   1   1    6.87    0.90
  -8  -2  -1    7.47    1.21
  -8  -2  -1    8.06    0.72
   8   2   1    8.32    0.86
   8   2   1    7.94    0.91
   8   2   1    8.18    0.85
   8   2   1    8.75    0.79
  -8  -3  -1    5.22    1.28
   8   3   1    3.91    0.65
  -8  -4  -1    4.53    1.32
   8   4   1    5.34    0.68
   8   4   1    5.91    1.27
   8   5   1    1.38    0.44
   8   5   1   -0.05    0.92
  -8  -6  -1   -0.34    1.51
  -8   6  -2    6.47    1.54
  -8   6  -2    9.05    2.43
  -8   6  -2    8.50    2.56
  -8   6  -2    6.30    1.51
  -8   5  -2   31.28    3.91
  -8   5  -2   22.78    2.63
  -8   5  -2   23.15    2.39
  -8   4  -2    8.08    1.47
  -8   4  -2    9.50    1.78
  -8   4  -2   10.66    2.20
  -8   3  -2  108.62    5.38
  -8   3  -2   98.25    4.69
  -8   3  -2  104.39    4.67
   8  -3   2   96.81    5.11
   8  -3   2  100.28    3.77
  -8   2  -2    4.13    0.96
  -8   2  -2    4.47    1.11
  -8   2  -2    6.14    0.91
   8  -2   2    7.56    0.99
   8  -2   2    6.30    0.80
   8  -2   2    6.79    1.26
  -8   1  -2  683.74   20.26
  -8   1  -2  670.73   20.88
  -8   1  -2  684.14   20.25
  -8   1  -2  684.51   20.63
  -8   1  -2  685.97   20.60
  -8   1  -2  679.09   19.75
  -8   1  -2  686.79   20.31
   8  -1   2  700.35   20.69
   8  -1   2  681.82   20.83
   8  -1   2  665.41   19.95
  -8   0  -2   12.51    0.82
  -8   0  -2   13.45    1.10
  -8   0  -2   12.07    1.24
  -8   0  -2   14.26    1.18
   8   0   2    7.71    1.07
   8   0   2   10.11    1.22
   8   0   2    9.03    0.78
  -8  -1  -2  654.06   19.85
  -8  -1  -2  661.94   18.92
   8   1   2  647.36   19.61
  -8  -2  -2    4.42    1.03
   8   2   2    5.14    0.81
  -8  -3  -2   95.60    4.46
   8   3   2   88.04    3.52
  -8  -4  -2    7.32    1.56
   8   4   2   14.54    1.17
   8   5   2   19.48    1.42
   8   5   2   23.70    2.82
  -8  -6  -2    8.75    2.46
   8   6   2   12.17    1.27
  -8   6  -3    1.22    1.63
  -8   6  -3   -1.44    1.60
  -8   5  -3    3.37    1.58
  -8   5  -3    3.89    1.19
  -8   5  -3    2.14    1.72
  -8   5  -3    2.08    1.08
  -8   4  -3    4.93    1.46
  -8   4  -3    2.44    1.03
  -8   4  -3    4.21    1.67
  -8   4  -3    4.72    1.21
  -8   3  -3    1.84    0.91
  -8   3  -3    2.09    0.99
  -8   3  -3    3.23    1.01
  -8   3  -3    1.90    1.11
   8  -3   3    3.86    0.79
  -8   2  -3    1.39    0.71
  -8   2  -3    2.18    0.71
  -8   2  -3    1.32    0.80
  -8   2  -3    2.97    0.86
  -8   2  -3    3.72    0.94
   8  -2   3    0.77    0.70
   8  -2   3    1.86    0.64
   8  -2   3    0.80    0.48
  -8   1  -3   28.09    2.12
  -8   1  -3   29.30    1.83
  -8   1  -3   27.52    1.69
  -8   1  -3   30.49    1.98
  -8   1  -3   25.84    1.33
   8  -1   3   29.07    1.56
   8  -1   3   30.58    1.94
   8  -1   3   28.65    1.93
  -8   0  -3    3.03    0.71
  -8   0  -3    2.64    0.71
  -8   0  -3    2.04    0.63
  -8   0  -3    2.27    0.45
  -8   0  -3    1.12    0.65
   8   0   3    1.42    0.43
   8   0   3    1.71    0.65
   8   0   3    1.38    0.38
  -8  -1  -3   27.94    1.32
  -8  -1  -3   26.34    1.83
   8   1   3   27.72    1.80
  -8  -2  -3    3.22    0.90
   8   2   3    0.99    0.55
  -8  -3  -3    4.49    1.22
   8   3   3    2.15    0.68
  -8  -4  -3    1.67    1.03
   8   4   3    2.91    0.78
   8   5   3    4.20    0.89
  -8   5  -4    5.43    2.10
  -8   5  -4    3.41    1.25
  -8   5  -4    4.49    1.69
  -8   4  -4   46.61    3.55
  -8   4  -4   37.76    2.82
  -8   4  -4   40.58    3.81
  -8   3  -4    6.60    1.37
  -8   3  -4    6.01    1.29
  -8   3  -4    4.87    1.26
  -8   3  -4    3.81    1.42
   8  -3   4    4.94    0.89
  -8   2  -4  164.68    6.48
  -8   2  -4  172.62    6.55
  -8   2  -4  166.53    7.04
  -8   2  -4  169.79    6.37
   8  -2   4  169.59    5.82
  -8   1  -4   13.07    0.92
  -8   1  -4   10.24    1.49
  -8   1  -4   13.43    1.24
  -8   1  -4   12.14    1.34
  -8   1  -4   14.52    1.43
  -8   1  -4   12.05    1.28
   8  -1   4    7.57    1.12
   8  -1   4   10.96    1.48
  -8   0  -4  265.49    8.24
  -8   0  -4  257.37    8.73
  -8   0  -4  270.95    8.99
  -8   0  -4  261.27    9.01
  -8   0  -4  256.99    9.30
   8   0   4  269.41    8.46
   8   0   4  267.23    8.24
   8   0   4  275.21    9.11
  -8  -1  -4   12.79    1.30
  -8  -1  -4   12.56    0.91
  -8  -1  -4   11.83    1.70
   8   1   4    8.13    1.22
  -8  -2  -4  163.03    6.23
   8   2   4  154.87    5.90
  -8  -3  -4    5.45    1.28
   8   3   4    4.20    0.92
  -8  -4  -4   40.04    2.90
   8   4   4   36.61    2.34
  -8  -5  -4    4.09    1.79
   8   5   4    8.40    1.31
  -8   5  -5    1.76    0.98
  -8   5  -5    1.41    1.35
  -8   5  -5    1.53    1.70
   8  -5   5    1.49    1.62
  -8   4  -5    1.70    0.91
  -8   4  -5    0.54    0.98
  -8   4  -5    0.24    1.22
   8  -4   5    1.51    1.12
   8  -4   5    1.63    0.79
  -8   3  -5    0.69    0.73
  -8   3  -5    1.34    0.95
  -8   3  -5    0.95    1.07
  -8   3  -5    0.82    0.82
   8  -3   5   -0.03    0.89
   8  -3   5    1.18    0.61
  -8   2  -5   15.10    1.69
  -8   2  -5   14.23    1.83
  -8   2  -5   15.31    1.73
  -8   2  -5   14.81    2.20
   8  -2   5   14.93    1.41
   8  -2   5   11.55    1.68
  -8   1  -5   17.74    1.54
  -8   1  -5   17.56    1.72
  -8   1  -5   18.01    1.73
  -8   1  -5   13.87    1.38
  -8   1  -5   15.19    1.98
  -8   1  -5   15.65    1.09
   8  -1   5   15.50    1.33
   8  -1   5   14.91    1.51
  -8   0  -5   24.65    1.42
  -8   0  -5   22.12    2.15
  -8   0  -5   20.45    1.77
  -8   0  -5   26.84    2.04
  -8   0  -5   22.52    1.87
   8   0   5   24.27    1.99
   8   0   5   17.22    1.52
   8   0   5   24.95    1.43
  -8  -1  -5   14.82    1.53
  -8  -1  -5   12.10    1.78
  -8  -1  -5   15.64    1.14
   8   1   5   15.01    1.60
  -8  -2  -5   14.86    1.82
   8   2   5   13.97    1.55
  -8  -3  -5   -0.69    0.64
   8   3   5    0.29    0.60
   8   4   5    0.26    0.64
  -8  -5  -5    1.17    1.40
   8   5   5    1.03    0.78
  -8   5  -6   42.54    4.05
  -8   5  -6   48.64    4.93
   8  -5   6   39.86    4.20
  -8   4  -6    1.03    1.41
  -8   4  -6    2.82    1.05
  -8   4  -6    1.16    1.24
   8  -4   6    3.78    1.61
   8  -4   6    3.12    1.00
  -8   3  -6   23.41    2.40
  -8   3  -6   24.95    2.35
  -8   3  -6   24.04    2.45
  -8   3  -6   29.79    3.36
   8  -3   6   24.76    2.68
   8  -3   6   25.31    1.86
  -8   2  -6    2.14    1.01
  -8   2  -6    2.26    0.96
  -8   2  -6    4.17    1.33
  -8   2  -6    2.67    0.95
   8  -2   6    2.15    1.02
   8  -2   6    2.68    0.81
  -8   1  -6    5.26    1.22
  -8   1  -6    6.66    1.20
  -8   1  -6    5.65    1.43
  -8   1  -6    5.16    1.31
  -8   1  -6    5.74    0.78
   8  -1   6    5.31    0.93
   8  -1   6    6.24    1.21
  -8   0  -6    0.71    0.45
  -8   0  -6    1.05    0.84
  -8   0  -6    2.38    0.92
  -8   0  -6    0.94    0.95
   8   0   6    0.73    0.65
   8   0   6    0.07    0.70
  -8  -1  -6    5.19    1.24
  -8  -1  -6    5.58    0.84
  -8  -1  -6    6.62    1.55
   8   1   6   10.15    1.56
  -8  -2  -6    1.46    0.80
  -8  -2  -6    1.60    0.91
   8   2   6    0.81    0.71
  -8  -3  -6   22.14    2.23
   8   3   6   24.80    2.20
   8   4   6    2.60    1.02
  -8  -5  -6   38.43    4.22
   8   5   6   39.18    2.93
  -8   5  -7    0.62    1.02
  -8   5  -7   -1.11    1.57
  -8   5  -7   -1.35    1.39
   8  -5   7    1.04    1.67
  -8   4  -7    0.48    1.19
  -8   4  -7   -0.59    0.85
  -8   4  -7    0.52    1.47
   8  -4   7    0.26    1.08
   8  -4   7    1.05    0.87
  -8   3  -7    5.40    1.42
  -8   3  -7    4.16    1.46
  -8   3  -7    3.25    1.43
  -8   3  -7    5.16    1.72
   8  -3   7    5.43    1.62
   8  -3   7    5.09    1.09
  -8   2  -7    7.08    1.74
  -8   2  -7    9.04    1.69
  -8   2  -7   11.31    1.77
   8  -2   7   10.07    1.82
   8  -2   7   11.16    1.47
  -8   1  -7   15.76    1.29
  -8   1  -7   19.31    2.65
  -8   1  -7   18.28    2.53
  -8   1  -7   16.45    2.32
   8  -1   7   15.66    1.53
   8  -1   7   16.33    1.90
  -8   0  -7   20.83    2.14
  -8   0  -7   21.78    1.54
  -8   0  -7   20.21    2.52
  -8   0  -7   21.56    2.22
   8   0   7   22.49    1.57
  -8  -1  -7   13.66    1.29
  -8  -1  -7   15.06    2.29
  -8  -1  -7   12.35    1.89
   8   1   7   15.16    2.08
  -8  -2  -7    9.42    1.64
  -8  -2  -7   11.65    1.28
   8   2   7   10.53    1.78
  -8  -3  -7    4.88    1.41
   8   3   7    4.79    1.30
  -8  -4  -7   -0.24    1.15
   8   4   7    0.80    0.88
  -8  -5  -7   -1.33    1.26
   8   5   7    1.11    1.00
  -8   4  -8   31.16    3.04
  -8   4  -8   29.62    3.35
  -8   4  -8   33.31    4.17
   8  -4   8   29.94    3.81
   8  -4   8   34.27    2.63
  -8   3  -8    1.62    1.45
  -8   3  -8    3.63    1.36
  -8   3  -8    1.04    1.04
   8  -3   8    0.10    0.80
   8  -3   8    1.33    1.30
  -8   2  -8    7.76    1.72
  -8   2  -8    5.67    1.73
  -8   2  -8    9.19    1.82
   8  -2   8   11.50    1.56
   8  -2   8    8.33    1.84
  -8   1  -8    2.12    1.16
  -8   1  -8    1.37    0.58
  -8   1  -8    3.42    1.40
   8  -1   8    1.43    1.02
   8  -1   8    1.23    0.70
  -8   0  -8   18.54    2.55
  -8   0  -8   15.08    1.41
  -8   0  -8   16.02    2.23
  -8   0  -8   16.77    2.04
   8   0   8   18.55    1.49
  -8  -1  -8    1.56    1.02
  -8  -1  -8    2.81    0.80
  -8  -1  -8    0.79    1.28
   8   1   8    0.82    0.96
  -8  -2  -8    7.92    1.67
  -8  -2  -8    8.50    1.17
   8   2   8    7.82    1.62
  -8  -3  -8    2.97    1.28
   8   3   8    3.21    1.30
  -8  -4  -8   22.48    3.37
   8   4   8   31.20    2.93
  -8   4  -9    0.42    1.37
  -8   4  -9   -1.03    1.43
  -8   4  -9   -0.66    1.03
   8  -4   9   -0.06    0.98
   8  -4   9    0.84    1.59
  -8   3  -9    1.51    1.23
  -8   3  -9    3.18    1.74
  -8   3  -9    2.93    1.50
   8  -3   9    1.75    1.49
   8  -3   9    2.10    1.07
  -8   2  -9    8.90    2.06
  -8   2  -9    5.61    1.79
   8  -2   9    7.24    1.42
   8  -2   9    5.00    1.73
  -8   1  -9    8.69    1.87
  -8   1  -9   10.48    1.20
  -8   1  -9   11.47    2.38
   8  -1   9   11.75    1.55
  -8   0  -9    1.76    1.36
  -8   0  -9    1.55    1.15
  -8   0  -9    1.09    0.71
  -8   0  -9    0.77    1.06
  -8  -1  -9    7.75    2.14
  -8  -1  -9    8.54    1.83
  -8  -1  -9    8.00    1.23
  -8  -2  -9    7.82    1.80
  -8  -2  -9    4.23    1.55
  -8  -2  -9    2.51    1.69
  -8  -2  -9    4.94    1.08
   8   2   9    4.63    1.58
  -8  -3  -9    3.16    1.57
  -8  -3  -9    1.25    1.16
   8   3   9    3.19    1.47
   8   4   9    0.19    1.05
  -8   3 -10   18.61    3.17
  -8   3 -10   21.84    3.14
  -8   3 -10   17.29    3.32
   8  -3  10   25.15    3.61
   8  -3  10   24.30    2.57
  -8   2 -10    5.04    1.91
  -8   2 -10    5.93    1.98
   8  -2  10    2.38    1.10
   8  -2  10    1.53    1.49
  -8   1 -10   56.78    4.31
  -8   1 -10   52.72    4.45
   8  -1  10   57.73    3.24
  -8   0 -10    1.81    1.46
  -8   0 -10    5.22    1.68
  -8   0 -10    2.85    1.83
  -8   0 -10    4.15    1.03
  -8  -1 -10   53.04    3.02
  -8  -1 -10   53.57    4.86
  -8  -1 -10   52.25    4.01
  -8  -2 -10    5.80    1.72
  -8  -2 -10    4.77    2.08
  -8  -2 -10    4.50    1.09
  -8  -3 -10   26.84    3.78
   8   3  10   25.85    3.43
  -8   2 -11    9.12    2.38
  -8   2 -11    9.53    2.38
   8  -2  11    6.84    1.57
  -8   1 -11    1.57    1.41
  -8   1 -11    0.63    1.45
   8  -1  11    1.30    0.98
  -8   0 -11    3.02    1.57
  -8   0 -11    2.24    0.99
  -8   0 -11    4.39    2.03
  -8  -1 -11    0.76    0.83
  -8  -1 -11    0.17    1.76
  -8  -1 -11   -0.34    1.08
  -8  -2 -11    3.46    1.21
  -8  -2 -11    5.33    1.81
  -8  -2 -11    4.63    2.26
  -8   1 -12    4.71    1.87
  -8   1 -12    3.62    1.99
  -8   0 -12  164.15    8.75
  -8   0 -12  144.69    7.95
  -8  -1 -12    4.63    1.86
  -8  -1 -12    1.36    2.07
  -8  -1 -12    5.13    2.04
  -9   1  12    2.21    1.82
  -9   0  12    0.30    1.04
  -9   0  12   -1.30    1.39
  -9  -1  12    2.64    1.94
  -9  -1  12    3.48    1.37
   9   1 -12    3.23    2.35
  -9   2  11    8.47    2.46
   9  -2 -11    8.28    1.77
  -9   1  11    1.02    1.37
  -9   1  11    0.36    0.83
   9  -1 -11    0.73    0.96
  -9   0  11   -0.19    0.76
  -9   0  11   -0.35    0.90
  -9   0  11   -2.23    1.22
   9   0 -11    0.31    1.66
  -9  -1  11   -1.01    1.35
  -9  -1  11    0.08    1.05
   9   1 -11   -0.27    1.67
  -9  -2  11   10.05    1.88
  -9  -2  11   11.23    2.66
   9   2 -11   13.02    3.40
   9   2 -11    7.90    2.62
  -9   3  10    2.23    1.58
   9  -3 -10    1.64    2.13
   9  -3 -10    2.28    1.69
  -9   2  10    9.05    2.36
   9  -2 -10   10.69    2.87
   9  -2 -10    9.01    1.77
  -9   1  10    0.14    0.94
  -9   1  10    0.50    0.76
  -9   1  10    0.84    1.40
   9  -1 -10    0.11    0.85
  -9   0  10    0.36    0.76
  -9   0  10   -0.77    0.77
  -9   0  10    0.37    1.25
   9   0 -10   -0.84    1.36
  -9  -1  10    0.30    0.98
  -9  -1  10   -0.40    1.27
   9   1 -10    0.35    1.54
   9   1 -10    1.17    1.74
  -9  -2  10    7.96    2.16
  -9  -2  10   11.14    1.75
   9   2 -10    8.62    2.56
   9   2 -10   10.08    2.90
  -9  -3  10    4.11    1.35
  -9  -3  10    4.65    2.11
   9   3 -10    7.30    2.30
   9   3 -10    3.11    2.07
  -9   4   9    9.20    2.41
   9  -4  -9    2.06    2.18
   9  -4  -9    1.46    2.29
  -9   3   9   11.40    2.50
   9  -3  -9   14.24    2.11
   9  -3  -9   12.58    3.08
  -9   2   9    3.70    1.78
   9  -2  -9    5.06    1.33
   9  -2  -9    5.10    2.15
  -9   1   9    1.61    1.46
  -9   1   9    1.58    0.80
  -9   1   9   -0.17    0.71
   9  -1  -9    2.88    1.66
   9  -1  -9    0.49    0.83
  -9   0   9   -0.53    0.71
  -9   0   9    0.91    1.26
  -9   0   9    0.66    0.73
   9   0  -9   -0.63    1.29
  -9  -1   9    1.74    0.92
  -9  -1   9    2.50    1.44
   9   1  -9    0.77    1.49
   9   1  -9    2.94    1.63
  -9  -2   9    6.53    1.84
  -9  -2   9    6.28    1.34
   9   2  -9    2.70    1.89
   9   2  -9    3.88    1.73
  -9  -3   9   11.91    2.56
   9   3  -9   12.80    3.22
   9   3  -9   16.74    2.82
  -9  -4   9    6.80    2.36
   9   4  -9   10.90    3.29
   9   4  -9    3.04    1.67
  -9   4   8   20.51    3.93
  -9   4   8   18.39    3.05
  -9   4   8   20.37    3.22
   9  -4  -8   15.79    2.32
   9  -4  -8   19.92    4.01
  -9   3   8    5.25    1.88
   9  -3  -8    3.76    1.29
   9  -3  -8    2.94    1.84
  -9   2   8    3.16    0.74
  -9   2   8    3.96    1.50
   9  -2  -8    2.88    1.74
   9  -2  -8    3.77    1.17
  -9   1   8    1.15    1.24
  -9   1   8    0.74    0.71
  -9   1   8    1.88    0.74
   9  -1  -8    1.37    0.83
   9  -1  -8    2.70    1.48
  -9   0   8   -0.58    0.63
  -9   0   8   -0.10    0.61
  -9   0   8    0.35    0.91
   9   0  -8   -1.65    1.11
   9   0  -8    0.35    1.22
  -9  -1   8    0.40    0.72
  -9  -1   8    0.05    1.06
   9   1  -8    1.11    1.35
   9   1  -8    1.77    1.40
  -9  -2   8    3.45    1.09
  -9  -2   8    3.09    1.43
   9   2  -8    3.75    1.51
   9   2  -8    4.83    2.12
  -9  -3   8    4.44    1.68
   9   3  -8    6.38    1.79
   9   3  -8    2.61    1.63
  -9  -4   8   19.76    3.24
   9   4  -8   20.91    2.83
   9   4  -8   17.65    3.66
  -9   5   7    2.89    1.86
  -9   5   7    1.32    1.26
   9  -5  -7    0.39    1.43
  -9   4   7    4.38    1.41
  -9   4   7    2.43    1.44
  -9   4   7    3.56    1.54
   9  -4  -7    3.35    2.03
   9  -4  -7    5.64    1.64
   9  -4  -7    5.28    1.39
  -9   3   7   13.39    2.28
  -9   3   7   14.73    1.92
  -9   3   7   16.90    2.61
   9  -3  -7   11.39    1.69
   9  -3  -7   12.62    2.81
   9  -3  -7    8.79    1.73
  -9   2   7    9.21    1.90
  -9   2   7    9.23    1.04
   9  -2  -7   12.76    2.55
   9  -2  -7   10.79    1.58
  -9   1   7    8.12    1.26
  -9   1   7    4.74    1.47
  -9   1   7    8.76    1.21
   9  -1  -7    7.67    1.92
   9  -1  -7    7.20    1.24
  -9   0   7   -0.13    0.66
  -9   0   7    0.56    0.62
  -9   0   7   -0.92    0.85
   9   0  -7   -0.42    0.97
   9   0  -7    0.28    1.05
   9   0  -7    0.26    0.42
   9   0  -7   -0.39    0.94
  -9  -1   7    8.75    1.89
  -9  -1   7    7.19    1.26
   9   1  -7    8.18    2.07
   9   1  -7    6.19    1.85
  -9  -2   7    8.83    1.35
  -9  -2   7    8.74    1.78
   9   2  -7   11.82    2.20
   9   2  -7   12.16    2.43
  -9  -3   7   12.77    2.27
   9   3  -7   10.56    2.65
   9   3  -7   12.55    2.15
  -9  -4   7    2.89    1.71
   9   4  -7    7.66    1.69
   9   4  -7    5.73    2.30
  -9  -5   7    2.55    1.65
  -9   5   6   12.74    2.32
  -9   5   6   13.50    2.59
  -9   5   6   14.77    2.73
   9  -5  -6    9.29    3.02
   9  -5  -6   15.77    2.38
  -9   4   6    6.30    1.63
  -9   4   6    7.24    1.95
  -9   4   6    6.10    1.74
   9  -4  -6    8.10    2.41
   9  -4  -6    9.77    1.74
  -9   3   6    9.40    1.57
  -9   3   6   13.64    2.28
  -9   3   6   11.71    2.01
   9  -3  -6    9.00    1.69
   9  -3  -6    8.82    1.50
   9  -3  -6   10.99    2.46
  -9   2   6    8.64    1.26
  -9   2   6    6.78    0.84
  -9   2   6    5.69    1.61
  -9   2   6    3.57    1.32
   9  -2  -6    6.30    1.90
   9  -2  -6    6.21    1.23
  -9   1   6   11.76    2.06
  -9   1   6   10.79    1.23
  -9   1   6   10.98    1.40
   9  -1  -6   10.89    2.84
   9  -1  -6   14.46    2.44
   9  -1  -6   10.62    1.38
  -9   0   6   -0.35    0.47
  -9   0   6   -0.54    0.56
  -9   0   6   -0.19    0.86
   9   0  -6   -0.72    0.85
   9   0  -6    0.30    0.44
   9   0  -6    0.64    1.02
   9   0  -6    0.21    0.85
  -9  -1   6   11.71    1.95
  -9  -1   6   10.18    1.39
   9   1  -6   10.58    2.07
   9   1  -6    9.51    1.86
  -9  -2   6    6.68    1.54
   9   2  -6    7.46    1.68
   9   2  -6    3.07    1.52
  -9  -3   6   10.69    2.07
   9   3  -6   10.90    2.62
   9   3  -6    8.71    1.68
  -9  -4   6    4.69    1.62
   9   4  -6    9.27    1.62
   9   4  -6    9.28    2.65
  -9  -5   6   12.87    2.78
   9   5  -6    8.38    2.75
   9   5  -6   11.71    1.79
  -9   5   5    4.00    1.80
  -9   5   5    1.85    1.30
  -9   5   5    4.03    1.79
   9  -5  -5    1.96    2.15
   9  -5  -5    4.53    1.46
  -9   4   5   15.73    2.41
  -9   4   5   17.78    2.36
  -9   4   5   25.99    2.89
   9  -4  -5   14.25    1.94
   9  -4  -5   16.45    3.25
  -9   3   5    8.13    1.56
  -9   3   5    9.28    1.89
  -9   3   5    7.91    1.65
   9  -3  -5    9.63    1.51
   9  -3  -5    6.38    1.19
   9  -3  -5    8.51    2.18
  -9   2   5    3.92    0.63
  -9   2   5    4.61    1.03
  -9   2   5    3.45    1.26
  -9   2   5    4.50    1.27
   9  -2  -5    3.04    1.44
   9  -2  -5    2.57    0.98
   9  -2  -5    3.15    0.90
  -9   1   5   11.87    2.01
  -9   1   5   12.02    1.32
  -9   1   5   13.59    1.28
  -9   1   5   12.86    1.87
   9  -1  -5   16.08    2.44
   9  -1  -5   12.98    1.43
   9  -1  -5   16.84    1.81
   9  -1  -5   13.68    2.18
  -9   0   5    0.49    0.63
  -9   0   5    0.14    0.46
  -9   0   5    0.52    0.82
   9   0  -5    0.13    0.85
   9   0  -5   -0.44    0.83
   9   0  -5   -0.59    0.30
   9   0  -5   -0.40    0.75
  -9  -1   5   14.80    1.46
  -9  -1   5   13.01    1.88
   9   1  -5   11.05    2.07
   9   1  -5   15.79    2.15
   9   1  -5   16.12    1.86
  -9  -2   5    4.20    1.25
   9   2  -5    2.84    1.11
   9   2  -5    2.65    1.31
  -9  -3   5    7.18    1.63
   9   3  -5    7.19    1.38
   9   3  -5    7.20    1.99
  -9  -4   5   19.82    2.65
   9   4  -5   18.41    1.95
   9   4  -5   16.91    3.12
   9   5  -5    3.49    1.07
   9   5  -5    3.79    2.02
  -9   5   4    9.85    2.23
  -9   5   4   10.26    2.24
  -9   5   4    9.49    2.15
   9  -5  -4   11.23    2.99
   9  -5  -4   13.75    1.93
  -9   4   4    5.11    1.68
  -9   4   4    8.66    1.92
  -9   4   4    7.56    1.71
   9  -4  -4    2.63    1.06
   9  -4  -4    1.78    1.63
  -9   3   4   18.32    2.19
  -9   3   4   19.24    2.42
  -9   3   4   16.06    2.19
   9  -3  -4   17.96    1.74
   9  -3  -4   19.36    1.82
   9  -3  -4   18.59    2.85
  -9   2   4    2.74    0.48
  -9   2   4    3.23    1.07
  -9   2   4    3.91    1.22
  -9   2   4    3.31    0.91
   9  -2  -4    1.31    1.21
   9  -2  -4    1.91    0.79
   9  -2  -4    2.11    0.83
  -9   1   4    3.34    0.69
  -9   1   4    3.89    0.76
  -9   1   4    3.35    0.99
  -9   1   4    3.50    0.83
  -9   1   4    3.22    0.99
   9  -1  -4    4.72    1.43
   9  -1  -4    6.70    1.49
   9  -1  -4    4.53    0.85
   9  -1  -4    5.53    1.11
  -9   0   4   -0.48    0.54
  -9   0   4   -0.25    0.38
  -9   0   4    0.09    0.52
   9   0  -4   -1.24    0.57
   9   0  -4    0.00    0.35
   9   0  -4   -0.43    0.63
   9   0  -4    0.76    0.81
  -9  -1   4    2.70    0.75
  -9  -1   4    2.95    0.96
   9   1  -4    6.67    1.66
   9   1  -4    5.10    1.19
   9   1  -4    4.11    1.19
  -9  -2   4    2.39    0.93
   9   2  -4    1.81    0.85
   9   2  -4    3.43    1.46
  -9  -3   4   18.75    2.07
   9   3  -4   17.96    1.79
   9   3  -4   16.60    2.66
  -9  -4   4    6.51    1.68
   9   4  -4    3.61    1.78
   9   4  -4    4.24    0.98
   9   5  -4   15.55    2.95
   9   5  -4   13.21    1.38
  -9   5   3   18.60    2.77
  -9   5   3   14.94    2.70
  -9   5   3   15.79    2.58
   9  -5  -3   13.38    3.13
  -9   4   3   23.66    2.66
  -9   4   3   27.01    2.87
  -9   4   3   21.42    2.71
   9  -4  -3   26.25    3.58
   9  -4  -3   26.83    2.05
  -9   3   3   21.32    2.13
  -9   3   3   19.13    2.39
  -9   3   3   16.16    2.30
   9  -3  -3   12.85    2.38
   9  -3  -3   16.10    1.58
   9  -3  -3   17.28    1.64
  -9   2   3   31.07    2.66
  -9   2   3   27.92    2.34
  -9   2   3   28.36    1.33
  -9   2   3   30.86    2.22
   9  -2  -3   31.19    1.99
   9  -2  -3   32.67    2.02
   9  -2  -3   29.53    2.90
  -9   1   3   10.17    1.22
  -9   1   3    8.74    1.46
  -9   1   3   12.08    1.16
  -9   1   3    8.63    0.89
  -9   1   3    7.96    1.28
   9  -1  -3    8.29    1.13
   9  -1  -3    9.28    1.15
   9  -1  -3    5.91    1.27
   9  -1  -3    6.75    1.04
   9  -1  -3    5.65    1.46
  -9   0   3   -0.43    0.48
  -9   0   3    0.25    0.38
  -9   0   3    0.12    0.46
   9   0  -3    0.11    0.55
   9   0  -3   -0.14    0.30
   9   0  -3    0.11    0.65
   9   0  -3   -0.60    0.55
  -9  -1   3    8.60    1.26
   9   1  -3    5.97    1.36
   9   1  -3    7.23    1.35
   9   1  -3    6.73    1.20
  -9  -2   3   27.85    2.13
   9   2  -3   30.55    2.16
   9   2  -3   30.75    2.83
  -9  -3   3   20.68    1.98
   9   3  -3   16.37    2.61
   9   3  -3   14.55    1.54
  -9  -4   3   24.27    2.46
   9   4  -3   27.06    1.78
   9   4  -3   28.11    3.06
   9   5  -3   12.46    1.00
   9   5  -3   12.59    2.69
  -9   6   2   18.36    3.18
  -9   6   2   13.78    2.75
  -9   5   2    4.20    1.56
  -9   5   2    5.47    1.75
  -9   5   2    3.79    1.63
   9  -5  -2   -0.10    1.49
  -9   4   2   35.47    3.21
  -9   4   2   31.35    2.98
  -9   4   2   31.33    2.82
   9  -4  -2   33.15    3.50
   9  -4  -2   32.40    2.15
  -9   3   2    5.52    1.39
  -9   3   2    4.56    1.33
  -9   3   2    5.54    1.48
   9  -3  -2    2.56    0.76
   9  -3  -2    1.88    1.28
   9  -3  -2    2.93    0.81
  -9   2   2   35.16    2.45
  -9   2   2   31.70    2.62
  -9   2   2   34.26    2.46
  -9   2   2   34.08    1.39
   9  -2  -2   39.90    3.21
   9  -2  -2   36.24    2.13
   9  -2  -2   38.50    2.04
  -9   1   2   10.26    0.89
  -9   1   2   13.68    1.09
  -9   1   2   10.69    1.56
  -9   1   2   10.19    1.27
  -9   1   2   11.09    1.29
  -9   1   2   11.54    1.13
   9  -1  -2    9.77    1.08
   9  -1  -2    8.29    1.04
   9  -1  -2    9.31    1.76
   9  -1  -2    9.50    1.44
  -9   0   2    0.18    0.48
  -9   0   2   -0.11    0.30
  -9   0   2    0.31    0.32
  -9   0   2   -0.23    0.39
   9   0  -2    0.38    0.58
   9   0  -2    0.27    0.70
   9   0  -2   -0.09    0.50
  -9  -1   2   11.46    1.19
  -9  -1   2   11.73    0.85
   9   1  -2    9.69    1.30
   9   1  -2   10.56    1.53
   9   1  -2   10.28    1.54
  -9  -2   2   35.75    2.22
   9   2  -2   36.00    2.81
   9   2  -2   40.49    2.28
  -9  -3   2    5.27    1.13
   9   3  -2    2.31    0.70
   9   3  -2    3.04    1.28
   9   4  -2   30.11    3.16
   9   4  -2   34.00    1.72
   9   5  -2    1.87    1.51
  -9   6   1    5.97    2.17
  -9   6   1    6.56    2.26
  -9   6   1    7.34    1.87
  -9   5   1   17.84    2.66
  -9   5   1   24.65    3.20
  -9   5   1   21.57    2.79
   9  -5  -1   21.41    3.54
  -9   4   1   30.79    2.86
  -9   4   1   30.31    2.77
  -9   4   1   33.71    3.05
   9  -4  -1   28.09    3.59
   9  -4  -1   24.24    1.82
  -9   3   1   55.30    3.43
  -9   3   1   55.60    3.69
  -9   3   1   56.94    3.75
   9  -3  -1   64.21    2.96
   9  -3  -1   64.83    4.33
   9  -3  -1   60.82    2.75
  -9   2   1   43.99    2.90
  -9   2   1   42.88    2.54
  -9   2   1   45.59    2.82
   9  -2  -1   38.87    2.06
   9  -2  -1   38.54    3.17
   9  -2  -1   42.89    2.28
  -9   1   1   25.29    1.81
  -9   1   1   27.12    1.47
  -9   1   1   24.57    2.03
  -9   1   1   26.22    1.76
  -9   1   1   26.18    1.37
   9  -1  -1   29.11    1.59
   9  -1  -1   26.57    2.37
   9  -1  -1   28.12    1.65
  -9   0   1   -0.02    0.37
  -9   0   1   -0.39    0.39
  -9   0   1    0.09    0.31
  -9   0   1   -0.12    0.35
   9   0  -1   -0.36    0.50
   9   0  -1    0.03    0.46
  -9  -1   1   26.54    1.46
  -9  -1   1   25.18    1.58
   9   1  -1   29.33    2.15
   9   1  -1   28.41    2.16
   9   1  -1   29.93    1.83
  -9  -2   1   45.61    2.20
   9   2  -1   38.83    2.79
   9   2  -1   40.89    2.14
  -9  -3   1   56.18    2.94
   9   3  -1   58.56    3.80
   9   4  -1   25.29    2.83
   9   4  -1   25.40    1.33
  -9   6   0    2.00    1.33
  -9   6   0    2.86    1.81
  -9   6   0    3.41    1.91
  -9   5   0   18.43    2.56
  -9   5   0   17.95    2.61
  -9   5   0   19.30    3.01
   9  -5   0   20.32    4.24
  -9   4   0    3.65    1.30
  -9   4   0    5.36    1.51
  -9   4   0    5.51    1.62
   9  -4   0    3.09    1.48
   9  -4   0    3.19    0.80
  -9   3   0   93.57    4.97
  -9   3   0   96.03    4.61
  -9   3   0   95.24    4.74
   9  -3   0   94.04    3.96
   9  -3   0   97.49    5.34
   9  -3   0   89.90    3.62
  -9   2   0    6.08    0.44
  -9   2   0    5.60    1.22
  -9   2   0    7.54    1.37
  -9   2   0    5.34    1.03
   9  -2   0    6.92    1.54
   9  -2   0    5.73    0.93
   9  -2   0    6.42    0.90
  -9   1   0   35.39    1.70
  -9   1   0   31.86    1.82
  -9   1   0   31.73    1.81
  -9   1   0   31.25    2.11
  -9   1   0   33.26    2.11
  -9   1   0   31.12    1.48
   9  -1   0   34.00    2.08
   9  -1   0   28.74    2.43
   9  -1   0   34.14    1.81
   9  -1   0   31.90    1.68
  -9   0   0    0.25    0.37
  -9   0   0    0.56    0.42
  -9   0   0    0.34    0.28
  -9   0   0    0.26    0.36
  -9   0   0    0.34    0.27
   9   0   0    0.33    0.30
   9   0   0    0.19    0.40
   9   0   0   -0.24    0.45
  -9  -1   0   26.84    2.00
  -9  -1   0   33.27    1.78
  -9  -1   0   31.01    1.35
  -9  -1   0   32.57    2.16
   9   1   0   30.29    2.21
   9   1   0   33.62    1.89
  -9  -2   0    6.85    0.81
   9   2   0    5.00    0.82
  -9  -4   0    5.03    1.48
   9   4   0    4.16    0.61
  -9  -5   0   16.02    2.52
  -9   6  -1    4.15    1.94
  -9   6  -1    6.07    1.74
  -9   6  -1    9.81    2.59
  -9   5  -1   26.27    2.87
  -9   5  -1   27.24    2.69
  -9   5  -1   23.46    3.40
  -9   4  -1   26.56    2.63
  -9   4  -1   28.45    3.45
  -9   4  -1   29.33    2.65
   9  -4   1   33.45    3.43
   9  -4   1   30.74    1.87
  -9   3  -1   62.52    3.92
  -9   3  -1   64.71    3.53
  -9   3  -1   63.59    3.59
   9  -3   1   55.78    2.61
   9  -3   1   58.69    4.02
   9  -3   1   50.70    2.81
  -9   2  -1   42.36    2.03
  -9   2  -1   42.53    2.69
  -9   2  -1   40.63    2.46
  -9   2  -1   41.09    2.82
  -9   2  -1   41.33    1.45
   9  -2   1   46.97    2.35
   9  -2   1   46.33    2.12
   9  -2   1   47.18    3.21
  -9   1  -1   29.52    1.68
  -9   1  -1   28.98    2.01
  -9   1  -1   27.65    1.74
  -9   1  -1   28.58    1.60
  -9   1  -1   27.86    1.35
   9  -1   1   27.01    1.53
   9  -1   1   28.29    2.25
   9  -1   1   28.79    1.87
   9  -1   1   26.15    1.62
  -9   0  -1   -0.04    0.22
  -9   0  -1   -0.20    0.20
  -9   0  -1   -0.05    0.40
  -9   0  -1    0.39    0.49
  -9   0  -1   -0.13    0.37
   9   0   1   -0.27    0.35
   9   0   1    0.12    0.27
   9   0   1   -0.51    0.41
  -9  -1  -1   25.93    1.76
  -9  -1  -1   27.49    1.88
  -9  -1  -1   29.44    1.30
   9   1   1   24.95    1.66
  -9  -2  -1   41.66    2.68
   9   2   1   44.16    2.16
  -9  -3  -1   62.80    3.62
   9   3   1   53.39    2.48
  -9  -4  -1   23.39    2.53
   9   4   1   30.25    1.57
   9   5   1   18.70    1.21
  -9  -6  -1    8.36    2.37
  -9   6  -2   19.24    3.36
  -9   6  -2   16.37    3.01
  -9   5  -2    1.03    1.45
  -9   5  -2    2.97    1.21
  -9   5  -2    0.82    1.09
  -9   4  -2   37.17    3.11
  -9   4  -2   35.64    3.54
  -9   4  -2   36.61    2.87
   9  -4   2   38.23    2.19
  -9   3  -2    3.37    1.13
  -9   3  -2    2.93    1.20
  -9   3  -2    1.57    0.88
   9  -3   2    5.90    1.09
   9  -3   2    2.93    1.30
   9  -3   2    5.10    0.88
  -9   2  -2   40.87    2.06
  -9   2  -2   37.36    2.29
  -9   2  -2   39.88    2.78
  -9   2  -2   38.84    2.54
   9  -2   2   33.27    1.87
   9  -2   2   38.03    2.76
   9  -2   2   35.62    2.08
  -9   1  -2    8.88    1.38
  -9   1  -2   10.40    1.09
  -9   1  -2    9.03    1.15
  -9   1  -2    8.05    0.74
  -9   1  -2   12.81    1.52
   9  -1   2   11.23    1.00
   9  -1   2   12.45    1.48
  -9   0  -2   -0.07    0.42
  -9   0  -2   -0.18    0.44
  -9   0  -2    0.03    0.23
  -9   0  -2    0.01    0.37
   9   0   2    0.10    0.29
   9   0   2   -0.07    0.42
   9   0   2    0.19    0.48
  -9  -1  -2    9.23    1.25
  -9  -1  -2    9.35    0.76
  -9  -1  -2    8.96    1.26
   9   1   2   11.17    1.15
  -9  -2  -2   37.67    2.51
   9   2   2   37.68    2.08
  -9  -3  -2    1.96    0.92
   9   3   2    3.70    0.73
  -9  -4  -2   32.23    2.70
   9   4   2   27.69    1.70
   9   5   2    4.55    0.82
  -9  -6  -2   14.07    2.85
  -9   5  -3   11.02    1.84
  -9   5  -3   12.56    2.48
  -9   5  -3   11.72    1.86
  -9   5  -3   12.20    2.76
  -9   4  -3   29.01    2.75
  -9   4  -3   25.57    2.38
  -9   4  -3   29.90    3.61
  -9   4  -3   29.61    2.47
   9  -4   3   22.60    1.81
  -9   3  -3   16.29    2.40
  -9   3  -3   17.07    2.02
  -9   3  -3   15.64    1.95
  -9   3  -3   14.35    1.95
   9  -3   3   17.83    1.93
   9  -3   3   19.88    1.54
  -9   2  -3   35.97    2.71
  -9   2  -3   33.47    2.21
  -9   2  -3   32.92    2.32
  -9   2  -3   34.42    2.30
  -9   2  -3   29.91    1.97
   9  -2   3   26.20    1.87
   9  -2   3   31.30    2.38
   9  -2   3   28.61    1.72
  -9   1  -3    7.27    0.74
  -9   1  -3    5.83    1.10
  -9   1  -3    6.47    1.03
  -9   1  -3    5.87    0.92
  -9   1  -3    8.78    1.41
  -9   1  -3    7.71    1.15
   9  -1   3    9.65    1.41
   9  -1   3    9.77    0.96
   9  -1   3    8.04    1.19
  -9   0  -3    0.20    0.48
  -9   0  -3   -0.05    0.23
  -9   0  -3    0.40    0.46
  -9   0  -3    0.11    0.26
  -9   0  -3    0.04    0.53
  -9   0  -3   -0.21    0.37
   9   0   3    0.07    0.50
   9   0   3    0.00    0.32
   9   0   3   -0.22    0.23
  -9  -1  -3    5.44    1.15
  -9  -1  -3    7.62    1.21
  -9  -1  -3    7.93    0.75
   9   1   3   10.34    1.33
  -9  -2  -3   32.53    2.26
   9   2   3   29.22    1.90
  -9  -3  -3   17.45    2.17
   9   3   3   17.71    1.48
  -9  -4  -3   25.17    2.54
   9   4   3   21.78    1.68
   9   5   3   16.40    1.57
  -9   5  -4   13.34    2.96
  -9   5  -4   13.88    2.10
  -9   5  -4   16.11    2.72
  -9   4  -4    3.29    1.61
  -9   4  -4    3.13    1.16
  -9   4  -4    3.54    1.43
   9  -4   4    6.79    1.16
  -9   3  -4   21.15    2.26
  -9   3  -4   20.88    2.06
  -9   3  -4   19.56    2.62
  -9   3  -4   22.02    2.18
   9  -3   4   18.64    1.82
   9  -3   4   19.22    1.63
  -9   2  -4    2.32    0.89
  -9   2  -4    1.88    0.79
  -9   2  -4    2.19    0.87
  -9   2  -4    1.93    1.00
   9  -2   4    1.93    0.68
  -9   1  -4    5.08    0.86
  -9   1  -4    4.80    0.97
  -9   1  -4    4.77    1.01
  -9   1  -4    6.86    0.75
  -9   1  -4    3.62    0.92
  -9   1  -4    4.37    1.19
   9  -1   4    4.16    1.10
   9  -1   4    3.07    0.86
   9  -1   4    2.21    0.65
   9  -1   4    2.60    0.65
  -9   0  -4    0.59    0.35
  -9   0  -4    0.42    0.52
  -9   0  -4    0.57    0.54
  -9   0  -4   -0.17    0.49
  -9   0  -4    0.65    0.67
   9   0   4   -0.34    0.48
   9   0   4   -0.24    0.33
   9   0   4   -0.30    0.31
  -9  -1  -4    7.61    1.26
  -9  -1  -4    5.24    0.69
  -9  -1  -4    4.89    1.18
   9   1   4    2.68    0.80
  -9  -2  -4    2.07    0.87
   9   2   4    3.55    0.84
  -9  -3  -4   18.65    1.99
   9   3   4   17.01    1.59
  -9  -4  -4    4.24    1.32
   9   4   4    7.54    1.25
   9   5   4   13.17    1.65
  -9   5  -5    3.49    1.70
  -9   5  -5    3.91    1.32
  -9   5  -5    5.25    2.19
   9  -5   5    1.97    1.62
  -9   4  -5   15.19    2.82
  -9   4  -5   15.03    2.10
  -9   4  -5   15.47    2.50
   9  -4   5   21.66    1.94
  -9   3  -5    9.18    1.64
  -9   3  -5   10.18    1.68
  -9   3  -5    9.11    1.67
  -9   3  -5    7.83    1.97
   9  -3   5    8.99    1.31
   9  -3   5   10.09    1.83
  -9   2  -5    0.67    0.93
  -9   2  -5    2.36    0.97
  -9   2  -5    2.24    0.91
  -9   2  -5    2.72    0.97
   9  -2   5    3.00    1.02
   9  -2   5    3.47    0.87
  -9   1  -5   13.79    1.76
  -9   1  -5   15.01    1.68
  -9   1  -5   15.63    2.14
  -9   1  -5   14.66    1.45
  -9   1  -5   12.27    1.05
   9  -1   5   13.70    1.31
  -9   0  -5   -0.07    0.34
  -9   0  -5    0.37    0.57
  -9   0  -5   -0.88    0.56
  -9   0  -5    0.23    0.65
   9   0   5    0.41    0.43
   9   0   5   -0.13    0.56
  -9  -1  -5   16.01    1.17
  -9  -1  -5   13.54    1.99
  -9  -1  -5   14.18    1.58
   9   1   5   13.38    1.71
  -9  -2  -5    2.62    0.91
   9   2   5    4.44    1.10
  -9  -3  -5    8.52    1.61
   9   3   5    7.28    1.31
  -9  -4  -5   15.84    2.25
   9   4   5   15.76    1.75
  -9  -5  -5    2.82    1.78
   9   5   5    3.56    1.14
  -9   5  -6   13.04    3.01
  -9   5  -6   10.07    2.48
   9  -5   6   15.36    3.07
  -9   4  -6    6.82    1.95
  -9   4  -6   11.10    1.89
  -9   4  -6   13.37    2.67
   9  -4   6    4.32    1.19
   9  -4   6    5.45    1.96
  -9   3  -6    7.03    1.84
  -9   3  -6   10.77    1.97
  -9   3  -6   10.14    1.78
   9  -3   6   10.73    1.52
   9  -3   6   11.43    2.15
  -9   2  -6    4.36    1.23
  -9   2  -6    5.95    1.36
  -9   2  -6    7.77    1.54
  -9   2  -6    8.18    1.80
   9  -2   6    7.00    1.15
   9  -2   6    7.27    1.42
  -9   1  -6    9.35    1.53
  -9   1  -6    9.07    1.75
  -9   1  -6   10.80    1.55
  -9   1  -6    9.74    1.63
  -9   1  -6   10.27    1.03
   9  -1   6   12.74    1.33
  -9   0  -6    0.50    0.96
  -9   0  -6   -0.26    0.67
  -9   0  -6   -0.07    0.42
  -9   0  -6    0.08    0.73
   9   0   6   -0.75    0.66
   9   0   6    0.08    0.47
  -9  -1  -6    7.49    1.72
  -9  -1  -6    8.96    1.52
  -9  -1  -6    8.91    1.11
   9   1   6   10.76    1.61
  -9  -2  -6    6.64    1.36
   9   2   6    6.31    1.30
  -9  -3  -6    8.97    1.72
   9   3   6   10.21    1.69
   9   4   6    5.39    1.32
  -9  -5  -6   11.44    2.67
   9   5   6   11.44    1.83
  -9   5  -7    1.56    1.92
  -9   5  -7    3.01    1.90
  -9   5  -7    1.65    1.33
   9  -5   7    2.56    1.87
   9  -5   7    2.73    1.33
  -9   4  -7    5.50    1.82
  -9   4  -7    0.58    1.08
  -9   4  -7   10.43    2.67
   9  -4   7    3.88    1.74
   9  -4   7    2.35    1.10
  -9   3  -7   10.24    2.08
  -9   3  -7   10.48    1.88
  -9   3  -7   10.90    2.01
  -9   3  -7    9.31    2.13
   9  -3   7   11.72    2.21
   9  -3   7   15.75    1.82
  -9   2  -7   13.06    2.28
  -9   2  -7   11.56    1.90
  -9   2  -7   12.20    1.91
   9  -2   7    9.72    1.77
   9  -2   7   11.70    1.50
  -9   1  -7    8.72    1.06
  -9   1  -7    6.55    1.56
  -9   1  -7    6.88    1.69
   9  -1   7    8.68    1.56
   9  -1   7    6.17    1.06
  -9   0  -7   -0.20    0.78
  -9   0  -7    0.67    0.92
  -9   0  -7    0.31    0.48
  -9   0  -7   -0.10    1.01
   9   0   7   -0.50    0.47
  -9  -1  -7    7.29    1.85
  -9  -1  -7    6.72    1.00
  -9  -1  -7    8.45    1.68
   9   1   7   10.00    1.72
  -9  -2  -7   11.89    1.35
  -9  -2  -7   12.90    1.93
   9   2   7   10.42    1.79
  -9  -3  -7   12.64    2.10
   9   3   7   13.28    1.96
   9   4   7    4.33    1.30
  -9  -5  -7    0.51    1.68
  -9   4  -8   14.70    2.73
  -9   4  -8   15.88    3.14
  -9   4  -8   16.31    2.44
   9  -4   8   13.85    2.82
   9  -4   8   19.19    2.27
  -9   3  -8    2.61    1.32
  -9   3  -8    3.05    1.69
  -9   3  -8    3.32    1.47
   9  -3   8    4.90    1.76
   9  -3   8    7.08    1.43
  -9   2  -8    3.40    1.54
  -9   2  -8    5.10    1.57
  -9   2  -8    3.46    1.36
   9  -2   8    2.93    1.26
   9  -2   8    4.71    1.14
  -9   1  -8    2.49    1.32
  -9   1  -8    0.37    0.52
  -9   1  -8    1.13    1.02
   9  -1   8    0.55    0.68
  -9   0  -8    0.34    0.91
  -9   0  -8   -0.53    0.44
  -9   0  -8   -0.03    0.77
  -9   0  -8   -1.35    0.89
  -9  -1  -8    3.01    1.50
  -9  -1  -8    1.34    0.68
  -9  -1  -8    2.16    1.05
   9   1   8    0.56    0.95
  -9  -2  -8    3.83    0.94
  -9  -2  -8    3.48    1.36
   9   2   8    3.02    1.18
  -9  -3  -8    3.72    1.36
   9   3   8    3.32    1.29
  -9  -4  -8   13.49    2.91
   9   4   8   18.20    2.64
  -9   4  -9    6.41    2.41
  -9   4  -9    7.49    1.97
   9  -4   9   12.87    2.02
   9  -4   9    8.48    2.46
  -9   3  -9   10.58    2.48
  -9   3  -9   13.45    2.36
  -9   3  -9   12.54    2.51
   9  -3   9   10.95    2.40
   9  -3   9   12.58    1.88
  -9   2  -9    4.90    1.67
  -9   2  -9    4.16    1.65
   9  -2   9    4.68    1.20
   9  -2   9    5.44    1.70
  -9   1  -9    1.05    1.27
  -9   1  -9    2.10    1.36
  -9   1  -9    1.98    0.71
   9  -1   9    2.00    0.86
  -9   0  -9    0.11    1.15
  -9   0  -9    0.11    1.02
  -9   0  -9    0.70    0.98
  -9   0  -9   -0.49    0.54
  -9  -1  -9    2.80    1.66
  -9  -1  -9    0.67    1.04
  -9  -1  -9    1.84    0.81
  -9  -2  -9    4.47    1.51
  -9  -2  -9    2.81    0.89
  -9  -2  -9    4.76    2.08
   9   2   9    4.34    1.52
  -9  -3  -9   12.62    2.57
  -9  -3  -9   15.47    2.46
   9   3   9   10.04    2.05
   9   4   9    7.66    1.92
  -9   3 -10    5.53    1.93
  -9   3 -10    7.59    2.44
   9  -3  10    3.63    1.32
   9  -3  10    2.84    1.74
  -9   2 -10   14.63    2.87
  -9   2 -10   10.37    2.32
   9  -2  10    9.30    1.62
  -9   1 -10    2.29    1.52
  -9   1 -10    0.23    1.33
   9  -1  10    0.31    0.75
  -9   0 -10    0.37    1.43
  -9   0 -10   -0.17    1.15
  -9   0 -10    0.31    1.22
  -9   0 -10    0.42    0.72
  -9  -1 -10    3.17    1.85
  -9  -1 -10    0.93    0.76
  -9  -1 -10   -0.16    1.02
  -9  -2 -10   13.20    3.06
  -9  -2 -10    9.97    1.52
  -9  -2 -10    7.41    1.87
  -9  -3 -10    4.73    1.77
  -9  -3 -10    5.87    2.06
   9   3  10    5.48    1.88
  -9   2 -11   12.62    2.78
  -9   2 -11    8.91    2.58
   9  -2  11   10.34    1.77
  -9   1 -11    1.81    1.70
  -9   1 -11    0.14    1.34
   9  -1  11    0.90    0.97
  -9   0 -11   -0.64    0.75
  -9   0 -11   -0.21    1.54
  -9   0 -11   -0.48    1.02
  -9  -1 -11   -0.39    0.76
  -9  -1 -11    0.46    1.24
  -9  -1 -11   -0.19    1.68
  -9  -2 -11    9.16    1.51
  -9  -2 -11   11.32    2.36
  -9  -2 -11    7.74    2.68
  -9   1 -12    2.53    1.86
  -9   1 -12    2.14    1.67
  -9   0 -12   -0.26    0.90
  -9   0 -12   -0.06    1.62
  -9   0 -12   -0.02    1.36
  -9  -1 -12   -0.26    1.91
  -9  -1 -12    1.37    1.79
  -9  -1 -12    2.14    1.45
 -10   0  12    2.93    1.37
 -10   0  12    3.09    1.98
 -10   2  11    5.03    2.12
 -10   1  11   38.40    2.70
 -10   1  11   41.20    4.24
 -10   0  11    9.22    1.63
 -10   0  11    6.47    2.05
 -10   0  11    6.97    1.57
 -10  -1  11   36.22    3.95
 -10  -1  11   34.48    3.03
  10   1 -11   33.33    4.70
 -10  -2  11    3.66    2.09
 -10  -2  11    7.35    1.72
  10   2 -11    7.26    2.81
  10   2 -11   12.16    3.10
 -10   3  10    1.42    1.76
  10  -3 -10   -1.08    1.86
 -10   2  10   34.03    3.87
  10  -2 -10   27.44    4.18
  10  -2 -10   31.41    2.91
 -10   1  10   20.18    2.66
 -10   1  10   22.70    3.21
 -10   1  10   24.92    2.13
  10  -1 -10   25.26    2.31
 -10   0  10   45.06    2.88
 -10   0  10   39.59    2.96
 -10   0  10   44.69    4.13
  10   0 -10   38.67    4.22
 -10  -1  10   22.21    3.27
 -10  -1  10   21.00    2.31
  10   1 -10   28.28    4.09
  10   1 -10   21.09    3.68
 -10  -2  10   32.25    3.75
 -10  -2  10   34.77    2.85
  10   2 -10   30.54    4.46
  10   2 -10   29.33    4.03
 -10  -3  10    0.78    1.13
 -10  -3  10    1.55    1.69
  10   3 -10    0.52    1.54
  10   3 -10    0.00    1.88
 -10   4   9    7.21    2.33
 -10   3   9   24.90    3.44
  10  -3  -9   24.05    2.71
  10  -3  -9   27.00    4.32
 -10   2   9   65.37    4.91
 -10   2   9   65.09    3.89
  10  -2  -9   61.41    5.41
  10  -2  -9   59.76    3.76
 -10   1   9   16.51    1.88
 -10   1   9   21.32    1.94
 -10   1   9   21.03    3.04
  10  -1  -9   24.62    3.62
  10  -1  -9   23.71    2.11
 -10   0   9   87.79    4.24
 -10   0   9   92.59    5.50
 -10   0   9   85.80    4.09
  10   0  -9   74.41    5.50
 -10  -1   9   16.41    2.81
 -10  -1   9   20.19    2.14
  10   1  -9   17.71    3.09
  10   1  -9   26.48    3.83
 -10  -2   9   60.73    3.53
 -10  -2   9   62.97    4.58
  10   2  -9   55.25    4.74
  10   2  -9   56.92    5.19
 -10  -3   9   21.99    3.25
  10   3  -9   22.09    3.95
  10   3  -9   27.95    3.57
 -10  -4   9    8.69    2.63
 -10   4   8    0.83    1.38
  10  -4  -8    1.18    2.08
  10  -4  -8    0.65    1.21
 -10   3   8   20.48    3.15
  10  -3  -8   17.83    2.26
  10  -3  -8   18.59    3.61
 -10   2   8   12.48    2.33
 -10   2   8   17.77    1.46
  10  -2  -8   17.05    2.08
  10  -2  -8   12.49    2.73
 -10   1   8   80.51    3.75
 -10   1   8   79.47    3.67
 -10   1   8   77.07    4.96
  10  -1  -8   70.99    3.70
  10  -1  -8   72.21    5.22
 -10   0   8   33.36    2.46
 -10   0   8   37.86    3.41
 -10   0   8   38.06    2.43
  10   0  -8   30.39    3.34
 -10  -1   8   68.81    4.64
 -10  -1   8   76.58    3.79
  10   1  -8   71.61    5.21
  10   1  -8   75.84    5.16
 -10  -2   8   15.68    2.69
 -10  -2   8   16.82    1.96
  10   2  -8   22.64    3.57
  10   2  -8   19.22    2.84
 -10  -3   8   20.24    3.09
  10   3  -8   17.14    2.71
  10   3  -8   17.13    3.29
 -10  -4   8   -1.11    1.26
  10   4  -8   -0.49    1.07
  10   4  -8   -0.88    1.98
 -10   4   7   20.93    3.15
 -10   4   7   20.18    2.89
 -10   4   7   20.73    2.73
  10  -4  -7   20.72    4.02
  10  -4  -7   21.28    2.49
  10  -4  -7   20.90    2.67
 -10   3   7   28.64    3.11
  10  -3  -7   20.13    3.59
  10  -3  -7   18.61    2.23
  10  -3  -7   21.23    2.47
 -10   2   7   32.51    1.85
 -10   2   7   26.31    2.88
  10  -2  -7   34.73    3.82
  10  -2  -7   29.11    2.42
 -10   1   7   77.31    3.59
 -10   1   7   79.31    3.56
 -10   1   7   75.48    4.67
  10  -1  -7   76.25    3.68
  10  -1  -7   74.47    5.15
 -10   0   7  156.65    7.02
 -10   0   7  145.99    5.70
 -10   0   7  140.88    5.55
  10   0  -7  151.64    7.27
  10   0  -7  135.84    6.91
  10   0  -7  141.94    6.84
 -10  -1   7   74.94    3.59
 -10  -1   7   68.72    4.31
  10   1  -7   72.43    4.93
  10   1  -7   68.51    4.64
 -10  -2   7   35.79    2.34
 -10  -2   7   29.71    3.01
  10   2  -7   31.00    3.15
  10   2  -7   36.82    3.81
 -10  -3   7   26.76    2.87
  10   3  -7   17.35    2.48
  10   3  -7   15.22    3.10
 -10  -4   7   20.43    3.15
  10   4  -7   23.97    2.69
  10   4  -7   24.80    4.18
 -10   5   6    4.34    1.80
 -10   5   6    1.78    1.25
 -10   5   6    0.75    1.59
  10  -5  -6    4.15    1.60
  10  -5  -6    3.85    2.42
 -10   4   6    7.57    2.05
 -10   4   6    6.53    1.56
 -10   4   6    6.32    1.84
  10  -4  -6    5.53    2.35
  10  -4  -6    7.80    1.59
  10  -4  -6    6.17    1.55
 -10   3   6    7.92    1.86
 -10   3   6    7.93    1.83
  10  -3  -6    7.55    1.57
  10  -3  -6    6.80    2.16
  10  -3  -6    7.12    1.39
 -10   2   6   63.97    4.15
 -10   2   6   59.21    2.60
  10  -2  -6   60.40    3.34
  10  -2  -6   65.54    4.82
 -10   1   6   36.27    3.06
 -10   1   6   38.61    2.38
 -10   1   6   39.74    2.30
  10  -1  -6   42.36    2.51
  10  -1  -6   39.30    3.72
 -10   0   6  153.62    5.64
 -10   0   6  147.13    5.74
 -10   0   6  155.70    6.80
  10   0  -6  160.64    7.07
  10   0  -6  145.63    5.01
  10   0  -6  146.34    6.87
  10   0  -6  150.50    7.01
 -10  -1   6   42.64    3.09
 -10  -1   6   37.48    2.42
  10   1  -6   36.47    3.41
  10   1  -6   35.39    2.86
  10   1  -6   34.39    3.12
 -10  -2   6   61.43    3.87
  10   2  -6   61.21    4.67
  10   2  -6   54.60    3.83
 -10  -3   6    8.70    1.89
  10   3  -6    9.61    1.72
  10   3  -6    8.31    2.20
 -10  -4   6    8.89    2.21
  10   4  -6    5.44    2.30
  10   4  -6    7.89    1.63
  10   5  -6    2.92    2.13
  10   5  -6    3.24    1.22
 -10   5   5    4.46    1.94
 -10   5   5    4.12    1.87
 -10   5   5    4.32    1.56
  10  -5  -5    5.07    2.47
  10  -5  -5    5.28    1.66
 -10   4   5   23.23    2.85
 -10   4   5   24.96    2.85
  10  -4  -5   15.87    2.10
  10  -4  -5   15.07    3.15
 -10   3   5   59.27    4.10
 -10   3   5   52.05    3.45
 -10   3   5   55.54    3.93
  10  -3  -5   59.30    3.33
  10  -3  -5   58.31    3.36
  10  -3  -5   57.29    4.70
 -10   2   5   57.56    2.39
 -10   2   5   55.43    3.06
 -10   2   5   56.73    3.70
 -10   2   5   60.96    3.82
  10  -2  -5   48.19    4.14
  10  -2  -5   49.47    3.00
  10  -2  -5   52.73    3.11
 -10   1   5  138.24    6.21
 -10   1   5  140.51    5.10
 -10   1   5  137.64    5.15
  10  -1  -5  137.23    6.86
  10  -1  -5  138.69    6.86
  10  -1  -5  128.04    5.18
 -10   0   5    0.70    0.69
 -10   0   5    1.82    0.96
 -10   0   5    0.58    0.54
  10   0  -5    3.76    0.62
  10   0  -5    3.50    1.25
  10   0  -5    0.97    0.97
  10   0  -5    4.95    1.36
 -10  -1   5  128.82    5.71
 -10  -1   5  126.54    4.86
  10   1  -5  121.90    6.19
  10   1  -5  116.95    5.76
  10   1  -5  128.29    5.73
 -10  -2   5   58.02    3.54
  10   2  -5   46.30    3.30
  10   2  -5   58.98    4.38
 -10  -3   5   59.53    3.87
  10   3  -5   58.88    4.68
  10   3  -5   56.01    3.45
 -10  -4   5   20.96    2.79
  10   4  -5   17.61    1.95
  10   4  -5   18.09    3.25
  10   5  -5    5.20    2.37
 -10   5   4   11.01    2.30
 -10   5   4    9.87    2.21
 -10   5   4    6.55    2.10
  10  -5  -4    8.35    1.72
  10  -5  -4    7.74    2.68
 -10   4   4    4.64    1.67
 -10   4   4    4.22    1.31
 -10   4   4    4.30    1.75
  10  -4  -4    6.00    2.17
  10  -4  -4    5.50    1.31
 -10   3   4   29.86    2.97
 -10   3   4   28.12    2.62
 -10   3   4   28.95    2.46
  10  -3  -4   28.52    3.40
  10  -3  -4   25.38    2.16
  10  -3  -4   25.38    2.18
 -10   2   4   13.84    1.93
 -10   2   4   14.27    1.05
 -10   2   4   14.98    1.74
 -10   2   4   14.56    2.16
  10  -2  -4   18.32    1.73
  10  -2  -4   15.25    1.73
  10  -2  -4   13.38    2.34
 -10   1   4  122.54    4.57
 -10   1   4  122.75    5.61
 -10   1   4  118.99    4.65
 -10   1   4  123.15    5.51
 -10   1   4  124.45    4.59
  10  -1  -4  120.35    4.98
  10  -1  -4  126.72    5.79
  10  -1  -4  120.40    6.17
  10  -1  -4  119.30    4.73
 -10   0   4   55.08    2.69
 -10   0   4   59.75    3.46
  10   0  -4   58.74    2.37
  10   0  -4   60.49    3.86
  10   0  -4   66.08    3.64
  10   0  -4   64.79    3.74
 -10  -1   4  116.39    5.16
 -10  -1   4  121.49    4.52
  10   1  -4  119.74    5.45
  10   1  -4  112.62    5.64
  10   1  -4  112.64    5.35
 -10  -2   4   16.41    1.86
  10   2  -4   16.89    1.90
  10   2  -4   12.16    2.22
 -10  -3   4   30.50    2.60
  10   3  -4   27.03    2.24
  10   3  -4   26.75    2.99
 -10  -4   4    6.19    2.01
  10   4  -4    6.02    1.19
  10   4  -4    4.87    1.92
  10   5  -4    8.02    1.16
 -10   5   3   20.81    3.03
 -10   5   3   20.15    3.02
 -10   5   3   25.77    3.32
  10  -5  -3   18.40    2.15
  10  -5  -3   17.70    3.69
 -10   4   3   10.99    2.06
 -10   4   3   11.65    2.09
 -10   4   3   10.22    2.10
  10  -4  -3   10.52    2.54
  10  -4  -3   16.37    1.81
 -10   3   3   14.56    2.00
 -10   3   3   15.92    2.14
 -10   3   3   16.35    2.41
  10  -3  -3   11.87    2.52
  10  -3  -3   11.12    1.49
  10  -3  -3   10.79    1.47
 -10   2   3   48.30    2.91
 -10   2   3   45.86    3.33
 -10   2   3   47.54    3.08
 -10   2   3   48.64    1.97
  10  -2  -3   52.50    2.77
  10  -2  -3   49.26    3.91
  10  -2  -3   47.57    2.61
 -10   1   3    9.94    1.72
 -10   1   3    7.25    1.31
 -10   1   3    8.08    0.92
 -10   1   3    8.83    1.18
 -10   1   3    7.09    1.06
  10  -1  -3    7.99    1.11
  10  -1  -3    7.68    1.07
  10  -1  -3    6.15    1.40
  10  -1  -3    5.98    1.50
  10  -1  -3    9.22    1.21
 -10   0   3  133.60    5.16
 -10   0   3  141.66    4.97
 -10   0   3  143.01    5.73
  10   0  -3  143.56    5.80
  10   0  -3  136.46    6.24
  10   0  -3  146.22    6.01
 -10  -1   3    8.74    1.34
 -10  -1   3    9.26    1.02
  10   1  -3    8.49    1.52
  10   1  -3    7.63    1.40
  10   1  -3    7.36    1.61
 -10  -2   3   51.27    2.91
  10   2  -3   46.48    2.83
  10   2  -3   47.37    3.57
 -10  -3   3   15.58    1.94
  10   3  -3   10.84    2.28
  10   3  -3   10.46    1.41
  10   4  -3   12.85    2.46
  10   4  -3   12.70    1.39
  10   5  -3   19.48    3.25
  10   5  -3   18.47    1.29
 -10   5   2    9.90    2.26
 -10   5   2    7.28    1.79
 -10   5   2    8.79    2.06
  10  -5  -2   10.72    2.88
  10  -5  -2   11.10    1.64
 -10   4   2   11.53    2.06
 -10   4   2   13.37    2.23
 -10   4   2   14.45    2.16
  10  -4  -2   13.64    1.63
  10  -4  -2   11.41    2.55
 -10   3   2    9.82    1.78
 -10   3   2    7.26    1.50
 -10   3   2    9.46    1.84
  10  -3  -2    8.93    1.32
  10  -3  -2    9.37    2.07
  10  -3  -2   10.04    1.33
 -10   2   2   15.54    1.75
 -10   2   2   14.70    0.88
 -10   2   2   13.94    1.86
 -10   2   2   15.10    2.09
  10  -2  -2   11.58    1.37
  10  -2  -2   15.13    1.45
  10  -2  -2   13.41    2.30
 -10   1   2    1.77    0.48
 -10   1   2    1.47    0.60
 -10   1   2    1.53    0.63
 -10   1   2    1.44    0.59
 -10   1   2    1.63    0.84
 -10   1   2    0.93    0.64
  10  -1  -2    0.99    0.92
  10  -1  -2    2.22    0.65
  10  -1  -2    1.36    0.76
  10  -1  -2    1.58    0.58
 -10   0   2   58.92    2.75
 -10   0   2   53.45    2.84
 -10   0   2   58.55    2.43
 -10   0   2   53.77    2.44
  10   0  -2   56.41    3.48
  10   0  -2   56.12    3.12
  10   0  -2   59.43    3.04
 -10  -1   2    2.14    0.54
 -10  -1   2    2.43    0.71
  10   1  -2    0.90    0.71
  10   1  -2    1.99    0.95
  10   1  -2    2.21    0.93
 -10  -2   2   15.42    1.46
  10   2  -2   13.91    1.48
  10   2  -2   13.69    2.02
 -10  -3   2    9.98    1.73
  10   3  -2   10.94    2.12
  10   3  -2    8.49    1.15
  10   4  -2   15.89    2.54
  10   4  -2   13.10    1.20
  10   5  -2   11.88    2.56
 -10   5   1   13.44    2.49
 -10   5   1   13.24    2.37
 -10   5   1   11.05    2.19
  10  -5  -1    8.85    2.68
 -10   4   1    5.29    1.44
 -10   4   1    7.38    1.84
 -10   4   1    9.71    2.01
  10  -4  -1    7.34    1.19
  10  -4  -1    5.66    1.98
 -10   3   1   44.08    3.35
 -10   3   1   46.67    3.14
 -10   3   1   40.82    3.22
  10  -3  -1   45.55    2.64
  10  -3  -1   43.42    3.79
  10  -3  -1   47.15    2.45
 -10   2   1    8.32    1.43
 -10   2   1    8.53    0.64
 -10   2   1    9.31    1.69
 -10   2   1    8.17    1.35
  10  -2  -1    6.78    0.99
  10  -2  -1    8.44    1.85
  10  -2  -1    8.07    1.17
 -10   1   1   41.20    2.31
 -10   1   1   41.54    2.01
 -10   1   1   37.21    2.54
 -10   1   1   37.90    1.82
 -10   1   1   36.09    2.29
 -10   1   1   41.45    2.19
  10  -1  -1   43.24    3.12
  10  -1  -1   41.49    2.04
  10  -1  -1   38.90    2.08
  10  -1  -1   39.14    2.51
 -10   0   1   12.68    1.14
 -10   0   1   13.27    1.22
 -10   0   1   12.00    1.26
 -10   0   1   13.34    1.06
 -10   0   1   14.07    1.37
  10   0  -1   12.57    1.43
  10   0  -1   13.91    1.71
 -10  -1   1   39.76    1.93
 -10  -1   1   39.25    1.77
 -10  -1   1   39.87    2.07
  10   1  -1   43.58    2.83
  10   1  -1   42.16    2.38
  10   1  -1   40.23    2.63
 -10  -2   1    9.13    1.03
  10   2  -1    7.75    1.63
  10   2  -1    6.22    0.98
  10   3  -1   46.59    2.29
  10   3  -1   43.74    3.44
  10   4  -1    4.11    1.66
  10   4  -1    6.42    0.80
 -10  -5   1   10.47    2.32
 -10   5   0   24.28    3.33
 -10   5   0   19.52    2.79
 -10   5   0   20.36    2.91
 -10   4   0   13.43    2.05
 -10   4   0   12.99    2.29
 -10   4   0   17.66    2.33
  10  -4   0   13.43    1.51
  10  -4   0   12.21    2.49
 -10   3   0   12.74    1.82
 -10   3   0   12.35    1.94
 -10   3   0   16.18    2.13
  10  -3   0   13.81    2.41
  10  -3   0   20.12    1.74
  10  -3   0   15.35    1.43
 -10   2   0    0.69    0.72
 -10   2   0    2.08    0.92
 -10   2   0    1.52    0.32
 -10   2   0    0.82    0.65
  10  -2   0    1.76    0.67
  10  -2   0    0.97    1.01
  10  -2   0    1.85    0.67
 -10   1   0    1.09    0.58
 -10   1   0    0.17    0.35
 -10   1   0    0.66    0.33
 -10   1   0   -0.37    0.32
 -10   1   0    0.42    0.58
 -10   1   0    0.07    0.45
  10  -1   0    2.68    0.60
  10  -1   0    0.17    0.55
  10  -1   0   -0.10    0.63
  10  -1   0   -0.42    0.36
 -10   0   0    0.58    0.34
 -10   0   0    1.14    0.58
 -10   0   0    1.24    0.55
 -10   0   0    1.59    0.62
 -10   0   0    0.74    0.41
  10   0   0    0.48    0.59
  10   0   0    0.80    0.59
  10   0   0    0.95    0.39
 -10  -1   0    0.65    0.64
 -10  -1   0    0.64    0.49
 -10  -1   0    0.58    0.36
 -10  -1   0    0.27    0.29
  10   1   0    0.46    0.61
  10   1   0   -0.08    0.43
 -10  -2   0    1.95    0.99
  10   2   0    1.89    0.61
 -10  -3   0   12.24    1.97
  10   3   0   14.71    1.22
 -10  -4   0   14.27    2.33
  10   4   0   11.79    1.04
 -10  -5   0   18.10    2.76
  10   5   0   20.75    1.11
 -10   5  -1   10.75    2.25
 -10   5  -1    9.14    1.85
 -10   5  -1   13.05    2.54
 -10   4  -1    4.46    1.69
 -10   4  -1    8.25    1.63
 -10   4  -1    5.49    1.48
  10  -4   1    9.94    2.25
  10  -4   1    7.40    1.13
 -10   3  -1   47.61    3.47
 -10   3  -1   48.37    3.10
 -10   3  -1   46.32    3.18
  10  -3   1   42.19    2.28
  10  -3   1   43.67    2.60
  10  -3   1   40.00    3.56
 -10   2  -1    8.44    1.31
 -10   2  -1    9.50    1.57
 -10   2  -1    7.13    0.93
 -10   2  -1    7.35    1.48
  10  -2   1    8.33    1.63
  10  -2   1    8.52    1.04
  10  -2   1    9.29    1.22
 -10   1  -1   40.29    1.79
 -10   1  -1   40.31    2.09
 -10   1  -1   40.85    2.50
 -10   1  -1   41.15    2.23
 -10   1  -1   38.40    2.44
 -10   1  -1   39.29    2.10
  10  -1   1   38.60    2.09
  10  -1   1   40.97    2.42
  10  -1   1   41.89    2.01
  10  -1   1   44.12    2.94
 -10   0  -1   13.64    1.39
 -10   0  -1   12.57    1.19
 -10   0  -1   11.02    0.90
 -10   0  -1   11.77    1.21
 -10   0  -1   12.36    0.87
  10   0   1   12.33    0.90
  10   0   1   11.56    1.28
 -10  -1  -1   38.97    1.74
 -10  -1  -1   39.66    2.44
 -10  -1  -1   38.45    2.23
  10   1   1   40.78    2.25
 -10  -2  -1    8.26    1.53
  10   2   1    7.79    1.03
 -10  -3  -1   49.40    3.25
  10   3   1   41.12    2.20
 -10  -4  -1    5.14    1.51
  10   4   1    8.71    0.97
 -10  -5  -1    9.14    2.07
  10   5   1   11.27    1.04
 -10   5  -2   10.64    2.23
 -10   5  -2   10.53    2.67
 -10   5  -2    7.34    1.79
 -10   4  -2   11.17    2.40
 -10   4  -2   11.51    1.93
 -10   4  -2   11.34    1.97
  10  -4   2   15.06    1.49
 -10   3  -2   11.93    1.90
 -10   3  -2    8.97    1.56
 -10   3  -2   10.24    1.85
  10  -3   2    8.31    1.28
  10  -3   2    9.92    1.94
  10  -3   2    8.36    1.14
 -10   2  -2   13.56    1.29
 -10   2  -2   15.46    1.57
 -10   2  -2   18.62    2.33
 -10   2  -2   14.62    0.77
 -10   2  -2   16.29    1.84
  10  -2   2   14.85    1.44
  10  -2   2   14.53    2.00
  10  -2   2   16.34    1.31
 -10   1  -2    1.64    0.61
 -10   1  -2    1.58    0.65
 -10   1  -2    1.36    0.73
 -10   1  -2    1.18    0.38
 -10   1  -2    2.97    0.78
 -10   1  -2    1.94    0.74
 -10   1  -2    1.86    0.58
  10  -1   2    2.24    0.89
  10  -1   2    1.05    0.51
  10  -1   2    1.42    0.70
 -10   0  -2   56.38    2.07
 -10   0  -2   51.00    2.87
 -10   0  -2   55.45    2.27
 -10   0  -2   56.26    2.78
 -10   0  -2   53.55    2.57
 -10   0  -2   54.33    2.85
  10   0   2   57.56    2.86
  10   0   2   52.82    3.08
  10   0   2   55.53    2.20
 -10  -1  -2    1.14    0.64
 -10  -1  -2    0.42    0.31
 -10  -1  -2    1.81    0.69
  10   1   2    1.56    0.65
 -10  -2  -2   14.43    1.85
  10   2   2   13.02    1.30
 -10  -3  -2   12.49    1.87
  10   3   2    8.76    1.14
 -10  -4  -2   10.94    1.91
  10   4   2   14.12    1.28
  10   5   2    9.38    1.12
 -10   5  -3   18.18    2.35
 -10   5  -3   21.98    3.68
 -10   5  -3   15.96    2.72
 -10   5  -3   21.82    2.45
 -10   4  -3   16.37    2.40
 -10   4  -3   21.70    3.18
 -10   4  -3   15.97    2.20
 -10   4  -3   16.82    2.17
  10  -4   3   12.23    1.53
 -10   3  -3   10.42    1.68
 -10   3  -3   11.83    1.77
 -10   3  -3   11.13    1.75
 -10   3  -3   10.70    1.98
  10  -3   3   16.84    1.64
  10  -3   3   14.01    1.40
 -10   2  -3   47.61    2.89
 -10   2  -3   48.43    2.60
 -10   2  -3   49.15    1.73
 -10   2  -3   48.33    3.30
 -10   2  -3   49.01    2.81
 -10   2  -3   52.02    3.05
  10  -2   3   47.09    2.56
  10  -2   3   46.54    3.05
  10  -2   3   48.02    2.40
 -10   1  -3    8.70    1.20
 -10   1  -3    7.11    1.20
 -10   1  -3    7.41    0.80
 -10   1  -3    6.81    0.99
 -10   1  -3    7.37    1.22
 -10   1  -3    7.46    1.33
  10  -1   3    8.96    1.39
  10  -1   3    9.51    1.04
  10  -1   3    8.17    1.29
 -10   0  -3  131.01    5.33
 -10   0  -3  121.32    4.79
 -10   0  -3  128.56    4.41
 -10   0  -3  124.02    4.99
 -10   0  -3  122.36    4.19
 -10   0  -3  124.82    4.95
  10   0   3  135.17    5.25
  10   0   3  129.38    4.99
  10   0   3  135.49    4.37
 -10  -1  -3    7.86    1.29
 -10  -1  -3    8.38    1.37
 -10  -1  -3    8.42    0.83
  10   1   3    8.50    1.32
 -10  -2  -3   48.00    2.93
  10   2   3   45.81    2.55
 -10  -3  -3   10.34    1.80
  10   3   3   14.29    1.37
 -10  -4  -3   14.42    2.20
  10   4   3   13.20    1.41
  10   5   3   17.95    1.63
 -10   5  -4    5.60    1.51
 -10   5  -4    8.07    2.02
 -10   5  -4    8.60    2.58
 -10   4  -4    5.71    1.64
 -10   4  -4    4.97    1.79
 -10   4  -4    2.69    1.19
  10  -4   4    4.54    1.11
 -10   3  -4   26.49    2.52
 -10   3  -4   26.27    2.46
 -10   3  -4   33.55    3.17
  10  -3   4   27.91    2.00
  10  -3   4   32.12    2.23
 -10   2  -4   19.75    1.76
 -10   2  -4   18.21    2.39
 -10   2  -4   18.08    2.13
 -10   2  -4   17.45    1.80
  10  -2   4   12.96    1.37
 -10   1  -4  117.39    4.68
 -10   1  -4  114.43    4.93
 -10   1  -4  116.33    4.07
 -10   1  -4  112.52    4.86
 -10   1  -4  116.77    4.51
 -10   1  -4  108.95    5.27
  10  -1   4  117.64    4.32
  10  -1   4  119.14    4.98
  10  -1   4  119.80    4.69
 -10   0  -4   49.26    2.80
 -10   0  -4   52.24    3.16
 -10   0  -4   48.83    2.22
 -10   0  -4   50.81    2.71
  10   0   4   50.76    2.89
  10   0   4   51.49    2.23
 -10  -1  -4  109.64    4.79
 -10  -1  -4  112.61    3.95
 -10  -1  -4  105.10    5.00
  10   1   4  113.12    4.75
 -10  -2  -4   17.22    2.12
  10   2   4   16.36    1.60
 -10  -3  -4   25.28    2.36
  10   3   4   26.30    2.00
 -10  -4  -4    5.55    1.51
  10   4   4    3.98    1.00
  10   5   4    8.10    1.35
 -10   5  -5    8.49    1.78
 -10   5  -5    7.44    2.55
 -10   5  -5    8.76    2.25
  10  -5   5    3.31    1.91
 -10   4  -5   17.89    2.70
 -10   4  -5   17.85    2.35
 -10   4  -5   14.61    2.87
  10  -4   5   20.61    2.00
 -10   3  -5   59.66    4.31
 -10   3  -5   60.45    3.55
 -10   3  -5   61.55    3.66
 -10   3  -5   62.40    3.86
  10  -3   5   52.31    3.68
  10  -3   5   55.30    3.01
 -10   2  -5   51.48    3.14
 -10   2  -5   55.18    3.22
 -10   2  -5   54.36    3.29
 -10   2  -5   53.65    3.75
  10  -2   5   52.75    3.29
  10  -2   5   56.56    2.77
 -10   1  -5  123.25    5.47
 -10   1  -5  129.36    5.13
 -10   1  -5  138.51    6.10
 -10   1  -5  129.12    5.09
 -10   1  -5  130.10    4.56
  10  -1   5  133.16    5.25
  10  -1   5  128.39    4.78
 -10   0  -5    5.06    1.20
 -10   0  -5    3.96    1.23
 -10   0  -5    7.11    1.23
 -10   0  -5    3.55    0.70
  10   0   5    0.73    0.79
 -10  -1  -5  127.99    4.60
 -10  -1  -5  126.56    5.86
 -10  -1  -5  129.80    5.54
  10   1   5  133.09    5.51
 -10  -2  -5   48.90    3.14
  10   2   5   56.67    3.18
 -10  -3  -5   56.93    3.49
  10   3   5   51.87    3.13
 -10  -4  -5   15.30    2.29
  10   4   5   22.10    2.05
  10   5   5    4.58    1.25
 -10   5  -6    1.63    2.05
 -10   5  -6    3.45    1.81
 -10   5  -6    2.93    1.16
  10  -5   6    2.65    1.89
  10  -5   6    1.39    1.19
 -10   4  -6    6.26    1.53
 -10   4  -6    5.96    2.18
 -10   4  -6    8.83    2.08
  10  -4   6    8.01    1.48
  10  -4   6    6.82    2.06
 -10   3  -6   11.76    1.89
 -10   3  -6   10.18    1.94
 -10   3  -6    7.59    2.00
 -10   3  -6    9.51    1.76
  10  -3   6    9.12    1.44
  10  -3   6    7.37    1.76
 -10   2  -6   60.71    4.16
 -10   2  -6   59.82    3.63
 -10   2  -6   60.11    3.57
  10  -2   6   62.19    3.10
  10  -2   6   55.98    3.59
 -10   1  -6   37.41    2.78
 -10   1  -6   36.98    3.11
 -10   1  -6   35.68    2.44
 -10   1  -6   34.95    1.88
  10  -1   6   31.91    2.62
  10  -1   6   40.26    2.22
 -10   0  -6  141.48    6.04
 -10   0  -6  139.53    5.70
 -10   0  -6  135.66    6.36
 -10   0  -6  137.71    4.99
  10   0   6  145.21    6.10
 -10  -1  -6   35.38    2.69
 -10  -1  -6   32.05    3.02
 -10  -1  -6   38.55    2.02
  10   1   6   36.89    2.72
 -10  -2  -6   57.64    3.53
  10   2   6   60.40    3.52
 -10  -3  -6    8.21    1.68
  10   3   6    6.96    1.47
 -10  -4  -6    7.22    1.81
  10   4   6    8.52    1.58
 -10  -5  -6    1.81    1.87
  10   5   6    0.60    0.99
 -10   4  -7   22.74    3.10
 -10   4  -7   25.71    3.90
 -10   4  -7   16.49    2.41
  10  -4   7   17.04    2.81
  10  -4   7   18.51    2.15
 -10   3  -7   19.30    2.57
 -10   3  -7   23.97    2.59
 -10   3  -7   22.47    3.35
 -10   3  -7   22.48    2.95
  10  -3   7   25.43    2.22
  10  -3   7   28.21    2.95
 -10   2  -7   34.74    2.92
 -10   2  -7   31.05    3.21
 -10   2  -7   31.99    2.83
  10  -2   7   33.48    2.32
  10  -2   7   30.63    2.77
 -10   1  -7   70.07    4.10
 -10   1  -7   71.99    3.03
 -10   1  -7   70.08    4.54
  10  -1   7   76.56    3.43
 -10   0  -7  144.01    6.11
 -10   0  -7  149.32    5.42
 -10   0  -7  147.69    6.57
 -10   0  -7  141.82    6.87
  10   0   7  159.50    6.15
 -10  -1  -7   69.11    4.06
 -10  -1  -7   67.53    3.11
 -10  -1  -7   73.08    4.61
  10   1   7   69.08    4.06
 -10  -2  -7   29.32    2.69
 -10  -2  -7   32.07    2.03
  10   2   7   34.13    2.78
 -10  -3  -7   22.19    2.76
  10   3   7   26.02    2.53
  10   4   7   21.38    2.65
 -10   4  -8    0.69    1.60
 -10   4  -8    0.58    1.16
 -10   4  -8    0.44    1.31
  10  -4   8   -0.64    1.25
  10  -4   8   -0.40    0.93
 -10   3  -8   20.82    3.28
 -10   3  -8   22.41    2.91
 -10   3  -8   16.22    2.56
  10  -3   8   16.66    2.03
  10  -3   8   21.37    3.06
 -10   2  -8   19.43    2.68
 -10   2  -8   15.57    2.65
  10  -2   8   16.89    2.41
  10  -2   8   21.19    2.02
 -10   1  -8   79.69    5.09
 -10   1  -8   77.81    4.69
 -10   1  -8   78.30    3.36
  10  -1   8   80.90    3.74
 -10   0  -8   36.61    2.88
 -10   0  -8   32.95    2.09
 -10   0  -8   35.47    3.04
 -10   0  -8   37.22    3.58
 -10  -1  -8   68.47    4.85
 -10  -1  -8   73.15    3.34
 -10  -1  -8   68.47    4.22
  10   1   8   72.85    4.91
 -10  -2  -8   18.52    1.64
 -10  -2  -8   15.39    2.27
 -10  -2  -8   18.92    3.03
  10   2   8   19.63    2.63
 -10  -3  -8   16.29    2.48
  10   3   8   19.84    2.65
 -10  -4  -8    0.13    1.32
  10   4   8    0.49    1.08
 -10   4  -9    4.46    2.30
  10  -4   9    8.10    2.40
  10  -4   9    7.97    1.75
 -10   3  -9   20.84    3.06
 -10   3  -9   21.36    3.32
  10  -3   9   19.47    2.30
  10  -3   9   24.32    3.24
 -10   2  -9   57.14    4.22
 -10   2  -9   55.93    4.71
  10  -2   9   68.06    3.60
 -10   1  -9   27.93    3.41
 -10   1  -9   21.00    1.66
 -10   1  -9   26.15    3.41
  10  -1   9   20.00    1.98
 -10   0  -9   82.04    3.68
 -10   0  -9   80.98    4.91
 -10   0  -9   81.59    4.50
 -10   0  -9   83.09    5.41
 -10  -1  -9   23.63    1.91
 -10  -1  -9   20.32    3.08
 -10  -1  -9   26.38    2.75
 -10  -2  -9   56.90    3.10
 -10  -2  -9   54.65    4.04
 -10  -2  -9   51.99    4.70
  10   2   9   61.63    4.23
 -10  -3  -9   25.95    2.96
  10   3   9   22.57    3.00
 -10  -4  -9    9.43    2.70
 -10   3 -10    1.09    1.56
 -10   3 -10    0.08    1.61
  10  -3  10    0.59    1.06
 -10   2 -10   32.82    4.12
 -10   2 -10   34.07    3.57
  10  -2  10   28.52    2.66
 -10   1 -10   21.30    3.38
 -10   1 -10   23.08    3.21
  10  -1  10   21.57    2.14
 -10   0 -10   48.64    4.53
 -10   0 -10   51.11    4.13
 -10   0 -10   48.68    2.88
 -10   0 -10   47.20    3.99
 -10  -1 -10   26.76    3.00
 -10  -1 -10   18.62    3.23
 -10  -1 -10   23.67    2.05
 -10  -2 -10   30.63    3.28
 -10  -2 -10   29.53    4.11
 -10  -2 -10   29.94    2.37
 -10  -3 -10    0.68    1.32
 -10  -3 -10   -2.88    1.42
 -10  -3 -10    0.07    1.26
  10   3  10    0.76    1.45
 -10   2 -11   13.56    2.91
 -10   2 -11    7.18    2.35
  10  -2  11    5.45    1.45
 -10   1 -11   32.40    3.53
 -10   1 -11   32.63    4.19
 -10   0 -11   13.92    2.92
 -10   0 -11   12.74    1.68
 -10   0 -11    9.82    2.34
 -10  -1 -11   33.58    4.67
 -10  -1 -11   34.89    2.63
 -10  -1 -11   34.29    3.73
 -10  -1 -11   27.16    3.56
 -10  -2 -11    5.83    2.44
 -10  -2 -11    7.87    2.12
 -10   0 -12    7.19    2.59
 -10   0 -12    1.84    1.66
 -10   0 -12    4.05    1.97
 -11   2  11   13.73    2.91
 -11   1  11    2.19    1.02
 -11   1  11    5.28    2.08
 -11   0  11    0.61    1.50
 -11   0  11    1.49    0.96
 -11   0  11    0.00    0.94
 -11  -1  11    5.22    1.53
 -11  -1  11    4.14    2.03
  11   1 -11    1.18    1.86
 -11  -2  11   18.61    3.37
 -11  -2  11   13.67    2.15
  11   2 -11   14.60    3.59
 -11   3  10    2.30    1.83
  11  -3 -10    6.31    2.74
 -11   2  10   20.94    3.43
  11  -2 -10   19.27    3.76
  11  -2 -10   17.46    2.36
 -11   1  10    0.31    0.72
 -11   1  10    0.70    1.45
 -11   1  10   -0.27    1.15
  11  -1 -10    0.05    0.86
 -11   0  10   -0.25    0.71
 -11   0  10    0.00    1.32
 -11   0  10    1.37    1.02
 -11  -1  10   -0.39    1.30
 -11  -1  10    0.62    1.03
  11   1 -10    0.16    1.57
  11   1 -10   -0.37    1.76
 -11  -2  10   16.32    2.19
 -11  -2  10   16.59    3.13
  11   2 -10   15.44    3.17
  11   2 -10   19.28    3.88
 -11  -3  10    1.88    1.84
 -11  -3  10    1.66    1.27
  11   3 -10   -0.06    2.01
  11   3 -10    3.29    2.01
 -11   3   9   21.86    3.46
  11  -3  -9   19.90    2.56
  11  -3  -9   20.57    3.94
 -11   2   9   17.17    2.14
 -11   2   9   18.99    3.14
  11  -2  -9   21.72    3.64
  11  -2  -9   19.63    2.35
 -11   1   9    3.20    0.95
 -11   1   9    1.32    0.91
 -11   1   9    3.26    1.66
  11  -1  -9    1.42    0.87
  11  -1  -9    0.97    1.56
 -11   0   9    0.06    0.68
 -11   0   9   -0.86    1.03
 -11   0   9    0.57    0.88
  11   0  -9   -0.05    1.42
 -11  -1   9    1.53    1.03
 -11  -1   9    0.83    1.30
  11   1  -9    1.51    1.67
  11   1  -9    0.01    1.36
 -11  -2   9   16.00    2.01
 -11  -2   9   15.48    2.75
  11   2  -9   18.56    3.06
  11   2  -9   17.33    3.54
 -11  -3   9   16.14    3.03
  11   3  -9   17.42    3.06
  11   3  -9   18.73    3.86
 -11   4   8    3.04    1.85
  11  -4  -8    0.79    2.13
  11  -4  -8    1.63    1.34
  11  -3  -8   28.76    2.74
  11  -3  -8   24.47    4.04
 -11   2   8    3.50    1.60
 -11   2   8    4.17    0.87
  11  -2  -8    2.96    1.89
  11  -2  -8    2.61    1.12
 -11   1   8    3.99    0.98
 -11   1   8    3.41    1.09
 -11   1   8    3.72    1.64
  11  -1  -8    3.62    1.84
  11  -1  -8    3.83    1.06
 -11   0   8   -0.06    1.13
 -11   0   8    0.08    0.62
 -11   0   8    0.05    0.73
  11   0  -8   -0.45    1.02
 -11  -1   8    3.39    1.16
 -11  -1   8    2.97    1.41
  11   1  -8    3.51    1.86
  11   1  -8    4.33    1.72
 -11  -2   8    2.10    1.41
 -11  -2   8    2.05    1.00
  11   2  -8    2.92    1.63
  11   2  -8    3.36    1.92
 -11  -3   8   30.14    3.45
  11   3  -8   29.45    3.29
  11   3  -8   31.77    4.47
 -11  -4   8    1.37    1.70
  11   4  -8    1.50    1.95
  11   4  -8    1.94    1.39
 -11   4   7   16.05    2.97
  11  -4  -7    5.86    2.74
  11  -4  -7   12.87    2.19
  11  -4  -7    7.73    1.79
 -11   3   7   22.71    3.12
  11  -3  -7   26.16    4.06
  11  -3  -7   26.48    2.57
 -11   2   7   12.27    1.24
 -11   2   7   13.01    2.26
  11  -2  -7    8.00    1.51
  11  -2  -7    8.71    2.33
 -11   1   7    7.25    1.28
 -11   1   7    7.77    1.76
 -11   1   7    6.10    1.12
  11  -1  -7    6.48    1.97
  11  -1  -7    9.66    1.42
 -11   0   7   -0.67    0.64
 -11   0   7    1.64    1.19
 -11   0   7    0.50    0.60
  11   0  -7    0.05    1.02
  11   0  -7   -1.06    1.03
  11   0  -7    0.86    1.14
 -11  -1   7    5.22    1.54
 -11  -1   7    5.96    1.23
  11   1  -7    3.93    1.58
  11   1  -7    8.27    2.05
 -11  -2   7   10.84    1.55
 -11  -2   7   13.94    2.31
  11   2  -7    9.52    2.49
  11   2  -7   11.97    2.27
 -11  -3   7   22.22    3.08
  11   3  -7   29.94    4.15
  11   3  -7   28.56    2.96
 -11  -4   7   16.85    2.78
  11   4  -7    8.76    2.68
  11   4  -7   11.27    2.07
 -11   5   6    2.48    1.72
 -11   5   6    2.42    1.43
 -11   5   6    2.43    1.87
  11  -5  -6    1.33    1.40
  11  -5  -6    0.53    2.13
 -11   4   6   29.96    3.82
 -11   4   6   26.44    2.77
 -11   4   6   23.84    3.35
  11  -4  -6   27.19    4.50
  11  -4  -6   25.26    2.75
  11  -4  -6   24.78    2.73
 -11   3   6    4.79    1.66
 -11   3   6    4.23    1.69
 -11   3   6    2.74    1.06
  11  -3  -6    2.05    1.15
  11  -3  -6    4.09    1.20
  11  -3  -6    2.88    1.80
 -11   2   6   19.89    2.75
 -11   2   6   21.74    1.44
  11  -2  -6   15.00    2.73
  11  -2  -6   19.25    2.10
 -11   1   6    0.81    0.97
 -11   1   6    0.84    0.64
 -11   1   6    1.96    0.83
  11  -1  -6    2.16    1.45
  11  -1  -6    0.42    0.72
 -11   0   6   -0.15    0.96
 -11   0   6    0.01    0.59
 -11   0   6   -0.88    0.61
  11   0  -6    0.34    1.08
  11   0  -6   -0.04    0.95
  11   0  -6   -0.62    0.97
 -11  -1   6    2.06    1.18
  11   1  -6   -0.64    1.08
  11   1  -6    2.02    1.28
  11   1  -6    1.15    1.02
 -11  -2   6   19.71    2.51
  11   2  -6   15.28    2.78
  11   2  -6   16.85    2.35
 -11  -3   6    2.84    1.37
  11   3  -6    3.59    1.29
  11   3  -6    4.12    1.90
 -11  -4   6   27.69    3.15
  11   4  -6   25.54    4.01
  11   4  -6   25.71    2.57
  11   5  -6    2.88    1.17
  11   5  -6   -1.92    1.76
 -11   5   5    9.27    2.31
 -11   5   5    7.00    2.19
 -11   5   5   10.65    2.24
  11  -5  -5    3.78    1.55
  11  -5  -5    4.19    2.75
 -11   4   5   45.58    3.51
 -11   4   5   38.86    3.52
 -11   4   5   42.92    3.92
  11  -4  -5   37.39    3.06
  11  -4  -5   39.88    4.74
  11  -4  -5   42.99    3.18
 -11   3   5   33.03    3.12
 -11   3   5   28.95    2.52
  11  -3  -5   20.33    2.20
  11  -3  -5   22.48    3.58
  11  -3  -5   21.14    2.17
 -11   2   5   38.44    1.99
 -11   2   5   36.36    3.15
 -11   2   5   39.24    2.68
  11  -2  -5   46.11    4.11
  11  -2  -5   41.96    2.73
  11  -2  -5   43.49    2.75
 -11   1   5    7.51    1.21
 -11   1   5    8.97    1.19
 -11   1   5    9.26    1.66
  11  -1  -5    7.23    1.21
  11  -1  -5    6.56    1.79
 -11   0   5    0.32    0.81
 -11   0   5   -0.13    0.50
 -11   0   5    1.44    0.77
  11   0  -5   -0.09    0.90
  11   0  -5    0.10    0.95
  11   0  -5    0.22    0.89
  11   0  -5    0.03    0.29
 -11  -1   5    9.06    1.35
 -11  -1   5    9.67    1.65
  11   1  -5    5.81    1.56
  11   1  -5    7.15    1.90
  11   1  -5    8.10    1.66
 -11  -2   5   41.08    3.03
  11   2  -5   36.97    3.00
  11   2  -5   39.53    3.09
  11   2  -5   39.65    3.72
 -11  -3   5   29.09    2.78
  11   3  -5   21.18    2.27
  11   3  -5   22.08    3.34
  11   4  -5   43.48    3.02
  11   4  -5   42.33    4.41
  11   5  -5    3.91    1.13
  11   5  -5    4.03    2.22
 -11   5   4   17.81    2.86
 -11   5   4   19.63    3.16
 -11   5   4   22.66    3.11
  11  -5  -4   19.82    4.20
  11  -5  -4   16.85    2.30
 -11   4   4    4.42    1.59
 -11   4   4    6.08    1.85
 -11   4   4    4.00    1.41
  11  -4  -4    6.86    2.53
  11  -4  -4    5.07    1.32
 -11   3   4   14.61    2.23
 -11   3   4   21.83    2.94
 -11   3   4   16.38    2.16
  11  -3  -4   14.82    1.79
  11  -3  -4   15.06    1.85
  11  -3  -4   12.24    2.59
 -11   2   4    2.64    1.06
 -11   2   4    4.07    1.01
 -11   2   4    2.36    1.26
 -11   2   4    3.86    0.64
  11  -2  -4    3.43    0.96
  11  -2  -4    4.49    1.05
  11  -2  -4    2.64    1.54
 -11   1   4    2.93    0.86
 -11   1   4    3.40    1.15
 -11   1   4    4.01    0.82
  11  -1  -4    3.61    0.90
  11  -1  -4    3.09    1.23
  11  -1  -4    2.87    0.97
  11  -1  -4    2.04    1.29
 -11   0   4    0.20    0.45
 -11   0   4   -0.40    0.62
 -11   0   4   -0.46    0.68
  11   0  -4   -0.40    0.82
  11   0  -4    1.42    0.98
  11   0  -4   -0.12    0.77
 -11  -1   4    2.96    1.04
 -11  -1   4    2.24    0.79
  11   1  -4    3.42    1.17
  11   1  -4    2.75    1.13
  11   1  -4    4.08    1.40
 -11  -2   4    5.67    1.32
  11   2  -4    4.44    1.25
  11   2  -4    3.28    1.38
 -11  -3   4   14.17    2.03
  11   3  -4   14.24    1.80
  11   3  -4   12.22    2.52
  11   4  -4    7.63    2.13
  11   4  -4    5.14    1.18
  11   5  -4   17.88    1.65
  11   5  -4   23.85    3.69
 -11   5   3   22.42    3.12
 -11   5   3   19.34    3.01
 -11   5   3   16.57    2.81
  11  -5  -3   19.21    4.02
  11  -5  -3   19.29    2.27
 -11   4   3   12.29    2.15
 -11   4   3   15.33    2.37
 -11   4   3   13.12    2.39
  11  -4  -3    7.24    1.37
  11  -4  -3    8.74    2.62
 -11   3   3   28.50    2.64
 -11   3   3   31.46    3.01
 -11   3   3   31.04    2.63
  11  -3  -3   33.31    3.64
  11  -3  -3   33.52    2.34
  11  -3  -3   29.15    2.31
 -11   2   3   11.46    1.76
 -11   2   3   14.33    1.82
 -11   2   3   13.14    2.03
 -11   2   3   10.75    0.89
  11  -2  -3    8.54    1.33
  11  -2  -3    8.05    1.99
  11  -2  -3   10.05    1.39
 -11   1   3   15.12    1.75
 -11   1   3   13.77    1.20
 -11   1   3   14.09    1.48
 -11   1   3   16.79    2.21
 -11   1   3   14.14    1.56
  11  -1  -3   15.94    1.48
  11  -1  -3   13.92    1.87
  11  -1  -3   15.34    1.43
  11  -1  -3   11.93    2.15
  11  -1  -3   14.77    1.46
 -11   0   3   -0.29    0.39
 -11   0   3   -0.14    0.56
 -11   0   3   -0.49    0.56
  11   0  -3    0.13    0.86
  11   0  -3   -0.86    0.65
  11   0  -3   -0.49    0.64
 -11  -1   3   14.58    1.76
  11   1  -3   12.04    1.70
  11   1  -3   15.37    2.22
  11   1  -3   11.55    1.82
 -11  -2   3   14.07    1.72
  11   2  -3    7.91    1.82
  11   2  -3    7.94    1.39
  11   3  -3   29.93    2.26
  11   3  -3   36.53    3.37
  11   4  -3    9.34    2.27
  11   4  -3    7.74    1.19
  11   5  -3   21.43    3.38
  11   5  -3   21.97    1.48
 -11   5   2    5.99    1.89
 -11   5   2    6.45    1.89
 -11   5   2    5.85    1.88
  11  -5  -2    6.39    2.60
  11  -5  -2    7.79    1.50
 -11   4   2   10.48    2.06
 -11   4   2   14.18    2.49
 -11   4   2   13.14    2.20
  11  -4  -2   10.02    2.53
  11  -4  -2    6.70    1.30
 -11   3   2    2.90    1.33
 -11   3   2    1.02    0.91
 -11   3   2    1.69    1.00
  11  -3  -2    3.20    0.98
  11  -3  -2    2.39    0.85
  11  -3  -2    2.88    1.50
 -11   2   2    6.31    1.35
 -11   2   2    4.58    0.59
 -11   2   2    3.35    1.00
 -11   2   2    4.31    1.37
  11  -2  -2    4.33    0.92
  11  -2  -2    1.86    1.35
  11  -2  -2    3.99    0.95
 -11   1   2    3.09    0.86
 -11   1   2    3.62    0.80
 -11   1   2    2.12    0.99
 -11   1   2    2.87    0.61
 -11   1   2    2.91    0.83
 -11   1   2    3.17    0.83
  11  -1  -2    1.88    1.15
  11  -1  -2    2.86    0.74
  11  -1  -2    2.88    0.71
  11  -1  -2    3.00    1.06
 -11   0   2    0.63    0.57
 -11   0   2   -0.19    0.36
 -11   0   2    0.50    0.42
 -11   0   2    0.32    0.55
  11   0  -2    0.36    0.84
  11   0  -2    0.07    0.65
  11   0  -2   -0.35    0.59
 -11  -1   2    3.58    0.86
 -11  -1   2    2.51    0.64
  11   1  -2    2.36    1.07
  11   1  -2    2.62    0.86
  11   1  -2    2.97    1.08
 -11  -2   2    6.40    1.11
  11   2  -2    9.23    1.85
  11   2  -2    4.85    1.08
  11   3  -2    2.01    0.74
  11   3  -2    2.67    1.30
  11   4  -2   10.91    2.32
  11   4  -2   11.46    1.24
  11   5  -2    6.78    2.11
  11   5  -2    5.38    0.68
 -11   5   1    6.98    2.02
 -11   5   1   10.56    2.25
 -11   5   1    9.01    2.10
  11  -5  -1    5.62    2.45
  11  -5  -1    6.21    1.36
 -11   4   1   17.24    2.45
 -11   4   1   17.83    2.69
 -11   4   1   20.24    2.85
  11  -4  -1   19.82    3.23
  11  -4  -1   21.59    1.92
 -11   3   1   24.31    2.86
 -11   3   1   22.31    2.25
 -11   3   1   24.72    2.88
  11  -3  -1   14.86    1.71
  11  -3  -1   14.41    1.60
  11  -3  -1   18.23    2.91
 -11   2   1    5.87    1.28
 -11   2   1    6.31    0.63
 -11   2   1    5.56    1.22
 -11   2   1    3.58    1.30
  11  -2  -1    7.10    1.78
  11  -2  -1    6.33    1.09
  11  -2  -1    6.66    1.04
 -11   1   1    2.21    0.75
 -11   1   1    1.41    0.46
 -11   1   1    1.72    0.60
 -11   1   1    0.78    0.58
 -11   1   1    0.66    0.68
 -11   1   1    1.32    0.67
  11  -1  -1    0.30    0.49
  11  -1  -1    1.66    0.81
  11  -1  -1    0.01    0.89
  11  -1  -1    0.50    0.52
 -11   0   1    0.09    0.50
 -11   0   1   -0.15    0.32
 -11   0   1    0.16    0.42
 -11   0   1    0.62    0.53
 -11   0   1    0.07    0.41
  11   0  -1   -0.11    0.54
  11   0  -1    0.57    0.70
 -11  -1   1    1.99    0.56
 -11  -1   1    0.97    0.54
 -11  -1   1    1.32    0.44
 -11  -1   1    1.91    0.57
  11   1  -1    1.01    0.76
  11   1  -1   -0.21    0.51
  11   1  -1    1.51    0.87
  11   2  -1    7.79    1.57
  11   2  -1    6.94    1.09
  11   3  -1   18.97    1.52
  11   3  -1   16.26    2.37
  11   4  -1   29.79    3.20
  11   4  -1   23.15    1.54
 -11  -5   1    5.29    1.76
  11   5  -1    5.68    0.66
 -11   5   0    1.73    1.37
 -11   5   0    2.32    1.46
 -11   5   0    0.28    1.16
  11  -5   0    0.62    0.89
 -11   4   0    6.20    1.64
 -11   4   0    6.86    1.58
 -11   4   0    4.58    1.59
  11  -4   0    5.98    2.02
  11  -4   0    5.74    1.13
 -11   3   0    4.36    1.44
 -11   3   0    4.33    1.33
 -11   3   0    3.82    1.11
  11  -3   0    5.14    1.10
  11  -3   0    3.72    0.91
  11  -3   0    3.55    1.50
 -11   2   0   -0.25    0.21
 -11   2   0   -0.53    0.56
 -11   2   0   -0.43    0.54
 -11   2   0   -0.55    0.60
  11  -2   0    0.08    0.86
  11  -2   0   -0.26    0.47
  11  -2   0   -0.16    0.53
 -11   1   0    3.11    0.83
 -11   1   0    5.61    1.00
 -11   1   0    2.29    0.58
 -11   1   0    4.26    0.64
 -11   1   0    3.65    1.03
 -11   1   0    4.24    0.85
  11  -1   0    4.14    0.81
  11  -1   0    4.53    1.02
  11  -1   0    3.90    1.28
  11  -1   0    5.07    0.86
 -11   0   0   -0.54    0.41
 -11   0   0   -0.20    0.30
 -11   0   0    0.30    0.45
 -11   0   0    0.29    0.35
 -11   0   0   -0.38    0.39
  11   0   0   -0.34    0.58
  11   0   0    0.29    0.32
  11   0   0   -0.53    0.40
 -11  -1   0    3.87    0.98
 -11  -1   0    4.20    0.63
 -11  -1   0    5.47    0.91
  11   1   0    4.59    1.17
  11   1   0    3.20    0.86
 -11  -2   0   -0.12    0.71
  11   2   0    0.13    0.45
 -11  -3   0    3.09    1.31
  11   3   0    3.00    0.75
 -11  -4   0    8.76    1.96
  11   4   0    7.40    0.96
 -11  -5   0    1.77    1.42
  11   5   0    0.59    0.41
 -11   5  -1    5.20    1.95
 -11   5  -1    4.50    1.69
 -11   5  -1   10.50    2.09
 -11   4  -1   24.70    2.65
 -11   4  -1   26.05    3.36
 -11   4  -1   22.44    2.53
  11  -4   1   15.60    1.69
  11  -4   1   18.18    3.06
 -11   3  -1   17.82    2.52
 -11   3  -1   17.25    2.03
 -11   3  -1   14.25    2.15
  11  -3   1   21.84    1.93
  11  -3   1   21.95    1.70
  11  -3   1   22.66    3.01
 -11   2  -1    7.75    1.29
 -11   2  -1    7.89    0.65
 -11   2  -1    6.93    1.41
 -11   2  -1    7.84    1.54
  11  -2   1    5.79    0.97
  11  -2   1    5.83    1.06
  11  -2   1    5.98    1.52
 -11   1  -1    0.39    0.46
 -11   1  -1    0.60    0.52
 -11   1  -1    0.42    0.61
 -11   1  -1    1.43    0.73
 -11   1  -1    0.51    0.32
 -11   1  -1    0.49    0.60
  11  -1   1    0.84    0.64
  11  -1   1    0.98    0.52
  11  -1   1    1.78    0.94
 -11   0  -1    0.08    0.47
 -11   0  -1    0.07    0.45
 -11   0  -1    0.13    0.29
 -11   0  -1    0.06    0.29
 -11   0  -1    0.40    0.49
  11   0   1   -0.09    0.52
  11   0   1   -0.35    0.26
  11   0   1    0.62    0.57
 -11  -1  -1    0.47    0.62
 -11  -1  -1    1.29    0.61
 -11  -1  -1    0.43    0.39
  11   1   1    1.17    0.59
 -11  -2  -1    8.06    1.59
  11   2   1    6.67    1.05
 -11  -3  -1   12.21    2.02
  11   3   1   20.66    1.53
 -11  -4  -1   15.65    2.35
  11   4   1   15.79    1.29
 -11  -5  -1    9.41    2.17
  11   5   1    8.95    1.03
 -11   5  -2    5.21    1.66
 -11   5  -2    6.69    1.89
 -11   5  -2    7.39    2.39
 -11   4  -2    9.70    2.13
 -11   4  -2    9.23    1.85
 -11   4  -2    7.11    1.71
  11  -4   2   11.35    1.44
 -11   3  -2    1.85    1.09
 -11   3  -2    4.95    1.48
 -11   3  -2    3.15    1.14
  11  -3   2    2.26    0.85
  11  -3   2    3.06    1.38
  11  -3   2    1.84    0.74
 -11   2  -2    5.83    0.98
 -11   2  -2    4.75    0.54
 -11   2  -2    3.34    1.10
 -11   2  -2    3.35    0.91
 -11   2  -2    5.07    1.30
  11  -2   2    5.24    0.93
  11  -2   2    4.96    1.06
  11  -2   2    4.08    1.35
 -11   1  -2    2.93    0.93
 -11   1  -2    3.09    0.72
 -11   1  -2    2.43    0.85
 -11   1  -2    2.54    0.86
 -11   1  -2    3.74    1.04
 -11   1  -2    3.37    0.58
 -11   1  -2    3.36    0.83
  11  -1   2    1.93    0.92
  11  -1   2    0.96    0.65
  11  -1   2    2.66    0.68
 -11   0  -2    0.01    0.49
 -11   0  -2    0.20    0.57
 -11   0  -2   -0.05    0.29
 -11   0  -2   -0.02    0.50
  11   0   2   -0.07    0.56
  11   0   2   -0.10    0.34
  11   0   2   -0.85    0.35
 -11  -1  -2    4.04    0.64
 -11  -1  -2    3.60    0.90
 -11  -1  -2    2.85    0.91
  11   1   2    3.46    0.88
 -11  -2  -2    5.70    1.32
  11   2   2    3.61    0.86
 -11  -3  -2    3.05    1.22
  11   3   2    2.27    0.74
 -11  -4  -2    9.73    1.91
  11   4   2   12.37    1.27
 -11  -5  -2    6.60    1.95
  11   5   2    5.04    0.91
 -11   5  -3   21.54    3.69
 -11   5  -3   22.70    3.09
 -11   5  -3   25.09    2.63
 -11   5  -3   16.15    2.42
  11  -5   3   18.18    2.59
 -11   4  -3    7.41    1.67
 -11   4  -3    9.70    1.94
 -11   4  -3    8.27    1.69
 -11   4  -3    5.08    1.83
  11  -4   3   12.13    1.51
 -11   3  -3   26.92    3.31
 -11   3  -3   32.55    2.69
 -11   3  -3   33.87    2.69
 -11   3  -3   35.18    2.72
  11  -3   3   29.28    2.23
  11  -3   3   28.78    2.03
 -11   2  -3    8.29    1.25
 -11   2  -3    8.47    1.71
 -11   2  -3    7.74    1.39
 -11   2  -3    7.04    1.25
 -11   2  -3   10.06    1.63
  11  -2   3   11.69    1.79
  11  -2   3   10.90    1.25
 -11   1  -3   17.08    1.76
 -11   1  -3   14.11    1.96
 -11   1  -3   14.74    1.60
 -11   1  -3   16.68    1.55
 -11   1  -3   13.75    1.29
 -11   1  -3   16.73    1.14
  11  -1   3   13.73    1.31
  11  -1   3   16.16    1.79
  11  -1   3   11.77    1.58
 -11   0  -3   -0.45    0.52
 -11   0  -3    0.09    0.46
 -11   0  -3   -0.05    0.60
 -11   0  -3   -0.06    0.32
  11   0   3   -0.31    0.34
  11   0   3   -0.34    0.54
  11   0   3    0.18    0.56
 -11  -1  -3   14.53    1.12
 -11  -1  -3   15.01    1.83
 -11  -1  -3   14.29    1.54
  11   1   3   13.89    1.67
 -11  -2  -3    7.86    1.42
  11   2   3   10.34    1.41
 -11  -3  -3   29.65    2.60
  11   3   3   28.00    2.00
 -11  -4  -3   11.11    2.09
  11   4   3   11.62    1.44
  11   5   3   20.72    1.79
 -11   5  -4   19.76    2.70
 -11   5  -4   19.30    3.07
 -11   5  -4   25.95    4.10
  11  -5   4   21.51    2.26
 -11   4  -4    4.05    1.90
 -11   4  -4    8.31    1.71
 -11   4  -4    7.85    1.89
  11  -4   4    5.07    1.15
 -11   3  -4   15.12    2.13
 -11   3  -4   14.57    2.07
 -11   3  -4   18.08    2.75
  11  -3   4   15.95    1.60
  11  -3   4   17.98    1.79
 -11   2  -4    4.40    1.12
 -11   2  -4    4.82    1.39
 -11   2  -4    4.96    1.28
 -11   2  -4    5.33    0.60
 -11   2  -4    4.86    1.14
  11  -2   4    4.05    0.90
 -11   1  -4    2.78    0.92
 -11   1  -4    2.38    0.83
 -11   1  -4    2.79    1.06
 -11   1  -4    3.54    0.66
 -11   1  -4    2.78    0.70
  11  -1   4    4.10    0.92
  11  -1   4    1.73    0.86
  11  -1   4    3.37    0.79
 -11   0  -4   -0.30    0.35
 -11   0  -4   -0.33    0.54
 -11   0  -4   -0.22    0.61
 -11   0  -4   -0.10    0.76
  11   0   4   -0.11    0.39
  11   0   4    0.81    0.63
 -11  -1  -4    3.04    0.95
 -11  -1  -4    2.34    1.02
 -11  -1  -4    1.97    0.57
  11   1   4    4.55    1.06
 -11  -2  -4    5.16    1.26
  11   2   4    3.52    0.97
 -11  -3  -4   12.86    2.01
  11   3   4   14.36    1.60
 -11  -4  -4    5.03    1.46
  11   4   4    5.46    1.15
  11   5   4   20.91    1.98
 -11   5  -5    5.29    2.07
 -11   5  -5    5.70    1.61
 -11   5  -5    7.14    2.60
  11  -5   5    8.30    1.70
 -11   4  -5   42.29    3.61
 -11   4  -5   43.92    3.30
 -11   4  -5   40.34    4.63
  11  -4   5   36.93    2.72
 -11   3  -5   24.02    2.50
 -11   3  -5   20.49    2.87
 -11   3  -5   24.15    2.43
  11  -3   5   27.98    2.09
 -11   2  -5   45.16    3.49
 -11   2  -5   46.10    2.95
 -11   2  -5   46.27    2.91
 -11   2  -5   48.95    3.12
  11  -2   5   39.05    2.45
  11  -2   5   37.74    2.85
 -11   1  -5    4.47    1.32
 -11   1  -5    6.16    0.87
 -11   1  -5    7.53    1.46
 -11   1  -5    7.97    1.38
  11  -1   5    8.93    1.17
 -11   0  -5   -0.33    0.36
 -11   0  -5   -0.23    0.66
 -11   0  -5    0.29    0.80
 -11   0  -5   -0.17    0.60
  11   0   5   -0.76    0.64
  11   0   5   -0.43    0.42
 -11  -1  -5    7.00    0.93
 -11  -1  -5    6.97    1.54
 -11  -1  -5    5.50    1.21
  11   1   5    7.82    1.40
 -11  -2  -5   42.73    2.88
  11   2   5   36.26    2.62
 -11  -3  -5   21.68    2.26
  11   3   5   25.34    2.15
 -11  -4  -5   38.50    3.22
  11   4   5   34.24    2.63
  11   5   5    8.18    1.54
 -11   5  -6    5.67    1.94
 -11   5  -6    1.10    1.94
 -11   5  -6    3.61    1.47
  11  -5   6    2.03    1.25
  11  -5   6    2.87    1.78
 -11   4  -6   30.26    4.17
 -11   4  -6   22.79    2.85
 -11   4  -6   23.88    3.12
  11  -4   6   26.29    2.43
  11  -4   6   25.38    3.40
 -11   3  -6    3.60    1.28
 -11   3  -6    3.13    1.48
 -11   3  -6    3.26    1.24
 -11   3  -6    3.05    1.27
  11  -3   6    4.84    1.55
  11  -3   6    3.51    1.09
 -11   2  -6   18.69    2.12
 -11   2  -6   17.08    2.54
 -11   2  -6   20.40    2.51
 -11   2  -6   21.28    2.12
  11  -2   6   22.17    1.85
  11  -2   6   22.20    2.28
 -11   1  -6    0.64    0.89
 -11   1  -6    1.26    1.06
 -11   1  -6    1.02    0.94
 -11   1  -6    0.35    0.50
  11  -1   6    1.86    0.75
 -11   0  -6    0.50    0.91
 -11   0  -6   -0.12    0.44
 -11   0  -6   -0.46    0.77
 -11   0  -6   -0.85    0.75
  11   0   6   -0.25    1.11
 -11  -1  -6    2.48    1.08
 -11  -1  -6    1.77    0.65
 -11  -1  -6    1.31    1.12
  11   1   6    1.46    0.90
 -11  -2  -6   19.64    2.13
  11   2   6   20.61    2.08
 -11  -3  -6    3.08    1.20
  11   3   6    2.26    1.04
 -11  -4  -6   27.24    2.86
  11   4   6   24.18    2.42
  11   5   6   -0.09    0.94
 -11   4  -7    8.67    1.88
 -11   4  -7   12.16    2.87
 -11   4  -7   14.16    2.65
  11  -4   7   15.34    2.89
  11  -4   7   16.30    2.15
 -11   3  -7   32.18    3.13
 -11   3  -7   30.87    3.80
 -11   3  -7   27.16    2.81
 -11   3  -7   31.06    2.91
  11  -3   7   26.35    2.96
  11  -3   7   26.92    2.35
 -11   2  -7    8.03    1.67
 -11   2  -7    9.76    2.15
  11  -2   7   14.00    1.66
 -11   1  -7    8.90    1.95
 -11   1  -7    8.43    1.69
 -11   1  -7    7.70    1.01
  11  -1   7    7.06    1.16
 -11   0  -7   -0.28    0.45
 -11   0  -7   -0.22    0.96
 -11   0  -7   -0.29    0.78
 -11   0  -7   -0.48    0.79
 -11  -1  -7    7.15    1.07
 -11  -1  -7    5.54    1.68
 -11  -1  -7    8.55    1.66
  11   1   7    6.65    1.58
 -11  -2  -7   10.09    1.24
 -11  -2  -7    7.73    1.99
 -11  -2  -7   13.12    2.08
  11   2   7    9.34    1.70
 -11  -3  -7   28.07    2.78
  11   3   7   23.84    2.56
 -11  -4  -7   11.42    2.65
  11   4   7   15.77    2.26
 -11   4  -8    0.03    1.12
 -11   4  -8    1.34    1.76
 -11   4  -8   -0.02    1.43
  11  -4   8    0.41    1.00
  11  -4   8    0.79    1.59
 -11   3  -8   33.64    3.26
 -11   3  -8   30.09    3.17
 -11   3  -8   32.92    4.11
  11  -3   8   34.63    2.72
  11  -3   8   29.19    3.21
 -11   2  -8    4.80    1.65
 -11   2  -8    3.85    1.74
  11  -2   8    4.69    1.14
 -11   1  -8    2.26    1.44
 -11   1  -8    4.06    1.51
  11  -1   8    3.41    0.97
 -11   0  -8   -0.59    0.87
 -11   0  -8   -0.46    0.51
 -11   0  -8    1.54    1.28
 -11   0  -8   -0.28    0.81
 -11  -1  -8    2.72    1.41
 -11  -1  -8    4.15    0.91
 -11  -1  -8    5.17    1.76
 -11  -2  -8    5.53    1.93
 -11  -2  -8    2.07    1.26
 -11  -2  -8    3.54    0.95
  11   2   8    2.45    1.29
 -11  -3  -8   31.04    3.16
  11   3   8   30.63    2.99
  11   4   8    1.49    1.20
 -11   3  -9   19.11    3.04
 -11   3  -9   20.70    3.58
  11  -3   9   23.91    2.48
 -11   2  -9   17.69    2.73
 -11   2  -9   19.07    3.09
  11  -2   9   18.10    2.04
 -11   1  -9    1.14    1.30
 -11   1  -9    0.69    0.64
 -11   1  -9    0.80    1.40
  11  -1   9    1.71    0.92
 -11   0  -9    0.77    1.18
 -11   0  -9   -0.18    1.03
 -11   0  -9   -0.48    0.56
 -11   0  -9    0.48    1.37
 -11  -1  -9    1.25    1.25
 -11  -1  -9    3.04    1.74
 -11  -1  -9    1.65    0.82
 -11  -2  -9   19.52    1.87
 -11  -2  -9   14.73    3.01
 -11  -2  -9   20.89    2.79
  11   2   9    9.70    2.15
 -11  -3  -9   16.09    2.68
  11   3   9   19.33    2.82
 -11   3 -10    0.02    1.59
 -11   3 -10    0.05    1.68
  11  -3  10    3.06    1.37
 -11   2 -10   15.45    3.15
 -11   2 -10   17.36    3.01
  11  -2  10   16.15    2.04
 -11   1 -10   -0.01    1.41
 -11   1 -10    1.42    1.45
  11  -1  10    0.15    0.80
 -11   0 -10   -0.72    1.41
 -11   0 -10    0.02    1.73
 -11   0 -10   -0.71    0.69
 -11   0 -10   -0.13    1.04
 -11  -1 -10    1.36    1.38
 -11  -1 -10    1.02    1.60
 -11  -1 -10    0.52    0.75
 -11  -2 -10   16.75    2.76
 -11  -2 -10   17.31    2.00
 -11  -2 -10   16.18    3.24
 -11  -3 -10    0.03    1.42
 -11  -3 -10    2.13    1.47
 -11  -3 -10    0.76    1.85
  11   3  10    0.45    1.31
 -11   2 -11   12.46    2.58
 -11   2 -11   13.64    3.17
  11  -2  11   11.32    1.93
 -11   1 -11    1.15    1.68
 -11   1 -11    5.14    2.20
 -11   0 -11   -0.33    1.48
 -11   0 -11    0.83    0.93
 -11   0 -11   -0.13    1.24
 -11  -1 -11    3.54    1.83
 -11  -1 -11    3.02    1.42
 -11  -1 -11    0.40    1.49
 -11  -1 -11    7.93    2.53
 -11  -2 -11   14.03    2.79
 -11  -2 -11   10.80    2.91
 -12   1  11   11.51    2.55
 -12   0  11   -0.91    1.36
 -12   0  11    2.02    1.18
 -12  -1  11   13.98    2.17
 -12  -1  11   11.84    2.60
 -12  -1  11   10.81    1.92
  12   1 -11   12.19    3.21
 -12   2  10   36.14    4.03
  12  -2 -10   33.36    4.98
  12  -2 -10   40.75    3.25
 -12   1  10    0.38    1.41
 -12   1  10   -1.62    0.66
 -12   0  10   44.29    4.10
 -12   0  10   47.31    3.26
 -12   0  10   49.63    3.09
 -12  -1  10    0.77    1.34
 -12  -1  10    0.31    1.02
  12   1 -10    0.44    1.65
 -12  -2  10   41.60    3.20
 -12  -2  10   39.86    4.15
  12   2 -10   34.28    4.71
  12   2 -10   37.91    4.71
 -12   3   9    1.39    1.46
  12  -3  -9    0.07    1.21
  12  -3  -9    1.02    2.14
 -12   2   9   25.31    3.69
 -12   2   9   23.49    2.13
  12  -2  -9   15.32    2.19
  12  -2  -9   19.67    3.71
 -12   1   9    9.50    2.29
 -12   1   9    9.60    1.45
 -12   1   9    9.92    1.56
  12  -1  -9    8.70    2.46
  12  -1  -9    9.06    1.49
 -12   0   9    5.22    1.16
 -12   0   9    3.81    1.24
 -12   0   9    5.83    1.96
  12   0  -9    3.52    2.18
 -12  -1   9    8.19    1.53
 -12  -1   9    8.04    2.13
  12   1  -9    9.61    2.52
  12   1  -9    7.24    2.42
 -12  -2   9   18.83    2.22
 -12  -2   9   18.64    3.18
  12   2  -9   15.65    3.23
  12   2  -9   20.04    3.15
 -12  -3   9    0.04    1.41
  12   3  -9    2.01    1.53
  12   3  -9    2.11    2.27
 -12   4   8    0.74    1.62
  12  -4  -8    0.54    2.38
 -12   3   8   17.55    2.97
  12  -3  -8   13.64    3.35
  12  -3  -8   10.26    1.99
 -12   2   8    0.77    1.28
 -12   2   8    0.34    0.60
  12  -2  -8   -0.23    0.88
  12  -2  -8    0.27    1.55
 -12   1   8    4.89    1.23
 -12   1   8    6.03    1.22
 -12   1   8    5.87    1.82
  12  -1  -8    5.72    2.04
  12  -1  -8    5.90    1.20
 -12   0   8    2.35    1.32
 -12   0   8    1.41    0.80
 -12   0   8    2.49    1.04
  12   0  -8    2.61    1.59
 -12  -1   8    6.39    1.81
 -12  -1   8    5.44    1.31
  12   1  -8    4.86    1.99
  12   1  -8    4.09    1.85
 -12  -2   8    0.17    1.12
 -12  -2   8    0.36    0.86
  12   2  -8    1.30    1.23
  12   2  -8    0.81    1.46
 -12  -3   8   16.80    2.81
  12   3  -8    8.91    2.82
  12   3  -8   14.42    2.62
 -12  -4   8    1.45    1.66
  12   4  -8    1.79    1.47
  12   4  -8   -0.85    2.07
 -12   4   7   -0.19    1.35
  12  -4  -7    0.46    1.26
  12  -4  -7    0.37    1.16
  12  -4  -7   -0.34    2.03
 -12   3   7    7.40    2.05
  12  -3  -7    8.55    1.71
  12  -3  -7    6.65    2.58
 -12   2   7   23.49    1.68
 -12   2   7   25.98    3.27
  12  -2  -7   19.57    3.33
  12  -2  -7   23.59    2.31
 -12   1   7   28.11    2.87
 -12   1   7   27.50    2.07
 -12   1   7   25.57    2.13
  12  -1  -7   30.34    3.48
  12  -1  -7   25.05    2.09
 -12   0   7   49.59    3.01
 -12   0   7   58.14    4.03
 -12   0   7   51.01    2.86
  12   0  -7   50.09    4.24
  12   0  -7   50.73    4.14
  12   0  -7   51.87    4.03
 -12  -1   7   22.02    2.14
 -12  -1   7   23.94    2.70
  12   1  -7   22.08    3.04
  12   1  -7   22.53    3.34
 -12  -2   7   23.90    2.79
  12   2  -7   21.02    3.50
  12   2  -7   24.99    3.27
 -12  -3   7    7.59    2.03
  12   3  -7    5.97    1.72
  12   3  -7    5.49    2.28
 -12  -4   7    0.70    1.64
  12   4  -7    0.86    1.94
  12   4  -7   -0.83    0.98
 -12   4   6   28.10    3.62
 -12   4   6   29.96    2.99
 -12   4   6   35.40    4.19
  12  -4  -6   28.49    2.82
  12  -4  -6   25.02    2.85
  12  -4  -6   27.44    4.46
 -12   3   6    0.80    1.21
  12  -3  -6    2.46    1.92
  12  -3  -6    3.53    1.32
  12  -3  -6   -0.21    0.96
 -12   2   6   13.40    2.29
 -12   2   6   14.22    1.27
  12  -2  -6   12.65    1.77
  12  -2  -6   12.59    2.77
 -12   1   6    0.30    1.01
 -12   1   6    1.32    0.69
 -12   1   6    1.45    0.80
  12  -1  -6    1.10    1.28
  12  -1  -6    0.90    0.74
 -12   0   6   43.06    2.75
 -12   0   6   45.00    3.46
 -12   0   6   46.16    2.60
  12   0  -6   52.06    3.82
  12   0  -6   48.65    3.84
 -12  -1   6    0.03    0.72
 -12  -1   6    0.65    1.01
  12   1  -6    1.33    1.28
  12   1  -6    0.39    1.23
  12   1  -6    1.91    1.12
 -12  -2   6   16.26    2.34
 -12  -2   6   12.19    1.64
  12   2  -6    9.73    2.41
  12   2  -6   13.59    2.27
 -12  -3   6    3.50    1.44
  12   3  -6    2.46    1.20
  12   3  -6    1.62    1.79
  12   4  -6   20.02    3.46
  12   4  -6   27.37    2.75
 -12   5   5   -0.46    1.59
 -12   5   5    0.17    1.22
 -12   5   5    0.49    1.49
  12  -5  -5   -0.22    1.23
  12  -5  -5   -0.84    2.16
 -12   4   5    1.42    1.17
 -12   4   5    0.66    1.15
 -12   4   5    3.73    1.68
  12  -4  -5    1.71    1.29
  12  -4  -5    0.74    1.21
  12  -4  -5    1.36    2.03
 -12   3   5    7.39    1.85
 -12   3   5    6.37    1.46
 -12   3   5    7.59    2.03
  12  -3  -5    4.27    1.95
  12  -3  -5    4.81    1.33
  12  -3  -5    3.42    1.21
 -12   2   5    3.20    1.31
 -12   2   5    1.15    0.54
  12  -2  -5   -0.08    1.29
  12  -2  -5    1.14    0.90
  12  -2  -5    1.38    0.90
 -12   1   5   35.50    3.00
 -12   1   5   36.62    2.25
 -12   1   5   36.25    2.35
  12  -1  -5   34.41    2.30
  12  -1  -5   40.51    3.72
 -12   0   5   13.43    2.05
 -12   0   5   16.34    1.51
 -12   0   5   11.19    1.57
  12   0  -5   16.98    2.62
  12   0  -5   13.19    2.19
  12   0  -5   21.17    2.37
 -12  -1   5   36.77    2.41
 -12  -1   5   37.35    2.87
  12   1  -5   32.38    3.27
  12   1  -5   37.43    3.15
  12   1  -5   31.19    2.98
 -12  -2   5    0.51    0.85
  12   2  -5    1.51    1.05
  12   2  -5    1.92    1.13
  12   2  -5    1.28    1.39
 -12  -3   5    5.94    1.56
  12   3  -5    4.32    1.28
  12   3  -5    5.29    2.02
  12   4  -5    5.00    2.01
  12   4  -5    3.81    1.20
  12   5  -5   -0.07    0.75
  12   5  -5   -0.01    1.63
 -12   5   4   30.00    3.98
 -12   5   4   17.59    2.78
 -12   5   4   25.18    3.55
  12  -5  -4   29.22    4.69
  12  -5  -4   27.50    2.86
 -12   4   4    2.35    1.47
 -12   4   4    3.17    1.62
 -12   4   4    1.78    1.09
  12  -4  -4    0.57    1.06
  12  -4  -4    2.91    2.01
  12  -4  -4    0.20    0.95
 -12   3   4   66.94    4.48
 -12   3   4   60.22    3.74
 -12   3   4   61.80    4.18
  12  -3  -4   59.45    3.52
  12  -3  -4   61.45    3.47
  12  -3  -4   58.65    5.05
 -12   2   4    5.86    1.17
 -12   2   4    4.91    1.36
 -12   2   4    5.21    0.78
 -12   2   4    3.07    1.33
  12  -2  -4    4.07    1.10
  12  -2  -4    3.42    1.72
  12  -2  -4    3.80    1.03
 -12   1   4  105.02    4.22
 -12   1   4  105.33    5.20
 -12   1   4  109.63    4.45
  12  -1  -4  104.97    4.35
  12  -1  -4  111.68    6.05
 -12   0   4    2.34    1.01
 -12   0   4    1.96    0.68
 -12   0   4    1.50    0.82
  12   0  -4    0.68    1.03
  12   0  -4    0.30    0.89
  12   0  -4    0.30    0.97
 -12  -1   4  113.06    4.55
 -12  -1   4  110.84    5.05
  12   1  -4  105.38    5.50
  12   1  -4  107.70    5.69
  12   1  -4  109.61    5.38
 -12  -2   4    6.08    1.36
  12   2  -4    3.64    1.17
  12   2  -4    5.23    1.65
  12   2  -4    4.08    1.36
  12   3  -4   54.75    4.48
  12   3  -4   61.00    3.55
  12   4  -4    1.06    1.47
  12   4  -4    0.61    0.75
  12   5  -4   29.23    2.09
  12   5  -4   32.35    4.42
 -12   5   3   10.59    2.29
 -12   5   3   10.85    2.43
 -12   5   3    6.87    2.16
  12  -5  -3    9.06    3.01
  12  -5  -3   11.17    1.88
 -12   4   3   11.23    2.21
 -12   4   3   10.25    2.02
 -12   4   3   14.96    2.68
  12  -4  -3    8.54    1.58
  12  -4  -3    7.08    2.43
 -12   3   3    4.21    1.31
 -12   3   3    2.51    1.45
  12  -3  -3    4.77    1.16
  12  -3  -3    2.24    1.64
  12  -3  -3    4.16    1.11
 -12   2   3   12.77    1.01
 -12   2   3   12.25    1.88
 -12   2   3   11.47    1.71
 -12   2   3   12.78    2.10
  12  -2  -3    7.89    1.41
  12  -2  -3    9.65    1.44
  12  -2  -3    9.93    2.31
 -12   1   3    0.44    0.52
 -12   1   3    1.61    0.75
 -12   1   3    2.37    0.84
 -12   1   3    0.94    0.73
  12  -1  -3    1.54    0.72
  12  -1  -3    3.66    1.52
  12  -1  -3    0.84    0.91
  12  -1  -3    1.61    0.70
 -12   0   3   75.64    3.27
 -12   0   3   76.15    3.84
 -12   0   3   74.81    3.54
  12   0  -3   77.38    4.57
  12   0  -3   70.70    3.90
  12   0  -3   80.44    4.26
 -12  -1   3    1.68    0.81
 -12  -1   3    1.59    0.73
  12   1  -3    0.90    0.82
  12   1  -3    0.70    0.90
  12   1  -3    2.82    1.13
 -12  -2   3   12.87    1.68
  12   2  -3    9.01    1.56
  12   2  -3    9.09    1.94
  12   3  -3    3.14    1.41
  12   3  -3    3.35    1.03
  12   4  -3    7.15    2.04
  12   4  -3    8.05    1.25
  12   5  -3   12.54    1.32
  12   5  -3   11.98    2.89
 -12   5   2   13.68    2.57
 -12   5   2   15.78    2.70
 -12   5   2   13.62    2.50
  12  -5  -2   12.30    3.24
  12  -5  -2   10.43    1.74
 -12   4   2   28.57    3.01
 -12   4   2   33.15    3.42
 -12   4   2   29.96    3.06
  12  -4  -2   31.11    4.22
  12  -4  -2   32.89    2.45
 -12   3   2    2.91    1.12
 -12   3   2    5.43    1.67
 -12   3   2    3.97    1.35
  12  -3  -2    4.66    1.08
  12  -3  -2    5.39    1.22
  12  -3  -2    3.08    1.71
 -12   2   2  153.46    6.29
 -12   2   2  147.85    6.26
 -12   2   2  149.72    4.89
 -12   2   2  144.19    6.72
  12  -2  -2  143.44    5.74
  12  -2  -2  144.41    7.39
  12  -2  -2  145.78    5.55
 -12   1   2   -0.09    0.58
 -12   1   2    1.59    0.68
 -12   1   2    0.28    0.66
 -12   1   2    1.00    0.62
 -12   1   2    0.36    0.41
 -12   1   2    1.17    0.87
  12  -1  -2    2.61    0.77
  12  -1  -2    3.40    0.81
  12  -1  -2    6.26    1.40
  12  -1  -2    2.94    1.39
 -12   0   2  412.53   13.09
 -12   0   2  412.61   13.26
 -12   0   2  392.79   12.68
 -12   0   2  420.85   12.71
  12   0  -2  405.98   14.36
  12   0  -2  423.74   13.81
  12   1  -2    3.99    1.28
  12   1  -2    4.50    1.15
  12   1  -2    4.71    1.35
  12   2  -2  145.87    6.76
  12   2  -2  141.63    5.76
  12   3  -2    3.34    1.53
  12   3  -2    4.78    1.02
  12   4  -2   34.62    2.11
  12   4  -2   32.99    3.59
  12   5  -2    7.61    2.39
  12   5  -2   10.92    1.05
 -12   5   1    2.17    1.41
 -12   5   1    1.01    1.33
 -12   5   1    0.14    1.30
  12  -5  -1    1.46    2.01
  12  -5  -1    1.38    1.05
 -12   4   1    2.60    1.47
 -12   4   1    4.50    1.56
 -12   4   1    3.25    1.48
  12  -4  -1    4.59    1.12
  12  -4  -1    3.91    2.01
 -12   3   1   21.81    2.72
 -12   3   1   13.78    2.00
 -12   3   1   17.57    2.59
  12  -3  -1   12.98    1.61
  12  -3  -1   16.35    2.82
  12  -3  -1   13.85    1.73
 -12   2   1    5.44    0.68
 -12   2   1    3.08    1.21
 -12   2   1    3.42    1.02
 -12   2   1    5.57    1.25
  12  -2  -1    5.31    0.99
  12  -2  -1    6.10    1.09
  12  -2  -1    5.43    1.64
 -12   1   1   22.55    1.83
 -12   1   1   23.02    1.46
 -12   1   1   24.34    1.92
 -12   1   1   25.98    1.70
 -12   1   1   23.24    2.21
 -12   1   1   25.04    1.91
  12  -1  -1   21.06    2.08
  12  -1  -1   21.55    2.58
  12  -1  -1   23.99    1.72
  12  -1  -1   23.86    1.65
 -12   0   1    7.73    0.97
 -12   0   1    9.04    1.17
 -12   0   1    6.88    1.14
 -12   0   1    8.61    1.13
 -12   0   1    9.74    1.42
  12   0  -1    9.86    1.80
  12   0  -1    9.43    1.55
 -12  -1   1   24.76    1.54
 -12  -1   1   25.12    1.46
 -12  -1   1   25.51    2.32
 -12  -1   1   23.37    1.69
 -12  -1   1   23.43    1.60
  12   1  -1   21.69    1.94
  12   1  -1   23.34    2.44
  12   2  -1    0.16    0.93
  12   2  -1    6.29    1.19
  12   3  -1   16.71    1.54
  12   4  -1    5.68    0.92
 -12  -5   1    1.45    1.60
  12   5  -1    1.95    0.57
 -12   5   0    5.47    1.73
 -12   5   0    3.39    1.62
 -12   5   0    3.77    1.79
  12  -5   0    5.62    1.40
 -12   4   0   11.23    2.18
 -12   4   0   11.68    2.37
 -12   4   0    9.69    1.89
  12  -4   0   11.17    1.57
  12  -4   0   14.16    2.90
 -12   3   0  128.85    5.92
 -12   3   0  126.72    6.31
 -12   3   0  131.97    6.34
  12  -3   0  131.88    7.06
  12  -3   0  134.41    5.47
  12  -3   0  125.67    5.08
 -12   2   0    4.30    1.13
 -12   2   0    5.48    1.34
 -12   2   0    5.62    1.45
 -12   2   0    5.50    0.95
  12  -2   0    4.05    1.48
  12  -2   0    5.50    1.05
  12  -2   0    4.79    0.99
 -12   1   0  401.69   12.28
 -12   1   0  406.74   12.82
 -12   1   0  379.25   13.38
 -12   1   0  418.35   13.28
 -12   1   0  406.72   12.83
  12  -1   0  398.56   12.60
  12  -1   0  402.09   13.32
  12  -1   0  415.88   14.31
  12  -1   0  400.78   12.46
 -12   0   0   27.52    1.65
 -12   0   0   27.94    1.90
 -12   0   0   26.91    1.63
 -12   0   0   27.23    2.00
 -12   0   0   34.24    2.07
  12   0   0   31.20    2.21
  12   0   0   28.54    2.55
 -12  -1   0  398.43   12.29
 -12  -1   0  400.78   12.71
 -12  -1   0  413.86   13.61
 -12  -1   0  416.39   12.43
  12   1   0  398.06   13.11
  12   1   0  403.85   14.04
 -12  -2   0    5.34    1.48
  12   2   0    5.39    0.99
 -12  -3   0  116.82    6.08
  12   3   0  125.64    4.80
 -12  -4   0   13.48    2.29
  12   4   0   10.99    1.22
 -12  -5   0    4.31    1.67
  12   5   0    4.20    0.73
 -12   5  -1    2.89    1.63
 -12   5  -1    0.95    1.61
 -12   5  -1    3.77    1.50
  12  -5   1    4.18    1.26
 -12   4  -1    8.97    1.91
 -12   4  -1    3.49    1.61
 -12   4  -1    8.37    1.89
  12  -4   1    5.27    1.98
  12  -4   1    4.44    1.14
 -12   3  -1   15.74    2.10
 -12   3  -1   16.56    2.48
 -12   3  -1   17.79    2.51
  12  -3   1   16.64    1.64
  12  -3   1   15.18    2.52
  12  -3   1   14.50    1.80
 -12   2  -1    5.55    1.18
 -12   2  -1    5.82    1.38
 -12   2  -1    5.14    0.63
 -12   2  -1    5.72    1.35
  12  -2   1    3.46    1.37
  12  -2   1    5.46    1.02
  12  -2   1    4.91    1.02
 -12   1  -1   22.33    1.87
 -12   1  -1   21.09    1.62
 -12   1  -1   22.18    1.64
 -12   1  -1   23.50    1.38
 -12   1  -1   21.48    2.02
 -12   1  -1   20.51    1.97
  12  -1   1   23.38    1.61
  12  -1   1   22.28    2.39
  12  -1   1   23.42    2.01
 -12   0  -1   11.30    1.43
 -12   0  -1    8.16    1.28
 -12   0  -1    8.67    1.20
 -12   0  -1    9.27    1.03
  12   0   1    7.14    1.24
  12   0   1    8.83    1.63
  12   0   1    7.91    1.26
 -12  -1  -1   20.24    1.96
 -12  -1  -1   23.37    1.82
 -12  -1  -1   23.38    1.44
  12   1   1   20.36    1.80
 -12  -2  -1    5.75    1.37
  12   2   1    3.53    0.88
 -12  -3  -1   14.44    2.33
  12   3   1   17.12    1.52
 -12  -4  -1    4.49    1.54
  12   4   1    6.11    1.02
 -12  -5  -1    1.09    1.35
  12   5   1    2.29    0.69
 -12   5  -2    8.58    2.24
 -12   5  -2   10.87    2.15
 -12   5  -2   13.45    2.91
  12  -5   2   11.98    1.74
 -12   4  -2   33.97    3.06
 -12   4  -2   34.65    3.16
 -12   4  -2   36.39    4.25
  12  -4   2   33.83    2.39
 -12   3  -2    2.29    1.28
 -12   3  -2    2.69    1.07
 -12   3  -2    2.94    1.37
  12  -3   2    4.29    0.99
  12  -3   2    4.20    1.06
  12  -3   2    4.32    1.48
 -12   2  -2  143.42    6.35
 -12   2  -2  151.75    5.61
 -12   2  -2  145.55    4.76
 -12   2  -2  153.35    6.68
 -12   2  -2  144.20    5.92
  12  -2   2  151.03    5.73
  12  -2   2  152.74    6.85
 -12   1  -2    3.93    0.93
 -12   1  -2    4.37    1.07
 -12   1  -2    3.18    0.98
 -12   1  -2    3.42    0.78
 -12   1  -2    4.54    1.05
 -12   1  -2    3.22    0.62
 -12   1  -2    2.97    0.99
  12  -1   2    0.33    0.82
  12  -1   2    0.67    0.65
 -12   0  -2  391.16   12.91
 -12   0  -2  393.43   12.60
 -12   0  -2  402.52   13.11
 -12   0  -2  396.88   12.13
  12   0   2  400.42   13.63
  12   0   2  393.88   13.02
  12   0   2  399.24   11.95
 -12  -1  -2    3.59    1.07
 -12  -1  -2    3.98    0.95
 -12  -1  -2    4.39    0.70
  12   1   2    1.77    0.77
 -12  -2  -2  135.64    6.14
  12   2   2  150.75    5.71
 -12  -3  -2    4.25    1.35
  12   3   2    3.57    0.88
 -12  -4  -2   29.83    3.05
  12   4   2   34.30    2.13
 -12  -5  -2   10.58    2.31
  12   5   2   13.76    1.43
 -12   5  -3   10.21    2.02
 -12   5  -3   12.87    2.98
 -12   5  -3   10.33    2.49
 -12   5  -3    9.84    2.01
  12  -5   3    9.65    1.61
 -12   4  -3    7.69    1.74
 -12   4  -3    7.92    1.74
 -12   4  -3   11.01    2.00
 -12   4  -3    6.79    2.05
  12  -4   3    9.67    1.46
 -12   3  -3    3.53    1.20
 -12   3  -3    6.38    1.50
 -12   3  -3    3.46    1.40
 -12   3  -3    3.77    1.22
  12  -3   3    3.02    0.96
  12  -3   3    2.99    0.90
 -12   2  -3    8.69    1.31
 -12   2  -3    9.85    0.82
 -12   2  -3    8.69    1.58
 -12   2  -3    9.55    1.84
 -12   2  -3   12.42    1.88
 -12   2  -3   10.13    1.50
  12  -2   3   11.39    1.38
  12  -2   3   11.29    1.84
 -12   1  -3    3.12    1.12
 -12   1  -3    2.49    0.91
 -12   1  -3    1.57    0.53
 -12   1  -3    2.22    0.91
 -12   1  -3    0.93    0.73
 -12   1  -3    1.72    0.65
  12  -1   3    0.90    0.73
  12  -1   3    1.62    0.65
 -12   0  -3   68.56    3.46
 -12   0  -3   66.76    2.84
 -12   0  -3   70.85    3.36
 -12   0  -3   67.19    3.74
  12   0   3   75.22    3.94
  12   0   3   67.74    2.97
  12   0   3   72.49    3.71
 -12  -1  -3    2.09    0.85
 -12  -1  -3    3.59    1.07
 -12  -1  -3    2.35    0.57
  12   1   3    1.29    0.76
 -12  -2  -3    9.05    1.71
  12   2   3   11.92    1.55
 -12  -3  -3    1.54    1.13
  12   3   3    2.41    0.81
 -12  -4  -3    8.14    1.92
  12   4   3    9.88    1.43
  12   5   3    9.66    1.39
 -12   5  -4   31.43    3.20
 -12   5  -4   26.15    3.54
 -12   5  -4   33.20    4.61
  12  -5   4   28.73    2.75
 -12   4  -4    1.14    1.14
 -12   4  -4    1.79    1.27
 -12   4  -4    0.91    1.41
  12  -4   4    3.71    1.13
 -12   3  -4   66.54    4.58
 -12   3  -4   59.55    3.89
 -12   3  -4   57.81    3.81
  12  -3   4   62.47    3.18
  12  -3   4   57.63    3.35
 -12   2  -4    4.31    1.14
 -12   2  -4    5.60    1.55
 -12   2  -4    2.98    1.12
 -12   2  -4    5.36    0.63
 -12   2  -4    4.51    1.13
  12  -2   4    6.00    1.07
 -12   1  -4  102.75    4.71
 -12   1  -4  108.13    3.91
 -12   1  -4   98.28    5.10
 -12   1  -4  104.71    4.58
  12  -1   4   97.92    4.85
  12  -1   4  109.66    4.19
 -12   0  -4    0.07    0.76
 -12   0  -4    0.38    0.72
 -12   0  -4   -0.06    0.36
 -12   0  -4    0.43    0.69
  12   0   4    2.65    0.93
 -12  -1  -4  103.50    5.10
 -12  -1  -4   96.33    4.74
  12   1   4  116.65    4.89
 -12  -2  -4    4.81    1.40
  12   2   4    4.31    1.06
 -12  -3  -4   56.53    3.71
  12   3   4   57.84    3.23
 -12  -4  -4    0.19    0.98
  12   4   4    2.96    0.94
  12   5   4   22.62    2.08
 -12   5  -5    0.11    1.75
 -12   5  -5   -0.68    0.92
 -12   5  -5    0.15    1.36
  12  -5   5    1.29    1.16
 -12   4  -5    4.93    1.51
 -12   4  -5    5.26    1.73
 -12   4  -5    1.87    1.69
  12  -4   5    1.84    1.01
 -12   3  -5    6.81    1.66
 -12   3  -5    5.78    1.49
 -12   3  -5    7.68    1.99
  12  -3   5    5.29    1.21
 -12   2  -5    0.08    0.75
 -12   2  -5    1.06    0.87
 -12   2  -5    0.99    0.81
 -12   2  -5    0.11    0.90
  12  -2   5    1.35    0.92
  12  -2   5    0.36    0.69
 -12   1  -5   39.51    2.81
 -12   1  -5   38.89    2.00
 -12   1  -5   35.45    3.07
 -12   1  -5   39.83    2.64
  12  -1   5   36.66    2.23
 -12   0  -5   11.38    1.58
 -12   0  -5   12.37    2.03
 -12   0  -5   12.40    1.73
 -12   0  -5   11.51    1.17
  12   0   5   12.09    1.80
 -12  -1  -5   32.16    1.87
 -12  -1  -5   29.80    2.88
 -12  -1  -5   32.48    2.59
  12   1   5   33.56    2.57
 -12  -2  -5    1.17    0.89
 -12  -2  -5    0.55    1.02
  12   2   5    1.07    0.78
 -12  -3  -5    3.81    1.42
  12   3   5    8.67    1.51
 -12  -4  -5    2.30    1.30
  12   4   5    2.22    0.95
  12   5   5    0.79    0.86
 -12   4  -6   25.59    3.25
 -12   4  -6   27.57    3.97
 -12   4  -6   26.56    2.85
  12  -4   6   26.96    2.47
  12  -4   6   23.00    3.20
 -12   3  -6    3.02    1.55
 -12   3  -6    0.65    1.02
 -12   3  -6    4.06    1.41
  12  -3   6    2.15    0.97
  12  -3   6    2.55    1.27
 -12   2  -6   12.94    2.27
 -12   2  -6   12.77    1.98
  12  -2   6   14.83    1.63
 -12   1  -6    1.39    1.14
 -12   1  -6    0.79    0.89
 -12   1  -6    0.74    0.53
 -12   1  -6    2.04    1.05
  12  -1   6    0.47    0.62
 -12   0  -6   33.99    2.04
 -12   0  -6   38.03    3.23
 -12   0  -6   37.21    2.68
 -12   0  -6   37.40    2.84
 -12  -1  -6    1.71    1.19
 -12  -1  -6    0.68    0.91
 -12  -1  -6    1.72    0.65
  12   1   6    1.55    0.94
 -12  -2  -6   12.20    2.29
 -12  -2  -6   15.00    2.20
  12   2   6   13.78    2.07
 -12  -3  -6    2.41    1.17
  12   3   6    1.45    0.99
 -12  -4  -6   24.68    2.83
  12   4   6   25.92    2.54
 -12   4  -7    0.85    1.18
 -12   4  -7    1.27    1.37
 -12   4  -7    2.56    1.90
  12  -4   7    0.27    0.98
  12  -4   7    0.59    1.35
 -12   3  -7    4.81    1.60
 -12   3  -7    7.67    1.72
 -12   3  -7    6.73    1.74
 -12   3  -7    7.57    2.19
  12  -3   7    5.46    1.29
  12  -3   7    6.74    1.76
 -12   2  -7   25.78    3.35
 -12   2  -7   21.26    2.38
  12  -2   7   24.25    2.10
 -12   1  -7   23.37    1.64
 -12   1  -7   23.28    2.41
 -12   1  -7   21.22    2.83
  12  -1   7   24.76    1.96
 -12   0  -7   46.23    2.45
 -12   0  -7   44.87    3.07
 -12   0  -7   46.63    3.34
 -12   0  -7   45.74    3.78
 -12  -1  -7   24.69    1.81
 -12  -1  -7   22.52    2.41
 -12  -1  -7   27.94    3.27
  12   1   7   24.48    2.44
 -12  -2  -7   23.84    2.61
 -12  -2  -7   23.94    1.78
 -12  -2  -7   18.63    2.81
  12   2   7   25.12    2.56
 -12  -3  -7    6.50    1.72
  12   3   7    7.58    1.66
 -12  -4  -7    0.97    1.32
  12   4   7   -0.24    0.91
 -12   4  -8    1.31    2.09
 -12   4  -8    1.30    1.36
 -12   4  -8    1.14    1.57
  12  -4   8    0.33    1.14
  12  -4   8    1.18    1.45
 -12   3  -8   11.13    2.67
 -12   3  -8   10.46    2.18
  12  -3   8   13.21    1.83
 -12   2  -8    0.18    1.25
 -12   2  -8   -0.37    0.89
  12  -2   8   -0.22    0.82
 -12   1  -8    5.67    1.00
 -12   1  -8    5.61    1.82
 -12   1  -8    4.27    1.52
  12  -1   8    5.14    1.13
 -12   0  -8   -0.91    0.90
 -12   0  -8    0.33    0.58
 -12   0  -8    0.86    1.28
 -12   0  -8    0.64    1.02
 -12  -1  -8    5.54    1.10
 -12  -1  -8    4.83    1.88
 -12  -1  -8    5.87    1.63
 -12  -2  -8    0.07    0.65
 -12  -2  -8   -2.05    0.86
 -12  -2  -8    0.54    1.33
  12   2   8   -0.10    0.90
 -12  -3  -8   16.72    2.73
  12   3   8   13.94    2.39
  12   4   8    0.31    0.99
 -12   3  -9    0.78    1.67
 -12   3  -9    0.50    1.27
  12  -3   9    0.73    1.04
 -12   2  -9   17.04    3.09
 -12   2  -9   18.99    3.00
  12  -2   9   19.74    2.20
 -12   1  -9   10.33    1.35
 -12   1  -9   11.56    2.23
 -12   1  -9    8.63    2.30
  12  -1   9    8.60    1.44
 -12   0  -9    3.67    1.42
 -12   0  -9    1.88    1.67
 -12   0  -9    5.95    1.72
 -12   0  -9    3.75    0.97
 -12  -1  -9    8.38    1.34
 -12  -1  -9    6.62    2.11
 -12  -1  -9    6.25    1.70
 -12  -2  -9   17.59    3.17
 -12  -2  -9   16.22    2.55
 -12  -2  -9   19.36    1.91
  12   2   9   22.61    3.12
 -12  -3  -9    0.51    1.65
 -12  -3  -9    0.58    1.42
  12   3   9    0.03    1.12
 -12   2 -10   36.57    3.82
 -12   2 -10   36.90    4.58
  12  -2  10   36.78    2.96
 -12   1 -10   -0.99    1.36
 -12   1 -10    1.57    1.48
 -12   0 -10   45.82    2.86
 -12   0 -10   42.34    4.47
 -12   0 -10   51.01    4.16
 -12  -1 -10    1.88    1.81
 -12  -1 -10    2.38    1.49
 -12  -1 -10    0.53    0.82
 -12  -1 -10    0.51    1.40
 -12  -2 -10   31.85    4.57
 -12  -2 -10   36.24    2.69
 -12  -2 -10   32.70    3.39
 -12   1 -11    6.72    2.42
 -12   1 -11    8.43    2.27
 -12   0 -11    0.14    1.33
 -12   0 -11   -1.28    1.46
 -12   0 -11    0.21    0.94
 -12  -1 -11    7.77    2.23
 -12  -1 -11   10.42    3.16
 -12  -1 -11    9.17    2.27
 -13   1  11   -0.07    1.44
 -13   0  11   -0.32    1.09
 -13   0  11    0.97    1.65
 -13  -1  11   -1.26    1.05
 -13  -1  11    1.69    1.85
  13   1 -11    0.85    2.07
 -13   2  10    0.77    1.58
  13  -2 -10    1.70    1.29
  13  -2 -10   -0.02    2.00
 -13   1  10    2.60    1.02
 -13   1  10    3.55    1.63
 -13   0  10    1.56    0.89
 -13   0  10   -0.77    1.40
 -13   0  10   -0.13    1.01
 -13  -1  10    2.66    1.22
 -13  -1  10    2.19    1.74
 -13  -1  10    2.47    1.14
  13   1 -10   -1.19    1.56
 -13  -2  10   -0.67    1.11
 -13  -2  10    2.44    1.76
  13   2 -10    0.97    1.87
  13   2 -10    1.49    2.32
 -13   3   9    2.71    1.81
 -13   2   9   -0.04    0.78
 -13   2   9    2.95    1.68
  13  -2  -9    1.50    1.20
  13  -2  -9   -1.01    1.61
 -13   1   9    0.75    0.82
 -13   1   9    2.45    1.60
 -13   1   9    1.33    1.00
  13  -1  -9    1.01    1.62
 -13   0   9   -0.87    0.80
 -13   0   9   -0.92    0.57
 -13   0   9    0.14    1.35
 -13  -1   9    2.41    1.57
 -13  -1   9    1.50    1.13
 -13  -1   9   -0.21    0.68
  13   1  -9    1.27    1.67
  13   1  -9    0.16    1.52
 -13  -2   9    2.13    1.59
 -13  -2   9    1.17    1.08
  13   2  -9   -0.71    1.75
  13   2  -9    1.20    1.70
 -13  -3   9    2.43    1.84
  13   3  -9    1.69    2.23
  13   3  -9    2.66    1.77
 -13   3   8    2.85    1.66
  13  -3  -8    1.01    2.08
  13  -3  -8    4.27    1.46
 -13   2   8    6.72    2.01
 -13   2   8    7.62    1.14
  13  -2  -8    3.38    2.25
  13  -2  -8    3.50    1.29
 -13   1   8    1.57    1.35
 -13   1   8    1.58    0.93
 -13   1   8    0.58    0.74
  13  -1  -8    3.09    1.73
  13  -1  -8    0.57    0.70
 -13   0   8    0.01    0.86
 -13   0   8    0.49    0.69
 -13   0   8   -0.54    1.00
  13   0  -8    0.29    1.37
  13   0  -8   -0.34    1.44
 -13  -1   8   -0.41    1.12
 -13  -1   8    0.87    0.96
  13   1  -8   -0.03    1.41
  13   1  -8    0.90    1.35
 -13  -2   8    5.76    1.39
 -13  -2   8    5.40    1.89
  13   2  -8    4.68    1.86
  13   2  -8    4.41    2.11
 -13  -3   8    3.52    1.71
  13   3  -8    3.96    1.72
  13   3  -8    3.30    2.25
 -13   4   7    2.17    1.69
  13  -4  -7   -0.65    1.33
  13  -4  -7   -1.26    1.84
  13  -4  -7    0.68    1.23
 -13   3   7    6.44    1.92
  13  -3  -7    8.67    1.79
  13  -3  -7    8.23    2.80
 -13   2   7    6.91    1.91
 -13   2   7    6.69    1.02
  13  -2  -7    6.64    1.46
  13  -2  -7    0.87    1.62
 -13   1   7    0.20    0.78
 -13   1   7    0.25    1.10
 -13   1   7    0.40    0.68
  13  -1  -7    0.26    0.73
  13  -1  -7    0.57    1.36
 -13   0   7    0.26    0.80
 -13   0   7    1.00    1.15
 -13   0   7    0.11    0.60
  13   0  -7   -0.71    1.20
  13   0  -7   -0.40    1.11
  13   0  -7   -0.94    1.12
 -13  -1   7    0.60    0.91
 -13  -1   7   -0.16    1.05
  13   1  -7   -0.64    1.26
  13   1  -7   -0.27    1.19
 -13  -2   7    7.36    1.86
 -13  -2   7    6.56    1.34
  13   2  -7    3.48    1.84
  13   2  -7    7.01    1.94
 -13  -3   7    7.63    1.97
  13   3  -7    9.62    2.04
  13   3  -7    8.45    2.67
  13   4  -7    1.97    1.24
  13   4  -7    2.19    2.06
 -13   4   6    5.61    2.04
  13  -4  -6    2.93    1.45
  13  -4  -6    1.33    2.23
  13  -4  -6    6.01    1.69
 -13   3   6    9.20    2.21
  13  -3  -6    5.40    1.47
  13  -3  -6    7.33    2.56
  13  -3  -6    9.83    1.85
 -13   2   6    4.47    1.55
  13  -2  -6    2.74    1.90
  13  -2  -6    4.98    1.23
 -13   1   6    6.17    1.23
 -13   1   6    5.44    1.11
 -13   1   6    4.11    1.42
  13  -1  -6    6.09    1.14
  13  -1  -6    6.04    1.85
 -13   0   6    0.12    0.72
 -13   0   6    0.05    0.59
 -13   0   6   -0.27    0.98
  13   0  -6    0.03    1.04
  13   0  -6   -0.53    0.95
  13   0  -6    0.54    1.16
 -13  -1   6    5.54    1.49
 -13  -1   6    4.86    1.20
  13   1  -6    5.17    1.81
  13   1  -6    7.13    1.82
  13   1  -6    3.67    1.53
 -13  -2   6    4.84    1.56
 -13  -2   6    5.60    1.26
  13   2  -6    7.02    1.79
  13   2  -6    7.95    2.35
 -13  -3   6    6.42    1.75
  13   3  -6    8.87    2.66
  13   3  -6    6.73    1.70
  13   4  -6    3.90    2.26
  13   4  -6    5.78    1.57
 -13   5   5    2.42    1.53
  13  -5  -5   -0.26    1.33
 -13   4   5    6.88    2.11
 -13   4   5    6.51    1.74
 -13   4   5    8.91    2.17
  13  -4  -5    8.07    2.92
  13  -4  -5   10.90    1.92
  13  -4  -5   10.69    2.04
 -13   3   5   11.93    2.34
 -13   3   5   11.85    1.94
  13  -3  -5    7.53    2.54
  13  -3  -5    8.94    1.67
  13  -3  -5    7.72    1.58
 -13   2   5    8.95    1.81
 -13   2   5   11.12    1.20
  13  -2  -5   10.06    1.57
  13  -2  -5   10.16    2.47
  13  -2  -5    9.22    1.57
 -13   1   5    8.88    1.37
 -13   1   5    6.63    1.14
 -13   1   5    5.50    1.47
  13  -1  -5    6.44    1.10
  13  -1  -5    6.94    1.88
 -13   0   5   -0.63    0.83
 -13   0   5    0.36    0.56
 -13   0   5    0.04    0.76
  13   0  -5    0.08    1.12
  13   0  -5   -0.35    1.01
  13   0  -5    0.51    1.05
 -13  -1   5    6.17    1.48
 -13  -1   5    6.85    1.28
  13   1  -5    4.67    1.49
  13   1  -5    4.61    1.51
  13   1  -5    9.23    2.06
 -13  -2   5    8.15    1.69
  13   2  -5    8.51    2.20
  13   2  -5   12.28    2.23
  13   2  -5   10.05    1.89
  13   3  -5    7.42    2.27
  13   3  -5    8.67    1.77
  13   4  -5    6.53    2.38
  13   4  -5   10.29    1.72
 -13   5   4    6.83    2.27
 -13   5   4    9.19    2.15
 -13   5   4    7.59    2.28
  13  -5  -4    2.85    2.41
  13  -5  -4    5.47    1.63
 -13   4   4   35.10    3.17
 -13   4   4   30.36    3.29
 -13   4   4   36.35    3.70
  13  -4  -4   31.38    2.86
  13  -4  -4   27.34    2.78
  13  -4  -4   31.71    4.78
 -13   3   4    9.90    1.99
 -13   3   4    6.94    1.54
 -13   3   4   11.14    2.36
  13  -3  -4    5.19    2.29
  13  -3  -4    5.19    1.37
  13  -3  -4    5.29    1.38
 -13   2   4   18.70    1.35
 -13   2   4   14.62    2.71
 -13   2   4   17.41    2.42
  13  -2  -4   21.30    3.38
  13  -2  -4   18.72    2.00
  13  -2  -4   19.30    2.09
 -13   1   4    4.54    1.11
 -13   1   4    3.50    0.84
 -13   1   4    1.01    0.88
  13  -1  -4    2.28    1.41
  13  -1  -4    2.16    0.79
 -13   0   4    0.91    0.58
 -13   0   4   -0.72    0.64
 -13   0   4   -0.29    0.75
  13   0  -4    0.19    0.97
  13   0  -4   -0.07    0.89
  13   0  -4    0.30    1.11
 -13  -1   4    5.35    1.31
 -13  -1   4    4.31    1.10
 -13  -1   4    4.74    0.92
  13   1  -4    3.66    1.39
  13   1  -4    2.34    1.15
  13   1  -4    0.74    1.11
 -13  -2   4   18.48    2.10
  13   2  -4   16.67    2.26
  13   2  -4   19.65    2.91
  13   2  -4   18.44    2.56
  13   3  -4    5.74    1.77
  13   3  -4    6.12    1.41
  13   4  -4   32.05    2.51
  13   4  -4   32.66    3.73
  13   5  -4    1.59    2.00
  13   5  -4    3.42    1.05
 -13   5   3    7.12    2.17
 -13   5   3    8.20    2.27
 -13   5   3    3.37    1.60
  13  -5  -3   11.35    3.42
  13  -5  -3    9.77    1.94
 -13   4   3   33.28    3.31
 -13   4   3   28.55    2.96
 -13   4   3   25.62    3.50
  13  -4  -3   29.02    2.68
  13  -4  -3   22.29    2.44
  13  -4  -3   26.41    4.09
 -13   3   3   28.27    2.77
 -13   3   3   26.90    3.46
 -13   3   3   26.18    2.59
  13  -3  -3   26.42    4.01
  13  -3  -3   27.22    2.33
  13  -3  -3   25.98    2.34
 -13   2   3   31.66    2.70
 -13   2   3   33.38    1.72
 -13   2   3   33.41    2.59
 -13   2   3   40.06    5.43
  13  -2  -3   29.90    2.33
  13  -2  -3   21.69    3.14
  13  -2  -3   32.46    2.36
 -13   1   3    6.28    1.01
 -13   1   3    5.60    1.34
 -13   1   3    7.96    1.32
  13  -1  -3    7.50    1.87
  13  -1  -3    6.22    1.06
  13  -1  -3    6.25    1.11
 -13   0   3   -0.04    0.67
 -13   0   3   -0.30    0.62
 -13   0   3   -0.67    0.43
  13   0  -3    0.53    0.88
  13   0  -3    0.24    0.86
  13   0  -3    0.79    1.11
 -13  -1   3    7.21    1.20
 -13  -1   3    6.51    0.97
 -13  -1   3    7.29    1.37
  13   1  -3    7.43    1.66
  13   1  -3    7.58    1.56
  13   1  -3    6.70    1.62
  13   2  -3   31.11    2.56
  13   2  -3   32.77    3.19
  13   3  -3   29.72    2.35
  13   3  -3   26.22    3.48
  13   4  -3   26.27    2.09
  13   4  -3   23.82    3.42
  13   5  -3   12.25    1.38
  13   5  -3   14.79    3.27
 -13   5   2   24.96    3.33
 -13   5   2   23.48    3.36
 -13   5   2   30.59    3.92
  13  -5  -2   26.08    2.70
  13  -5  -2   26.16    4.63
 -13   4   2    6.46    1.80
 -13   4   2    2.92    1.33
 -13   4   2    7.14    2.12
  13  -4  -2    3.50    2.04
  13  -4  -2    3.57    1.19
  13  -4  -2    3.88    1.23
 -13   3   2   37.95    3.43
 -13   3   2   34.34    3.02
 -13   3   2   39.37    3.10
  13  -3  -2   35.11    2.53
  13  -3  -2   34.63    2.64
  13  -3  -2   34.25    3.96
 -13   2   2    6.66    0.82
 -13   2   2    6.99    1.44
 -13   2   2    5.24    1.61
 -13   2   2    6.41    1.48
  13  -2  -2    4.10    1.06
  13  -2  -2    4.95    1.70
  13  -2  -2    2.65    0.98
 -13   1   2   21.67    1.73
 -13   1   2   19.88    1.47
 -13   1   2   24.40    2.03
 -13   1   2   21.06    1.86
 -13   1   2   20.07    1.79
  13  -1  -2   21.29    1.69
  13  -1  -2   21.06    2.89
  13  -1  -2   20.66    2.27
  13  -1  -2   19.27    1.67
 -13   0   2    0.09    0.69
 -13   0   2   -0.40    0.58
 -13   0   2   -0.49    0.39
 -13   0   2    0.46    0.71
  13   0  -2    0.21    0.77
  13   0  -2    0.46    0.91
 -13  -1   2   22.33    1.51
 -13  -1   2   19.64    1.62
 -13  -1   2   22.07    1.84
  13   1  -2   21.23    2.46
  13   1  -2   20.81    2.06
  13   1  -2   20.02    2.29
  13   2  -2    2.94    0.91
  13   2  -2    3.25    1.42
  13   3  -2   37.09    2.46
  13   3  -2   35.56    3.48
  13   4  -2    5.16    1.82
  13   4  -2    3.11    0.91
 -13  -5   2   18.11    3.06
  13   5  -2   24.48    1.60
 -13   5   1   17.70    2.95
 -13   5   1   11.74    2.50
 -13   5   1   14.53    2.71
  13  -5  -1   12.89    3.40
  13  -5  -1   11.38    1.95
 -13   4   1   15.20    2.69
 -13   4   1   19.54    2.73
 -13   4   1   19.85    2.96
  13  -4  -1   24.45    2.24
  13  -4  -1   24.53    3.82
 -13   3   1   28.12    2.53
 -13   3   1   27.74    2.80
 -13   3   1   31.56    3.08
  13  -3  -1   21.80    3.42
  13  -3  -1   21.44    1.96
  13  -3  -1   20.08    2.10
 -13   2   1   16.43    1.13
 -13   2   1   17.14    2.10
 -13   2   1   18.03    2.51
 -13   2   1   18.43    2.23
  13  -2  -1   16.31    2.60
  13  -2  -1   18.85    1.77
  13  -2  -1   17.95    1.74
 -13   1   1   15.96    1.84
 -13   1   1   18.76    1.75
 -13   1   1   15.67    1.68
 -13   1   1   16.28    1.46
 -13   1   1   16.87    1.31
  13  -1  -1   14.80    1.44
  13  -1  -1   16.66    1.49
  13  -1  -1   13.64    2.32
  13  -1  -1   18.81    2.28
 -13   0   1    0.08    0.52
 -13   0   1    0.37    0.45
 -13   0   1    0.47    0.67
 -13   0   1    0.24    0.52
 -13   0   1   -0.30    0.64
  13   0  -1   -0.11    0.87
  13   0  -1    0.02    0.71
 -13  -1   1   20.28    2.16
 -13  -1   1   14.87    1.38
 -13  -1   1   15.04    1.27
  13   1  -1   16.17    1.81
  13   1  -1   17.02    2.35
  13   2  -1   18.83    1.84
  13   3  -1   18.93    1.73
 -13  -4   1   17.57    2.81
  13   4  -1   22.80    1.75
 -13  -5   1   11.58    2.57
  13   5  -1    9.43    1.12
 -13   5   0    2.19    1.82
 -13   5   0    4.62    1.80
 -13   5   0    3.16    1.62
  13  -5   0    2.47    1.20
 -13   4   0   42.98    3.87
 -13   4   0   38.25    3.62
 -13   4   0   35.29    3.17
  13  -4   0   40.30    4.36
  13  -4   0   32.57    2.58
 -13   3   0    3.54    1.32
 -13   3   0    3.74    1.23
 -13   3   0    4.88    1.62
  13  -3   0    0.70    0.82
  13  -3   0    2.79    0.97
  13  -3   0    2.92    1.59
 -13   2   0   20.67    2.33
 -13   2   0   21.73    1.26
 -13   2   0   17.38    2.15
 -13   2   0   20.64    2.02
  13  -2   0   24.18    1.95
  13  -2   0   21.62    1.79
  13  -2   0   24.09    2.90
 -13   1   0    2.97    0.84
 -13   1   0    3.87    0.99
 -13   1   0    0.88    0.50
 -13   1   0    2.76    0.62
 -13   1   0    2.54    0.93
  13  -1   0    3.28    1.09
  13  -1   0    3.85    0.86
  13  -1   0    4.71    1.51
 -13   0   0    1.63    0.72
 -13   0   0    0.57    0.60
 -13   0   0    0.77    0.48
 -13   0   0    0.99    0.70
  13   0   0    0.65    0.86
  13   0   0   -0.07    0.60
 -13  -1   0    4.32    1.27
 -13  -1   0    2.74    0.81
 -13  -1   0    4.60    0.86
 -13  -1   0    2.74    0.65
  13   1   0    3.79    1.19
  13   1   0    3.07    0.94
 -13  -2   0   20.59    2.71
 -13  -2   0   23.71    2.47
  13   2   0   19.29    1.78
 -13  -3   0    3.87    1.44
  13   3   0    2.85    0.85
 -13  -4   0   32.65    3.35
  13   4   0   33.42    2.08
 -13  -5   0   -0.24    1.39
  13   5   0    2.12    0.64
 -13   5  -1   12.57    2.63
 -13   5  -1    9.10    2.14
 -13   5  -1   10.85    2.63
  13  -5   1   14.90    2.07
 -13   4  -1   14.36    2.62
 -13   4  -1   23.91    2.93
 -13   4  -1   24.51    3.10
  13  -4   1   14.49    1.85
  13  -4   1   19.43    3.30
 -13   3  -1   25.65    2.71
 -13   3  -1   22.41    2.36
 -13   3  -1   26.05    3.17
  13  -3   1   29.21    2.27
  13  -3   1   23.99    2.04
  13  -3   1   30.07    3.31
 -13   2  -1   20.15    2.48
 -13   2  -1   21.51    2.59
 -13   2  -1   20.86    1.98
 -13   2  -1   17.30    1.14
  13  -2   1   19.04    1.81
  13  -2   1   17.09    1.66
  13  -2   1   18.23    2.62
 -13   1  -1   14.84    1.45
 -13   1  -1   15.69    1.46
 -13   1  -1   14.40    1.84
 -13   1  -1   16.23    1.74
 -13   1  -1   14.00    1.16
  13  -1   1   16.91    1.86
  13  -1   1   19.51    2.29
  13  -1   1   14.20    1.42
 -13   0  -1    0.06    0.56
 -13   0  -1   -0.11    0.37
 -13   0  -1    0.28    0.66
 -13   0  -1    0.23    0.57
  13   0   1    0.02    0.62
  13   0   1    0.07    0.73
 -13  -1  -1   15.78    1.98
 -13  -1  -1   14.19    1.38
 -13  -1  -1   14.02    1.20
 -13  -1  -1   15.17    1.72
  13   1   1   15.37    1.69
 -13  -2  -1   17.33    1.82
 -13  -2  -1   20.07    2.47
  13   2   1   15.23    1.63
 -13  -3  -1   22.14    2.93
  13   3   1   26.41    1.92
 -13  -4  -1   18.68    2.75
  13   4   1   17.71    1.62
 -13  -5  -1   10.18    2.48
  13   5   1   10.72    1.26
 -13   5  -2   28.57    3.65
 -13   5  -2   24.86    3.24
 -13   5  -2   27.04    3.94
  13  -5   2   20.40    2.38
 -13   4  -2    2.84    1.53
 -13   4  -2    3.46    1.55
 -13   4  -2    3.21    1.37
  13  -4   2    5.30    1.24
 -13   3  -2   38.04    3.20
 -13   3  -2   40.19    3.51
  13  -3   2   36.76    2.40
  13  -3   2   36.07    2.61
  13  -3   2   35.56    3.46
 -13   2  -2    5.97    1.54
 -13   2  -2    5.19    1.13
 -13   2  -2    4.32    1.27
 -13   2  -2    3.84    0.58
  13  -2   2    6.60    1.14
  13  -2   2    4.57    1.49
  13  -2   2    5.90    1.19
 -13   1  -2   17.98    1.54
 -13   1  -2   18.36    1.31
 -13   1  -2   20.80    2.10
 -13   1  -2   21.35    1.97
 -13   1  -2   19.76    1.77
  13  -1   2   20.21    1.59
  13  -1   2   21.30    2.32
 -13   0  -2    0.10    0.57
 -13   0  -2   -0.80    0.56
 -13   0  -2    0.04    0.63
 -13   0  -2    0.18    0.41
  13   0   2   -0.80    0.61
  13   0   2    0.88    0.75
 -13  -1  -2   20.76    2.02
 -13  -1  -2   19.29    1.38
 -13  -1  -2   20.05    1.92
  13   1   2   19.58    1.82
 -13  -2  -2    3.62    1.09
 -13  -2  -2    4.70    1.35
  13   2   2    6.37    1.21
 -13  -3  -2   35.18    3.09
  13   3   2   31.73    2.25
 -13  -4  -2    2.50    1.39
  13   4   2    5.14    1.06
 -13  -5  -2   23.41    3.30
  13   5   2   21.62    1.81
 -13   5  -3   13.77    2.70
 -13   5  -3    8.19    1.95
 -13   5  -3   15.38    3.36
 -13   5  -3   11.08    2.28
  13  -5   3    5.31    1.47
 -13   4  -3   28.02    2.91
 -13   4  -3   26.95    2.77
 -13   4  -3   25.19    3.49
 -13   4  -3   28.70    2.93
  13  -4   3   31.95    2.45
 -13   3  -3   28.82    2.74
 -13   3  -3   29.57    2.71
 -13   3  -3   30.41    2.69
 -13   3  -3   29.93    3.53
  13  -3   3   24.04    2.21
  13  -3   3   25.12    2.10
 -13   2  -3   30.56    1.52
 -13   2  -3   31.72    2.42
 -13   2  -3   29.12    2.64
 -13   2  -3   31.07    2.91
 -13   2  -3   32.81    2.29
 -13   2  -3   30.93    2.54
  13  -2   3   32.17    2.84
  13  -2   3   31.03    2.18
 -13   1  -3    8.26    1.61
 -13   1  -3    8.10    1.45
 -13   1  -3    6.21    0.97
 -13   1  -3    6.57    1.28
  13  -1   3    7.55    1.13
  13  -1   3    4.57    1.37
 -13   0  -3    0.38    0.42
 -13   0  -3   -0.67    0.68
 -13   0  -3    0.25    0.70
 -13   0  -3    0.20    0.66
  13   0   3   -0.63    0.63
  13   0   3   -0.93    0.55
 -13  -1  -3    5.51    1.27
 -13  -1  -3    4.75    1.19
 -13  -1  -3    5.81    0.87
  13   1   3    4.61    1.13
 -13  -2  -3   30.85    2.63
 -13  -2  -3   27.40    2.52
  13   2   3   34.49    2.41
 -13  -3  -3   25.61    2.70
  13   3   3   23.97    1.99
 -13  -4  -3   23.03    3.02
  13   4   3   28.52    2.16
 -13  -5  -3   10.85    2.39
  13   5   3    6.88    1.28
 -13   5  -4    1.94    2.04
 -13   5  -4    5.94    2.05
 -13   5  -4    4.12    1.71
  13  -5   4    4.33    1.40
 -13   4  -4   30.78    3.05
 -13   4  -4   33.13    3.16
 -13   4  -4   31.85    4.19
  13  -4   4   26.85    2.39
 -13   3  -4    3.74    1.58
 -13   3  -4    4.36    1.42
 -13   3  -4    7.16    1.67
  13  -3   4    8.64    1.37
 -13   2  -4   18.28    2.46
 -13   2  -4   18.00    1.86
 -13   2  -4   23.37    2.10
 -13   2  -4   20.39    2.50
 -13   2  -4   18.78    1.15
  13  -2   4   17.55    1.71
 -13   1  -4    1.54    0.90
 -13   1  -4    3.46    0.73
 -13   1  -4    2.53    1.16
 -13   1  -4    3.91    1.18
  13  -1   4    4.34    1.26
  13  -1   4    2.40    0.79
 -13   0  -4   -0.02    0.45
 -13   0  -4    0.25    0.75
 -13   0  -4    0.15    0.81
 -13   0  -4   -0.42    0.76
  13   0   4   -1.19    0.54
 -13  -1  -4    2.45    1.16
 -13  -1  -4    2.44    1.12
 -13  -1  -4    3.06    0.73
  13   1   4    2.98    0.98
 -13  -2  -4   21.14    2.31
 -13  -2  -4   17.19    2.23
  13   2   4   16.79    1.84
 -13  -3  -4    4.41    1.53
  13   3   4    7.46    1.41
 -13  -4  -4   25.22    3.21
  13   4   4   26.83    2.21
  13   5   4    5.60    1.27
 -13   5  -5    0.62    1.93
  13  -5   5    3.44    1.44
 -13   4  -5   12.44    2.25
 -13   4  -5    8.12    2.32
 -13   4  -5   12.82    2.33
  13  -4   5    8.25    1.59
 -13   3  -5    8.50    2.20
 -13   3  -5    8.12    1.77
 -13   3  -5   11.18    2.01
  13  -3   5   11.72    1.60
 -13   2  -5   11.39    1.77
 -13   2  -5   10.98    2.21
  13  -2   5    9.20    1.39
 -13   1  -5    6.91    1.47
 -13   1  -5    6.43    1.57
 -13   1  -5    6.08    1.37
 -13   1  -5    6.88    0.96
  13  -1   5    7.42    1.15
 -13   0  -5    0.57    0.49
 -13   0  -5    0.29    0.91
 -13   0  -5   -0.26    0.74
 -13   0  -5    0.02    0.69
  13   0   5    0.11    0.79
 -13  -1  -5    7.74    1.73
 -13  -1  -5    5.28    0.88
 -13  -1  -5    6.86    1.48
  13   1   5    4.79    1.24
 -13  -2  -5   10.61    1.90
 -13  -2  -5    7.98    1.77
  13   2   5    8.30    1.47
 -13  -3  -5    9.29    1.86
  13   3   5    9.55    1.66
 -13  -4  -5   10.58    2.23
  13   4   5    7.07    1.49
 -13   4  -6    4.27    2.06
 -13   4  -6    5.72    1.78
 -13   4  -6    3.26    1.56
  13  -4   6    7.22    1.59
  13  -4   6    5.88    1.88
 -13   3  -6    9.17    1.86
 -13   3  -6   10.27    1.97
 -13   3  -6    2.05    1.54
  13  -3   6    8.83    1.52
  13  -3   6    7.70    1.88
 -13   2  -6    6.12    1.46
 -13   2  -6    3.31    1.57
  13  -2   6    5.35    1.18
 -13   1  -6    6.36    1.42
 -13   1  -6    6.48    0.99
 -13   1  -6    6.13    1.47
 -13   1  -6    7.20    1.77
  13  -1   6    3.67    0.97
 -13   0  -6   -0.83    0.77
 -13   0  -6    0.38    0.81
 -13   0  -6    0.17    0.93
 -13   0  -6    0.27    0.51
 -13  -1  -6    5.18    1.54
 -13  -1  -6    5.43    2.27
 -13  -1  -6    4.43    1.28
  13   1   6    4.18    1.30
 -13  -2  -6    5.02    1.64
 -13  -2  -6    4.23    1.37
  13   2   6    3.64    1.17
 -13  -3  -6    8.74    1.88
  13   3   6    8.72    1.81
 -13  -4  -6    3.51    1.76
  13   4   6    6.02    1.49
 -13   4  -7    1.67    1.53
 -13   4  -7   -0.21    1.75
 -13   4  -7    1.13    1.33
  13  -4   7    3.34    1.81
  13  -4   7    0.96    1.14
 -13   3  -7    7.21    2.02
 -13   3  -7    6.57    2.21
  13  -3   7   10.17    1.69
 -13   2  -7    4.89    1.81
 -13   2  -7    6.79    1.66
  13  -2   7    6.21    1.26
 -13   1  -7    1.02    1.19
 -13   1  -7    0.46    1.02
 -13   1  -7    0.35    0.56
  13  -1   7    0.26    0.71
 -13   0  -7   -0.74    0.74
 -13   0  -7    1.37    0.99
 -13   0  -7   -0.98    0.92
 -13   0  -7   -0.24    0.52
 -13  -1  -7   -0.01    1.04
 -13  -1  -7    0.36    0.99
 -13  -1  -7    1.02    0.66
  13   1   7   -0.56    0.75
 -13  -2  -7    3.67    1.61
 -13  -2  -7    4.72    1.02
 -13  -2  -7    2.43    1.26
  13   2   7    4.71    1.43
 -13  -3  -7    5.76    1.80
  13   3   7    6.93    1.66
 -13  -4  -7    1.40    1.44
  13   4   7    0.80    1.14
 -13   3  -8    3.42    1.65
 -13   3  -8    4.46    2.08
  13  -3   8    3.57    1.26
 -13   2  -8    3.11    1.82
 -13   2  -8    5.39    1.71
  13  -2   8    6.18    1.33
 -13   1  -8    0.69    0.63
 -13   1  -8    0.47    1.33
 -13   1  -8    0.84    1.21
  13  -1   8    0.86    0.81
 -13   0  -8    1.51    1.48
 -13   0  -8   -0.53    1.02
 -13   0  -8   -0.38    1.04
 -13  -1  -8    1.10    1.31
 -13  -1  -8    1.72    1.27
 -13  -1  -8    1.19    0.74
 -13  -2  -8    5.80    1.99
 -13  -2  -8    3.59    1.53
 -13  -2  -8    4.85    1.06
  13   2   8    6.64    1.79
 -13  -3  -8    2.59    1.86
 -13  -3  -8    2.67    1.46
  13   3   8    1.61    1.23
 -13   3  -9    5.10    2.16
 -13   3  -9    3.56    1.76
  13  -3   9    3.67    1.43
 -13   2  -9    3.69    1.57
 -13   2  -9   -0.48    1.40
  13  -2   9    1.53    1.03
 -13   1  -9    2.04    0.86
 -13   1  -9    1.16    1.21
 -13   1  -9    0.97    1.52
 -13   0  -9   -0.84    1.02
 -13   0  -9   -0.45    0.58
 -13   0  -9    1.20    1.12
 -13   0  -9   -0.45    1.30
 -13  -1  -9    0.65    1.13
 -13  -1  -9    0.71    0.78
 -13  -1  -9    0.65    1.32
 -13  -1  -9    0.85    1.53
 -13  -2  -9   -0.03    1.41
 -13  -2  -9    0.53    0.82
 -13  -2  -9    0.44    1.32
  13   2   9    0.86    1.27
 -13  -3  -9    1.23    1.55
 -13  -3  -9    0.21    1.70
  13   3   9    2.75    1.54
 -13   2 -10    0.66    1.32
 -13   2 -10   -0.44    1.69
  13  -2  10    0.32    1.03
 -13   1 -10    1.29    1.39
 -13   1 -10    0.62    1.75
 -13   0 -10   -0.31    1.24
 -13   0 -10   -0.22    0.72
 -13   0 -10   -1.14    1.30
 -13  -1 -10    2.50    1.02
 -13  -1 -10   -0.11    1.41
 -13  -1 -10    3.32    1.65
 -13  -1 -10    3.84    2.04
 -13  -2 -10   -0.23    1.37
 -13  -2 -10    1.80    1.02
 -13  -2 -10    1.58    1.83
 -13   1 -11   -1.25    1.69
 -13   1 -11    0.48    1.43
 -13   0 -11   -1.02    1.61
 -13   0 -11   -0.47    1.34
 -13  -1 -11    0.60    1.71
 -13  -1 -11   -1.01    1.87
 -13  -1 -11    0.53    1.38
 -14   2  10    1.86    1.65
  14  -2 -10    2.57    2.43
 -14   1  10   30.92    3.54
 -14   0  10    6.35    1.41
 -14   0  10    5.59    1.54
 -14   0  10    8.53    2.35
 -14  -1  10   37.73    3.08
 -14  -1  10   32.58    3.77
 -14  -1  10   36.10    2.80
  14   1 -10   27.95    4.36
 -14  -2  10    2.22    1.86
 -14  -2  10    0.06    1.16
  14   2 -10    0.46    1.68
  14   2 -10    0.81    2.00
 -14   3   9   24.23    3.74
  14  -3  -9   23.79    4.82
 -14   2   9   16.18    2.91
  14  -2  -9   21.59    3.95
  14  -2  -9   21.00    2.50
 -14   1   9   51.57    3.33
 -14   1   9   47.43    4.28
 -14   1   9   56.39    3.26
  14  -1  -9   51.52    4.89
 -14   0   9    9.18    2.30
 -14   0   9   10.36    1.61
 -14   0   9   12.22    1.87
 -14  -1   9   49.44    4.24
 -14  -1   9   49.28    3.33
 -14  -1   9   48.18    3.08
  14   1  -9   41.80    4.61
  14   1  -9   38.54    4.77
 -14  -2   9   14.77    2.81
 -14  -2   9   12.09    1.95
  14   2  -9   16.03    3.39
  14   2  -9   16.45    3.17
 -14  -3   9   23.59    3.49
  14   3  -9   16.72    3.80
  14   3  -9   22.82    3.56
 -14   3   8    2.31    1.62
  14  -3  -8    0.38    2.29
  14  -3  -8    1.32    1.38
 -14   2   8   49.92    2.71
 -14   2   8   54.04    4.44
  14  -2  -8   51.47    3.49
  14  -2  -8   49.77    5.21
 -14   1   8   14.34    1.93
 -14   1   8   19.73    3.03
 -14   1   8   16.21    1.85
  14  -1  -8   18.44    1.81
  14  -1  -8   19.68    3.45
 -14   0   8   90.88    5.55
 -14   0   8   90.11    4.26
 -14   0   8   88.45    4.45
  14   0  -8   90.68    5.97
 -14  -1   8   16.26    2.63
 -14  -1   8   17.32    1.95
 -14  -1   8   15.27    2.06
  14   1  -8   12.51    2.70
  14   1  -8   15.14    2.95
 -14  -2   8   53.02    3.39
 -14  -2   8   51.54    4.18
  14   2  -8   48.30    4.47
  14   2  -8   45.86    4.83
 -14  -3   8   -0.09    1.38
  14   3  -8    0.88    1.98
  14   3  -8    1.83    1.47
 -14   4   7   14.60    2.86
  14  -4  -7    4.09    1.73
  14  -4  -7    7.87    3.29
 -14   3   7   20.11    3.15
  14  -3  -7   26.03    2.96
  14  -3  -7   30.56    5.03
 -14   2   7   40.49    2.27
 -14   2   7   37.49    3.69
  14  -2  -7   35.16    2.87
  14  -2  -7   31.85    4.48
 -14   1   7   61.05    4.40
 -14   1   7   63.59    3.46
 -14   1   7   58.52    3.27
  14  -1  -7   64.47    3.23
  14  -1  -7   61.38    5.00
 -14   0   7   36.01    2.74
 -14   0   7   40.19    2.59
 -14   0   7   46.36    3.70
  14   0  -7   43.82    3.78
  14   0  -7   39.67    3.77
 -14  -1   7   58.56    3.20
 -14  -1   7   58.70    3.46
 -14  -1   7   64.07    4.28
  14   1  -7   53.22    4.47
  14   1  -7   52.92    4.40
 -14  -2   7   46.16    3.73
 -14  -2   7   42.16    2.92
  14   2  -7   37.53    4.21
  14   2  -7   39.16    3.73
  14   3  -7   29.85    4.44
  14   3  -7   29.80    3.24
  14   4  -7   13.62    3.29
  14   4  -7    9.23    2.11
 -14   4   6   -0.24    1.42
  14  -4  -6    1.60    2.22
  14  -4  -6    1.45    1.35
  14  -4  -6    0.18    1.32
 -14   3   6   17.38    3.01
  14  -3  -6   15.77    2.20
  14  -3  -6   20.34    2.45
  14  -3  -6   16.69    3.65
 -14   2   6   10.11    2.17
 -14   2   6    9.57    1.19
  14  -2  -6   10.44    2.74
  14  -2  -6    9.11    1.66
 -14   1   6   79.89    4.84
 -14   1   6   75.85    3.81
 -14   1   6   78.94    3.71
  14  -1  -6   74.98    5.40
  14  -1  -6   78.05    3.62
 -14   0   6    9.78    1.88
 -14   0   6    8.24    1.25
 -14   0   6   10.43    1.55
  14   0  -6   13.06    2.55
  14   0  -6   12.83    2.42
  14   0  -6   11.29    2.19
 -14  -1   6   81.10    3.99
 -14  -1   6   77.89    4.58
 -14  -1   6   77.86    3.64
  14   1  -6   73.56    4.95
  14   1  -6   73.93    4.87
  14   1  -6   72.80    5.10
 -14  -2   6   11.25    1.67
 -14  -2   6   10.62    2.07
  14   2  -6    8.77    2.43
  14   2  -6   11.87    2.33
  14   3  -6   17.90    3.46
  14   3  -6   19.15    2.65
  14   4  -6    0.24    1.84
  14   4  -6    1.05    1.12
 -14   4   5   10.82    2.06
 -14   4   5   14.79    2.78
  14  -4  -5   15.59    3.75
  14  -4  -5   19.85    2.64
  14  -4  -5   13.39    2.13
 -14   3   5   14.83    2.63
  14  -3  -5   12.73    2.01
  14  -3  -5   10.67    3.02
  14  -3  -5   10.25    1.81
 -14   2   5   59.38    2.81
 -14   2   5   57.52    4.09
  14  -2  -5   61.15    5.21
  14  -2  -5   63.02    3.53
  14  -2  -5   62.83    3.54
 -14   1   5   22.22    2.02
 -14   1   5   22.95    1.84
 -14   1   5   25.16    2.69
  14  -1  -5   17.82    2.88
  14  -1  -5   24.14    1.87
 -14   0   5  163.11    6.50
 -14   0   5  166.66    6.21
 -14   0   5  164.55    7.21
  14   0  -5  164.54    7.34
  14   0  -5  175.44    7.84
  14   0  -5  163.22    7.93
 -14  -1   5   24.66    2.14
 -14  -1   5   25.83    2.47
 -14  -1   5   20.90    1.75
  14   1  -5   20.86    2.89
  14   1  -5   20.87    2.93
  14   1  -5   21.98    2.88
 -14  -2   5   53.79    3.67
  14   2  -5   58.55    4.51
  14   2  -5   61.43    4.32
  14   2  -5   57.58    3.98
  14   3  -5   13.33    2.81
  14   3  -5    8.02    1.73
  14   4  -5   15.80    2.20
  14   4  -5   20.12    3.68
 -14   5   4    4.64    1.72
 -14   5   4    0.93    1.70
 -14   5   4    2.32    1.85
  14  -5  -4    1.53    1.47
  14  -5  -4    2.17    2.44
 -14   4   4   10.51    2.11
 -14   4   4    9.67    2.20
 -14   4   4   13.05    2.63
  14  -4  -4    6.23    2.82
  14  -4  -4    9.50    1.88
  14  -4  -4    7.22    1.66
 -14   3   4    2.33    1.48
 -14   3   4    4.17    1.30
  14  -3  -4    3.65    1.27
  14  -3  -4    5.71    2.41
  14  -3  -4    3.80    1.28
 -14   2   4   39.21    3.15
 -14   2   4   41.25    2.11
  14  -2  -4   33.59    2.58
  14  -2  -4   34.81    3.89
  14  -2  -4   40.58    2.77
 -14   1   4    7.93    1.36
 -14   1   4   11.12    1.37
 -14   1   4    9.54    1.77
  14  -1  -4   11.92    1.40
  14  -1  -4    9.28    2.17
 -14   0   4   37.29    2.28
 -14   0   4   35.48    2.51
 -14   0   4   36.21    2.84
  14   0  -4   39.06    3.53
  14   0  -4   31.83    3.04
  14   0  -4   39.33    3.04
 -14  -1   4   12.64    1.81
 -14  -1   4   10.22    1.52
 -14  -1   4   10.23    1.22
  14   1  -4   10.97    2.07
  14   1  -4   10.43    1.92
  14   1  -4   11.84    2.22
  14   2  -4   36.55    3.34
  14   2  -4   36.60    3.04
  14   2  -4   34.06    3.35
  14   3  -4    4.54    1.93
  14   3  -4    5.08    1.37
  14   4  -4    7.49    1.49
  14   4  -4    5.73    2.25
  14   5  -4    4.40    2.36
  14   5  -4    3.40    1.04
 -14   5   3    1.12    1.63
 -14   5   3    3.00    1.47
 -14   5   3    1.32    1.64
  14  -5  -3    6.96    2.96
  14  -5  -3    4.83    1.61
 -14   4   3   10.87    2.11
 -14   4   3   16.53    2.78
 -14   4   3   14.60    2.75
  14  -4  -3    9.96    1.88
  14  -4  -3    8.05    2.84
  14  -4  -3    6.69    1.55
 -14   3   3   23.89    2.50
 -14   3   3   24.70    3.29
 -14   3   3   16.09    2.39
  14  -3  -3   23.35    3.80
  14  -3  -3   24.03    2.30
  14  -3  -3   22.52    2.31
 -14   2   3    2.78    1.25
 -14   2   3    3.53    1.15
 -14   2   3    2.79    0.63
  14  -2  -3    0.61    1.29
  14  -2  -3    0.59    0.76
  14  -2  -3    2.14    0.87
 -14   1   3  108.13    4.40
 -14   1   3  109.33    5.23
 -14   1   3  113.49    4.76
  14  -1  -3  115.84    4.55
  14  -1  -3  111.09    6.36
 -14   0   3   13.02    1.75
 -14   0   3   17.23    1.56
 -14   0   3   12.91    1.75
  14   0  -3   17.97    2.26
  14   0  -3   13.92    2.42
  14   0  -3   14.12    2.11
 -14  -1   3  114.10    5.10
 -14  -1   3  113.19    4.77
 -14  -1   3  114.20    4.45
  14   1  -3  118.88    6.11
  14   1  -3  112.88    5.53
  14   1  -3  115.14    5.84
  14   2  -3    1.14    0.93
  14   2  -3    1.73    1.35
  14   3  -3   22.05    3.15
  14   3  -3   24.79    2.23
  14   4  -3    9.14    1.49
  14   4  -3   10.11    2.42
  14   5  -3    4.33    1.00
  14   5  -3    6.24    2.39
 -14   5   2   11.62    2.42
 -14   5   2   17.15    3.05
 -14   5   2   17.07    3.00
  14  -5  -2   12.82    3.74
  14  -5  -2   11.42    2.04
 -14   4   2    7.71    1.93
 -14   4   2    7.04    2.08
 -14   4   2    6.18    1.65
  14  -4  -2    9.05    1.74
  14  -4  -2    7.23    1.51
  14  -4  -2    6.54    2.50
 -14   3   2    9.65    1.88
 -14   3   2    9.46    1.83
 -14   3   2    7.64    2.12
  14  -3  -2    9.75    2.61
  14  -3  -2   10.03    1.59
  14  -3  -2    9.96    1.67
 -14   2   2   12.53    1.87
 -14   2   2   10.44    1.87
 -14   2   2   12.54    1.10
  14  -2  -2   11.10    1.56
  14  -2  -2   13.24    2.69
  14  -2  -2   11.98    1.57
 -14   1   2   43.88    2.74
 -14   1   2   46.59    3.00
 -14   1   2   47.56    2.78
 -14   1   2   44.46    2.32
  14  -1  -2   42.49    3.83
  14  -1  -2   44.52    2.51
  14  -1  -2   45.73    2.51
 -14   0   2   17.35    1.88
 -14   0   2   17.73    1.97
 -14   0   2   19.40    1.85
 -14   0   2   19.88    1.62
  14   0  -2   16.81    2.55
  14   0  -2   20.09    2.41
 -14  -1   2   45.67    2.54
 -14  -1   2   45.99    2.33
  14   1  -2   42.30    3.04
  14   1  -2   44.06    3.55
  14   2  -2   10.74    1.65
  14   2  -2    9.34    1.92
  14   3  -2    9.58    2.24
  14   3  -2    8.21    1.38
  14   4  -2    6.16    2.12
  14   4  -2    9.99    1.42
 -14  -5   2   13.66    2.71
  14   5  -2   12.65    1.38
 -14   5   1    1.47    1.50
 -14   5   1    5.05    2.04
 -14   5   1    5.14    1.93
  14  -5  -1    9.07    1.80
  14  -5  -1    4.22    2.78
 -14   4   1    5.75    1.92
 -14   4   1    3.29    1.58
 -14   4   1    5.79    1.75
  14  -4  -1    4.05    1.26
  14  -4  -1    4.27    2.16
  14  -4  -1    6.42    1.57
 -14   3   1   11.95    2.28
 -14   3   1    8.28    1.79
 -14   3   1    7.13    1.58
  14  -3  -1    7.68    2.27
  14  -3  -1    4.51    1.19
  14  -3  -1    4.00    1.19
 -14   2   1   71.79    2.81
 -14   2   1   69.05    3.89
 -14   2   1   70.50    4.03
 -14   2   1   68.24    4.50
  14  -2  -1   69.61    3.41
  14  -2  -1   71.91    5.01
  14  -2  -1   68.61    3.51
 -14   1   1   22.19    1.56
 -14   1   1   19.93    1.93
 -14   1   1   23.29    2.03
 -14   1   1   21.70    1.96
 -14   1   1   23.14    1.75
  14  -1  -1   21.17    1.68
  14  -1  -1   20.62    2.98
 -14   0   1   58.68    2.99
 -14   0   1   59.36    3.38
 -14   0   1   61.67    2.82
 -14   0   1   59.63    3.23
 -14   0   1   64.02    4.15
  14   0  -1   57.27    4.03
  14   0  -1   58.87    3.56
 -14  -1   1   20.35    1.55
 -14  -1   1   20.49    2.20
 -14  -1   1   23.46    1.77
  14   1  -1   20.54    2.77
  14   1  -1   20.30    2.08
 -14  -2   1   66.15    4.41
  14   2  -1   72.40    3.73
 -14  -3   1    7.93    1.94
  14   3  -1    5.59    1.12
 -14  -4   1    0.79    1.30
  14   4  -1    5.85    1.09
 -14  -5   1    7.01    2.21
  14   5  -1    6.12    1.00
 -14   5   0    4.80    1.97
 -14   5   0    3.61    1.88
 -14   5   0    5.25    1.98
  14  -5   0    3.01    1.31
 -14   4   0   15.66    2.73
 -14   4   0   15.68    2.79
 -14   4   0   11.42    2.23
  14  -4   0   12.57    2.84
  14  -4   0   11.98    1.90
  14  -4   0   12.85    1.78
 -14   3   0    1.39    1.10
 -14   3   0   -0.04    1.10
 -14   3   0   -0.19    0.83
  14  -3   0    0.35    1.17
  14  -3   0   -0.29    0.67
  14  -3   0    0.90    0.85
 -14   2   0   -0.58    0.63
 -14   2   0   -0.56    0.94
 -14   2   0   -0.33    0.33
 -14   2   0   -0.04    0.72
  14  -2   0   -0.34    0.69
  14  -2   0   -0.45    1.11
  14  -2   0   -0.08    0.67
 -14   1   0   -0.10    0.67
 -14   1   0   -0.22    0.55
 -14   1   0    0.63    0.58
 -14   1   0    0.30    0.70
 -14   1   0    0.28    0.44
  14  -1   0   -0.08    0.93
  14  -1   0   -0.56    0.50
 -14   0   0    1.97    0.86
 -14   0   0    2.38    0.67
 -14   0   0    3.41    0.93
 -14   0   0    3.28    0.97
  14   0   0    1.18    0.90
  14   0   0    1.50    1.06
 -14  -1   0    0.08    0.50
 -14  -1   0   -0.35    0.75
 -14  -1   0    0.02    0.59
 -14  -1   0   -0.49    0.51
  14   1   0   -0.66    0.78
  14   1   0    0.15    0.65
 -14  -2   0    0.69    0.88
  14   2   0   -0.81    0.55
 -14  -3   0   -0.56    0.95
  14   3   0    0.73    0.68
 -14  -4   0   10.46    2.33
  14   4   0   10.19    1.37
 -14  -5   0    5.90    2.11
  14   5   0    4.00    0.89
 -14   5  -1    5.15    1.90
 -14   5  -1    5.35    2.17
 -14   5  -1    5.92    2.04
  14  -5   1    7.18    1.68
 -14   4  -1    5.56    1.77
 -14   4  -1    6.90    2.10
 -14   4  -1    4.13    1.54
  14  -4   1    4.10    2.00
  14  -4   1    4.35    2.06
  14  -4   1    7.06    1.42
 -14   3  -1    4.51    1.28
 -14   3  -1    5.23    1.54
 -14   3  -1    5.19    1.70
  14  -3   1    5.79    1.88
  14  -3   1    8.36    1.36
  14  -3   1    7.92    1.41
 -14   2  -1   69.43    4.20
 -14   2  -1   69.71    2.74
 -14   2  -1   70.39    4.23
 -14   2  -1   74.68    3.87
  14  -2   1   70.76    3.57
  14  -2   1   70.27    4.76
  14  -2   1   69.56    3.37
 -14   1  -1   20.68    2.10
 -14   1  -1   21.69    2.03
 -14   1  -1   19.14    1.41
 -14   1  -1   20.80    1.78
 -14   1  -1   22.88    1.85
  14  -1   1   21.27    2.50
  14  -1   1   23.61    1.72
 -14   0  -1   57.67    2.68
 -14   0  -1   59.35    3.25
 -14   0  -1   58.19    3.08
 -14   0  -1   56.15    3.18
  14   0   1   57.72    3.34
  14   0   1   57.32    3.88
 -14  -1  -1   20.23    1.86
 -14  -1  -1   20.64    2.06
 -14  -1  -1   20.25    1.67
 -14  -1  -1   19.68    1.47
  14   1   1   20.04    1.99
 -14  -2  -1   69.32    3.58
 -14  -2  -1   71.18    4.20
  14   2   1   66.59    3.53
 -14  -3  -1    4.64    1.54
  14   3   1    8.07    1.26
 -14  -4  -1    4.75    1.66
  14   4   1    4.16    1.01
 -14  -5  -1    7.05    2.27
 -14   5  -2   11.91    2.95
 -14   5  -2   10.47    2.46
 -14   5  -2   14.33    2.70
  14  -5   2   15.93    2.23
 -14   4  -2   11.60    2.35
 -14   4  -2    7.90    1.90
 -14   4  -2    5.56    1.97
  14  -4   2    7.85    1.52
 -14   3  -2    8.11    2.01
 -14   3  -2   10.64    1.82
 -14   3  -2   10.06    2.11
  14  -3   2   10.94    1.56
  14  -3   2    7.53    1.39
  14  -3   2   11.33    2.31
 -14   2  -2   16.31    1.75
 -14   2  -2   14.51    2.25
 -14   2  -2   12.41    1.00
 -14   2  -2   11.33    1.93
  14  -2   2   11.26    1.49
  14  -2   2    9.72    1.95
 -14   1  -2   44.10    2.84
 -14   1  -2   47.05    3.17
 -14   1  -2   43.69    2.19
 -14   1  -2   45.15    2.75
  14  -1   2   46.20    3.45
  14  -1   2   46.28    2.45
 -14   0  -2   17.71    1.41
 -14   0  -2   19.15    1.94
 -14   0  -2   17.61    1.82
 -14   0  -2   21.45    2.09
  14   0   2   21.80    2.43
  14   0   2   17.42    2.11
 -14  -1  -2   44.29    2.21
 -14  -1  -2   43.35    2.49
 -14  -1  -2   44.33    2.85
 -14  -1  -2   41.34    2.91
  14   1   2   39.89    2.77
 -14  -2  -2   13.83    1.86
 -14  -2  -2   11.63    1.95
  14   2   2    7.90    1.36
 -14  -3  -2    7.85    1.91
  14   3   2    9.73    1.48
 -14  -4  -2    9.26    2.19
  14   4   2    6.99    1.22
 -14  -5  -2   11.48    2.55
  14   5   2   12.71    1.56
 -14   5  -3    4.94    1.77
 -14   5  -3    4.26    1.75
 -14   5  -3    5.70    2.50
 -14   5  -3    5.97    2.11
  14  -5   3    4.52    1.45
 -14   4  -3    7.51    1.76
 -14   4  -3   11.02    2.28
 -14   4  -3   10.07    2.03
 -14   4  -3   13.12    2.81
  14  -4   3   14.22    1.92
 -14   3  -3   25.27    2.68
 -14   3  -3   27.13    2.60
 -14   3  -3   29.55    3.62
 -14   3  -3   22.19    2.80
  14  -3   3   20.23    2.04
  14  -3   3   26.46    2.30
 -14   2  -3    0.97    0.78
 -14   2  -3   -0.47    0.80
 -14   2  -3    0.66    0.77
 -14   2  -3    0.43    0.39
  14  -2   3    2.16    1.17
  14  -2   3    3.51    0.99
 -14   1  -3  110.24    4.90
 -14   1  -3  111.84    5.43
 -14   1  -3  103.65    4.10
 -14   1  -3  112.43    4.94
  14  -1   3  111.58    4.38
  14  -1   3  113.14    5.58
 -14   0  -3   11.67    1.68
 -14   0  -3   12.70    1.73
 -14   0  -3   14.06    1.26
 -14   0  -3   15.21    2.04
  14   0   3   14.73    1.94
  14   0   3   10.89    1.90
 -14  -1  -3  106.96    5.09
 -14  -1  -3  108.32    5.18
 -14  -1  -3  107.86    4.16
 -14  -1  -3  110.84    4.58
  14   1   3  104.00    5.00
 -14  -2  -3    0.04    0.82
 -14  -2  -3    2.39    1.05
  14   2   3    2.84    0.97
 -14  -3  -3   22.93    2.99
  14   3   3   19.90    1.94
 -14  -4  -3    9.71    2.18
  14   4   3   12.62    1.64
 -14  -5  -3    2.15    1.64
  14   5   3    2.15    0.89
 -14   5  -4    3.52    1.69
 -14   5  -4    2.59    2.09
 -14   5  -4    3.06    1.79
  14  -5   4    2.53    1.35
 -14   4  -4    7.82    2.36
 -14   4  -4    7.44    1.84
 -14   4  -4   11.89    2.28
  14  -4   4    9.66    1.67
 -14   3  -4    3.41    1.58
 -14   3  -4    5.61    1.55
 -14   3  -4    4.35    1.53
  14  -3   4    2.76    1.05
 -14   2  -4   38.07    3.34
 -14   2  -4   39.63    2.78
 -14   2  -4   38.27    1.81
 -14   1  -4   12.89    1.33
 -14   1  -4    9.56    1.59
 -14   1  -4   10.27    1.86
 -14   1  -4   10.82    1.73
  14  -1   4   13.25    2.04
  14  -1   4    9.43    1.31
 -14   0  -4   33.08    2.49
 -14   0  -4   32.50    2.88
 -14   0  -4   32.28    2.59
 -14   0  -4   31.65    1.91
  14   0   4   34.10    2.73
 -14  -1  -4   11.22    1.84
 -14  -1  -4    9.37    1.19
 -14  -1  -4   11.89    1.55
 -14  -1  -4   11.28    1.82
  14   1   4   10.67    1.67
 -14  -2  -4   38.44    3.04
 -14  -2  -4   34.00    2.97
  14   2   4   39.06    2.74
 -14  -3  -4    2.99    1.34
  14   3   4    2.02    0.97
 -14  -4  -4    7.57    2.05
  14   4   4    9.86    1.58
 -14  -5  -4    2.72    2.09
  14   5   4    2.46    1.07
 -14   4  -5   19.85    3.51
 -14   4  -5   17.15    2.61
 -14   4  -5   20.52    2.94
  14  -4   5   12.61    1.89
 -14   3  -5   11.19    2.07
 -14   3  -5   11.48    2.40
 -14   3  -5   12.45    2.15
  14  -3   5   15.83    1.87
 -14   2  -5   59.03    3.60
 -14   2  -5   59.58    4.30
  14  -2   5   56.55    3.13
 -14   1  -5   20.83    2.59
 -14   1  -5   23.89    2.25
 -14   1  -5   21.37    2.27
 -14   1  -5   21.92    1.57
  14  -1   5   23.03    1.85
 -14   0  -5  151.33    5.92
 -14   0  -5  143.43    6.79
 -14   0  -5  144.54    6.07
 -14   0  -5  146.08    6.41
 -14  -1  -5   15.29    2.24
 -14  -1  -5   19.98    1.56
 -14  -1  -5   22.42    2.30
  14   1   5   19.75    2.21
 -14  -2  -5   54.64    3.69
 -14  -2  -5   58.63    3.99
  14   2   5   54.44    3.49
 -14  -3  -5   12.41    2.24
  14   3   5   13.18    1.95
 -14  -4  -5   19.13    2.97
  14   4   5   13.03    2.00
 -14   4  -6    0.13    1.12
 -14   4  -6   -0.82    1.47
 -14   4  -6    3.30    1.51
  14  -4   6    0.02    0.98
  14  -4   6    1.33    1.41
 -14   3  -6   20.21    3.18
  14  -3   6   18.81    2.12
 -14   2  -6    9.33    2.01
 -14   2  -6   12.09    2.06
  14  -2   6    9.30    1.52
 -14   1  -6   71.14    4.70
 -14   1  -6   68.51    3.92
 -14   1  -6   72.29    4.26
 -14   1  -6   73.49    3.22
  14  -1   6   74.62    3.48
 -14   0  -6   10.38    1.69
 -14   0  -6    7.93    1.13
 -14   0  -6    7.23    1.78
 -14   0  -6    9.60    1.86
 -14  -1  -6   68.13    3.85
 -14  -1  -6   71.59    3.35
 -14  -1  -6   67.91    4.51
  14   1   6   75.56    4.32
 -14  -2  -6   12.14    2.08
 -14  -2  -6   11.83    2.16
  14   2   6    7.88    1.62
 -14  -3  -6   17.01    2.75
 -14  -3  -6   17.18    2.69
  14   3   6   18.36    2.28
 -14  -4  -6   -0.01    1.22
  14   4   6   -0.05    0.91
 -14   4  -7   11.86    3.05
  14  -4   7   14.24    2.07
 -14   3  -7   26.09    3.82
  14  -3   7   23.49    2.39
 -14   2  -7   37.89    3.27
 -14   2  -7   37.63    4.36
  14  -2   7   36.50    2.65
 -14   1  -7   63.51    4.60
 -14   1  -7   58.33    4.07
 -14   1  -7   57.01    2.84
  14  -1   7   60.78    3.20
 -14   0  -7   35.17    3.13
 -14   0  -7   33.56    2.18
 -14   0  -7   33.81    3.54
 -14   0  -7   34.53    2.96
 -14  -1  -7   54.67    3.84
 -14  -1  -7   51.58    3.52
 -14  -1  -7   58.08    2.98
 -14  -1  -7   51.27    4.22
  14   1   7   58.87    3.95
 -14  -2  -7   34.76    3.97
 -14  -2  -7   31.97    2.92
 -14  -2  -7   30.15    2.97
  14   2   7   34.60    3.01
 -14  -3  -7   24.41    3.37
 -14  -3  -7   29.24    3.05
  14   3   7   20.50    2.72
 -14  -4  -7    8.23    2.34
  14   4   7   14.39    2.37
 -14   3  -8    4.25    2.06
 -14   3  -8    2.11    1.74
  14  -3   8    1.11    1.09
 -14   2  -8   49.95    4.63
 -14   2  -8   53.35    3.99
  14  -2   8   50.58    3.23
 -14   1  -8   14.64    2.54
 -14   1  -8   19.69    3.15
 -14   1  -8   17.32    1.58
 -14   0  -8   74.26    4.53
 -14   0  -8   81.94    3.77
 -14   0  -8   81.54    5.54
 -14   0  -8   85.36    5.09
 -14  -1  -8   19.85    1.80
 -14  -1  -8   18.25    2.48
 -14  -1  -8   13.29    2.36
 -14  -1  -8   16.17    2.87
 -14  -2  -8   49.45    4.41
 -14  -2  -8   47.05    3.97
 -14  -2  -8   51.23    2.96
  14   2   8   45.64    3.81
 -14  -3  -8    1.46    1.51
 -14  -3  -8    3.00    1.91
  14   3   8    0.05    1.13
 -14   3  -9   22.90    3.42
 -14   3  -9   24.75    4.09
  14  -3   9   23.30    2.59
 -14   2  -9   15.50    3.15
 -14   2  -9   20.23    2.94
  14  -2   9   11.28    1.86
 -14   1  -9   50.28    2.73
 -14   1  -9   42.33    3.79
 -14   1  -9   36.55    4.34
 -14   0  -9    9.38    2.45
 -14   0  -9   10.92    1.52
 -14   0  -9   13.17    2.51
 -14   0  -9   10.21    2.04
 -14  -1  -9   43.49    3.73
 -14  -1  -9   42.11    4.38
 -14  -1  -9   41.75    3.81
 -14  -1  -9   42.87    2.76
 -14  -2  -9   20.36    3.54
 -14  -2  -9   20.26    3.05
 -14  -2  -9   20.97    2.10
 -14  -3  -9   15.46    3.29
 -14  -3  -9   18.92    3.10
  14   3   9   19.42    3.01
 -14   2 -10    1.51    1.87
 -14   2 -10    2.19    1.51
  14  -2  10    2.45    1.19
 -14   1 -10   30.85    3.45
 -14   1 -10   31.50    4.30
 -14   0 -10    6.78    2.01
 -14   0 -10    5.27    2.31
 -14   0 -10    5.33    1.22
 -14  -1 -10   31.82    2.89
 -14  -1 -10   32.46    3.59
 -14  -1 -10   31.89    3.68
 -14  -1 -10   29.04    4.11
 -14  -2 -10    1.60    1.53
 -14  -2 -10    4.04    2.24
 -15   1  10    4.58    1.91
 -15   0  10   -0.98    0.94
 -15   0  10    0.66    1.28
 -15  -1  10    5.65    1.57
 -15  -1  10    3.41    1.95
 -15  -1  10    4.14    1.34
  15   1 -10    5.05    2.43
 -15   2   9   18.97    3.31
  15  -2  -9   11.04    3.13
  15  -2  -9   11.65    1.92
 -15   1   9    1.95    1.02
 -15   1   9    1.45    1.10
 -15   1   9    2.05    1.63
  15  -1  -9    1.29    1.93
 -15   0   9   -0.92    0.69
 -15   0   9   -0.25    0.93
 -15   0   9   -0.02    1.27
 -15  -1   9    3.31    1.32
 -15  -1   9    1.37    1.50
  15   1  -9    2.31    1.97
  15   1  -9    2.36    1.75
 -15  -2   9   17.08    2.33
 -15  -2   9   10.56    2.47
  15   2  -9   14.56    3.49
  15   2  -9    9.04    2.58
 -15   3   8    5.12    2.12
  15  -3  -8    2.70    2.56
 -15   2   8   12.71    2.65
 -15   2   8   13.47    1.54
  15  -2  -8   10.38    1.83
  15  -2  -8    9.10    2.91
 -15   1   8    1.27    0.91
 -15   1   8    4.71    1.71
 -15   1   8    1.38    1.06
  15  -1  -8    3.59    2.00
 -15   0   8   -0.25    0.69
 -15   0   8   -0.16    1.18
 -15   0   8    0.16    0.89
  15   0  -8    0.31    1.42
 -15  -1   8    1.83    1.17
 -15  -1   8    4.16    1.19
 -15  -1   8    1.59    1.44
  15   1  -8    2.65    1.99
  15   1  -8    3.84    1.94
 -15  -2   8    9.51    2.26
 -15  -2   8   10.29    1.82
  15   2  -8   12.04    2.55
  15   2  -8   12.93    3.05
  15   3  -8    4.00    2.32
  15   3  -8    6.11    1.94
 -15   3   7   19.86    3.19
  15  -3  -7   15.40    2.39
  15  -3  -7   13.85    3.51
 -15   2   7   16.97    1.61
 -15   2   7   13.15    2.46
  15  -2  -7   13.00    1.92
  15  -2  -7   16.86    3.48
 -15   1   7    7.49    1.99
 -15   1   7   10.06    1.61
 -15   1   7   10.24    1.53
  15  -1  -7    7.04    2.28
  15  -1  -7    8.31    1.32
 -15   0   7    0.51    1.06
 -15   0   7   -0.14    0.65
 -15   0   7   -0.64    0.84
  15   0  -7   -0.79    1.18
 -15  -1   7    9.03    1.39
 -15  -1   7    7.47    1.54
 -15  -1   7    8.11    1.94
  15   1  -7   10.05    2.56
  15   1  -7    8.16    2.28
 -15  -2   7   11.49    2.29
 -15  -2   7   14.58    2.00
  15   2  -7   15.85    3.19
  15   2  -7   14.75    2.73
  15   3  -7   10.00    2.23
  15   3  -7   10.34    2.87
 -15   4   6    2.79    1.64
  15  -4  -6    2.59    1.58
  15  -4  -6    1.85    2.09
  15  -4  -6    5.88    3.14
 -15   3   6   32.19    3.99
  15  -3  -6   23.21    4.15
  15  -3  -6   23.07    2.67
  15  -3  -6   27.57    2.81
 -15   2   6    4.87    1.84
 -15   2   6    2.63    0.82
  15  -2  -6    3.48    1.18
  15  -2  -6    2.38    1.96
 -15   1   6    7.68    1.27
 -15   1   6    5.40    1.61
 -15   1   6    5.61    1.27
  15  -1  -6    6.11    1.15
  15  -1  -6    8.96    2.45
 -15   0   6    0.47    1.06
 -15   0   6    0.86    0.72
 -15   0   6   -0.58    0.80
  15   0  -6   -0.04    1.10
  15   0  -6    0.20    1.31
  15   0  -6   -1.12    1.09
 -15  -1   6    6.78    1.23
 -15  -1   6    5.64    1.36
 -15  -1   6    5.27    1.49
  15   1  -6    6.31    1.88
  15   1  -6    6.65    1.98
  15   1  -6    7.44    2.18
 -15  -2   6    3.24    1.16
  15   2  -6    4.57    1.67
  15   2  -6    4.85    1.95
  15   3  -6   23.55    3.00
  15   3  -6   26.01    3.89
  15   4  -6    1.70    1.80
  15   4  -6    5.08    1.59
 -15   4   5   15.33    2.94
  15  -4  -5    7.02    1.81
  15  -4  -5    7.83    2.98
  15  -4  -5    7.61    1.92
 -15   3   5   27.34    3.19
  15  -3  -5   34.34    2.96
  15  -3  -5   34.05    4.83
  15  -3  -5   31.04    2.89
 -15   2   5   20.83    1.63
 -15   2   5   22.58    2.90
  15  -2  -5   15.31    3.16
  15  -2  -5   19.00    2.16
 -15   1   5    4.38    0.96
 -15   1   5    5.38    1.57
 -15   1   5    6.18    1.35
  15  -1  -5    5.41    2.03
  15  -1  -5    6.61    1.15
 -15   0   5    0.24    0.65
 -15   0   5    0.70    0.93
 -15   0   5    0.64    0.86
  15   0  -5    0.67    1.28
  15   0  -5    0.33    1.10
  15   0  -5   -0.86    1.10
 -15  -1   5    5.98    1.33
 -15  -1   5    3.37    0.93
 -15  -1   5    7.10    1.54
  15   1  -5    7.83    1.89
  15   1  -5    4.39    1.53
  15   1  -5    3.83    1.53
 -15  -2   5   24.54    2.78
  15   2  -5   17.97    3.05
  15   2  -5   15.54    2.44
  15   2  -5   16.77    2.68
  15   3  -5   31.92    3.00
  15   3  -5   33.05    4.24
  15   4  -5    6.21    2.48
  15   4  -5    7.45    1.62
 -15   4   4   24.57    3.36
 -15   4   4   28.58    3.22
  15  -4  -4   25.37    2.88
  15  -4  -4   20.03    3.97
  15  -4  -4   27.00    2.85
 -15   3   4    4.10    1.62
  15  -3  -4    2.13    1.18
  15  -3  -4    5.48    1.39
  15  -3  -4    4.00    2.15
 -15   2   4   16.76    2.54
 -15   2   4   17.96    1.46
  15  -2  -4   15.42    2.92
  15  -2  -4   16.20    1.94
  15  -2  -4   18.31    2.04
 -15   1   4    0.73    0.98
 -15   1   4    1.22    0.67
 -15   1   4    0.73    0.80
  15  -1  -4    0.86    1.40
  15  -1  -4    1.15    0.70
 -15   0   4    0.38    0.80
 -15   0   4    0.23    0.76
 -15   0   4    0.15    0.57
  15   0  -4    0.34    1.11
  15   0  -4    0.30    1.07
  15   0  -4   -0.22    0.92
 -15  -1   4    1.51    0.87
 -15  -1   4    1.22    0.67
 -15  -1   4   -0.51    0.83
  15   1  -4    0.83    1.21
  15   1  -4    0.16    1.06
  15   1  -4   -0.08    0.97
  15   2  -4   18.63    2.90
  15   2  -4   15.30    2.22
  15   2  -4   15.70    2.58
  15   3  -4    3.68    1.90
  15   3  -4    5.65    1.44
  15   4  -4   22.07    2.29
  15   4  -4   24.68    3.74
 -15   5   3    2.07    1.59
 -15   5   3    1.14    1.38
  15  -5  -3    0.36    1.33
 -15   4   3   16.31    2.98
 -15   4   3   25.73    3.52
 -15   4   3   24.73    3.10
  15  -4  -3   27.93    3.02
  15  -4  -3   22.43    2.52
  15  -4  -3   32.32    4.87
 -15   3   3    6.94    1.65
 -15   3   3    8.92    1.98
  15  -3  -3    4.72    1.32
  15  -3  -3    4.13    1.34
  15  -3  -3    2.42    1.90
 -15   2   3   15.24    2.25
 -15   2   3   15.12    1.30
  15  -2  -3   21.88    3.52
  15  -2  -3   16.13    1.89
  15  -2  -3   13.99    1.73
 -15   1   3    9.07    1.23
 -15   1   3   10.81    1.61
 -15   1   3   12.30    1.85
  15  -1  -3   10.56    1.35
  15  -1  -3    8.64    2.17
 -15   0   3    0.13    0.57
 -15   0   3   -0.61    0.75
 -15   0   3    0.45    0.86
  15   0  -3   -1.08    0.82
  15   0  -3   -1.17    0.80
 -15  -1   3   11.39    1.42
 -15  -1   3   13.41    1.72
  15   1  -3    7.34    1.85
  15   1  -3    9.90    1.93
  15   1  -3    7.17    1.60
  15   2  -3   14.90    2.07
  15   2  -3   14.33    2.52
  15   3  -3    4.60    1.28
  15   3  -3    4.27    1.87
  15   4  -3   27.46    2.36
  15   4  -3   31.09    4.22
 -15   5   2    3.41    1.92
 -15   5   2    5.19    2.01
 -15   5   2    3.67    1.67
  15  -5  -2    2.67    2.58
  15  -5  -2    3.47    1.44
 -15   4   2    1.69    1.25
 -15   4   2    1.18    1.29
 -15   4   2    1.07    1.47
  15  -4  -2    0.52    1.02
  15  -4  -2    3.67    2.26
  15  -4  -2    2.17    1.21
 -15   3   2    8.07    1.74
 -15   3   2   10.95    2.05
  15  -3  -2    7.30    1.52
  15  -3  -2    7.25    2.39
  15  -3  -2    7.84    1.45
 -15   2   2    2.71    0.66
 -15   2   2    3.66    1.13
 -15   2   2    3.64    1.21
  15  -2  -2    2.13    1.56
  15  -2  -2    2.89    0.96
  15  -2  -2    1.83    0.96
 -15   1   2    0.19    0.79
 -15   1   2    0.29    0.78
 -15   1   2    0.99    0.58
  15  -1  -2    0.96    0.66
  15  -1  -2    0.13    1.16
 -15   0   2    0.94    0.87
 -15   0   2   -0.18    0.58
 -15   0   2   -1.14    0.69
  15   0  -2    0.02    0.92
  15   0  -2    0.64    1.16
 -15  -1   2    0.76    0.60
 -15  -1   2    0.66    0.75
 -15  -1   2   -0.01    1.07
  15   1  -2    0.42    1.03
  15   1  -2    0.63    0.90
  15   2  -2    1.94    0.98
  15   2  -2    1.09    1.26
  15   3  -2    8.93    1.54
  15   3  -2    9.21    2.27
 -15  -4   2    0.03    1.40
  15   4  -2    1.15    0.81
 -15  -5   2    1.15    1.58
  15   5  -2    3.31    0.91
 -15   5   1    6.59    2.25
 -15   5   1    8.08    2.29
  15  -5  -1    7.85    1.80
  15  -5  -1    7.18    3.04
 -15   4   1    7.22    1.94
 -15   4   1    9.43    2.23
 -15   4   1    8.37    2.28
  15  -4  -1    8.27    1.59
  15  -4  -1    9.81    2.86
  15  -4  -1    6.37    1.58
 -15   3   1   12.38    2.23
 -15   3   1   14.00    2.26
 -15   3   1   15.00    2.63
  15  -3  -1   14.28    2.96
  15  -3  -1   12.26    1.72
  15  -3  -1   11.39    1.69
 -15   2   1   10.90    1.81
 -15   2   1    9.29    1.64
 -15   2   1   12.38    1.09
  15  -2  -1   11.30    1.53
  15  -2  -1    9.07    2.21
  15  -2  -1   12.11    1.62
 -15   1   1    6.98    1.03
 -15   1   1    7.27    1.34
 -15   1   1    8.55    1.46
 -15   1   1    7.25    1.38
  15  -1  -1    9.08    1.26
  15  -1  -1   10.77    2.21
 -15   0   1   -0.41    0.73
 -15   0   1    0.10    0.72
 -15   0   1    0.46    0.53
  15   0  -1    1.26    0.87
  15   0  -1   -0.68    0.91
 -15  -1   1    7.03    1.09
 -15  -1   1    7.92    1.65
 -15  -1   1    6.55    1.16
  15   1  -1   10.38    1.77
  15   1  -1   12.60    2.32
 -15  -2   1   11.69    2.17
  15   2  -1   10.24    1.64
 -15  -3   1   12.61    2.60
  15   3  -1   11.90    1.61
 -15  -4   1    7.48    2.14
  15   4  -1    5.41    1.14
 -15  -5   1    8.78    2.50
  15   5  -1    7.50    1.22
 -15   5   0   -0.05    1.44
 -15   5   0    0.02    1.17
 -15   5   0    0.89    1.44
  15  -5   0    0.11    1.18
 -15   4   0    0.44    1.28
 -15   4   0    0.69    1.24
 -15   4   0    0.11    1.36
  15  -4   0   -0.06    0.93
  15  -4   0   -0.30    0.92
  15  -4   0    1.88    1.73
 -15   3   0    3.26    1.29
 -15   3   0    2.61    1.52
 -15   3   0    2.49    1.25
  15  -3   0    2.36    1.65
  15  -3   0    3.33    1.06
  15  -3   0    1.42    0.95
 -15   2   0   10.54    1.89
 -15   2   0   10.68    1.07
 -15   2   0    9.08    1.60
  15  -2   0    7.93    1.36
  15  -2   0    9.97    1.48
  15  -2   0   10.42    2.28
 -15   1   0    1.62    0.93
 -15   1   0   -0.19    0.97
 -15   1   0    0.91    0.53
 -15   1   0   -0.46    0.76
 -15   1   0    0.05    0.64
  15  -1   0    0.91    1.17
  15  -1   0    0.83    0.66
 -15   0   0    0.20    0.79
 -15   0   0   -0.27    0.53
 -15   0   0    0.07    0.73
 -15   0   0   -0.06    0.46
  15   0   0    0.22    1.00
  15   0   0   -0.03    0.78
 -15  -1   0    0.20    0.78
 -15  -1   0   -0.27    0.52
 -15  -1   0    0.44    0.69
  15   1   0   -0.32    0.71
  15   1   0    1.09    1.00
 -15  -2   0    8.09    1.84
  15   2   0    9.05    1.46
 -15  -3   0    2.12    1.26
  15   3   0    2.70    0.91
 -15  -4   0   -0.90    1.03
  15   4   0   -0.10    0.57
 -15  -5   0    0.59    1.68
  15   5   0    0.79    0.66
 -15   5  -1    7.68    2.17
 -15   5  -1    7.74    2.21
 -15   5  -1    8.40    2.57
  15  -5   1    8.77    1.82
 -15   4  -1    2.38    1.42
 -15   4  -1    9.84    2.43
 -15   4  -1    5.41    1.81
  15  -4   1    8.60    1.63
  15  -4   1    8.54    1.71
  15  -4   1    9.97    4.12
 -15   3  -1   14.55    2.14
 -15   3  -1   15.33    2.49
 -15   3  -1   14.07    2.45
  15  -3   1   11.65    1.72
  15  -3   1   11.86    2.53
  15  -3   1   12.34    1.73
 -15   2  -1   10.93    1.81
 -15   2  -1    9.72    1.60
 -15   2  -1   10.14    0.98
  15  -2   1    8.77    1.39
  15  -2   1   12.02    2.24
  15  -2   1   13.72    1.70
 -15   1  -1   11.70    1.66
 -15   1  -1    8.22    1.39
 -15   1  -1   11.66    1.18
 -15   1  -1    9.24    1.64
  15  -1   1    6.19    1.06
  15  -1   1    5.73    1.70
 -15   0  -1    0.48    0.71
 -15   0  -1   -0.21    0.67
 -15   0  -1    0.51    0.52
 -15   0  -1   -0.97    0.47
  15   0   1   -0.52    0.70
  15   0   1    0.15    0.83
 -15  -1  -1    7.30    1.49
 -15  -1  -1   10.91    1.56
 -15  -1  -1   10.84    1.26
 -15  -1  -1    9.45    1.35
  15   1   1    7.29    1.46
 -15  -2  -1   12.86    2.18
 -15  -2  -1   12.46    1.72
  15   2   1   10.08    1.55
 -15  -3  -1   16.49    2.66
  15   3   1   10.45    1.51
 -15  -4  -1    7.71    2.22
  15   4   1    7.91    1.34
 -15  -5  -1    2.94    1.85
 -15   5  -2    2.84    1.71
 -15   5  -2    5.71    2.35
 -15   5  -2    2.27    1.71
  15  -5   2    2.56    1.43
 -15   4  -2    1.37    1.42
 -15   4  -2    1.60    1.55
 -15   4  -2    2.99    1.54
  15  -4   2    0.11    1.00
  15  -4   2    0.58    0.96
 -15   3  -2    7.98    2.05
 -15   3  -2    6.66    1.98
 -15   3  -2   12.09    1.97
  15  -3   2    7.80    1.45
  15  -3   2   10.45    2.36
  15  -3   2    7.96    1.50
 -15   2  -2    2.90    0.59
 -15   2  -2    1.03    1.01
 -15   2  -2    2.05    1.00
  15  -2   2    3.21    0.98
  15  -2   2    2.21    1.31
 -15   1  -2    1.34    0.92
 -15   1  -2   -0.37    0.39
 -15   1  -2   -0.28    0.72
 -15   1  -2   -0.57    0.64
  15  -1   2   -0.73    0.81
  15  -1   2   -0.40    0.60
 -15   0  -2    0.35    0.76
 -15   0  -2    0.02    0.48
 -15   0  -2    0.11    0.71
 -15   0  -2    0.75    0.74
  15   0   2    0.29    0.92
  15   0   2    0.10    0.67
 -15  -1  -2    0.53    0.90
 -15  -1  -2    0.23    0.68
 -15  -1  -2   -0.20    0.65
 -15  -1  -2    0.27    0.51
  15   1   2   -0.17    0.70
 -15  -2  -2    2.81    1.06
 -15  -2  -2    2.69    1.25
  15   2   2    2.58    0.96
 -15  -3  -2    7.35    1.86
  15   3   2    6.89    1.32
 -15  -4  -2    2.93    1.56
  15   4   2    1.22    0.77
 -15  -5  -2    3.97    2.01
  15   5   2    3.22    1.02
 -15   5  -3   -0.26    1.82
  15  -5   3    3.06    1.47
 -15   4  -3   23.76    3.03
 -15   4  -3   28.72    3.49
 -15   4  -3   29.31    3.08
 -15   4  -3   21.31    3.49
  15  -4   3   21.37    2.41
  15  -4   3   22.52    2.59
 -15   3  -3    3.84    1.39
 -15   3  -3    2.36    1.54
 -15   3  -3    3.32    1.35
 -15   3  -3    4.22    1.68
  15  -3   3    7.55    1.42
 -15   2  -3   16.94    1.21
 -15   2  -3   16.57    2.47
  15  -2   3   16.33    2.46
 -15   1  -3   10.65    1.21
 -15   1  -3   10.96    1.89
 -15   1  -3    8.62    1.48
 -15   1  -3   10.68    1.72
  15  -1   3   11.17    2.05
  15  -1   3   10.38    1.38
 -15   0  -3    0.10    0.70
 -15   0  -3    0.10    0.79
 -15   0  -3   -0.04    0.76
 -15   0  -3    0.57    0.50
  15   0   3   -0.56    0.71
  15   0   3   -0.02    0.93
 -15  -1  -3    8.99    1.41
 -15  -1  -3   10.26    1.72
 -15  -1  -3    7.91    1.58
 -15  -1  -3   10.18    1.23
  15   1   3    9.78    1.70
 -15  -2  -3   13.99    2.11
 -15  -2  -3   14.00    1.98
  15   2   3   16.82    2.12
 -15  -3  -3    4.72    1.65
  15   3   3    6.65    1.31
 -15  -4  -3   29.97    3.70
  15   4   3   21.37    2.11
 -15   4  -4   28.10    3.60
 -15   4  -4   30.80    3.31
 -15   4  -4   19.91    3.33
  15  -4   4   22.89    2.52
 -15   3  -4    3.46    1.53
 -15   3  -4    5.11    1.76
  15  -3   4    6.03    1.34
 -15   2  -4   15.07    2.40
 -15   2  -4   19.08    1.29
 -15   2  -4   13.71    1.91
  15  -2   4   19.25    1.88
 -15   1  -4    0.82    0.96
 -15   1  -4    0.56    0.51
 -15   1  -4    0.32    0.84
 -15   1  -4    0.34    0.86
  15  -1   4    1.96    1.09
  15  -1   4    1.20    0.73
 -15   0  -4   -0.33    0.49
 -15   0  -4    0.16    0.85
 -15   0  -4   -0.12    0.89
 -15   0  -4    0.64    0.77
  15   0   4   -0.47    0.67
 -15  -1  -4    1.53    0.91
 -15  -1  -4    0.61    0.53
 -15  -1  -4    0.34    0.89
 -15  -1  -4    1.53    1.00
  15   1   4    1.51    0.98
 -15  -2  -4   15.42    2.22
 -15  -2  -4   16.08    2.44
  15   2   4   14.07    1.94
 -15  -3  -4    3.39    1.45
 -15  -3  -4    4.92    1.78
  15   3   4    3.99    1.19
 -15  -4  -4   25.47    3.46
  15   4   4   24.73    2.35
 -15   4  -5    5.34    2.27
 -15   4  -5    7.49    2.03
 -15   4  -5    7.98    2.18
  15  -4   5    8.74    1.76
 -15   3  -5   40.49    3.96
  15  -3   5   30.28    2.57
 -15   2  -5   18.25    2.39
 -15   2  -5   17.66    2.82
  15  -2   5   22.93    2.10
 -15   1  -5    4.83    1.49
 -15   1  -5    6.70    1.55
 -15   1  -5    6.45    1.46
 -15   1  -5    5.75    0.98
  15  -1   5    5.32    1.08
 -15   0  -5    0.96    0.91
 -15   0  -5    0.45    1.34
 -15   0  -5    0.45    0.89
 -15   0  -5   -0.12    0.92
 -15  -1  -5    7.01    1.66
 -15  -1  -5    5.53    0.98
 -15  -1  -5    4.76    1.27
 -15  -1  -5    6.93    1.76
  15   1   5    5.50    1.47
 -15  -2  -5   12.70    2.14
 -15  -2  -5   15.09    2.34
  15   2   5   19.65    2.39
 -15  -3  -5   33.41    3.41
 -15  -3  -5   35.95    3.28
  15   3   5   28.99    2.69
 -15  -4  -5    7.62    2.17
  15   4   5    7.74    1.62
 -15   4  -6    1.93    1.99
  15  -4   6    3.04    1.34
 -15   3  -6   31.29    4.08
  15  -3   6   28.29    2.56
 -15   2  -6    4.66    1.51
 -15   2  -6    3.78    1.65
  15  -2   6    3.69    1.14
 -15   1  -6    7.10    1.74
 -15   1  -6    8.37    1.73
 -15   1  -6    8.27    2.02
 -15   1  -6    6.00    1.03
  15  -1   6    7.44    1.30
 -15   0  -6   -0.19    0.88
 -15   0  -6    0.48    0.57
 -15   0  -6    0.18    1.07
 -15   0  -6   -0.75    0.89
 -15  -1  -6    5.96    1.05
 -15  -1  -6    6.22    1.84
 -15  -1  -6   10.43    1.93
 -15  -1  -6    7.33    1.57
  15   1   6    6.81    1.63
 -15  -2  -6    1.88    1.43
 -15  -2  -6    2.51    1.42
  15   2   6    3.78    1.34
 -15  -3  -6   25.46    3.31
 -15  -3  -6   22.82    3.15
  15   3   6   24.86    2.61
 -15  -4  -6    4.65    1.94
  15   4   6    5.81    1.61
 -15   3  -7   10.97    2.72
  15  -3   7   17.79    2.20
 -15   2  -7   15.12    2.39
 -15   2  -7   13.61    2.66
  15  -2   7   13.58    1.88
 -15   1  -7    8.71    1.95
 -15   1  -7    4.50    1.82
 -15   1  -7    7.81    1.17
 -15   0  -7   -0.86    1.06
 -15   0  -7   -0.03    1.00
 -15   0  -7    0.24    0.60
 -15   0  -7   -1.18    0.77
 -15  -1  -7    7.87    1.32
 -15  -1  -7    8.76    1.86
 -15  -1  -7    7.12    1.98
 -15  -1  -7    8.94    1.80
 -15  -2  -7   17.65    2.84
 -15  -2  -7   16.14    2.59
  15   2   7   10.64    2.00
 -15  -3  -7   11.27    2.47
 -15  -3  -7   12.19    2.52
  15   3   7   16.41    2.41
 -15   3  -8    2.47    1.93
  15  -3   8    2.59    1.27
 -15   2  -8   10.46    2.20
 -15   2  -8   10.55    2.65
  15  -2   8   12.00    1.85
 -15   1  -8    0.11    1.38
 -15   1  -8    2.89    0.87
 -15   1  -8    3.03    1.45
 -15   0  -8   -0.15    1.08
 -15   0  -8   -0.50    0.57
 -15   0  -8   -0.48    0.99
 -15   0  -8   -0.85    1.13
 -15  -1  -8    3.01    1.67
 -15  -1  -8    2.31    1.36
 -15  -1  -8    1.75    0.87
 -15  -1  -8    3.91    1.52
 -15  -2  -8   12.59    2.51
 -15  -2  -8   12.45    2.78
 -15  -2  -8   12.19    1.71
  15   2   8   11.89    2.33
 -15  -3  -8    4.90    1.89
 -15  -3  -8    2.42    1.75
  15   3   8    1.79    1.35
 -15   2  -9   12.57    2.99
 -15   2  -9   14.95    2.67
  15  -2   9   15.49    2.09
 -15   1  -9    2.07    0.95
 -15   1  -9    2.26    1.82
 -15   1  -9    0.58    1.31
 -15   0  -9   -0.79    0.63
 -15   0  -9   -0.84    1.31
 -15   0  -9   -0.29    1.21
 -15  -1  -9    1.94    0.97
 -15  -1  -9    0.99    1.34
 -15  -1  -9    3.51    1.76
 -15  -1  -9    1.56    1.78
 -15  -2  -9   10.73    1.63
 -15  -2  -9   14.58    3.08
 -15  -2  -9   15.04    2.86
 -15   1 -10    5.91    2.33
 -15   1 -10    5.13    2.12
 -15   0 -10    0.36    1.66
 -15   0 -10   -0.44    1.09
 -15  -1 -10    2.98    1.75
 -15  -1 -10    4.04    2.10
 -15  -1 -10    2.12    1.62
 -16   0  10   -0.31    1.06
 -16   0  10   -0.39    1.48
 -16   2   9    6.12    2.29
  16  -2  -9    9.53    1.85
  16  -2  -9    7.66    2.82
 -16   1   9   23.38    2.57
 -16   1   9   33.91    3.72
 -16   1   9   29.31    2.48
  16  -1  -9   28.50    4.45
 -16   0   9   15.85    2.80
 -16   0   9   13.78    1.91
 -16   0   9   11.81    1.89
 -16  -1   9   28.40    2.57
 -16  -1   9   29.12    2.88
  16   1  -9   23.58    4.01
 -16  -2   9   11.79    2.66
 -16  -2   9    7.19    1.72
  16   2  -9    5.39    2.54
  16   2  -9    5.46    2.22
 -16   3   8    1.54    1.82
  16  -3  -8   -1.90    2.09
 -16   2   8    5.88    1.16
 -16   2   8    5.20    2.05
  16  -2  -8    3.70    1.32
  16  -2  -8    6.92    2.67
 -16   1   8   -0.39    1.19
 -16   1   8   -0.08    0.73
  16  -1  -8    0.50    1.75
 -16   0   8    9.64    1.56
 -16   0   8   11.86    2.35
 -16   0   8   10.39    1.78
  16   0  -8   14.56    2.94
 -16  -1   8    0.31    0.74
 -16  -1   8   -1.45    1.09
 -16  -1   8   -0.56    0.98
  16   1  -8    3.09    1.79
  16   1  -8   -0.13    1.62
 -16  -2   8    3.15    1.68
 -16  -2   8    3.25    1.38
  16   2  -8    2.07    1.97
  16   2  -8    3.33    1.88
  16   3  -8   -0.05    1.38
  16   3  -8    0.84    1.81
 -16   3   7   12.33    2.63
  16  -3  -7   12.29    2.25
  16  -3  -7    4.27    2.69
 -16   2   7   12.45    1.48
 -16   2   7   13.49    2.60
  16  -2  -7   15.75    3.45
  16  -2  -7   10.36    1.78
 -16   1   7   18.56    2.89
 -16   1   7   17.00    2.06
 -16   1   7   18.91    1.92
  16  -1  -7   16.91    3.25
 -16   0   7   30.66    2.44
 -16   0   7   35.40    3.37
 -16   0   7   32.43    2.74
  16   0  -7   40.14    4.02
 -16  -1   7   14.50    1.78
 -16  -1   7   17.38    2.73
 -16  -1   7   15.88    2.17
  16   1  -7   15.31    3.05
  16   1  -7   14.62    2.94
 -16  -2   7   11.86    1.93
  16   2  -7   12.26    2.91
  16   2  -7   11.20    2.50
  16   3  -7    9.90    2.73
  16   3  -7   13.68    2.58
 -16   4   6    3.00    1.87
  16  -4  -6   -1.83    2.14
  16  -4  -6    0.87    1.46
 -16   3   6   12.49    2.65
  16  -3  -6   13.63    2.15
  16  -3  -6    9.31    1.94
  16  -3  -6   13.44    3.63
 -16   2   6    1.59    1.41
 -16   2   6    0.02    0.66
  16  -2  -6   -0.07    1.61
  16  -2  -6    2.37    1.05
 -16   1   6   16.76    2.63
 -16   1   6   17.53    2.05
  16  -1  -6   16.36    3.17
  16  -1  -6   18.29    1.74
 -16   0   6    1.25    0.79
 -16   0   6    0.89    1.09
 -16   0   6   -0.33    0.82
  16   0  -6    0.93    1.48
 -16  -1   6   18.25    2.61
 -16  -1   6   15.79    2.09
 -16  -1   6   15.74    1.83
  16   1  -6   15.52    2.73
  16   1  -6   18.02    3.00
  16   1  -6   12.75    2.63
 -16  -2   6    0.92    0.96
  16   2  -6    2.07    1.44
  16   2  -6    2.79    1.79
  16   3  -6   10.20    2.13
  16   3  -6    7.02    2.33
  16   4  -6    0.20    1.82
  16   4  -6    1.36    1.23
 -16   4   5    6.87    2.15
  16  -4  -5    4.60    1.81
  16  -4  -5    2.13    2.56
  16  -4  -5    4.36    1.63
 -16   3   5    5.13    1.99
  16  -3  -5    8.52    1.80
  16  -3  -5   11.95    3.29
  16  -3  -5    6.95    1.65
 -16   2   5   26.05    1.86
 -16   2   5   27.39    2.88
  16  -2  -5   20.92    3.47
  16  -2  -5   20.82    2.16
 -16   1   5   16.00    2.36
 -16   1   5   16.69    1.71
 -16   1   5   19.88    2.06
  16  -1  -5   19.95    3.26
  16  -1  -5   17.30    1.71
 -16   0   5   50.24    2.92
 -16   0   5   52.99    3.65
 -16   0   5   52.84    3.30
  16   0  -5   53.46    4.23
  16   0  -5   52.19    4.43
  16   0  -5   46.77    3.78
 -16  -1   5   18.06    1.71
 -16  -1   5   17.14    2.10
  16   1  -5   15.38    2.48
  16   1  -5   15.32    2.66
  16   1  -5   15.79    2.70
 -16  -2   5   23.05    2.28
  16   2  -5   19.56    2.75
  16   2  -5   23.08    3.18
  16   2  -5   23.78    3.51
  16   3  -5    6.92    1.75
  16   3  -5    6.22    2.17
  16   4  -5    5.97    1.59
  16   4  -5    3.82    2.27
 -16   4   4   22.75    3.46
 -16   4   4   20.59    2.82
  16  -4  -4   16.84    2.43
  16  -4  -4   22.13    4.39
  16  -4  -4   19.85    2.76
 -16   3   4    3.95    1.68
  16  -3  -4    1.86    1.13
  16  -3  -4    2.06    1.20
  16  -3  -4    0.21    1.75
 -16   2   4   47.54    3.77
  16  -2  -4   48.20    4.72
  16  -2  -4   50.37    3.11
  16  -2  -4   48.87    3.11
 -16   1   4    2.04    0.81
 -16   1   4    1.59    1.13
 -16   1   4    1.56    0.96
  16  -1  -4    3.01    1.67
  16  -1  -4    2.75    0.86
 -16   0   4   76.33    3.96
 -16   0   4   82.80    4.43
 -16   0   4   77.02    3.68
  16   0  -4   71.30    4.46
  16   0  -4   76.75    5.22
 -16  -1   4    1.41    0.79
 -16  -1   4    2.38    1.08
  16   1  -4    4.57    1.50
  16   1  -4    5.27    1.77
  16   1  -4    3.64    1.66
  16   2  -4   45.89    3.95
  16   2  -4   49.54    4.28
  16   2  -4   45.09    3.54
  16   3  -4    1.15    1.03
  16   3  -4    0.08    1.36
  16   4  -4   19.10    2.39
  16   4  -4   18.62    3.42
 -16   4   3    4.23    1.78
 -16   4   3    2.41    1.38
  16  -4  -3    4.44    1.50
  16  -4  -3    3.98    1.52
  16  -4  -3    3.33    2.36
 -16   3   3    9.15    2.11
 -16   3   3    7.12    1.71
  16  -3  -3    8.96    2.76
  16  -3  -3    6.37    1.51
  16  -3  -3    8.80    1.66
 -16   2   3    2.21    1.22
 -16   2   3    3.16    0.77
  16  -2  -3    4.70    1.21
  16  -2  -3    5.22    1.20
  16  -2  -3    1.82    1.70
 -16   1   3   52.78    2.79
 -16   1   3   57.90    3.23
 -16   1   3   49.89    3.41
  16  -1  -3   50.33    4.48
 -16   0   3   13.69    2.11
 -16   0   3    9.55    1.65
 -16   0   3   10.95    1.46
  16   0  -3   14.11    2.25
  16   0  -3   10.29    2.27
 -16  -1   3   55.43    3.21
  16   1  -3   46.26    4.00
  16   1  -3   52.86    3.73
  16   1  -3   57.12    4.08
  16   2  -3    9.68    2.18
  16   2  -3    5.37    1.46
  16   3  -3    7.05    1.50
  16   3  -3    6.49    2.15
  16   4  -3   -0.05    1.53
  16   4  -3    5.45    1.29
 -16   4   2    3.13    1.53
 -16   4   2    7.15    1.88
  16  -4  -2    4.59    1.55
  16  -4  -2    3.35    1.33
  16  -4  -2    4.17    2.29
 -16   3   2   58.36    4.03
 -16   3   2   64.84    4.31
  16  -3  -2   55.99    5.15
  16  -3  -2   53.69    3.43
  16  -3  -2   57.62    3.57
 -16   2   2    8.28    1.03
 -16   2   2    6.29    1.51
 -16   2   2    6.72    1.57
  16  -2  -2    9.23    2.38
  16  -2  -2    8.72    1.52
  16  -2  -2    7.49    1.40
 -16   1   2  162.65    6.22
 -16   1   2  149.25    5.69
 -16   1   2  151.37    6.49
  16  -1  -2  150.20    7.81
 -16   0   2    1.49    0.70
 -16   0   2    1.09    0.87
 -16   0   2    0.72    0.88
  16   0  -2    4.44    1.64
  16   0  -2    4.28    1.37
 -16  -1   2  141.92    6.94
 -16  -1   2  156.27    6.29
 -16  -1   2  157.73    6.07
  16   1  -2  156.13    7.65
  16   1  -2  154.18    6.88
 -16  -2   2    7.39    2.06
  16   2  -2   13.34    1.98
 -16  -3   2   50.25    4.38
  16   3  -2   58.82    3.51
 -16  -4   2    4.10    1.97
  16   4  -2    5.56    1.26
 -16   5   1    5.23    2.04
  16  -5  -1   11.52    2.08
 -16   4   1    5.55    2.08
 -16   4   1    9.47    2.23
 -16   4   1    6.33    1.94
  16  -4  -1    3.76    1.34
  16  -4  -1    5.11    1.57
  16  -4  -1    1.25    1.92
 -16   3   1    7.71    1.76
 -16   3   1    5.48    1.63
  16  -3  -1   10.29    2.56
  16  -3  -1    8.48    1.57
  16  -3  -1    7.01    1.50
 -16   2   1   12.48    1.91
 -16   2   1   14.52    2.08
 -16   2   1   13.86    1.20
  16  -2  -1    6.40    1.99
  16  -2  -1   10.90    1.59
  16  -2  -1   11.14    1.59
 -16   1   1    6.18    1.33
 -16   1   1    7.05    1.07
 -16   1   1    4.44    1.19
  16  -1  -1    7.31    1.94
  16  -1  -1    7.44    1.22
 -16   0   1   46.36    3.11
 -16   0   1   55.39    3.40
 -16   0   1   53.01    2.78
  16   0  -1   52.85    3.62
  16   0  -1   53.67    4.16
 -16  -1   1    5.23    0.98
 -16  -1   1    5.12    1.13
 -16  -1   1    6.55    1.65
  16   1  -1    6.80    1.85
  16   1  -1    5.30    1.47
 -16  -2   1   11.39    2.20
  16   2  -1   12.22    1.83
 -16  -3   1    4.40    1.64
  16   3  -1    8.18    1.48
 -16  -4   1    4.19    1.81
  16   4  -1    2.27    0.96
 -16   5   0   10.92    2.71
 -16   5   0   13.46    2.85
  16  -5   0   12.06    2.10
 -16   4   0   24.02    3.24
 -16   4   0   25.29    3.65
 -16   4   0   23.37    3.23
  16  -4   0   27.05    2.67
  16  -4   0   23.44    3.85
  16  -4   0   24.48    2.54
 -16   3   0    1.68    1.12
 -16   3   0    1.35    1.18
  16  -3   0    2.03    1.73
  16  -3   0    1.62    1.08
  16  -3   0    2.36    1.08
 -16   2   0  132.98    4.79
 -16   2   0  131.48    6.32
 -16   2   0  138.98    6.05
  16  -2   0  137.63    5.61
  16  -2   0  133.34    5.44
  16  -2   0  134.79    7.38
 -16   1   0    2.99    1.08
 -16   1   0    1.23    0.92
 -16   1   0    2.30    0.70
 -16   1   0    1.39    0.89
  16  -1   0    1.90    1.34
  16  -1   0    1.47    0.74
 -16   0   0  368.52   12.12
 -16   0   0  362.29   12.04
 -16   0   0  355.70   11.43
 -16   0   0  360.51   12.38
  16   0   0  349.06   13.48
  16   0   0  346.15   12.57
 -16  -1   0    2.07    1.08
 -16  -1   0    1.61    0.83
 -16  -1   0    1.86    0.74
  16   1   0    2.08    1.40
  16   1   0    2.09    1.08
 -16  -2   0  130.22    6.58
  16   2   0  132.32    5.80
 -16  -3   0    1.77    1.32
  16   3   0    1.68    0.89
 -16  -4   0   22.26    3.51
  16   4   0   21.93    2.04
  16  -5   1    9.32    1.96
 -16   4  -1    3.89    1.73
 -16   4  -1    6.04    1.75
 -16   4  -1    4.34    1.93
  16  -4   1    5.68    1.47
  16  -4   1    6.67    1.57
 -16   3  -1   12.32    2.33
 -16   3  -1    9.11    1.78
  16  -3   1    4.76    1.25
  16  -3   1    7.07    2.14
  16  -3   1    4.92    1.37
 -16   2  -1    9.85    1.90
 -16   2  -1   10.06    1.04
  16  -2   1   11.77    1.56
  16  -2   1   12.19    2.45
 -16   1  -1    9.82    1.74
 -16   1  -1    7.89    1.38
 -16   1  -1    7.46    1.43
 -16   1  -1    7.14    1.02
  16  -1   1    4.10    1.52
  16  -1   1    7.59    1.20
 -16   0  -1   49.97    3.07
 -16   0  -1   49.15    3.24
 -16   0  -1   50.63    2.63
 -16   0  -1   50.90    3.18
  16   0   1   54.11    3.48
  16   0   1   52.36    4.01
 -16  -1  -1    7.26    1.10
 -16  -1  -1    7.70    1.67
 -16  -1  -1    8.34    1.35
 -16  -1  -1    6.24    1.30
  16   1   1    3.71    1.17
 -16  -2  -1    8.80    1.84
  16   2   1   10.82    1.72
 -16  -3  -1    7.80    2.03
  16   3   1    5.85    1.36
 -16  -4  -1    4.82    1.97
  16   4   1    3.79    1.13
 -16   4  -2    4.67    1.76
 -16   4  -2    7.05    2.09
 -16   4  -2    5.89    2.07
  16  -4   2    5.43    1.49
  16  -4   2    4.19    1.35
 -16   3  -2   58.00    3.92
 -16   3  -2   56.54    4.43
  16  -3   2   61.16    3.49
  16  -3   2   56.81    3.54
  16  -3   2   59.87    4.73
 -16   2  -2    7.44    1.67
 -16   2  -2   10.74    1.07
  16  -2   2    6.68    1.82
  16  -2   2    8.68    1.41
 -16   1  -2  147.04    6.57
 -16   1  -2  149.07    6.12
 -16   1  -2  142.32    6.06
 -16   1  -2  140.69    5.29
  16  -1   2  149.82    5.50
  16  -1   2  151.79    7.18
 -16   0  -2    5.23    1.29
 -16   0  -2    3.67    1.19
 -16   0  -2    3.36    1.10
 -16   0  -2    2.90    0.79
  16   0   2    1.52    0.95
  16   0   2    1.13    1.08
 -16  -1  -2  147.43    6.18
 -16  -1  -2  147.75    5.44
 -16  -1  -2  145.55    5.72
 -16  -1  -2  134.48    6.40
  16   1   2  146.79    6.32
 -16  -2  -2    7.34    1.84
 -16  -2  -2    8.20    1.55
  16   2   2    6.32    1.37
 -16  -3  -2   52.60    4.09
  16   3   2   59.38    3.49
 -16  -4  -2    5.25    1.86
  16   4   2    4.96    1.17
 -16   4  -3    4.29    1.57
 -16   4  -3    3.95    1.66
 -16   4  -3    5.31    2.16
 -16   4  -3    4.75    1.84
  16  -4   3    5.52    1.54
 -16   3  -3    7.61    2.00
  16  -3   3    7.10    1.47
 -16   2  -3    4.47    0.78
 -16   2  -3    4.85    1.56
  16  -2   3    1.91    1.31
  16  -2   3    2.11    0.91
 -16   1  -3   53.44    3.69
 -16   1  -3   49.27    2.55
 -16   1  -3   54.23    3.33
 -16   1  -3   50.51    3.30
  16  -1   3   56.80    2.88
  16  -1   3   52.38    3.89
 -16   0  -3   12.12    1.89
 -16   0  -3   10.26    1.76
 -16   0  -3   13.32    1.32
 -16   0  -3   10.96    1.69
  16   0   3    9.06    1.91
  16   0   3    7.85    1.62
 -16  -1  -3   46.00    3.24
 -16  -1  -3   50.22    2.62
 -16  -1  -3   48.86    3.42
 -16  -1  -3   49.90    2.96
  16   1   3   45.86    3.30
 -16  -2  -3    4.53    1.56
 -16  -2  -3    2.75    1.20
  16   2   3    3.19    1.09
 -16  -3  -3    6.46    1.82
 -16  -3  -3    6.33    1.63
  16   3   3    7.34    1.45
 -16  -4  -3    3.43    1.83
  16   4   3    4.05    1.19
 -16   4  -4   22.74    3.27
 -16   4  -4   18.97    3.04
 -16   4  -4   17.01    3.19
  16  -4   4   18.86    2.41
 -16   3  -4   -1.16    1.04
  16  -3   4    2.22    1.13
 -16   2  -4   50.10    4.04
 -16   2  -4   52.93    2.40
  16  -2   4   52.31    3.10
 -16   1  -4    4.88    1.37
 -16   1  -4    3.13    1.32
 -16   1  -4    4.17    1.30
 -16   1  -4    4.08    0.85
  16  -1   4    1.26    1.07
 -16   0  -4   68.58    3.19
 -16   0  -4   73.22    4.40
 -16   0  -4   69.41    3.83
 -16   0  -4   69.12    4.09
 -16  -1  -4    4.03    1.32
 -16  -1  -4    4.25    1.20
 -16  -1  -4    0.95    0.62
 -16  -1  -4    2.80    1.18
  16   1   4    1.24    0.99
 -16  -2  -4   46.58    3.53
 -16  -2  -4   42.13    3.43
  16   2   4   43.51    3.12
 -16  -3  -4    0.01    1.32
 -16  -3  -4    2.09    1.29
  16   3   4    3.32    1.17
 -16  -4  -4   20.64    3.23
  16   4   4   22.58    2.34
 -16   4  -5    4.91    2.24
  16  -4   5    6.59    1.67
 -16   3  -5    7.04    2.04
  16  -3   5    5.02    1.38
 -16   2  -5   22.94    2.44
 -16   2  -5   17.92    2.76
  16  -2   5   24.19    2.24
 -16   1  -5   17.86    2.30
 -16   1  -5   17.18    2.66
 -16   1  -5   16.81    1.52
 -16   1  -5   16.61    2.31
  16  -1   5   16.55    2.25
 -16   0  -5   48.54    3.77
 -16   0  -5   44.95    3.37
 -16   0  -5   49.50    3.28
 -16   0  -5   45.63    2.91
 -16  -1  -5   16.20    2.02
 -16  -1  -5   13.97    2.18
 -16  -1  -5   14.70    2.28
 -16  -1  -5   15.82    1.55
  16   1   5   12.29    2.02
 -16  -2  -5   19.00    2.74
 -16  -2  -5   20.41    2.79
  16   2   5   22.24    2.47
 -16  -3  -5    3.14    1.53
 -16  -3  -5    7.93    2.14
  16   3   5    4.59    1.39
 -16  -4  -5    3.22    1.64
  16   4   5    4.54    1.36
 -16   4  -6    2.22    1.87
  16  -4   6    1.92    1.28
 -16   3  -6   11.79    2.77
  16  -3   6    8.40    1.63
 -16   2  -6    0.65    1.38
 -16   2  -6    1.63    1.19
  16  -2   6    1.21    0.98
 -16   1  -6   14.65    2.36
 -16   1  -6   12.66    2.35
 -16   1  -6   18.14    1.58
 -16   1  -6   12.34    2.09
 -16   0  -6    1.30    0.79
 -16   0  -6    1.22    1.25
 -16   0  -6    2.39    1.35
 -16   0  -6    0.76    1.14
 -16  -1  -6   15.92    1.62
 -16  -1  -6   15.82    2.61
 -16  -1  -6   12.72    1.96
 -16  -1  -6   14.02    2.17
  16   1   6   16.16    2.39
 -16  -2  -6    1.90    1.27
 -16  -2  -6    1.42    1.39
  16   2   6    5.02    1.50
 -16  -3  -6    7.86    2.10
 -16  -3  -6   12.21    2.51
  16   3   6    8.89    1.89
 -16  -4  -6    0.24    1.50
 -16  -4  -6    0.75    1.52
  16   4   6    2.70    1.36
 -16   3  -7   14.46    3.08
  16  -3   7   15.25    2.14
 -16   2  -7   13.18    2.87
 -16   2  -7    9.90    2.11
  16  -2   7   10.82    1.72
 -16   1  -7   16.68    2.93
 -16   1  -7   16.41    2.61
 -16   1  -7   16.43    1.65
 -16   0  -7   28.95    2.92
 -16   0  -7   28.63    2.10
 -16   0  -7   24.89    3.33
 -16   0  -7   25.45    2.82
 -16  -1  -7   11.61    2.20
 -16  -1  -7   14.24    2.67
 -16  -1  -7   16.69    2.25
 -16  -1  -7   14.22    1.65
 -16  -2  -7   12.73    2.35
 -16  -2  -7   12.14    2.46
  16   2   7    9.53    1.98
 -16  -3  -7   12.88    2.58
 -16  -3  -7   15.46    2.93
  16   3   7   14.65    2.49
 -16   3  -8    1.82    1.91
  16  -3   8    0.57    1.14
 -16   2  -8    3.90    1.94
 -16   2  -8    4.51    1.75
  16  -2   8    2.35    1.21
 -16   1  -8    1.20    1.44
 -16   1  -8    0.12    1.18
 -16   1  -8    0.82    0.75
 -16   0  -8   11.72    2.70
 -16   0  -8    8.14    1.93
 -16   0  -8    6.82    1.88
 -16   0  -8   10.56    1.47
 -16  -1  -8    1.87    1.56
 -16  -1  -8    1.10    0.81
 -16  -1  -8    2.39    1.39
 -16  -1  -8    0.31    1.09
 -16  -2  -8    2.63    1.64
 -16  -2  -8    2.68    1.85
 -16  -2  -8    3.21    1.12
  16   2   8    3.51    1.58
 -16  -3  -8    0.35    1.57
 -16  -3  -8   -0.85    1.49
  16   3   8    0.74    1.40
 -16   2  -9    8.00    2.74
 -16   2  -9    8.98    2.34
  16  -2   9    4.87    1.54
 -16   1  -9   20.89    3.30
 -16   1  -9   28.24    3.90
 -16   1  -9   26.42    2.17
 -16   0  -9   12.06    2.65
 -16   0  -9   16.25    3.26
 -16   0  -9   13.20    1.68
 -16   0  -9   12.83    2.39
 -16  -1  -9   28.28    3.58
 -16  -1  -9   19.67    3.55
 -16  -1  -9   24.67    2.23
 -16  -1  -9   21.08    2.94
 -16  -2  -9    6.97    1.51
 -16  -2  -9    9.16    2.39
 -16  -2  -9   10.45    2.66
 -16   0 -10   -0.02    1.75
 -16   0 -10    1.87    1.67
 -17   1   9    3.13    1.71
  17  -1  -9    1.20    1.91
 -17   0   9    0.15    1.07
 -17   0   9    0.68    1.44
 -17  -1   9    1.79    1.08
 -17  -1   9    4.93    1.99
 -17  -1   9    3.29    1.44
  17   1  -9    2.94    2.27
 -17   2   8    1.46    1.68
 -17   2   8   -0.48    0.75
  17  -2  -8    0.28    1.01
  17  -2  -8   -1.06    1.77
 -17   1   8    6.68    1.32
 -17   1   8    6.12    2.00
 -17   1   8    5.28    1.45
  17  -1  -8    0.84    1.70
 -17   0   8   -0.35    0.97
 -17   0   8    0.00    1.08
 -17   0   8    0.46    0.87
  17   0  -8   -1.25    1.46
 -17  -1   8    7.60    1.46
 -17  -1   8    6.56    1.66
 -17  -1   8    5.11    1.85
  17   1  -8    3.38    2.09
  17   1  -8    7.38    2.45
 -17  -2   8    0.08    1.11
  17   2  -8    0.29    1.53
  17   2  -8   -0.89    1.68
 -17   3   7    2.64    1.98
  17  -3  -7    1.85    2.28
 -17   2   7   -0.83    1.30
 -17   2   7    1.06    0.75
  17  -2  -7    0.02    1.82
  17  -2  -7    1.34    1.07
 -17   1   7   -0.42    0.65
 -17   1   7    1.51    1.02
 -17   1   7    0.22    1.25
  17  -1  -7   -0.59    1.55
 -17   0   7    0.70    1.02
 -17   0   7   -0.94    0.94
 -17   0   7    0.10    0.74
  17   0  -7   -0.88    1.33
 -17  -1   7    0.32    1.16
 -17  -1   7    1.01    1.08
 -17  -1   7   -0.44    0.66
  17   1  -7   -0.21    1.44
  17   1  -7    2.09    1.71
 -17  -2   7    1.33    1.15
  17   2  -7    0.95    1.43
  17   2  -7    0.33    1.50
  17   3  -7    3.03    1.63
  17   3  -7   -1.07    1.57
 -17   3   6    2.09    1.63
  17  -3  -6    3.08    2.36
  17  -3  -6   -0.56    1.06
 -17   2   6   10.30    1.37
 -17   2   6    8.05    2.04
  17  -2  -6    9.60    1.58
  17  -2  -6    7.80    2.71
 -17   1   6    1.76    1.29
 -17   1   6    1.58    0.88
 -17   1   6    2.54    1.14
  17  -1  -6    4.46    2.12
 -17   0   6    1.08    0.80
 -17   0   6   -0.81    0.91
 -17   0   6   -0.01    0.93
  17   0  -6    1.08    1.41
 -17  -1   6    1.79    0.86
 -17  -1   6    1.14    1.07
  17   1  -6    2.67    1.64
  17   1  -6    3.53    1.82
  17   1  -6    2.64    1.67
 -17  -2   6    9.53    1.77
  17   2  -6    9.59    2.69
  17   2  -6    8.83    2.27
  17   3  -6    0.81    1.75
  17   3  -6   -0.03    1.17
 -17   4   5    5.31    2.12
  17  -4  -5    1.97    2.64
  17  -4  -5    1.84    1.54
 -17   3   5    5.95    2.06
  17  -3  -5    7.44    2.64
  17  -3  -5    8.54    1.81
  17  -3  -5    6.54    1.65
 -17   2   5    3.68    1.54
 -17   2   5    5.05    1.01
  17  -2  -5    3.91    1.97
  17  -2  -5    5.02    1.29
 -17   1   5    0.37    0.71
 -17   1   5    0.37    1.03
 -17   1   5    0.49    0.90
  17  -1  -5    2.44    1.91
 -17   0   5    0.26    0.89
 -17   0   5   -1.35    0.50
 -17   0   5   -0.17    0.90
  17   0  -5    1.11    1.40
  17   0  -5   -0.86    1.21
  17   0  -5   -1.20    1.14
 -17  -1   5    0.73    0.98
 -17  -1   5    1.78    0.82
  17   1  -5    1.21    1.28
  17   1  -5    0.96    1.37
  17   1  -5    0.26    1.27
 -17  -2   5    6.76    1.50
  17   2  -5    5.55    2.02
  17   2  -5    4.44    1.74
  17   2  -5    5.50    1.76
  17   3  -5    9.63    2.01
  17   3  -5    9.82    2.79
  17   4  -5    1.88    1.17
  17   4  -5    2.47    2.06
 -17   4   4    3.01    1.63
  17  -4  -4    2.55    2.54
  17  -4  -4    0.48    1.32
  17  -4  -4   -0.69    1.21
 -17   3   4   24.51    3.32
  17  -3  -4   20.04    3.63
  17  -3  -4   18.11    2.38
  17  -3  -4   23.69    2.52
 -17   2   4    3.73    1.54
 -17   2   4    4.16    0.90
  17  -2  -4    2.18    1.11
  17  -2  -4    2.81    1.08
  17  -2  -4    2.00    1.80
 -17   1   4    2.78    0.93
 -17   1   4    2.68    1.09
 -17   1   4    3.23    1.33
  17  -1  -4    0.53    1.55
 -17   0   4   -0.96    0.56
 -17   0   4    0.47    0.89
  17   0  -4    0.49    1.16
  17   0  -4   -0.41    1.00
 -17  -1   4    1.95    1.09
  17   1  -4    2.64    1.56
  17   1  -4    2.01    1.30
  17   1  -4    2.85    1.55
 -17  -2   4    3.74    1.27
  17   2  -4    0.92    1.10
  17   2  -4    2.34    1.59
  17   3  -4   18.44    2.50
  17   3  -4   19.59    3.35
  17   4  -4    1.25    1.04
  17   4  -4    0.55    1.66
 -17   4   3    5.00    1.75
 -17   4   3    6.99    2.18
  17  -4  -3    8.41    1.98
  17  -4  -3    7.54    2.96
  17  -4  -3    6.89    1.72
 -17   3   3   18.56    2.89
  17  -3  -3   10.32    2.76
  17  -3  -3   13.44    2.01
  17  -3  -3   14.35    2.09
 -17   2   3   15.54    2.45
 -17   2   3   17.06    1.53
  17  -2  -3   17.90    3.29
  17  -2  -3   18.23    2.14
  17  -2  -3   17.99    2.08
 -17   1   3    1.80    1.01
 -17   1   3    1.57    0.70
 -17   1   3    1.74    0.99
  17  -1  -3   -0.01    1.22
 -17   0   3   -0.17    0.79
 -17   0   3    0.04    0.57
 -17   0   3   -0.89    0.83
  17   0  -3   -0.54    1.01
  17   0  -3    0.31    1.22
 -17  -1   3    1.07    0.99
  17   1  -3   -0.12    1.19
  17   1  -3   -0.04    1.04
  17   2  -3   21.97    2.75
  17   3  -3   13.77    2.08
  17   3  -3    5.63    2.07
  17   4  -3    8.46    1.63
 -17   4   2   24.55    3.38
 -17   4   2   31.50    3.48
  17  -4  -2   25.80    2.99
  17  -4  -2   29.03    4.70
  17  -4  -2   25.91    2.83
 -17   3   2    4.81    1.58
 -17   3   2    2.59    1.31
  17  -3  -2    2.35    1.83
  17  -3  -2    3.01    1.24
  17  -3  -2    1.27    1.03
 -17   2   2   30.88    1.90
 -17   2   2   29.75    2.81
  17  -2  -2   33.10    2.53
  17  -2  -2   29.56    4.07
  17  -2  -2   36.68    2.54
 -17   1   2    1.69    0.76
 -17   1   2    1.57    0.92
  17  -1  -2    0.19    1.20
 -17   0   2    0.99    0.93
 -17   0   2   -0.06    0.87
 -17   0   2    0.39    0.61
  17   0  -2   -0.48    1.07
  17   0  -2    1.37    1.01
 -17  -1   2    1.14    1.17
 -17  -1   2    0.71    0.87
  17   1  -2    0.01    1.18
  17   1  -2    2.24    1.19
 -17  -2   2   34.08    3.49
  17   2  -2   34.82    2.95
 -17  -3   2    3.23    1.61
  17   3  -2    0.70    0.91
 -17  -4   2   23.95    3.70
  17   4  -2   27.91    2.45
 -17   4   1   21.22    3.12
 -17   4   1   22.80    3.26
  17  -4  -1   22.14    2.75
  17  -4  -1   17.69    3.67
  17  -4  -1   17.65    2.42
 -17   3   1   22.54    3.02
 -17   3   1   22.75    2.95
  17  -3  -1   21.84    2.50
  17  -3  -1   19.81    3.43
  17  -3  -1   26.54    2.47
 -17   2   1   17.62    2.34
 -17   2   1   13.64    2.04
 -17   2   1   16.86    1.37
  17  -2  -1   14.13    1.79
  17  -2  -1   13.77    1.75
  17  -2  -1   12.88    2.72
 -17   1   1    4.49    0.89
 -17   1   1    5.97    1.39
  17  -1  -1    6.96    1.93
 -17   0   1   -0.17    0.53
 -17   0   1   -0.24    0.78
 -17   0   1    0.42    0.92
  17   0  -1    1.79    1.15
  17   0  -1    0.73    1.09
 -17  -1   1    5.80    1.21
 -17  -1   1    7.17    1.81
 -17  -1   1    6.23    1.13
  17   1  -1    6.17    1.89
  17   1  -1    5.80    1.48
 -17  -2   1   19.75    2.93
  17   2  -1   11.49    1.85
 -17  -3   1   16.77    2.89
  17   3  -1   23.83    2.29
 -17  -4   1   20.42    3.28
  17   4  -1   14.17    1.88
 -17   4   0   -0.07    1.23
 -17   4   0    0.56    1.24
  17  -4   0    0.82    1.18
  17  -4   0    1.78    1.91
  17  -4   0   -0.29    1.06
 -17   3   0   31.63    3.30
 -17   3   0   32.93    3.11
  17  -3   0   30.90    4.20
  17  -3   0   31.30    2.74
  17  -3   0   37.30    2.85
 -17   2   0    1.94    0.65
 -17   2   0    2.16    1.11
  17  -2   0    1.43    0.91
  17  -2   0    1.99    1.54
 -17   1   0   15.69    2.08
 -17   1   0   14.78    1.92
 -17   1   0   13.20    1.47
  17  -1   0    9.78    2.17
 -17   0   0    2.54    0.76
 -17   0   0    3.45    1.16
 -17   0   0    4.40    1.26
  17   0   0    2.77    1.40
 -17  -1   0   12.84    1.66
 -17  -1   0   13.90    1.55
 -17  -1   0   10.85    1.97
  17   1   0   11.63    1.88
  17   1   0   14.99    2.66
 -17  -2   0    0.20    1.19
  17   2   0    1.32    0.96
 -17  -3   0   32.09    3.37
  17   3   0   29.09    2.49
 -17  -4   0   -2.56    1.36
  17   4   0    2.02    0.91
 -17   4  -1   14.96    2.79
 -17   4  -1   17.29    2.72
  17  -4   1   25.15    2.83
  17  -4   1   24.89    2.62
 -17   3  -1   21.41    3.02
 -17   3  -1   21.28    2.76
  17  -3   1   21.63    2.30
  17  -3   1   24.73    2.47
  17  -3   1   21.01    3.41
 -17   2  -1   12.74    1.22
 -17   2  -1   17.07    2.50
  17  -2   1   15.38    1.84
  17  -2   1   16.81    2.93
 -17   1  -1    7.34    1.04
 -17   1  -1    6.09    1.35
 -17   1  -1    5.27    1.32
 -17   1  -1    6.72    1.43
  17  -1   1    2.85    1.45
 -17   0  -1   -0.05    0.76
 -17   0  -1    0.09    0.76
 -17   0  -1    0.24    0.58
 -17   0  -1    0.46    0.71
  17   0   1    0.27    1.06
  17   0   1    0.83    0.96
 -17  -1  -1    7.16    1.17
 -17  -1  -1    5.77    1.54
 -17  -1  -1    7.21    1.33
  17   1   1    5.16    1.42
 -17  -2  -1   13.52    1.62
 -17  -2  -1   14.06    2.44
  17   2   1   12.07    1.79
 -17  -3  -1   17.65    2.88
  17   3   1   18.01    2.04
 -17  -4  -1   19.39    3.21
  17   4   1   22.55    2.22
 -17   4  -2   32.18    4.16
 -17   4  -2   27.05    3.48
  17  -4   2   32.23    3.03
  17  -4   2   25.57    2.77
 -17   3  -2    1.43    1.36
  17  -3   2    1.80    1.56
  17  -3   2    3.63    1.20
 -17   2  -2   35.52    3.24
 -17   2  -2   33.16    1.90
  17  -2   2   32.74    3.43
  17  -2   2   33.78    2.49
 -17   1  -2    0.85    0.90
 -17   1  -2    2.22    1.09
 -17   1  -2    1.17    0.64
 -17   1  -2    1.11    0.96
  17  -1   2    2.42    1.32
 -17   0  -2   -0.02    0.52
 -17   0  -2    0.84    0.88
 -17   0  -2    0.51    0.83
 -17   0  -2   -0.09    0.72
  17   0   2   -0.23    0.83
  17   0   2    0.29    0.97
 -17  -1  -2    1.30    0.87
 -17  -1  -2    0.02    0.59
 -17  -1  -2    1.89    1.20
 -17  -1  -2    0.89    0.85
  17   1   2    3.28    1.24
 -17  -2  -2   29.08    2.86
 -17  -2  -2   36.18    3.36
  17   2   2   36.45    2.86
 -17  -3  -2    2.42    1.50
  17   3   2    2.75    1.09
 -17  -4  -2   19.01    3.19
  17   4   2   28.83    2.40
 -17   4  -3    9.17    2.49
 -17   4  -3    9.69    2.32
  17  -4   3    7.36    1.74
 -17   3  -3   19.60    3.23
  17  -3   3   17.33    2.15
 -17   2  -3   21.88    1.49
 -17   2  -3   18.01    2.74
  17  -2   3   17.91    2.85
  17  -2   3   17.55    1.99
 -17   1  -3    0.98    0.59
 -17   1  -3   -0.38    0.76
 -17   1  -3    0.41    1.00
 -17   1  -3    1.42    1.03
  17  -1   3    0.91    1.10
 -17   0  -3    0.10    0.77
 -17   0  -3   -0.79    0.77
 -17   0  -3   -0.05    0.83
 -17   0  -3    0.01    0.51
  17   0   3    0.56    1.07
  17   0   3   -0.27    0.85
 -17  -1  -3    0.89    0.85
 -17  -1  -3    1.26    0.70
 -17  -1  -3    0.85    0.93
 -17  -1  -3    0.71    0.96
  17   1   3    0.28    0.85
 -17  -2  -3   15.41    2.57
 -17  -2  -3   21.90    2.58
  17   2   3   18.19    2.37
 -17  -3  -3   14.06    2.48
 -17  -3  -3   14.33    2.73
  17   3   3   15.06    2.10
 -17  -4  -3    9.58    2.34
  17   4   3    6.63    1.49
 -17   4  -4    1.04    1.79
  17  -4   4    1.87    1.36
 -17   3  -4   19.52    3.15
  17  -3   4   20.12    2.32
 -17   2  -4    3.64    0.77
 -17   2  -4    0.89    1.27
  17  -2   4    5.82    1.25
 -17   1  -4    1.87    1.23
 -17   1  -4    3.27    0.84
 -17   1  -4    3.59    1.35
 -17   1  -4    1.31    0.99
  17  -1   4    0.81    1.05
 -17   0  -4   -0.42    0.53
 -17   0  -4    0.59    0.95
 -17   0  -4    0.06    0.84
 -17   0  -4   -0.30    0.81
 -17  -1  -4    2.74    0.83
 -17  -1  -4    2.82    1.29
 -17  -1  -4    2.89    1.30
 -17  -1  -4    2.79    1.13
  17   1   4    1.25    1.10
 -17  -2  -4    2.21    1.28
 -17  -2  -4    0.52    1.00
  17   2   4    5.63    1.46
 -17  -3  -4   22.31    3.31
 -17  -3  -4   18.81    2.60
  17   3   4   18.99    2.42
 -17  -4  -4   -0.20    1.78
  17   4   4    3.30    1.29
 -17   4  -5    3.19    2.07
  17  -4   5    5.59    1.61
 -17   3  -5   10.66    2.52
  17  -3   5    9.74    1.79
 -17   2  -5    3.49    1.60
  17  -2   5    7.25    1.46
 -17   1  -5    1.16    1.14
 -17   1  -5    1.75    1.18
 -17   1  -5    0.45    1.13
 -17   1  -5    1.52    0.70
 -17   0  -5    0.70    0.68
 -17   0  -5   -0.07    0.98
 -17   0  -5    0.04    0.85
 -17   0  -5    0.30    1.12
 -17  -1  -5    1.03    0.72
 -17  -1  -5    1.50    1.20
 -17  -1  -5    0.71    1.05
 -17  -1  -5    0.77    1.02
  17   1   5    1.47    1.06
 -17  -2  -5    4.24    1.62
 -17  -2  -5    3.46    1.52
  17   2   5    6.96    1.70
 -17  -3  -5    9.86    2.25
 -17  -3  -5    7.84    1.97
  17   3   5    6.74    1.60
 -17  -4  -5    2.53    1.78
 -17  -4  -5    1.70    1.77
  17   4   5    3.75    1.39
 -17   3  -6    0.80    1.62
  17  -3   6    2.36    1.22
 -17   2  -6    6.93    1.75
 -17   2  -6    7.20    2.12
  17  -2   6    9.84    1.64
 -17   1  -6    5.00    1.75
 -17   1  -6    4.98    1.54
 -17   1  -6    3.18    0.87
 -17   0  -6   -0.19    0.94
 -17   0  -6    0.18    0.98
 -17   0  -6   -0.18    1.19
 -17   0  -6   -0.78    0.52
 -17  -1  -6    0.86    1.14
 -17  -1  -6    0.86    1.28
 -17  -1  -6    1.02    0.78
 -17  -1  -6    2.44    1.34
  17   1   6    3.20    1.23
 -17  -2  -6    4.47    1.74
 -17  -2  -6    9.09    2.18
  17   2   6   10.32    2.03
 -17  -3  -6    0.38    1.46
 -17  -3  -6   -0.94    1.25
  17   3   6    1.94    1.26
 -17   3  -7    1.73    1.88
  17  -3   7    1.54    1.30
 -17   2  -7    1.06    1.66
 -17   2  -7    0.28    1.24
  17  -2   7    1.04    1.01
 -17   1  -7    1.88    1.31
 -17   1  -7    1.85    1.43
 -17   1  -7    1.33    0.78
 -17   0  -7    0.97    1.19
 -17   0  -7   -0.81    0.58
 -17   0  -7    0.17    1.17
 -17   0  -7   -0.31    1.26
 -17  -1  -7   -0.18    0.69
 -17  -1  -7    0.18    1.07
 -17  -1  -7   -0.25    1.26
 -17  -1  -7    1.61    1.35
 -17  -2  -7    0.92    1.39
 -17  -2  -7    0.96    1.33
  17   2   7   -0.48    0.96
 -17  -3  -7   -0.12    1.31
 -17  -3  -7    1.11    1.53
  17   3   7    1.61    1.40
 -17   2  -8    1.55    1.80
 -17   2  -8    0.95    1.39
  17  -2   8    0.95    1.09
 -17   1  -8    4.26    1.70
 -17   1  -8    7.10    2.23
 -17   1  -8    7.18    1.24
 -17   0  -8   -0.17    1.06
 -17   0  -8    0.93    1.29
 -17   0  -8   -0.06    1.50
 -17   0  -8   -1.30    0.60
 -17  -1  -8    3.13    1.08
 -17  -1  -8    4.01    1.72
 -17  -1  -8    6.86    2.17
 -17  -1  -8    4.48    1.67
 -17  -2  -8   -1.15    1.41
 -17  -2  -8    0.52    0.95
 -17  -2  -8    0.16    1.43
  17   2   8    1.34    1.38
 -17   1  -9    4.27    1.91
 -17   1  -9    2.43    1.90
 -17   1  -9    2.54    1.08
 -17   0  -9   -0.98    1.26
 -17   0  -9    1.52    1.58
 -17   0  -9   -0.25    1.58
 -17  -1  -9    2.78    1.76
 -17  -1  -9    2.90    1.78
 -17  -1  -9    2.33    1.86
 -18   0   9   51.94    4.48
 -18   0   9   49.64    3.59
 -18   2   8   -0.43    0.97
 -18   2   8   -1.15    1.43
  18  -2  -8    2.81    1.27
 -18   1   8   33.24    3.77
 -18   1   8   41.70    3.25
 -18   1   8   46.11    3.27
  18  -1  -8   45.02    5.16
 -18   0   8    6.63    1.61
 -18   0   8    9.30    1.70
 -18   0   8    8.72    2.25
  18   0  -8    8.10    2.65
 -18  -1   8   41.22    3.40
 -18  -1   8   42.00    3.00
  18   1  -8   36.69    4.75
  18   1  -8   48.31    4.82
 -18  -2   8    0.94    1.25
  18   2  -8    1.80    1.77
  18   2  -8    1.35    1.90
 -18   2   7   38.13    3.82
 -18   2   7   37.84    2.52
  18  -2  -7   37.67    2.99
  18  -2  -7   39.94    5.46
 -18   1   7   29.59    3.31
 -18   1   7   29.72    2.63
 -18   1   7   27.95    2.37
  18  -1  -7   27.58    4.24
 -18   0   7   33.23    2.93
 -18   0   7   37.41    2.73
 -18   0   7   39.38    3.55
  18   0  -7   36.36    4.27
 -18  -1   7   26.36    2.33
 -18  -1   7   30.44    2.85
  18   1  -7   28.79    4.03
  18   1  -7   24.54    3.70
 -18  -2   7   34.81    3.11
  18   2  -7   31.26    4.45
  18   2  -7   37.97    4.14
 -18   3   6   -0.91    1.42
  18  -3  -6   -1.27    1.96
 -18   2   6   33.97    2.36
 -18   2   6   41.57    3.83
  18  -2  -6   38.55    2.93
  18  -2  -6   29.65    4.66
 -18   1   6    7.59    1.96
 -18   1   6    5.92    1.44
 -18   1   6    8.05    1.39
  18  -1  -6    2.20    1.99
 -18   0   6   77.39    3.95
 -18   0   6   78.76    4.32
 -18   0   6   74.34    4.76
  18   0  -6   73.94    5.62
 -18  -1   6    3.57    1.07
 -18  -1   6    4.41    1.44
  18   1  -6    4.75    1.90
  18   1  -6    7.50    2.10
  18   1  -6    9.22    2.44
 -18  -2   6   32.92    2.91
  18   2  -6   33.03    4.45
  18   2  -6   31.59    3.54
  18   3  -6    0.42    1.89
  18   3  -6   -0.57    1.16
 -18   3   5   19.85    3.13
  18  -3  -5   22.86    2.60
  18  -3  -5   22.30    2.66
  18  -3  -5   12.61    3.22
 -18   2   5   11.74    2.32
 -18   2   5   11.48    1.42
  18  -2  -5    7.10    1.52
  18  -2  -5    4.28    2.18
 -18   1   5   64.72    3.43
 -18   1   5   63.69    3.68
 -18   1   5   61.32    4.38
  18  -1  -5   61.08    5.40
 -18   0   5   15.57    2.12
 -18   0   5   19.81    2.01
  18   0  -5   17.11    3.06
 -18  -1   5   58.37    3.68
 -18  -1   5   65.06    3.38
  18   1  -5   64.85    4.68
  18   1  -5   53.44    4.70
  18   1  -5   57.14    4.64
 -18  -2   5   10.48    1.83
  18   2  -5    5.47    1.80
  18   2  -5    5.54    2.13
  18   2  -5    6.18    2.23
  18   3  -5   19.87    2.88
  18   3  -5   21.14    3.56
 -18   4   4    0.47    1.49
  18  -4  -4   -0.14    2.24
  18  -4  -4    1.41    1.41
 -18   3   4   10.92    2.37
  18  -3  -4   10.54    1.96
  18  -3  -4    7.46    2.81
  18  -3  -4   10.28    1.96
 -18   2   4    0.76    0.63
 -18   2   4    1.82    1.37
  18  -2  -4    0.28    0.95
  18  -2  -4   -1.25    1.46
 -18   1   4   37.97    3.21
 -18   1   4   42.71    2.92
 -18   1   4   38.04    2.52
  18  -1  -4   36.70    4.19
 -18   0   4    0.51    0.80
 -18   0   4    1.69    1.07
 -18   0   4    0.77    1.10
  18   0  -4    2.30    1.57
  18   0  -4    1.12    1.42
 -18  -1   4   38.09    3.94
 -18  -1   4   38.03    2.97
  18   1  -4   43.17    3.72
  18   1  -4   36.03    3.93
 -18  -2   4    0.94    1.07
  18   2  -4    1.34    1.16
  18   2  -4    4.20    1.83
  18   3  -4   13.92    3.07
  18   3  -4    8.99    1.96
  18   4  -4    4.16    2.18
  18   4  -4    1.88    1.22
 -18   4   3    8.69    2.20
 -18   4   3   11.44    2.60
  18  -4  -3   12.98    2.19
  18  -4  -3   13.48    3.71
 -18   3   3    8.80    2.05
  18  -3  -3    2.78    2.15
  18  -3  -3    3.32    1.28
  18  -3  -3    5.33    1.47
 -18   2   3   62.37    4.36
 -18   2   3   69.66    3.25
  18  -2  -3   71.45    5.83
  18  -2  -3   67.73    3.76
  18  -2  -3   69.09    3.81
 -18   1   3    5.95    1.44
 -18   1   3    5.92    1.12
  18  -1  -3    5.04    2.01
 -18   0   3   71.32    4.33
 -18   0   3   75.31    4.06
 -18   0   3   73.46    3.64
  18   0  -3   79.38    5.56
  18   0  -3   73.20    4.87
 -18  -1   3    6.09    1.68
 -18  -1   3    5.74    1.48
  18   1  -3    5.65    2.01
  18   1  -3    6.99    1.83
 -18  -2   3   68.13    3.66
 -18  -2   3   65.42    4.80
  18   2  -3   69.14    4.42
  18   3  -3    1.83    1.19
 -18  -4   3    8.18    2.59
  18   4  -3   12.43    2.01
 -18   4   2    5.15    1.85
 -18   4   2    9.54    2.29
  18  -4  -2    8.35    2.92
  18  -4  -2    6.44    1.80
  18  -4  -2    2.89    1.58
 -18   3   2    1.09    1.13
 -18   3   2    1.70    1.22
  18  -3  -2    2.06    1.22
  18  -3  -2    2.59    1.98
  18  -3  -2    1.24    1.08
 -18   2   2    9.52    1.92
 -18   2   2   10.14    1.23
  18  -2  -2   11.09    1.68
  18  -2  -2    8.29    2.37
  18  -2  -2    8.46    1.55
 -18   1   2    1.53    0.73
 -18   1   2    0.80    0.95
  18  -1  -2    1.55    1.35
 -18   0   2   12.21    1.59
 -18   0   2   13.48    2.18
 -18   0   2   11.99    1.85
  18   0  -2    9.57    2.29
  18   0  -2   12.38    2.12
 -18  -1   2    1.37    1.03
 -18  -1   2    2.25    1.21
 -18  -1   2    0.64    1.14
  18   1  -2    1.61    1.13
  18   1  -2    0.18    1.28
 -18  -2   2   12.02    1.66
 -18  -2   2   10.88    2.41
  18   2  -2    9.54    1.89
 -18  -3   2    2.85    1.51
  18   3  -2    2.86    1.21
 -18  -4   2    5.69    2.10
  18   4  -2    2.96    1.20
 -18   4   1    9.57    2.27
 -18   4   1    7.68    2.01
  18  -4  -1    6.57    1.73
  18  -4  -1    8.67    1.89
  18  -4  -1    7.99    2.78
 -18   3   1   14.59    2.49
 -18   3   1   15.19    2.54
  18  -3  -1   17.05    3.30
  18  -3  -1   15.74    2.13
  18  -3  -1   17.89    2.31
 -18   2   1   13.34    2.20
 -18   2   1   14.89    1.39
  18  -2  -1   14.44    2.98
  18  -2  -1   10.01    1.63
 -18   1   1   58.34    3.46
 -18   1   1   51.45    2.83
  18  -1  -1   53.36    4.51
 -18   0   1   22.47    2.35
 -18   0   1   27.92    2.05
 -18   0   1   22.95    2.45
  18   0  -1   25.18    3.44
  18   0  -1   21.92    2.84
 -18  -1   1   50.66    2.90
 -18  -1   1   43.85    3.61
 -18  -1   1   55.72    3.25
  18   1  -1   55.52    3.79
  18   1  -1   54.78    4.53
 -18  -2   1   16.42    1.83
 -18  -2   1   12.60    2.49
  18   2  -1   14.07    2.14
 -18  -3   1   13.23    2.77
  18   3  -1   18.15    2.37
 -18  -4   1    7.38    2.46
  18   4  -1    8.20    1.54
 -18   4   0    1.42    1.49
 -18   4   0    3.59    1.90
  18  -4   0    2.07    1.24
  18  -4   0    0.15    1.19
  18  -4   0    1.61    2.01
 -18   3   0    5.46    1.67
 -18   3   0    3.14    1.43
  18  -3   0    3.98    1.33
  18  -3   0    4.59    2.17
  18  -3   0    3.71    1.31
 -18   2   0    0.65    1.03
 -18   2   0    1.01    0.61
  18  -2   0    0.82    1.33
  18  -2   0    0.82    0.90
 -18   1   0   -0.30    0.86
 -18   1   0    0.03    0.56
 -18   1   0   -0.25    0.72
  18  -1   0   -0.20    1.16
 -18   0   0    0.40    0.92
 -18   0   0   -0.15    0.90
 -18   0   0    0.98    0.69
  18   0   0    0.13    1.03
  18   0   0   -0.32    0.87
 -18  -1   0    0.18    0.83
 -18  -1   0    0.16    0.88
 -18  -1   0    0.66    0.64
  18   1   0   -0.39    0.88
  18   1   0   -0.74    1.04
 -18  -2   0    1.02    1.27
 -18  -2   0    0.96    0.82
  18   2   0   -0.20    0.82
 -18  -3   0    3.44    1.58
  18   3   0    4.59    1.32
 -18  -4   0    3.17    1.82
  18   4   0    2.35    1.03
 -18   4  -1    5.10    1.98
 -18   4  -1   10.56    2.32
  18  -4   1    9.20    1.82
  18  -4   1    9.47    1.99
 -18   3  -1   17.59    2.81
  18  -3   1   17.28    3.19
  18  -3   1   17.22    2.26
  18  -3   1   12.21    1.88
 -18   2  -1   12.78    1.31
 -18   2  -1    9.81    2.11
  18  -2   1   14.91    1.82
  18  -2   1   15.08    2.80
 -18   1  -1   54.05    3.69
 -18   1  -1   57.13    3.63
 -18   1  -1   55.13    2.83
 -18   1  -1   56.39    3.46
  18  -1   1   53.28    4.47
 -18   0  -1   25.17    2.53
 -18   0  -1   24.83    1.93
 -18   0  -1   23.11    2.43
 -18   0  -1   27.16    2.45
  18   0   1   27.86    3.23
  18   0   1   22.57    2.57
 -18  -1  -1   52.01    2.84
 -18  -1  -1   51.81    3.15
 -18  -1  -1   51.62    3.79
  18   1   1   46.69    3.48
 -18  -2  -1   12.03    1.61
 -18  -2  -1   10.93    2.27
  18   2   1   10.46    1.84
 -18  -3  -1   20.28    3.20
  18   3   1   13.43    2.02
 -18  -4  -1    7.00    2.27
  18   4   1    7.47    1.60
 -18   4  -2    5.76    2.18
  18  -4   2    6.31    1.82
  18  -4   2    7.26    1.73
 -18   3  -2    0.71    1.25
  18  -3   2    1.55    1.07
  18  -3   2    2.86    1.79
 -18   2  -2   11.88    2.26
 -18   2  -2   12.15    1.32
  18  -2   2   12.66    2.49
  18  -2   2    9.31    1.58
 -18   1  -2    1.57    1.11
 -18   1  -2    0.00    0.81
 -18   1  -2   -0.08    0.87
 -18   1  -2    0.39    0.60
  18  -1   2    1.05    1.18
 -18   0  -2   11.38    1.98
 -18   0  -2   12.41    1.89
 -18   0  -2   11.49    1.46
 -18   0  -2    9.82    1.73
  18   0   2   14.08    2.18
  18   0   2   17.45    2.82
 -18  -1  -2    1.00    0.72
 -18  -1  -2    1.20    0.95
 -18  -1  -2    0.73    0.93
 -18  -1  -2   -1.40    0.85
  18   1   2    3.05    1.28
 -18  -2  -2    8.49    1.45
 -18  -2  -2    6.79    1.98
  18   2   2   11.48    1.96
 -18  -3  -2    2.08    1.49
  18   3   2    1.78    1.09
 -18  -4  -2    7.84    2.36
  18   4   2    6.89    1.51
 -18   4  -3   13.96    3.12
  18  -4   3   12.61    2.13
 -18   3  -3    0.45    1.43
  18  -3   3    7.86    1.57
 -18   2  -3   66.73    4.75
 -18   2  -3   66.40    2.95
  18  -2   3   71.15    3.70
  18  -2   3   63.08    4.77
 -18   1  -3    4.61    1.42
 -18   1  -3    4.40    1.46
 -18   1  -3    3.97    0.93
 -18   1  -3    4.37    1.32
  18  -1   3    3.91    1.53
 -18   0  -3   68.29    3.88
 -18   0  -3   66.43    4.19
 -18   0  -3   70.08    4.18
 -18   0  -3   67.57    3.31
 -18  -1  -3    5.54    1.34
 -18  -1  -3    4.41    1.54
 -18  -1  -3    3.35    1.26
 -18  -1  -3    6.92    1.17
  18   1   3    4.95    1.48
 -18  -2  -3   57.74    3.92
 -18  -2  -3   65.40    3.57
 -18  -2  -3   63.91    4.51
  18   2   3   59.24    3.95
 -18  -3  -3    1.56    1.34
  18   3   3    5.66    1.45
 -18  -4  -3   15.51    3.06
  18   4   3   11.42    1.95
 -18   4  -4    0.82    1.76
  18  -4   4    1.94    1.35
 -18   3  -4    7.61    2.16
  18  -3   4   11.68    1.92
 -18   2  -4    1.54    0.65
 -18   2  -4    0.21    1.08
  18  -2   4    1.35    1.00
 -18   1  -4   40.76    2.34
 -18   1  -4   36.53    3.10
 -18   1  -4   38.13    3.45
 -18   1  -4   37.72    3.11
  18  -1   4   33.06    3.46
 -18   0  -4    3.60    1.32
 -18   0  -4    2.28    1.18
 -18   0  -4    1.90    1.11
 -18   0  -4    1.97    0.82
 -18  -1  -4   40.10    2.49
 -18  -1  -4   33.67    3.16
 -18  -1  -4   38.95    2.91
 -18  -1  -4   38.87    3.37
  18   1   4   34.29    3.18
 -18  -2  -4    0.51    1.15
 -18  -2  -4   -0.02    0.88
 -18  -2  -4    2.41    1.25
  18   2   4    0.97    0.95
 -18  -3  -4   13.50    2.84
 -18  -3  -4    9.57    2.09
  18   3   4    7.89    1.74
 -18  -4  -4   -0.95    1.62
  18   4   4    1.87    1.15
 -18   3  -5   22.86    3.64
  18  -3   5   20.29    2.44
 -18   2  -5   10.10    2.28
  18  -2   5   12.63    1.76
 -18   1  -5   66.98    4.12
 -18   1  -5   59.74    4.52
 -18   1  -5   60.33    4.16
 -18   1  -5   62.84    3.15
 -18   0  -5   14.08    2.16
 -18   0  -5   12.07    2.20
 -18   0  -5   11.91    1.51
 -18   0  -5   13.70    2.19
 -18  -1  -5   53.36    3.56
 -18  -1  -5   57.80    4.15
 -18  -1  -5   53.69    4.10
 -18  -1  -5   58.65    3.12
  18   1   5   56.29    4.00
 -18  -2  -5    7.58    2.00
 -18  -2  -5    5.99    1.78
  18   2   5   12.11    2.22
 -18  -3  -5   21.45    3.13
 -18  -3  -5   21.55    3.26
  18   3   5   21.27    2.78
 -18   3  -6   -0.80    1.44
  18  -3   6   -0.55    1.10
 -18   2  -6   43.01    4.23
 -18   2  -6   28.73    4.46
  18  -2   6   31.57    2.68
 -18   1  -6    8.28    2.03
 -18   1  -6    6.20    1.93
 -18   1  -6    6.29    1.15
 -18   0  -6   65.44    4.16
 -18   0  -6   65.58    3.39
 -18   0  -6   65.99    4.53
 -18   0  -6   60.18    4.65
 -18  -1  -6    6.25    1.65
 -18  -1  -6    6.88    1.89
 -18  -1  -6    8.72    2.13
 -18  -1  -6    9.15    1.48
 -18  -2  -6   30.29    3.41
 -18  -2  -6   33.41    3.84
 -18  -2  -6   26.75    2.85
  18   2   6   31.89    3.14
 -18  -3  -6   -1.21    1.13
 -18  -3  -6   -0.10    1.40
  18   3   6    0.72    1.10
 -18   2  -7   34.13    4.38
 -18   2  -7   35.81    3.53
  18  -2   7   30.66    3.08
 -18   1  -7   24.89    2.05
 -18   1  -7   22.55    3.41
 -18   1  -7   24.19    3.25
 -18   0  -7   32.28    3.22
 -18   0  -7   36.47    4.15
 -18   0  -7   33.37    3.41
 -18   0  -7   24.88    2.18
 -18  -1  -7   21.70    2.71
 -18  -1  -7   25.21    3.39
 -18  -1  -7   22.10    2.12
 -18  -1  -7   18.56    3.04
 -18  -2  -7   32.59    3.96
 -18  -2  -7   33.28    3.25
 -18  -2  -7   40.22    3.88
  18   2   7   31.03    3.36
 -18   2  -8    0.03    1.51
 -18   2  -8    3.69    2.09
 -18   1  -8   46.16    3.97
 -18   1  -8   38.81    4.82
 -18   1  -8   41.28    2.65
 -18   0  -8    8.60    2.27
 -18   0  -8    9.59    2.53
 -18   0  -8    9.03    1.44
 -18   0  -8    8.60    2.04
 -18  -1  -8   42.19    2.89
 -18  -1  -8   40.13    3.68
 -18  -1  -8   36.91    3.89
 -18  -1  -8   42.52    4.41
 -18  -2  -8    1.94    1.12
 -18  -2  -8    3.40    1.58
 -18  -2  -8    0.87    1.63
 -18  -2  -8    0.27    1.65
 -18   0  -9   39.67    5.00
 -18   0  -9   44.07    4.26
 -18   0  -9   35.54    4.40
 -19   1   8    5.36    1.55
  19  -1  -8    7.65    2.89
 -19   0   8   -0.24    1.06
 -19   0   8    0.11    1.32
  19   0  -8   -0.09    1.74
 -19  -1   8    5.22    1.33
 -19  -1   8    6.56    1.77
 -19   2   7   12.14    2.54
 -19   2   7   11.64    1.63
  19  -2  -7    9.74    3.28
  19  -2  -7    7.73    1.62
 -19   1   7    7.29    1.43
 -19   1   7    5.92    1.54
 -19   1   7   12.30    2.43
  19  -1  -7    9.59    2.96
 -19   0   7   -0.15    1.02
 -19   0   7   -0.40    0.76
  19   0  -7    0.65    1.56
 -19  -1   7    8.11    1.54
 -19  -1   7    5.38    1.61
  19   1  -7    3.94    1.92
  19   1  -7    9.78    2.48
 -19  -2   7    9.47    1.92
  19   2  -7    3.91    1.84
  19   2  -7    9.30    2.88
 -19   3   6    5.22    2.23
  19  -3  -6    4.43    2.63
 -19   2   6   12.89    2.68
 -19   2   6   11.54    1.55
  19  -2  -6    9.25    1.75
  19  -2  -6   13.61    3.27
 -19   1   6    1.55    0.96
 -19   1   6    0.20    0.99
 -19   1   6    1.18    1.30
  19  -1  -6    2.65    2.13
 -19   0   6    0.28    0.88
 -19   0   6   -0.80    0.96
  19   0  -6    0.85    1.50
 -19  -1   6    2.36    1.00
 -19  -1   6   -0.30    1.08
  19   1  -6    3.65    1.87
  19   1  -6    1.09    1.64
  19   1  -6    0.35    1.50
 -19  -2   6   11.24    2.02
  19   2  -6   14.51    3.22
  19   2  -6    9.82    2.44
  19   3  -6    2.79    1.59
 -19   3   5    7.84    2.38
  19  -3  -5    1.67    1.35
  19  -3  -5    2.22    2.32
 -19   2   5    9.16    1.34
 -19   2   5    7.64    2.16
  19  -2  -5   11.36    1.80
  19  -2  -5   12.87    3.33
 -19   1   5   -0.48    0.91
 -19   1   5    0.40    0.80
  19  -1  -5    0.05    1.76
 -19   0   5   -0.47    0.99
 -19   0   5    0.02    0.78
  19   0  -5    1.46    1.55
 -19  -1   5    1.39    0.89
 -19  -1   5   -0.21    1.07
  19   1  -5   -0.64    1.23
  19   1  -5    1.07    1.63
  19   1  -5    0.77    1.43
 -19  -2   5   12.14    2.03
  19   2  -5   10.10    2.75
  19   2  -5    8.90    2.14
  19   3  -5    2.33    2.15
  19   3  -5    4.88    1.79
 -19   3   4   12.01    2.49
  19  -3  -4    8.59    2.77
  19  -3  -4   12.22    2.13
  19  -3  -4   12.61    2.06
 -19   2   4    5.04    1.05
 -19   2   4    3.07    1.55
  19  -2  -4    3.72    2.00
  19  -2  -4    2.70    1.21
 -19   1   4    2.69    1.16
 -19   1   4    3.22    0.97
  19  -1  -4    2.38    1.73
 -19   0   4    0.57    0.73
 -19   0   4   -0.88    0.88
  19   0  -4    0.66    1.41
 -19  -1   4    6.07    1.52
 -19  -1   4   -0.29    1.07
 -19  -1   4    2.17    1.19
  19   1  -4    5.42    1.90
  19   1  -4    1.92    1.62
 -19  -2   4    4.01    1.38
  19   2  -4    6.95    2.32
  19   2  -4    4.59    1.61
  19   3  -4   14.46    3.18
  19   3  -4   12.40    2.29
 -19   3   3   28.99    3.25
  19  -3  -3   24.96    2.85
  19  -3  -3   18.34    2.42
  19  -3  -3   20.63    3.85
 -19   2   3    5.43    2.49
 -19   2   3    5.47    1.02
  19  -2  -3    2.45    2.03
  19  -2  -3    4.79    1.26
 -19   1   3    1.11    0.83
 -19   1   3    2.00    1.08
  19  -1  -3    0.88    1.51
 -19   0   3   -0.03    0.87
 -19   0   3    1.12    0.76
 -19   0   3    0.19    1.01
  19   0  -3   -0.44    1.37
 -19  -1   3    2.94    1.25
 -19  -1   3    1.47    1.28
  19   1  -3    1.73    1.60
  19   1  -3    0.46    1.18
 -19  -2   3    4.20    1.34
 -19  -2   3    5.29    1.88
  19   2  -3    2.62    1.38
 -19  -3   3   22.13    3.53
  19   3  -3   22.03    2.79
 -19   4   2    2.09    1.61
  19  -4  -2    5.55    2.68
  19  -4  -2    3.73    1.56
 -19   3   2    3.12    1.62
  19  -3  -2    4.36    1.50
  19  -3  -2    2.78    1.30
  19  -3  -2    4.97    2.26
 -19   2   2    4.04    0.92
  19  -2  -2    4.63    1.35
  19  -2  -2    7.04    2.56
 -19   1   2   -0.49    0.89
 -19   1   2    1.30    0.75
  19  -1  -2    1.89    1.50
 -19   0   2   -0.19    0.86
 -19   0   2   -0.02    0.66
 -19   0   2   -0.52    0.93
  19   0  -2    0.28    1.23
  19   0  -2   -1.37    1.12
 -19  -1   2    0.68    0.97
 -19  -1   2   -0.02    1.13
 -19  -1   2    0.98    1.05
  19   1  -2    0.46    1.35
  19   1  -2    0.43    1.08
 -19  -2   2    4.31    1.23
 -19  -2   2    3.37    1.75
  19   2  -2    6.37    1.67
 -19  -3   2    4.31    1.99
  19   3  -2    1.78    1.11
 -19  -4   2    0.84    1.68
  19   4  -2    4.46    1.43
 -19   4   1   16.57    3.11
 -19   4   1   15.09    2.78
  19  -4  -1   13.46    2.28
  19  -4  -1   16.32    3.79
 -19   3   1    5.00    1.69
  19  -3  -1    0.79    1.88
  19  -3  -1    3.82    1.36
  19  -3  -1    2.36    1.24
 -19   2   1    7.04    1.08
  19  -2  -1    9.75    1.56
  19  -2  -1    9.54    2.65
 -19   1   1   -0.10    0.62
 -19   1   1    0.07    0.90
  19  -1  -1    0.14    1.31
 -19   0   1   -0.40    0.89
 -19   0   1    0.27    0.95
 -19   0   1    0.93    0.66
  19   0  -1    1.08    1.28
  19   0  -1    0.13    1.05
 -19  -1   1   -0.37    1.11
 -19  -1   1   -1.26    0.51
 -19  -1   1    0.09    0.95
  19   1  -1    0.97    1.01
  19   1  -1    0.95    1.39
 -19  -2   1    6.38    1.41
 -19  -2   1    7.55    2.19
  19   2  -1    7.58    1.74
 -19  -3   1    3.32    1.76
  19   3  -1    1.94    1.10
 -19  -4   1   15.62    3.31
  19   4  -1   11.85    1.95
 -19   4   0    2.27    1.61
 -19   4   0    1.14    1.61
  19  -4   0    1.63    1.40
  19  -4   0    0.55    2.02
 -19   3   0    4.22    1.64
  19  -3   0    2.74    2.01
  19  -3   0    4.57    1.41
  19  -3   0    5.19    1.43
 -19   2   0   -1.18    0.80
 -19   2   0   -0.60    0.51
  19  -2   0    0.48    0.88
  19  -2   0    0.74    1.45
 -19   1   0    3.70    1.28
 -19   1   0    3.67    0.93
  19  -1   0    3.90    1.82
 -19   0   0    0.13    0.98
 -19   0   0    0.01    0.66
 -19   0   0    0.14    0.96
  19   0   0    0.35    1.12
  19   0   0    2.69    1.45
 -19  -1   0    2.75    1.32
 -19  -1   0    2.23    0.94
 -19  -1   0    1.93    1.08
  19   1   0    2.88    1.57
  19   1   0    5.34    1.59
 -19  -2   0    0.55    0.87
 -19  -2   0    0.14    1.15
  19   2   0    0.14    0.87
 -19  -3   0    1.66    1.47
  19   3   0    4.39    1.37
 -19  -4   0    0.37    1.72
  19   4   0    0.44    0.90
 -19   4  -1   16.69    3.27
  19  -4   1   15.15    2.32
 -19   3  -1    1.05    1.31
  19  -3   1    0.71    1.63
  19  -3   1    5.17    1.47
 -19   2  -1   10.75    1.24
 -19   2  -1    7.70    1.93
  19  -2   1    9.14    2.41
  19  -2   1    7.85    1.51
 -19   1  -1    0.38    0.63
 -19   1  -1    0.28    0.83
 -19   1  -1   -0.38    0.90
  19  -1   1    0.76    1.36
 -19   0  -1   -0.49    0.88
 -19   0  -1    0.41    0.98
 -19   0  -1    0.85    0.73
  19   0   1    0.19    1.19
  19   0   1   -1.23    1.27
 -19  -1  -1   -0.23    0.97
 -19  -1  -1    0.10    0.88
 -19  -1  -1    0.14    0.63
  19   1   1    0.46    1.04
 -19  -2  -1    7.56    1.39
 -19  -2  -1   10.13    2.31
  19   2   1    6.25    1.60
 -19  -3  -1    2.52    1.80
  19   3   1    4.32    1.42
 -19  -4  -1    8.34    2.63
  19   4   1   12.37    1.96
 -19   4  -2    3.11    1.74
  19  -4   2    2.12    1.40
 -19   3  -2    1.85    1.47
  19  -3   2    3.81    1.33
  19  -3   2    1.05    1.74
 -19   2  -2    6.40    1.01
 -19   2  -2    5.72    1.72
  19  -2   2    5.62    1.97
  19  -2   2    4.88    1.32
 -19   1  -2    1.04    1.03
 -19   1  -2    0.37    1.04
 -19   1  -2   -0.19    0.77
 -19   1  -2   -0.04    0.61
  19  -1   2    1.73    1.38
 -19   0  -2    0.55    0.87
 -19   0  -2    0.32    0.67
 -19   0  -2    0.73    1.02
 -19   0  -2    0.24    0.89
  19   0   2    0.09    1.14
 -19  -1  -2    0.29    0.68
 -19  -1  -2    0.16    0.95
 -19  -1  -2   -0.39    1.10
  19   1   2    0.04    0.95
 -19  -2  -2    4.06    1.24
 -19  -2  -2    5.30    1.80
  19   2   2    5.05    1.47
 -19  -3  -2    5.33    1.97
  19   3   2    3.51    1.30
 -19  -4  -2    4.07    2.15
  19   4   2    5.14    1.40
 -19   3  -3   25.44    3.77
  19  -3   3   23.52    2.61
 -19   2  -3    2.95    0.78
 -19   2  -3    2.26    1.40
  19  -2   3    4.09    1.31
  19  -2   3    2.67    1.57
 -19   1  -3    2.91    1.21
 -19   1  -3    2.35    1.24
 -19   1  -3    2.04    0.76
 -19   1  -3    1.38    1.16
  19  -1   3    0.53    1.22
 -19   0  -3   -1.06    0.90
 -19   0  -3   -0.64    0.81
 -19   0  -3   -0.03    0.93
 -19   0  -3    0.35    0.64
 -19  -1  -3    1.89    1.23
 -19  -1  -3    3.86    1.00
 -19  -1  -3    0.47    1.07
 -19  -1  -3    1.28    1.09
  19   1   3    0.51    1.04
 -19  -2  -3    3.19    1.20
 -19  -2  -3    3.05    1.54
  19   2   3    4.86    1.59
 -19  -3  -3   18.86    3.19
  19   3   3   21.87    2.78
 -19   3  -4    9.76    2.50
  19  -3   4   15.35    2.17
 -19   2  -4    3.29    1.55
  19  -2   4    5.54    1.33
 -19   1  -4    2.23    1.32
 -19   1  -4    3.13    0.90
 -19   1  -4    1.69    1.29
 -19   1  -4    3.09    1.40
  19  -1   4    3.00    1.58
 -19   0  -4   -0.57    0.87
 -19   0  -4   -0.21    0.96
 -19   0  -4    1.28    1.19
 -19   0  -4   -0.51    0.60
 -19  -1  -4    1.32    0.81
 -19  -1  -4    3.51    1.49
 -19  -1  -4    3.10    1.34
 -19  -1  -4    1.53    1.11
  19   1   4    2.18    1.29
 -19  -2  -4    4.91    1.39
 -19  -2  -4    2.72    1.47
 -19  -2  -4    3.26    1.43
  19   2   4    4.72    1.43
 -19  -3  -4   14.33    2.83
  19   3   4   14.47    2.31
 -19   3  -5    4.32    2.00
  19  -3   5    7.98    1.80
 -19   2  -5    8.91    2.23
  19  -2   5   10.45    1.70
 -19   1  -5    1.55    1.26
 -19   1  -5    0.57    1.30
 -19   1  -5    0.35    0.68
 -19   1  -5    1.00    1.24
 -19   0  -5    0.03    0.95
 -19   0  -5   -0.91    1.01
 -19   0  -5   -1.08    0.93
 -19   0  -5    0.21    0.74
 -19  -1  -5   -0.43    1.06
 -19  -1  -5    0.23    1.04
 -19  -1  -5   -0.20    0.68
 -19  -1  -5    0.72    1.20
  19   1   5    0.82    1.11
 -19  -2  -5    9.57    1.88
 -19  -2  -5   10.61    2.35
 -19  -2  -5   11.68    2.22
  19   2   5    5.72    1.78
 -19  -3  -5    2.83    1.69
 -19  -3  -5    7.25    2.28
  19   3   5    5.14    1.64
 -19   3  -6    3.07    1.97
  19  -3   6    2.94    1.46
 -19   2  -6    8.32    2.39
 -19   1  -6    0.50    1.14
 -19   1  -6    1.77    1.48
 -19   1  -6    1.55    0.82
 -19   0  -6   -0.73    0.70
 -19   0  -6   -0.70    1.20
 -19   0  -6   -0.32    1.13
 -19   0  -6    0.40    1.20
 -19  -1  -6    0.45    1.14
 -19  -1  -6    1.50    1.27
 -19  -1  -6    1.37    0.86
 -19  -1  -6    2.51    1.57
 -19  -2  -6    8.52    2.20
 -19  -2  -6   11.12    2.33
 -19  -2  -6   12.54    2.15
  19   2   6   11.85    2.28
 -19  -3  -6    1.96    1.73
 -19  -3  -6    2.59    1.92
 -19   2  -7    8.98    2.62
 -19   1  -7   10.10    1.46
 -19   1  -7   10.97    2.45
 -19   1  -7    7.57    2.38
 -19   0  -7    0.36    0.77
 -19   0  -7    0.21    1.30
 -19   0  -7    0.35    1.44
 -19   0  -7   -0.29    1.21
 -19  -1  -7    9.09    2.33
 -19  -1  -7    5.81    1.33
 -19  -1  -7    6.40    2.18
 -19  -1  -7    7.30    1.89
 -19  -2  -7    5.87    2.04
 -19  -2  -7    5.69    1.94
 -19  -2  -7    4.45    1.66
  19   2   7    6.39    1.97
 -19   1  -8    7.18    2.25
 -19   1  -8    8.53    1.47
 -19   1  -8    2.25    1.79
 -19   0  -8   -2.70    1.16
 -19   0  -8   -0.45    1.15
 -19   0  -8   -1.06    1.29
 -19  -1  -8    4.78    1.88
 -19  -1  -8    6.27    2.18
 -19  -1  -8    4.24    2.08
 -20   1   7   15.77    2.84
 -20   1   7   16.95    2.28
  20  -1  -7   19.04    3.97
 -20   0   7   41.96    3.34
 -20   0   7   33.88    3.20
  20   0  -7   34.53    4.65
 -20  -1   7   16.02    2.04
 -20  -1   7   15.09    2.26
  20   1  -7   20.44    3.49
  20   1  -7   11.41    2.98
 -20   2   6    7.36    2.11
 -20   2   6    6.59    1.28
  20  -2  -6    4.83    1.43
  20  -2  -6    4.75    2.74
 -20   1   6    0.41    1.08
 -20   1   6    0.71    0.93
  20  -1  -6    3.03    2.21
 -20   0   6    4.38    1.28
 -20   0   6    0.70    1.26
  20   0  -6    3.65    2.08
 -20  -1   6   -0.31    1.14
 -20  -1   6   -0.46    0.80
  20   1  -6    2.84    1.99
  20   1  -6   -0.20    1.37
  20   1  -6    0.53    1.58
 -20  -2   6    4.20    1.55
  20   2  -6    4.90    2.00
  20   2  -6    4.86    2.24
 -20   3   5    9.00    2.32
  20  -3  -5   12.69    3.61
 -20   2   5   11.18    1.50
 -20   2   5   11.12    2.53
  20  -2  -5    8.94    3.00
  20  -2  -5   12.39    1.86
 -20   1   5   58.21    3.34
 -20   1   5   57.66    3.66
  20  -1  -5   56.52    5.40
 -20   0   5   11.46    2.01
 -20   0   5   13.49    1.75
  20   0  -5   13.57    3.12
 -20  -1   5   57.73    3.39
 -20  -1   5   58.58    3.90
  20   1  -5   55.13    4.71
  20   1  -5   56.75    5.15
  20   1  -5   55.98    4.85
 -20  -2   5    9.96    2.02
  20   2  -5   13.18    2.72
  20   2  -5   15.50    3.32
  20   3  -5    8.29    2.15
 -20   3   4   10.88    2.61
  20  -3  -4   10.52    2.08
  20  -3  -4   17.10    3.69
 -20   2   4    1.54    0.83
  20  -2  -4    3.97    2.22
  20  -2  -4    1.86    1.10
 -20   1   4   54.22    3.18
 -20   1   4   58.92    3.63
  20  -1  -4   50.63    5.06
 -20   0   4    1.48    0.89
 -20   0   4    0.65    1.14
  20   0  -4    0.72    1.66
 -20  -1   4   63.61    3.63
 -20  -1   4   48.26    4.18
 -20  -1   4   59.28    3.86
  20   1  -4   59.34    4.70
  20   1  -4   51.09    4.90
 -20  -2   4    1.41    1.39
 -20  -2   4   -0.67    1.06
  20   2  -4    1.68    1.39
 -20  -3   4    7.87    2.49
  20   3  -4   12.83    2.37
 -20   3   3    2.44    1.72
  20  -3  -3    2.17    2.23
  20  -3  -3    3.74    1.55
  20  -3  -3    1.04    1.32
 -20   2   3   35.07    2.33
  20  -2  -3   37.95    4.62
 -20   1   3    0.84    1.06
 -20   1   3    3.27    1.07
  20  -1  -3    3.22    2.07
 -20   0   3   37.85    3.07
 -20   0   3   34.27    2.57
  20   0  -3   32.90    4.42
 -20  -1   3    2.80    1.25
 -20  -1   3    3.06    1.46
 -20  -1   3    2.12    1.31
  20   1  -3    3.27    1.86
  20   1  -3    1.05    1.46
 -20  -2   3   34.43    2.98
 -20  -2   3   31.57    4.06
  20   2  -3   31.69    3.35
 -20  -3   3    1.18    1.83
  20   3  -3    3.30    1.48
  20  -3  -2    4.57    1.50
  20  -3  -2    4.79    1.53
  20  -3  -2    4.21    2.53
 -20   2   2   78.76    3.56
  20  -2  -2   69.55    5.96
 -20   1   2    3.62    1.34
 -20   1   2    3.34    1.01
  20  -1  -2    3.32    1.90
 -20   0   2   78.98    4.00
 -20   0   2   80.91    4.48
 -20   0   2   81.13    4.80
  20   0  -2   83.78    5.95
 -20  -1   2    3.06    1.06
 -20  -1   2    1.39    1.31
 -20  -1   2    2.66    1.30
  20   1  -2    1.72    1.49
  20   1  -2    2.44    1.27
 -20  -2   2   65.31    4.99
  20   2  -2   69.06    4.53
 -20  -3   2    5.41    1.96
  20   3  -2    2.97    1.41
 -20   3   1   11.50    2.38
  20  -3  -1   10.77    1.92
  20  -3  -1    8.97    1.77
  20  -3  -1   11.16    3.11
 -20   2   1    4.02    0.93
  20  -2  -1    5.14    2.18
 -20   1   1   13.75    1.65
 -20   1   1   16.11    2.15
  20  -1  -1   14.74    2.93
 -20   0   1    3.62    1.49
 -20   0   1    4.61    1.13
 -20   0   1    4.82    1.45
  20   0  -1    6.41    2.19
 -20  -1   1   12.68    2.40
 -20  -1   1   13.30    1.79
 -20  -1   1   15.10    2.13
  20   1  -1   13.72    2.41
  20   1  -1   14.07    2.98
 -20  -2   1    5.58    1.95
 -20  -2   1    3.45    1.17
  20   2  -1    6.82    1.79
 -20  -3   1   11.85    2.73
  20   3  -1    7.43    1.76
 -20   3   0   29.33    3.54
  20  -3   0   28.82    2.87
  20  -3   0   24.65    4.05
 -20   2   0   -0.03    1.11
 -20   2   0    2.71    0.82
  20  -2   0    1.84    1.62
 -20   1   0  104.16    5.04
 -20   1   0   94.93    4.36
  20  -1   0   95.67    6.44
 -20   0   0   21.50    1.97
 -20   0   0   18.56    2.42
 -20   0   0   20.26    2.69
  20   0   0   24.37    3.64
 -20  -1   0   87.06    5.27
 -20  -1   0   84.68    4.21
 -20  -1   0   95.04    4.66
  20   1   0   90.02    5.30
  20   1   0   90.98    6.10
 -20  -2   0    2.92    1.18
 -20  -2   0    2.97    1.69
  20   2   0    3.44    1.40
 -20  -3   0   26.33    3.74
  20   3   0   28.67    2.79
 -20   3  -1    8.15    2.15
  20  -3   1   11.12    1.92
  20  -3   1   14.26    3.15
 -20   2  -1    5.32    1.00
 -20   2  -1    8.39    2.03
  20  -2   1    5.90    2.12
 -20   1  -1   11.77    1.47
 -20   1  -1   13.74    2.07
 -20   1  -1    8.97    1.86
  20  -1   1   14.21    2.87
 -20   0  -1    2.64    0.93
 -20   0  -1    4.42    1.48
 -20   0  -1    7.12    1.81
  20   0   1    5.71    2.00
 -20  -1  -1   11.04    1.83
 -20  -1  -1   12.69    1.71
 -20  -1  -1   11.23    2.24
  20   1   1   14.44    2.38
 -20  -2  -1    5.13    1.79
 -20  -2  -1    4.41    1.33
  20   2   1    2.46    1.24
 -20  -3  -1    9.97    2.55
  20   3   1   10.95    1.99
 -20   3  -2    3.91    1.75
  20  -3   2    4.74    1.58
 -20   2  -2   70.02    4.93
 -20   2  -2   79.17    3.45
  20  -2   2   74.91    5.68
 -20   1  -2    1.89    1.20
 -20   1  -2    1.03    1.12
 -20   1  -2    1.05    0.77
  20  -1   2    2.30    1.64
 -20   0  -2   81.88    4.72
 -20   0  -2   79.06    4.61
 -20   0  -2   80.86    3.95
 -20   0  -2   82.57    4.85
  20   0   2   85.13    5.84
 -20  -1  -2    1.99    0.98
 -20  -1  -2    2.16    1.14
 -20  -1  -2    2.00    1.38
  20   1   2    2.16    1.23
 -20  -2  -2   74.66    4.00
 -20  -2  -2   66.87    5.02
  20   2   2   66.46    4.48
 -20  -3  -2    2.41    1.72
  20   3   2    4.22    1.53
 -20   3  -3    5.55    2.08
  20  -3   3    1.74    1.28
 -20   2  -3   28.08    3.43
 -20   2  -3   34.01    2.08
  20  -2   3   31.04    3.80
 -20   1  -3    3.83    1.42
 -20   1  -3    4.78    1.06
 -20   1  -3    4.21    1.45
 -20   1  -3    5.22    1.59
  20  -1   3    4.30    1.72
 -20   0  -3   32.19    2.37
 -20   0  -3   35.63    3.22
 -20   0  -3   30.42    3.07
 -20   0  -3   35.29    3.10
 -20  -1  -3    3.78    1.09
 -20  -1  -3    3.17    1.32
 -20  -1  -3    3.70    1.45
 -20  -1  -3    1.55    1.43
  20   1   3    4.88    1.64
 -20  -2  -3   33.76    2.83
 -20  -2  -3   27.70    3.69
  20   2   3   30.60    3.10
 -20  -3  -3    3.06    1.94
  20   3   3    0.13    1.03
 -20   3  -4   13.02    2.98
  20  -3   4   11.62    2.02
 -20   2  -4    0.65    1.38
 -20   1  -4   51.99    3.88
 -20   1  -4   52.36    3.73
 -20   1  -4   51.07    4.19
 -20   1  -4   51.40    2.88
  20  -1   4   53.46    4.46
 -20   0  -4    4.35    1.15
 -20   0  -4    4.39    1.57
 -20   0  -4    3.24    1.44
 -20   0  -4    4.27    1.61
 -20  -1  -4   52.15    4.02
 -20  -1  -4   53.10    3.64
 -20  -1  -4   50.28    3.05
 -20  -1  -4   47.36    3.98
  20   1   4   50.49    4.05
 -20  -2  -4   -0.12    1.10
 -20  -2  -4    0.54    1.08
 -20  -2  -4    4.03    1.76
  20   2   4   -0.48    0.92
 -20  -3  -4    8.31    2.51
  20   3   4   10.36    2.14
 -20   3  -5    5.48    2.20
  20  -3   5    9.74    1.91
 -20   2  -5    9.45    2.47
 -20   1  -5   53.89    4.51
 -20   1  -5   58.71    3.16
 -20   1  -5   59.41    4.32
 -20   0  -5   14.41    2.23
 -20   0  -5   11.75    1.79
 -20   0  -5   14.44    2.54
 -20   0  -5   11.21    2.34
 -20  -1  -5   49.76    4.07
 -20  -1  -5   47.57    3.69
 -20  -1  -5   57.71    3.25
 -20  -1  -5   57.98    4.43
 -20  -2  -5   10.72    1.98
 -20  -2  -5    7.55    2.11
 -20  -2  -5    9.93    2.14
  20   2   5    6.90    1.94
 -20  -3  -5    8.84    2.53
 -20  -3  -5    7.31    2.09
 -20   2  -6    5.66    2.18
 -20   1  -6    0.95    1.33
 -20   1  -6    1.04    1.40
 -20   1  -6    0.80    0.84
 -20   0  -6    5.49    1.70
 -20   0  -6    1.71    1.51
 -20   0  -6    3.50    1.72
 -20   0  -6    1.83    1.02
 -20  -1  -6    0.37    1.25
 -20  -1  -6    0.62    0.85
 -20  -1  -6    1.56    1.58
 -20  -1  -6    1.34    1.36
 -20  -2  -6    1.01    1.44
 -20  -2  -6    3.94    1.60
 -20  -2  -6    4.80    1.96
  20   2   6    5.74    1.91
 -20   1  -7   20.36    3.23
 -20   1  -7   14.89    3.01
 -20   1  -7   16.29    1.91
 -20   0  -7   33.05    3.47
 -20   0  -7   31.40    4.03
 -20   0  -7   29.28    3.75
 -20  -1  -7   14.48    2.57
 -20  -1  -7   15.70    3.07
 -20  -1  -7   13.49    2.85
 -21   0   7   -0.02    1.17
  21   0  -7   -0.89    1.62
 -21   1   6    0.89    1.20
  21  -1  -6    2.78    2.39
 -21   0   6   -0.58    0.80
 -21   0   6    1.32    1.18
  21   0  -6   -0.90    1.69
 -21  -1   6    1.04    1.33
 -21  -1   6    2.82    1.14
  21   1  -6    1.46    1.96
  21   1  -6    2.98    1.93
  21   1  -6    1.52    1.96
 -21   2   5    1.12    0.85
  21  -2  -5    0.24    2.07
 -21   1   5    0.64    0.88
 -21   1   5    1.39    1.16
  21  -1  -5    0.69    1.91
 -21   0   5   -0.75    0.77
 -21   0   5   -0.12    1.09
  21   0  -5   -0.02    1.63
 -21  -1   5    2.09    1.54
 -21  -1   5    1.86    1.01
 -21  -1   5    1.59    1.33
  21   1  -5    0.94    1.49
  21   1  -5    2.35    1.91
 -21  -2   5   -1.11    1.12
  21   2  -5    0.62    1.55
 -21   2   4   16.01    1.75
  21  -2  -4   12.18    3.14
 -21   1   4    1.25    1.14
 -21   1   4    1.81    0.96
  21  -1  -4   -0.86    1.50
 -21   0   4    0.10    0.83
 -21   0   4   -0.80    0.99
  21   0  -4    0.15    1.72
 -21  -1   4    1.60    1.49
 -21  -1   4    1.33    0.97
 -21  -1   4    0.42    1.13
  21   1  -4   -0.67    1.31
  21   1  -4    0.26    1.52
 -21  -2   4   17.22    2.56
 -21  -2   4   18.24    3.29
  21   2  -4   17.47    2.92
  21  -3  -3    4.34    2.22
  21  -3  -3    2.08    2.33
 -21   2   3    5.31    1.11
  21  -2  -3    4.95    2.48
 -21   1   3    2.53    1.25
 -21   1   3    1.00    0.84
  21  -1  -3    1.92    1.86
 -21   0   3   -0.30    1.06
 -21   0   3   -0.47    0.71
  21   0  -3   -0.18    1.39
 -21  -1   3    1.67    1.47
 -21  -1   3    2.24    1.32
 -21  -1   3    1.59    0.92
  21   1  -3    2.98    1.94
  21   1  -3    1.50    1.40
 -21  -2   3    4.56    1.59
 -21  -2   3    4.69    2.03
  21   2  -3    3.16    1.58
 -21  -3   3    2.61    1.89
  21   3  -3    5.51    1.81
  21  -3  -2   20.78    4.09
  21  -3  -2   20.81    2.54
 -21   2   2    1.56    0.79
  21  -2  -2    0.37    1.87
 -21   1   2    7.69    1.73
 -21   1   2    7.05    1.29
  21  -1  -2    8.43    2.52
 -21   0   2    0.36    1.03
 -21   0   2    0.54    0.80
  21   0  -2    0.39    1.49
 -21  -1   2    4.85    1.25
 -21  -1   2    5.33    1.85
 -21  -1   2    8.69    1.84
  21   1  -2    5.69    2.25
  21   1  -2    4.86    1.75
 -21  -2   2    2.69    1.31
 -21  -2   2    3.17    1.84
  21   2  -2    0.71    1.26
 -21  -3   2   20.48    3.64
  21   3  -2   20.68    2.79
  21  -3  -1   13.59    2.17
  21  -3  -1   12.82    3.20
 -21   2   1   11.81    1.45
  21  -2  -1   13.05    3.07
 -21   1   1    7.45    1.30
 -21   1   1    9.71    1.80
  21  -1  -1    5.33    2.18
 -21   0   1    0.74    0.80
 -21   0   1    0.95    1.18
 -21   0   1    0.58    1.13
  21   0  -1    0.53    1.45
 -21  -1   1    9.85    2.24
 -21  -1   1    6.42    1.64
 -21  -1   1    6.74    1.43
  21   1  -1    7.06    2.00
  21   1  -1    8.21    2.52
 -21  -2   1   13.10    2.05
 -21  -2   1   11.86    2.71
  21   2  -1   13.38    2.29
 -21  -3   1   14.31    3.01
  21   3  -1   11.73    2.20
 -21   3   0    5.07    1.80
  21  -3   0    3.72    2.21
  21  -3   0    4.10    1.54
 -21   2   0   29.26    2.06
  21  -2   0   19.67    3.52
 -21   1   0    0.64    0.69
 -21   1   0    5.77    1.52
  21  -1   0    2.65    1.82
 -21   0   0   -0.98    0.90
 -21   0   0    0.50    0.82
 -21   0   0    1.16    1.12
  21   0   0   -1.89    1.17
 -21  -1   0    2.22    1.23
 -21  -1   0    2.09    1.46
 -21  -1   0    2.36    0.97
  21   1   0    2.93    1.41
 -21  -2   0   26.02    3.76
 -21  -2   0   27.40    2.63
  21   2   0   22.80    2.95
 -21  -3   0    5.97    2.27
  21   3   0    4.26    1.46
 -21   3  -1   12.85    2.62
  21  -3   1   14.35    2.17
  21  -3   1   13.42    3.22
 -21   2  -1   15.75    1.61
 -21   2  -1   14.01    2.49
  21  -2   1   14.07    3.17
 -21   1  -1    7.37    1.30
 -21   1  -1    6.48    1.62
  21  -1   1    5.60    2.12
 -21   0  -1   -0.22    1.06
 -21   0  -1   -0.55    1.04
 -21   0  -1   -0.25    0.65
  21   0   1    0.42    1.47
 -21  -1  -1    7.09    2.09
 -21  -1  -1    5.89    1.57
 -21  -1  -1    8.49    1.48
  21   1   1    8.09    2.01
 -21  -2  -1   15.39    3.01
 -21  -2  -1   17.44    2.28
  21   2   1   11.93    2.19
  21   3   1   12.41    2.24
 -21   3  -2   25.75    3.61
  21  -3   2   22.32    2.63
 -21   2  -2    1.59    0.81
 -21   2  -2    1.71    1.41
  21  -2   2    1.76    1.71
 -21   1  -2    6.31    1.20
 -21   1  -2    6.47    1.76
 -21   1  -2    9.11    1.87
  21  -1   2    4.77    2.05
 -21   0  -2    1.04    1.18
 -21   0  -2    0.95    0.77
 -21   0  -2   -0.10    1.03
  21   0   2    1.56    1.47
 -21  -1  -2    6.75    1.97
 -21  -1  -2    8.44    1.71
 -21  -1  -2    5.64    1.35
  21   1   2    5.65    1.77
 -21  -2  -2    2.23    1.20
 -21  -2  -2    1.55    1.49
  21   2   2    2.49    1.44
 -21  -3  -2   22.86    3.73
  21   3   2   18.98    2.71
 -21   3  -3    3.40    1.93
  21  -3   3    1.20    1.37
 -21   2  -3    4.96    1.77
  21  -2   3    5.11    2.08
 -21   1  -3    0.83    1.23
 -21   1  -3    3.38    1.52
 -21   1  -3    1.52    0.82
  21  -1   3    0.86    1.51
 -21   0  -3   -1.25    1.07
 -21   0  -3   -0.11    0.98
 -21   0  -3    0.11    0.69
 -21   0  -3   -0.16    1.09
 -21  -1  -3    1.28    0.93
 -21  -1  -3    2.27    1.44
 -21  -1  -3    1.36    1.16
  21   1   3    1.14    1.22
 -21  -2  -3    8.58    2.36
 -21  -2  -3    4.82    1.44
  21   2   3    6.95    1.86
 -21  -3  -3    4.80    2.09
  21   3   3    0.63    1.18
 -21   2  -4   17.55    3.07
 -21   1  -4    0.45    1.19
 -21   1  -4    2.12    1.50
 -21   1  -4    0.43    1.23
 -21   1  -4    1.09    0.80
  21  -1   4    0.36    1.44
 -21   0  -4   -0.42    0.94
 -21   0  -4    0.16    0.74
 -21   0  -4    0.97    1.24
 -21   0  -4   -0.97    1.10
 -21  -1  -4    1.37    1.54
 -21  -1  -4    1.39    1.40
 -21  -1  -4   -0.33    1.06
 -21  -1  -4    0.17    0.81
  21   1   4   -0.16    1.78
 -21  -2  -4   12.44    2.63
 -21  -2  -4   17.38    2.39
  21   2   4   13.04    2.38
 -21   2  -5   -0.84    1.17
 -21   1  -5   -0.24    1.24
 -21   1  -5   -0.31    1.28
 -21   1  -5   -0.02    0.76
 -21   0  -5    0.19    2.02
 -21   0  -5    1.17    1.39
 -21   0  -5    0.51    1.28
 -21   0  -5    0.03    1.25
 -21  -1  -5    1.16    0.97
 -21  -1  -5   -1.12    1.18
 -21  -1  -5    0.61    1.29
 -21  -1  -5   -0.43    1.27
 -21  -2  -5    1.59    1.33
 -21  -2  -5   -0.47    1.25
 -21  -2  -5    1.07    1.56
  21   2   5   -0.06    1.24
 -21   1  -6    0.75    0.95
 -21   1  -6    2.07    1.58
 -21   1  -6    0.49    1.45
 -21   0  -6   -2.23    0.99
 -21   0  -6   -1.66    1.15
 -21   0  -6    0.94    1.39
 -21  -1  -6    1.71    1.04
 -21  -1  -6    2.63    1.48
 -21  -1  -6    0.55    1.66
 -21  -1  -6    0.98    1.32
 -21   0  -7    1.69    1.51
 -21   0  -7    1.01    1.56
 -21   0  -7   -1.34    1.29
 -22   0   6   -0.14    1.16
  22   0  -6    5.98    2.50
 -22   1   5    5.64    1.56
  22  -1  -5    4.78    2.48
 -22   0   5   72.59    4.52
 -22   0   5   71.58    4.29
  22   0  -5   77.69    6.28
 -22  -1   5    5.82    2.08
 -22  -1   5    5.13    1.70
 -22  -1   5    2.75    1.24
  22   1  -5    4.79    2.32
  22   1  -5   -0.38    1.47
  22  -2  -4   14.33    3.75
 -22   1   4    0.76    1.14
 -22   1   4    1.30    1.01
  22  -1  -4    0.65    1.85
 -22   0   4   45.47    3.57
 -22   0   4   43.65    3.12
  22   0  -4   49.50    5.17
 -22  -1   4    0.82    1.28
 -22  -1   4   -1.58    0.72
 -22  -1   4    2.26    1.52
  22   1  -4   -0.53    1.72
  22   1  -4   -0.37    1.40
 -22  -2   4   12.13    2.79
 -22  -2   4   10.02    2.13
  22   2  -4    9.98    2.34
 -22   2   3    3.75    1.03
  22  -2  -3    0.32    2.11
 -22   1   3   77.23    4.41
 -22   1   3   71.16    3.92
  22  -1  -3   75.75    6.18
 -22   0   3    5.70    1.61
 -22   0   3    5.29    1.33
  22   0  -3    5.11    2.42
 -22  -1   3   71.09    5.12
 -22  -1   3   79.86    4.07
 -22  -1   3   71.65    4.54
  22   1  -3   68.90    5.26
  22   1  -3   66.29    5.91
 -22  -2   3    3.25    1.57
 -22  -2   3    2.30    1.71
  22   2  -3    1.76    1.53
 -22   2   2    0.53    0.78
  22  -2  -2   -0.42    1.78
 -22   1   2    2.65    0.98
 -22   1   2    4.84    1.52
  22  -1  -2    5.34    2.36
 -22   0   2    0.93    0.92
 -22   0   2   -0.46    0.96
  22   0  -2    0.84    1.65
 -22  -1   2    5.23    1.91
 -22  -1   2    6.53    1.44
 -22  -1   2    5.14    1.64
  22   1  -2    3.71    1.84
  22   1  -2    7.86    2.49
 -22  -2   2    0.13    1.37
 -22  -2   2    0.12    1.18
  22   2  -2   -0.46    1.16
  22  -3  -1   14.29    3.56
 -22   2   1   24.53    2.00
  22  -2  -1   18.91    3.62
 -22   1   1    7.75    1.79
 -22   1   1   14.83    1.85
  22  -1  -1   15.17    3.30
 -22   0   1   66.70    3.74
 -22   0   1   69.38    4.29
  22   0  -1   61.27    5.58
 -22  -1   1   11.77    2.11
 -22  -1   1   13.03    1.82
 -22  -1   1   12.78    2.53
  22   1  -1   13.03    3.07
  22   1  -1   14.44    2.70
 -22  -2   1   18.10    3.04
 -22  -2   1   17.16    2.30
  22   2  -1   18.77    2.84
 -22  -3   1   10.69    2.74
  22   3  -1   11.78    2.23
  22  -3   0    1.32    2.02
  22  -3   0    1.28    1.45
 -22   2   0    2.06    0.88
  22  -2   0    2.36    1.94
 -22   1   0   -0.70    1.02
 -22   1   0   -0.26    0.73
  22  -1   0    1.24    1.63
 -22   0   0    0.50    0.81
 -22   0   0    1.46    1.24
 -22   0   0    0.51    1.29
  22   0   0    1.08    1.72
 -22  -1   0    0.93    1.37
 -22  -1   0    0.02    1.12
 -22  -1   0   -0.22    0.77
  22   1   0   -0.75    1.21
 -22  -2   0    1.07    1.14
 -22  -2   0   -0.63    1.38
  22   2   0   -0.44    1.19
 -22  -3   0    1.16    1.81
  22   3   0    0.43    1.15
 -22   3  -1    9.54    2.37
  22  -3   1   14.75    2.28
  22  -3   1   14.27    3.35
 -22   2  -1   25.58    2.00
 -22   2  -1   20.09    3.18
  22  -2   1   27.39    4.21
 -22   1  -1   15.19    1.83
  22  -1   1   15.22    3.14
 -22   0  -1   73.49    3.82
 -22   0  -1   73.16    4.84
 -22   0  -1   70.03    4.47
  22   0   1   67.83    5.72
 -22  -1  -1   14.47    1.94
 -22  -1  -1   11.73    2.48
 -22  -1  -1   10.85    2.01
  22   1   1   12.87    2.43
 -22  -2  -1   20.52    2.60
 -22  -2  -1   17.81    3.11
  22   2   1   23.19    3.06
 -22  -3  -1   11.84    2.84
  22   3   1   17.28    2.71
 -22   2  -2    0.91    1.41
 -22   2  -2    1.17    0.80
  22  -2   2    1.04    1.54
 -22   1  -2    5.60    1.25
 -22   1  -2    6.19    1.63
 -22   1  -2    2.75    1.51
  22  -1   2    6.53    2.33
 -22   0  -2    1.75    1.33
 -22   0  -2    0.64    1.25
 -22   0  -2    0.61    0.77
  22   0   2    1.28    1.54
 -22  -1  -2    5.89    1.56
 -22  -1  -2    3.21    1.13
 -22  -1  -2    6.87    2.14
  22   1   2    2.64    1.42
 -22  -2  -2    0.16    1.10
 -22  -2  -2    0.39    1.53
  22   2   2    0.81    1.24
 -22   2  -3    0.77    1.40
  22  -2   3    2.46    1.89
 -22   1  -3   69.83    4.83
 -22   1  -3   73.08    3.68
 -22   1  -3   65.08    4.29
  22  -1   3   63.88    5.47
 -22   0  -3    6.11    1.80
 -22   0  -3    5.98    1.87
 -22   0  -3    4.81    1.17
 -22   0  -3    5.80    1.91
 -22  -1  -3   68.55    4.98
 -22  -1  -3   73.74    4.44
 -22  -1  -3   69.04    3.90
  22   1   3   62.41    4.93
 -22  -2  -3    2.04    1.73
 -22  -2  -3    0.04    1.17
  22   2   3    1.92    1.41
 -22   2  -4    7.76    2.25
 -22   1  -4    1.99    1.00
 -22   1  -4    0.34    1.17
 -22   0  -4   41.94    3.74
 -22   0  -4   45.87    4.06
 -22   0  -4   47.05    3.05
 -22   0  -4   44.88    3.93
 -22  -1  -4    3.52    1.59
 -22  -1  -4   -0.11    0.87
 -22  -1  -4    0.74    1.24
 -22  -1  -4    0.11    1.25
 -22  -2  -4   12.87    2.17
 -22  -2  -4   11.07    2.76
  22   2   4    8.21    1.95
 -22   1  -5    3.46    1.74
 -22   1  -5    4.12    1.85
 -22   0  -5   65.03    4.93
 -22   0  -5   66.27    4.64
 -22   0  -5   65.44    4.90
 -22  -1  -5    2.91    1.70
 -22  -1  -5    2.98    1.22
 -22  -1  -5    4.47    1.57
 -22  -1  -5    5.13    1.99
 -22   0  -6    1.08    1.62
 -22   0  -6    3.72    2.02
 -22   0  -6    2.66    1.64
 -23   0   5   -0.11    1.18
  23   0  -5   -1.22    1.73
 -23   1   4    1.92    1.35
  23  -1  -4    2.46    2.15
 -23   0   4   -0.50    1.16
  23   0  -4   -0.55    2.03
 -23  -1   4    2.80    1.73
 -23  -1   4    1.45    0.99
 -23  -1   4   -0.33    1.17
  23   1  -4    1.68    1.73
 -23   2   3    8.42    1.74
  23  -2  -3    7.96    2.96
 -23   1   3    1.54    1.19
  23  -1  -3    0.00    1.89
 -23   0   3    0.78    1.25
 -23   0   3    1.78    0.99
  23   0  -3   -1.02    1.63
 -23  -1   3    0.19    0.96
 -23  -1   3    2.23    1.43
 -23  -1   3    0.39    1.35
  23   1  -3    1.07    1.88
  23   1  -3    1.09    1.48
 -23  -2   3    8.00    2.63
 -23  -2   3    6.53    1.99
  23   2  -3    8.95    2.37
 -23   2   2    2.74    1.06
  23  -2  -2    2.05    2.20
 -23   1   2    2.38    1.04
 -23   1   2    3.60    1.50
  23  -1  -2    1.63    2.11
 -23   0   2   -0.07    0.85
 -23   0   2   -0.17    1.15
  23   0  -2   -0.47    1.69
 -23  -1   2    2.00    1.14
 -23  -1   2    3.39    1.59
 -23  -1   2    2.34    1.75
  23   1  -2    1.38    1.88
  23   1  -2    3.74    1.79
 -23  -2   2    2.69    1.87
 -23  -2   2    1.69    1.51
  23   2  -2    1.78    1.63
 -23   2   1    3.02    0.98
  23  -2  -1    0.62    1.88
 -23   1   1    4.43    1.60
 -23   1   1    2.69    1.11
  23  -1  -1    1.85    2.02
 -23   0   1    1.06    0.94
 -23   0   1    0.24    1.15
  23   0  -1    0.90    1.81
 -23  -1   1    2.71    1.54
 -23  -1   1    4.65    1.37
 -23  -1   1    1.18    1.59
  23   1  -1    1.62    1.53
  23   1  -1    1.36    1.88
 -23  -2   1    1.88    1.78
 -23  -2   1    1.31    1.36
  23   2  -1    0.95    1.42
 -23   2   0    0.98    0.83
  23  -2   0   -0.25    1.77
 -23   1   0    4.10    1.56
 -23   1   0    2.33    1.01
  23  -1   0    3.49    2.02
 -23   0   0    0.94    1.33
 -23   0   0    1.04    0.90
 -23   0   0   -0.28    1.72
  23   0   0   -0.02    1.56
 -23  -1   0    4.50    1.84
 -23  -1   0    4.64    1.67
 -23  -1   0    3.18    1.27
  23   1   0    3.37    1.69
 -23  -2   0    0.95    1.29
 -23  -2   0    2.33    1.84
  23   2   0   -0.42    1.09
 -23   2  -1    1.77    0.88
  23  -2   1    2.45    2.01
 -23   1  -1    6.05    1.73
 -23   1  -1    2.48    1.04
  23  -1   1    3.28    2.12
 -23   0  -1    1.26    1.37
 -23   0  -1    0.78    1.37
 -23   0  -1    0.59    0.92
  23   0   1   -0.89    1.51
 -23  -1  -1    1.72    1.44
 -23  -1  -1    2.77    1.51
 -23  -1  -1    3.05    1.22
  23   1   1    3.26    1.65
 -23  -2  -1    0.80    1.47
 -23  -2  -1    3.08    1.46
  23   2   1    3.48    1.68
 -23   2  -2    2.53    1.72
  23  -2   2    1.51    1.95
 -23   1  -2    2.49    1.49
 -23   1  -2    2.23    1.02
  23  -1   2    2.80    1.95
 -23   0  -2   -0.76    1.26
 -23   0  -2    0.49    1.32
 -23   0  -2    0.84    0.91
 -23  -1  -2    2.58    1.45
 -23  -1  -2    2.99    1.82
 -23  -1  -2    2.18    1.08
  23   1   2    1.56    2.20
 -23  -2  -2    2.78    1.45
 -23  -2  -2    1.11    1.71
  23   2   2    3.13    1.76
 -23   2  -3    4.93    1.94
 -23   1  -3    0.22    1.21
  23  -1   3   -0.85    1.41
 -23   0  -3   -0.52    1.19
 -23   0  -3   -1.06    1.01
 -23   0  -3   -0.22    0.84
 -23  -1  -3    1.09    0.98
 -23  -1  -3   -1.94    1.07
 -23  -1  -3    0.43    1.51
 -23  -2  -3    9.03    2.48
 -23  -2  -3    9.48    1.99
  23   2   3    7.77    2.17
 -23   1  -4    2.14    1.54
 -23   0  -4   -0.61    1.25
 -23   0  -4    0.52    1.46
 -23   0  -4    0.62    1.30
 -23  -1  -4    0.26    1.39
 -23  -1  -4    1.49    1.30
 -23  -1  -4    1.34    1.39
 -23   0  -5   -0.80    1.30
 -23   0  -5   -0.80    1.40
 -23   0  -5   -0.34    1.40
 -24   1   3   31.74    3.12
 -24   0   3    0.17    1.29
  24   0  -3    3.67    2.32
 -24  -1   3   31.13    3.40
 -24  -1   3   29.94    3.60
 -24   1   2   47.46    3.65
  24  -1  -2   42.25    5.58
 -24   0   2    0.48    1.37
  24   0  -2    1.87    2.06
 -24  -1   2   42.57    3.23
 -24  -1   2   46.84    3.89
 -24  -1   2   41.38    4.18
  24   1  -2   45.79    5.25
  24   1  -2   32.52    4.21
 -24   1   1    4.89    1.65
  24  -1  -1    1.79    2.08
 -24   0   1   27.96    3.18
  24   0  -1   18.13    3.63
 -24  -1   1    4.47    1.93
 -24  -1   1    4.63    1.40
 -24  -1   1    4.68    1.82
  24   1  -1    5.57    1.97
 -24   1   0    6.67    1.86
  24  -1   0    3.44    2.12
 -24   0   0   41.12    3.61
 -24   0   0   44.45    5.21
  24   0   0   32.85    4.70
 -24  -1   0    4.99    1.45
 -24  -1   0    5.02    2.13
 -24  -1   0    3.67    1.69
  24   1   0    4.41    2.47
 -24   1  -1    7.48    1.95
  24  -1   1    1.91    2.01
 -24   0  -1   22.01    4.09
 -24   0  -1   19.60    2.72
  24   0   1   22.67    4.00
 -24  -1  -1    7.09    2.37
 -24  -1  -1    5.86    1.89
 -24  -1  -1    5.12    1.44
  24  -1   2   35.94    4.78
 -24   0  -2    5.47    1.83
 -24   0  -2    2.20    1.64
 -24  -1  -2   37.82    3.61
 -24  -1  -2   40.64    3.24
 -24  -1  -2   36.39    4.03
 -24   0  -3   -0.15    1.41
 -24   0  -3    0.83    1.56
 -24  -1  -3   26.41    3.19
 -25   0   0    1.58    1.50
   0   0   0    0.00    0.00
;
_shelx_hkl_checksum              49698
loop_
_symmetry_equiv_pos_as_xyz
'x, y, z'
'-x, -y, z+1/2'
'x+1/2, -y, z'
'-x+1/2, y, z+1/2'
loop_
_atom_site_label
_atom_site_type_symbol
_atom_site_fract_x
_atom_site_fract_y
_atom_site_fract_z
_atom_site_U_iso_or_equiv
_atom_site_adp_type
_atom_site_occupancy
_atom_site_site_symmetry_order
_atom_site_calc_flag
_atom_site_refinement_flags_posn
_atom_site_refinement_flags_adp
_atom_site_refinement_flags_occupancy
_atom_site_disorder_assembly
_atom_site_disorder_group
Mo1 Mo 0.24170(4) 0.96954(13) 0.94665(8) 0.01092(17) Uani 1 1 d . . . . .
Mo2 Mo 0.49311(4) 0.92596(14) 0.51602(8) 0.01091(16) Uani 1 1 d . . . . .
Sr1 Sr 0.37089(5) 0.54898(18) 0.76207(8) 0.0152(2) Uani 1 1 d . . . . .
Sr2 Sr 0.62133(4) 0.50758(15) 0.69210(10) 0.01160(19) Uani 1 1 d . . . . .
O1 O 0.2696(3) 1.1884(12) 1.0703(6) 0.0186(14) Uani 1 1 d . . . . .
O2 O 0.1723(3) 1.1470(12) 0.8730(6) 0.0180(13) Uani 1 1 d . . . . .
O3 O 0.5176(3) 1.1712(13) 0.4056(6) 0.0217(15) Uani 1 1 d . . . . .
O4 O 0.4258(3) 1.0767(12) 0.6131(6) 0.0180(13) Uani 1 1 d . . . . .
F1 F 0.1886(2) 0.7243(10) 1.0520(5) 0.0198(12) Uani 1 1 d . . . . .
F2 F 0.3128(3) 1.0941(11) 0.8121(6) 0.0189(12) Uani 1 1 d . . . . .
F3 F 0.3260(2) 0.7091(9) 0.9872(5) 0.0150(11) Uani 1 1 d . . . . .
F4 F 0.2334(2) 0.6666(10) 0.7971(5) 0.0163(10) Uani 1 1 d . . . . .
F5 F 0.4374(3) 0.7030(11) 0.4036(5) 0.0205(11) Uani 1 1 d . . . . .
F6 F 0.5689(3) 1.0237(9) 0.6510(6) 0.0147(11) Uani 1 1 d . . . . .
F7 F 0.5764(2) 0.6808(9) 0.4597(5) 0.0165(10) Uani 1 1 d . . . . .
F8 F 0.4886(2) 0.5908(10) 0.6513(5) 0.0144(10) Uani 1 1 d . . . . .
loop_
_atom_site_aniso_label
_atom_site_aniso_U_11
_atom_site_aniso_U_22
_atom_site_aniso_U_33
_atom_site_aniso_U_23
_atom_site_aniso_U_13
_atom_site_aniso_U_12
Mo1 0.0089(4) 0.0141(3) 0.0097(4) -0.0009(4) 0.0003(4) 0.0000(3)
Mo2 0.0097(4) 0.0130(3) 0.0100(3) 0.0017(3) -0.0004(4) -0.0002(3)
Sr1 0.0114(5) 0.0229(5) 0.0111(5) 0.0038(4) 0.0012(4) 0.0025(3)
Sr2 0.0113(5) 0.0145(3) 0.0090(4) 0.0008(3) -0.0010(4) 0.0000(3)
O1 0.025(4) 0.017(3) 0.013(3) 0.000(2) -0.005(3) -0.001(3)
O2 0.013(3) 0.024(3) 0.017(3) 0.010(3) 0.000(3) 0.003(3)
O3 0.029(4) 0.019(3) 0.017(3) 0.005(3) 0.001(3) -0.002(3)
O4 0.010(3) 0.025(3) 0.018(3) -0.008(3) -0.001(3) 0.002(2)
F1 0.016(3) 0.023(3) 0.020(3) 0.006(2) 0.000(2) -0.002(2)
F2 0.016(3) 0.028(3) 0.013(3) 0.001(2) 0.005(2) -0.007(2)
F3 0.011(2) 0.019(2) 0.015(3) 0.0029(19) -0.0020(18) 0.0045(19)
F4 0.017(3) 0.019(3) 0.013(2) -0.003(2) -0.001(2) -0.004(2)
F5 0.019(3) 0.023(3) 0.020(3) -0.005(2) -0.007(2) -0.002(2)
F6 0.014(3) 0.020(2) 0.010(3) -0.0033(19) -0.002(2) -0.0043(18)
F7 0.014(2) 0.024(3) 0.011(2) -0.004(2) 0.001(2) 0.0036(19)
F8 0.015(2) 0.018(2) 0.009(2) 0.0029(19) 0.0016(19) -0.0027(19)
loop_
_atom_type_symbol
_atom_type_description
_atom_type_scat_dispersion_real
_atom_type_scat_dispersion_imag
_atom_type_scat_source
O O 0.0106 0.006 'International Tables Vol C Tables 4.2.6.8 and 6.1.1.4'
F F 0.0171 0.0103 'International Tables Vol C Tables 4.2.6.8 and 6.1.1.4'
Sr Sr -1.5307 3.2498 'International Tables Vol C Tables 4.2.6.8 and 6.1.1.4'
Mo Mo -1.6832 0.6857 'International Tables Vol C Tables 4.2.6.8 and 6.1.1.4'
loop_
_geom_angle_atom_site_label_1
_geom_angle_atom_site_label_2
_geom_angle_atom_site_label_3
_geom_angle
_geom_angle_site_symmetry_1
_geom_angle_site_symmetry_3
_geom_angle_publ_flag
O1 Mo1 O2 102.6(3) . . ?
O1 Mo1 F1 99.4(3) . . ?
O2 Mo1 F1 99.2(3) . . ?
O1 Mo1 F2 94.9(3) . . ?
O2 Mo1 F2 93.7(2) . . ?
F1 Mo1 F2 158.1(2) . . ?
O1 Mo1 F3 90.8(2) . . ?
O2 Mo1 F3 165.3(2) . . ?
F1 Mo1 F3 84.3(2) . . ?
F2 Mo1 F3 79.0(2) . . ?
O1 Mo1 F4 165.9(2) . . ?
O2 Mo1 F4 90.0(3) . . ?
F1 Mo1 F4 84.4(2) . . ?
F2 Mo1 F4 78.0(2) . . ?
F3 Mo1 F4 76.05(19) . . ?
O1 Mo1 Sr1 120.6(2) . . ?
O2 Mo1 Sr1 124.6(2) . . ?
F1 Mo1 Sr1 105.56(15) . . ?
F2 Mo1 Sr1 52.65(16) . . ?
F3 Mo1 Sr1 41.21(13) . . ?
F4 Mo1 Sr1 45.61(13) . . ?
O3 Mo2 O4 104.6(3) . . ?
O3 Mo2 F5 100.3(3) . . ?
O4 Mo2 F5 99.9(3) . . ?
O3 Mo2 F6 94.1(3) . . ?
O4 Mo2 F6 92.3(2) . . ?
F5 Mo2 F6 158.0(2) . . ?
O3 Mo2 F7 91.9(3) . . ?
O4 Mo2 F7 161.3(3) . . ?
F5 Mo2 F7 85.4(2) . . ?
F6 Mo2 F7 77.5(2) . . ?
O3 Mo2 F8 166.2(3) . . ?
O4 Mo2 F8 87.1(2) . . ?
F5 Mo2 F8 84.5(2) . . ?
F6 Mo2 F8 77.91(19) . . ?
F7 Mo2 F8 75.50(19) . . ?
O3 Mo2 Sr2 122.5(2) . . ?
O4 Mo2 Sr2 116.9(2) . . ?
F5 Mo2 Sr2 109.09(16) . . ?
F6 Mo2 Sr2 48.89(14) . . ?
F7 Mo2 Sr2 44.91(15) . . ?
F8 Mo2 Sr2 44.02(12) . . ?
O3 Mo2 Sr1 157.0(2) . . ?
O4 Mo2 Sr1 54.6(2) . . ?
F5 Mo2 Sr1 76.48(17) . . ?
F6 Mo2 Sr1 96.41(15) . . ?
F7 Mo2 Sr1 110.32(14) . . ?
F8 Mo2 Sr1 36.68(12) . . ?
Sr2 Mo2 Sr1 79.30(3) . . ?
F7 Sr1 F8 92.02(15) 2_665 . ?
F7 Sr1 F3 64.46(15) 2_665 . ?
F8 Sr1 F3 131.92(16) . . ?
F7 Sr1 F1 172.72(16) 2_665 4_554 ?
F8 Sr1 F1 89.85(15) . 4_554 ?
F3 Sr1 F1 118.86(15) . 4_554 ?
F7 Sr1 F2 67.29(17) 2_665 1_545 ?
F8 Sr1 F2 122.96(16) . 1_545 ?
F3 Sr1 F2 87.51(16) . 1_545 ?
F1 Sr1 F2 105.86(17) 4_554 1_545 ?
F7 Sr1 F4 112.42(16) 2_665 . ?
F8 Sr1 F4 154.54(16) . . ?
F3 Sr1 F4 59.51(15) . . ?
F1 Sr1 F4 66.80(15) 4_554 . ?
F2 Sr1 F4 75.46(16) 1_545 . ?
F7 Sr1 O3 62.18(17) 2_665 2_675 ?
F8 Sr1 O3 62.18(17) . 2_675 ?
F3 Sr1 O3 69.73(16) . 2_675 ?
F1 Sr1 O3 124.71(18) 4_554 2_675 ?
F2 Sr1 O3 129.43(18) 1_545 2_675 ?
F4 Sr1 O3 122.32(16) . 2_675 ?
F7 Sr1 F2 115.46(16) 2_665 . ?
F8 Sr1 F2 109.36(15) . . ?
F3 Sr1 F2 55.93(15) . . ?
F1 Sr1 F2 70.40(16) 4_554 . ?
F2 Sr1 F2 127.65(19) 1_545 . ?
F4 Sr1 F2 54.58(14) . . ?
O3 Sr1 F2 75.58(16) 2_675 . ?
F7 Sr1 O4 84.33(17) 2_665 1_545 ?
F8 Sr1 O4 61.85(16) . 1_545 ?
F3 Sr1 O4 144.31(17) . 1_545 ?
F1 Sr1 O4 90.37(17) 4_554 1_545 ?
F2 Sr1 O4 63.56(18) 1_545 1_545 ?
F4 Sr1 O4 125.17(15) . 1_545 ?
O3 Sr1 O4 111.79(17) 2_675 1_545 ?
F2 Sr1 O4 159.41(17) . 1_545 ?
F7 Sr1 O4 128.10(16) 2_665 . ?
F8 Sr1 O4 55.39(15) . . ?
F3 Sr1 O4 105.70(16) . . ?
F1 Sr1 O4 58.34(16) 4_554 . ?
F2 Sr1 O4 162.84(18) 1_545 . ?
F4 Sr1 O4 101.51(15) . . ?
O3 Sr1 O4 66.70(17) 2_675 . ?
F2 Sr1 O4 56.80(15) . . ?
O4 Sr1 O4 107.22(19) 1_545 . ?
F7 Sr1 Mo1 97.03(12) 2_665 . ?
F8 Sr1 Mo1 139.80(11) . . ?
F3 Sr1 Mo1 32.84(10) . . ?
F1 Sr1 Mo1 86.02(11) 4_554 . ?
F2 Sr1 Mo1 96.49(12) 1_545 . ?
F4 Sr1 Mo1 34.42(10) . . ?
O3 Sr1 Mo1 87.92(13) 2_675 . ?
F2 Sr1 Mo1 32.57(10) . . ?
O4 Sr1 Mo1 157.90(12) 1_545 . ?
O4 Sr1 Mo1 89.37(11) . . ?
F7 Sr1 Mo2 119.29(11) 2_665 . ?
F8 Sr1 Mo2 30.89(11) . . ?
F3 Sr1 Mo2 128.14(11) . . ?
F1 Sr1 Mo2 64.54(11) 4_554 . ?
F2 Sr1 Mo2 143.96(13) 1_545 . ?
F4 Sr1 Mo2 123.92(11) . . ?
O3 Sr1 Mo2 69.61(13) 2_675 . ?
F2 Sr1 Mo2 83.70(10) . . ?
O4 Sr1 Mo2 81.31(12) 1_545 . ?
O4 Sr1 Mo2 26.91(11) . . ?
Mo1 Sr1 Mo2 116.27(3) . . ?
F4 Sr2 F3 82.12(15) 3_565 2_664 ?
F4 Sr2 F8 160.20(17) 3_565 . ?
F3 Sr2 F8 108.87(16) 2_664 . ?
F4 Sr2 F5 83.21(16) 3_565 2_665 ?
F3 Sr2 F5 131.31(16) 2_664 2_665 ?
F8 Sr2 F5 77.18(16) . 2_665 ?
F4 Sr2 F7 139.05(15) 3_565 . ?
F3 Sr2 F7 62.82(15) 2_664 . ?
F8 Sr2 F7 59.45(15) . . ?
F5 Sr2 F7 135.57(15) 2_665 . ?
F4 Sr2 F6 94.10(16) 3_565 1_545 ?
F3 Sr2 F6 68.50(17) 2_664 1_545 ?
F8 Sr2 F6 75.68(15) . 1_545 ?
F5 Sr2 F6 66.60(17) 2_665 1_545 ?
F7 Sr2 F6 92.08(16) . 1_545 ?
F4 Sr2 O2 68.38(17) 3_565 3_575 ?
F3 Sr2 O2 133.01(16) 2_664 3_575 ?
F8 Sr2 O2 110.92(17) . 3_575 ?
F5 Sr2 O2 81.80(19) 2_665 3_575 ?
F7 Sr2 O2 120.70(17) . 3_575 ?
F6 Sr2 O2 145.75(19) 1_545 3_575 ?
F4 Sr2 F6 132.75(15) 3_565 . ?
F3 Sr2 F6 114.33(16) 2_664 . ?
F8 Sr2 F6 58.69(14) . . ?
F5 Sr2 F6 109.66(16) 2_665 . ?
F7 Sr2 F6 56.70(15) . . ?
F6 Sr2 F6 133.03(19) 1_545 . ?
O2 Sr2 F6 68.93(18) 3_575 . ?
F4 Sr2 O1 75.47(16) 3_565 2_674 ?
F3 Sr2 O1 65.58(16) 2_664 2_674 ?
F8 Sr2 O1 123.82(16) . 2_674 ?
F5 Sr2 O1 150.78(18) 2_665 2_674 ?
F7 Sr2 O1 71.26(16) . 2_674 ?
F6 Sr2 O1 133.84(17) 1_545 2_674 ?
O2 Sr2 O1 71.94(18) 3_575 2_674 ?
F6 Sr2 O1 72.94(16) . 2_674 ?
F4 Sr2 Mo2 163.09(12) 3_565 . ?
F3 Sr2 Mo2 96.28(11) 2_664 . ?
F8 Sr2 Mo2 35.33(11) . . ?
F5 Sr2 Mo2 109.71(11) 2_665 . ?
F7 Sr2 Mo2 33.79(10) . . ?
F6 Sr2 Mo2 101.00(12) 1_545 . ?
O2 Sr2 Mo2 101.86(14) 3_575 . ?
F6 Sr2 Mo2 33.51(11) . . ?
O1 Sr2 Mo2 88.49(13) 2_674 . ?
F4 Sr2 Sr1 111.48(12) 3_565 2_664 ?
F3 Sr2 Sr1 31.43(11) 2_664 2_664 ?
F8 Sr2 Sr1 83.41(11) . 2_664 ?
F5 Sr2 Sr1 143.02(12) 2_665 2_664 ?
F7 Sr2 Sr1 31.40(10) . 2_664 ?
F6 Sr2 Sr1 78.30(13) 1_545 2_664 ?
O2 Sr2 Sr1 134.91(14) 3_575 2_664 ?
F6 Sr2 Sr1 85.61(12) . 2_664 ?
O1 Sr2 Sr1 65.11(12) 2_674 2_664 ?
Mo2 Sr2 Sr1 64.93(3) . 2_664 ?
F4 Sr2 Sr1 24.17(11) 3_565 3_565 ?
F3 Sr2 Sr1 72.83(11) 2_664 3_565 ?
F8 Sr2 Sr1 174.11(11) . 3_565 ?
F5 Sr2 Sr1 106.10(11) 2_665 3_565 ?
F7 Sr2 Sr1 117.97(10) . 3_565 ?
F6 Sr2 Sr1 110.05(11) 1_545 3_565 ?
O2 Sr2 Sr1 65.26(13) 3_575 3_565 ?
F6 Sr2 Sr1 115.42(10) . 3_565 ?
O1 Sr2 Sr1 51.31(12) 2_674 3_565 ?
Mo2 Sr2 Sr1 139.58(3) . 3_565 ?
Sr1 Sr2 Sr1 96.258(17) 2_664 3_565 ?
Mo1 O1 Sr2 149.9(3) . 2_675 ?
Mo1 O2 Sr2 151.8(3) . 3_475 ?
Mo2 O3 Sr1 149.0(3) . 2_674 ?
Mo2 O4 Sr1 149.7(3) . 1_565 ?
Mo2 O4 Sr1 98.5(2) . . ?
Sr1 O4 Sr1 107.22(19) 1_565 . ?
Mo1 F1 Sr1 156.2(3) . 4 ?
Mo1 F2 Sr1 133.8(3) . 1_565 ?
Mo1 F2 Sr1 94.8(2) . . ?
Sr1 F2 Sr1 127.64(19) 1_565 . ?
Mo1 F3 Sr2 136.2(2) . 2_665 ?
Mo1 F3 Sr1 105.94(19) . . ?
Sr2 F3 Sr1 117.36(17) 2_665 . ?
Mo1 F4 Sr2 126.8(2) . 3_465 ?
Mo1 F4 Sr1 99.97(18) . . ?
Sr2 F4 Sr1 133.3(2) 3_465 . ?
Mo2 F5 Sr2 162.0(3) . 2_664 ?
Mo2 F6 Sr2 126.1(2) . 1_565 ?
Mo2 F6 Sr2 97.60(17) . . ?
Sr2 F6 Sr2 133.04(19) 1_565 . ?
Mo2 F7 Sr1 142.1(2) . 2_664 ?
Mo2 F7 Sr2 101.3(2) . . ?
Sr1 F7 Sr2 115.33(17) 2_664 . ?
Mo2 F8 Sr1 112.43(19) . . ?
Mo2 F8 Sr2 100.65(17) . . ?
Sr1 F8 Sr2 141.7(2) . . ?
loop_
_geom_bond_atom_site_label_1
_geom_bond_atom_site_label_2
_geom_bond_distance
_geom_bond_site_symmetry_2
_geom_bond_publ_flag
Mo1 O1 1.702(6) . ?
Mo1 O2 1.716(6) . ?
Mo1 F1 1.868(5) . ?
Mo1 F2 1.971(5) . ?
Mo1 F3 2.058(4) . ?
Mo1 F4 2.094(5) . ?
Mo1 Sr1 3.6479(12) . ?
Mo2 O3 1.680(6) . ?
Mo2 O4 1.740(6) . ?
Mo2 F5 1.868(5) . ?
Mo2 F6 1.999(5) . ?
Mo2 F7 2.035(4) . ?
Mo2 F8 2.112(5) . ?
Mo2 Sr2 3.5886(12) . ?
Mo2 Sr1 3.8021(12) . ?
Sr1 F7 2.455(5) 2_665 ?
Sr1 F8 2.457(5) . ?
Sr1 F3 2.500(5) . ?
Sr1 F1 2.502(5) 4_554 ?
Sr1 F2 2.515(5) 1_545 ?
Sr1 F4 2.647(5) . ?
Sr1 O3 2.860(6) 2_675 ?
Sr1 F2 2.910(6) . ?
Sr1 O4 2.916(6) 1_545 ?
Sr1 O4 3.134(6) . ?
Sr2 F4 2.480(5) 3_565 ?
Sr2 F3 2.484(5) 2_664 ?
Sr2 F8 2.537(4) . ?
Sr2 F5 2.571(5) 2_665 ?
Sr2 F7 2.584(5) . ?
Sr2 F6 2.584(5) 1_545 ?
Sr2 O2 2.631(6) 3_575 ?
Sr2 F6 2.728(5) . ?
Sr2 O1 2.786(6) 2_674 ?
