#------------------------------------------------------------------------------
#$Date: 2021-05-03 23:59:33 +0300 (Mon, 03 May 2021) $
#$Revision: 264803 $
#$URL: file:///home/coder/svn-repositories/cod/cif/4/00/39/4003917.cif $
#------------------------------------------------------------------------------
#
# This file is available in the Crystallography Open Database (COD),
# http://www.crystallography.net/
#
# All data on this site have been placed in the public domain by the
# contributors.
#
data_4003917
loop_
_publ_author_name
'Zhang, Xiao-Han'
'Yang, Bing-Ping'
'Hu, Chun-Li'
'Chen, Jin'
'Huang, Qian-Ming'
'Mao, Jiang-Gao'
_publ_section_title
;
 A New Anhydrous Polar Rare-Earth Iodate Fluoride, Ce(IO3)2F2, Exhibiting
 a Large Second-Harmonic-Generation Effect and Improved Overall
 Performance
;
_journal_issue                   8
_journal_name_full               'Chemistry of Materials'
_journal_page_first              2894
_journal_page_last               2900
_journal_paper_doi               10.1021/acs.chemmater.1c00222
_journal_volume                  33
_journal_year                    2021
_chemical_formula_moiety         'Ce F2 I2 O6'
_chemical_formula_sum            'Ce F2 I2 O6'
_chemical_formula_weight         527.92
_space_group_crystal_system      orthorhombic
_space_group_IT_number           33
_space_group_name_Hall           'P 2c -2n'
_space_group_name_H-M_alt        'P n a 21'
_atom_sites_solution_primary     dual
_audit_creation_date             2021-01-14
_audit_creation_method
;
Olex2 1.2
(compiled 2018.05.29 svn.r3508 for OlexSys, GUI svn.r5506)
;
_cell_angle_alpha                90
_cell_angle_beta                 90
_cell_angle_gamma                90
_cell_formula_units_Z            4
_cell_length_a                   8.0451(8)
_cell_length_b                   6.8485(5)
_cell_length_c                   11.7325(10)
_cell_measurement_reflns_used    2227
_cell_measurement_temperature    100.01(15)
_cell_measurement_theta_max      30.0190
_cell_measurement_theta_min      3.3870
_cell_volume                     646.42(10)
_computing_cell_refinement       'CrysAlisPro 1.171.39.46c (Rigaku OD, 2018)'
_computing_data_collection       'CrysAlisPro 1.171.39.46c (Rigaku OD, 2018)'
_computing_data_reduction        'CrysAlisPro 1.171.39.46c (Rigaku OD, 2018)'
_computing_molecular_graphics    'Olex2 (Dolomanov et al., 2009)'
_computing_publication_material  'Olex2 (Dolomanov et al., 2009)'
_computing_structure_refinement  'ShelXL (Sheldrick, 2015)'
_computing_structure_solution    'ShelXT (Sheldrick, 2015)'
_diffrn_ambient_environment      N~2~
_diffrn_ambient_temperature      100.01(15)
_diffrn_detector                 'CCD plate'
_diffrn_detector_area_resol_mean 10.3468
_diffrn_detector_type            Atlas
_diffrn_measured_fraction_theta_full 1.000
_diffrn_measured_fraction_theta_max 1.000
_diffrn_measurement_details
;
List of Runs (angles in degrees, time in seconds):

  # Type    Start    End  Width  t~exp~   \w     \q     \k     \f   Frames
--------------------------------------------------------------------------
  1  \w    -10.00  75.00   1.00    1.62    --   11.29  77.00 150.00   85
  2  \w    -82.00  11.00   1.00    1.62    --  -12.07 -57.00-120.00   93
  3  \w    -39.00  58.00   1.00    1.62    --  -12.07  57.00  30.00   97
;
_diffrn_measurement_device       'four-circle diffractometer'
_diffrn_measurement_device_type  'SuperNova, Dual, Cu at home/near, Atlas'
_diffrn_measurement_method       '\w scans'
_diffrn_orient_matrix_type
'CrysAlisPro convention (1999,Acta A55,543-557)'
_diffrn_orient_matrix_UB_11      -0.0365044000
_diffrn_orient_matrix_UB_12      0.0177505000
_diffrn_orient_matrix_UB_13      -0.0540670000
_diffrn_orient_matrix_UB_21      0.0154131000
_diffrn_orient_matrix_UB_22      -0.0982790000
_diffrn_orient_matrix_UB_23      -0.0158824000
_diffrn_orient_matrix_UB_31      -0.0787536000
_diffrn_orient_matrix_UB_32      -0.0274379000
_diffrn_orient_matrix_UB_33      0.0219046000
_diffrn_radiation_monochromator  mirror
_diffrn_radiation_probe          x-ray
_diffrn_radiation_type           MoK\a
_diffrn_radiation_wavelength     0.71073
_diffrn_reflns_av_R_equivalents  0.0518
_diffrn_reflns_av_unetI/netI     0.0468
_diffrn_reflns_Laue_measured_fraction_full 1.000
_diffrn_reflns_Laue_measured_fraction_max 1.000
_diffrn_reflns_limit_h_max       10
_diffrn_reflns_limit_h_min       -10
_diffrn_reflns_limit_k_max       8
_diffrn_reflns_limit_k_min       -8
_diffrn_reflns_limit_l_max       11
_diffrn_reflns_limit_l_min       -15
_diffrn_reflns_number            4527
_diffrn_reflns_point_group_measured_fraction_full 0.856
_diffrn_reflns_point_group_measured_fraction_max 0.830
_diffrn_reflns_theta_full        25.242
_diffrn_reflns_theta_max         27.084
_diffrn_reflns_theta_min         3.445
_diffrn_source                   'micro-focus sealed X-ray tube'
_diffrn_source_type              'SuperNova (Mo) X-ray Source'
_exptl_absorpt_coefficient_mu    16.619
_exptl_absorpt_correction_T_max  0.906
_exptl_absorpt_correction_T_min  0.794
_exptl_absorpt_correction_type   analytical
_exptl_absorpt_process_details
;
CrysAlisPro 1.171.39.46c (Rigaku Oxford Diffraction, 2018)
Analytical numeric absorption correction using a multifaceted crystal
			model based on expressions derived by R.C. Clark & J.S. Reid.
(Clark, R. C. & Reid, J. S. (1995). Acta Cryst. A51, 887-897)
Empirical absorption correction using spherical harmonics,
 implemented in SCALE3 ABSPACK scaling algorithm.
;
_exptl_crystal_density_diffrn    5.425
_exptl_crystal_description       block
_exptl_crystal_F_000             920
_exptl_crystal_size_max          0.136
_exptl_crystal_size_mid          0.1
_exptl_crystal_size_min          0.05
_refine_diff_density_max         0.985
_refine_diff_density_min         -1.455
_refine_diff_density_rms         0.270
_refine_ls_abs_structure_details
;
 Classical Flack method preferred over Parsons because s.u. lower.
;
_refine_ls_abs_structure_Flack   -0.05(5)
_refine_ls_extinction_coef       0.0040(3)
_refine_ls_extinction_expression Fc^*^=kFc[1+0.001xFc^2^\l^3^/sin(2\q)]^-1/4^
_refine_ls_extinction_method     'SHELXL-2017/1 (Sheldrick 2017)'
_refine_ls_goodness_of_fit_ref   1.046
_refine_ls_hydrogen_treatment    undef
_refine_ls_matrix_type           full
_refine_ls_number_parameters     101
_refine_ls_number_reflns         1189
_refine_ls_number_restraints     13
_refine_ls_restrained_S_all      1.043
_refine_ls_R_factor_all          0.0306
_refine_ls_R_factor_gt           0.0291
_refine_ls_shift/su_max          0.000
_refine_ls_shift/su_mean         0.000
_refine_ls_structure_factor_coef Fsqd
_refine_ls_weighting_details
'w=1/[\s^2^(Fo^2^)+(0.0324P)^2^] where P=(Fo^2^+2Fc^2^)/3'
_refine_ls_weighting_scheme      calc
_refine_ls_wR_factor_gt          0.0632
_refine_ls_wR_factor_ref         0.0644
_reflns_Friedel_coverage         0.581
_reflns_Friedel_fraction_full    0.696
_reflns_Friedel_fraction_max     0.643
_reflns_number_gt                1141
_reflns_number_total             1189
_reflns_threshold_expression     'I > 2\s(I)'
_iucr_refine_instructions_details
;
TITL 1_a.res in Pna2(1)
    1.res
    created by SHELXL-2017/1 at 17:25:26 on 14-Jan-2021
REM Old TITL 1 in Pna2(1)
REM SHELXT solution in Pna2(1)
REM R1 0.051, Rweak 0.003, Alpha 0.002, Orientation as input
REM Flack x = -0.016 ( 0.064 ) from Parsons' quotients
REM Formula found by SHELXT: O6 F5 I1 Ce
CELL 0.71073 8.0451 6.8485 11.7325 90 90 90
ZERR 4 0.0008 0.0005 0.001 0 0 0
LATT -1
SYMM -X,-Y,0.5+Z
SYMM 0.5+X,0.5-Y,+Z
SYMM 0.5-X,0.5+Y,0.5+Z
SFAC Ce F I O
UNIT 4 8 8 24
ISOR 0.003 0.006 O1 O5

L.S. 40
PLAN  20
SIZE 0.05 0.1 0.136
list 4
fmap 2 53
acta
SHEL 999 0.78
OMIT 4 6 3
OMIT 1 2 1
REM <olex2.extras>
REM <HklSrc "%.\\1.hkl">
REM </olex2.extras>

WGHT    0.032400
EXTI    0.003987
FVAR       0.22201
CE1   1    0.177571    0.379779    0.585381    11.00000    0.00355    0.00489 =
         0.00465   -0.00009   -0.00036    0.00009
I2    3    0.299647    0.837300    0.413431    11.00000    0.00511    0.00499 =
         0.00422   -0.00066   -0.00016    0.00032
I1    3    0.077031    0.872400    0.728908    11.00000    0.00415    0.00532 =
         0.00412   -0.00005   -0.00049    0.00086
F1    2    0.195147    0.236183    0.426837    11.00000    0.00709    0.00933 =
         0.01012   -0.00435    0.00104    0.00304
F2    2    0.422608    0.233079    0.593061    11.00000    0.00795    0.00571 =
         0.01129    0.00018    0.00285    0.00053
O5    4    0.331667    0.608706    0.489779    11.00000    0.01058    0.00788 =
         0.00668    0.00342    0.00244   -0.00041
O3    4    0.040756    0.626245    0.677357    11.00000    0.01072    0.00357 =
         0.01473    0.00122   -0.00128    0.00105
O4    4    0.500060    0.939466    0.438777    11.00000    0.00771    0.01273 =
         0.01053    0.00711   -0.00384   -0.00494
O6    4    0.346743    0.738095    0.271933    11.00000    0.00933    0.00577 =
         0.00512    0.00278   -0.00033    0.00423
O1    4    0.163176    0.977912    0.603296    11.00000    0.00804    0.00714 =
         0.00587    0.00002    0.00224   -0.00372
O2    4   -0.134886    0.955330    0.725280    11.00000    0.00595    0.00904 =
         0.00549   -0.00088    0.00252    0.00198
HKLF 4




REM  1_a.res in Pna2(1)
REM R1 =  0.0291 for    1141 Fo > 4sig(Fo)  and  0.0306 for all    1189 data
REM    101 parameters refined using     13 restraints

END  
     
WGHT      0.0324      0.0000 

REM Highest difference peak  0.985,  deepest hole -1.455,  1-sigma level  0.270
Q1    1   0.3213  0.6983  0.5256  11.00000  0.05    0.99
Q2    1   0.0825  0.7147  0.8330  11.00000  0.05    0.98
Q3    1   0.0810  0.7665  0.7610  11.00000  0.05    0.91
Q4    1   0.3197  0.8525  0.5354  11.00000  0.05    0.87
Q5    1   0.1850  0.5395  0.5799  11.00000  0.05    0.86
Q6    1   0.1678  0.2557  0.5591  11.00000  0.05    0.82
Q7    1   0.4776  1.0150  0.4085  11.00000  0.05    0.82
Q8    1   0.5007  0.7894  0.2921  11.00000  0.05    0.80
Q9    1  -0.1039  0.9758  0.8194  11.00000  0.05    0.79
Q10   1   0.3166  0.6539  0.4081  11.00000  0.05    0.79
Q11   1   0.0993  0.5021  0.5393  11.00000  0.05    0.78
Q12   1   0.0485  0.1034  0.4021  11.00000  0.05    0.78
Q13   1  -0.2011  0.8609  0.7201  11.00000  0.05    0.78
Q14   1   0.4878  0.3288  0.4798  11.00000  0.05    0.76
Q15   1   0.0648  0.7259  0.6376  11.00000  0.05    0.76
Q16   1   0.0806  0.9972  0.7554  11.00000  0.05    0.75
Q17   1   0.0816  0.7262  0.7376  11.00000  0.05    0.75
Q18   1   0.2311  0.1102  0.4206  11.00000  0.05    0.75
Q19   1   0.2276  0.7248  0.3578  11.00000  0.05    0.75
Q20   1   0.0716  1.0064  0.5981  11.00000  0.05    0.74

  REM The information below was added by Olex2.
  REM
  REM R1 = 0.0291 for 1141 Fo > 4sig(Fo) and 0.0306 for all 5411 data
  REM n/a parameters refined using n/a restraints
  REM Highest difference peak 0.99, deepest hole -1.46
  REM Mean Shift 0, Max Shift 0.000.

  REM +++ Tabular Listing of Refinement Information +++
  REM R1_all = 0.0306
  REM R1_gt = 0.0291
  REM wR_ref = 0.0644
  REM GOOF = 1.046
  REM Shift_max = 0.000
  REM Shift_mean = 0
  REM Reflections_all = 5411
  REM Reflections_gt = 1141
  REM Parameters = n/a
  REM Hole = -1.46
  REM Peak = 0.99
  REM Flack = -0.08(7)

  
;
_cod_data_source_file            cm1c00222_si_002.cif
_cod_data_source_block           1
_cod_database_code               4003917
_shelx_shelxl_version_number     2017/1
_chemical_oxdiff_formula         'Ce F I O'
_shelx_space_group_comment
;
The symmetry employed for this shelxl refinement is uniquely defined
by the following loop, which should always be used as a source of
symmetry information in preference to the above space-group names.
They are only intended as comments.
;
_shelx_estimated_absorpt_t_max   0.490
_shelx_estimated_absorpt_t_min   0.211
_reflns_odcompleteness_completeness 99.89
_reflns_odcompleteness_iscentric 1
_reflns_odcompleteness_theta     27.04
_olex2_refinement_description
;
1. Uiso/Uaniso restraints and constraints
Uanis(O1) \\sim Ueq, Uanis(O5) \\sim Ueq: with sigma of 0.003 and sigma for
terminal atoms of 0.006
;
_olex2_submission_special_instructions 'No special instructions were received'
_oxdiff_exptl_absorpt_empirical_details
;
Empirical correction (ABSPACK) includes:
- Absorption correction using spherical harmonics
- Frame scaling
;
_oxdiff_exptl_absorpt_empirical_full_max 1.590
_oxdiff_exptl_absorpt_empirical_full_min 0.613
loop_
_space_group_symop_operation_xyz
'x, y, z'
'-x, -y, z+1/2'
'x+1/2, -y+1/2, z'
'-x+1/2, y+1/2, z+1/2'
loop_
_atom_site_label
_atom_site_type_symbol
_atom_site_fract_x
_atom_site_fract_y
_atom_site_fract_z
_atom_site_U_iso_or_equiv
_atom_site_adp_type
_atom_site_occupancy
_atom_site_site_symmetry_order
_atom_site_calc_flag
_atom_site_refinement_flags_posn
_atom_site_refinement_flags_adp
_atom_site_refinement_flags_occupancy
_atom_site_disorder_assembly
_atom_site_disorder_group
Ce1 Ce 0.17757(12) 0.37978(11) 0.58538(7) 0.0044(2) Uani 1 1 d . . . . .
I2 I 0.29965(13) 0.83730(12) 0.41343(9) 0.0048(2) Uani 1 1 d . . . . .
I1 I 0.07703(12) 0.87240(12) 0.72891(7) 0.0045(3) Uani 1 1 d . . . . .
F1 F 0.1951(9) 0.2362(11) 0.4268(8) 0.0088(18) Uani 1 1 d . . . . .
F2 F 0.4226(10) 0.2331(11) 0.5931(8) 0.0083(18) Uani 1 1 d . . . . .
O5 O 0.3317(14) 0.6087(14) 0.4898(9) 0.008(2) Uani 1 1 d . U . . .
O3 O 0.0408(14) 0.6262(13) 0.6774(10) 0.010(2) Uani 1 1 d . . . . .
O4 O 0.5001(14) 0.9395(14) 0.4388(9) 0.010(2) Uani 1 1 d . . . . .
O6 O 0.3467(12) 0.7381(14) 0.2719(9) 0.007(2) Uani 1 1 d . . . . .
O1 O 0.1632(13) 0.9779(14) 0.6033(8) 0.007(2) Uani 1 1 d . U . . .
O2 O -0.1349(13) 0.9553(14) 0.7253(8) 0.007(2) Uani 1 1 d . . . . .
loop_
_atom_site_aniso_label
_atom_site_aniso_U_11
_atom_site_aniso_U_22
_atom_site_aniso_U_33
_atom_site_aniso_U_23
_atom_site_aniso_U_13
_atom_site_aniso_U_12
Ce1 0.0035(4) 0.0049(4) 0.0047(4) -0.0001(3) -0.0004(3) 0.0001(3)
I2 0.0051(4) 0.0050(4) 0.0042(5) -0.0007(4) -0.0002(4) 0.0003(4)
I1 0.0042(5) 0.0053(4) 0.0041(5) -0.0001(4) -0.0005(4) 0.0009(3)
F1 0.007(4) 0.009(4) 0.010(5) -0.004(4) 0.001(4) 0.003(3)
F2 0.008(4) 0.006(4) 0.011(4) 0.000(4) 0.003(4) 0.001(3)
O5 0.011(4) 0.008(4) 0.007(4) 0.003(3) 0.002(3) 0.000(3)
O3 0.011(6) 0.004(5) 0.015(6) 0.001(4) -0.001(5) 0.001(4)
O4 0.008(6) 0.013(5) 0.011(6) 0.007(5) -0.004(4) -0.005(4)
O6 0.009(6) 0.006(5) 0.005(5) 0.003(4) 0.000(4) 0.004(4)
O1 0.008(3) 0.007(3) 0.006(3) 0.000(3) 0.002(3) -0.004(3)
O2 0.006(5) 0.009(5) 0.005(5) -0.001(5) 0.003(4) 0.002(4)
loop_
_atom_type_symbol
_atom_type_description
_atom_type_scat_dispersion_real
_atom_type_scat_dispersion_imag
_atom_type_scat_source
Ce Ce -0.2486 2.6331 'International Tables Vol C Tables 4.2.6.8 and 6.1.1.4'
F F 0.0171 0.0103 'International Tables Vol C Tables 4.2.6.8 and 6.1.1.4'
I I -0.4742 1.8119 'International Tables Vol C Tables 4.2.6.8 and 6.1.1.4'
O O 0.0106 0.0060 'International Tables Vol C Tables 4.2.6.8 and 6.1.1.4'
loop_
_exptl_crystal_face_index_h
_exptl_crystal_face_index_k
_exptl_crystal_face_index_l
_exptl_crystal_face_perp_dist
-8 -6 6 0.0312
-6 -1 14 0.0265
-1 -7 -11 0.0403
0 -8 8 0.0411
-11 -1 3 0.0333
-1 -10 -1 0.0398
-9 -1 9 0.0250
2 7 -12 0.0313
-6 -6 11 0.0233
-2 9 3 0.0500
-11 2 2 0.0349
-9 1 10 0.0252
10 3 -6 0.0177
3 0 -16 0.0385
loop_
_geom_angle_atom_site_label_1
_geom_angle_atom_site_label_2
_geom_angle_atom_site_label_3
_geom_angle
_geom_angle_site_symmetry_1
_geom_angle_site_symmetry_3
_geom_angle_publ_flag
F1 Ce1 F2 86.3(3) . 3_455 ?
F1 Ce1 F2 76.4(3) . . ?
F1 Ce1 O5 81.4(3) . . ?
F1 Ce1 O3 142.5(4) . . ?
F1 Ce1 O4 70.7(3) . 3_465 ?
F1 Ce1 O6 128.4(3) . 4_545 ?
F1 Ce1 O1 66.8(3) . 1_545 ?
F1 Ce1 O2 138.6(3) . 3_565 ?
F2 Ce1 F2 132.13(6) 3_455 . ?
F2 Ce1 O5 81.3(3) . . ?
F2 Ce1 O5 140.1(4) 3_455 . ?
F2 Ce1 O3 77.9(4) 3_455 . ?
F2 Ce1 O3 138.1(4) . . ?
F2 Ce1 O4 138.1(3) . 3_465 ?
F2 Ce1 O4 71.1(3) 3_455 3_465 ?
F2 Ce1 O6 75.2(3) 3_455 4_545 ?
F2 Ce1 O6 81.5(3) . 4_545 ?
F2 Ce1 O1 66.8(3) 3_455 1_545 ?
F2 Ce1 O1 65.3(3) . 1_545 ?
F2 Ce1 O2 69.0(3) . 3_565 ?
F2 Ce1 O2 134.2(3) 3_455 3_565 ?
O5 Ce1 O4 69.0(4) . 3_465 ?
O5 Ce1 O6 140.0(4) . 4_545 ?
O5 Ce1 O1 137.8(3) . 1_545 ?
O5 Ce1 O2 71.7(4) . 3_565 ?
O3 Ce1 O5 89.2(4) . . ?
O3 Ce1 O4 72.0(4) . 3_465 ?
O3 Ce1 O6 80.2(4) . 4_545 ?
O3 Ce1 O1 132.8(3) . 1_545 ?
O3 Ce1 O2 69.3(4) . 3_565 ?
O4 Ce1 O1 120.7(3) 3_465 1_545 ?
O6 Ce1 O4 139.8(4) 4_545 3_465 ?
O6 Ce1 O1 61.6(3) 4_545 1_545 ?
O6 Ce1 O2 68.5(3) 4_545 3_565 ?
O2 Ce1 O4 124.1(3) 3_565 3_465 ?
O2 Ce1 O1 115.2(3) 3_565 1_545 ?
O5 I2 O6 95.6(4) . . ?
O4 I2 O5 97.3(5) . . ?
O4 I2 O6 96.3(5) . . ?
O1 I1 O3 99.4(5) . . ?
O1 I1 O2 102.8(4) . . ?
O2 I1 O3 97.6(5) . . ?
Ce1 F2 Ce1 172.1(4) 3 . ?
I2 O5 Ce1 138.8(6) . . ?
I1 O3 Ce1 140.0(6) . . ?
I2 O4 Ce1 143.9(6) . 3_565 ?
I2 O6 Ce1 131.2(5) . 4_554 ?
I1 O1 Ce1 118.9(4) . 1_565 ?
I1 O2 Ce1 137.0(5) . 3_465 ?
loop_
_geom_bond_atom_site_label_1
_geom_bond_atom_site_label_2
_geom_bond_distance
_geom_bond_site_symmetry_2
_geom_bond_publ_flag
Ce1 F1 2.109(9) . ?
Ce1 F2 2.194(8) 3_455 ?
Ce1 F2 2.214(8) . ?
Ce1 O5 2.292(10) . ?
Ce1 O3 2.286(10) . ?
Ce1 O4 2.555(10) 3_465 ?
Ce1 O6 2.402(10) 4_545 ?
Ce1 O1 2.763(10) 1_545 ?
Ce1 O2 2.499(10) 3_565 ?
I2 O5 1.822(10) . ?
I2 O4 1.783(11) . ?
I2 O6 1.833(10) . ?
I1 O3 1.815(10) . ?
I1 O1 1.782(10) . ?
I1 O2 1.798(10) . ?
loop_
_refln_index_h
_refln_index_k
_refln_index_l
_refln_F_squared_meas
_refln_F_squared_sigma
0 0 -16 1165.66 89.72
0 0 -15 27.81 13.98
0 0 -14 766 67.88
0 0 -13 8.14 8.05
0 0 -12 2429.5 111.66
0 0 -11 10.96 7.79
0 0 -10 1375.05 76.02
0 0 -9 11.26 7.41
0 0 -8 1009.94 45.94
0 0 -8 1135 61.11
0 0 -7 4.34 3.69
0 0 -7 -6 4.71
0 0 -6 8341.53 112.39
0 0 -6 7929.66 138.05
0 0 -5 2.75 4.1
0 0 -5 2.96 2.95
0 0 -5 4.96 4.07
0 0 -4 750.86 27.62
0 0 -4 748.12 34.3
0 0 -4 723.65 34.21
0 0 -3 -0.12 3.45
0 0 -3 -0.53 2.65
0 0 -3 2.68 2.95
0 0 -2 470.37 19.4
0 0 -2 490.28 15.88
0 0 2 455.51 18.77
0 0 2 501.88 16.68
0 0 3 3.92 2.89
0 0 3 1.3 2.9
0 0 4 829.16 30.82
0 0 4 816.96 35.42
0 0 5 2.26 3.14
0 0 5 27.97 6.72
0 0 6 9482.11 148.83
0 0 6 9999 132.5
0 0 7 9.44 5.43
0 0 8 1331.29 57.54
0 0 8 1318.33 65.11
0 0 9 1.97 3.98
0 0 9 3.45 4.6
0 0 10 1692.75 84.07
0 -1 -16 -7.64 8.92
0 1 -15 687.45 62.28
0 -1 -15 745.69 75.51
0 1 -14 -7.62 6.53
0 -1 -14 -16.85 11.02
0 -1 -13 857.25 74.46
0 1 -13 817.89 62.71
0 -1 -12 1.24 2.83
0 1 -12 9.19 6.86
0 1 -12 11.51 7.19
0 -1 -11 376.46 45.46
0 1 -11 364.17 38.42
0 1 -11 363.51 35.36
0 -1 -10 -0.26 5.07
0 1 -10 3.56 4.44
0 1 -10 1.41 3.39
0 -1 -9 2710.03 109.03
0 1 -9 2687.42 92.53
0 1 -9 2415.88 81.95
0 1 -8 3.45 4.03
0 -1 -8 -1.08 5.26
0 1 -8 5.94 5.54
0 -1 -8 8.97 8.36
0 1 -7 718.65 41.37
0 -1 -7 703.12 48.55
0 -1 -7 630.08 46.76
0 1 -7 603.23 36.35
0 1 -6 12.73 5.27
0 1 -6 -0.53 2.64
0 -1 -6 3.82 5.26
0 1 -5 912.11 38.25
0 -1 -5 968.33 49.36
0 1 -5 865.35 37.67
0 1 -4 1.33 2.1
0 1 -4 2.67 4.22
0 -1 -4 2.29 4.31
0 1 -3 5519.28 70.38
0 1 -3 6155.75 82.12
0 1 -2 4.06 2.97
0 1 -2 3.55 2.21
0 1 -1 81.56 7.95
0 -1 -1 81.58 8.64
0 1 0 3.36 2.05
0 -1 0 1.7 1.61
0 1 0 4.65 2.52
0 -1 1 76.14 6.77
0 1 1 75.19 8.42
0 -1 1 83.97 8.36
0 -1 2 4 1.97
0 1 2 1.33 3.53
0 1 3 5532.45 95.24
0 -1 3 5378.46 64.47
0 -1 3 5356.26 64.62
0 1 4 2.67 2.27
0 1 4 5.36 4.6
0 -1 4 2.84 2.58
0 -1 4 1.3 1.99
0 -1 4 3.36 2.58
0 1 5 969.81 48.61
0 -1 5 866.38 38.67
0 -1 5 858.86 35.92
0 1 5 918.86 34.71
0 -1 6 -1 2.31
0 1 6 1.84 3.1
0 1 6 -4.6 3.27
0 1 7 726.03 38.43
0 -1 7 772.52 43.62
0 1 7 764.45 49.98
0 -1 7 748.11 41.77
0 -1 8 8.06 4.8
0 1 8 -5.37 4.07
0 -1 8 17.15 7.02
0 1 8 16.34 8.05
0 1 9 2965.67 112.15
0 -1 9 2824.89 96.33
0 1 9 3003.18 91.12
0 -1 9 2849.99 96.82
0 1 10 3.27 3.68
0 -1 10 1.02 2.03
0 -2 -15 2.33 5.97
0 -2 -14 143.1 33.52
0 2 -14 163.89 30.11
0 2 -14 145.75 24.71
0 2 -13 2.76 4.19
0 -2 -13 -7.68 8.29
0 2 -13 -5.51 4.7
0 2 -12 89.99 20.81
0 -2 -12 84.42 25.47
0 2 -12 110.05 20.15
0 -2 -11 -0.32 3.65
0 2 -11 9.92 6.76
0 2 -11 0.18 4.29
0 -2 -10 118.78 26.63
0 2 -10 65.59 15.67
0 2 -10 75.35 15.74
0 -2 -10 82.87 22.05
0 -2 -9 0.59 4.05
0 2 -9 5.07 5.02
0 -2 -9 1.77 3.62
0 2 -9 5.07 4.67
0 2 -8 330.98 31.9
0 2 -8 367.63 29.73
0 -2 -8 339.04 39.37
0 -2 -7 2.27 5.37
0 2 -7 11.06 6.7
0 2 -7 8.42 4.62
0 2 -6 302.44 23.37
0 2 -6 275.95 25.79
0 2 -5 -3.28 3.98
0 2 -5 2.33 2.87
0 -2 -4 191.15 22.2
0 2 -4 198.93 19.3
0 2 -4 184.17 15.69
0 2 -3 3.83 3.99
0 2 -3 1.1 2.04
0 -2 -3 -0.79 3.96
0 -2 -2 506.02 29.54
0 2 -2 470.7 27.14
0 -2 -1 5.99 4.31
0 2 -1 1.1 3.65
0 2 -1 4.54 2.89
0 -2 0 382.77 19.77
0 2 0 338.93 21.56
0 2 0 398.59 24.86
0 2 1 2.24 3.07
0 -2 1 0.54 2.39
0 -2 1 1.1 2.97
0 -2 2 445.63 22.31
0 -2 2 485.73 20.86
0 -2 2 495.94 29.05
0 2 2 479.66 30.15
0 -2 3 7.99 3.73
0 -2 3 5.44 2.57
0 2 3 6.1 4.24
0 -2 4 193.34 13.8
0 2 4 184.37 22.11
0 2 5 4.38 6.25
0 -2 5 4.27 2.75
0 -2 5 2.1 1.75
0 -2 6 294.98 21.71
0 2 6 334.84 22.78
0 2 6 363.37 35.09
0 -2 7 4.45 4.01
0 2 7 5.08 3.07
0 2 7 4.75 4.7
0 -2 7 -0.18 1.06
0 -2 8 378.63 35.41
0 2 8 463.37 45.07
0 -2 8 408.93 31.34
0 -2 9 0.19 1.99
0 2 9 8.94 5.35
0 2 10 107.64 18.27
0 -2 10 112.12 19.45
0 -2 11 6.05 4.86
0 3 -14 -3.23 6.98
0 -3 -14 -12.72 10.62
0 3 -13 141.86 28.21
0 -3 -13 127.47 33.29
0 3 -12 4.71 6.19
0 -3 -12 3.79 9.35
0 3 -12 -1.35 3.13
0 -3 -11 717.06 71.09
0 3 -11 747.03 46.56
0 3 -11 695 58.35
0 -3 -10 5.48 11.37
0 -3 -10 2.48 7.62
0 3 -10 -14.1 8.64
0 3 -10 -1.54 3.07
0 3 -9 879.58 59.88
0 3 -9 952.85 49.15
0 -3 -9 936.48 72.38
0 -3 -8 -3.26 6.08
0 3 -8 3.32 3.85
0 3 -7 8.53 4.08
0 3 -7 17.47 8.77
0 -3 -7 15.42 8.71
0 3 -6 2.12 2.85
0 3 -6 1.36 5.73
0 -3 -6 -8.7 6.35
0 3 -5 811.24 46.85
0 -3 -5 867.81 54.71
0 3 -5 846.34 35.76
0 3 -4 3.56 4.36
0 3 -3 3447.75 89.88
0 -3 -3 3047.56 88.38
0 3 -2 0.9 4.54
0 -3 -2 1.44 3.38
0 3 -1 350.1 27.88
0 -3 -1 336.52 24.52
0 3 -1 308.4 22.7
0 3 0 3.85 4.3
0 3 0 -3.54 3.75
0 -3 0 1.97 3.33
0 -3 1 289.77 28.84
0 3 1 277.11 24.22
0 -3 1 246.06 17.17
0 3 1 224.65 23.46
0 -3 2 -1.03 2.21
0 3 2 -1.86 4.3
0 -3 2 1.55 3.18
0 -3 3 3137.56 59.66
0 3 3 3042.43 95.84
0 -3 3 2918.79 66.13
0 -3 4 0.22 1.7
0 -3 4 5.34 4.07
0 -3 5 836.67 31.77
0 -3 5 896.17 50.25
0 -3 6 2.25 2.2
0 -3 6 1.05 2.02
0 -3 6 0.12 3.9
0 3 6 -6.22 5.43
0 -3 7 5.78 4.42
0 -3 7 9.12 4.28
0 3 8 11.67 5.13
0 -3 8 3.52 3.37
0 -3 9 964.85 48.81
0 3 9 970.63 50.56
0 3 10 3.3 3.17
0 -3 10 4.71 5.04
0 -3 11 713.95 48.92
0 -4 -13 24.57 15.38
0 4 -13 -8.48 8.26
0 -4 -12 1539.98 114.53
0 4 -12 1698.06 102.78
0 4 -11 13.58 9.01
0 -4 -11 -10.17 10.79
0 -4 -11 1.6 4.29
0 -4 -10 309.01 45.99
0 -4 -10 410.63 54.45
0 4 -10 298.73 40.01
0 4 -10 353.38 27.55
0 4 -9 5.14 3.51
0 -4 -9 -1.19 6.29
0 4 -9 3.42 4.84
0 4 -8 919.75 63.85
0 -4 -8 935.14 71.58
0 4 -8 968.96 42.01
0 -4 -7 1.15 3.37
0 4 -7 5.37 7.61
0 4 -6 2892.95 102.99
0 -4 -6 2719.39 108.73
0 4 -5 3.19 4.31
0 -4 -5 0.76 4.67
0 -4 -4 34.01 11.47
0 4 -4 42.58 11.96
0 4 -3 -1.79 4.84
0 4 -2 414.72 34.58
0 4 -1 -7.15 5.22
0 -4 -1 -1.05 3.75
0 4 -1 3.01 3.09
0 -4 0 4397.96 91.18
0 4 0 4254.97 111.06
0 4 1 4.49 4.34
0 -4 1 3.65 3.27
0 4 1 -2.82 4.5
0 -4 2 435.44 24.22
0 4 2 440.09 34.7
0 4 2 435.6 39.88
0 -4 2 479.65 35.41
0 -4 3 -0.91 2.71
0 -4 3 3.85 2.41
0 -4 3 8.56 6.04
0 -4 4 47.45 8.99
0 -4 4 60.3 14.91
0 4 4 45.65 15.12
0 -4 4 54.71 8.34
0 -4 5 4.09 2.7
0 -4 5 8.19 3.99
0 4 5 -0.44 4.71
0 -4 5 5.72 5.11
0 4 6 2909.65 123.69
0 -4 6 3037 68.93
0 -4 6 3036.09 63.09
0 -4 6 2951.71 56.03
0 -4 7 8.62 3.41
0 -4 7 -1.27 1.72
0 4 8 971.82 46.85
0 -4 8 1128.8 42.76
0 4 9 7.87 5.19
0 -4 9 5.6 4.37
0 4 10 375.84 33.27
0 5 -12 8.3 9.84
0 -5 -12 24.74 15.52
0 -5 -11 101.99 29.43
0 -5 -11 63.17 22.8
0 5 -11 84.89 24.24
0 -5 -10 5.78 7.6
0 5 -10 -3.79 6.27
0 5 -9 1802.58 101.75
0 -5 -9 1672.63 105.27
0 5 -8 16.97 10.44
0 -5 -8 -14.29 9.41
0 5 -7 455.67 46.7
0 -5 -7 486.47 51.29
0 -5 -6 8.83 6.68
0 5 -6 5.01 7.12
0 -5 -5 8.77 6.78
0 5 -5 7.99 7.21
0 -5 -4 5.35 6.6
0 5 -4 3.76 5.71
0 -5 -3 2893.88 100.35
0 5 -3 3232.91 109.83
0 5 -2 0.33 3.24
0 -5 -2 -5.05 5.74
0 5 -1 139.9 21.69
0 5 -1 121.17 18.27
0 5 0 0.13 4.02
0 5 0 12.19 7.78
0 -5 0 0.28 3.55
0 5 1 145.58 23.08
0 5 1 94.69 20.23
0 -5 1 124.16 16.48
0 5 2 -5.64 6.38
0 5 2 -1.02 4.73
0 -5 2 8.19 4.43
0 -5 2 2.04 4.55
0 -5 3 3836.8 72.89
0 -5 3 3910.83 140.78
0 -5 3 3242.51 97.33
0 5 3 3030.8 102.98
0 5 3 3282.08 129.73
0 -5 4 9.29 4.91
0 5 4 9.61 7.93
0 -5 4 2.54 1.92
0 -5 5 11.56 3.58
0 -5 5 9.22 5.24
0 -5 6 2.26 2.04
0 -5 6 1.84 1.32
0 -5 6 3.2 3.06
0 -5 7 499.07 21.18
0 -5 7 502.74 25.21
0 -5 7 555.51 20.78
0 -5 8 2.22 1.95
0 -5 8 2.73 1.91
0 5 9 1778.78 68.13
0 -5 9 1783.55 48.66
0 -6 -11 4.41 6.1
0 -6 -11 7.12 8.56
0 6 -11 11.79 9.84
0 -6 -10 517.34 66.41
0 -6 -10 461.7 60.65
0 6 -10 544.32 63.53
0 6 -9 -5.75 8.05
0 -6 -9 -2.25 5.97
0 6 -8 408.13 49.95
0 -6 -8 474.53 55.04
0 -6 -7 10.83 9.84
0 6 -7 10.81 8.95
0 -6 -6 297.24 40.22
0 6 -6 260.37 37.11
0 -6 -5 -3.71 6.97
0 6 -5 7.05 8.14
0 -6 -4 533.68 48.44
0 6 -4 582.45 52.35
0 6 -3 -5.17 7.23
0 -6 -3 -1.87 3.01
0 -6 -2 451.63 40.48
0 6 -2 453.92 44.67
0 -6 -1 1.59 4.08
0 6 -1 -1.14 5.07
0 6 0 177.22 26.48
0 6 0 195 28.61
0 6 1 -11.41 7.64
0 6 1 5.08 6.85
0 -6 1 3.22 3.58
0 6 2 550.7 54.98
0 6 2 448.39 43.36
0 -6 2 600.42 35.46
0 -6 2 521.4 47.14
0 6 3 16.69 9.57
0 -6 3 -0.04 2.19
0 -6 3 8.44 5.96
0 6 3 8.39 7.3
0 6 4 575.16 49.23
0 -6 4 736.78 30.84
0 -6 4 630.72 42.83
0 -6 5 1.99 1.42
0 -6 5 -3.27 3.02
0 6 5 -5.07 5.36
0 -6 6 310.9 22.97
0 -7 -9 84 26.1
0 7 -9 69.76 22.75
0 7 -8 1.26 4.16
0 -7 -8 0.65 3.12
0 -7 -7 461.65 54.82
0 7 -7 521.77 58.48
0 -7 -6 -14.54 10.11
0 7 -6 17.21 10.32
0 7 -5 2146.26 110.9
0 -7 -5 1826.45 99.63
0 -7 -4 5.85 7.9
0 7 -4 11.8 9.6
0 7 -3 218.19 33.99
0 -7 -3 220.07 31.79
0 7 -2 4.5 8.14
0 -7 -2 4.71 4.41
0 -7 -1 1142.74 64.69
0 7 -1 1002.34 70.43
0 7 0 -8.44 6.24
0 -7 0 -1.37 3.07
0 7 0 -6.69 5.94
0 7 1 1099.8 71.37
0 -7 1 1200.25 83.51
0 -7 1 1326.48 61.43
0 7 1 1069.54 74
0 7 2 7.86 6.69
0 -7 2 4.17 4.13
0 -7 2 -0.26 4.27
0 -7 3 240.46 21.95
0 7 3 178.02 29.91
0 7 4 13.35 9.11
0 7 5 2035.95 100.06
0 7 6 5.7 6.77
0 7 7 493.99 51.08
0 -8 -8 1235.3 97.73
0 -8 -7 1.94 4.6
0 8 -7 -17.77 11.55
0 8 -6 757.7 72.78
0 -8 -6 745.52 69.91
0 -8 -5 1.19 8.43
0 8 -5 -0.17 8.88
0 -8 -4 242.71 36.63
0 8 -4 235.7 39.06
0 8 -3 -7.5 6.94
0 -8 -3 -10.34 7.4
0 -8 -2 1194.69 74.31
0 8 -2 977.16 75.47
0 -8 -1 -1.59 3.2
0 8 -1 3.54 8.2
0 8 0 1476.64 90.44
0 -8 0 1606.26 78.33
0 8 1 5.31 6.96
0 8 2 1124.49 77.03
0 8 3 -4.63 6.66
0 8 4 232.73 35.36
0 8 5 -6.02 6.48
0 -9 -6 -1.85 4.57
0 -9 -5 243.59 40.37
0 -9 -4 -7.63 7.59
0 9 -4 -10.71 11.1
0 9 -3 557.48 62.26
0 9 -2 -18.83 12.79
0 9 -1 88.14 24.21
0 9 0 15.62 9.97
0 9 1 66.39 20.28
-1 0 -16 -15.56 10.99
1 0 -15 -8.68 7.5
-1 0 -15 6.26 8.32
1 0 -14 -14.94 9.44
-1 0 -14 -7.9 7.34
1 0 -13 4.37 4.94
-1 0 -13 12.18 8.63
-1 0 -12 2.35 4.55
1 0 -12 -0.12 2.8
-1 0 -11 -12.35 8.58
1 0 -11 -7.58 6.86
1 0 -10 -2.33 4.78
1 0 -10 2.73 4.08
1 0 -9 -3.76 6.26
1 0 -9 0.28 3.03
-1 0 -9 -4.62 6.85
1 0 -9 1.9 3.93
1 0 -8 1.61 4.76
-1 0 -8 -9.1 7.39
1 0 -8 0.49 3.61
1 0 -8 0.61 3.45
1 0 -7 -3.51 5.85
-1 0 -7 10.06 6.95
1 0 -7 5.13 3.87
-1 0 -6 0.17 4.08
1 0 -6 3.38 2.99
1 0 -6 2.55 4.29
-1 0 -5 -5.56 5.08
1 0 -5 2.72 3.69
1 0 -5 -1.64 2.41
1 0 -4 4.81 4.85
1 0 -4 1.52 2.33
-1 0 -4 -6.28 5
1 0 -3 0.57 3.91
1 0 -3 6.45 2.94
-1 0 -3 2.56 3.67
1 0 -2 0.25 1.73
1 0 -2 3.13 3.94
-1 0 -2 2.36 3.23
1 0 -1 3.81 2.88
1 0 -1 3.97 2.1
1 0 0 -2.89 2.2
-1 0 0 3.02 2.46
1 0 1 0.39 1.42
-1 0 1 1.59 2.12
-1 0 2 1.94 3.06
1 0 2 4.35 3.19
-1 0 3 -0.26 1.67
-1 0 3 0.19 2.86
1 0 3 4.61 3.61
1 0 4 1.46 1.98
1 0 4 -1.38 1.84
-1 0 4 0.97 1.73
-1 0 4 2.08 2.89
1 0 4 0.34 2.82
1 0 5 1.77 2.38
-1 0 5 -1.94 2.32
1 0 5 2.04 2.94
1 0 5 4.21 3.04
-1 0 5 1.06 3.1
-1 0 6 3.98 2.85
1 0 6 2.18 3.56
-1 0 7 3.07 2.41
1 0 7 0.15 2.38
-1 0 7 2.63 4
1 0 7 -2.85 4.08
1 0 8 -0.04 3.52
1 0 8 8.02 3.93
-1 0 8 -0.19 2.44
-1 0 8 10.65 6.38
1 0 9 2.95 3.94
-1 0 9 -0.19 1.22
-1 0 9 5.43 4.63
1 0 9 6.1 5.5
-1 0 10 2.98 5.27
-1 0 10 5.29 4.27
1 -1 -16 93.13 26.67
-1 -1 -16 174.11 39.86
-1 1 -15 345.69 46.44
-1 -1 -15 359.21 54.68
1 -1 -15 300.59 46.7
1 1 -14 45.88 13.65
1 -1 -14 32.94 16.06
-1 -1 -14 51.17 19.6
-1 1 -14 51.05 17.19
-1 -1 -13 273.56 43.17
-1 1 -13 183.86 31.76
1 1 -13 220.45 31.43
1 1 -13 200.05 29.79
1 -1 -13 192.99 34.78
-1 1 -12 429.58 46.3
1 -1 -12 370.43 46.3
-1 -1 -12 404.96 50.96
1 1 -12 307.74 34.89
1 1 -12 371.08 38.21
1 1 -11 184.44 25.78
1 -1 -11 227.08 35.28
1 1 -11 236.07 29.49
-1 1 -11 263.73 35.23
1 -1 -11 266.64 37.66
-1 -1 -11 233.26 36.86
1 -1 -10 465.37 48.97
1 1 -10 487.87 40.12
-1 -1 -10 502.79 50.81
1 1 -10 464.6 38.62
1 -1 -10 526.93 50.03
-1 1 -10 460.4 44.09
-1 -1 -9 1283.27 76.61
-1 1 -9 1257.68 68.66
1 -1 -9 1183.17 74.35
1 1 -9 1339.37 61.73
1 1 -9 1128.51 57.62
-1 1 -9 1182.82 56.92
-1 1 -8 605.07 38.29
1 -1 -8 625.37 50.87
-1 -1 -8 673.77 52.43
1 1 -8 599.34 39.72
1 1 -8 648.07 39.77
-1 1 -8 614.31 45.28
-1 1 -7 169.06 19.01
1 -1 -7 184.38 26.1
-1 1 -7 218.57 25.49
-1 -1 -7 216.06 27.81
1 1 -7 191.98 19.86
1 1 -7 223.36 23
-1 1 -6 237.39 21.12
-1 -1 -6 282.55 29.65
1 1 -6 250.5 20.58
-1 1 -6 271.5 25.92
1 1 -6 235.86 22.01
1 -1 -6 273.26 29.66
1 1 -6 235.75 21.75
-1 -1 -5 152.71 20.17
-1 1 -5 133.88 14.87
1 1 -5 146.1 13.67
1 1 -5 122.49 14.88
1 1 -5 146.13 15.31
1 -1 -5 128.26 19.24
-1 1 -5 149.71 17.96
-1 1 -4 1127.34 39.24
1 1 -4 1192.14 37.37
-1 -1 -4 1097.12 48.74
1 1 -4 1224.17 33.05
-1 1 -4 1256.55 47.49
1 1 -4 1146.06 42.41
1 -1 -4 1208.36 52.6
1 1 -3 2307.27 42.33
1 -1 -3 2349.51 67.25
-1 1 -3 2385.86 51.41
-1 1 -3 2241.14 59.97
1 1 -3 2343.48 58.2
1 1 -2 1311.72 24.28
1 1 -2 1337.23 43.99
-1 1 -2 1309.65 33.35
-1 1 -2 1210.17 42.01
-1 -1 -1 237.31 15.08
-1 1 -1 247.38 18.92
1 1 -1 253.47 18.63
-1 1 -1 248.68 12.29
1 -1 0 17.57 2.57
1 -1 0 16.46 5.57
1 1 0 13.81 3.21
-1 1 0 15.67 5.11
-1 1 0 16.41 2.48
-1 -1 0 16.68 3.57
1 -1 0 18.85 6.38
1 1 1 232.58 15.42
1 -1 1 240.73 18.76
-1 1 1 227.69 19.55
1 -1 1 241.67 12.13
-1 1 2 1194.3 46.02
-1 -1 2 1149.27 24.74
1 -1 2 1149.44 31.72
1 -1 2 1114.46 38.97
-1 -1 2 1200.98 43.13
1 1 2 1107.99 37.76
1 -1 3 2113.59 56.33
-1 1 3 2260.18 66.85
-1 -1 3 2262.9 58.53
-1 1 3 2178.41 33.12
-1 -1 3 2313.58 42.2
1 1 3 2124.07 59.69
1 -1 3 2230.45 50.6
-1 1 4 1308.52 54.24
-1 -1 4 1197.94 36.65
1 -1 4 1242.25 45.23
-1 1 4 1124.64 30.33
1 1 4 1181.08 49.57
-1 -1 4 1238.05 44.18
-1 1 5 100.36 16.34
-1 -1 5 96.69 12.06
1 1 5 107.7 16.57
-1 -1 5 110.08 14.23
-1 1 5 109.06 11.06
1 1 5 115.07 13.63
1 -1 5 95.35 13.59
1 -1 6 267.42 24.2
-1 1 6 269.17 19.55
1 -1 6 289.92 25.31
1 1 6 312.16 24.34
-1 1 6 307.48 30.23
1 1 6 319.2 30.63
-1 -1 6 257.69 21.9
1 -1 7 274.48 26.38
-1 -1 7 225.66 22.65
1 -1 7 251.35 25.93
-1 1 7 250.38 29.5
1 -1 7 256.6 25.39
-1 -1 7 256 25.41
1 1 7 298.77 31.83
-1 1 7 259.83 21.32
1 1 8 740.21 44.69
1 1 8 731.17 53.61
-1 -1 8 670.35 43.98
-1 1 8 685.89 51.6
-1 -1 8 654.3 41.74
1 -1 8 738.78 47.23
1 -1 8 655.09 43.56
-1 -1 9 1417.62 68.94
-1 1 9 1419.8 60.06
-1 1 9 1471.55 80.17
1 1 9 1556.59 69.68
1 -1 9 1430.53 70.48
-1 -1 9 1442.57 67.76
-1 -1 10 502.81 43.23
1 -1 10 527.51 45.97
-1 1 10 518.44 39.51
-1 1 11 251.43 29.2
-1 -1 11 260.51 33.55
1 2 -15 577.41 59.87
1 -2 -15 547.02 67.08
-1 -2 -15 671.96 77.28
1 2 -14 267.38 39.04
-1 -2 -14 235.25 43.88
1 -2 -14 250.13 44.34
-1 2 -14 178.74 30.66
1 2 -13 498.88 41.66
1 2 -13 526.56 52.12
-1 -2 -13 442.17 58.6
1 -2 -13 500.75 59.69
-1 2 -13 527.36 50.76
1 2 -12 1410.44 67.26
1 -2 -12 1351.54 96.75
-1 2 -12 1474.58 79.94
-1 -2 -12 1511.08 103.73
-1 2 -12 1350.15 77.56
1 -2 -12 1495.13 99.28
1 2 -12 1341.26 80.12
1 2 -11 323.98 37.83
-1 2 -11 298.49 34.31
-1 2 -11 407.05 41.19
1 -2 -11 294.98 43.55
1 2 -11 366.11 32.79
-1 -2 -11 350.37 47.49
1 -2 -11 366.8 47.07
1 2 -10 625.77 40.92
-1 2 -10 565.03 44.53
-1 -2 -10 628.41 60.44
1 2 -10 546.92 46.79
-1 2 -10 624.51 48.59
1 -2 -10 605.21 59.88
1 2 -9 778.93 53.1
-1 2 -9 795.08 52.41
1 2 -9 818.51 43.23
-1 2 -9 730.4 48.46
1 -2 -9 807.42 65.25
-1 -2 -9 744.58 62.11
1 2 -8 393.87 27.63
1 -2 -8 386.7 42.73
1 2 -8 310.1 32.04
-1 2 -8 343.54 31.49
-1 2 -8 368.41 33.94
-1 -2 -8 393.79 42.59
-1 2 -7 1533.02 62.66
1 -2 -7 1614.18 82.41
1 2 -7 1549.72 67.12
1 2 -7 1627.14 50.07
-1 2 -7 1589.47 66.54
-1 -2 -7 1549.41 78.96
-1 2 -6 4265.06 98.64
-1 2 -6 4193.74 102.38
1 2 -6 4323.58 71.19
1 2 -6 4302.12 105.86
1 -2 -6 4123.73 124.06
1 2 -5 1646.54 36.64
1 2 -5 1633.96 62.98
-1 2 -5 1541.49 55.58
-1 2 -5 1642.24 61.04
-1 -2 -4 639.87 39.12
1 2 -4 697.93 39.95
-1 2 -4 676.49 34.16
-1 2 -4 695.07 38.85
-1 2 -3 62.69 11.7
-1 2 -3 68.96 10.29
-1 -2 -3 70.19 12.14
1 -2 -3 82.83 14.22
1 2 -3 44.05 10.21
1 -2 -2 281.16 25.04
-1 2 -2 274.01 22.97
1 2 -2 260.64 24.24
-1 -2 -2 294.58 21.69
-1 2 -2 263.65 17.77
1 2 -1 2094.03 66.2
-1 2 -1 1994.48 44.29
-1 -2 -1 1980.64 47.84
1 2 -1 2074.05 32.66
1 -2 0 3794.03 86.83
-1 2 0 4299.45 57.86
1 2 0 4108.86 62.92
-1 -2 0 4522.44 58.84
-1 2 0 3591.05 87.18
1 -2 0 4390.17 70.85
-1 2 1 1861.35 37.18
1 2 1 1883.97 50.97
1 -2 1 1836.32 61.41
-1 2 1 1733.37 64
1 -2 1 1906.78 59.76
1 -2 2 260.5 18.41
1 2 2 267.04 21.81
-1 2 2 262.7 25.77
1 -2 2 241.15 21.88
-1 2 3 57.04 12.82
1 2 3 59.54 11.63
1 -2 3 76.85 11.84
1 -2 3 62.78 9.89
-1 2 4 709.29 22.27
1 2 4 716.01 43.3
-1 2 4 759.05 48.15
1 -2 4 726.16 36.27
1 -2 4 736.34 37.02
-1 -2 4 691.95 20.11
-1 2 5 1554.52 39.18
-1 2 5 1754.06 77.38
-1 -2 5 1571.14 39.54
1 2 5 1783.39 74.26
1 -2 5 1657.95 56.77
-1 -2 6 4332.44 76.63
-1 2 6 4863.59 135.25
-1 2 6 4281.04 75.41
1 2 6 4872.8 129.63
-1 -2 6 4769.12 114.95
1 -2 6 4168.05 94.39
1 2 7 1981.95 88.62
-1 -2 7 1739.66 72.8
1 -2 7 1764.88 70.66
1 -2 7 1693.16 63.18
-1 -2 7 1706.94 54.97
-1 2 7 1610.65 51.04
-1 2 7 1873.66 87.76
1 2 7 1646.15 61.24
1 -2 7 1597.59 60.81
1 -2 8 393.06 32.39
1 2 8 398.01 42.51
-1 2 8 322.85 25.16
1 2 8 419.33 33.42
-1 -2 8 386.27 29.29
-1 -2 8 373.02 35.52
1 -2 8 352.02 31.29
1 -2 8 402.21 35.94
-1 2 8 410.75 43.8
1 -2 9 952.8 55.15
-1 -2 9 982.57 51.39
1 2 9 1089.12 57.66
-1 2 10 727.57 44.43
1 -2 10 673.09 49.91
-1 -2 10 719.86 48.65
-1 2 11 357.35 33.24
1 -2 11 341.12 37.71
-1 -2 11 343.91 36.05
-1 3 -14 91.62 23.2
1 3 -14 127.59 28.72
1 -3 -14 113.09 33.24
-1 -3 -14 89.24 29.66
1 -3 -13 551.87 67.43
1 3 -13 659.63 63.87
-1 -3 -13 595.16 71.76
-1 3 -13 667.85 60.77
1 -3 -13 553.82 68.64
-1 3 -13 523.03 47.28
-1 3 -12 337.34 37.02
1 3 -12 380.43 46.61
-1 3 -12 377.84 43.77
1 -3 -12 357.88 52.74
-1 -3 -12 376.99 54.35
1 -3 -12 388.04 54.12
-1 3 -11 106.05 20.27
-1 3 -11 105.38 22.3
-1 -3 -11 121.3 28.79
1 3 -11 120.9 16.29
1 3 -11 116.25 24.71
1 -3 -11 118.9 29.25
-1 3 -10 454.99 43.83
-1 3 -10 428.8 39.23
-1 -3 -10 447.06 53.81
1 3 -10 488.13 30.32
1 3 -10 427.28 45.43
1 -3 -10 466.71 56.03
1 -3 -9 1983.99 107.99
-1 3 -9 1920.56 80.27
1 3 -9 1997.82 57.25
1 3 -9 1783.65 88.44
-1 3 -9 1850.49 83.93
-1 -3 -9 1952.88 105.75
-1 3 -8 385.24 34.88
-1 -3 -8 336.95 41.68
1 3 -8 351.21 22.13
1 3 -8 352.4 37.29
1 -3 -8 423.95 47.77
-1 3 -8 367.45 35.79
-1 -3 -7 680.09 53.44
-1 3 -7 707.09 47.13
1 3 -7 711.51 27.07
1 -3 -7 642 55.21
-1 3 -7 682.75 44.86
1 3 -7 600.52 46.73
-1 -3 -7 728.64 57.19
-1 -3 -6 141.68 22.96
1 -3 -6 117.52 23.03
-1 -3 -6 156.81 25.46
-1 3 -6 139.59 19.79
1 3 -6 122.39 20.49
-1 3 -6 153.79 20.61
1 3 -5 118.03 19.58
-1 -3 -5 133.66 21.25
1 -3 -5 114.58 21.11
-1 3 -5 106.08 16.43
-1 3 -5 96.78 15.42
-1 3 -4 1118.7 51.77
-1 3 -4 1029.66 46.96
1 3 -4 1169.14 59.06
-1 3 -3 3936.47 86.51
1 3 -3 4157.1 107.99
-1 3 -2 674.64 33.78
1 -3 -2 678.03 42.06
-1 -3 -2 657.04 36.11
1 3 -2 672.73 43.8
1 -3 -1 316.77 27.59
-1 3 -1 311.81 21.74
-1 -3 -1 293.46 21.48
1 3 -1 301.47 18.8
1 3 -1 333.05 30.59
-1 -3 0 15.37 4.74
1 3 0 9.72 4.46
1 -3 0 12 5.97
1 3 0 12.89 6.66
-1 3 0 15.85 5.26
-1 3 0 14.25 6.88
1 -3 0 26.36 7.76
1 -3 1 315.86 29.88
1 -3 1 353.59 27.55
1 -3 1 311.95 26.84
-1 3 1 289.52 30.84
-1 3 1 323.59 21.68
1 3 1 302.31 24.38
-1 -3 1 323.91 15.75
1 -3 2 602.84 36.71
-1 3 2 664.15 47.74
1 -3 2 660.02 42.28
-1 3 2 619.77 31.07
1 3 2 654.94 39.4
1 -3 2 717.38 39.1
-1 3 3 3843.19 119.53
1 3 3 3625.42 100.59
1 -3 3 3684.38 91.65
-1 -3 3 3886.34 45.36
1 -3 3 3507.62 91.9
1 3 4 1139.31 60.68
-1 3 4 1256.04 70.64
1 -3 4 1095.09 48.64
1 -3 4 1132.54 51.87
-1 -3 5 84.9 17.06
1 -3 5 101.77 16.61
1 -3 5 97.59 14.56
-1 3 5 107.92 22.02
1 3 5 112.72 20.54
-1 -3 6 144.66 10.85
-1 3 6 144.16 13.29
1 3 6 182.2 27.6
-1 3 6 174.99 28.96
1 -3 6 152.82 18.25
1 -3 6 134.3 19.97
-1 -3 6 158.57 24.25
1 3 7 850.55 63.17
-1 3 7 714.51 33.28
-1 -3 7 786.78 31.41
-1 -3 7 766.67 54.86
-1 3 7 814.06 64.73
1 -3 7 761.25 42
1 -3 7 750.7 50.04
1 -3 8 366.02 30.51
1 -3 8 388.76 31.29
-1 3 8 367.95 26.26
-1 -3 8 418.26 26.63
1 3 8 456.76 35.39
1 -3 9 1950.32 73.28
-1 -3 9 2131.65 68.3
1 -3 9 1964.77 76.06
1 -3 10 495.97 40.54
-1 3 10 454.54 34.38
-1 -3 10 537.45 37.71
1 -3 11 124.75 21.89
-1 3 11 138.83 20.04
1 -4 -13 45 19.99
-1 4 -13 28.72 13.3
1 4 -13 33 15.66
1 -4 -13 26.03 18.8
-1 -4 -13 13.24 12.17
-1 4 -12 199.65 34.76
1 -4 -12 221.76 43.94
1 -4 -12 176.09 39.38
1 4 -12 192.06 35.58
-1 -4 -12 241.29 45.53
-1 4 -11 48.31 15.88
-1 4 -11 40.11 11.7
-1 -4 -11 15.47 13.08
1 4 -11 44.46 16.41
1 -4 -11 47.53 22.31
1 4 -10 291.29 41.22
-1 -4 -10 332.17 48.31
-1 4 -10 295.92 30.85
1 -4 -10 340.6 49.2
-1 4 -10 330.76 40.8
1 -4 -9 18.1 12.27
-1 4 -9 46.84 12.3
-1 4 -9 13.99 8.91
-1 -4 -9 22.99 12.35
1 4 -9 28.08 12.33
-1 -4 -8 342.66 43.97
-1 -4 -8 321.26 41.01
-1 4 -8 290.3 34.73
1 -4 -8 259.3 39.56
1 4 -8 333.76 39.56
-1 4 -8 379.51 33.28
-1 -4 -7 17.92 9.35
-1 4 -7 36.47 10.31
1 4 -7 41.35 14.2
1 -4 -7 23 11.67
-1 -4 -7 31.1 14.02
-1 4 -7 22.19 10.65
1 -4 -6 270.58 36.27
-1 -4 -6 283.07 34.36
1 4 -6 273.98 33.59
-1 4 -6 246.3 29.23
1 -4 -5 36.48 14.13
1 4 -5 59.69 15.64
-1 -4 -5 40.86 12.89
-1 4 -5 41.89 11.86
-1 -4 -4 493.24 40.03
-1 4 -4 521.91 38.03
1 4 -4 554.61 45.39
1 -4 -4 548.01 45.73
1 4 -3 23.14 9.45
1 -4 -3 32.78 11.08
-1 4 -3 21.26 7.11
-1 -4 -2 544.04 36.07
-1 4 -2 609.27 37.46
1 4 -2 599.59 45.58
1 4 -1 24.78 10.28
-1 -4 -1 32.45 8.62
1 4 -1 21.48 6.63
-1 4 -1 29.81 8.32
1 -4 -1 22.32 8.24
-1 4 0 379.14 27.8
-1 -4 0 376.92 24.53
-1 4 0 411.6 37.6
1 -4 0 335.31 29.47
1 4 0 398.9 36.34
1 4 0 339.34 27.93
1 -4 1 59.96 14.45
-1 4 1 29.68 8.01
-1 -4 1 37.56 6.91
1 -4 1 35.45 9.92
-1 4 1 49.9 13.67
1 4 1 48.04 11.4
1 -4 1 33.8 11.3
1 4 2 594.11 42.97
1 -4 2 597.55 38.23
-1 4 2 556.6 35.05
1 -4 2 631.35 45.46
-1 -4 2 628.85 21.57
-1 4 2 601.47 51.22
1 -4 2 625.41 45.7
1 -4 3 17.88 7.53
-1 4 3 11.59 6.2
1 -4 3 37.56 11.16
1 4 3 16.8 8.36
-1 4 3 21.51 10.61
-1 -4 3 20.16 5.49
1 -4 3 30.84 9.92
-1 -4 4 677.63 20.2
1 -4 4 578.45 39.05
1 -4 4 574.12 37.87
1 4 4 676.97 51.78
-1 -4 4 659.81 54.14
-1 4 4 652.78 57.83
1 -4 4 619.79 45.42
1 4 5 35.3 13.17
-1 -4 5 44.98 15.27
1 -4 5 52.21 11.56
-1 4 5 47.88 16.84
1 -4 5 42.9 12.81
1 -4 5 23.19 8.79
1 4 6 266.95 36.69
1 -4 6 301.94 26.88
-1 4 7 25.7 6.57
1 -4 7 36.4 9.06
-1 -4 8 388.78 16.56
1 -4 8 352.69 28.75
-1 4 8 373.77 26.13
1 -4 8 377.98 30.46
1 -4 9 22.28 7.62
-1 -4 9 27.72 5.95
1 -4 9 22.84 7.92
1 4 9 14.77 7.2
1 -4 10 369.35 32.91
-1 4 10 329.02 28.37
-1 -5 -12 197.61 41.52
-1 5 -12 262.44 42.54
1 -5 -12 157.44 39.2
1 -5 -12 202.45 44.55
1 5 -12 220.17 40.35
-1 5 -11 977.63 78.55
1 -5 -11 925.65 89.32
1 5 -11 947.42 81.65
-1 -5 -11 814.56 83.12
1 -5 -10 435.27 58.36
-1 -5 -10 445.74 57.59
-1 5 -10 390.31 47.67
1 5 -10 411.01 51.63
-1 -5 -9 178.33 34.56
1 -5 -9 108.99 27.89
1 5 -9 144.47 29.15
-1 5 -9 184.02 31.67
-1 -5 -8 153.9 30.23
1 5 -8 143.66 28.43
-1 -5 -8 130.31 29.1
-1 5 -8 106.26 22.98
1 -5 -8 110.24 26.89
1 -5 -7 272.38 40.66
-1 5 -7 282.16 36.03
-1 -5 -7 261.2 37.02
1 5 -7 214.81 33.64
1 -5 -6 102.31 23.89
1 5 -6 105.28 22.63
-1 5 -6 114.9 22.05
-1 -5 -6 113 23.27
1 5 -5 984.57 67.08
1 -5 -5 967.25 67.96
-1 -5 -5 946.41 62.71
-1 5 -5 978.46 60.05
-1 -5 -4 514.35 43.89
1 -5 -4 479.23 45.52
1 5 -4 487.87 46.48
-1 5 -4 536.51 42.98
-1 -5 -3 336.62 32.99
1 -5 -3 329.91 35.64
-1 5 -3 340.97 32.88
1 5 -3 325.05 36.93
1 5 -2 306.14 35.5
1 -5 -2 301.75 32.65
-1 5 -2 311.16 30.56
1 5 -1 902.56 45.32
1 5 -1 965.43 62.62
1 -5 -1 944.69 54.66
-1 -5 -1 969.09 48.87
-1 5 -1 952.8 52.08
-1 -5 0 38.77 9.21
-1 5 0 33.46 11.24
1 5 0 41.37 13.21
-1 5 0 20.88 8.41
1 5 0 45.39 11.85
1 -5 1 1034.45 68.41
-1 5 1 960.02 66.85
1 5 1 836.23 54.01
1 5 1 904.77 59.81
1 -5 1 870.03 48.07
-1 5 1 960.65 50.06
-1 -5 1 1001.64 40.94
-1 -5 2 355.29 20.12
1 5 2 301.85 34.59
-1 5 2 319.92 41.52
1 -5 2 325.72 28.8
1 -5 2 390.33 41.49
-1 5 2 315.03 29.43
1 -5 2 337.87 37.72
1 5 2 332.7 35.76
-1 5 3 343.11 31.18
-1 -5 3 408.49 29.02
-1 5 3 386.53 47.68
1 5 3 402.61 42.78
1 -5 3 387.04 41.92
1 -5 3 352.86 29.76
1 -5 3 357.55 36.93
1 5 4 614 55.49
1 -5 4 547.91 42.48
1 -5 4 532.56 36.26
1 -5 4 580.23 51
-1 5 4 556.42 40.36
-1 -5 4 651.43 27.9
-1 5 4 614.61 62.18
1 -5 5 1090.71 51.7
1 -5 5 1087.63 56.08
1 -5 6 154.42 19.85
1 -5 6 126.61 18.61
1 -5 7 323.03 29.61
1 -5 7 314.67 27.91
1 -5 8 121.87 17.09
1 -5 8 127.21 19.89
1 -5 8 132.84 16.52
-1 6 -11 84.12 25.83
1 -6 -11 149.44 36.49
-1 -6 -11 112.75 33.44
1 6 -10 109.98 28.6
1 -6 -10 64.84 24.94
-1 6 -10 83.32 23.95
-1 -6 -10 59.77 24.01
-1 6 -9 231.61 38.33
1 6 -9 232.54 39.63
1 -6 -9 210.96 41.07
-1 -6 -9 264.13 44.02
-1 -6 -8 649.24 66.57
-1 6 -8 573.22 57.43
1 6 -8 605.63 61.73
1 -6 -8 540.31 61.54
-1 -6 -7 735.63 64.54
1 -6 -7 844.44 73.16
1 6 -7 795.69 68.91
-1 6 -7 782.16 64.59
1 -6 -6 1104.54 79.66
-1 6 -6 1273.23 78.46
-1 -6 -6 1151.35 76.93
1 6 -6 1252.31 83.78
-1 -6 -5 373.14 41.86
1 6 -5 367.72 44.2
1 -6 -5 386.21 45.45
-1 6 -5 383.01 41.44
1 -6 -4 105.41 22.39
-1 6 -4 127.15 23.67
1 6 -4 108.05 23.22
-1 -6 -4 145.34 24.81
1 -6 -3 86.25 19.92
-1 6 -3 80.5 18.07
1 6 -3 71.54 19.14
-1 -6 -3 72.79 17.01
-1 -6 -2 367.42 35.24
1 -6 -2 311.62 35.51
1 6 -2 389.39 42.82
-1 6 -2 341.08 35.72
1 -6 -1 575.16 45.68
-1 6 -1 638.39 47.34
1 6 -1 573.27 51.97
1 6 -1 697.18 42.62
-1 -6 -1 656.73 43.7
-1 6 0 1388.04 79.81
1 6 0 1490.96 83.51
1 -6 0 1383.83 67.25
-1 6 0 1439.78 69.65
1 6 0 1474.54 70.88
1 -6 1 657.64 44
-1 6 1 643.23 58.77
1 6 1 666.82 56.02
1 6 1 673.07 53.47
1 -6 1 725.6 63.55
-1 6 1 644.34 45.64
-1 -6 1 795.14 39.69
-1 -6 2 460.48 25.76
-1 6 2 403.77 36.27
-1 -6 2 429.25 39.06
1 6 2 346.53 40.27
1 6 2 379.51 43.16
1 -6 2 383.08 44.1
-1 6 2 359.93 46.47
-1 6 3 114.49 19.46
1 -6 3 98.14 16.15
1 6 3 145.88 28.48
1 -6 3 117.64 23.14
1 6 3 93.57 21.35
-1 -6 3 119.4 18.01
1 -6 4 117.44 21.49
-1 6 4 112.8 19.48
-1 -6 4 155.37 16.71
1 -6 4 108.79 15.92
-1 -6 5 403.42 17.27
-1 6 5 444.73 39.31
1 -6 5 460.61 31.4
1 -6 5 414.49 37.07
-1 6 6 1282.1 68.42
1 -6 6 1374.76 63.22
1 -6 6 1386.43 54.24
1 -6 7 845.15 41.57
-1 6 7 804.74 54.62
-1 7 -9 563.67 63.65
-1 -7 -9 562.14 68.52
1 7 -9 635.73 69.22
1 -7 -9 601.05 70.81
1 7 -8 248.41 42.95
-1 -7 -8 261.71 43.8
1 -7 -8 244.91 43.92
-1 7 -8 278.9 43.79
-1 7 -7 121.76 27.71
1 -7 -7 86.1 24.82
-1 -7 -7 108.05 26.45
1 7 -7 96.61 25.93
-1 7 -6 73.04 20.91
1 -7 -6 65.24 20.47
-1 -7 -6 36.57 14.44
1 7 -6 64.4 20.01
-1 -7 -5 27.46 12.98
-1 7 -5 28.11 12.41
1 -7 -5 6.49 7.29
1 7 -5 49.9 18.23
1 -7 -4 275.97 38.5
-1 7 -4 282.02 37.46
-1 -7 -4 280.9 36.95
1 7 -4 300.2 42.14
1 7 -3 908.05 72.07
-1 -7 -3 950.64 63.61
1 -7 -3 846.04 64.26
-1 7 -3 812.12 61.71
1 7 -2 254.97 37.44
-1 7 -2 247.36 33.26
-1 -7 -2 281.43 32.77
1 -7 -2 270.33 35.02
1 7 -1 40.03 14.84
1 -7 -1 34.82 11.91
-1 -7 -1 23.03 9.15
-1 7 -1 28.47 12.61
1 -7 0 47.1 13.61
1 7 0 35.87 15
-1 -7 0 18.63 7.63
1 7 0 44.87 12.72
-1 7 0 38.54 11.1
-1 7 1 33.45 11.97
1 -7 1 34.82 11.48
1 7 1 28.58 13.64
1 7 1 47.83 14.73
1 -7 2 284.11 41.22
1 7 2 231.51 35.5
1 -7 2 294.6 30.03
-1 7 2 288.51 33.42
1 -7 3 1132.08 76.82
-1 7 3 1010.05 60.61
1 7 4 268.12 38.1
-1 7 4 358.23 36.8
1 7 5 36.43 14.91
-1 7 5 33.38 11.53
-1 7 6 64.88 15.26
-1 8 -7 0.47 3.96
1 -8 -7 14.3 11.4
1 -8 -6 151.25 32.14
1 8 -6 163.25 34.61
-1 -8 -6 113.16 27.86
-1 8 -6 182.13 34.97
-1 8 -5 60.38 20.24
1 -8 -5 59.7 18.92
-1 -8 -5 52.77 18.97
1 8 -5 63.32 20.79
-1 8 -4 344.34 45.05
1 -8 -4 328.33 44.04
1 8 -4 365.31 50.29
1 -8 -3 -2.7 5.3
-1 8 -3 9.11 7.6
1 8 -3 9.34 8.75
-1 8 -2 384.75 44.95
1 -8 -2 378.01 43.81
1 8 -2 387.49 50
1 -8 -1 71.2 18.35
1 8 -1 86.92 21.87
-1 8 -1 70.17 20.04
-1 8 0 283.99 36.91
1 8 0 389.79 47.97
1 -8 0 310.8 36.66
-1 8 1 83.04 19.43
1 8 1 56.64 19.72
1 -8 1 70.72 16.91
1 8 2 452.98 53.03
-1 8 2 421.51 43.1
1 8 3 2.21 6.81
-1 8 3 -0.93 3.19
1 8 4 363.16 47.95
1 8 5 52.86 18.45
1 8 6 155.2 30.48
1 -9 -5 689.43 70.05
-1 9 -5 767.01 74.19
-1 -9 -5 661.8 69.97
1 -9 -4 301.17 44.41
-1 -9 -4 325.1 46.24
-1 9 -4 265.06 42.29
-1 9 -3 34.37 14.65
1 -9 -3 21.21 12.47
1 9 -3 23.78 14.84
-1 -9 -3 11.82 9.98
-1 9 -2 192.2 34.36
1 9 -2 155.39 33.84
-1 -9 -2 184.27 32.82
1 9 -1 747.86 72.31
-1 9 -1 720.49 63.88
1 9 0 65.39 24.27
1 9 1 540.68 59.56
1 9 2 229.14 38.68
1 9 3 9.38 8.49
-2 0 -16 215.33 42.49
2 0 -15 900.97 70.64
-2 0 -15 907.16 86.37
2 0 -14 333.54 41.87
-2 0 -14 274.03 44.73
-2 0 -13 589.86 63.9
2 0 -13 667.34 57.18
2 0 -12 979.25 57.99
-2 0 -12 1025.01 80.64
2 0 -12 983.73 67.38
-2 0 -11 237.79 37.2
2 0 -11 239.98 34.17
2 0 -11 219.21 30.49
2 0 -11 198.19 25.01
2 0 -10 912.47 64.49
2 0 -10 866.89 57.8
2 0 -10 814.31 47.55
-2 0 -10 969.96 70.77
2 0 -9 800.95 44.44
-2 0 -9 930.74 65.48
2 0 -9 848.26 59.41
-2 0 -8 760.89 55.93
2 0 -8 702.51 39.19
2 0 -8 669.2 49.97
-2 0 -7 1932.51 83.52
2 0 -7 1968.14 61.68
2 0 -7 1991.7 80.16
-2 0 -6 1416.19 66.98
2 0 -6 1424.99 63.4
2 0 -6 1357.38 47.01
2 0 -5 1463.92 44.76
2 0 -5 1422.47 58.95
-2 0 -5 1470.83 63.84
2 0 -4 1753.28 61.45
-2 0 -4 1714.14 64.88
2 0 -4 1857.3 47.48
-2 0 -3 695.77 38.38
2 0 -3 582.44 34.62
2 0 -3 677.18 27.92
2 0 -2 2347.01 67.61
2 0 -2 2369.76 61.35
2 0 -1 3158.75 73.08
2 0 -1 3411.86 76.64
-2 0 0 1224.12 45.61
2 0 0 1145.25 43.87
-2 0 1 3552.79 77.68
2 0 1 3176.51 74.14
-2 0 2 2305.41 67.89
2 0 2 2175.92 64.55
2 0 3 761.39 39.95
-2 0 3 681.65 37.66
-2 0 3 696.96 32.36
-2 0 4 1714.15 51.08
2 0 4 1765.35 64.95
-2 0 4 1821.76 64.41
-2 0 5 1581.6 63.09
2 0 5 1557.51 64.99
-2 0 5 1404.19 47.98
-2 0 6 1408.84 50.39
2 0 6 1614.39 69.86
-2 0 6 1574.88 66.85
2 0 7 2285.58 88.04
2 0 7 2442.08 80.96
-2 0 7 2195.13 84.36
2 0 7 2238.29 87.01
-2 0 7 2088.96 66.07
-2 0 8 749.93 52.19
2 0 8 849.37 51.36
2 0 8 831.4 57.16
-2 0 9 872.34 50.5
-2 0 9 979.3 63.34
2 0 9 911.77 63.26
-2 0 10 1015.35 68.37
-2 0 10 997.83 58.09
-2 1 -16 166.62 35.35
2 -1 -16 141.2 31.43
-2 -1 -15 438.82 62.23
-2 1 -15 355.98 51.21
2 -1 -15 434.63 54.08
2 -1 -14 141.39 29.96
2 1 -14 165.48 28.53
2 1 -14 157.59 25.51
-2 -1 -14 107.72 29.25
-2 1 -14 151.22 31.79
2 -1 -13 275.78 43.38
2 1 -13 262.1 34.45
2 1 -13 262.54 32.09
-2 1 -13 290.55 42.36
2 -1 -13 257.49 39.25
-2 -1 -13 280.72 46.46
2 -1 -12 637.25 59.58
-2 -1 -12 673.09 68.05
-2 1 -12 662.87 61.14
2 -1 -12 697.59 66.34
2 1 -12 659.45 48.54
2 1 -12 634.77 51.37
2 1 -11 246.19 28.75
-2 -1 -11 282.31 42.28
2 -1 -11 248.7 38.36
2 1 -11 255.62 31.6
-2 1 -11 260.48 36.79
-2 1 -10 556.45 51.55
2 1 -10 484.58 41.24
2 1 -10 572.03 41.61
-2 -1 -10 608.69 58.06
2 -1 -10 537.79 53.62
-2 1 -9 534.91 48.05
2 -1 -9 474.92 47.63
2 1 -9 501.52 36.8
2 1 -9 534.11 42.21
2 1 -9 470.22 38.79
-2 -1 -9 565.33 52.83
-2 1 -8 696.4 52.3
2 -1 -8 598.22 31.46
2 1 -8 643.87 38.62
2 1 -8 644.95 44.08
2 -1 -8 541.65 48.6
2 1 -8 626.41 42.2
-2 -1 -8 665.83 53.93
2 1 -7 580.48 38.16
2 -1 -7 629.32 29.02
2 1 -7 677.96 42
2 -1 -7 550.69 46.55
-2 -1 -7 665.38 50.62
-2 1 -7 698.76 49.12
2 -1 -6 666.45 27.07
2 1 -6 650.33 38.37
-2 1 -6 696.71 46.64
2 -1 -6 685.35 48.98
2 1 -6 720.04 39.84
-2 -1 -6 672.6 47.23
-2 1 -5 717.14 44.97
2 -1 -5 732.28 47.26
2 1 -5 714.08 36.09
2 -1 -5 728.92 24.84
2 1 -5 695.04 38.19
-2 1 -4 927.72 48.84
2 1 -4 873.22 35.95
2 -1 -4 830.32 48.47
2 -1 -4 825.32 22.52
2 1 -4 859.73 41.37
2 1 -3 307.02 24.72
2 1 -3 311.57 20.58
2 -1 -3 301.22 28.67
2 -1 -3 292.03 10.54
-2 1 -3 338.62 28.44
2 1 -3 286.61 17.36
2 1 -2 1702.97 45.99
2 1 -2 1766.63 57.43
-2 -1 -2 1751.46 55.78
2 1 -2 1646.05 40.96
-2 1 -2 1731.71 63.23
2 1 -1 1461.94 39
2 -1 -1 1285.17 53.48
-2 -1 -1 1430.57 46.1
-2 1 -1 1372.83 56.42
2 -1 0 641.23 17.7
2 1 0 674.4 29.2
2 -1 0 610.21 37.49
-2 -1 0 691.07 29.24
-2 -1 1 1410.68 40.23
2 -1 1 1390.12 32.29
2 1 1 1338.44 44.67
-2 1 1 1345.29 57.81
2 -1 1 1319.37 55.38
2 -1 2 1555.09 39.96
2 1 2 1501.24 51.92
-2 1 2 1596.82 64.53
2 -1 2 1506.52 57.92
-2 -1 3 330.41 22.07
-2 1 3 331.89 30.31
2 -1 3 357.33 21.69
-2 1 3 336.03 15.58
2 1 3 327.39 26.69
2 -1 3 367.12 29.08
-2 -1 3 363.13 28.97
-2 1 4 1028.92 54.92
-2 1 4 830.96 26.34
2 -1 4 979.67 40.32
-2 -1 4 965.27 46.92
2 -1 4 942.28 48.33
2 1 4 948.86 49.32
-2 -1 4 863.58 37.6
2 1 5 711.93 45.84
2 1 5 719.73 45.29
-2 -1 5 715.25 40.65
-2 -1 5 703.89 36.58
-2 1 5 785.09 50.24
-2 1 5 610.32 25.25
2 -1 5 707.29 43.41
2 1 6 902.67 54.41
-2 1 6 797.04 53.32
-2 1 6 669.99 30.05
-2 -1 6 703.4 39.79
2 -1 6 844.88 49.62
-2 -1 7 646.06 42.33
2 1 7 726.86 52.46
2 -1 7 719.64 44.31
2 -1 7 727.84 48.54
-2 -1 7 629.58 40.6
-2 1 7 759.24 54.39
-2 1 7 597.8 31.75
2 1 7 751.06 44.89
-2 -1 8 574.66 42.63
2 1 8 632.49 52.09
2 -1 8 648.68 45.18
-2 -1 8 599.58 42.72
-2 1 8 676.52 54.5
2 1 8 685.68 46.1
-2 1 8 546.44 33.46
2 -1 8 687.05 49.25
2 -1 8 659.6 48.73
-2 -1 9 555.86 43.9
-2 -1 9 516.67 42.77
2 -1 9 564.43 47.65
-2 1 9 495.2 49.08
-2 1 10 593.59 41.6
-2 -1 10 622 50.43
-2 -1 11 245.75 34.12
-2 1 11 264.07 29.84
2 -2 -15 34.1 17.41
-2 -2 -15 37.26 19.94
2 2 -15 23.51 12.82
2 -2 -14 73.23 26.21
-2 2 -14 78.71 23.07
2 2 -14 78.42 21.51
-2 -2 -14 98.71 29.99
2 -2 -14 97.97 29.23
2 2 -13 8.09 8
2 -2 -13 -0.27 8.56
-2 2 -13 -16.15 10.38
-2 -2 -13 15.86 12.53
2 2 -12 58.73 17.72
2 -2 -12 48.17 21.51
-2 2 -12 31.51 13.81
2 2 -12 56.18 12.18
-2 -2 -12 33.59 15.53
2 -2 -11 61.45 21.54
-2 2 -11 80.78 19.78
2 2 -11 85.73 20.27
-2 -2 -11 102.66 26.2
2 2 -11 85.55 14.18
-2 2 -10 98.47 21.63
2 -2 -10 81.28 22
-2 2 -10 53.02 13.83
2 2 -10 86.17 19.02
-2 -2 -10 85.32 21.67
2 2 -10 95.8 14.51
2 2 -9 15.59 8.85
2 -2 -9 20.84 11.08
-2 2 -9 23.68 9.35
2 2 -9 15.95 5.39
-2 2 -9 21.14 9.73
-2 -2 -9 26.59 12.49
2 2 -8 245.88 29.43
-2 -2 -8 252.01 34.78
2 2 -8 267.73 19.88
-2 2 -8 293.18 33.87
-2 2 -8 240.91 26.16
2 -2 -8 305.66 39.6
-2 2 -7 35.6 12.01
2 -2 -7 51.72 16.37
2 2 -7 49.52 13.11
-2 2 -7 46.71 11.46
2 2 -7 56.44 8.14
-2 -2 -7 51.01 14.77
2 2 -6 132.8 13.57
2 2 -6 132.09 20.2
-2 2 -6 126.97 20.91
-2 -2 -6 123.94 21.27
-2 2 -6 127.89 17.14
2 2 -6 130.64 10.24
2 -2 -6 146.08 25.16
-2 2 -5 242.93 22.03
2 2 -5 248.2 10.36
2 2 -5 249.4 16.19
-2 2 -5 241.02 27.82
2 2 -5 237.51 11.08
2 2 -5 244.66 26.44
2 2 -4 349.24 30.56
-2 2 -4 380.53 25.62
2 2 -4 392.01 16.95
-2 2 -4 377.79 33.83
2 2 -3 154.87 20.42
2 2 -3 152.13 9.25
-2 2 -3 158.01 15.33
-2 2 -3 163.92 22.32
-2 -2 -3 167.26 19.76
-2 -2 -2 651.04 35.21
2 -2 -2 656.38 45.23
-2 2 -2 672.14 28.38
2 2 -2 692.9 41.96
-2 2 -2 701 44.27
2 -2 -1 226.11 11.62
-2 2 -1 240.2 15.16
2 2 -1 219.31 14.16
-2 -2 -1 186.8 16.96
2 -2 -1 208.72 25.69
-2 2 -1 270.34 27.9
-2 -2 0 207.35 15.86
-2 2 0 225.31 12.31
2 -2 0 203.32 24.56
2 -2 0 196.5 12.12
2 -2 0 208.47 24.62
2 -2 1 202.3 24.29
-2 2 1 224.17 9.02
2 -2 1 200.99 14.04
-2 2 1 221.05 26.67
2 -2 1 197.02 24.58
-2 -2 1 220.02 14.47
2 2 2 652.52 35.41
-2 -2 2 655.88 20.8
2 -2 2 649.18 43.75
2 -2 2 655.55 28.51
-2 2 2 673.58 47.34
-2 2 3 167.84 24.71
2 2 3 148 18.89
2 -2 3 174.49 21.79
2 -2 3 154.17 15.23
2 2 4 457.03 35.74
-2 2 4 423.96 40.33
-2 -2 4 399.79 35.5
2 -2 4 413.8 27.59
2 -2 4 433.9 34.21
-2 2 4 338.89 10.88
2 -2 5 260.28 27.1
-2 -2 5 236.41 16.93
-2 2 5 289.08 34.38
2 -2 5 265.74 23.6
-2 2 5 224.85 12.25
2 2 5 250.84 28.6
-2 -2 6 125.36 14.05
2 -2 6 172.33 22.73
-2 -2 6 136.84 21.67
2 -2 6 147.33 19.01
-2 2 6 143.75 25.53
2 2 6 129.55 22.37
-2 2 6 122.84 11.02
2 2 7 77.08 18.46
2 -2 7 59.95 13.05
-2 -2 7 39.96 8.9
-2 -2 7 48.79 12.88
-2 2 7 64.31 9.24
2 -2 7 65.74 14.32
-2 2 7 76.25 19.24
2 -2 8 321.68 33.36
-2 -2 8 324.57 35.4
2 2 8 352.31 33.41
-2 -2 8 308.15 27.42
-2 2 8 255.57 20.84
-2 2 9 11.92 5.15
2 -2 9 25.36 10.69
-2 -2 9 19.51 8.14
2 -2 9 13.72 7.23
-2 -2 10 109.95 19.49
-2 2 10 98.29 15.79
2 -2 10 94.12 20.13
-2 2 11 73.81 14.99
-2 -2 11 108.96 21.13
2 -3 -14 -10.21 14.72
2 3 -14 15.24 11.33
2 -3 -14 -10.9 11.16
-2 -3 -14 14.46 14.17
2 -3 -13 247.21 46.74
-2 3 -13 223.59 34.94
2 -3 -13 215.17 42.32
2 3 -13 256.64 41.06
-2 -3 -13 348.83 54.71
2 -3 -12 275.58 48.26
2 3 -12 284.36 41.09
-2 3 -12 310.64 38.77
-2 3 -12 286.49 38.37
-2 -3 -12 282.5 47.01
2 -3 -11 16.37 13.59
-2 3 -11 37.6 13.61
-2 3 -11 16.68 9.57
-2 -3 -11 7.4 8.27
-2 3 -10 722.12 53.57
-2 -3 -10 699.34 68.06
2 3 -10 724.52 28.4
2 -3 -10 711.63 69.81
2 3 -10 707.73 60.09
-2 3 -10 773.43 59.56
2 -3 -9 181.03 34.12
-2 -3 -9 248.51 37.25
2 3 -9 193.66 29.92
-2 3 -9 237.16 29.31
2 3 -9 225.01 13.16
-2 3 -9 208.92 30.46
2 -3 -8 186.82 33
-2 3 -8 179.25 24.7
-2 -3 -8 244.47 36.02
2 3 -8 213.44 30.39
-2 3 -8 231.25 31.06
-2 3 -7 614.24 42.8
2 -3 -7 566.25 54.73
-2 -3 -7 620.39 53.62
2 3 -7 632.13 49.98
-2 3 -7 701.34 52.25
-2 3 -6 155.06 23.99
-2 3 -6 131.26 18.86
2 -3 -6 122.34 24.29
2 3 -6 124.78 21.76
-2 -3 -6 113.84 22.18
2 3 -5 187.56 25.96
-2 3 -5 228.22 23.35
2 -3 -5 238.8 32.24
-2 -3 -5 238.83 29.29
-2 3 -5 267.97 30.54
2 3 -4 1282.12 65.28
-2 3 -4 1330.95 66.43
2 -3 -4 1287.66 71.15
-2 3 -4 1232.51 50.62
-2 -3 -4 1212.91 61.1
2 3 -3 170.84 23.95
-2 3 -3 219.29 26.85
-2 3 -3 187.84 18.59
-2 -3 -2 1223.07 52.2
2 3 -2 1374.69 65.63
2 3 -2 1317.83 24.87
-2 3 -2 1299.89 44.67
2 -3 -1 709.18 49.82
2 3 -1 792.7 28.98
2 3 -1 804.32 49.04
-2 3 -1 710.37 30.1
-2 -3 -1 781.1 38.04
2 3 0 32.18 7.29
2 -3 0 45.16 8.78
-2 3 0 31.98 5.83
2 -3 0 24.34 9.82
2 -3 0 26.62 10.41
-2 -3 0 25.41 6.26
-2 -3 1 769.9 29.16
2 -3 1 870.39 37.17
-2 3 1 810.54 56.58
2 3 1 779.51 39.37
-2 3 1 758 23.81
2 -3 1 811.96 54.89
2 -3 1 745.57 49.45
2 -3 2 1215.54 63.61
-2 -3 2 1344.82 30.8
-2 3 2 1296.38 73.61
2 3 2 1216.47 54.02
2 -3 2 1287.44 47.76
-2 3 2 1230.26 25.44
2 -3 2 1267.56 67.8
-2 3 3 175.36 28.34
-2 3 3 180.67 8.54
2 3 3 200.97 23.97
2 -3 3 211.4 20.82
2 -3 3 197.46 25.78
-2 3 4 1475.72 83.88
-2 3 4 1252.57 21.02
2 -3 4 1290.37 53.4
2 3 4 1290.95 65.3
2 -3 4 1299.51 63.37
-2 -3 4 1424.08 77.37
-2 3 4 1217.13 28.07
-2 -3 5 262.34 33.13
-2 3 5 257.38 36.44
-2 3 5 232.16 11.5
2 -3 5 274.42 26.37
2 3 5 261.13 31.58
2 -3 5 271.69 28.73
2 -3 6 175.26 23.51
2 3 6 180.46 28.29
-2 3 6 172.82 30.67
-2 -3 6 168.57 26.87
2 -3 6 156.26 21.31
-2 3 6 136.51 10.54
2 -3 7 681.23 46.79
-2 -3 7 674.91 26.06
-2 3 7 621.23 26.22
-2 -3 8 261.81 20.08
2 -3 8 247.09 28.93
-2 3 8 229.92 18.28
-2 -3 9 268.24 23.41
2 -3 9 222.72 28.69
2 -3 9 228.46 28.47
-2 3 9 253.86 21.21
-2 -3 10 896.74 47.86
2 -3 10 796.54 55.82
2 -3 10 837.15 56.92
2 -4 -13 704.22 83.8
-2 4 -13 739.11 66.99
2 4 -13 846.41 78.54
-2 -4 -13 690.22 81.61
2 -4 -12 440.84 62.41
-2 4 -12 555.82 55.95
2 4 -12 573.86 62.54
-2 -4 -12 495.19 66.16
-2 4 -12 465.02 46.38
2 4 -11 191.91 35.57
-2 4 -11 206.36 30.42
2 -4 -11 208.15 41.05
-2 -4 -11 227.77 42.56
-2 4 -11 186.79 31.05
-2 -4 -10 704.66 71.07
-2 4 -10 689.65 56.69
2 -4 -10 600.54 67.95
2 4 -10 618.1 59.35
-2 4 -10 622.66 50.94
-2 4 -9 896.4 60.25
-2 -4 -9 941.91 77.64
-2 4 -9 794.21 58.6
2 -4 -9 814.82 75.81
2 4 -9 777.49 64.92
2 -4 -8 225.13 38.21
-2 4 -8 258.05 31.98
-2 4 -8 220.11 29.85
2 4 -8 233.59 34.04
-2 -4 -8 208.38 34.88
-2 -4 -7 1619.88 90.56
-2 4 -7 1770.66 78.91
2 -4 -7 1570.55 96.1
2 4 -7 1553.31 84.94
-2 4 -7 1730.43 81.16
2 -4 -6 421.45 47.3
-2 -4 -6 393.89 42.09
-2 4 -6 456.92 41.22
2 4 -6 435.16 43.85
-2 4 -6 408.38 36.07
2 -4 -5 1066.38 71.61
-2 4 -5 1070.99 55.38
-2 -4 -5 1038.88 64.33
2 4 -5 925.44 62.43
2 4 -4 1163.85 67.61
2 -4 -4 1087.84 68.92
-2 4 -4 1050.08 52
-2 -4 -4 1092.06 61.98
2 4 -3 557.78 46.83
2 -4 -3 489.37 44.91
-2 -4 -3 418.09 36.07
-2 4 -3 466.07 32.32
2 4 -2 1216.41 67.62
-2 4 -2 1145.27 47.13
2 4 -2 1263.13 30.3
2 4 -1 1847.16 52.08
-2 -4 -1 1764.51 62.94
2 4 -1 1850.08 82.45
-2 4 -1 1871 56.27
-2 4 0 161.16 15.54
2 4 0 152.86 23.42
2 -4 0 203.44 31.03
2 4 0 182 19.03
2 -4 0 187.09 22.48
-2 -4 0 175.9 18.13
-2 4 1 2115.37 100
2 -4 1 2153.24 76.35
2 4 1 1832.22 67.52
-2 -4 1 1952.59 53.13
2 -4 1 2095.25 96.56
-2 4 1 1903.74 48.6
2 -4 2 1232.65 57.9
2 -4 2 1004.09 60.55
2 4 2 1072.82 56.76
-2 -4 2 1177.27 34.68
-2 4 2 1234.52 79.17
2 -4 2 1254.53 74.37
-2 4 2 1049.99 34.04
2 -4 3 539.3 46.83
2 -4 3 567.43 39.74
2 -4 3 472.33 41.46
-2 4 3 536.63 22.7
2 4 3 520.85 42.48
-2 -4 3 530.21 15.96
-2 -4 3 523.21 18.08
-2 4 3 593.65 57.67
2 -4 4 1175.46 58.66
-2 4 4 1211.77 35.35
2 -4 4 1096.63 64.51
-2 4 4 1288.16 88.41
2 4 4 1259.35 70.68
2 -4 4 1220.16 66.25
2 -4 5 1043.03 57.72
-2 4 5 1092.41 83.31
-2 4 5 1029.69 36.39
2 4 5 1188.88 72.92
2 -4 5 1058.83 60.15
2 -4 6 487.81 40.87
-2 4 6 503.08 20.44
2 -4 7 1702 76.38
-2 4 7 1869.96 43.99
2 -4 8 208.42 26.61
-2 4 8 241.17 17.47
2 -4 9 905.63 56.71
-2 4 9 910.51 37.21
2 -5 -12 400.87 63.49
-2 5 -12 466.62 54.6
2 5 -12 532.88 64
-2 -5 -12 474.43 66.91
2 5 -11 218.34 39.87
2 -5 -11 292.2 52.29
-2 5 -11 288.03 41.07
-2 -5 -11 276.93 48.76
2 5 -10 582.25 61.56
2 -5 -10 488.38 63.91
-2 5 -10 526.57 53.63
-2 -5 -10 583.78 66.43
-2 5 -10 550.93 46.33
2 5 -9 673.85 64.3
-2 5 -9 691.06 59.02
2 -5 -9 613.56 68.67
-2 -5 -9 692.62 69.48
2 -5 -8 277.54 44.12
-2 5 -8 293.27 36.68
2 5 -8 310.95 42.37
-2 -5 -8 312.22 44.76
-2 -5 -7 457.43 50.83
-2 5 -7 371.42 39.67
2 -5 -7 492.02 56.35
2 5 -7 419.23 47.42
2 5 -6 278.23 37.59
2 -5 -6 258.27 39.6
-2 5 -6 257.6 31.66
-2 -5 -6 267.02 36.89
-2 -5 -5 721.84 56.77
2 -5 -5 703.15 61.32
-2 5 -5 719.99 50.05
2 5 -5 797.87 62.42
-2 5 -4 1215.95 61.44
2 -5 -4 1092.26 72.98
2 5 -4 1313.57 77.45
-2 -5 -4 1091.05 65.78
2 5 -3 688.52 56.03
2 -5 -3 608.84 52.49
-2 -5 -3 595.8 46.64
-2 5 -3 655.81 42.76
-2 5 -2 1084.88 51.94
2 5 -2 1215.47 34.09
2 5 -2 1104.11 70.27
2 -5 -2 1001.7 65.16
-2 -5 -2 1103.96 58.89
-2 5 -1 993.45 46.92
2 5 -1 1042.21 44.79
2 5 -1 937.63 63.98
2 -5 -1 908.9 60.51
2 -5 0 81.47 21.37
-2 5 0 67.19 12.01
-2 -5 0 70.42 12.9
2 5 0 71.55 13.61
2 -5 0 80.39 18.17
2 5 0 79.41 18.93
-2 -5 1 1044.44 45.07
-2 5 1 1146.71 79.5
2 -5 1 893.22 58.23
2 5 1 922.52 53.4
2 -5 1 1111.56 66.28
2 5 1 970.09 63.22
-2 5 1 1036.81 43.12
2 -5 1 1072.71 75.96
-2 5 2 1316.5 89.09
2 -5 2 1262.48 71.39
2 5 2 1156.49 64.85
-2 -5 2 1256.93 42.87
2 -5 2 1263.3 80.15
-2 5 2 1144.73 43.88
2 -5 3 771.49 55.88
2 5 3 716.47 54.48
-2 -5 3 816.86 27.24
2 -5 3 769.46 60.69
-2 -5 3 795.13 32.45
-2 5 3 680.98 32.48
-2 5 3 814.55 73.23
2 -5 4 1314.93 72.95
-2 5 4 1263.43 42.26
2 5 4 1308.09 78
2 -5 4 1244.27 72.95
-2 5 5 776.54 34.14
2 -5 5 757.07 54.5
-2 5 6 361.55 24.82
2 -5 6 339.79 35.58
-2 5 7 516.15 23.03
-2 5 7 485.89 30.95
2 -5 7 531.15 48.39
2 -5 7 468.19 41.56
2 -5 8 312.33 33.48
2 -6 -10 231.83 46.77
2 6 -10 203.37 38.84
-2 6 -10 207.27 36.81
-2 -6 -10 246.42 45.8
-2 -6 -9 103.18 28.66
2 -6 -9 78.5 25.65
2 6 -9 143.29 31.18
-2 6 -9 114.22 27.18
2 -6 -8 307.2 49.38
-2 6 -8 299.23 40.1
-2 -6 -8 324.68 47.58
2 6 -8 312.84 45.22
2 -6 -7 232.22 41.19
2 6 -7 191.19 33.94
-2 -6 -7 173.95 32.91
-2 6 -7 148.55 27.33
-2 6 -6 185.67 29.3
2 -6 -6 248.56 39.73
-2 -6 -6 187.14 32.11
2 6 -6 225.11 36.34
2 6 -5 276.75 39.73
-2 6 -5 268.08 33.49
2 -6 -5 248.19 38.38
-2 -6 -5 262.34 36.82
-2 -6 -4 377.62 41.72
2 6 -4 365.13 44.58
2 -6 -4 384.55 46.09
-2 6 -4 372.51 37.4
2 -6 -3 127.58 25.39
-2 6 -3 139.67 21.89
2 6 -3 207.77 32.76
-2 -6 -3 145.96 24.59
2 6 -2 373.57 43.85
-2 -6 -2 350.06 36.02
2 -6 -2 358.99 40.4
-2 6 -2 350.01 32.95
2 -6 -1 172.74 27.32
2 6 -1 260.58 24.19
2 6 -1 212.49 33.07
-2 6 -1 230.71 25.44
-2 -6 -1 213.97 26.82
-2 6 0 225.21 24.22
2 6 0 207.75 25.47
2 6 0 181.47 30.29
2 -6 0 183.85 27.6
-2 -6 0 232.76 26.04
2 6 1 205.87 32.34
2 -6 1 242.99 40.12
2 6 1 190.39 27.06
2 -6 1 183.62 26.73
-2 6 1 250.91 38.96
-2 6 1 218.78 22.89
-2 -6 2 448.86 29.47
2 6 2 350.3 39.42
2 -6 2 437.83 40.65
2 6 2 356.79 42.1
-2 6 2 384.44 29.54
2 -6 2 490.97 54.54
2 -6 3 227.05 35.68
2 -6 3 168.26 25
-2 -6 3 204.73 16.48
2 6 3 156.05 27.95
-2 6 3 166.77 18.37
-2 -6 3 210.58 20.01
2 -6 4 372.49 43.24
2 -6 4 413.03 38.73
-2 6 4 437.63 28.92
-2 6 5 298.96 23.08
2 -6 5 285.13 32.34
2 -6 5 301.6 36.4
-2 6 6 238.89 20.19
2 -6 6 238.75 29.71
2 -6 6 228.55 30.3
2 -6 7 215.31 28.33
2 -6 8 328.87 35.23
2 -7 -9 55.56 22.89
-2 7 -9 62.42 21.16
-2 -7 -9 71.82 25.04
2 -7 -8 111.37 30.34
2 7 -8 112.6 29.14
-2 -7 -8 142.31 34.07
-2 7 -8 149.21 31.3
-2 7 -7 608.4 59.8
2 -7 -7 613.25 68.38
-2 -7 -7 568.87 62.76
2 7 -7 612.46 65
2 -7 -6 126.68 29.71
-2 7 -6 142.35 27.95
2 7 -6 149.62 31.94
-2 -7 -6 142.36 30.14
2 -7 -5 352.49 47.89
-2 7 -5 385.48 43.93
-2 -7 -5 322.86 43.02
2 7 -5 343.59 46.12
2 -7 -4 696.92 64.57
-2 -7 -4 788.15 64.26
-2 7 -4 770.93 59.14
2 7 -4 847.76 72.11
2 -7 -3 149.12 28.72
2 7 -3 104.68 24.76
-2 7 -3 118.72 22.32
-2 -7 -3 93.59 20.91
2 7 -2 597.4 58.65
-2 -7 -2 494.66 46.35
2 -7 -2 471.52 48.94
-2 7 -2 582.5 46.8
2 7 -1 532.94 55.49
-2 7 -1 621.77 46.66
2 -7 -1 494.89 48.14
-2 -7 -1 589.71 48.19
2 -7 0 20.4 10.28
-2 7 0 8.41 6.45
2 7 0 31.31 13.72
-2 -7 0 5.05 4.38
-2 7 1 633.38 43.21
2 7 1 566.71 57.15
2 -7 1 569.6 47.93
-2 -7 1 710.13 45.69
2 7 2 475.8 52.26
2 -7 2 581.27 47.43
-2 7 2 529.18 37.91
-2 7 3 126.37 17.79
2 7 3 93.7 23.66
-2 -7 3 145.48 15.83
2 -7 3 103.98 19.67
2 -7 4 853.67 54.38
-2 7 4 804.62 42.49
2 7 4 809.94 67.82
2 -7 5 348.66 34.25
-2 8 -7 909.63 78.56
2 -8 -7 942.13 88.27
-2 -8 -7 921.21 83.48
2 -8 -6 135.75 33.57
2 8 -6 126.39 30.96
-2 8 -6 91.21 24.3
-2 -8 -6 130.27 29.96
2 -8 -5 329.49 48.18
-2 8 -5 380.9 47.47
-2 -8 -5 374.67 49.21
2 8 -5 401.45 52.86
-2 -8 -4 451.41 52.04
2 8 -4 507.91 59.64
2 -8 -4 413.48 52.2
-2 8 -4 482.63 50.83
2 -8 -3 45.16 15.89
-2 8 -3 68.63 18.06
2 8 -3 76.81 22.34
-2 -8 -3 67.97 19.93
2 8 -2 310.6 45.36
2 -8 -2 340.15 43.17
-2 -8 -2 383.9 44.41
-2 8 -2 364.49 40.94
2 8 -1 967.71 78.69
2 -8 -1 873.95 67.52
-2 -8 -1 1082.34 70.24
-2 8 -1 1017.88 64.43
-2 8 0 10.51 7.05
-2 -8 0 7.47 5.85
2 8 0 0.33 5.51
2 -8 0 16.56 9.74
2 8 1 954.2 78.43
2 -8 1 923.09 64.11
-2 8 1 955.65 57.92
2 8 2 339.71 47.29
2 -8 2 320.99 36.44
2 8 3 60.3 20.67
2 8 4 435.05 54.17
2 8 5 352.68 49.19
2 8 6 99.96 26.55
2 8 7 800.79 73.84
-2 9 -5 84.94 24.18
2 -9 -5 90.58 25.64
-2 -9 -5 59.25 21.13
-2 9 -4 219.89 37.08
2 -9 -4 160.67 34.58
-2 -9 -4 191.55 36.35
-2 9 -3 14.02 9.64
2 -9 -3 -9.76 8.45
2 9 -2 231.12 42.17
2 -9 -2 177.23 34.27
2 9 -1 109.38 28.28
2 9 0 6.22 8.45
2 9 1 126.46 30.61
2 9 2 138.92 32.4
2 9 3 8.73 8.68
2 9 4 196.04 38.02
-3 0 -15 -7.51 11.29
-3 0 -14 -21.33 14.56
3 0 -14 7.42 7.36
3 0 -13 0.86 2.41
3 0 -13 5.41 6.29
-3 0 -13 12.52 9.68
3 0 -13 2.95 4.23
3 0 -12 -4.83 5.14
3 0 -12 2.85 5.48
3 0 -12 9.53 7.23
-3 0 -12 5.61 8.93
3 0 -11 -2.11 5.59
3 0 -11 2.69 4.48
-3 0 -11 -4.82 7.12
3 0 -10 5.88 6.13
-3 0 -10 12.05 8.71
3 0 -10 -1.34 3.75
3 0 -9 -5.75 7.68
3 0 -9 -4.42 4.05
-3 0 -9 -9.73 7.61
3 0 -8 5.69 5.14
3 0 -8 0.61 4.79
-3 0 -8 9.5 7.86
3 0 -7 -5.77 7.11
3 0 -7 -1.42 2.74
-3 0 -7 -0.61 4.48
3 0 -6 -7.16 6.77
3 0 -6 -0.02 2.24
-3 0 -6 6.24 5.73
-3 0 -5 19.03 9.12
3 0 -5 2.1 3.02
3 0 -5 10.41 7.04
3 0 -4 1.24 3.18
3 0 -4 9.03 6.12
3 0 -3 3.47 3.32
3 0 -3 6.05 3.92
3 0 -3 -2.09 4.03
3 0 -2 0.77 4.22
3 0 -2 0.47 2.34
-3 0 -1 0.4 4.31
3 0 -1 6.82 4.87
-3 0 0 0.63 3.55
3 0 0 -3.02 4.31
-3 0 1 3.05 5.08
3 0 1 6.06 5.62
3 0 2 5.3 3.97
-3 0 3 7.23 6.02
3 0 3 2.22 4.48
-3 0 4 -0.74 3.25
3 0 4 -1.43 2.61
-3 0 5 3.88 3.35
-3 0 5 10.73 6.28
3 0 5 2.81 3.19
3 0 6 -0.34 2.11
3 0 6 4.99 5.32
-3 0 6 6.2 5.89
-3 0 6 11.09 5.2
3 0 7 -3.15 4.99
-3 0 7 -7.22 3.39
-3 0 7 2.25 6.02
3 0 7 3.34 5.83
3 0 8 4.87 5.51
-3 0 8 0.17 3.58
3 0 8 -6.23 8.34
-3 0 9 3.18 6.54
-3 0 9 -0.26 1.31
-3 0 10 -1.98 3.99
-3 0 10 -1.93 3.7
-3 1 -15 229.18 42.15
3 1 -15 184.61 31.73
-3 -1 -15 216.61 47.23
3 -1 -15 232.15 39.03
3 1 -14 83.86 21.83
-3 1 -14 91.36 25.88
3 -1 -14 64.85 22.94
3 -1 -14 84.56 23.58
-3 -1 -14 62.89 24.55
-3 -1 -13 119.48 32.28
3 -1 -13 108.98 27.86
-3 1 -13 118.08 29.26
3 1 -13 131.18 25.36
3 -1 -13 135.65 27.27
3 1 -13 118.49 20.9
3 1 -12 566.78 49.7
3 -1 -12 496.54 56.54
-3 -1 -12 479.56 60.17
-3 1 -12 510.94 57.86
3 1 -12 564.11 44.17
3 1 -11 310.99 35.45
3 -1 -11 325.08 44.49
3 1 -11 307.05 31.08
3 1 -11 376 39.68
-3 -1 -11 352.58 49.51
-3 1 -11 358.98 46.64
3 -1 -10 279.18 25.14
3 1 -10 273.68 32.46
3 -1 -10 250.7 37.59
3 1 -10 299.24 29.34
3 1 -10 234.84 30.45
-3 1 -10 272.92 38.92
-3 -1 -10 275.02 41.02
3 -1 -9 288.35 23.61
-3 -1 -9 264.59 38.25
3 -1 -9 202.01 32.46
3 1 -9 233.21 28.68
3 1 -9 219.34 27.49
-3 1 -9 221.31 33.73
-3 1 -8 196.92 30.35
3 -1 -8 131.38 25.16
3 -1 -8 175.37 17.32
3 1 -8 158.42 22.43
3 1 -8 193.37 24.32
-3 -1 -8 153.91 27.73
-3 1 -7 592.55 50.06
3 -1 -7 476.83 45.08
3 -1 -7 531.98 27.64
3 1 -7 600.42 41.2
-3 -1 -7 574.21 49.95
3 1 -7 555.22 39.55
3 -1 -6 1206.18 68.54
3 1 -6 1230.52 54.89
3 -1 -6 1184.7 37.33
3 1 -6 1234.88 56.96
-3 -1 -6 1129.39 66.09
-3 1 -6 1326.43 71.99
3 -1 -5 655.98 49.41
3 1 -5 688.99 39.36
3 -1 -5 703.35 25.69
-3 1 -5 746.95 52.1
3 1 -5 696.31 41.72
3 1 -5 675.43 35.48
3 1 -4 694.36 41.33
3 1 -4 710.38 39.37
3 -1 -4 676.31 49.34
3 -1 -4 725.1 23.37
-3 1 -4 718.75 49.2
3 1 -4 634.02 33.49
3 1 -3 19.96 6.2
3 -1 -3 40.26 5.81
3 1 -3 24.53 7.95
3 1 -3 42.55 10.87
-3 1 -3 44.58 12.35
3 -1 -3 52.22 14.12
-3 -1 -3 28.48 9.01
3 -1 -2 314.66 32.58
3 1 -2 298.71 24.08
3 1 -2 293.77 22.76
-3 -1 -2 294.04 26.38
3 -1 -2 274.84 28.76
-3 1 -2 315.83 31.82
3 -1 -1 837.37 51.43
3 1 -1 818.39 38.96
3 -1 -1 887.26 52.1
-3 -1 -1 925.06 44.87
-3 -1 0 683.22 37.14
3 -1 0 673.48 46.59
3 1 0 601.41 35.05
3 1 1 866.81 44.27
-3 -1 1 870.68 41.27
3 -1 1 896.08 53.4
-3 1 2 267.35 30.85
3 -1 2 263.58 18.48
-3 -1 2 258.66 22.24
3 -1 2 256.62 28.69
3 1 2 242.91 24.75
3 -1 3 32.68 7.5
-3 1 3 34.95 11.02
3 1 3 43.29 11.43
3 -1 3 24.68 9.07
-3 1 4 757.95 52.73
3 -1 4 728.55 37.39
3 1 4 733.27 48.48
3 -1 4 708.64 49.24
-3 -1 5 745.57 43.5
-3 1 5 874.58 58.77
3 -1 5 808.57 42.53
-3 -1 5 848.27 51.43
3 1 5 774.15 52.12
3 -1 5 831.94 54.26
-3 -1 6 1195.32 57.28
-3 1 6 1364.06 76.6
3 -1 6 1343.91 59.69
3 1 6 1285.61 71
3 -1 6 1368.74 71.12
3 1 7 644.32 53.43
-3 -1 7 567.28 41.82
3 1 7 727.82 47.82
-3 1 7 528.73 32.27
-3 1 7 649.8 55.17
-3 -1 7 627.87 46.09
3 -1 7 616.59 43.36
3 -1 7 716.06 54.17
3 1 7 699.65 54.53
-3 1 8 139.05 17.56
-3 -1 8 144.95 22.72
-3 1 8 181.53 30.47
-3 -1 8 172.69 25.94
3 -1 8 201.41 29.92
-3 -1 9 257 32.13
-3 -1 9 311 35.43
-3 1 10 248.69 27.93
-3 -1 10 309.85 38.24
-3 1 11 342.88 35.08
-3 -1 11 321.76 40.57
3 2 -15 796.51 71.23
3 -2 -15 692.29 72.65
-3 2 -15 675.64 69.56
3 2 -14 456.83 53.11
3 -2 -14 517.38 62.45
-3 -2 -14 511.92 70.17
3 -2 -14 407.47 58.95
-3 2 -14 392.57 52.05
-3 -2 -13 590.73 72.06
3 2 -13 539.06 55.24
3 -2 -13 561.17 67.47
-3 2 -13 497.7 57.35
3 2 -12 528.56 53.22
3 -2 -12 652.16 68.98
-3 -2 -12 633 71
-3 2 -12 494.96 55.18
-3 2 -11 335.28 43.49
3 2 -11 244.06 34.67
3 -2 -11 267.4 43.44
3 2 -11 285.72 24.23
-3 -2 -11 326.44 48.56
-3 2 -10 699.06 61.35
3 -2 -10 557.53 59.67
3 2 -10 553.55 49.81
3 2 -10 589.79 33.14
-3 -2 -10 564.85 60.9
3 2 -9 2182.26 74.93
3 -2 -9 1886.26 105.91
3 2 -9 2127.26 58.18
-3 -2 -9 2047.18 108.54
3 2 -9 2017.33 90.29
-3 2 -9 2095.88 102.77
-3 2 -8 1286.9 78.02
3 -2 -8 1153.5 79.24
3 2 -8 1290.67 41.87
3 2 -8 1215.46 53.07
-3 -2 -8 1245.31 79.79
3 2 -8 1199.28 67.56
3 -2 -7 716.24 59.49
3 2 -7 827.7 40.27
3 2 -7 830 30.65
-3 -2 -7 745.35 58.16
-3 2 -7 786.37 59.25
3 2 -7 794.17 52.97
3 2 -7 779.49 32.64
3 -2 -6 289.98 37.11
3 2 -6 297.84 22.71
-3 -2 -6 281.18 33.6
3 2 -6 303.67 18.41
-3 2 -6 329.68 37.71
3 2 -6 278.75 31.08
3 2 -5 313.59 31.45
3 2 -5 346.4 17.91
3 -2 -5 295.25 36.77
3 2 -5 341.42 22.37
-3 -2 -5 324.99 33.72
-3 2 -5 358.6 38.47
3 2 -4 1690.07 72.06
3 2 -4 1613.23 46.72
3 2 -4 1566.16 36.62
-3 -2 -4 1425.9 66.31
-3 2 -4 1578.13 78.84
3 2 -3 3089.7 67.64
3 2 -3 3057.87 94.34
3 2 -3 2969.5 54.52
-3 2 -3 3048.92 107.73
3 2 -2 1684.73 67.87
3 2 -2 1683.68 44.79
-3 -2 -2 1726.38 63.67
-3 2 -2 1892.22 83.69
3 -2 -2 1894.59 83.37
3 -2 -1 1232.07 68.2
-3 -2 -1 1285.21 51.9
3 -2 -1 1233.57 25.33
-3 2 -1 1230.12 67.62
3 2 -1 1208.03 42.25
3 -2 0 6.31 6.25
3 2 0 8.88 4.5
3 -2 0 14.19 3.71
3 -2 0 4.59 5.25
-3 -2 0 11.79 5.43
3 -2 1 1247.19 37.18
3 2 1 1214.17 51.82
-3 -2 1 1249.11 44.9
3 -2 1 1295.1 71.38
-3 2 2 1896.17 90.89
3 -2 2 1659.28 48.59
3 2 2 1716.68 66.62
3 -2 2 1781.72 82.62
-3 -2 2 1758.92 50.39
3 -2 3 3176.33 73.3
3 2 3 3128.97 95.44
3 -2 3 3100.05 107.02
3 2 4 1672.91 73.11
-3 2 4 1900.21 92.23
3 -2 4 1710.22 78.8
3 -2 4 1688.01 57.91
3 2 4 1765.8 76.97
3 2 5 336.62 35.32
-3 2 5 353.04 41.33
3 -2 5 343.45 28.47
3 -2 5 386.03 38.6
-3 -2 6 330.53 25.65
-3 2 6 410.41 46.1
3 -2 6 362.65 37.56
-3 2 6 308.52 18.27
-3 -2 6 323.14 36.4
3 -2 6 334.55 30.21
3 2 6 363.81 39.32
-3 -2 7 836.03 43.87
-3 2 7 817.04 33.74
-3 -2 7 878.94 61.76
3 -2 7 872.79 51.87
3 -2 7 925.3 61.47
-3 2 8 1240.96 45.75
-3 -2 8 1314.43 59.48
-3 -2 8 1315.89 76.61
3 -2 8 1387.2 77.15
-3 2 9 2044.76 65
-3 -2 9 2274.89 83.94
-3 -2 10 724.62 51.38
-3 2 11 304.38 29.71
-3 -2 11 264.45 33.69
3 -3 -14 28.65 16.91
-3 3 -14 32.35 14.81
-3 3 -13 96.95 24.61
3 -3 -13 77.15 26.95
-3 -3 -13 158.76 37.05
3 3 -13 87.64 24.1
3 3 -12 750.9 67.89
3 -3 -12 701.83 76.6
-3 -3 -12 844.95 84.94
-3 3 -12 677.44 64.42
3 -3 -11 647.18 71.14
3 3 -11 673.21 61.59
-3 -3 -11 731.4 74.96
-3 3 -11 677.65 63.09
-3 3 -10 428.01 48.7
3 -3 -10 400.62 54.94
-3 -3 -10 459.82 56.24
3 3 -10 412.7 46.37
-3 3 -9 318.68 34.06
3 -3 -9 318.98 47.36
-3 -3 -9 365.23 47.42
-3 3 -9 300.25 39.88
3 3 -9 322.99 39.63
-3 3 -8 144.9 27.44
3 3 -8 121.8 23.79
-3 3 -8 127.34 20.61
3 -3 -8 106.11 26.19
-3 -3 -8 129.42 26.88
-3 -3 -7 628.28 55.19
-3 3 -7 609.47 42.19
3 -3 -7 609.23 59.45
-3 3 -7 694.26 58.11
3 3 -7 635.65 51.76
-3 3 -6 1898.01 70.71
3 -3 -6 2013.28 102.62
-3 -3 -6 1862.61 89.41
-3 3 -6 2065.79 98.62
3 3 -6 1953.63 88.37
3 3 -5 1174.62 66.19
-3 3 -5 1206.85 53.27
3 -3 -5 1110.87 74.32
-3 3 -5 1256.15 74.95
-3 -3 -5 1188.42 66.98
3 3 -4 550.98 45.33
-3 3 -4 593.32 35.11
3 -3 -4 527.45 50.63
-3 -3 -4 476.06 39.81
-3 3 -4 621.85 51.68
-3 3 -3 81.77 18.58
3 3 -3 49.88 14.45
3 3 -3 48.34 6.2
-3 3 -3 48.96 9.97
3 -3 -3 61.37 17.96
3 -3 -2 352.62 40.67
-3 3 -2 357.42 23.49
3 3 -2 319.94 33.12
3 -3 -1 1363.78 38.83
-3 3 -1 1299.22 40.64
3 -3 -1 1360.42 78.43
-3 -3 -1 1230.02 51.32
-3 3 0 2361.52 47.21
-3 -3 0 2269.72 64.7
3 -3 0 2452.62 105.8
3 -3 0 2397.06 54.26
-3 -3 1 1335.27 45.35
3 -3 1 1299.12 78.25
3 3 1 1156.15 50.91
3 -3 1 1254.31 43.11
-3 -3 2 345.22 20.22
-3 3 2 421.64 46.36
3 3 2 312.36 29.07
3 -3 2 337.6 23.95
3 -3 2 427.19 44.44
3 3 3 36.62 10.94
3 -3 3 37.96 8.87
-3 3 3 51.12 16.82
-3 -3 3 49.56 5.99
-3 3 4 702.09 62.01
3 3 4 642.76 48.56
3 -3 4 652.72 52
3 -3 4 623.96 37.99
-3 3 5 1530.44 95.28
3 3 5 1430.75 76.98
3 -3 5 1388.42 75.06
3 -3 5 1304.17 59.04
3 3 6 2195.15 100.81
3 -3 6 2327.46 97.99
3 -3 6 2134.47 79.74
-3 3 7 723.49 21.1
3 -3 7 828.5 59.4
-3 3 8 176.95 13.6
3 -3 8 163.77 26.59
-3 3 9 390.33 23.79
-3 -3 9 418.2 28.42
-3 3 10 468.21 29.28
3 4 -13 144.43 33.82
3 4 -12 76.91 22.94
-3 4 -12 89.14 22.24
3 -4 -12 83.95 27.88
-3 -4 -12 35.27 17.88
-3 4 -11 228.28 35.08
3 -4 -11 238.19 46.08
3 4 -11 200.06 35.79
-3 4 -11 215.11 32.91
-3 -4 -11 231.73 43.14
-3 -4 -10 89.44 26.69
3 -4 -10 98.66 29.84
-3 4 -10 77.31 20.06
3 4 -10 87.1 22.42
-3 4 -10 66.82 17.15
3 -4 -9 153.46 34.59
-3 4 -9 161.3 28.9
3 4 -9 171.55 31.48
-3 -4 -9 127.3 29.56
-3 4 -9 137.73 23.54
-3 4 -8 167.41 29.31
-3 4 -8 173.98 25.51
3 -4 -8 106.98 27.82
3 4 -8 143.24 27.54
-3 -4 -8 168.95 31.82
-3 4 -7 308.94 32.33
3 -4 -7 310.89 45.05
-3 -4 -7 294.04 39.06
-3 4 -7 374.02 42.44
3 4 -7 324.1 39.25
-3 4 -6 128 24.75
3 -4 -6 103.71 24.77
3 4 -6 73.84 18.73
-3 -4 -6 107.33 22.38
-3 4 -6 97.4 17.47
3 4 -5 400.39 41.75
-3 4 -5 405.04 33.39
3 -4 -5 322.24 42.65
-3 -4 -5 402.92 40.69
-3 4 -5 406.92 43.56
-3 4 -4 163.46 20.2
3 4 -4 162.84 26.51
-3 -4 -4 156.22 24.26
3 -4 -4 145.22 27.83
3 4 -3 338.82 37.64
3 -4 -3 298.01 39.66
-3 4 -3 369.96 28.6
-3 -4 -3 316.88 31.98
3 4 -2 241.53 30.98
-3 4 -2 208.59 20.08
3 4 -2 217.9 14.51
3 -4 -2 183.29 30.65
3 -4 -1 548.88 52.48
-3 4 -1 649.85 32.46
3 4 -1 609.3 31.55
3 4 -1 659.5 50.62
3 -4 -1 720.99 62.94
3 -4 0 145.92 27.97
3 -4 0 129.41 17.37
-3 4 0 105.68 11.94
3 4 0 115.01 15.82
-3 -4 0 129.45 16.33
3 -4 0 95.54 22.67
3 -4 1 689.31 39.89
3 -4 1 535.51 51.39
-3 4 1 682.03 26.2
3 4 1 556.68 38.12
-3 -4 1 676.99 33.56
3 -4 1 649.4 59.69
3 -4 2 231.41 23.51
-3 4 2 202.48 35.66
-3 4 2 262.75 12.8
3 4 2 196.57 24.99
3 -4 2 162.68 28.28
3 -4 2 212.65 33.99
-3 -4 2 229.14 16.88
3 -4 3 377.51 31.4
3 -4 3 396.41 43.8
-3 4 3 463.52 54.74
3 4 3 416.2 39.18
3 -4 3 388.16 44.89
-3 -4 3 393.15 14.61
3 4 4 190.04 28.34
3 -4 4 131.95 26.01
3 -4 4 223.73 32.56
3 -4 4 154.9 21.19
3 4 5 478.44 47.57
3 -4 5 429.05 37.55
3 -4 5 444.9 44.86
3 -4 6 123.81 23.74
3 -4 7 400.85 42.21
3 -4 8 175.39 27.48
-3 -5 -11 48.52 21.32
3 -5 -11 44.92 22.75
3 5 -11 46.02 18.02
-3 5 -11 55.29 19.4
3 -5 -10 280.16 51.13
-3 5 -10 292.86 38.59
3 5 -10 294.42 44.87
-3 5 -10 256.65 36.65
-3 -5 -10 318.06 49.9
3 -5 -9 199.01 41.78
-3 5 -9 219.79 31.67
3 5 -9 223.32 37.52
-3 5 -9 229.62 33.99
-3 -5 -9 254.02 42.83
-3 5 -8 581.64 50.35
3 -5 -8 643.09 71.05
-3 -5 -8 566.44 60.76
3 5 -8 616.36 60.03
-3 5 -7 406.55 40.36
3 -5 -7 401.14 53.51
-3 -5 -7 389.43 47.32
3 5 -7 450.25 49.64
3 5 -6 326.79 41.74
-3 5 -6 355.89 35.83
3 -5 -6 337.99 47.02
-3 -5 -6 327.06 41.39
3 -5 -5 134.71 29.54
3 5 -5 110.53 23.1
-3 5 -5 140.32 21.58
-3 -5 -5 118.81 23.32
3 5 -4 700.41 58.18
3 -5 -4 685.49 62.92
-3 5 -4 653.83 43.77
-3 -5 -4 585.46 49.38
3 5 -3 311.57 38.57
3 -5 -3 280.96 39.44
-3 5 -3 323.59 29.26
-3 -5 -3 320.55 34.6
3 5 -2 806.17 27.45
3 5 -2 685.52 56.68
3 -5 -2 667.33 59.77
-3 5 -2 708.62 40.49
-3 -5 -2 652.67 46.04
3 -5 -1 245.49 36.09
3 5 -1 286.06 22.91
3 5 -1 223.52 32.61
-3 5 -1 282.34 23.98
-3 -5 -1 267.16 27.57
3 -5 0 253.65 36.76
3 5 0 269.25 25.63
-3 5 0 257.61 21.37
3 5 0 221.93 32.1
3 -5 0 294 43.5
3 -5 1 304.29 43.75
3 -5 1 234.13 34.97
3 -5 1 286.23 31.95
3 5 1 267.93 28.66
-3 5 1 313.95 21.03
-3 -5 1 318.48 24.78
3 -5 2 820.5 54.6
3 -5 2 667.7 58.54
3 5 2 823.69 54.27
-3 5 2 852.85 30.22
-3 -5 2 866.67 35.93
3 -5 2 794.73 70.13
3 -5 3 321.61 34.44
3 -5 3 277.56 37.73
3 -5 3 395.45 47.89
-3 5 3 402.58 16.59
3 5 3 338.8 38.22
-3 -5 3 386.34 16.58
3 -5 4 729.45 53.29
3 -5 4 614.33 56.58
3 5 4 774.35 60.87
3 -5 4 846.29 67.74
3 -5 5 144.62 27.17
3 -5 5 137.68 27.98
3 -5 6 350.85 44.66
3 -5 6 382.82 42.8
3 -5 7 402.71 43.95
3 -5 7 455.01 52.11
3 -6 -10 429.78 65.16
-3 6 -10 487.37 53.35
-3 -6 -10 458.52 62.62
3 6 -10 471.76 58.54
-3 6 -9 575.81 56.06
3 -6 -9 560.66 71.78
-3 -6 -9 622.58 70.18
3 6 -9 590.89 63.54
-3 6 -8 482.17 49.05
3 -6 -8 370.51 56.22
3 6 -8 500.76 56.65
-3 -6 -8 528.07 60.66
3 -6 -7 198.26 39.82
-3 6 -7 236.83 33.1
3 6 -7 231.97 38.59
-3 -6 -7 236.21 38.42
-3 6 -6 296.79 35.42
3 -6 -6 293.38 46.69
-3 -6 -6 245.91 37.37
3 6 -6 352.1 46.38
3 6 -5 453.14 50.78
-3 6 -5 445.27 41.09
3 -6 -5 336.48 47.52
-3 -6 -5 386.5 45.39
3 6 -4 640.66 59.34
3 -6 -4 653.65 63.71
-3 6 -4 604.97 45.91
-3 -6 -4 515.16 48.59
3 6 -3 794.21 66.26
3 -6 -3 691 63.79
-3 6 -3 782.19 49.76
-3 -6 -3 692.23 54.27
3 6 -2 623.05 20.99
3 6 -2 644.11 58.82
3 -6 -2 551.8 56.03
-3 6 -2 670.52 43.08
-3 -6 -2 586.41 47
3 6 -1 534 32.66
3 6 -1 473.84 50.52
3 -6 -1 403.55 47.16
-3 6 -1 505.64 35.87
-3 -6 -1 495.66 40.47
3 6 0 298.75 28.62
3 -6 0 236.57 35.23
3 6 0 269.18 37.46
-3 6 0 302.02 25.59
-3 -6 0 268.6 27.5
3 -6 1 398.66 45.52
3 6 1 527.47 42.61
3 6 1 461.94 49.72
-3 6 1 502.95 30.5
-3 -6 1 575.73 36.62
3 -6 2 594.61 55.36
3 6 2 642.1 51.59
3 -6 2 633.84 56.43
-3 6 2 724 32.75
-3 -6 2 724.09 35.97
3 -6 3 810.11 64.22
3 6 3 848.95 63.33
-3 6 3 916.81 32.4
-3 -6 3 933.92 29.43
-3 -6 3 735.15 29.88
3 -6 4 656.5 57.94
-3 6 4 730.62 22.2
3 -6 5 422.14 47.12
3 -6 6 373.43 44.12
3 -6 7 287.52 39.19
3 -6 8 522.14 53.92
-3 7 -9 96.09 26.26
3 -7 -8 57.96 22.74
3 7 -8 56.01 20.16
-3 7 -8 77.04 22.09
-3 -7 -8 60.56 22.12
3 -7 -7 263.82 47.35
-3 7 -7 267.57 37.9
3 7 -7 329.12 48.1
-3 -7 -7 287.72 45.17
-3 7 -6 625.13 55.23
3 -7 -6 568.86 67.67
-3 -7 -6 540.09 58.64
3 7 -6 654.81 65.8
-3 7 -5 451.18 45.03
3 -7 -5 429.18 55.95
-3 -7 -5 397.16 48.04
3 7 -5 495.1 56.9
3 -7 -4 77.35 23.38
3 7 -4 53.71 18.13
-3 -7 -4 63.2 19.14
-3 7 -4 74.37 18.29
3 7 -3 60.89 19.84
3 -7 -3 66.03 20.59
-3 -7 -3 57.99 16.84
-3 7 -3 55.89 14.29
-3 7 -2 91.17 17.93
3 -7 -2 91.15 23.2
3 7 -2 93.97 24.12
-3 -7 -2 94.9 20.21
3 7 -1 377.72 47.52
3 -7 -1 313.65 41.84
-3 7 -1 402.08 34.83
-3 -7 -1 418.8 39.75
3 7 0 761.03 67.64
3 -7 0 658.1 58.78
-3 7 0 767.68 45.24
-3 -7 0 822.28 52.46
3 -7 1 337.51 41.26
3 7 1 388.13 48.3
-3 7 1 417.87 31.02
-3 -7 1 447.78 34.85
-3 7 2 68.37 11.41
3 -7 2 73.99 19.51
3 7 2 65.4 20.27
-3 -7 2 74.6 12.45
3 7 3 71.24 20.18
3 -7 3 54.7 16.9
3 -7 4 79.22 19.7
3 -7 5 478.37 48.63
3 -7 6 655.58 56.32
-3 8 -7 225.94 37.56
-3 -8 -7 189.75 39.43
3 -8 -6 15.37 15.02
-3 -8 -6 25.41 15.7
-3 8 -6 26.25 12.32
3 -8 -5 190.27 39.9
3 8 -5 221.2 40.2
-3 8 -5 175.26 30.43
-3 -8 -5 173.97 34.12
3 -8 -4 105.66 27.75
-3 -8 -4 137.7 28.48
-3 8 -4 125.86 25.32
3 8 -4 146.4 31.35
3 -8 -3 72.58 22.01
3 8 -3 44.65 18.36
-3 8 -3 84.47 19.43
-3 -8 -3 45.83 16.26
3 -8 -2 159.81 32.05
3 8 -2 210.62 37.81
-3 -8 -2 187.81 31.1
-3 8 -2 161.03 25.72
3 -8 -1 222.88 36.48
3 8 -1 316.39 46.85
-3 8 -1 307.37 33.27
-3 -8 -1 356.74 39.86
3 -8 0 39.69 14.04
3 8 0 24.54 14.24
3 8 1 241.51 40.63
3 -8 1 276.38 39.25
3 8 2 164.04 34.67
3 -8 2 163.79 28.73
3 8 3 83.09 22.61
3 8 4 139.89 31.74
3 8 5 144.12 32.01
3 8 6 34.95 15.48
3 -9 -4 476.97 60.66
3 -9 -3 224.88 41.69
3 -9 -2 592.96 63.99
3 9 1 179.1 36.8
3 9 2 634.88 69.27
3 9 3 179.67 37.48
3 9 4 489.12 60.92
-4 0 -14 259.07 48.59
4 0 -14 211.56 36.07
4 0 -13 1129.43 67.05
4 0 -13 1006.64 77.42
4 0 -13 1065.81 70.19
-4 0 -13 1182.76 99.87
-4 0 -12 23.28 13.49
4 0 -12 34.07 13.64
4 0 -12 40.25 12.23
4 0 -11 655.67 47.49
4 0 -11 625.2 56.84
-4 0 -11 630.9 66.94
-4 0 -10 15.82 11.36
4 0 -10 14.86 10.71
4 0 -10 11.78 6.29
4 0 -9 3208.73 120.76
4 0 -9 3491.35 99.71
-4 0 -9 3349.24 140.56
4 0 -8 722.34 55.26
4 0 -8 779.36 44.42
-4 0 -8 712.16 61.74
-4 0 -7 665.88 57.31
4 0 -7 684.3 51.21
4 0 -7 626.54 37.98
-4 0 -6 109.2 22.31
4 0 -6 126.07 16.86
4 0 -6 107.72 20.68
4 0 -5 1196.83 50.04
4 0 -5 1200.29 66.15
-4 0 -5 1198.22 70.93
4 0 -5 1101.77 58.42
4 0 -4 472.42 31.74
4 0 -4 514.79 42.98
4 0 -4 474.97 38.01
4 0 -3 6907.18 153.9
4 0 -3 7025.88 118.4
4 0 -3 6743.25 145.96
4 0 -2 1033.36 58.17
4 0 -2 941.13 55.28
4 0 -1 41.45 11.69
-4 0 -1 47.28 13.03
4 0 0 270.71 30.22
-4 0 0 301.47 32.06
4 0 1 51.69 14.11
-4 0 1 29.19 10.02
4 0 2 1132.67 64.54
4 0 3 7417.22 170.01
4 0 4 632.68 50.42
-4 0 5 1493.95 76.53
4 0 5 1422.57 78.85
4 0 6 138.61 21.27
-4 0 6 114.66 21.97
4 0 6 111.03 22.67
-4 0 7 741.67 56.49
-4 0 8 891.19 64.91
-4 0 8 832.6 54.67
-4 0 9 3592.93 136.82
-4 0 9 3350.06 113.95
-4 0 10 7.09 6.04
-4 1 -15 -8.85 10.58
4 -1 -15 13.54 11.23
-4 -1 -14 264.35 49.82
-4 1 -14 219.96 44.13
4 -1 -14 283.19 45.95
4 1 -14 236.26 35.17
4 -1 -14 233.11 38.11
-4 1 -13 -3.92 8.65
4 -1 -13 -10.26 11.01
4 1 -13 -5.54 5.99
4 1 -13 -8.85 6.94
-4 -1 -13 8.82 9.4
-4 1 -12 1209.58 94.6
4 1 -12 1303.87 77.07
4 -1 -12 1271.58 91.31
4 1 -12 1263.05 64.63
4 1 -12 1271.08 76.64
-4 -1 -12 1351.42 105.07
-4 1 -11 213.93 38.23
4 -1 -11 257.39 39.72
4 1 -11 275.6 34.17
4 1 -11 264.79 28.59
4 1 -11 242.59 32.44
-4 -1 -11 273.17 44.51
-4 1 -10 516.41 57.34
4 -1 -10 601.14 37.04
-4 -1 -10 578.84 62.82
4 -1 -10 613.02 59.91
4 1 -10 555.65 47.03
4 1 -10 599.97 48.5
-4 1 -9 72.06 20.91
4 1 -9 44.24 14.05
4 1 -9 61.63 15.12
4 -1 -9 59.13 18.55
4 -1 -9 44.37 9.46
-4 -1 -9 68.66 20.79
4 -1 -8 189.57 31.09
-4 1 -8 187.89 32.28
4 -1 -8 252.33 21.16
4 1 -8 233.27 28.24
4 1 -8 223.7 27.37
4 1 -8 205.08 24.63
-4 -1 -8 221.51 35.11
-4 1 -7 38.27 14.33
4 1 -7 38.75 11.4
4 1 -7 33.35 9.03
4 1 -7 42.09 12.01
4 -1 -7 38.21 8.16
4 -1 -7 28.7 13.62
-4 -1 -7 46.77 16.11
4 -1 -6 3245.41 121.01
4 1 -6 3309.51 98.56
4 -1 -6 3313.57 66.34
-4 -1 -6 3296.5 120.77
-4 1 -6 3242.65 123.97
4 1 -6 3153.21 89.76
4 1 -6 3318.04 99.22
4 1 -5 456.43 35.68
4 1 -5 441.32 35.83
4 -1 -5 452.77 44.07
-4 -1 -5 464.67 43.25
-4 1 -5 431.62 44.81
4 -1 -5 427.31 22.84
4 1 -5 392.6 31.31
4 -1 -4 271.54 18.27
4 1 -4 253.92 26.86
4 1 -4 270.76 28.07
4 -1 -4 274.04 34.87
-4 -1 -4 259.89 31.05
-4 1 -4 299.61 36.61
4 1 -4 226.82 23.79
4 -1 -4 284.12 32.07
-4 -1 -3 23.91 9.94
4 1 -3 14.54 6.18
4 -1 -3 25.78 10.38
4 1 -3 17.19 7.12
4 -1 -3 2.54 6.09
4 -1 -3 24.65 6.13
4 1 -3 12.72 6.41
4 1 -2 37.61 9.93
4 -1 -2 37.35 12.53
4 -1 -2 48.88 14.74
4 1 -2 56.48 12.7
4 -1 -1 144.64 23.91
4 1 -1 192.92 22.65
-4 -1 -1 188.17 23.8
4 -1 -1 182.56 27.36
4 1 0 6782.6 139.16
4 -1 0 6633.16 167.47
-4 -1 0 6719.58 138.93
4 1 1 248.09 27.76
4 -1 1 193.48 28.36
-4 -1 1 185.03 22.98
4 -1 2 41.01 13.33
-4 -1 2 52.72 12.09
4 1 2 48.86 13.03
4 -1 3 23.74 10.39
4 -1 3 18.08 5.99
4 1 3 22.95 8.69
-4 1 4 381.27 42.03
4 -1 4 338.38 27.29
4 1 4 360.79 37.64
4 -1 4 348.1 39.02
-4 1 5 512.2 49.2
4 -1 5 475.68 35.54
4 1 5 530.97 47.68
4 -1 5 469.36 46.13
-4 -1 6 3936.38 114.44
-4 1 6 4075.46 140.28
4 -1 6 4048.97 110.76
4 1 6 3809.86 133.73
4 -1 6 3952.96 136.05
-4 1 7 49.63 16.52
-4 -1 7 30.61 10.46
4 -1 7 40.21 14.69
-4 -1 8 275.88 33.24
-4 -1 9 40.35 13.29
-4 -1 9 82.54 19.71
-4 -1 10 627.83 54.67
-4 1 10 615.63 46.06
-4 2 -15 56.26 24.17
4 2 -15 49.86 18.03
4 -2 -15 67.53 22.64
-4 2 -14 -6.73 13.55
4 -2 -14 4.4 6.44
4 2 -14 8.12 2.87
-4 2 -13 54.24 20.17
4 -2 -13 40.25 18.88
4 2 -13 60.94 18.99
-4 -2 -13 36.92 18.71
4 2 -12 16.96 10.01
-4 2 -12 41.61 19.56
4 -2 -12 12.46 9.95
-4 -2 -12 50.01 22.06
-4 2 -11 31.72 14.64
4 -2 -11 67.38 21.35
4 2 -11 40.8 14.26
4 2 -11 30.08 10.68
-4 -2 -11 32.46 16.59
-4 2 -10 45.38 17.78
4 -2 -10 50.93 18.58
4 2 -10 31.03 9.96
4 2 -10 38.9 14.08
4 2 -10 29.87 7.29
-4 -2 -10 9.82 10.63
4 -2 -9 66.83 21.84
-4 2 -9 85.16 22.68
4 2 -9 90.82 13.75
4 2 -9 78.77 14.46
4 2 -9 92.4 20.51
4 2 -9 75.19 11.22
-4 -2 -9 76.11 21.63
4 -2 -8 -4.62 8.33
-4 2 -8 -4.06 5.53
4 2 -8 18.42 7.23
4 2 -8 4.93 3.38
4 2 -8 2.46 4.4
-4 -2 -8 -4.2 5.59
-4 2 -7 123.96 26
4 2 -7 114.67 16.68
-4 -2 -7 137.66 26.72
4 2 -7 117.76 21.67
4 2 -7 107.21 13.58
4 -2 -7 116.85 26.7
4 2 -6 17.06 8.83
4 2 -6 21.5 5.89
-4 2 -6 30.51 14.12
4 -2 -6 5.58 8.33
-4 -2 -6 32.41 12.4
4 2 -6 25.96 8.12
-4 2 -5 100.6 23.44
4 2 -5 80.8 17.32
4 2 -5 87.08 11.74
4 2 -5 91.2 13.99
4 -2 -5 87.88 22.18
-4 -2 -5 99.78 20.55
4 2 -4 25.35 6.31
-4 2 -4 31.4 14.49
4 2 -4 26.72 11.04
4 2 -4 31.39 8.97
4 -2 -4 23.9 12.02
-4 -2 -4 33.98 11.57
-4 2 -3 35.44 14.32
4 -2 -3 78.31 19.12
4 2 -3 53.3 13.34
4 2 -3 53.63 10.78
4 -2 -3 62.07 18.89
4 2 -3 61.6 10.78
-4 -2 -3 47.27 13.08
-4 2 -2 5.98 6.82
4 -2 -2 10.54 8.44
4 -2 -2 3.62 1.46
4 2 -2 1.42 2.66
-4 -2 -1 110.03 17.62
4 -2 -1 127.21 24
4 -2 -1 115.66 9.44
4 2 -1 109.35 15.46
-4 -2 0 15.46 6.79
4 -2 0 37.99 12.96
4 -2 0 20.75 4.63
4 2 0 16.09 7.07
-4 -2 1 110.12 16.57
4 -2 1 129.19 25.34
4 -2 1 98.46 11.52
4 2 1 100.21 16.74
4 -2 2 -3.86 6.54
-4 -2 2 4.23 4.26
4 -2 2 2.3 2.49
4 2 2 3.75 4.7
4 -2 3 72.36 18.82
-4 2 3 72.88 19.4
4 -2 3 59.7 11.59
4 2 3 61.58 15.03
4 -2 4 39.52 14.34
-4 2 4 42.67 16.11
4 2 4 38.55 12.91
4 -2 4 28.39 8.6
4 -2 5 111.5 17.42
4 2 5 136.05 24.87
-4 2 5 103.9 24.1
4 -2 5 131.07 25.35
4 -2 6 31.92 10.56
-4 2 6 18 11.9
4 -2 6 35.03 13.51
-4 -2 9 73.82 15.95
-4 -2 10 34.7 11.31
-4 2 10 44.87 10.84
4 3 -14 498.55 59.34
-4 3 -14 388.29 54.55
4 3 -13 40.53 17.26
-4 3 -13 30.5 15.87
4 -3 -13 19.62 13.96
-4 -3 -13 11.68 11.69
4 -3 -12 482.86 65.07
4 3 -12 407.09 50.75
-4 -3 -12 408.71 60.84
-4 3 -12 433.22 56.34
-4 3 -11 29.01 13.43
4 -3 -11 64.11 23.91
4 3 -11 58.01 18.36
-4 -3 -11 67.69 23.29
4 -3 -10 91.04 25.85
-4 3 -10 51.99 17.57
4 3 -10 48.84 16.3
-4 -3 -10 86.31 25.65
4 -3 -9 91.34 27.17
-4 3 -9 89.75 25.11
4 3 -9 107.85 23.44
-4 -3 -9 77.47 23.56
4 3 -8 767.23 59.91
4 -3 -8 788.07 72.9
4 3 -8 888.13 34.47
-4 -3 -8 1005.81 76.81
-4 3 -8 859.84 72.9
4 -3 -7 6.48 9.03
-4 3 -7 16.14 10.79
4 3 -7 7.57 3.05
4 3 -7 22.34 10.74
-4 -3 -7 32.42 13.42
4 3 -6 800.3 57.16
4 -3 -6 894.65 73.79
4 3 -6 850.6 31.27
-4 -3 -6 833.15 62.47
-4 3 -6 868.64 70.03
-4 3 -5 152.49 29.96
4 3 -5 140.67 12.71
4 3 -5 147.39 24.74
4 -3 -5 132.14 29.39
-4 -3 -5 140.41 24.88
-4 3 -4 81.58 21.2
4 3 -4 72.57 10.1
4 3 -4 81.48 7.67
4 -3 -4 64.29 20.34
-4 -3 -4 65.2 16.13
4 3 -4 66.38 16.12
-4 3 -3 154.61 28.86
4 -3 -3 135.13 26.11
4 3 -3 125.21 14.01
4 3 -3 109.06 11.31
4 3 -3 96.86 19.82
4 -3 -3 122.74 26.89
-4 -3 -3 117.24 20.02
4 -3 -2 576.71 56.98
4 3 -2 547.02 44.83
4 3 -2 577.99 30.15
4 -3 -2 730.71 62.23
-4 3 -2 670.73 59.36
-4 -3 -2 446.74 36.96
4 -3 -1 170.89 30.66
4 3 -1 107.34 14.79
4 -3 -1 143.94 27.24
4 -3 -1 154.01 12.1
4 -3 0 1360.47 84.63
4 -3 0 1424.93 42
4 3 0 1359.16 57.52
-4 -3 0 1374.1 57.85
4 -3 0 1529.66 94.11
4 -3 1 132.41 28.23
4 -3 1 113.61 13.31
4 3 1 123.51 18.81
4 -3 1 121.22 25.86
-4 -3 1 132.08 16.73
4 -3 2 682.16 60.39
4 3 2 680.24 47.3
4 -3 2 748.24 64.78
-4 -3 2 638.51 35.03
4 -3 2 622.61 33.7
4 -3 3 150.38 28.65
4 3 3 113.04 20.32
-4 3 3 144.03 30.6
4 -3 3 125.7 16.57
-4 -3 3 124.72 13.76
4 -3 4 49.81 17.05
4 3 4 55.62 15.1
4 -3 4 56.62 11.84
-4 3 4 75.23 22.61
4 3 5 177.58 29.01
4 -3 5 206.53 24.16
4 -3 5 216.3 33.4
4 -3 6 834.8 66.23
-4 4 -12 18.83 11.32
4 -4 -12 34.59 23.03
4 4 -12 77.25 24.55
-4 -4 -12 27.07 16.67
4 -4 -11 578.76 73.7
-4 -4 -11 576.27 70.72
4 4 -11 560.63 59.29
-4 4 -11 532.02 59.72
4 -4 -10 -0.11 6.56
-4 4 -10 -12.26 10.54
4 4 -10 11.74 8.93
-4 -4 -10 19.52 14.46
4 -4 -9 1768.72 120.38
-4 -4 -9 1955.55 116.55
4 4 -9 1798.02 99.34
-4 4 -9 1774.64 104.98
4 -4 -8 242.21 43.83
-4 4 -8 223.15 37.16
-4 -4 -8 300.57 43.93
4 4 -8 272.04 38.13
4 -4 -7 78.7 24.39
-4 4 -7 99.28 23.97
-4 4 -7 79.8 17.06
4 4 -7 60.56 17.84
-4 -4 -7 123.69 26.71
4 4 -6 41.41 14.59
-4 4 -6 80.34 21.66
-4 4 -6 58.44 13.59
-4 -4 -6 71.58 19.38
4 -4 -6 63.9 22.69
4 4 -5 460.65 46.43
-4 4 -5 476.82 36.55
4 -4 -5 408.66 52.11
-4 -4 -5 493.13 47.15
-4 4 -5 512.32 54.48
-4 4 -4 63.17 20.02
-4 4 -4 67.4 13.2
4 4 -4 71.57 18.09
4 -4 -4 80.05 23.14
-4 -4 -4 58.82 15.34
4 4 -3 4140.08 62.95
-4 4 -3 3802.57 91.04
4 4 -3 3579.38 125.42
4 -4 -3 3477.44 146.81
4 4 -3 4061.71 59.7
-4 -4 -3 3523.23 112.24
-4 4 -2 102.9 14.03
4 4 -2 55.54 16.13
4 4 -2 118.34 13.46
4 -4 -2 114.84 28.1
-4 -4 -2 93.34 17.46
4 4 -1 42.03 9.09
4 -4 -1 57.98 20.77
4 -4 0 57.46 20.25
4 4 0 48.5 10.66
4 -4 0 61.53 10.65
4 -4 0 37.11 16.18
-4 -4 0 57.17 11.84
-4 -4 1 27.17 7.73
4 -4 1 40.02 9.15
4 -4 1 53.45 18.6
4 4 1 21.41 7.71
4 -4 1 19.23 11.55
4 -4 2 118.73 27.51
4 4 2 92.44 17.99
4 -4 2 94.76 25.08
-4 -4 2 117.27 14.28
4 -4 2 90.85 14.79
4 4 3 3864.92 125.24
4 -4 3 3960.04 156.75
-4 -4 3 4321.09 70.64
4 -4 3 3986.19 102.86
4 -4 4 73.37 20.52
4 4 4 81.24 18.97
4 -4 4 61.33 20.2
4 -4 4 50.88 12.33
4 -5 -11 112.45 34.2
-4 5 -11 115.71 29.18
4 5 -11 109.73 28.45
-4 -5 -11 130.14 34.91
4 -5 -10 432.53 66.26
-4 -5 -10 444.19 60.8
4 5 -10 491.97 56.89
-4 5 -10 378.32 48.38
4 -5 -9 -8.35 10.91
-4 5 -9 -7.81 7.43
4 5 -9 -0.24 5.7
-4 5 -9 -0.06 5.22
-4 -5 -9 -0.57 2.83
4 -5 -8 62.79 24.99
-4 5 -8 110.56 25.84
-4 5 -8 88.57 19.82
-4 -5 -8 101.1 25.75
4 5 -8 110.56 25.54
4 -5 -7 45.35 19.88
-4 5 -7 58.13 15.01
4 5 -7 66.62 20.69
-4 -5 -7 44.72 16.33
4 5 -6 1768.58 96.5
-4 5 -6 1578.86 73.49
4 -5 -6 1653.08 111.64
-4 -5 -6 1550.75 91.18
4 5 -5 142.97 27.09
-4 5 -5 148.39 21.88
-4 -5 -5 101.87 22.03
4 -5 -5 150.43 33.04
-4 5 -4 175.48 22.25
4 5 -4 178.61 30.67
-4 -5 -4 160 27.07
4 -5 -4 156.63 33.02
4 5 -3 13.48 9.08
-4 5 -3 9.72 3.07
4 -5 -3 31.47 16.04
-4 -5 -3 11.6 7.13
-4 5 -2 -0.51 3.14
4 5 -2 5.8 6.96
4 -5 -2 -1.81 9.69
-4 -5 -2 -1.98 2.87
4 5 -2 3.9 2.56
-4 5 -1 93.05 13.21
4 5 -1 100.75 14
4 5 -1 103.06 23.24
4 -5 -1 85.68 24.46
-4 -5 -1 122.17 19.47
-4 5 0 2761.36 63.62
4 -5 0 2622.41 87.18
4 -5 1 149.32 22.16
4 5 1 91.97 17.56
-4 -5 1 112.68 16.25
4 -5 1 97.84 25.82
-4 -5 2 4.98 3.24
4 5 2 10.58 7.64
4 -5 2 18.62 7.95
4 -5 2 10.41 8.66
4 5 3 15.24 9.23
-4 -5 3 16 4.1
4 -5 3 14.49 7.76
4 -5 3 11.59 10.4
4 -5 4 223.47 38.69
4 -5 5 118.23 29.08
4 -5 6 1643.13 108.87
4 -5 7 111.7 28.99
-4 6 -10 24.62 11.62
4 -6 -9 218.53 47.43
-4 6 -9 246.66 36.42
4 6 -9 221.19 39.36
-4 -6 -9 223.46 43.52
4 -6 -8 48.4 22.54
4 6 -8 48.37 18.16
-4 6 -8 27.44 11.75
-4 -6 -8 23.03 13.71
-4 6 -7 465.2 45.02
4 -6 -7 407.88 59.72
-4 -6 -7 573.07 60.55
4 6 -7 483.02 55.01
4 6 -6 54.58 19.35
4 -6 -6 54.23 20.79
-4 6 -6 31.55 11.64
-4 -6 -6 38.49 15.61
4 6 -5 515.84 54.14
-4 6 -5 535.2 43.97
4 -6 -5 576.58 66.55
-4 -6 -5 475.78 50.61
4 6 -4 12.01 8.23
-4 6 -4 5.8 5.91
-4 -6 -4 9.35 8.6
4 -6 -4 6.52 9.79
4 6 -3 428.38 49.21
-4 6 -3 344.76 31.65
4 -6 -3 366.81 51.27
-4 -6 -3 323.04 38.04
4 6 -2 19.34 11.3
-4 6 -2 23.54 8.18
4 -6 -2 5.99 7.53
-4 -6 -2 23.4 9.92
-4 6 -1 605.36 36.72
4 6 -1 521.3 31.93
4 -6 -1 439.7 54.68
4 6 -1 503.36 53.67
-4 -6 -1 612.1 46.14
4 6 0 53.5 18.06
-4 6 0 51.56 10.06
4 -6 0 67.41 21.89
4 6 0 65.04 13.33
-4 -6 0 89.17 16.3
-4 6 1 597.31 29
4 -6 1 434.39 53.53
4 6 1 476.01 40.2
4 -6 1 548.48 48.72
4 6 1 518.83 54.12
4 6 2 18.88 8.76
-4 -6 2 39.07 9.2
4 -6 2 28.79 12.97
4 -6 2 21.61 12.79
-4 -6 3 248.34 12.64
4 -6 3 294.9 44.68
4 -6 4 23.45 14.71
4 -6 5 522.98 59.44
4 -6 6 51.33 19.19
4 -6 7 605.42 64.84
4 -6 8 23.34 13.04
4 -6 9 259.44 45.59
-4 7 -8 1100.86 76.81
-4 -7 -8 1184.47 96.63
4 -7 -7 -5.21 8.14
-4 7 -7 27.86 13.35
4 7 -7 29.8 14.88
-4 -7 -7 42.98 18.29
4 -7 -6 123.29 34.31
-4 7 -6 165.71 27.45
4 7 -6 145.85 31.7
-4 -7 -6 141.6 30.83
4 -7 -5 7.27 10.2
4 7 -5 12.32 10.02
-4 7 -5 23.84 10.37
-4 -7 -5 8.37 10
4 7 -4 523.39 57.52
-4 7 -4 462.43 41.66
4 -7 -4 479.6 61.26
-4 -7 -4 420.84 48.28
-4 7 -3 204.53 26.57
4 7 -3 209.56 36.79
-4 -7 -3 179.08 30.13
4 -7 -3 191.16 37.16
4 7 -2 1141.39 84.8
-4 7 -2 1213.08 60.18
4 -7 -2 950.12 81.78
-4 -7 -2 1155.12 71.74
4 7 -1 32.64 14.86
-4 7 -1 11.34 6.2
-4 -7 -1 20.41 9.05
4 -7 -1 7.47 7.7
-4 7 0 469.45 31.88
4 7 0 471.13 54.92
4 -7 0 363.49 49.27
-4 -7 0 533.87 42.71
4 7 1 31.01 14.38
4 -7 1 15.18 10.77
4 -7 2 1007.43 80.72
4 7 2 1058.89 82
4 7 3 191.71 35.32
4 -7 3 169.06 33.92
4 -7 4 460.59 54.88
4 -7 5 34.33 15.29
4 -7 6 189.09 35.25
-4 8 -7 55.88 18.67
-4 8 -6 128.17 25.79
-4 -8 -6 140.63 32.05
-4 8 -5 1041 69.83
4 -8 -5 1089.11 98.54
-4 -8 -5 1094.31 86.43
4 -8 -4 -0.55 3.86
-4 8 -4 2.16 4.04
-4 -8 -4 4.12 10.79
4 8 -3 909.67 79.11
4 -8 -3 881.74 83.13
-4 -8 -3 935.06 72.72
4 -8 -2 13.66 9.67
4 8 -2 9.52 10.01
4 8 -1 467.95 57.91
4 -8 -1 458.22 56.84
4 8 0 226.32 39.49
4 -8 0 181.1 34.42
4 8 1 493.03 59.36
4 -8 1 456.77 55.32
4 8 2 29.54 14.63
4 -8 2 4.4 5.84
4 -8 3 810.29 71.11
4 8 3 718.32 72.28
4 8 4 -13.25 12.37
4 8 5 1054.51 87.92
4 -9 -2 101.56 29.94
4 -9 -1 10.8 11.07
5 0 -14 10.76 10.4
-5 0 -13 -14.85 12.05
5 0 -13 11.03 9.37
-5 0 -12 -12.75 13.08
5 0 -12 -4.85 5.84
5 0 -12 1.56 3.89
-5 0 -11 -4.79 8.5
5 0 -11 1.12 5.81
5 0 -11 -0.5 2.5
-5 0 -10 2.78 4.72
5 0 -10 -3.78 4.98
5 0 -10 6.82 5.57
-5 0 -9 -6.16 8.01
5 0 -9 -14.02 10.2
5 0 -9 14.22 6.67
5 0 -9 20.63 9.87
5 0 -8 6.98 7.83
-5 0 -8 -6.33 7.12
5 0 -8 4.28 3.33
5 0 -8 3.22 3.74
-5 0 -7 -12.06 8.95
5 0 -7 6.98 5.74
5 0 -7 -3.87 3.7
5 0 -7 0.91 5.77
-5 0 -6 -12.04 9.78
5 0 -6 -1.82 3.15
5 0 -6 -3.61 3.99
5 0 -6 0.61 5.68
-5 0 -5 -0.52 5.91
5 0 -5 5.63 2.05
5 0 -5 -1.59 2.1
5 0 -5 -3.95 6.31
-5 0 -4 0.19 4.89
5 0 -4 4.38 4.48
5 0 -4 1.84 3.5
5 0 -4 -7.97 8.06
-5 0 -3 -3.95 6.53
5 0 -3 0.57 3.05
5 0 -3 -4.12 7.45
5 0 -2 13.61 7.91
-5 0 -2 -1.52 5.07
5 0 -2 5.89 3.99
5 0 -1 0.11 2.5
-5 0 -1 11.11 6.89
5 0 0 15.45 8.96
-5 0 0 -4.62 7.71
5 0 1 -9.86 7.79
5 0 2 -3.58 6.79
5 0 3 1.4 4.5
5 0 4 17.31 9.23
5 0 5 3.1 5.15
-5 0 7 -12.82 8.29
-5 0 8 7.81 8.78
-5 1 -14 157.7 38.29
5 -1 -14 204.9 39.14
-5 -1 -13 329.39 56.33
-5 1 -13 289.69 52.59
5 -1 -13 283.52 45.58
5 1 -13 372.63 43.38
5 1 -12 561.78 52.04
5 -1 -12 491.15 57.71
5 1 -12 493.69 48.39
-5 -1 -12 619.84 74.32
-5 1 -12 552.7 68.39
-5 -1 -11 29.91 15.35
-5 1 -11 40.6 18.44
5 1 -11 60.83 16.05
5 -1 -11 51.51 19.72
5 1 -11 36.35 11.86
5 -1 -11 65.52 12.91
-5 -1 -10 222.95 41.04
-5 1 -10 232.33 41.41
5 -1 -10 187.67 33.31
5 -1 -10 210.14 22.11
5 1 -10 197.79 29.24
5 1 -10 212.11 29.46
-5 -1 -9 222.66 38.29
5 -1 -9 165.69 31.35
-5 1 -9 205.49 38.18
5 -1 -9 227.51 21.85
5 1 -9 215.27 29.17
5 1 -9 211.71 28.16
5 1 -9 253.02 30.6
-5 -1 -8 188.48 34.55
-5 1 -8 192.71 35.85
5 1 -8 197.29 27.12
5 -1 -8 223.25 20.46
5 1 -8 191.8 26.03
5 1 -8 218.87 27.7
5 -1 -8 172.26 31.01
5 -1 -7 600.21 56.28
5 1 -7 661.52 48.05
5 -1 -7 681.51 33.71
-5 -1 -7 622.08 59
-5 1 -7 633.93 61.07
5 1 -7 579.36 43.54
5 -1 -7 639.01 55.56
5 1 -7 551.26 43.34
5 1 -6 1632.15 72.1
5 1 -6 1578.48 74.08
5 -1 -6 1735.02 93.52
-5 -1 -6 1696.8 93.39
5 -1 -6 1668.97 51.4
-5 1 -6 1743.65 99.9
5 1 -6 1489.89 69.21
5 -1 -6 1750.1 89.96
5 1 -5 345.53 32.88
5 1 -5 416.11 38.51
5 -1 -5 350.27 42.08
-5 1 -5 325.44 43.21
5 1 -5 305.61 31.23
5 -1 -5 333.93 38.76
-5 -1 -5 345.88 40.66
5 -1 -5 333.8 23.17
-5 -1 -4 66.86 17.87
5 1 -4 84.27 16.7
-5 1 -4 71.32 20.06
5 -1 -4 95.18 21.18
5 1 -4 89.41 16.2
5 -1 -4 73.15 11.53
5 1 -4 79.47 16.54
5 -1 -4 95.98 22.47
-5 -1 -3 12.6 5.9
5 1 -3 8.5 5.5
-5 1 -3 10.3 8.96
5 -1 -3 18.07 9.12
5 1 -3 10.25 6.22
5 -1 -3 4.6 3.28
5 1 -3 5.11 5.36
5 -1 -3 -3.67 7.2
5 1 -2 25.05 9.29
-5 -1 -2 13.43 8.46
5 -1 -2 30.65 12.14
-5 1 -2 14.55 10.1
5 1 -2 31.9 10.97
5 -1 -2 4.72 6.81
5 1 -1 626.96 46.05
5 -1 -1 618.45 54.92
5 -1 -1 583.03 51.95
-5 -1 -1 633.53 49.64
-5 1 -1 627.95 55.04
5 1 0 2778.41 100.43
5 -1 0 2845.64 118.54
5 1 1 762.1 54.94
5 -1 1 771.64 62.68
-5 1 1 695.56 58.17
5 -1 2 40.37 15.15
5 1 2 26.67 10.56
5 -1 3 10.22 7.84
5 -1 3 12.49 5.8
5 1 3 22.14 10.25
5 -1 4 134.36 19.4
5 1 4 126.81 25.12
5 -1 4 112.03 24.7
5 -1 5 349.94 32.82
-5 1 6 1924.32 105.24
-5 -1 9 217.17 32.14
-5 2 -14 19.3 13.9
5 2 -14 -2.01 5.82
5 2 -13 543.76 57.23
5 -2 -13 530.72 66.27
-5 2 -13 538.25 70.77
5 -2 -12 390.55 56.1
5 2 -12 445.96 50.06
-5 -2 -12 520 69.56
-5 2 -12 385.21 58.15
-5 2 -11 315 51.06
5 -2 -11 349.47 51.02
5 2 -11 341.76 34.02
5 2 -11 304.82 39.95
-5 -2 -11 383.72 57.18
5 -2 -10 807.44 75.1
5 2 -10 852 51.83
-5 -2 -10 758.04 76.53
5 2 -10 760.92 59.81
-5 2 -10 744.03 75.43
5 -2 -9 2014.77 115.23
5 2 -9 2167.4 81.06
-5 -2 -9 1963.65 117.16
-5 2 -9 2202.39 126.46
5 2 -9 2031.58 94.55
5 -2 -8 295.43 42.45
5 2 -8 298.17 29.49
5 2 -8 333.94 27.1
-5 2 -8 319.98 47.45
-5 -2 -8 365.93 47.66
5 2 -8 291.31 34.51
5 -2 -7 442.8 52.09
5 2 -7 510.58 37.22
-5 -2 -7 550.95 55.73
5 2 -7 541.66 33.94
-5 2 -7 533.2 59.62
5 2 -7 473.02 43.43
-5 -2 -6 186.62 31.2
5 2 -6 172.51 25.94
-5 2 -6 159.2 32.08
5 2 -6 204.83 23.6
5 2 -6 187.66 19.55
5 -2 -6 174.44 32.45
-5 -2 -5 110.36 21.95
-5 2 -5 137.28 30.74
5 2 -5 111.05 15.64
5 2 -5 141.32 19.77
5 2 -5 139.56 22.88
5 -2 -5 91.68 24.95
5 2 -4 1600.56 66.85
5 -2 -4 1383.43 90.21
5 2 -4 1385.16 70.3
5 2 -4 1456.66 57.13
-5 -2 -4 1461.12 78.81
5 -2 -4 1562.61 24.88
-5 2 -4 1582.95 96.34
5 -2 -4 1527.26 89.43
5 2 -3 4589.25 113.09
5 -2 -3 4266.43 157.04
5 -2 -3 4587.65 66.05
5 2 -3 4111.46 120.07
5 2 -3 4218.77 101.28
-5 -2 -3 4344.6 131.03
-5 2 -3 4567.93 159.94
5 -2 -3 4714.69 156.85
5 -2 -2 865.77 69.4
5 -2 -2 935.3 27.94
5 2 -2 891.02 49.27
-5 -2 -2 873.22 57.01
5 -2 -2 1011.43 74.77
-5 2 -2 944.58 72.23
-5 -2 -1 31.22 10.47
5 -2 -1 39.29 15.97
-5 2 -1 37.56 16.46
5 -2 -1 35.11 6.44
5 -2 -1 16.56 9.68
5 2 -1 39.62 10.96
5 -2 0 10.79 8.48
5 -2 0 0.49 2.26
5 -2 0 7.54 3.34
5 -2 1 52.45 17.84
-5 -2 1 72.69 15.56
5 -2 1 47.44 8.97
5 2 1 35.65 11.83
5 -2 2 955.8 43.57
5 2 2 1021.18 63.82
5 -2 2 1085.15 79.31
-5 -2 2 862.07 50.62
5 -2 3 4501.05 101.58
5 2 3 4861.1 146.93
5 -2 3 4627.39 165.13
-5 -2 3 4678.92 114.44
5 -2 4 1558.36 64.02
5 2 4 1751.74 92.32
5 -2 4 1630.12 97.9
5 -2 5 108 18.48
5 3 -13 205.19 36.7
-5 3 -13 232.38 44.78
5 -3 -12 830.84 86.81
5 3 -12 788.53 69.96
-5 -3 -12 694.36 83.84
-5 3 -12 704.44 78.29
-5 3 -11 5.26 7.69
5 3 -11 5.85 7.36
-5 -3 -11 2.77 6.64
5 3 -10 470.24 50.44
-5 3 -10 588.35 67.66
5 -3 -10 567.58 68.59
-5 -3 -10 598.15 69.21
5 -3 -9 169.21 35.92
-5 3 -9 221.97 40.51
5 3 -9 199 31.89
5 3 -9 196.45 19.04
-5 -3 -9 259.29 43.49
5 -3 -8 18.38 14.13
-5 3 -8 39.97 17.9
5 3 -8 40.35 8.31
5 3 -8 24.83 11.47
-5 -3 -8 37.25 16.06
5 3 -7 393.66 42.4
5 -3 -7 516.82 60.49
5 3 -7 568.5 31.42
-5 -3 -7 460.84 52.25
-5 3 -7 556.17 62.7
5 3 -6 1923.93 90.92
5 -3 -6 1856.18 112.68
5 3 -6 2231.91 62.08
5 3 -6 2040.48 37.13
-5 -3 -6 1919.91 101.67
-5 3 -6 2191.31 121.17
-5 3 -5 242.44 39.38
5 3 -5 208.06 29.9
5 3 -5 269.06 22.75
5 3 -5 259.13 16.8
-5 -3 -5 256.48 35.01
5 -3 -5 265.63 41.91
5 3 -4 344.95 27.96
5 3 -4 320.55 36.78
5 -3 -4 392.23 51.62
5 3 -4 315.65 21.54
-5 -3 -4 337.9 38.42
-5 3 -4 337.06 46.23
-5 -3 -3 23.14 10.03
-5 3 -3 31.1 16.15
5 3 -3 45.41 13.84
5 3 -3 41.59 10.51
5 -3 -3 37.34 18.28
5 3 -3 29.99 7.76
-5 -3 -2 30.6 11.31
-5 3 -2 46.24 19.16
5 -3 -2 52.25 18.61
5 3 -2 33.93 8.55
5 -3 -2 51.22 5.51
5 -3 -1 509.69 57.1
5 3 -1 471.99 35.07
-5 -3 -1 470.98 40.07
5 -3 -1 548.44 24.26
5 -3 0 2586.89 126.41
5 3 0 2520.05 87.37
5 -3 0 2672.67 61.49
5 -3 1 524.13 57.19
5 3 1 568.78 44.49
5 -3 1 523.74 30.14
-5 -3 1 530.2 39.04
-5 -3 2 41.08 10.73
5 -3 2 37.19 8.79
5 -3 2 59.25 20.06
5 3 2 39.03 13.02
5 -3 3 26.88 8.59
-5 -3 3 37.65 9.23
5 3 3 21.76 9.7
5 -3 4 353.92 31.16
-5 4 -13 148.11 33.42
-5 4 -12 3.33 5.5
5 4 -12 17.26 11.19
5 -4 -11 280.91 52.81
-5 4 -11 296.81 48.81
5 4 -11 303.01 44.6
-5 -4 -11 329.94 56.2
-5 4 -10 5.65 6.56
5 4 -10 -7.24 7.74
-5 -4 -10 2.7 6.94
5 -4 -9 155.47 37.88
-5 4 -9 230.93 41.53
5 4 -9 202.24 33.86
-5 -4 -9 237.22 41.5
-5 4 -8 0.95 4.42
5 4 -8 -10.51 7.95
-5 -4 -8 -3.44 4.87
5 4 -7 290.37 38.23
-5 4 -7 301.2 45.77
-5 -4 -7 265.56 40.85
5 -4 -7 236.54 43.12
-5 4 -6 7.45 8.92
5 4 -6 15.15 9.32
5 -4 -6 10.58 9.86
-5 -4 -6 11.47 8.15
5 4 -5 391.95 43.69
5 -4 -5 402.4 55.18
5 4 -5 423.43 15.78
-5 -4 -5 343.59 41.97
-5 4 -5 439.39 55.81
5 4 -4 17.78 9.48
-5 4 -4 2.33 4.33
5 4 -4 13.02 4.2
5 -4 -4 5.64 8.97
-5 -4 -4 9.99 7.51
5 4 -3 232.26 20.33
5 4 -3 238.57 34.38
5 -4 -3 217.33 40.89
-5 -4 -3 186.26 27.8
5 4 -2 3.98 4.97
5 -4 -2 3.96 8.22
-5 -4 -2 1.56 4.79
5 -4 -1 490.74 26.64
5 -4 -1 499.31 59.62
-5 -4 -1 412.09 37.26
5 -4 0 9.29 4.89
5 4 0 3.91 3.62
5 -4 0 9.39 8.54
5 -4 1 455.1 56.48
5 4 1 393.49 37.13
-5 -4 1 469.5 35.94
5 -4 1 471.2 32.04
-5 -4 2 4.85 3.89
5 4 2 -2.61 5.28
5 -4 2 4.65 3.41
5 4 3 249.47 34.33
5 -4 3 254.69 44.05
5 -4 3 230.36 25.53
-5 -4 3 282.53 22.96
5 -4 4 17.91 7.48
5 -4 4 -9.13 9.11
-5 5 -11 21.36 13.25
5 -5 -10 42.58 21.55
-5 5 -10 47.42 19.18
5 5 -10 11.29 9.06
-5 -5 -10 46.58 20.11
5 -5 -9 161.83 40.06
-5 5 -9 170.1 36.8
5 5 -9 149.97 30.88
-5 -5 -9 164.52 36.58
5 -5 -8 745.38 83.48
-5 -5 -8 831.01 76.95
-5 5 -8 783.74 75.79
5 5 -8 745.78 66.84
5 -5 -7 477.52 64.57
-5 -5 -7 427.72 53.28
5 5 -7 377.97 46.38
5 5 -6 255.92 37.59
-5 -5 -6 242.14 37.73
5 -5 -6 212.61 42.94
5 5 -5 230.56 36.27
5 -5 -5 204.8 40.97
-5 -5 -5 185.21 32.09
5 5 -4 191.62 31.89
5 -5 -4 176.67 38.03
-5 -5 -4 193.49 30.68
5 5 -3 30.78 5.14
5 5 -3 17.83 4.26
5 5 -3 11.05 8.08
5 -5 -3 25.42 14.14
-5 -5 -3 17.22 8.76
5 -5 -2 650.32 71.71
5 5 -2 699.19 61.98
5 5 -2 688.73 34.32
-5 -5 -2 584.34 48.46
5 -5 -1 413.58 57.39
5 5 -1 441.9 48.77
5 5 -1 445.28 32.41
-5 -5 -1 424.21 38.75
5 -5 0 393.64 55.47
5 -5 0 462.41 35.35
5 5 0 437.74 36.27
-5 -5 0 425.31 36.72
5 -5 1 458.82 37.16
5 -5 1 344.33 51.75
5 5 1 413.28 38.84
5 -5 2 703.81 48.16
5 5 2 728.59 55.79
-5 -5 2 788.73 42.5
5 -5 3 28.23 8.88
-5 -5 3 18.31 5.48
5 -5 4 220.32 41.64
5 -5 5 221.84 43.06
5 -5 6 281.66 50.65
5 -5 7 450.66 64.83
-5 -6 -9 587.7 70.66
5 -6 -8 129 38.11
5 6 -8 151.8 31.09
-5 -6 -8 162.07 35.47
5 -6 -7 68.77 23.31
5 6 -7 35.07 13.94
-5 -6 -7 39.31 17.61
5 -6 -6 124.7 33.67
5 6 -6 71.77 21.8
-5 -6 -6 78.65 22.26
5 6 -5 457.42 52.4
5 -6 -5 502.62 66.82
-5 -6 -5 402.95 48.47
5 6 -4 600.81 60.41
5 -6 -4 581.58 70.28
-5 -6 -4 458.39 49.47
5 6 -3 1059.64 80.26
5 -6 -3 1090.49 95.15
-5 -6 -3 1038.38 70.71
5 6 -2 314.83 44.16
-5 -6 -2 361.19 40.51
5 -6 -2 344.06 52.85
5 6 -1 240.79 37.84
-5 -6 -1 230.13 29.88
5 -6 -1 176.02 37.57
-5 -6 0 13.58 6.73
5 6 0 7.48 7.93
5 -6 0 3.19 6.98
5 -6 1 189.57 39.19
-5 -6 2 335.02 27.15
5 -6 2 298.16 49.47
5 -6 3 960.33 89.23
5 -6 4 545.21 67.93
5 -6 5 495.96 65.48
5 -6 6 87.98 28.6
5 -6 7 41.97 19.76
5 -6 8 166.78 41.23
5 -6 9 574.7 76.21
-5 -7 -7 213.8 40.48
5 -7 -6 783.08 89.4
-5 -7 -6 754.55 73.66
5 -7 -5 122.09 33.84
5 7 -5 128.57 30.13
-5 -7 -5 130.09 29.25
5 7 -4 69.16 21.68
-5 -7 -4 58.79 18.59
5 -7 -4 70.32 27.85
5 7 -3 18.36 11
5 -7 -3 6.98 7.88
-5 -7 -3 6.95 6.88
5 7 -2 0.88 4.57
5 -7 -2 2.22 10.84
-5 -7 -2 -2.34 3.65
5 7 -1 200.17 36.81
5 -7 -1 117.98 31.17
-5 -7 -1 177.2 27.38
5 -7 0 944.23 86.72
5 7 0 1082.66 86.24
5 7 1 175.55 35.05
5 -7 1 150.72 35.38
5 7 2 12.78 9.28
5 -7 2 -15.76 14.37
5 -7 3 20.04 15.71
5 -7 4 32.04 16.57
5 -7 5 117.8 31.56
5 -7 6 751.5 80.19
-5 -8 -6 33.53 19.35
-5 -8 -5 207.3 38.58
5 -8 -3 223.85 44.54
5 -8 -2 30.06 16.11
5 -8 -1 270.1 49.43
5 -8 0 14.35 11.94
5 -8 1 265.79 47.88
5 -8 2 3.92 8.19
5 -8 3 205.27 39.92
6 0 -13 219.24 36.57
6 0 -12 931.4 75.07
-6 0 -12 937.32 95.92
-6 0 -11 278.76 49.52
6 0 -11 289.16 32.59
6 0 -11 303.34 42.02
6 0 -10 1422.05 87.43
6 0 -10 1453.14 70.66
-6 0 -10 1362.62 106.7
6 0 -9 699.11 59.42
6 0 -9 660.56 45.45
-6 0 -9 674.25 72.36
6 0 -8 518.24 50.4
-6 0 -8 531.3 62.53
6 0 -8 538.24 39.73
6 0 -8 459.32 48.14
6 0 -7 479.54 48.02
-6 0 -7 406.93 52.92
6 0 -7 364.8 41.9
6 0 -7 409.39 34.16
6 0 -6 745.97 45.28
6 0 -6 660.63 56.94
-6 0 -6 694.45 66.17
6 0 -6 672.02 56.83
6 0 -5 664.44 43.02
6 0 -5 621.23 55.45
-6 0 -5 700.85 64.78
6 0 -5 574.14 51.98
6 0 -4 1774.18 92.69
6 0 -4 1833.19 71.19
-6 0 -4 1832.49 103.48
6 0 -4 1821.67 92.61
6 0 -3 711.22 57.95
6 0 -3 721.69 58.56
-6 0 -3 600.65 58.42
6 0 -2 2044.23 98.4
6 0 -2 2157.14 101.75
-6 0 -2 1912.39 101.59
6 0 -1 884.31 64.92
6 0 -1 926.34 67.88
-6 0 -1 742.4 62.63
6 0 0 462.61 48.64
-6 0 0 361.14 42.91
6 0 1 850.92 67.44
-6 0 1 835.21 64.35
6 0 2 2028.65 107.39
6 -1 -13 267.54 43.91
-6 1 -12 422.56 64.52
6 1 -12 415.49 44.81
6 -1 -12 343.44 48.94
-6 -1 -12 456.56 67.55
-6 -1 -11 90.58 28.42
-6 1 -11 176.46 41.58
6 -1 -11 122.49 28.21
6 1 -11 104.6 22.39
6 1 -11 86.51 20.36
-6 -1 -10 350.03 53.8
-6 1 -10 238.92 45.88
6 -1 -10 280.57 42.74
6 1 -10 246.02 33.82
6 1 -10 270.06 32.93
6 -1 -9 220.44 36.95
-6 -1 -9 300.02 47.55
-6 1 -9 302.34 48.54
6 -1 -9 244.59 23.24
6 1 -9 242.06 32.19
6 1 -9 287.04 33.56
6 -1 -8 293.87 41.77
6 1 -8 365.33 39.05
6 -1 -8 405.77 28.63
-6 -1 -8 348.89 49.7
-6 1 -8 431.76 57.7
6 1 -8 349.38 37.54
6 1 -8 324.41 34.67
6 -1 -7 839.34 69.65
6 1 -7 763.01 55.56
6 -1 -7 906.66 41.3
-6 -1 -7 785.35 71.44
-6 1 -7 808.02 76.41
6 1 -7 801.51 56.27
6 1 -7 809.32 53.49
6 1 -6 652.6 47.02
6 1 -6 623.16 50.5
6 -1 -6 581.44 57.7
-6 -1 -6 629.87 61.62
6 1 -6 585.12 47.43
-6 1 -6 663.75 67.66
6 -1 -6 701.71 36.08
6 -1 -5 645.27 35.08
6 1 -5 594.08 45.05
6 1 -5 625.26 51.02
6 -1 -5 618.91 59.59
-6 -1 -5 607.68 58.57
6 1 -5 603.05 47.46
-6 1 -5 641.28 65.34
6 1 -4 501.2 45.91
6 -1 -4 538.19 55.63
6 -1 -4 511.1 32.9
6 1 -4 432.88 38.35
6 1 -4 471.56 42.27
-6 -1 -4 535.72 53.11
-6 1 -4 537.22 58.33
6 -1 -4 471.21 50.42
6 1 -3 55.64 14.51
-6 -1 -3 26.44 13.63
6 -1 -3 43.36 15.24
-6 1 -3 53.86 19.91
6 1 -3 36.19 12.48
6 -1 -3 46.22 16.8
6 1 -2 785.5 57.07
6 -1 -2 754.03 63.54
6 1 -2 831 57.94
-6 -1 -2 759.54 61.41
6 -1 -2 882.97 70.93
-6 1 -2 806.39 69.32
6 -1 -1 1107.55 78.15
6 1 -1 1103.87 68.79
6 -1 -1 1083.16 78.96
-6 -1 -1 962.1 68.04
-6 1 -1 952.61 73.94
6 1 0 696.38 56.79
6 -1 0 683.83 62.87
-6 -1 0 556.36 50.95
-6 1 0 605.66 59.07
6 1 1 1255.87 78.49
6 -1 1 1278.83 87.43
-6 -1 1 1041.46 68.33
6 1 2 995.24 71.82
-6 -1 2 721.33 55.98
6 -1 4 562.08 42.58
6 2 -13 53.47 17.39
6 -2 -13 52.06 22.66
-6 2 -12 9.07 12.1
6 -2 -12 13.33 11.65
6 2 -12 -1.01 2.97
-6 -2 -11 96.24 30.21
6 -2 -11 43.99 18.79
-6 2 -11 86.79 28.95
6 2 -11 42.55 14.95
-6 -2 -10 -18.46 14.42
6 -2 -10 6 7.02
-6 2 -10 -9.48 11.3
6 2 -10 0.59 2.01
6 2 -10 2.51 3.96
6 -2 -9 77.75 23.96
-6 -2 -9 58.68 22.67
6 2 -9 79.65 16.38
-6 2 -9 49.95 21.14
6 2 -9 52.95 16.14
6 2 -8 117.99 19.55
-6 -2 -8 91.71 25.95
-6 2 -8 110.81 29.94
6 2 -8 118.69 23.06
6 -2 -8 156.29 32.59
-6 -2 -7 76.45 23.67
6 2 -7 64.47 12.76
6 2 -7 59.37 14.93
-6 2 -7 65.52 22.52
6 -2 -7 55.91 20.66
6 2 -7 49.66 13.32
-6 -2 -6 6.36 9.14
6 2 -6 8.85 5.13
6 2 -6 1.31 4.69
6 2 -6 15.45 7.14
6 -2 -6 -4.03 8.46
6 2 -5 84.52 15.18
-6 -2 -5 63.38 18.74
-6 2 -5 75.68 22.77
6 -2 -5 101.94 7.43
6 2 -5 94.28 18.39
6 -2 -5 75.13 23.89
6 2 -5 66.19 16.06
6 2 -4 22.14 8.07
-6 -2 -4 6.78 8.32
6 -2 -4 29.61 5.31
-6 2 -4 24.43 13.16
6 2 -4 23.35 9.03
6 2 -4 31.45 11.59
6 -2 -4 40.02 17.36
-6 -2 -3 107.04 22.96
-6 2 -3 58.51 20.64
6 2 -3 86.97 18.51
6 -2 -3 105.05 12.33
6 2 -3 92.08 18.5
6 -2 -3 110.36 27.19
6 2 -3 88.99 16.51
-6 -2 -2 74.67 18.87
-6 2 -2 120.72 27.9
6 -2 -2 121.2 12.23
6 -2 -2 97.56 25.21
6 2 -2 64.06 14.52
-6 -2 -1 64.29 17.91
-6 2 -1 72.02 21.18
6 -2 -1 73.99 10.54
6 -2 -1 50.44 18.66
6 2 -1 64.24 15.38
-6 -2 0 9.3 7.32
6 -2 0 12.03 4.84
6 -2 0 21.95 13.73
6 2 0 10.95 6.9
-6 -2 1 65.31 16.18
6 -2 1 81.22 23.58
6 -2 1 77.08 13.08
6 2 1 93.54 20.84
-6 -2 2 95.57 19.59
6 -2 2 102.13 15.47
6 -2 3 105.24 17.22
6 -2 4 42.25 12.19
6 3 -13 468.1 55.19
-6 3 -12 44.13 22.36
6 3 -12 31.77 13.67
-6 -3 -11 60.58 23.78
6 -3 -11 85.94 27.36
-6 3 -11 90.46 29.79
6 3 -11 61.89 20.38
-6 -3 -10 120.77 32.65
6 -3 -10 148.46 35.26
-6 3 -10 114.17 33.07
6 3 -10 124.84 26.84
6 -3 -9 379.51 55.73
-6 -3 -9 478.03 60.54
-6 3 -9 400.82 59.98
6 3 -9 347.92 42.07
-6 -3 -8 19.72 12.21
6 3 -8 13.54 5.55
-6 3 -8 19.64 13.3
6 3 -8 11.43 8.03
6 -3 -8 -8.45 11.25
6 3 -7 874.66 63.5
6 -3 -7 917.98 84.35
6 3 -7 982.19 46.96
-6 -3 -7 1015.48 80.87
-6 3 -7 973.57 89.12
-6 -3 -6 45.71 14.84
-6 3 -6 62.03 22.3
6 3 -6 34.76 12.62
6 -3 -6 51.02 19.86
6 3 -6 56.59 11.58
6 3 -6 58.44 9.01
6 3 -5 403.51 43.15
6 3 -5 534.26 37.95
6 -3 -5 471.7 60.12
6 3 -5 570.45 31.91
-6 -3 -5 526.47 53.68
-6 3 -5 570.54 66.14
-6 -3 -4 199.04 31.31
-6 3 -4 189.07 37.67
6 3 -4 233.98 26.09
6 3 -4 201.08 30.53
6 3 -4 228.36 21.95
6 -3 -4 179.7 37.97
-6 -3 -3 183.03 30
-6 3 -3 253.28 43.94
6 3 -3 283 29.51
6 3 -3 195.91 30.4
6 3 -3 249.78 24.84
6 -3 -3 194.24 38.13
-6 -3 -2 92.01 20.29
-6 3 -2 134.11 31.58
6 -3 -2 119.77 10.21
6 -3 -2 107.67 28.81
6 3 -2 109.16 17.67
6 -3 -1 837.91 77.43
6 3 -1 861.06 52.81
6 -3 -1 966.46 36.29
-6 -3 -1 842.42 59.09
-6 -3 0 1.16 2.59
6 -3 0 19.94 5.99
6 -3 0 1.3 7.34
6 3 0 14.76 7.69
6 -3 1 872.62 79.51
6 -3 1 918.04 45.09
6 3 1 916.66 62.59
-6 -3 1 885.45 57.8
6 -3 2 92.97 15.57
6 -3 2 111.29 29.39
6 3 2 114.57 23.62
6 -3 3 244.8 26.5
-6 -3 3 283.23 30
6 -3 4 184.44 24.19
-6 4 -12 562.96 72.78
-6 4 -11 91.65 29.63
6 4 -11 74.89 22.66
6 -4 -10 1211.99 109.11
-6 -4 -10 1220.69 103.56
6 4 -10 1257.51 86.56
-6 4 -10 1148.85 102.7
6 -4 -9 371.05 59.91
-6 4 -9 330.22 54.92
-6 -4 -9 364.55 54.33
6 4 -9 331.82 43.61
-6 4 -8 287.9 49.73
-6 -4 -8 327.37 48.61
6 4 -8 334.06 43.16
6 -4 -8 308.61 53.17
6 4 -7 167.05 29.28
-6 4 -7 234.44 44.59
6 -4 -7 223.62 42.65
-6 -4 -7 203.88 37.38
6 4 -6 226.89 34.12
-6 4 -6 284.69 49.32
6 -4 -6 255.14 45.82
-6 -4 -6 216.75 36.68
-6 -4 -5 216.09 34.38
-6 4 -5 197.81 41.11
6 4 -5 228.39 19.04
6 4 -5 179 30.42
6 -4 -5 248.24 45.31
6 4 -4 1832.03 62.45
6 4 -4 1664.37 92.4
6 -4 -4 1861.86 125.07
-6 -4 -4 1650.42 91.98
-6 4 -4 1964.87 125.78
6 4 -3 388.98 31.61
6 -4 -3 389.83 57.09
6 4 -3 382.92 45.04
-6 -4 -3 321.44 39.33
6 -4 -2 1549.45 113.14
6 4 -2 1549.53 90.87
-6 -4 -2 1419.42 78.85
6 -4 -1 462.01 25.44
6 -4 -1 490.29 63.43
-6 -4 -1 392.62 40.18
-6 -4 0 24.45 9.51
6 -4 0 27.23 6.76
6 -4 0 42.95 19.33
6 -4 1 385.04 56.26
-6 -4 1 415.54 38.67
6 -4 1 407.39 30.94
6 -4 2 1529.02 112.74
6 4 2 1525.61 83.63
6 -4 2 1457.45 63.15
6 -4 3 440.78 61.96
6 -4 3 384.54 34.56
-6 -4 3 478.53 35.27
6 -4 4 1916.69 130.83
-6 5 -11 79.62 26.16
-6 5 -10 194.69 41.34
-6 5 -9 337.39 54.99
-6 -5 -9 348.47 55.41
6 5 -9 401.8 50.15
6 -5 -8 195.78 44.9
-6 5 -8 136.03 35.04
6 5 -8 163.65 32.83
-6 -5 -8 210.37 41.6
6 5 -7 823.6 69.6
6 -5 -7 907.49 93.98
-6 -5 -7 777.27 75.13
6 5 -6 418.93 49.03
6 -5 -6 409.22 62.35
-6 -5 -6 469.86 55.82
6 5 -5 342.89 44.75
-6 -5 -5 333.39 44.73
6 -5 -5 310.27 54.29
6 5 -4 271.98 40.67
-6 -5 -4 256.12 37.43
6 -5 -4 251.05 47.87
-6 -5 -3 93.98 21.23
6 5 -3 137.03 28.52
6 -5 -3 96.6 30.13
6 5 -2 300.17 42.8
-6 -5 -2 319.43 37.97
6 -5 -2 300.08 52.92
6 -5 -1 778.96 83.74
6 5 -1 823.89 71.04
-6 -5 -1 756.94 55.97
6 5 0 369.63 36.31
-6 -5 0 461.41 41.92
6 -5 1 766.69 83.81
-6 -5 1 900.81 55.27
6 -5 2 329.42 54.57
-6 -5 2 299.85 29.62
-6 -5 3 115.43 15.69
6 -5 3 121.3 33.42
6 -5 4 310.78 54.78
6 -5 5 394.48 63.15
6 -5 6 446.85 69.07
6 -5 7 859.18 97.84
-6 -6 -8 58.46 25.53
6 6 -7 348.14 47.59
-6 -6 -7 333.75 50.97
6 6 -6 -0.9 4.48
6 -6 -6 -2.53 8.25
6 6 -5 392.23 50.22
-6 -6 -5 328.83 45.42
6 -6 -5 407.02 64.89
6 6 -4 70.98 21.18
6 -6 -4 70.67 27.54
-6 -6 -4 57.06 18.13
6 6 -3 269.07 41.98
-6 -6 -3 325.26 40.92
6 -6 -3 282.22 52.16
-6 -6 -2 40.41 15.2
6 6 -2 64.57 22.74
6 -6 -2 36.93 19.59
6 -6 -1 527.28 71.73
6 6 -1 467.35 56.16
-6 -6 -1 492.29 45.97
-6 -6 0 -3.75 5.46
6 -6 0 8.17 10.49
6 -6 1 420.73 64.36
6 -6 2 42.99 21.82
6 -6 3 236.17 48.68
6 -6 4 83.99 31.43
6 -6 5 406.53 65.73
6 -6 6 -14.22 12.8
6 -6 7 378.43 67.79
6 -6 8 49.65 24.89
6 -6 9 278.74 60.02
-6 -7 -6 58.96 21.05
-6 -7 -5 320.06 47.82
6 -7 -4 255.27 50.94
-6 -7 -4 235.21 39.03
-6 -7 -3 26.9 12.73
6 -7 -3 10.3 12.69
6 7 -2 256.01 43.75
6 -7 -2 172.34 42.84
6 7 -1 547.56 63.98
6 -7 -1 612.94 77.53
6 7 0 42.31 17.69
6 -7 0 49.72 24.61
6 -7 1 638.6 79.55
6 7 1 714.13 73.8
6 7 2 219.85 41.37
6 -7 2 233.44 48.96
6 -7 3 66.65 26.89
6 -7 4 212.25 46.99
6 -7 5 338.03 61.08
6 -7 6 56.39 24.15
6 -8 0 -1.93 10.7
6 -8 1 116.77 34.26
6 -8 2 554.96 73.64
6 -8 3 50.36 23.23
7 0 -12 -3.6 7.44
-7 0 -11 -10.13 15.03
7 0 -11 -1.84 5.23
7 0 -10 6.63 6.56
-7 0 -10 -14.27 12.98
7 0 -9 0.76 1.67
7 0 -9 -2.7 4.95
-7 0 -8 -17.2 12.14
7 0 -8 4.59 4.26
7 0 -8 -8.2 7.76
-7 0 -7 -12.89 10.28
7 0 -7 8.23 4.98
7 0 -7 -13.66 9.27
-7 0 -6 -2.45 9.05
7 0 -6 -3.31 4.04
7 0 -6 -4.36 7.93
-7 0 -5 4.49 6.35
7 0 -5 2.17 2.83
7 0 -5 10.15 9.22
-7 0 -4 13.22 9.57
7 0 -4 -4.2 8.67
7 0 -4 1.57 3.78
-7 0 -3 17.93 11.06
7 0 -3 1.2 5.26
-7 0 -2 -8.68 9.19
7 0 -2 -4.15 5.37
-7 0 -1 0.81 7.08
7 0 -1 -16.61 9.93
-7 0 0 -2.74 7.87
-7 0 1 -1.69 6.16
7 -1 -12 63.2 21.39
-7 -1 -11 105.34 33.8
7 -1 -11 122.35 30.61
-7 1 -11 130.32 36.52
7 -1 -10 101.15 25.91
7 1 -10 126.98 25.32
-7 -1 -10 57.93 22.97
-7 1 -10 102.4 30.84
7 1 -10 138.42 24.56
7 -1 -9 433.86 52.87
7 1 -9 465.12 46.69
-7 -1 -9 485.26 64.56
-7 1 -9 438.28 64.56
7 1 -9 494.38 44.96
-7 1 -8 393.89 59.25
7 -1 -8 344.34 46.87
7 1 -8 385.79 41.46
-7 -1 -8 382.34 55.38
7 1 -8 378.04 38.48
7 1 -7 293.75 33.05
-7 1 -7 260.88 46.46
7 -1 -7 268.38 40.88
7 1 -7 325.33 38.81
7 -1 -7 337.33 26.81
-7 -1 -7 334.75 50.27
7 1 -6 67.29 17.42
-7 -1 -6 81.1 23.6
-7 1 -6 48.07 19.9
7 1 -6 75.73 16.52
7 -1 -6 53.48 11.21
7 1 -6 46.22 15.46
7 -1 -6 73.76 21.78
-7 -1 -5 219.22 38.42
-7 1 -5 225.7 42.9
7 -1 -5 200.92 21.54
7 1 -5 190.33 26.62
7 1 -5 243.49 32.98
7 1 -5 201.45 31.34
7 -1 -5 241.64 39.76
7 1 -4 286.53 36.95
7 -1 -4 305.71 44.82
7 -1 -4 343.7 29.19
7 1 -4 269.97 32.26
7 1 -4 286.16 36.02
-7 -1 -4 330.34 46.15
-7 1 -4 318.51 48.74
7 1 -3 480 47.3
7 -1 -3 466.15 54.09
7 1 -3 509.54 49.5
-7 -1 -3 442.38 52.53
-7 1 -3 503.9 59.82
7 1 -2 436.51 46.71
7 -1 -2 395.44 49.6
7 1 -2 506.09 49.74
-7 -1 -2 426.33 50.05
-7 1 -2 439.59 55.15
7 -1 -1 484.34 55.7
7 1 -1 506.97 50.61
-7 -1 -1 365.81 46.27
-7 1 -1 436.27 54.71
-7 -1 0 19.76 12.67
-7 1 0 22.03 13.36
7 -1 0 28.99 15.21
-7 -1 1 435.53 48.06
-7 -1 2 378.14 44.42
7 -2 -11 901.46 85.4
7 2 -11 765.25 63.16
-7 2 -11 820.36 94.09
7 -2 -10 498.85 62.92
-7 -2 -10 556.56 71.75
7 2 -10 471.52 48.38
-7 2 -10 469.44 69.59
7 2 -9 179.64 25.92
-7 -2 -9 210.65 42.72
-7 2 -9 221.12 47.34
7 2 -9 170.18 28.95
7 -2 -9 185.55 37.73
-7 2 -8 313.6 53.91
7 2 -8 286.78 32.32
-7 -2 -8 330.92 51.32
7 2 -8 222.41 32.06
7 -2 -8 233.39 41.3
7 2 -7 392.94 41.01
7 -2 -7 497.47 59.59
7 2 -7 530.93 44.68
-7 -2 -7 479.86 58.25
-7 2 -7 504.22 67.77
7 2 -6 1045.64 66.97
7 2 -6 1196.8 68.73
7 -2 -6 1187.87 92.76
-7 -2 -6 1171.95 89.52
-7 2 -6 1156.24 100.07
7 2 -5 1058.17 67.85
7 2 -5 1117.76 67.78
7 -2 -5 1173.26 92.51
7 2 -5 1178.38 63.28
-7 -2 -5 1307.33 91.34
7 -2 -5 1315.77 34.9
-7 2 -5 1187.33 99.74
7 -2 -4 1086.47 40.21
7 2 -4 969.4 63.97
7 -2 -4 1011.54 86.23
7 2 -4 934.15 64.09
7 2 -4 998.59 60.4
-7 -2 -4 1006.31 77.73
-7 2 -4 1017.05 89.94
-7 -2 -3 79.55 22.16
7 -2 -3 79.33 12.13
7 2 -3 70.55 18.81
7 2 -3 61.37 16.2
7 -2 -3 72.68 26.25
7 2 -3 74.41 16.97
7 2 -2 673.11 55.25
7 -2 -2 653.15 68.1
7 -2 -2 758.77 35.87
7 2 -2 670.58 53.48
-7 -2 -2 599.81 58.59
-7 2 -2 690.55 72.8
7 -2 -1 1126.93 89.71
7 -2 -1 1097.53 46.87
7 2 -1 1053.59 69.55
-7 -2 -1 985.41 73.29
-7 2 -1 1153.5 93.11
7 -2 0 863.89 79.62
7 -2 0 914.53 45.9
7 2 0 947.76 68.17
-7 -2 0 819.17 65.24
7 -2 1 1136.53 92.04
7 -2 1 1086.03 53.63
-7 -2 1 921.44 66.96
7 -2 2 688.78 45.19
-7 -2 2 647.68 55.01
7 3 -11 67.88 20.21
-7 -3 -10 143.53 36.14
7 -3 -10 174.8 37.7
-7 3 -10 209.43 46.29
7 3 -10 136.46 28.49
7 -3 -9 573.56 70.31
-7 -3 -9 665.92 76.31
-7 3 -9 623.87 79.1
7 3 -9 463.51 50.43
7 -3 -8 988.57 91.18
-7 -3 -8 949.05 86.27
-7 3 -8 1027.94 99.44
7 3 -8 793.93 63.37
-7 -3 -7 303.22 47.03
7 3 -7 277.82 36.68
-7 3 -7 309.12 54.78
7 -3 -7 338.84 52.97
-7 -3 -6 127.3 29.37
-7 3 -6 66.25 25.01
7 3 -6 105.48 22.44
7 3 -6 100.63 17.45
7 -3 -6 92.52 27.47
-7 -3 -5 202.5 36.15
-7 3 -5 271.84 48.74
7 3 -5 229.71 28.15
7 -3 -5 180.71 38.77
7 3 -5 150.9 25.87
7 3 -4 587.64 46.1
7 -3 -4 552.66 67.56
7 3 -4 503.72 50.13
7 3 -4 536.78 38.36
-7 -3 -4 467.74 52.22
-7 3 -4 688.72 77.21
7 3 -3 804.77 55.44
7 -3 -3 758.87 79.31
7 3 -3 701.1 60.23
7 3 -3 659.72 45.81
-7 -3 -3 591.69 57.44
-7 3 -3 726.35 79.02
7 3 -2 1129.81 68.56
7 -3 -2 1096.86 95.3
7 -3 -2 1175.74 38.16
7 3 -2 947.87 58.4
-7 -3 -2 961.77 71.58
7 -3 -1 548.08 66.45
7 -3 -1 550.14 31.5
7 3 -1 460.01 42.99
-7 -3 -1 438.18 47.38
7 -3 0 -0.95 2.61
-7 -3 0 2.62 3.62
7 -3 0 -10.02 9.44
7 3 0 -3.27 4.77
7 -3 1 470.76 63.22
7 -3 1 504.32 36.13
-7 -3 1 529.98 49.03
7 -3 2 1151.24 99.61
7 -3 2 1121.31 57.63
-7 -3 2 1115.37 68.73
7 -3 3 817.82 85.34
7 -3 3 700.73 48.97
-7 -3 3 857.76 57.75
-7 4 -10 50.58 22.61
7 4 -10 67.02 20.43
7 -4 -9 191.99 42.99
-7 -4 -9 126.97 33.38
-7 4 -9 169.45 41.15
7 4 -9 87.96 22.5
-7 -4 -8 94.92 27.87
-7 4 -8 130.49 36.84
7 4 -8 85.72 21.73
7 -4 -8 128.73 34.89
-7 -4 -7 148.84 32.98
7 4 -7 147.42 28.61
-7 4 -7 228.85 46.62
7 -4 -7 163.04 39.19
-7 -4 -6 34.4 15.18
-7 4 -6 55.11 23.82
7 4 -6 24.87 12.55
7 -4 -6 15.97 12.76
-7 4 -5 260.04 49.48
7 4 -5 313.09 41.36
-7 -4 -5 291.39 43.38
7 -4 -5 268.57 50.23
-7 -4 -4 118.91 26.94
7 4 -4 99.42 23.89
7 4 -4 127.39 19.65
7 -4 -4 97.73 31.72
-7 -4 -3 155.07 29.47
7 4 -3 145.25 28.74
7 4 -3 230.49 27.1
7 -4 -3 194.43 41.8
-7 -4 -2 113.99 24.7
7 -4 -2 90.66 30.28
7 4 -2 154.62 30.39
7 4 -1 315.77 33.37
-7 -4 -1 287.26 37.52
7 -4 -1 224.34 46.03
-7 -4 0 15.88 10.57
7 -4 0 9.16 11.19
7 -4 1 236.94 47.35
-7 -4 1 337.97 38.5
-7 -4 2 150.79 24.07
7 -4 2 183.09 43.36
7 -4 3 263.43 50.84
7 -4 4 116.6 35.21
7 -4 5 378.15 63.89
-7 5 -9 204.01 44.36
-7 -5 -8 48.09 20.22
-7 5 -8 34.47 21.6
7 5 -8 42.69 17.7
7 5 -7 401.1 49.27
-7 -5 -7 456.18 59.2
7 -5 -7 408.79 65.68
-7 -5 -6 284.22 45.11
7 5 -6 327.57 45.07
7 -5 -6 359.11 61.73
-7 -5 -5 252.93 40.97
7 5 -5 405.1 50.79
7 -5 -5 365.67 60.02
-7 -5 -4 110.63 25.97
7 5 -4 117.2 27.03
7 -5 -4 119.54 34.59
-7 -5 -3 96.32 24.14
7 5 -3 91.75 24.58
7 -5 -3 78.47 29.11
-7 -5 -2 88.32 22.31
7 5 -2 82.65 23.5
7 -5 -2 114.05 34.45
7 -5 -1 600.14 78.81
7 5 -1 760.88 72.9
-7 -5 -1 666.33 57.3
7 -5 0 472.77 70.39
-7 -5 0 455.69 45.75
7 -5 1 774.04 90.8
-7 -5 1 649.27 51.96
7 -5 2 76.62 28.4
7 -5 3 87.44 32.16
7 -5 4 153.96 41.95
7 -5 5 408.27 70.41
7 -5 6 414.49 72.49
7 -5 7 484.54 80.13
7 -5 8 -7.37 15.59
-7 -6 -7 290.22 48.78
-7 -6 -6 394.77 55.05
-7 -6 -5 363.18 51.26
7 6 -4 602.84 65.12
7 -6 -4 632.54 82.64
-7 -6 -4 508.21 57.89
7 6 -3 292.98 47.35
-7 -6 -3 306.71 42.88
7 -6 -3 310.1 58.12
7 6 -2 504.49 61.4
-7 -6 -2 415.25 48.1
7 -6 -2 425.1 68.63
7 6 -1 313.92 49.24
-7 -6 -1 345.88 41.55
7 -6 -1 335.38 60.33
7 6 0 221.36 41.38
7 -6 0 193.22 44.97
7 -6 1 379.47 65.18
7 -6 2 405.28 68.63
7 -6 3 259.13 53.79
7 -6 4 574.92 83.64
7 -6 5 443.42 74.25
7 -6 6 416.89 72.18
7 -6 7 191.34 51.74
7 -6 8 198.4 55.48
-7 -7 -5 72.09 22.87
7 -7 0 5.74 16.33
7 -7 1 187.24 49.76
7 -7 2 514.56 78.72
7 -7 3 92.9 33.51
7 -7 4 334.15 63.63
7 -7 5 101.34 38.71
8 0 -11 898.61 74.79
8 0 -10 383.9 48.79
-8 0 -9 132.65 36.99
8 0 -9 157.36 30.93
-8 0 -8 276.25 51.36
8 0 -8 242.13 38.7
-8 0 -7 60.66 23.51
8 0 -7 114.38 19.61
8 0 -7 106.79 25.58
8 0 -6 2297.37 86.12
8 0 -6 2174.49 115.56
-8 0 -6 2341.05 143.35
8 0 -5 1259.82 65.93
8 0 -5 1342.01 91.39
-8 0 -5 1297.46 103.89
-8 0 -4 128.38 32.2
8 0 -4 86.34 23.39
8 0 -4 102.25 18.86
-8 0 -3 222.78 42.02
8 0 -3 255.89 40.54
-8 0 -2 161.11 34.33
8 0 -2 167.08 32.73
8 0 -1 551.28 60.93
-8 0 -1 585.69 64.39
-8 0 0 3237.83 151.19
-8 0 1 540.09 61.31
8 -1 -11 125.55 29.75
8 -1 -10 18.09 13.14
8 -1 -9 819.47 76.38
8 1 -9 802.92 64.37
-8 -1 -9 811.12 89.31
-8 1 -9 886.72 97.53
8 -1 -8 603.21 64.79
8 1 -8 582.96 55.56
-8 -1 -8 653.03 78.02
-8 1 -8 634.74 80.96
8 1 -8 629.35 50.9
8 1 -7 107.26 20.32
-8 -1 -7 163.29 37.54
-8 1 -7 134.81 38.12
8 1 -7 122.69 26.16
8 -1 -7 128.43 31.63
-8 -1 -6 63.37 23.35
-8 1 -6 35.02 16.79
8 1 -6 42.44 13.86
8 1 -6 49.29 16.33
8 -1 -6 45.34 18.07
8 1 -5 103.21 21.21
-8 -1 -5 102.46 28.25
-8 1 -5 123 32.71
8 -1 -5 97.01 16.51
8 1 -5 93.33 23.14
8 -1 -5 114.34 29.49
-8 1 -4 354.26 54.81
8 1 -4 289.41 40.66
8 -1 -4 368.67 52.43
8 -1 -4 353.48 31.95
8 1 -4 261 33.46
-8 -1 -4 407.68 55.89
8 1 -3 1650.16 96.88
8 -1 -3 1710.66 111.22
8 1 -3 1436.27 79.7
-8 -1 -3 1690.41 110.44
-8 1 -3 1608.44 114.86
8 1 -2 621.44 61.46
8 -1 -2 534.21 62.63
-8 -1 -2 499.54 59.22
-8 1 -2 593.77 69.38
-8 -1 -1 -1.93 7.41
-8 1 -1 5.93 7.47
8 1 -1 6.27 8.92
8 -1 -1 24.81 13.94
-8 -1 0 79.3 23.32
-8 1 0 118.12 30.4
8 -1 0 90.62 26.42
-8 -1 1 -0.73 4.02
-8 -1 2 540.7 57.06
8 -2 -10 108.02 30.14
-8 -2 -9 4.94 10.12
-8 2 -9 39.79 21.83
8 2 -9 14.07 11
8 -2 -9 30.28 15.67
-8 -2 -8 43.88 18.43
-8 2 -8 43.86 21.96
8 2 -8 30.23 12.17
8 -2 -8 56.16 21.01
-8 -2 -7 21.56 14.74
-8 2 -7 28.44 17.4
8 2 -7 19.15 9.47
8 -2 -7 7.53 10.37
8 2 -7 24.36 10.62
-8 -2 -6 64.25 22.4
-8 2 -6 77.12 29.98
8 2 -6 66.12 18.13
8 2 -6 113.73 23.33
8 -2 -6 84.03 25.8
-8 -2 -5 25.8 15.15
8 2 -5 33.52 13.14
-8 2 -5 38.07 18.68
8 2 -5 21.21 10.19
8 -2 -5 21.57 13.6
-8 -2 -4 124.6 31.09
-8 2 -4 134.92 37.27
8 2 -4 105.12 23.33
8 -2 -4 90.97 28.89
8 2 -4 79.44 19.2
-8 -2 -3 52.62 18.98
-8 2 -3 43.13 19.86
8 2 -3 40.94 14.7
8 2 -3 57.2 17.51
8 -2 -3 37.37 17.24
8 -2 -3 50.04 10.88
-8 -2 -2 64.41 21.04
-8 2 -2 73.52 25.97
8 2 -2 88.07 21.64
8 -2 -2 71.78 23.66
-8 -2 -1 17.64 10.96
-8 2 -1 -14.12 11.91
8 -2 -1 17.84 7.02
8 -2 -1 24.94 14.51
-8 -2 0 156.23 31.6
8 -2 0 166.03 22.24
8 -2 0 183.29 38.89
-8 -2 1 20.04 12.39
8 -2 1 14.06 11.67
8 -2 1 15.33 7.21
-8 -2 2 84.38 22.04
8 -2 2 97.44 29.74
8 3 -10 9.43 8.86
8 3 -9 294.5 40.28
-8 -3 -8 221.53 44.39
-8 3 -8 276.52 55.58
8 -3 -8 231.1 46.51
8 3 -8 189.17 32.69
-8 -3 -7 26.59 15.37
-8 3 -7 26.82 18.77
8 3 -7 11.59 9.6
8 -3 -7 22.49 14.68
-8 -3 -6 210.03 40.56
-8 3 -6 236.97 48.57
8 3 -6 162.31 29.8
8 -3 -6 167.12 38.83
8 3 -5 201.3 33.11
-8 3 -5 339.48 58.87
8 3 -5 330.26 37.33
-8 -3 -5 300.22 46.54
8 -3 -5 290.93 51.47
-8 -3 -4 10.08 11.23
-8 3 -4 32.69 19.26
8 3 -4 27.68 14.18
8 3 -4 24.61 10.57
8 -3 -4 43.34 21.56
8 3 -3 614.11 53.8
8 -3 -3 671.79 78
8 3 -3 554.89 57.01
-8 -3 -3 574.52 61.91
-8 3 -3 625.51 77.6
-8 -3 -2 69.86 21.91
8 3 -2 102.01 22.33
8 -3 -2 78.13 27.11
-8 -3 -1 91.94 23.51
8 -3 -1 93.07 27.25
-8 -3 0 203.84 34.06
8 -3 0 287.22 52.16
-8 -3 1 81.82 20.98
8 -3 1 118.58 33.08
-8 -3 2 112.26 24.38
8 -3 2 91.68 31.75
8 -3 3 726.4 85.78
8 4 -8 289.08 41.6
-8 -4 -7 83.69 26.18
-8 4 -7 112.18 35.31
8 4 -7 107.55 24.9
8 4 -6 1054.96 80.17
8 -4 -6 1120.57 105.46
-8 -4 -6 1204.87 97.4
-8 4 -6 1244.04 118.36
-8 4 -5 429.8 68.29
8 4 -5 474.97 54.31
8 -4 -5 500.49 71.1
-8 -4 -5 478.13 59
-8 -4 -4 -1.25 3.81
8 4 -4 3.8 6.56
8 -4 -4 -12.49 11.56
-8 -4 -3 122.31 28.58
8 4 -3 194.43 36.55
8 -4 -3 189.28 43.33
-8 -4 -2 149.86 30.93
8 4 -2 147.72 32.7
8 4 -2 151.43 26.63
8 -4 -2 181.94 43.71
-8 -4 -1 292.79 41.23
8 -4 -1 289.29 54.13
8 -4 0 1919.29 142.03
-8 -4 0 1866.7 102.02
8 -4 1 265.17 53.21
-8 -4 1 323.44 40.8
-8 -4 2 195.52 30.06
8 -4 2 182.69 43.05
8 -4 3 242.01 50.92
8 -4 4 -34.05 23.48
8 -4 5 667 90.05
8 -4 6 1446.96 137.68
-8 -5 -6 15.4 11.96
-8 -5 -5 13.79 14.91
8 5 -5 23.63 12.08
-8 -5 -4 132.27 30.92
8 5 -4 168.92 34.25
8 -5 -4 135.15 38.75
8 -5 -3 1402.97 125.91
8 5 -3 1289.41 98.2
-8 -5 -3 1212.26 89.5
8 5 -2 338.8 50.88
-8 -5 -2 287.47 43.08
8 -5 -2 297.83 57.16
-8 -5 -1 51.86 17.7
8 5 -1 55.02 20.96
8 -5 -1 67.28 28.47
-8 -5 0 9.03 8.58
8 -5 0 -16.51 15.4
8 -5 1 67.82 29.52
8 -5 2 238.3 53.21
8 -5 3 1675.78 143.54
8 -5 4 89.49 35.94
8 -5 5 45.64 26.43
8 -5 6 15.99 10.28
-8 -6 -5 72.94 24.11
-8 -6 -4 180.14 35.72
-8 -6 -3 87.81 25.98
9 0 -9 12.88 11.02
9 0 -8 -9.55 9.76
-9 0 -7 -18.62 14.6
9 0 -7 12.64 10.8
-9 0 -6 -6.98 8.25
9 0 -6 -4.7 6.89
-9 0 -5 0.5 6.63
9 0 -5 -3.99 5.11
9 0 -5 14.97 11.84
-9 0 -4 6.18 10.29
9 0 -4 12.24 7.06
9 0 -4 4.36 7
-9 0 -3 5.82 7.35
9 0 -3 -3.62 5.19
9 0 -3 -1.82 5.8
-9 0 -2 -15.84 13.32
9 0 -2 -3.31 6.7
-9 0 -1 2.16 4.78
9 0 -1 -2.75 6.57
-9 0 0 2.31 5.61
9 0 0 17.5 13.06
9 -1 -9 428.72 56.96
9 -1 -8 92.99 29.13
9 1 -8 118.52 26.42
-9 -1 -7 90.63 30.03
-9 1 -7 119.54 35.6
9 1 -7 105.11 25.51
9 -1 -7 73.38 24.52
-9 -1 -6 57.87 23.55
-9 1 -6 15.7 14.65
9 1 -6 39.96 13.65
9 1 -6 16.57 10.51
9 -1 -6 29.37 15.96
9 1 -5 108.98 21.4
-9 -1 -5 81.51 28.35
-9 1 -5 70.07 26.63
9 1 -5 113.83 27.36
9 -1 -5 65.53 24.13
-9 1 -4 352.4 58.11
9 1 -4 319.26 46.26
9 -1 -4 328.77 51.82
9 1 -4 354.94 41.47
-9 -1 -4 399.37 58.53
9 1 -3 1093.9 85.35
9 -1 -3 1064.36 93.3
9 -1 -3 1150.96 64.15
9 1 -3 1065.09 73.52
-9 -1 -3 1183.25 100.34
-9 1 -3 1214.87 105.86
-9 -1 -2 269 47.05
-9 1 -2 306.01 53.55
9 1 -2 237.2 41.65
9 -1 -2 281.2 48.36
-9 -1 -1 34.55 17.82
-9 1 -1 32.03 17.34
9 1 -1 38.47 18.63
9 -1 -1 52.83 20.85
-9 -1 0 -0.1 4.37
9 -1 0 17.67 13.36
-9 -1 1 13.94 11.19
9 -1 1 28.31 15.72
9 2 -8 106.82 22.84
9 -2 -8 118.9 32.03
9 2 -7 668.34 57.09
9 -2 -7 628.04 73.57
-9 -2 -7 575.09 74.31
9 2 -6 1537.68 88.95
9 2 -6 1598.23 93.6
9 -2 -6 1707.78 123.22
-9 -2 -6 1695.32 125.71
-9 2 -6 1694.27 136.19
-9 2 -5 417.54 67.1
9 2 -5 310.2 40.9
9 2 -5 357.05 45.45
9 -2 -5 363.64 58.02
-9 -2 -5 379.79 58.17
-9 -2 -4 204.58 41.42
-9 2 -4 138.14 39.6
9 2 -4 136.41 26.85
9 2 -4 142.95 29.82
9 -2 -4 208.32 43.81
-9 -2 -3 57.66 21.32
-9 2 -3 66.85 26.54
9 2 -3 33.19 14.09
9 2 -3 66.21 20.02
9 -2 -3 21.44 14.97
-9 -2 -2 33.96 17.91
-9 2 -2 49.65 23.62
9 2 -2 13.96 10.43
9 -2 -2 21.06 13.79
9 2 -1 734.58 71.19
9 -2 -1 766.54 84.71
-9 -2 -1 614.83 67.03
9 -2 0 2706.61 159.84
-9 -2 0 2230.42 124.01
9 -2 1 866.36 92
-9 -2 1 638.3 65.25
-9 -2 2 56.56 21
9 -2 2 71.24 25.95
9 3 -8 128.23 26.97
9 3 -7 326.92 42.71
-9 -3 -6 28.6 16.2
9 3 -6 36.73 15.12
9 -3 -6 36.02 19.09
-9 -3 -5 5.88 11.22
-9 3 -5 28.14 18.97
9 -3 -5 4.99 12.53
9 3 -5 1.17 4.1
-9 -3 -4 295.23 49.9
-9 3 -4 365.06 64.15
9 3 -4 327.35 45.39
9 -3 -4 310.38 57.55
9 3 -3 1409.98 89.09
9 -3 -3 1470.23 122.23
9 3 -3 1214.42 90.74
-9 -3 -3 1313.69 100.64
-9 -3 -2 277.46 46.19
9 3 -2 320.44 45.17
9 -3 -2 320.93 56.73
9 3 -2 281.2 44.67
-9 -3 -1 106.2 27.17
9 3 -1 121.42 28.26
9 -3 -1 142.06 37.9
-9 -3 0 3.95 7.4
9 -3 0 11.07 10.95
-9 -3 1 118.93 28.06
9 -3 1 128.99 37.35
9 -3 2 378.97 65.57
-9 -3 2 319.7 43.57
9 -3 3 1526.09 133.05
9 -3 4 463.56 76.02
-9 -4 -6 105.82 30.36
9 4 -6 126.3 28.99
-9 -4 -5 8.7 9.45
9 4 -5 -11.69 9.63
-9 -4 -4 175.02 37.75
9 4 -4 152.45 33.65
-9 -4 -3 7.16 8.79
9 -4 -3 1.75 8.54
-9 -4 -2 208.48 39.42
9 4 -2 235.82 44.18
9 -4 -2 191.81 46.55
-9 -4 -1 8.67 9.73
9 4 -1 47.03 17.96
9 -4 -1 29.22 18.71
-9 -4 0 173.67 34.25
9 -4 0 52.29 27.48
-9 -4 1 5.16 8.66
9 -4 1 22.28 18.95
9 -4 2 217.78 50.44
9 -4 3 84.35 32.85
-9 -5 -5 349.03 54.45
-9 -5 -4 248.08 44.62
-9 -5 -3 236.36 42.98
-9 -5 -2 148.85 34.58
10 0 -7 1190.51 94.87
10 0 -6 451 59.72
10 0 -5 562.03 68.67
-10 0 -4 363.06 61.08
10 0 -4 302.29 51.04
-10 0 -3 45.1 21.49
10 0 -3 59.68 23.12
-10 0 -2 348.68 57.9
10 0 -2 364.14 56.34
10 0 -1 1277 108.91
-10 0 -1 1261.66 109.59
10 0 0 523.78 71.79
-10 0 0 663.06 78.04
10 0 1 1341.35 115.09
10 1 -6 108.56 26.74
10 -1 -6 73 27.35
10 1 -5 122.44 29.99
10 -1 -5 117.73 31.84
10 1 -4 503.61 62.43
10 -1 -4 503.09 68
10 1 -4 477.15 50.89
-10 -1 -4 479.51 67.86
-10 1 -4 561.81 78.05
-10 -1 -3 336.26 57.18
-10 1 -3 324.96 57.73
10 1 -3 328.78 52.4
10 1 -3 330.44 43.53
10 -1 -3 370.23 59.4
10 1 -2 374.49 55.69
10 -1 -2 474.75 67.33
-10 -1 -2 418.5 62.26
-10 1 -2 468.09 69.82
-10 -1 -1 171.02 38.94
-10 1 -1 154.51 41.02
10 1 -1 126.84 33.92
10 -1 -1 136.14 36.48
-10 -1 0 6.76 9.47
10 1 0 2.31 4.64
10 -1 0 -6.24 7.93
10 -1 1 201.35 45.77
10 -1 2 558.72 77.93
10 2 -5 15.33 9.56
-10 -2 -4 71.49 28.38
10 2 -4 96.13 25.29
10 2 -4 71.2 23.05
-10 -2 -3 1.78 4.18
10 2 -3 25.28 11.73
10 2 -3 10.73 9.92
10 -2 -3 13.93 14.06
-10 -2 -2 49.6 23.23
10 2 -2 60.62 21.33
10 -2 -2 72.83 27.57
-10 -2 -1 -13.68 12.15
10 2 -1 23.02 14.25
10 -2 -1 27.51 16.77
-10 -2 0 61.08 23
10 2 0 78 28.03
10 -2 0 114.82 36.8
-10 -2 1 6.07 7.47
10 -2 1 28.35 17.49
10 -2 2 85.41 35.63
10 3 -5 -6.09 7.45
10 3 -4 595.71 64.75
-10 -3 -4 608.7 75.29
-10 -3 -3 31.67 17.93
10 3 -3 22.12 12.75
10 3 -2 521.02 61.13
10 3 -2 507.97 64.11
-10 -3 -2 461.98 62.47
-10 -3 -1 21.17 13.12
10 3 -1 -7.71 8.63
-10 -3 0 49.01 20.17
-10 -3 1 13 11.8
-10 -4 -3 66.82 26.6
-10 -4 -2 21.7 15.35
11 1 -3 63.85 21.61
11 1 -2 231.17 46.66
11 1 -1 241.4 48.61
-11 -1 0 81.28 29.81
11 2 -1 685.93 79.95
-11 -2 -1 566.86 73.24
-11 -2 0 11.35 14.69
11 2 0 28.32 16.59
loop_
_exptl_oxdiff_crystal_face_indexfrac_h
_exptl_oxdiff_crystal_face_indexfrac_k
_exptl_oxdiff_crystal_face_indexfrac_l
_exptl_oxdiff_crystal_face_x
_exptl_oxdiff_crystal_face_y
_exptl_oxdiff_crystal_face_z
-8.2004 -5.6171 6.1771 -0.1343 0.3275 0.9352
-5.9331 -0.8594 14.0263 -0.5570 -0.2298 0.7981
-0.6642 -6.9284 -11.4783 0.5219 0.8530 -0.0090
-0.3660 -8.3478 8.2951 -0.5833 0.6830 0.4396
-11.0309 -1.0305 3.4383 0.1985 -0.1234 0.9723
-1.4109 -9.5689 -0.8088 -0.0746 0.9315 0.3559
-9.2434 -1.3228 9.3254 -0.1903 -0.1606 0.9685
1.6951 6.5465 -11.9063 0.6981 -0.4282 -0.5739
-5.7302 -5.5404 10.6699 -0.4661 0.2867 0.8370
-2.4397 9.2403 3.2165 0.0792 -0.9968 0.0091
-10.9734 2.2613 1.5938 0.3545 -0.4167 0.8371
-8.7671 0.7434 10.4261 -0.2305 -0.3738 0.8984
10.1340 2.6330 -5.9176 -0.0033 -0.0086 -1.0000
2.6209 -0.2313 -16.0904 0.7702 0.3187 -0.5525
