#------------------------------------------------------------------------------
#$Date: 2019-11-11 03:11:49 +0200 (Mon, 11 Nov 2019) $
#$Revision: 226227 $
#$URL: file:///home/coder/svn-repositories/cod/cif/4/00/31/4003122.cif $
#------------------------------------------------------------------------------
#
# This file is available in the Crystallography Open Database (COD),
# http://www.crystallography.net/
#
# All data on this site have been placed in the public domain by the
# contributors.
#
data_4003122
loop_
_publ_author_name
'Liu, Mei'
'Zhao, Jiangtao'
'Luo, Zhenlin'
'Sun, Zhihu'
'Pan, Nan'
'Ding, Huaiyi'
'Wang, Xiaoping'
_publ_section_title
;
 Unveiling Solvent-Related Effect on Phase Transformations in CsBr--PbBr2
 System: Coordination and Ratio of Precursors
;
_journal_issue                   17
_journal_name_full               'Chemistry of Materials'
_journal_page_first              5846
_journal_paper_doi               10.1021/acs.chemmater.8b00537
_journal_volume                  30
_journal_year                    2018
_chemical_formula_sum            'Br3 H2 O Pb1.5'
_chemical_formula_weight         568.53
_space_group_crystal_system      monoclinic
_space_group_IT_number           11
_space_group_name_Hall           '-P 2yb'
_space_group_name_H-M_alt        'P 1 21/m 1'
_atom_sites_solution_hydrogens   difmap
_audit_creation_method           SHELXL-2013
_cell_angle_alpha                90
_cell_angle_beta                 101.398(6)
_cell_angle_gamma                90
_cell_formula_units_Z            4
_cell_length_a                   12.2606(7)
_cell_length_b                   4.3331(2)
_cell_length_c                   12.5000(8)
_cell_measurement_reflns_used    2039
_cell_measurement_temperature    298(2)
_cell_measurement_theta_max      36.1430
_cell_measurement_theta_min      4.0270
_cell_volume                     650.98(6)
_computing_cell_refinement       'CrysAlisPro (Agilent Technologies)'
_computing_data_collection       'CrysAlisPro (Agilent Technologies)'
_computing_data_reduction        'CrysAlisPro (Agilent Technologies)'
_computing_molecular_graphics    'Ortep-3 (L. J. Farrugia, 2001)'
_computing_publication_material  SHELXL-2013
_computing_structure_refinement  'SHELXL-2013 (Sheldrick, 2013)'
_computing_structure_solution    'SHELXS-97 (Sheldrick, 1997)'
_diffrn_ambient_temperature      298(2)
_diffrn_detector_area_resol_mean 15.9149
_diffrn_measured_fraction_theta_full 0.998
_diffrn_measured_fraction_theta_max 0.947
_diffrn_measurement_device_type  'Gemini S Ultra, Agilent Technologies'
_diffrn_measurement_method       '\w scans'
_diffrn_radiation_source         'Enhance (Mo) X-ray Source'
_diffrn_radiation_type           MoK\a
_diffrn_radiation_wavelength     0.71073
_diffrn_reflns_av_R_equivalents  0.0613
_diffrn_reflns_av_unetI/netI     0.1027
_diffrn_reflns_Laue_measured_fraction_full 0.998
_diffrn_reflns_Laue_measured_fraction_max 0.947
_diffrn_reflns_limit_h_max       20
_diffrn_reflns_limit_h_min       -16
_diffrn_reflns_limit_k_max       7
_diffrn_reflns_limit_k_min       -7
_diffrn_reflns_limit_l_max       16
_diffrn_reflns_limit_l_min       -21
_diffrn_reflns_number            6433
_diffrn_reflns_point_group_measured_fraction_full 0.998
_diffrn_reflns_point_group_measured_fraction_max 0.947
_diffrn_reflns_theta_full        30.000
_diffrn_reflns_theta_max         37.580
_diffrn_reflns_theta_min         3.325
_exptl_absorpt_coefficient_mu    57.073
_exptl_absorpt_correction_T_max  1.00000
_exptl_absorpt_correction_T_min  0.05286
_exptl_absorpt_correction_type   multi-scan
_exptl_absorpt_process_details
;
CrysAlisPro 1.171.38.43f (Rigaku Oxford Diffraction, 2015)
Empirical absorption correction using spherical harmonics,
 implemented in SCALE3 ABSPACK scaling algorithm.
;
_exptl_crystal_colour            colorless
_exptl_crystal_density_diffrn    5.801
_exptl_crystal_description       block
_exptl_crystal_F_000             952
_exptl_crystal_size_max          0.120
_exptl_crystal_size_mid          0.110
_exptl_crystal_size_min          0.100
_refine_diff_density_max         7.692
_refine_diff_density_min         -8.201
_refine_diff_density_rms         0.966
_refine_ls_extinction_coef       0.044(2)
_refine_ls_extinction_expression Fc^*^=kFc[1+0.001xFc^2^\l^3^/sin(2\q)]^-1/4^
_refine_ls_extinction_method     SHELXL
_refine_ls_goodness_of_fit_ref   1.050
_refine_ls_hydrogen_treatment    constr
_refine_ls_matrix_type           full
_refine_ls_number_parameters     72
_refine_ls_number_reflns         3602
_refine_ls_number_restraints     0
_refine_ls_restrained_S_all      1.050
_refine_ls_R_factor_all          0.1218
_refine_ls_R_factor_gt           0.0811
_refine_ls_shift/su_max          0.000
_refine_ls_shift/su_mean         0.000
_refine_ls_structure_factor_coef Fsqd
_refine_ls_weighting_details
'w=1/[\s^2^(Fo^2^)+(0.1022P)^2^+16.6455P] where P=(Fo^2^+2Fc^2^)/3'
_refine_ls_weighting_scheme      calc
_refine_ls_wR_factor_gt          0.1895
_refine_ls_wR_factor_ref         0.2260
_reflns_Friedel_coverage         0.000
_reflns_number_gt                2415
_reflns_number_total             3602
_reflns_threshold_expression     'I > 2\s(I)'
_cod_data_source_file            cm8b00537_si_001.cif
_cod_data_source_block           shelxl
_cod_original_sg_symbol_H-M      'P 21/m'
_cod_original_formula_sum        'H2 Br3 O Pb1.50'
_cod_database_code               4003122
_shelx_space_group_comment
;
The symmetry employed for this shelxl refinement is uniquely defined
by the following loop, which should always be used as a source of
symmetry information in preference to the above space-group names.
They are only intended as comments.
;
_shelx_estimated_absorpt_t_min   0.056
_shelx_estimated_absorpt_t_max   0.070
_shelxl_version_number           2013-4
_shelx_res_file
;
TITL PbBr2 in P21/m #11
CELL  0.71073  12.2606   4.3331  12.5000   90.000  101.398   90.000
ZERR     4.00   0.0007   0.0002   0.0008    0.000    0.006    0.000
LATT   1
SYMM  - X, 1/2 + Y, - Z
SFAC  PB   BR   H    O
UNIT  6    12   8    4
MERG   2
MORE -1
FMAP   2
PLAN   36
SIZE  0.10   0.11   0.12
ACTA  60
BOND  $H
CONF
L.S.  14
WGHT    0.102200   16.645500
EXTI    0.044471
FVAR       0.34512
PB1   1    0.574291    0.250000    0.195138    10.50000    0.02750    0.02710 =
         0.03086    0.00000    0.00929    0.00000
PB2   1    0.191730    0.750000    0.065293    10.50000    0.04632    0.03264 =
         0.02389    0.00000    0.00713    0.00000
PB3   1   -0.044006    0.250000    0.323903    10.50000    0.02980    0.03497 =
         0.03948    0.00000   -0.00436    0.00000
BR2   2    0.366553    0.250000   -0.010032    10.50000    0.01978    0.02728 =
         0.01660    0.00000   -0.00017    0.00000
BR5   2    0.101621   -0.250000    0.443690    10.50000    0.02098    0.02416 =
         0.02078    0.00000    0.00196    0.00000
BR3   2    0.179515    0.250000    0.225125    10.50000    0.01977    0.02480 =
         0.01871    0.00000    0.00199    0.00000
BR4   2   -0.056228    0.750000    0.103342    10.50000    0.01700    0.03086 =
         0.02260    0.00000    0.00007    0.00000
BR1   2    0.427226    0.750000    0.239832    10.50000    0.01592    0.02274 =
         0.02339    0.00000    0.00062    0.00000
BR6   2   -0.233725   -0.250000    0.309286    10.50000    0.01729    0.02933 =
         0.02469    0.00000    0.00120    0.00000
O1    4    0.581813    0.250000    0.398940    10.50000    0.03555    0.02314 =
         0.01634    0.00000   -0.00434    0.00000
AFIX   7
H1    3    0.611895    0.070595    0.432263    11.00000   -1.50000
AFIX   6
O2    4    0.630789    0.750000    0.532480    10.50000    0.03466    0.04117 =
         0.03171    0.00000   -0.00112    0.00000
H2    3    0.591291    0.815784    0.575517    11.00000   -1.50000
AFIX   0
HKLF    4

REM  PbBr2 in P21/m #11
REM R1 =  0.0811 for    2415 Fo > 4sig(Fo)  and  0.1218 for all    3602 data
REM     72 parameters refined using      0 restraints

END

WGHT      0.1029     16.2058

REM Highest difference peak  7.692,  deepest hole -8.201,  1-sigma level  0.966
Q1    1   0.6383  0.2500  0.1972  10.50000  0.05    7.69
Q2    1   0.2532  0.7500  0.0701  10.50000  0.05    7.38
Q3    1   0.1222  0.7500  0.0602  10.50000  0.05    6.80
Q4    1   0.5113  0.2500  0.1913  10.50000  0.05    6.72
Q5    1   0.0202  0.2500  0.3282  10.50000  0.05    5.56
Q6    1   0.1578  0.5922  0.0481  11.00000  0.05    3.96
Q7    1  -0.1098  0.2500  0.3217  10.50000  0.05    3.95
Q8    1   0.5747  0.4644  0.1973  11.00000  0.05    3.94
Q9    1  -0.1199  0.7500  0.0947  10.50000  0.05    3.83
Q10   1   0.1198  0.2500  0.2187  10.50000  0.05    3.65
Q11   1   0.1673 -0.2500  0.4467  10.50000  0.05    3.62
Q12   1  -0.3002 -0.2500  0.3028  10.50000  0.05    3.53
Q13   1   0.2409  0.5885  0.0873  11.00000  0.05    3.47
Q14   1   0.0423 -0.2500  0.4390  10.50000  0.05    3.36
Q15   1   0.3030  0.2500 -0.0129  10.50000  0.05    3.16
Q16   1   0.2415  0.2500  0.2243  10.50000  0.05    3.13
Q17   1   0.6158  0.4047  0.2172  11.00000  0.05    3.05
Q18   1   0.4811  0.7500  0.2401  10.50000  0.05    3.03
Q19   1   0.4288  0.2500 -0.0091  10.50000  0.05    2.94
Q20   1  -0.0361  0.4625  0.3197  11.00000  0.05    2.68
Q21   1   0.4252  0.2500  0.1917  10.50000  0.05    2.62
Q22   1  -0.0756  0.4064  0.3021  11.00000  0.05    2.45
Q23   1   0.0171  0.7500  0.1074  10.50000  0.05    2.42
Q24   1  -0.1731 -0.2500  0.3097  10.50000  0.05    2.36
Q25   1  -0.0533  0.6704  0.3250  11.00000  0.05    2.32
Q26   1   0.6292  0.5818  0.2240  11.00000  0.05    2.30
Q27   1  -0.0995  0.5922  0.0804  11.00000  0.05    2.29
Q28   1   0.2207  0.4160  0.1060  11.00000  0.05    2.21
Q29   1  -0.3459 -0.3279  0.2773  11.00000  0.05    2.16
Q30   1   0.5820  0.6708  0.1903  11.00000  0.05    2.15
Q31   1   0.3674  0.7500  0.2407  10.50000  0.05    2.10
Q32   1   0.6736  0.2500  0.0635  10.50000  0.05    2.08
Q33   1  -0.0399  0.2500  0.1503  10.50000  0.05    2.08
Q34   1   0.3659  0.7500  0.0497  10.50000  0.05    2.08
Q35   1   0.3221  0.4062 -0.0301  11.00000  0.05    2.07
Q36   1  -0.1918 -0.4060  0.3218  11.00000  0.05    1.97
;
_shelx_res_checksum              39374
_shelx_hkl_file
;
   0   0   2  963.97   61.36
   0   0   3  568.34   56.16
   0   0  -3  707.71   58.32
   0   0  -4 1239.99   85.15
   0   0  -5   12.65   12.35
   0   0  -6   27.86   15.65
   0   0  -7 2798.91  141.80
   0   0  -8 6466.32  221.18
   0   0  -9 3078.72  152.20
   0   0 -10  490.98   59.89
   0   0 -11  171.34   37.93
   0   0 -12  112.68   31.10
   0   0 -13  478.56   60.21
   0   0 -14   24.50   17.63
   0   0 -15  182.49   38.85
   0   0 -16  834.17   84.79
   0   0 -17   36.20   22.40
   0   0 -18   74.43   28.76
   0   0 -19   14.19   15.83
   0   0 -20    7.86   15.93
   0  -1   0    2.75    1.80
   0  -1   0   -0.73    1.21
   0   1   0    4.44    1.28
   0   1   0    5.92    3.85
   0   1   1  822.67   19.42
   0  -1   1  661.31   37.68
   0   1  -1  600.02   47.49
   0   1   1  893.97   33.02
   0  -1  -1  865.37   31.10
   0   1   1  883.51   27.08
   0  -1  -1  864.16   18.81
   0  -1  -2 1122.05   33.76
   0   1  -2  887.74   67.74
   0   1   2 1117.10   38.38
   0  -1   2  872.81   63.39
   0   1   2 1096.91   34.97
   0   1   3 4193.90  118.27
   0  -1  -3 4287.98   87.68
   0  -1  -4 3433.84  112.48
   0   1   4 3367.27  127.91
   0   1  -5 6011.17  211.86
   0  -1  -5 4699.86  160.12
   0   1  -6 1097.94   93.34
   0  -1  -6  904.10   77.03
   0   1  -7 1736.64  119.11
   0  -1  -7 1705.61  109.51
   0   1  -8  529.56   67.63
   0  -1  -8  550.55   63.33
   0   1  -9  612.33   75.19
   0  -1  -9  571.39   62.82
   0  -1 -10  428.91   55.44
   0   1 -10  470.65   65.03
   0  -1 -11 1042.52   86.27
   0   1 -11 1061.72   95.07
   0  -1 -12   75.08   23.78
   0   1 -12   53.95   18.77
   0  -1 -13  141.15   33.97
   0   1 -13  146.81   37.86
   0   1 -14  816.15   85.36
   0  -1 -14  835.61   80.07
   0  -1 -15   19.83   11.62
   0   1 -15   13.78   14.85
   0   1 -16  113.83   34.17
   0  -1 -16   77.63   26.31
   0   1 -17  124.13   37.72
   0  -1 -17   94.62   28.62
   0  -1 -18  165.60   38.98
   0   1 -18  203.00   48.22
   0  -1 -19   78.86   27.85
   0   1 -19   94.34   35.33
   0   1 -20  121.32   37.52
   0  -2   0 8445.91  136.18
   0   2   0 8715.30  188.96
   0   2   0 8549.31   76.96
   0   2   1  939.25   25.02
   0  -2  -1  974.21   27.72
   0  -2  -1 1065.69   47.79
   0   2  -1  955.32   32.03
   0  -2  -2  855.82   27.44
   0   2   2  872.29   32.50
   0  -2  -2  899.98   44.87
   0   2  -2  800.87   39.95
   0   2   2  863.06   38.53
   0   2   3  352.39   26.12
   0   2   3  346.87   27.10
   0  -2  -3  332.81   19.54
   0   2  -3  345.91   52.65
   0   2   4  587.03   36.42
   0   2  -4  667.19   75.34
   0   2  -5    3.07   12.65
   0  -2  -6    2.83    3.42
   0   2  -6    0.61    9.95
   0  -2  -7 1423.09   84.44
   0   2  -7 1887.91  131.55
   0  -2  -8 3577.13  161.91
   0   2  -8 3887.17  192.06
   0  -2  -9 1877.77  130.51
   0   2  -9 2111.72  144.04
   0  -2 -10  316.05   56.12
   0   2 -10  308.38   55.61
   0   2 -11   90.94   33.14
   0  -2 -11  109.06   32.03
   0   2 -12   99.40   33.67
   0  -2 -12   90.02   30.61
   0  -2 -13  470.44   66.09
   0   2 -13  412.46   66.63
   0  -2 -14    4.67   10.79
   0   2 -14   31.96   25.49
   0  -2 -15  178.89   39.45
   0   2 -15  171.74   44.75
   0   2 -16  683.84   86.53
   0   2 -17   42.81   31.27
   0   2 -18   74.07   34.36
   0   2 -19   41.73   28.98
   0  -3   0   -0.87    5.92
   0   3   0    6.53    5.45
   0   3   0    1.82    1.91
   0   3  -1  333.01   44.95
   0   3   1  344.40   18.23
   0   3   1  330.27   20.69
   0   3  -1  345.44   20.62
   0  -3  -1  337.73   34.42
   0  -3   1  334.55   35.07
   0   3   2  379.04   22.94
   0   3  -2  389.85   26.38
   0  -3  -2  400.68   37.38
   0   3  -2  333.26   52.05
   0  -3  -2  395.32   23.16
   0  -3   2  393.34   40.37
   0   3   2  389.82   30.68
   0   3   3 2054.64   67.32
   0   3  -3 1980.86   76.46
   0   3   3 2135.72   74.90
   0   3  -3 1842.85  136.71
   0   3   4 1343.78   62.47
   0   3  -4 1351.05   78.86
   0   3  -4 1292.68  118.20
   0   3   5 1945.77   79.04
   0   3  -5 2249.04  129.50
   0   3  -6  555.37   80.80
   0   3  -7  806.35   96.31
   0   3  -8  241.18   53.91
   0   3  -9  295.39   58.17
   0   3 -10  183.70   46.15
   0   3 -11  557.84   78.81
   0   3 -12   21.45   20.81
   0   3 -13   61.06   29.81
   0   3 -14  469.32   74.65
   0   3 -15   36.36   27.43
   0   3 -16   73.28   35.42
   0   3 -17  115.84   46.04
   0   3 -18  168.05   50.38
   0   4   0 4198.14  102.81
   0   4   0 4482.75   74.96
   0  -4  -1  407.55   45.06
   0   4   1  388.46   22.16
   0   4  -1  387.78   42.90
   0   4   1  369.67   35.52
   0  -4   1  412.00   48.72
   0   4  -1  409.14   24.62
   0  -4   2  367.52   47.93
   0   4  -2  335.91   49.44
   0   4   2  357.65   35.18
   0   4  -2  350.59   26.01
   0  -4  -2  338.08   39.81
   0   4   2  311.78   22.28
   0   4  -3   71.12   12.63
   0  -4   3   51.94   17.56
   0   4   3   60.57   15.97
   0   4  -3   77.14   29.67
   0   4  -4  214.48   52.79
   0   4  -4  229.39   28.45
   0   4   4  214.63   28.12
   0  -4   4  199.45   36.97
   0   4   5   12.43    9.27
   0   4  -5   10.58   12.96
   0   4  -5    1.86    9.63
   0   4  -6  -20.71   23.45
   0   4   6    1.78    5.19
   0   4  -6   12.52   14.85
   0   4  -7  580.55   87.09
   0   4  -7  542.53   88.24
   0   4  -8 1283.10  135.97
   0   4  -8 1599.84  178.19
   0   4  -9  856.25  108.32
   0   4  -9  840.95  151.58
   0   4 -10  145.22   45.55
   0   4 -10   63.45   27.02
   0   4 -11  -35.04   67.48
   0   4 -11   27.17   21.67
   0   4 -12   82.56   38.16
   0   4 -12  -51.14   65.38
   0   4 -13  153.49   46.19
   0   4 -13   36.39   28.60
   0   4 -14   23.92   28.31
   0   4 -14   56.92   46.21
   0   4 -15  248.38   86.60
   0   4 -15   83.34   37.45
   0   4 -16  448.37  108.38
   0   4 -16  304.83   69.08
   0   4 -17  142.24   68.21
   0   4 -17   24.47   28.72
   0   5   0   -4.27   12.18
   0  -5   0   19.89   16.95
   0  -5  -1   95.90   28.58
   0  -5   1  118.01   33.37
   0   5   1   81.86   20.08
   0  -5   2   77.67   26.95
   0   5   2   62.01   18.55
   0  -5   3  739.08   84.60
   0   5   3  629.22   53.53
   0   5  -4  547.37   83.80
   0   5   4  418.06   44.76
   0  -5   4  467.33   70.10
   0   5   5  565.82   53.11
   0  -5   5  706.10   91.30
   0   5  -5  698.41  106.24
   0   5  -6  156.16   55.35
   0  -5   6  107.40   34.51
   0   5   6  112.79   23.93
   0  -5   7   84.74   28.61
   0   5  -7  117.26   44.43
   0   5  -8   25.51   18.08
   0   5  -9  108.79   45.00
   0   5 -10    8.25   16.72
   0   5 -11  239.29   64.95
   0   5 -12   26.18   25.97
   0   5 -13   35.73   31.15
   0   5 -14  185.70   60.13
   0   5 -15   26.77   31.84
   0   6   0 1711.07  110.85
   0  -6   0 2159.98  150.37
   0   6  -1   57.74   20.13
   0   6   1   85.43   25.31
   0  -6   1  126.77   42.17
   0   6   2   74.49   22.41
   0  -6   2  170.29   49.34
   0   6   3   12.44   13.32
   0  -6   3   37.08   30.18
   0  -6   4  101.26   42.38
   0   6   4   69.22   22.46
   0  -6   5   66.39   34.57
   0   6   5   -8.99    9.53
   0  -6   6   12.73   19.36
   0  -6   7   83.20   34.26
   0  -6   8   95.12   36.90
   0  -6   9   31.95   12.60
   0  -6  10  -31.45   28.59
   0  -6  11  -20.44   21.58
   0   7   0    4.84   12.00
   0   7  -1   12.08    8.86
   0   7   1   -4.53   11.29
   0   7   2   59.97   26.13
   0   7  -2   11.59   14.77
   0   7  -3   61.12   21.36
   0  -7   3  176.82   56.71
   0   7   3  153.39   39.63
   0   7   4  102.89   33.07
   0  -7   4  156.61   55.68
   0   7  -4    7.51   14.24
   0  -7   5  164.07   55.34
   1   0 -21   38.55   23.30
   1   0 -20   21.74   16.48
   1   0 -19  331.57   57.61
   1   0 -18  861.84   89.99
   1   0 -17  227.66   47.05
   1   0 -16  116.72   34.53
   1   0 -15   79.70   29.30
   1   0 -14   48.65   23.92
   1   0 -13  392.36   57.32
   1   0 -12  513.55   65.25
   1   0 -11 5367.87  210.23
   1   0 -10 2322.36  140.03
   1   0  -9 2126.86  135.25
   1   0  -8 2865.75  156.20
   1   0  -7  668.82   73.33
   1   0  -6  206.37   39.23
   1   0  -5  459.36   52.47
   1   0  -4 2013.73   93.22
  -1   0   3 3000.54   90.97
   1   0  -3 4560.33  109.15
   1   0  -2 1929.58   54.15
   1   0   2   90.20   13.48
  -1   0  -3  360.67   30.84
  -1   0  -4 1922.63   87.99
  -1   0  -5 9999.00  229.99
  -1   0  -6  935.95   74.45
  -1   0  -7  780.50   69.53
  -1   0  -8  231.19   38.60
  -1   0  -9   52.50   19.13
  -1   0 -10    3.30    7.04
  -1   0 -11  555.22   63.44
  -1   0 -12 1274.70   94.85
  -1   0 -13 1635.43  112.20
  -1   0 -14   38.34   19.59
  -1   0 -15  120.90   29.65
  -1   0 -16   47.97   25.63
  -1   0 -17   17.92   16.65
  -1   0 -18   86.98   32.63
  -1   0 -19   51.34   24.09
  -1   0 -20   45.63   22.91
   1   1 -20   18.62   19.17
   1  -1 -19   -1.74   10.68
   1   1 -19   10.09   19.92
   1   1 -18   18.46   20.36
   1  -1 -18    4.20   11.92
   1   1 -17   43.79   26.30
   1  -1 -17   28.01   19.33
   1  -1 -16  239.24   46.40
   1   1 -16  301.95   57.38
   1  -1 -15 1036.37   94.26
   1   1 -15 1060.61  102.14
   1   1 -14  606.79   76.49
   1  -1 -14  606.07   73.60
   1   1 -13  380.05   58.12
   1  -1 -13  373.99   56.47
   1  -1 -12 1208.37  105.02
   1   1 -12 1136.45  104.51
   1  -1 -11  184.68   43.16
   1   1 -11  196.98   44.91
   1   1 -10  208.50   44.80
   1  -1 -10  175.19   37.25
   1   1  -9   36.71   23.87
   1  -1  -9   23.64    9.73
   1   1  -8 2695.80  156.95
   1  -1  -8 2104.48  136.52
   1  -1  -7 1756.87  116.15
   1   1  -7 2166.27  138.73
   1  -1  -6 1823.81  103.27
   1   1  -6 1915.98  125.29
   1   1  -5  469.75   59.40
   1  -1  -5  525.00   45.62
   1  -1  -4 1390.97   56.52
   1   1  -4 1233.94   86.45
  -1   1   4 1163.21   54.71
   1  -1  -3 2684.51  103.85
   1   1  -3 2792.25  111.31
   1  -1  -2 1455.26   37.41
  -1   1   2 1632.38   47.43
  -1   1   2 1592.85   36.69
   1  -1  -2 1548.93   46.73
   1   1  -2 1376.71   62.58
   1   1  -2 1483.01   51.58
  -1  -1   2 1261.81   83.59
  -1  -1   1  236.30   27.16
   1   1  -1  179.36   16.03
   1  -1  -1  227.64   14.63
   1   1  -1  240.13   14.91
  -1  -1   1  244.87   16.29
  -1   1   1  243.02   16.06
   1   1   0 1105.87   26.81
   1   1   0 1006.23   26.57
  -1  -1   0 1083.22   27.64
  -1  -1   0 1089.87   35.07
   1   1   1  276.82   17.00
   1   1   1  256.76   13.78
  -1  -1  -1  264.96   14.08
  -1  -1  -2 3308.29   51.18
  -1   1  -2 3283.75   91.75
  -1  -1  -2 3107.76   59.48
   1   1   2 2933.75   62.67
   1   1   2 2820.41   63.19
  -1   1  -3 1241.46   70.09
   1   1   3 1352.56   54.58
  -1  -1  -3 1196.40   54.22
  -1   1  -4 3495.27  137.01
   1   1   4 3285.00  109.45
  -1   1  -5  267.11   41.13
  -1  -1  -5  430.37   44.04
  -1  -1  -6  385.59   44.70
  -1   1  -6  213.13   38.28
  -1   1  -7 1365.35  100.79
  -1  -1  -7 1736.55   97.30
  -1  -1  -8 3059.16  133.80
  -1   1  -8 2431.29  138.24
  -1  -1  -9 4422.86  164.31
  -1   1  -9 4063.39  182.35
  -1   1 -10 4867.20  201.84
  -1  -1 -10 4979.05  175.43
  -1   1 -11  517.52   66.37
  -1  -1 -11  556.14   61.00
  -1   1 -12 1336.90  109.25
  -1  -1 -12 1235.72   89.24
  -1   1 -13 1313.14  108.81
  -1  -1 -13 1321.12   93.89
  -1   1 -14   67.51   26.85
  -1  -1 -14  106.28   28.26
  -1   1 -15  172.44   42.63
  -1  -1 -15  200.16   39.49
  -1   1 -16  365.54   60.45
  -1  -1 -16  298.17   50.25
  -1   1 -17    4.82   12.23
  -1  -1 -17   26.29   19.33
  -1   1 -18   32.22   25.72
  -1  -1 -18   15.82   18.68
  -1   1 -19  297.19   57.83
  -1  -1 -19  238.24   49.11
  -1   1 -20   -6.42   12.51
   1   2 -19  240.61   55.76
   1   2 -18  792.22   98.51
   1   2 -17  227.93   54.64
   1   2 -16  101.09   37.13
   1   2 -15   44.17   25.14
   1  -2 -15   12.75   10.74
   1  -2 -14  -17.79   22.75
   1   2 -14   11.33   15.75
   1  -2 -13  260.55   51.00
   1   2 -13  321.34   58.97
   1  -2 -12  392.64   65.46
   1   2 -12  406.84   65.87
   1   2 -11 3742.61  195.92
   1  -2 -11 2999.35  185.11
   1  -2 -10 1258.32  113.67
   1   2 -10 1401.28  123.00
   1   2  -9 1410.29  121.05
   1  -2  -9 1076.88   93.44
   1   2  -8 1869.64  135.47
   1  -2  -8 1138.10   80.20
   1   2  -7  427.51   65.40
   1   2  -6  145.30   38.63
   1   2  -5  206.14   42.15
  -1   2   5  262.77   34.38
  -1   2   4 1163.10   47.73
  -1   2   4 1045.54   45.27
   1   2  -4  962.26   85.47
   1  -2  -4 1025.79   40.62
   1   2  -4 1151.49   68.33
  -1   2   3 2424.09   47.80
   1   2  -3 2633.63   84.38
   1  -2  -3 2469.89   45.94
   1   2  -2 1355.83   75.11
   1  -2  -2 1454.89   54.90
  -1   2   2 1564.40   48.35
   1   2  -2 1382.52   49.73
   1  -2  -2 1412.08   24.57
  -1  -2   1  517.81   45.71
   1   2  -1  518.66   35.20
  -1  -2   1  670.07   39.54
   1  -2  -1  654.91   36.43
   1   2  -1  626.64   27.43
   1  -2   0  398.37   28.77
   1   2   0  382.83   19.84
  -1  -2   0  371.01   29.27
   1   2   0  342.96   20.95
  -1   2   0  314.44   28.76
  -1   2   0  382.50   12.94
   1   2   1  248.08   16.01
  -1   2  -1  253.45   17.86
  -1  -2  -1  252.25   23.80
  -1   2  -1  235.06   31.37
   1   2   2   42.12    9.13
   1   2   2   31.98    6.85
  -1   2  -2   24.74   12.89
   1   2   3  237.98   22.29
   1   2   3  249.98   23.38
  -1   2  -3  186.50   34.88
   1   2   4 1335.65   58.77
   1   2   4 1370.66   64.50
  -1  -2  -5 8056.32  141.35
  -1   2  -5 7668.55  246.49
  -1   2  -6  799.95   82.02
  -1  -2  -6  847.78   64.51
  -1  -2  -7  692.09   65.11
  -1   2  -7  636.82   74.57
  -1   2  -8  136.75   34.72
  -1  -2  -8  149.12   31.38
  -1   2  -9   41.97   18.19
  -1  -2  -9   46.92   16.87
  -1   2 -10    7.30   10.42
  -1  -2 -10   -6.04   11.41
  -1  -2 -11  474.80   61.65
  -1   2 -11  388.30   62.21
  -1   2 -12  952.20   98.99
  -1  -2 -12 1174.17   96.86
  -1  -2 -13 1499.27  110.09
  -1   2 -13 1297.31  115.56
  -1  -2 -14   49.52   22.74
  -1   2 -14   22.46   18.29
  -1   2 -15  134.66   38.35
  -1  -2 -15  112.26   31.18
  -1   2 -16   47.53   31.27
  -1   2 -17    4.77   16.29
  -1   2 -18   56.31   28.30
  -1   2 -19   75.18   33.36
   1   3 -18   15.43   19.64
   1   3 -18  328.56   91.46
   1   3 -17   25.56   27.04
   1   3 -16  213.46   55.22
   1   3 -15  544.33   82.59
   1   3 -14  330.66   64.81
   1   3 -13  217.64   53.18
   1   3 -12  567.57   79.04
   1   3 -11  108.05   38.40
   1   3 -10   95.55   32.56
   1   3  -9   38.41   22.75
   1   3  -8 1026.32  124.24
   1   3  -8 1034.50  111.56
   1   3  -7  819.81   97.31
   1   3  -7  870.55  101.58
   1   3  -6  673.12   86.33
   1   3  -6  717.77   75.00
   1   3  -5  173.55   30.87
  -1   3   5  188.75   22.67
   1   3  -5  146.19   38.04
   1  -3  -4  657.95   26.68
  -1   3   4  676.40   41.59
   1   3  -4  627.33   76.27
   1   3  -4  675.93   51.72
  -1   3   3 1424.45   58.66
   1  -3  -3 1301.07   31.54
   1   3  -3 1346.92   59.76
   1   3  -2  768.09   38.11
  -1  -3   2  739.14   54.65
  -1   3   2  767.28   41.58
   1   3  -2  681.80   56.99
  -1   3   2  658.03   42.85
   1  -3  -2  760.08   49.25
   1  -3  -1   77.23   15.87
  -1   3   1   78.42    6.49
  -1  -3   1   80.97   17.39
   1   3  -1   83.00   11.51
  -1   3   1   57.22   18.64
   1   3  -1   99.02   18.52
  -1  -3   0  505.17   43.40
  -1   3   0  498.29   17.19
   1  -3   0  498.30   41.38
   1   3   0  522.96   30.29
   1   3   0  507.96   25.71
   1  -3   1  117.46   21.59
   1   3   1  107.26   11.76
  -1   3  -1  112.21   10.69
  -1  -3  -1  112.24   20.72
  -1   3  -1   57.43   22.51
   1   3   1  110.15   16.63
   1   3   2 1822.78   70.27
   1   3   2 1801.59   54.34
  -1   3  -2 1733.34   56.75
  -1   3  -2 1805.25  133.66
  -1   3  -3  504.20   42.23
   1   3   3  507.48   34.46
   1   3   3  459.06   36.46
  -1   3  -3  431.72   65.86
   1   3   4 1696.80   73.19
  -1   3  -4 2005.53  117.12
  -1   3  -4 2046.96  146.75
   1   3   4 1613.22   71.86
  -1   3  -5  116.49   36.29
   1   3   5  125.25   21.56
   1   3   5   99.56   18.93
  -1   3  -6  136.37   40.97
  -1   3  -7  689.56   84.73
  -1   3  -8 1391.64  122.03
  -1   3  -9 2220.98  154.71
  -1   3 -10 2589.33  170.13
  -1   3 -11  366.60   63.97
  -1   3 -12  687.28   88.42
  -1   3 -13  736.68   93.59
  -1   3 -14   57.37   31.90
  -1   3 -15  106.27   38.93
  -1   3 -16  210.20   52.16
  -1   3 -17   47.15   29.48
  -1   3 -18   70.61   35.84
   1   4 -17   75.66   35.57
   1   4 -17  229.19   79.75
   1   4 -16   47.66   32.94
   1   4 -16  279.42   93.47
   1   4 -15   90.33   61.70
   1   4 -15   36.26   28.48
   1   4 -14   -2.24   23.56
   1   4 -14   54.34   32.73
   1   4 -13  114.70   43.86
   1   4 -13   46.98   34.57
   1   4 -12  163.01   51.97
   1   4 -12  161.55   67.07
   1   4 -11 1345.61  202.39
   1   4 -11 1486.73  142.33
   1   4 -10  438.98  108.89
   1   4 -10  491.00   82.87
   1   4  -9  417.66   75.85
   1   4  -9  411.13   88.99
   1   4  -8  445.89   77.52
   1   4  -8  645.85  100.21
   1   4  -7   67.82   24.60
   1   4  -7  146.05   43.28
   1   4  -6   22.51   18.41
   1   4  -6   52.64   22.90
  -1   4   6   29.19   11.87
   1   4  -5   75.96   32.55
   1   4  -5  116.22   25.29
  -1   4   5   92.46   18.73
   1   4  -4  460.37   41.13
  -1  -4   4  390.36   54.60
   1   4  -4  453.72   67.20
  -1   4   4  377.08   35.90
  -1   4   3 1250.33   64.08
   1   4  -3 1281.21   59.14
  -1  -4   3 1272.42   92.12
   1   4  -3 1355.35   99.56
  -1  -4   2  688.45   63.37
   1  -4  -2  654.43   55.48
  -1   4   2  565.10   42.19
   1   4  -2  593.58   54.50
   1   4  -2  653.28   38.50
  -1  -4   1  242.62   38.54
   1  -4  -1  225.74   33.54
   1   4  -1  242.19   27.45
  -1   4   1  207.14   21.62
   1   4  -1  228.85   20.86
  -1  -4   0  140.62   28.92
   1   4   0   95.87   13.22
  -1   4   0   90.94   22.26
   1  -4   0  101.83   23.55
   1  -4   1   98.59   22.36
   1   4   1  113.10   14.72
  -1   4  -1   95.90   28.25
  -1  -4  -1   95.63   22.85
  -1   4  -1  126.15   11.39
   1   4   1  102.51   19.85
  -1   4  -2    4.44    3.35
   1  -4   2    1.07    7.77
   1   4   2    2.06    4.77
   1   4   2   -6.67    6.06
  -1   4  -2   -9.18   16.53
   1  -4   3   61.74   19.05
   1   4   3   69.12   16.72
  -1   4  -3   70.72   12.68
   1   4   3   67.49   13.53
  -1   4  -3   31.73    8.26
   1   4   4  455.36   41.36
  -1   4  -4  512.98   43.19
  -1   4  -4  468.57   82.20
   1   4   4  446.91   42.96
   1   4   5 3261.43  118.17
  -1   4  -5 3256.82  143.35
  -1   4  -6  331.84   70.52
  -1   4  -6  319.37   57.52
   1   4   6  265.61   34.22
  -1   4  -7  312.88   67.00
  -1   4  -7  298.10   70.79
  -1   4  -8   34.58   24.72
  -1   4  -8    9.85   55.66
  -1   4  -9   43.81   27.79
  -1   4  -9 -140.11  101.10
  -1   4 -10 -108.87  101.04
  -1   4 -10   15.66   21.91
  -1   4 -11   81.25   30.64
  -1   4 -11  187.29   55.14
  -1   4 -12  276.24   84.94
  -1   4 -12  380.69   72.81
  -1   4 -13  475.00   79.57
  -1   4 -13  396.04  108.81
  -1   4 -14  192.87   86.07
  -1   4 -14   53.53   29.63
  -1   4 -15   67.16   34.33
  -1   4 -15  194.66   81.04
  -1   4 -16  228.88   86.24
  -1   4 -16   59.30   36.42
  -1   4 -17  258.65   82.10
   1   5 -15  289.88   74.36
   1   5 -14  185.67   62.22
   1   5 -14    1.17   16.85
   1   5 -13   21.73   18.80
   1   5 -13  117.92   54.24
   1   5 -12  196.22   65.34
   1   5 -12  107.83   45.48
   1   5 -11   66.66   47.46
   1   5 -11   36.96   29.33
   1   5 -10   58.04   32.41
   1   5 -10   20.53   28.55
   1   5  -9   56.82   30.67
   1   5  -9   14.50   22.95
  -1  -5   8  194.54   49.65
   1   5  -8  147.35   32.41
   1   5  -8  244.25   67.12
   1   5  -7  254.83   67.97
  -1  -5   7  177.46   45.01
  -1   5   6  174.96   28.78
  -1  -5   6  155.37   43.47
   1   5  -6  192.66   56.34
  -1   5   5   31.05   14.07
   1   5  -5   45.55   23.63
  -1  -5   5   17.24   13.23
  -1  -5   4  209.13   48.15
  -1   5   4  171.80   27.71
  -1   5   3  413.57   42.70
  -1  -5   3  551.26   73.23
  -1  -5   2  226.10   46.55
  -1   5   2  181.26   29.60
  -1  -5   1   33.88   20.43
  -1   5   1    8.76    5.71
   1  -5  -1   16.52   14.98
   1  -5   0  165.50   36.44
   1   5   0  100.12   22.90
  -1  -5   0  160.09   38.07
   1  -5   1   35.78   20.54
   1   5   1   21.38   11.07
   1  -5   2  617.39   72.85
   1   5   2  560.20   52.51
   1   5   3   83.31   21.16
   1  -5   3   96.01   29.06
   1   5   4  457.33   48.50
  -1   5  -4  611.36   99.32
   1  -5   4  484.20   70.03
   1  -5   5   13.00   13.63
   1   5   5   35.09   15.39
  -1   5  -5   27.91   26.46
   1   5   6   34.25   16.00
  -1   5  -6    9.74   11.44
   1  -5   6    5.27   22.87
  -1   5  -7   98.43   40.85
  -1   5  -8  406.48   86.61
  -1   5  -9  895.90  126.01
  -1   5 -10  780.79  113.80
  -1   5 -11  184.53   58.16
  -1   5 -12  275.89   67.25
  -1   5 -13  292.17   71.22
  -1   5 -14   62.07   37.47
  -1   5 -15  101.03   48.02
  -1  -6  11   58.03   25.86
  -1  -6  10   14.25   18.30
  -1  -6   9   49.49   26.00
  -1  -6   8  102.58   43.16
  -1  -6   7   40.31   26.46
  -1  -6   6   29.01   24.15
  -1  -6   5   68.33   37.80
  -1   6   5   20.49   13.80
  -1  -6   4  156.68   53.11
  -1   6   4   91.09   23.91
  -1   6   3  262.91   40.53
  -1  -6   3  407.56   76.30
  -1   6   2  154.30   31.40
   1   6  -2  140.62   31.45
  -1  -6   2  218.17   54.86
   1   6  -1   27.47   12.69
  -1   6   1   64.72   20.72
  -1   6   0   -3.08    8.93
   1   6   0    7.90    8.17
   1   6   1   13.46    7.95
  -1   6  -1   18.02    8.63
   1   6   2    5.82   10.94
   1  -6   2   56.80   32.96
   1   6   3   12.88   10.92
   1  -6   3   66.63   33.75
   1  -6   4  108.41   37.52
   1   6   4  108.68   26.89
   1  -6   5  813.16  100.67
   1   6   5  861.40   76.20
   1  -6   6   27.69   16.00
   1  -6   7   27.65   18.72
   1  -6   8  -25.89   22.37
   1  -6   9  -20.52   18.56
   1  -6  10  -29.77   23.16
   1  -6  11  -32.43   23.19
   1   7  -5  -29.57   25.01
  -1  -7   5   88.16   48.94
   1   7  -4   -1.05   16.37
  -1   7   4   42.21   20.93
  -1   7   3  124.49   35.78
   1   7  -3   53.22   22.65
  -1   7   2   51.11   25.12
   1   7  -2   21.13   14.63
  -1   7   1   22.31   19.43
   1   7  -1   -2.54   11.51
  -1   7   0   19.71   16.00
   1   7   0   21.68   13.69
   1   7   1   11.79   14.02
  -1   7  -1    5.44   11.91
   1   7   2  108.91   34.52
   1  -7   2  153.70   49.45
  -1   7  -2   19.87   10.23
   1   7   3   42.94   22.98
  -1   7  -3   43.19   23.12
   1  -7   3  111.57   44.99
   1   7   4  110.22   33.03
   1  -7   4  142.49   47.07
   2   0 -21  272.23   53.45
   2   0 -20   57.72   23.75
   2   0 -19   29.37   21.20
   2   0 -18   78.20   28.82
   2   0 -17   -3.24    9.11
   2   0 -16  198.76   42.75
   2   0 -15   61.44   26.83
   2   0 -14 1469.86  118.95
   2   0 -13 4520.76  210.56
   2   0 -12  508.39   73.03
   2   0 -11  374.23   62.72
   2   0 -10  -15.43   23.13
   2   0  -9  285.19   51.58
   2   0  -8   30.60   12.56
   2   0  -7 1410.56  105.54
   2   0  -6 6247.44  197.97
   2   0  -5 2879.93  115.14
   2   0  -4 2873.72   96.25
   2   0  -3   32.46    8.74
   2   0  -2    1.23    1.36
  -2   0   1   69.92    6.75
   2   0  -1   72.08    6.77
  -2   0   0 1038.33   25.75
  -2   0   0 1005.33   22.99
   2   0   0 1016.87   25.65
   2   0   1 1780.44   42.65
   2   0   2 3382.79   81.45
   2   0   3 1549.45   69.47
   2   0   4  951.88   66.82
  -2   0  -5 1133.91   67.89
  -2   0  -6  517.94   51.80
  -2   0  -7  391.24   48.80
  -2   0  -8   -3.42   11.33
  -2   0  -9 2752.08  135.91
  -2   0 -10 1002.39   83.56
  -2   0 -11   47.69   18.31
  -2   0 -12   -7.76   13.30
  -2   0 -13   28.36   16.92
  -2   0 -14  518.61   64.17
  -2   0 -15   64.47   25.41
  -2   0 -16  283.31   50.23
  -2   0 -17  434.12   61.98
  -2   0 -18  193.77   44.85
  -2   0 -19  154.38   41.51
  -2   0 -20    7.62   15.83
   2  -1 -20    2.50   12.38
   2   1 -20   16.51   17.89
   2   1 -19   19.74   20.15
   2  -1 -19   -3.33   12.97
   2   1 -18  214.11   47.84
   2  -1 -18  211.77   45.97
   2  -1 -17  305.88   54.42
   2   1 -17  342.56   60.58
   2   1 -16 1182.17  111.96
   2  -1 -16 1120.83  104.55
   2   1 -15   27.09   18.34
   2  -1 -15   22.31   17.28
   2  -1 -14   21.82   12.48
   2   1 -14   46.08   21.34
   2   1 -13  319.64   59.01
   2  -1 -13  322.59   58.62
   2  -1 -12   61.95   30.19
   2   1 -12   57.75   27.45
   2   1 -11   33.90   18.20
   2  -1 -11   19.27   10.19
   2   1 -10 2291.72  151.03
   2  -1 -10 1971.61  149.28
   2   1  -9 3556.83  186.15
   2  -1  -9 3043.81  179.98
   2   1  -8  442.27   62.98
   2  -1  -8  513.04   66.75
   2   1  -7 7042.37  240.54
   2  -1  -7 7290.31  218.95
   2  -1  -6  840.94   62.15
   2   1  -6  771.37   73.30
   2  -1  -5 2287.47   83.79
   2   1  -5 2496.31  116.74
   2   1  -4 1932.26   88.55
   2  -1  -3 2879.65   58.53
  -2   1   3 2792.15   63.83
  -2   1   3 2962.42   66.11
   2   1  -3 3351.46   98.40
   2   1  -3 3247.27   87.20
  -2   1   2 2706.74   53.85
   2   1  -2 2697.07   75.03
  -2   1   2 2718.46   40.72
   2   1  -2 2570.69   63.09
   2  -1  -2 2695.26   51.30
   2  -1  -2 2694.72   41.59
   2  -1  -1 1668.45   38.23
  -2  -1   1 1684.05   45.28
   2   1  -1 1564.86   40.36
   2  -1   0   69.43    8.51
  -2  -1   0   95.37   11.39
   2   1   0   67.98    8.33
  -2  -1   0   70.86    8.48
  -2   1   0   72.90    5.53
   2   1   1 2168.89   54.31
   2   1   1 2167.37   48.43
   2   1   2 3862.74   82.77
   2   1   2 3864.51   75.31
   2   1   3 2727.63   79.64
  -2   1  -4 2803.00  108.23
   2   1   4 2735.63   95.48
  -2  -1  -4 2637.85   78.10
  -2   1  -5  274.96   38.91
  -2  -1  -5  214.45   27.25
   2   1   5  252.90   34.22
  -2   1  -6    9.24    8.31
   2   1   6    7.92   12.43
  -2  -1  -6   -1.32    7.45
  -2  -1  -7 1326.19   79.56
  -2   1  -7 1370.69  102.39
  -2  -1  -8  587.13   54.97
  -2   1  -8  521.38   64.41
  -2  -1  -9 1672.42   95.85
  -2   1  -9 1680.78  118.26
  -2  -1 -10  390.45   47.85
  -2   1 -10  419.78   60.58
  -2   1 -11  103.66   27.89
  -2  -1 -11  106.63   25.10
  -2  -1 -12 1172.86   86.44
  -2   1 -12 1137.74  100.26
  -2  -1 -13  355.61   49.48
  -2   1 -13  392.64   59.31
  -2   1 -14 1055.55  100.01
  -2  -1 -14 1057.14   84.62
  -2   1 -15  627.46   78.49
  -2  -1 -15  664.95   70.85
  -2  -1 -16   32.67   18.71
  -2   1 -16   16.21   17.32
  -2  -1 -17  404.76   60.21
  -2   1 -17  379.61   63.06
  -2  -1 -18  112.55   34.10
  -2   1 -18  116.07   36.69
  -2   1 -19   48.37   31.20
   2   2 -19   47.79   28.71
   2   2 -18   81.72   33.42
   2   2 -17  -10.38   12.76
   2   2 -16  230.91   54.55
   2   2 -15   55.76   30.60
   2   2 -14 1047.65  110.14
   2   2 -13 3046.62  185.53
   2   2 -12  312.23   58.30
   2   2 -11  234.60   49.21
   2   2 -10    4.33    9.72
   2   2  -9  206.27   46.85
   2   2  -8   24.62   17.37
   2   2  -7  906.39   91.59
   2   2  -6 3765.55  178.07
   2   2  -5 1784.97  109.69
   2   2  -5 1749.47   89.78
  -2   2   4 1822.15   56.10
   2  -2  -4 1742.49   55.61
   2   2  -4 1872.08   99.16
  -2   2   4 1790.01   55.06
   2   2  -4 1795.39   77.46
   2   2  -3   22.01   10.88
   2   2  -3   15.66    7.93
   2  -2  -3   16.56    2.96
  -2   2   3   16.83    5.15
  -2  -2   2   -2.82    5.34
   2   2  -2   -0.41    3.75
  -2   2   2    2.44    2.74
   2   2  -2   -3.32    4.87
   2  -2  -2    3.84    3.23
   2  -2  -1   28.32    7.54
   2   2  -1   38.69    9.21
  -2  -2   1   25.30    7.41
   2   2  -1   29.56    6.34
  -2  -2   0  560.79   59.48
   2   2   0  624.10   28.69
  -2   2   0  606.51   16.10
  -2  -2   0  654.20   39.87
  -2   2   0  608.21   17.48
   2   2   1 1362.43   43.30
  -2  -2  -1 1344.32   58.47
  -2   2  -1 1306.28   52.84
   2   2   1 1339.11   51.10
  -2  -2  -1 1360.56   67.46
   2   2   2 2583.19   63.38
   2   2   2 2774.07   77.84
  -2   2  -3  945.13   69.26
   2   2   3 1061.40   51.15
   2   2   3 1061.52   48.91
  -2   2  -4  597.27   61.64
   2   2   4  681.89   44.77
   2   2   4  705.62   46.97
   2   2   5  745.14   55.92
  -2   2  -5  688.74   71.79
   2   2   6  383.57   47.06
  -2   2  -6  294.35   49.18
  -2   2  -7  315.60   51.72
  -2  -2  -7  524.16   51.06
  -2  -2  -8   18.03   12.47
  -2   2  -8   -1.91    9.11
  -2   2  -9 1967.83  137.73
  -2  -2  -9 2822.80  127.43
  -2  -2 -10  863.81   72.00
  -2   2 -10  643.53   78.19
  -2  -2 -11   59.18   18.88
  -2   2 -11   25.76   10.33
  -2   2 -12   -7.01   22.45
  -2  -2 -12   29.78   15.29
  -2  -2 -13   38.69   19.17
  -2   2 -13   40.28   22.64
  -2  -2 -14  445.51   58.36
  -2   2 -14  398.20   67.17
  -2   2 -15   43.62   24.04
  -2   2 -16  267.95   58.38
  -2   2 -17  454.96   74.90
  -2   2 -18  134.80   43.65
  -2   2 -19  110.49   40.41
   2   3 -19   84.93   49.94
   2   3 -18  124.17   42.32
   2   3 -18  252.89   74.24
   2   3 -17  402.53   96.98
   2   3 -17  222.86   55.21
   2   3 -16  642.43   93.16
   2   3 -16  920.94  141.96
   2   3 -15  111.67   63.62
   2   3 -15   45.62   33.59
   2   3 -14   63.84   50.64
   2   3 -14   35.56   24.81
   2   3 -13   80.18   43.37
   2   3 -13  172.01   46.16
   2   3 -12   21.25   20.49
   2   3 -12  -55.09   55.70
   2   3 -11  -42.80   48.94
   2   3 -11    7.10   19.64
   2   3 -10  836.68  121.52
   2   3 -10 1012.20  112.18
   2   3  -9 1317.80  138.92
   2   3  -9 1411.92  131.11
   2   3  -8  137.23   36.03
   2   3  -8  156.63   42.49
   2   3  -7 3278.34  166.01
   2   3  -7 3481.52  197.63
   2   3  -6  343.31   47.13
   2   3  -6  320.54   56.50
  -2   3   5 1334.27   58.01
   2   3  -5 1292.93   78.69
   2  -3  -5 1276.85   37.14
   2   3  -5 1455.69  111.42
  -2   3   5 1333.83   56.78
   2   3  -4  843.58   76.75
   2   3  -4  938.09   57.41
  -2   3   4  813.16   32.26
  -2   3   4  954.69   46.63
  -2  -3   3 1932.86   94.21
  -2   3   3 2000.95   66.23
   2   3  -3 2034.23  101.35
   2  -3  -3 1885.86   77.03
   2   3  -3 1820.38   71.29
   2   3  -2 1712.98   78.38
  -2   3   2 1685.47   59.37
   2  -3  -2 1724.99   73.64
   2   3  -2 1660.28   59.37
  -2  -3   2 1771.90   85.18
  -2  -3   1  801.72   55.46
   2   3  -1  808.68   44.65
   2  -3  -1  760.07   48.62
   2   3  -1  785.49   38.11
  -2   3   0   25.72   14.54
   2  -3   0    8.03    6.05
  -2  -3   0   29.73   11.65
   2   3   0   11.15    4.65
   2   3   1 1102.28   56.42
   2   3   1 1128.81   43.82
  -2   3  -1 1056.42   85.83
  -2  -3  -1 1195.72   66.71
  -2   3  -1 1114.42   31.60
  -2   3  -1 1210.00   51.02
   2   3   2 2558.20   70.75
  -2   3  -2 2262.69   73.52
  -2   3  -2 2532.31  144.35
   2   3   2 2513.74   86.76
   2   3   3 1301.84   63.55
  -2   3  -3 1196.74  105.37
   2   3   3 1439.00   61.38
   2   3   4 1464.81   70.26
   2   3   4 1426.60   70.74
   2   3   5   89.31   18.76
  -2   3  -5   60.34   19.57
   2   3   5   96.89   20.35
   2   3   6   -1.62   16.12
  -2   3  -6   -5.49   11.92
  -2   3  -7  651.17   82.24
  -2   3  -8  410.21   67.14
  -2   3  -9  941.17  100.38
  -2   3 -10  185.02   45.05
  -2   3 -11   45.77   21.35
  -2   3 -12  618.44   87.90
  -2   3 -13  164.93   43.74
  -2   3 -14  589.05   86.05
  -2   3 -15  344.75   68.76
  -2   3 -16   48.53   28.44
  -2   3 -17  215.82   56.17
  -2   3 -18  104.74   42.08
   2   4 -17   27.76   24.99
   2   4 -17  151.65   68.71
   2   4 -16   77.87   39.42
   2   4 -16  109.29   59.97
   2   4 -15   10.72   25.90
   2   4 -15   18.62   20.79
   2   4 -14  161.47   63.89
   2   4 -14  426.41   80.99
   2   4 -13 1356.03  142.56
   2   4 -13  887.72  158.71
   2   4 -12  154.76   53.16
   2   4 -12  101.04   54.40
   2   4 -11  161.22   52.78
   2   4 -11  101.48   52.00
   2   4 -10   25.79   29.79
   2   4 -10  -21.08   30.08
   2   4  -9   78.51   40.26
   2   4  -9   17.52   14.28
   2   4  -8   36.12   27.58
   2   4  -8  -16.79   30.87
   2   4  -7  408.08   61.52
   2   4  -7  396.94   75.08
   2   4  -6 1442.86  134.11
  -2   4   6 1280.34   67.41
   2   4  -6 1421.07   96.52
  -2   4   5  626.05   45.89
  -2  -4   5  703.04   77.56
   2   4  -5  770.17   62.33
   2   4  -5  752.13   86.49
   2   4  -4  768.60   76.69
   2   4  -4  791.11   54.82
  -2   4   4  698.98   46.72
  -2  -4   4  768.65   74.62
   2   4  -3   -1.25    5.93
  -2   4   3    6.76    6.66
   2  -4  -3    5.97    7.38
  -2  -4   3    4.30    9.28
   2   4  -3   10.69    8.00
  -2  -4   2    7.87   12.12
  -2   4   2    1.26    3.98
   2   4  -2    6.80    8.95
   2   4  -2    1.29    3.25
   2  -4  -2   12.57   11.47
  -2   4   2   -0.33    7.16
   2  -4  -1    2.49    6.35
   2   4  -1    4.14    4.25
  -2  -4   1   14.26   13.35
  -2   4   0  160.57   46.63
  -2  -4   0  215.50   35.46
   2  -4   0  205.66   32.67
   2   4   0  203.11   21.59
   2  -4   1  493.48   52.61
   2   4   1  412.25   40.09
   2   4   1  473.01   33.13
  -2  -4  -1  524.58   53.80
   2   4   2 1200.88   69.41
   2  -4   2 1261.95   88.35
   2   4   2 1308.59   59.31
  -2   4  -2 1279.65   40.24
  -2   4  -2 1191.56  135.31
  -2   4  -3  376.16   28.70
   2   4   3  333.07   37.00
  -2   4  -3  451.52   83.36
   2   4   3  453.59   38.30
  -2   4  -4  321.00   36.89
   2   4   4  291.69   36.31
  -2   4  -4  311.01   69.63
   2   4   4  292.43   33.70
   2   4   5  214.52   32.68
  -2   4  -5  273.25   63.83
   2   4   5  184.64   29.80
  -2   4  -5  258.34   42.73
  -2   4  -6  189.42   53.88
  -2   4  -6  114.27   32.63
  -2   4  -7  278.18   64.56
  -2   4  -7  171.61   36.80
  -2   4  -8    1.49   13.65
  -2   4  -9  983.39  118.11
  -2   4 -10  275.18   60.25
  -2   4 -11   30.68   27.40
  -2   4 -12    2.05   12.42
  -2   4 -13   19.85   20.65
  -2   4 -14  158.37   48.45
  -2   4 -15   29.61   28.31
  -2   4 -16  157.41   49.37
  -2   4 -17  526.15  111.08
   2   5 -15  -82.30   49.78
   2   5 -15   14.37   25.15
   2   5 -14   -7.54   13.05
   2   5 -14   15.20   27.70
   2   5 -13   85.71   44.27
   2   5 -13   -4.47   16.99
   2   5 -12   62.12   40.01
   2   5 -12   44.86   35.09
   2   5 -11    0.69   21.87
   2   5 -11   62.50   39.31
   2   5 -10  193.02   62.03
   2   5 -10  289.98   65.38
  -2  -5  10  175.80   52.48
   2   5  -9  243.22   50.04
   2   5  -9  386.97   88.17
  -2  -5   9  320.05   71.97
  -2  -5   8   15.91   32.82
   2   5  -8   58.34   39.62
   2   5  -8   15.43    8.26
   2   5  -7 1330.62  146.85
   2   5  -7 1050.54   83.57
  -2  -5   7 1240.01  139.43
   2   5  -6  109.32   24.70
   2   5  -6   71.66   27.06
  -2  -5   6   84.15   29.32
  -2   5   6   90.02   20.71
  -2   5   5  367.98   39.63
   2   5  -5  475.56   68.81
  -2  -5   5  480.57   74.64
  -2   5   4  174.50   27.26
  -2  -5   4  229.90   50.65
  -2  -5   3  724.65   82.23
  -2   5   3  591.29   49.72
  -2   5   2  626.06   51.28
  -2  -5   2  694.46   79.84
   2  -5  -2  707.65   67.35
  -2   5   1  181.16   28.35
   2   5  -1  145.00   28.53
  -2  -5   1  216.89   43.98
   2  -5  -1  197.70   37.79
   2   5   0   -4.67    8.92
  -2  -5   0   30.59   21.71
   2  -5   0   12.97   16.75
   2  -5   1  373.71   54.56
   2   5   1  290.11   39.38
   2  -5   2 1011.05   91.59
   2   5   2  893.13   68.96
   2   5   3  394.75   45.86
   2  -5   3  328.32   53.37
  -2   5  -3  441.50   91.28
   2   5   4  373.11   46.13
  -2   5  -4  287.40   74.42
   2  -5   4  352.05   56.24
   2  -5   5  -23.59   24.33
   2   5   5   42.51   17.71
  -2   5  -5   21.23   21.81
  -2   5  -6   25.85   31.72
  -2   5  -7  228.14   70.20
  -2   5  -8   64.34   36.81
  -2   5  -9  409.48   88.40
  -2   5 -10   57.62   37.49
  -2   5 -11   61.68   39.19
  -2   5 -12  223.15   65.05
  -2   5 -13  130.55   49.02
  -2   5 -14  282.87   71.65
  -2  -6  11  -56.77   45.68
  -2  -6  10  -50.29   44.14
  -2  -6   9    3.70   15.97
  -2  -6   8   30.18   39.64
  -2  -6   7  132.69   53.82
  -2  -6   6  418.64   91.80
  -2   6   5  169.76   31.96
  -2  -6   5  280.64   71.86
  -2   6   4  199.00   34.11
  -2  -6   4  275.22   71.01
  -2   6   3    1.10    8.35
  -2  -6   3   31.05   30.55
  -2   6   2    7.01    7.90
   2   6  -2  -13.71   20.16
   2   6  -1  -10.72   12.87
  -2   6   1   -0.38    9.31
  -2  -6   1   60.53   36.55
   2  -6  -1   48.30   26.91
   2   6   0   51.47   20.44
   2  -6   0   77.88   30.75
  -2   6   0   19.22   10.21
   2   6   1   98.72   28.17
  -2   6  -1  100.01   25.30
   2  -6   1  119.30   38.10
   2   6   2  290.50   46.05
   2  -6   2  342.11   63.16
   2   6   3   87.25   25.47
   2  -6   3   89.80   35.50
   2   6   4   92.23   27.44
   2  -6   4   36.78   18.96
   2   6   5   48.58   20.20
   2  -6   5   35.91   20.74
   2  -6   6    5.51   11.82
   2  -6   7   -8.17   16.24
   2  -6   8  -26.31   20.96
   2  -6   9   25.35    9.68
   2  -6  10  -37.86   21.66
   2   7  -5    2.55   20.98
  -2  -7   5  252.63   83.24
   2   7  -4    3.26   19.03
  -2  -7   4   97.38   53.94
   2   7  -3   65.16   23.83
  -2   7   3  133.48   35.13
  -2   7   2  185.22   41.70
   2   7  -2  130.64   39.29
   2   7  -1   41.45   24.09
  -2   7   1   31.42   18.01
   2   7   0    7.62   10.66
  -2   7   0   -0.64    9.15
   2   7   1   90.09   32.76
   2  -7   1  108.44   40.93
  -2   7  -1   36.67   16.92
   2  -7   2  222.73   55.04
   2   7   2  236.85   50.54
  -2   7  -2  121.60   30.24
  -2   7  -3   33.50   15.69
   2   7   3   78.57   29.15
  -2   7  -4   16.42    6.37
   2   7   4   70.98   30.53
   3   0 -21   -0.46   10.05
   3   0 -20   13.47   17.09
   3   0 -19    8.06   10.94
   3   0 -18    5.22   12.67
   3   0 -17  206.64   47.01
   3   0 -16  621.41   80.69
   3   0 -15   71.23   29.57
   3   0 -14  102.92   35.54
   3   0 -13  692.20   90.94
   3   0 -12    5.68   17.74
   3   0 -11  131.28   43.10
   3   0 -10 1367.13  125.74
   3   0  -9 4907.26  226.34
   3   0  -8 2625.11  152.05
   3   0  -7  344.47   49.00
   3   0  -6   77.30   20.76
   3   0  -5  266.49   32.73
   3   0  -4  912.34   53.60
   3   0  -4  944.03   50.76
   3   0  -3  394.49   26.82
   3   0  -2 1679.38   44.51
   3   0  -1 2898.85   38.45
   3   0  -1 2755.65   52.60
  -3   0   0  507.25   19.27
   3   0   0  467.35   21.88
  -3   0   0  501.36   21.71
   3   0   1  658.95   29.36
   3   0   2 2192.44   67.34
   3   0   3 2066.53   79.42
   3   0   4   12.10    7.48
   3   0   5 1656.57   99.82
  -3   0  -6 6042.01  170.62
  -3   0  -7 3545.07  144.75
  -3   0  -8   19.95   11.52
  -3   0  -9   34.93    6.39
  -3   0 -10  239.90   42.63
  -3   0 -11  682.11   73.19
  -3   0 -12  526.18   62.61
  -3   0 -13  -11.70   16.83
  -3   0 -14 1881.38  126.48
  -3   0 -15   15.29   12.81
  -3   0 -16   71.86   27.86
  -3   0 -17   31.42   20.23
  -3   0 -18   38.90   25.33
  -3   0 -19  116.06   36.93
  -3   0 -20   93.18   35.23
   3   1 -20   50.21   23.77
   3   1 -19   57.05   29.71
   3   1 -18   86.24   31.57
   3  -1 -18   53.40   21.04
   3  -1 -17   31.08   17.12
   3   1 -17   51.22   24.20
   3  -1 -16  499.02   74.51
   3   1 -16  503.34   76.32
   3  -1 -15  392.30   66.73
   3   1 -15  391.90   69.26
   3  -1 -14 1110.35  116.42
   3   1 -14 1174.44  118.45
   3  -1 -13  217.87   51.22
   3   1 -13  377.60   68.40
   3  -1 -12 1509.03  141.63
   3   1 -12 1923.28  153.54
   3   1 -11 3604.08  206.67
   3  -1 -11 2982.77  198.20
   3  -1 -10   94.41   31.89
   3   1 -10   77.21   31.66
   3  -1  -9  122.40   35.59
   3   1  -9   82.82   28.97
   3   1  -8 2305.73  145.89
   3  -1  -8 2413.63  134.31
   3   1  -7  778.44   77.18
   3  -1  -7  767.29   64.23
   3   1  -6  444.36   52.13
   3   1  -5 1155.42   72.71
   3   1  -5 1269.20   71.40
   3   1  -4 3733.83  114.51
   3  -1  -4 3257.60   72.11
   3   1  -4 3725.85  105.49
  -3   1   4 3077.04   70.09
   3  -1  -3  603.24   20.76
   3  -1  -3  594.83   26.92
   3   1  -3  595.11   36.41
   3   1  -3  524.03   38.92
  -3   1   3  586.54   25.63
  -3   1   2 4395.23   65.83
   3  -1  -2 4620.87   61.37
   3   1  -2 4420.68   85.14
   3  -1  -2 4404.35   55.23
  -3   1   2 4611.60   43.67
  -3  -1   2 4437.46   79.21
   3   1  -1 1255.05   41.01
  -3   1   1 1197.80   25.26
  -3  -1   1 1233.94   42.43
   3  -1  -1 1293.69   29.05
   3   1   0 2964.62   62.58
   3   1   0 3071.76   64.09
   3  -1   0 3031.26   58.80
   3  -1   1 2945.10   79.93
   3   1   1 2961.73   65.97
   3   1   1 2807.06   68.01
   3   1   2 2680.62   76.33
   3   1   2 2751.56   67.93
   3   1   3 1692.05   65.42
   3   1   4 1394.42   68.89
  -3   1  -5  275.76   37.82
   3   1   5  325.29   38.18
   3   1   6 1836.13  105.29
  -3  -1  -6 1529.84   78.52
  -3   1  -6 1677.86  100.48
  -3   1  -7 1211.57   94.47
   3   1   7 1201.75   94.01
  -3  -1  -7 1062.80   72.74
  -3   1  -8 1571.49  112.36
  -3  -1  -8 1259.47   82.83
  -3   1  -9 1752.26  124.86
  -3  -1  -9 1748.67  100.40
  -3  -1 -10  277.37   40.50
  -3   1 -10  294.51   51.30
  -3  -1 -11  221.68   36.98
  -3   1 -11  263.29   49.44
  -3   1 -12  386.50   58.89
  -3  -1 -12  384.90   51.24
  -3  -1 -13   55.38   20.55
  -3   1 -13   12.64   18.79
  -3   1 -14    4.54   13.93
  -3  -1 -14   12.38   14.65
  -3   1 -15  188.26   44.51
  -3  -1 -15  206.64   41.44
  -3  -1 -16   34.99   19.43
  -3   1 -16   32.17   21.08
  -3  -1 -17  388.45   60.56
  -3   1 -17  362.85   63.72
  -3  -1 -18  110.82   37.52
  -3   1 -18   79.70   33.73
  -3   1 -19   97.10   35.12
   3   2 -20  -11.63   14.33
   3   2 -20  111.42   51.15
   3   2 -19   22.32   21.95
   3   2 -19  145.08   55.95
   3   2 -18   32.79   26.52
   3   2 -18  166.56   65.37
   3   2 -17  182.58   48.08
   3   2 -16  536.77   83.60
   3   2 -15   74.55   36.70
   3   2 -14  105.70   40.41
   3   2 -13  563.14   87.73
   3   2 -12   27.76   25.16
   3   2 -11   91.41   31.25
   3   2 -10  911.38  102.89
   3   2  -9 3124.69  189.66
   3   2  -8 1477.01  122.76
   3   2  -8 1429.88  114.37
   3   2  -7  129.40   27.96
   3   2  -7  173.43   38.53
   3   2  -6   37.62   17.65
   3   2  -6   33.11   12.90
   3   2  -5  175.31   26.88
   3   2  -5  139.34   27.62
   3   2  -4  518.09   46.61
   3  -2  -4  614.39   26.51
  -3   2   4  598.51   29.88
   3   2  -4  619.50   44.75
   3  -2  -4  590.95   41.36
   3   2  -3  302.17   27.17
  -3  -2   3  282.04   29.33
  -3   2   3  291.51   18.92
   3  -2  -3  320.56   24.76
   3   2  -3  241.41   28.72
   3   2  -2 1310.05   50.89
   3  -2  -2 1304.26   48.62
   3   2  -2 1333.42   59.95
  -3  -2   2 1362.12   60.30
   3  -2  -1 2222.16   65.27
   3   2  -1 2295.29   64.09
  -3  -2   1 2412.83   80.10
   3   2   0  345.58   23.77
  -3   2   0  310.09   11.87
  -3  -2   0  352.57   31.16
   3   2   1  440.46   31.05
   3   2   1  446.26   27.88
  -3   2  -1  422.07   23.11
   3   2   2 1298.58   49.84
   3   2   2 1094.93   51.99
   3   2   3 1366.10   62.40
   3   2   3 1354.72   57.53
   3   2   4   -0.28    6.11
  -3  -2  -4   14.48    6.33
   3   2   4    2.48    5.43
  -3   2  -5 1054.07   85.51
   3   2   5 1153.01   69.68
  -3   2  -6 4612.07  191.56
   3   2   6 4211.83  152.07
  -3  -2  -6 4236.67  121.39
  -3   2  -7 2452.27  151.63
   3   2   7 2608.10  136.14
  -3  -2  -8   32.56   13.14
  -3   2  -8   24.10   11.27
  -3  -2  -9   75.25   20.63
  -3   2  -9   36.88   17.90
  -3   2 -10  178.90   43.08
  -3  -2 -10  208.18   33.38
  -3   2 -11  570.11   78.46
  -3  -2 -11  668.39   63.38
  -3  -2 -12  535.33   58.53
  -3   2 -12  434.29   67.78
  -3   2 -13   -5.04   20.45
  -3  -2 -13    9.91   11.71
  -3  -2 -14 1771.73  112.43
  -3   2 -14 1519.20  133.73
  -3   2 -15   -2.37   10.95
  -3   2 -16   17.25   16.53
  -3   2 -17   48.33   26.61
  -3   2 -18   58.03   31.71
   3   3 -19  137.70   56.88
   3   3 -18   65.23   34.75
   3   3 -18  117.24   59.51
   3   3 -17  115.04   58.27
   3   3 -17   46.09   30.19
   3   3 -16  322.91   68.22
   3   3 -16  392.74   94.68
   3   3 -15  211.45   70.98
   3   3 -15  225.20   57.38
   3   3 -14  565.74   88.07
   3   3 -14  353.11   84.18
   3   3 -13   74.47   35.88
   3   3 -13  181.84   50.81
   3   3 -12  529.58   98.26
   3   3 -12  846.36  109.82
   3   3 -11 1607.56  149.39
   3   3 -11 1163.19  139.51
   3   3 -10  -11.61   28.07
   3   3 -10   52.04   25.34
   3   3  -9   44.59   18.93
   3   3  -9   40.19   18.25
   3   3  -8  995.69  110.66
   3   3  -8  959.58   93.18
   3   3  -7  285.86   53.10
   3   3  -7  289.11   45.66
   3   3  -6  187.38   40.51
   3   3  -6  181.87   31.70
   3  -3  -6  176.85   18.26
   3   3  -5  578.06   50.61
  -3   3   5  577.83   36.48
   3   3  -5  610.48   64.85
  -3  -3   4 2069.28   99.80
  -3   3   4 1922.57   63.35
   3   3  -4 2087.31   86.12
   3   3  -3  186.24   22.78
   3  -3  -3  182.04   23.35
  -3   3   3  172.70   18.44
   3   3  -3  187.07   28.72
  -3  -3   3  186.35   28.25
   3  -3  -2 2903.61   93.47
   3   3  -2 2935.09   85.81
   3   3  -2 3245.54  102.55
  -3  -3   2 3030.90  114.12
   3   3  -1  528.15   34.08
  -3  -3   1  587.61   48.39
   3  -3  -1  505.67   39.44
   3  -3   0 1783.92   78.73
   3   3   0 1873.92   61.42
  -3  -3   0 2019.00   90.28
  -3  -3   0 1951.41   96.72
  -3   3  -1 1672.13   43.11
   3   3   1 1664.93   71.49
   3   3   1 1689.92   59.78
  -3   3  -1 1730.30   39.77
   3   3   2 1582.63   71.97
   3   3   2 1581.91   60.25
  -3   3  -3  857.29   82.10
   3   3   3  834.06   53.84
   3   3   3  873.24   50.06
  -3   3  -4  592.34   73.46
   3   3   4  520.03   44.77
   3   3   4  542.31   44.00
   3   3   5  159.73   26.47
  -3   3  -5  126.90   37.62
   3   3   5  168.76   28.22
  -3   3  -6  752.32   90.34
   3   3   6  780.82   66.18
  -3   3  -7  529.83   77.13
   3   3   7  585.58   63.99
  -3   3  -8  865.14   98.58
  -3   3  -9  975.71  108.55
  -3   3 -10  210.44   48.17
  -3   3 -11  108.85   33.69
  -3   3 -12  159.85   43.13
  -3   3 -13    8.95   14.79
  -3   3 -14   26.39   25.28
  -3   3 -15   83.52   30.30
  -3   3 -16   -2.81   12.86
  -3   3 -17  178.16   52.47
   3   4 -17  102.68   44.26
   3   4 -17   56.54   41.07
   3   4 -16  279.75   65.65
   3   4 -16  194.89   69.59
   3   4 -15   62.04   38.40
   3   4 -15   21.80   19.47
   3   4 -14   30.95   30.04
   3   4 -14   70.81   37.44
   3   4 -13  192.45   59.01
   3   4 -13   80.26   50.27
   3   4 -12    5.03   22.44
   3   4 -12   11.55   24.78
   3   4 -11   43.06   32.57
   3   4 -11   56.71   39.01
   3   4 -10  309.39   75.41
   3   4 -10  255.27   65.20
   3   4  -9 1251.51  130.72
   3   4  -9 1190.08  137.98
   3   4  -8  541.01   90.54
   3   4  -8  659.97   83.61
   3   4  -7  116.93   34.23
   3   4  -7   72.55   32.61
  -3  -4   7   38.74   14.63
   3   4  -6  -26.31   18.38
  -3  -4   6  -12.57   19.75
   3   4  -6    9.45   13.30
  -3   4   6    6.64    6.22
   3   4  -5   59.10   16.32
   3   4  -5   71.79   25.48
  -3   4   5   63.59   14.26
  -3  -4   5   82.29   24.73
  -3   4   4  169.39   21.84
   3   4  -4  194.12   36.02
   3   4  -4  196.50   28.54
  -3  -4   4  138.69   30.54
   3  -4  -3  118.26   23.57
  -3   4   3  124.73   36.43
   3   4  -3  138.62   26.84
   3   4  -3  124.94   21.25
  -3  -4   3  101.57   26.29
  -3   4   3  100.95   17.40
   3   4  -2  494.01   38.41
  -3   4   2  424.05   34.77
   3  -4  -2  518.60   47.73
  -3  -4   2  507.80   56.23
   3  -4  -1  934.69   65.70
  -3  -4   1  926.85   74.53
   3   4  -1  922.43   49.74
  -3  -4   0  177.28   33.23
   3  -4   0  157.62   28.99
   3   4   0  123.40   22.79
   3   4   0  152.82   20.45
  -3   4   0  125.49   41.27
   3   4   1  170.36   22.00
   3  -4   1  131.96   27.34
  -3   4  -1  103.78   39.78
   3   4   1  145.37   25.18
   3  -4   2  572.64   60.10
  -3   4  -2  448.09   81.01
   3   4   2  550.85   48.57
   3   4   2  602.41   43.28
   3   4   3  456.02   44.69
  -3   4  -3  390.77   74.54
  -3   4  -3  481.73   33.31
   3   4   3  465.04   41.68
  -3   4  -4    0.15    6.07
   3   4   4   12.11   10.44
   3   4   4   13.49    9.96
  -3   4  -4  -10.97   25.88
   3   4   5  423.30   45.65
   3   4   5  370.79   44.12
  -3   4  -5  478.99   66.59
  -3   4  -5  490.32   84.49
  -3   4  -6 2556.85  193.32
   3   4   6 1921.32  113.39
  -3   4  -7 1446.02  144.63
  -3   4  -8  -10.68   18.85
  -3   4  -9   48.62   28.56
  -3   4 -10   45.82   26.46
  -3   4 -11  292.57   67.48
  -3   4 -12  202.47   53.84
  -3   4 -13    4.72   14.91
  -3   4 -14  698.40  103.57
  -3   4 -15   62.01   40.97
  -3   4 -16   18.01   22.21
   3   5 -15  -12.75   34.95
   3   5 -15   18.74   21.22
   3   5 -14  143.07   52.31
   3   5 -14   64.12   36.46
   3   5 -13   38.01   37.84
   3   5 -13   41.61   31.00
   3   5 -12  181.53   65.20
   3   5 -12  151.18   56.12
   3   5 -11  262.45   66.78
  -3  -5  11  241.77   67.79
   3   5 -11  262.99   71.90
   3   5 -10  -17.10   34.88
   3   5 -10   14.37   18.34
  -3  -5  10  -78.88   60.65
   3   5  -9    6.92   12.78
  -3  -5   9  -31.32   41.38
   3   5  -9  -30.43   29.05
  -3  -5   8  312.07   72.65
   3   5  -8  298.65   51.30
   3   5  -8  355.56   79.04
   3   5  -7   55.16   19.63
   3   5  -7   53.84   30.79
  -3  -5   7   74.13   35.54
   3   5  -6   31.73   15.01
   3   5  -6   73.83   32.41
  -3   5   6   29.14   10.18
  -3  -5   6   24.24   18.97
  -3  -5   5  228.27   52.29
  -3   5   5  174.15   26.29
   3   5  -5  239.64   35.13
  -3   5   4  655.20   50.42
  -3  -5   4  748.97   88.03
   3   5  -4  741.32   56.77
  -3   5   3   19.11    8.09
   3   5  -3   20.82    9.69
  -3  -5   3   50.27   27.19
  -3   5   2 1100.66   67.44
  -3  -5   2 1295.81  105.93
   3  -5  -2 1238.61   87.91
  -3   5   1  139.73   24.84
  -3  -5   1  155.10   38.70
   3  -5  -1  165.70   32.90
   3   5  -1  147.36   29.46
   3   5   0  685.46   63.28
   3  -5   0  789.93   75.30
   3  -5   1  550.31   64.36
   3   5   1  485.82   52.74
   3   5   2  457.95   49.22
   3  -5   2  479.13   62.90
   3   5   3  289.97   42.41
   3  -5   3  248.85   43.71
  -3   5  -3  266.23   82.67
  -3   5  -4  141.82   58.58
   3  -5   4   81.87   21.38
   3   5   4  112.08   27.78
   3  -5   5   33.86   12.63
   3   5   5   62.49   21.35
  -3   5  -6  333.82   88.49
  -3   5  -7  365.68   88.92
  -3   5  -8  396.53   89.77
  -3   5  -9  453.79   93.93
  -3   5 -10   84.53   42.51
  -3   5 -11   81.99   45.90
  -3   5 -12   64.17   33.35
  -3   5 -13   20.35   25.25
  -3   5 -14   35.72   28.38
  -3  -6  11  -12.49   21.24
  -3  -6  10   48.37   39.66
  -3  -6   9  239.40   81.14
  -3  -6   8  296.49   87.42
  -3  -6   7  108.68   56.49
  -3  -6   6   59.93   42.89
  -3   6   5   25.21   14.03
  -3  -6   5   88.16   45.87
  -3   6   4   23.11   12.26
  -3  -6   4   94.79   45.66
  -3   6   3   32.35   15.64
   3   6  -3   -8.62   17.73
  -3  -6   2  172.08   49.15
   3   6  -2   78.36   25.55
  -3   6   2  124.66   27.29
   3  -6  -1  242.51   49.43
   3   6  -1  216.42   42.91
  -3   6   1  187.07   34.89
   3  -6   0   70.43   28.74
  -3   6   0   24.43   10.00
   3   6   0   51.36   23.66
  -3   6  -1    3.38   12.13
   3  -6   1   77.93   28.95
   3   6   1   44.61   21.80
   3  -6   2  172.55   43.88
   3   6   2  137.87   33.58
   3  -6   3  119.38   37.51
   3   6   3  105.91   29.82
   3  -6   4    4.71    8.95
   3   6   4    7.76   13.41
   3   6   5  108.64   30.02
   3  -6   5   55.60   22.42
   3  -6   6  223.81   41.57
   3  -6   7   79.41   22.19
   3  -6   8  -14.68   14.02
   3  -6   9  -34.28   19.48
   3  -6  10  -29.30   19.62
   3   7  -5   10.76   20.78
  -3  -7   4  271.65   80.60
   3   7  -4   70.74   25.06
   3   7  -3  -24.65   21.76
   3   7  -2  202.84   46.51
   3   7  -1   17.72   17.87
   3   7   0  150.81   41.37
  -3   7   0  151.53   37.53
   3   7   1   93.99   34.83
  -3   7  -1   53.03   21.19
   3  -7   1  142.89   44.70
  -3   7  -2   71.58   22.97
   3   7   2  118.51   37.33
   3  -7   2   63.98   28.53
  -3   7  -3    7.38   10.75
   3   7   3   47.98   22.46
   3  -7   4   47.42   27.74
   3   7   4   17.16   17.14
   4   0 -21   83.05   43.29
   4   0 -20  171.08   42.87
   4   0 -19  250.00   51.55
   4   0 -18  207.22   47.52
   4   0 -17   73.75   29.83
   4   0 -16   67.71   31.17
   4   0 -15   60.10   27.01
   4   0 -14  655.31   91.61
   4   0 -13   71.59   28.73
   4   0 -12 3011.00  203.45
   4   0 -11  198.65   50.50
   4   0 -10  342.71   63.34
   4   0  -9  928.46   95.46
   4   0  -8  198.12   39.95
   4   0  -7  243.88   39.07
   4   0  -6   81.14   17.25
   4   0  -6   94.19   22.47
   4   0  -5 4466.26  119.27
   4   0  -4 7358.34  133.15
   4   0  -3  113.57   14.36
   4   0  -2 1634.80   47.64
   4   0  -1 2065.77   53.00
   4   0  -1 2148.89   44.72
   4   0   0  276.08   19.90
  -4   0   0  296.79   16.30
   4   0   1 1011.79   40.91
   4   0   2  441.02   31.85
   4   0   3 2575.23   91.34
   4   0   4 3104.24  115.57
   4   0   5  664.61   62.08
   4   0   6   91.39   22.42
  -4   0  -7  843.43   69.72
  -4   0  -8 1970.09  115.93
  -4   0  -9   -1.12   11.92
  -4   0 -10  454.56   59.88
  -4   0 -11 2413.74  141.99
  -4   0 -12 1183.93  101.04
  -4   0 -13  132.43   32.16
  -4   0 -14  -36.22   24.67
  -4   0 -15  -34.40   26.51
  -4   0 -16   52.39   19.55
  -4   0 -17   68.65   25.36
  -4   0 -18    0.79   13.90
  -4   0 -19  441.08   69.81
   4  -1 -21   64.05   37.88
   4   1 -20  292.31   70.16
   4   1 -20  101.95   34.47
   4   1 -19   78.36   29.38
   4   1 -19  219.26   61.76
   4   1 -18  182.18   46.80
   4   1 -17  316.85   63.04
   4   1 -16   86.54   33.80
   4  -1 -16   92.26   26.82
   4  -1 -15  315.41   62.79
   4   1 -15  420.33   74.38
   4  -1 -14  -53.52   43.37
   4   1 -14   19.76   16.86
   4  -1 -13  480.70   78.72
   4   1 -13  669.84   95.69
   4   1 -12  360.43   71.82
   4  -1 -12  198.10   49.09
   4  -1 -11 1895.00  156.99
   4   1 -11 2076.32  164.60
   4   1 -10    3.22   13.69
   4   1  -9 3256.98  180.55
   4   1  -8  193.05   41.38
   4   1  -7 2206.99  114.25
   4   1  -7 2214.06  120.19
   4   1  -6 1139.32   72.65
   4   1  -6 1097.80   76.23
   4   1  -5  397.94   38.42
   4  -1  -5  330.94   28.66
   4  -1  -5  350.81   24.80
   4   1  -5  343.92   38.72
  -4   1   5  363.56   24.59
   4   1  -4    2.71    6.45
   4  -1  -4    0.39    2.14
   4   1  -4   12.69    9.96
   4  -1  -4    6.34    2.77
  -4   1   4    3.05    2.26
  -4  -1   3 2481.82   62.22
   4  -1  -3 2299.44   53.60
   4   1  -3 2383.14   73.18
  -4   1   2 1543.89   38.99
   4   1  -2 1493.37   52.74
   4  -1  -2 1579.44   39.87
  -4  -1   2 1571.10   49.60
   4  -1  -2 1556.51   33.49
   4  -1  -1 3526.45   61.41
   4   1  -1 3497.76   77.11
   4   1   0 1732.80   53.83
   4  -1   0 1762.71   50.06
   4   1   0 1723.27   53.20
   4   1   1 3070.23   78.94
   4  -1   1 3092.46   84.54
   4   1   1 3183.76   77.21
   4  -1   2   16.58    9.25
   4   1   2   14.66    6.17
   4   1   2    9.82    3.32
   4  -1   3 1263.75   80.20
   4   1   3 1227.13   58.12
   4   1   4   17.16    4.17
   4  -1   4   -1.08   16.55
   4   1   5 1009.86   68.53
   4   1   6 2241.63  115.19
  -4   1  -7  929.73   81.85
   4   1   7 1006.12   87.43
  -4  -1  -7  881.26   66.42
  -4  -1  -8    3.71    4.32
  -4   1  -8   11.71   11.33
  -4   1  -9  282.48   50.74
  -4  -1  -9  218.21   37.39
  -4   1 -10  504.20   68.66
  -4  -1 -10  464.30   55.71
  -4  -1 -11  222.90   38.54
  -4   1 -11  159.70   38.36
  -4  -1 -12   46.59   14.87
  -4   1 -12  110.50   36.80
  -4  -1 -13   20.10   10.34
  -4   1 -13    1.76   25.36
  -4  -1 -14  185.27   38.67
  -4   1 -14  191.08   42.73
  -4   1 -15  185.22   44.25
  -4  -1 -15  174.94   39.56
  -4   1 -16  345.33   61.13
  -4  -1 -16  434.22   63.68
  -4  -1 -17  158.15   40.25
  -4   1 -17  149.19   40.73
  -4  -1 -18   70.50   32.65
  -4   1 -18   46.38   28.70
  -4   1 -19   90.98   36.70
   4   2 -20  216.20   61.99
   4   2 -20  117.63   39.57
   4   2 -19  239.82   55.77
   4   2 -19  284.22   70.09
   4   2 -18  157.90   46.35
   4   2 -18  292.58   74.68
   4   2 -17   87.51   37.61
   4   2 -17  227.18   69.41
   4   2 -16   65.89   31.20
   4   2 -16  152.83   65.71
   4   2 -15  101.69   44.31
   4   2 -15   90.94   49.42
   4   2 -14  541.78   86.76
   4   2 -14  327.47   77.53
   4   2 -13   11.33   16.33
   4   2 -13   75.63   38.03
   4   2 -12 2116.35  173.33
   4   2 -12 1525.52  153.94
   4   2 -11  116.36   36.35
   4   2 -11  143.37   46.94
   4   2 -10  124.12   33.55
   4   2 -10  193.94   49.30
   4   2  -9  464.13   62.66
   4   2  -9  554.64   77.96
   4   2  -8  115.84   32.81
   4   2  -8   80.12   18.05
   4   2  -7  189.30   38.52
   4   2  -7  199.15   34.21
   4   2  -6   65.46   21.27
   4  -2  -6   45.87    9.86
   4   2  -6   57.51   18.16
   4   2  -5 3236.57  112.11
   4  -2  -5 3405.35   76.10
   4   2  -5 3304.61  127.27
  -4  -2   4 4641.66  123.56
  -4   2   4 4862.78   79.81
   4  -2  -4 4681.38   66.93
   4   2  -3   43.44   10.81
   4  -2  -3   64.14   10.90
   4  -2  -3   48.03    5.17
  -4   2   3   51.92    7.59
  -4  -2   3   52.26   12.08
   4   2  -2 1039.40   48.80
  -4  -2   2 1061.90   54.58
   4  -2  -2 1019.09   41.75
   4   2  -1 1506.52   55.65
  -4   2   1 1357.58   24.51
  -4  -2   1 1482.08   64.89
   4   2   0  134.56   16.25
  -4   2   0  125.20    9.24
   4   2   0  144.70   17.82
   4   2   1  568.48   37.77
   4   2   1  595.50   35.40
   4   2   2  242.90   23.75
   4   2   2  240.37   25.65
   4   2   3 1730.45   75.20
   4   2   3 1744.55   68.91
   4   2   4 2263.38   89.30
  -4  -2  -5  392.61   32.19
  -4   2  -5  516.44   59.53
   4   2   5  455.60   44.79
  -4  -2  -6   76.51   16.74
  -4   2  -6  104.23   31.01
   4   2   6  106.92   25.51
  -4   2  -7  661.84   78.89
  -4  -2  -7  518.02   48.43
   4   2   7  624.22   66.55
  -4   2  -8 1368.74  116.71
   4   2   8 1416.11  109.65
  -4  -2  -8 1345.66   80.70
  -4  -2  -9    3.32    4.48
  -4   2  -9  -27.56   25.97
  -4  -2 -10  431.26   48.78
  -4   2 -10  312.22   58.25
  -4   2 -11 2108.72  155.67
  -4  -2 -11 2457.67  125.22
  -4  -2 -12 1120.34   85.61
  -4   2 -12 1016.20  109.78
  -4  -2 -13  193.45   38.18
  -4   2 -13   87.14   29.65
  -4   2 -14   -5.61   19.79
  -4   2 -15  -36.63   30.68
  -4   2 -16   64.00   29.58
  -4   2 -17   30.09   21.36
  -4   2 -18   29.80   26.47
   4   3 -19  110.44   49.81
   4   3 -18  130.12   43.89
   4   3 -18  224.15   67.87
   4   3 -17  223.87   69.99
   4   3 -17  133.74   44.47
   4   3 -16  117.18   54.95
   4   3 -16   65.53   30.25
   4   3 -15  101.21   45.07
   4   3 -15  222.74   58.76
   4   3 -14  -24.79   33.29
   4   3 -14   48.59   33.71
   4   3 -13  211.50   60.46
   4   3 -13  253.33   62.88
   4   3 -12   62.24   29.28
   4   3 -12  142.66   44.91
   4   3 -11  735.03  101.21
   4   3 -11  896.51  115.57
   4   3 -10    0.23   15.78
   4   3 -10  -12.55   23.65
   4   3  -9 1293.54  111.92
   4   3  -9 1590.08  143.86
   4   3  -8   92.81   29.38
   4  -3  -8   63.73   13.76
   4   3  -8   77.37   29.52
   4   3  -7 1035.63   82.22
   4  -3  -7 1078.75   47.20
   4   3  -7 1087.38  101.38
   4   3  -6  484.14   50.40
   4  -3  -6  438.52   19.96
   4   3  -6  438.47   59.23
   4   3  -5  117.15   21.96
   4   3  -5  120.48   27.86
  -4   3   5  131.20   16.63
  -4  -3   5  102.35   23.21
   4   3  -4    4.26    4.67
   4   3  -4   12.73   12.84
  -4  -3   4    5.65    5.53
  -4   3   4    8.61    5.29
   4   3  -3 1464.63   67.50
  -4   3   3 1397.53   49.74
  -4  -3   3 1435.08   80.52
   4  -3  -3 1424.94   63.32
   4   3  -2  650.79   42.98
   4  -3  -2  662.15   43.21
  -4  -3   2  689.75   55.68
   4   3  -1 2326.80   76.79
  -4  -3   1 2322.04  100.38
   4  -3  -1 2324.52   84.33
   4   3   0  856.71   53.31
   4   3   0  869.99   45.71
   4  -3   0  843.84   54.73
  -4  -3   0  867.36   61.00
   4   3   1 1815.21   78.12
  -4   3  -1 1999.05   40.50
   4   3   1 1800.08   67.55
  -4  -3  -1 1677.27  117.60
   4   3   2   -1.58    4.25
  -4  -3  -2   -3.03    6.44
   4   3   2    4.66    5.12
  -4   3  -3  507.06   62.94
   4   3   3  475.28   43.03
   4   3   3  501.23   40.00
  -4   3  -4   17.86   18.39
   4   3   4    0.40    7.95
   4   3   4   13.95   10.66
   4   3   5  548.78   51.30
  -4   3  -5  521.18   73.27
   4   3   6 1050.37   77.72
  -4   3  -6 1049.94  109.39
  -4   3  -7  469.36   72.86
   4   3   7  469.53   57.64
   4   3   8   -7.99   18.36
  -4   3  -8  -10.84   24.93
  -4   3  -9   99.17   31.90
  -4   3 -10  349.29   68.12
  -4   3 -11  112.98   39.14
  -4   3 -12   -2.79   31.77
  -4   3 -13  -38.56   37.64
  -4   3 -14   65.22   29.11
  -4   3 -15  115.61   41.70
  -4   3 -16  265.55   62.73
  -4   3 -17   67.44   34.89
   4   4 -17  -18.19   27.65
   4   4 -17   40.09   28.11
   4   4 -16  -10.46   16.61
   4   4 -16   10.59   15.72
   4   4 -15  -13.78   31.64
   4   4 -15   22.95   25.05
   4   4 -14  128.08   55.43
   4   4 -14  229.36   65.07
   4   4 -13   28.59   32.80
   4   4 -13   15.87   18.28
   4   4 -12  744.89  115.39
   4   4 -12  661.09  118.83
   4   4 -11   76.20   44.07
   4   4 -11   30.66   13.00
   4   4 -10   64.43   31.84
   4   4 -10  114.60   45.96
   4   4  -9  224.66   58.80
   4   4  -9  333.33   64.47
  -4  -4   8   36.09   11.84
   4   4  -8   74.32   32.12
   4   4  -8   85.34   25.62
  -4  -4   7   97.24   29.34
   4   4  -7  101.77   36.88
   4   4  -7  102.52   27.11
   4   4  -6   19.34    8.75
  -4  -4   6    6.75   11.98
   4   4  -5 1534.15   90.06
  -4   4   5 1473.60   63.72
   4   4  -5 1544.53  105.16
  -4  -4   5 1506.62  105.12
  -4   4   4 2593.63   82.19
   4   4  -4 2555.71  107.49
  -4  -4   4 2562.67  133.66
  -4   4   3   13.39    5.50
   4  -4  -3   18.00    9.60
  -4  -4   3   27.57   16.70
   4   4  -3   30.94   11.96
   4  -4  -2  352.55   38.97
  -4  -4   2  332.30   46.96
  -4   4   2  278.57   27.45
   4   4  -2  351.57   34.29
   4   4  -1  528.32   40.40
   4   4  -1  520.83   49.41
  -4   4   1  521.19   70.30
  -4  -4   1  540.46   58.31
   4  -4  -1  547.43   50.03
   4   4   0   53.09   16.19
  -4   4   0   73.44   31.32
   4  -4   0   40.60   13.65
   4   4   0   63.92   14.46
  -4   4  -1  175.06   47.37
   4   4   1  163.99   27.17
   4  -4   1  154.37   29.44
   4   4   1  171.70   23.60
  -4   4  -2   69.03   30.54
   4   4   2   67.31   17.73
   4   4   2   71.00   16.71
  -4   4  -3  593.24   92.09
   4   4   3  622.33   54.00
   4   4   3  684.93   53.83
   4   4   4  795.60   63.62
   4   4   4  850.43   65.28
  -4   4  -4  780.53   68.12
  -4   4  -4  743.04  107.59
   4   4   5  120.40   26.22
   4   4   5  136.95   28.92
  -4   4  -5  108.90   41.44
  -4   4  -6   30.25   17.54
   4   4   6   35.42   17.65
  -4   4  -7  323.88   70.79
   4   4   7  262.80   46.41
  -4   4  -8  696.95  104.93
  -4   4  -9   29.03   21.66
  -4   4 -10  127.48   40.12
  -4   4 -11  923.42  119.13
  -4   4 -12  427.75   80.17
  -4   4 -13   55.40   33.21
  -4   4 -14  -12.49   25.36
  -4   4 -15    4.32   15.80
   4   5 -15   15.25   19.68
   4   5 -15  -34.51   40.71
  -4  -5  15  -63.90   57.07
   4   5 -14   -3.58   21.50
   4   5 -14  -37.05   40.43
  -4  -5  14  -65.46   62.23
   4   5 -13  -27.81   41.19
  -4  -5  13  -70.63   68.28
   4   5 -13   18.63   23.51
   4   5 -12  -25.17   43.34
   4   5 -12   12.72   26.43
  -4  -5  12  -61.94   63.31
   4   5 -11  216.07   65.70
   4   5 -11  214.68   58.17
  -4  -5  11  195.14   64.48
   4   5 -10  -34.35   32.23
   4   5 -10   13.74   23.24
  -4  -5  10  -54.44   49.06
  -4  -5   9  376.21   80.77
   4   5  -9  338.83   62.87
   4   5  -9  537.24   99.09
   4   5  -8   45.49   20.62
  -4  -5   8   17.52   19.16
   4   5  -8   49.70   34.79
  -4  -5   7  291.36   63.68
   4   5  -7  319.11   50.13
   4   5  -7  341.89   63.96
  -4  -5   6  122.39   39.44
   4   5  -6  114.92   28.72
  -4   5   5   33.44   11.71
  -4  -5   5   60.80   29.57
   4   5  -5   42.07   18.05
  -4   5   4    1.70    5.05
   4   5  -4    2.42    5.49
  -4  -5   3  482.17   68.22
  -4   5   3  358.41   36.02
   4   5  -3  475.13   45.41
  -4  -5   2  146.73   38.27
   4   5  -2  160.93   26.13
  -4   5   2  131.48   23.33
   4   5  -2  113.57   26.97
   4  -5  -2  154.43   31.99
  -4  -5   1  745.90   81.60
  -4   5   1  698.33   54.31
   4  -5  -1  830.94   74.11
   4   5  -1  761.43   69.30
   4   5  -1  856.53   59.99
   4  -5   0  275.27   44.80
   4   5   0  278.79   41.48
   4   5   1  592.52   60.45
   4  -5   1  558.77   64.42
   4   5   2   16.61   15.81
   4  -5   2    4.91   10.10
  -4   5  -2   16.67   27.43
   4  -5   3   66.03   20.03
   4   5   3  115.24   28.90
   4   5   4    7.71   10.88
   4  -5   4   -4.65   13.12
  -4   5  -5  249.88   78.11
   4   5   5  147.51   32.17
  -4   5  -6  454.98   99.19
  -4   5  -7  243.54   71.55
  -4   5  -8    2.53   13.85
  -4   5  -9   23.85   23.51
  -4   5 -10  123.70   50.89
  -4   5 -11   42.49   34.09
  -4   5 -12   25.92   23.35
  -4   5 -13   24.73   25.52
  -4  -6  11   49.30   49.86
  -4  -6  10    2.41   18.61
  -4  -6   9  105.96   60.31
  -4  -6   8  101.98   58.86
  -4  -6   7  100.99   50.34
  -4  -6   6   89.70   48.87
  -4  -6   5  545.62   96.87
  -4   6   4  709.86   61.16
  -4  -6   4  822.01  111.11
   4   6  -4  713.37   89.17
  -4   6   3   20.53   12.54
   4   6  -3  -15.90   20.00
   4   6  -2   68.86   25.87
  -4   6   2   62.05   18.31
   4  -6  -1  131.72   37.08
  -4   6   1   94.00   25.11
   4   6  -1   62.11   24.13
  -4   6   0   27.62   14.54
   4   6   0   48.30   24.27
   4  -6   0   35.10   24.04
   4  -6   1   72.03   31.57
  -4   6  -1   15.44   10.24
   4   6   1   55.61   24.60
   4   6   2   26.41   18.52
   4  -6   2   23.84   19.59
   4  -6   3  105.75   33.56
   4   6   3  112.33   32.43
   4   6   4  159.49   37.20
   4  -6   4   80.75   26.79
   4   6   5   29.38   16.65
   4  -6   5    9.33    9.52
   4  -6   6   -8.53   11.91
   4  -6   7   17.61    7.82
   4  -6   8    5.36    9.27
   4  -6   9  -21.93   14.59
   4   7  -4  -36.08   32.32
   4   7  -3   93.26   34.73
   4   7  -2   39.43   26.57
   4   7  -1  119.68   37.49
   4   7   0   88.57   34.98
   4  -7   1  117.35   39.43
   4   7   1  152.60   43.41
   4  -7   2   57.56   28.73
   4   7   2   44.41   27.01
   4  -7   3   76.71   29.89
   4   7   3   29.67   19.34
   5   0 -21   79.90   41.13
   5   0 -20  119.57   47.00
   5   0 -19  135.65   52.83
   5   0 -18    2.16   19.04
   5   0 -18  164.34   56.66
   5   0 -17  259.34   54.25
   5   0 -16  139.46   38.38
   5   0 -15 1728.99  157.14
   5   0 -14  584.49   89.57
   5   0 -13  188.52   43.12
   5   0 -12  172.99   36.27
   5   0 -11 1070.34  116.39
   5   0 -10   17.86   17.38
   5   0  -9 1692.83  121.98
   5   0  -9 1522.09  106.36
   5   0  -8   58.83   15.30
   5   0  -7 5237.60  154.21
   5   0  -6    8.29    3.43
   5   0  -5 1599.14   69.66
   5   0  -4    7.24    6.02
   5   0  -3  100.07   13.84
   5   0  -2  830.67   38.41
   5   0  -2  865.57   18.34
   5   0  -2  914.65   28.01
   5   0  -1  882.19   39.31
   5   0   0 4031.85   87.78
   5   0   1 5422.60  106.21
   5   0   2 1078.16   52.64
   5   0   3  152.61   22.55
   5   0   4 2428.98  104.46
   5   0   5  181.63   32.16
   5   0   6  131.43   29.79
   5   0   7   29.23   21.33
  -5   0  -8 2693.01  135.32
  -5   0  -9 2726.82  145.73
  -5   0 -10  450.28   63.94
  -5   0 -11   35.25   16.42
  -5   0 -12    3.61   10.27
  -5   0 -13  287.80   52.95
  -5   0 -14  -23.07   23.41
  -5   0 -15  -32.16   23.96
  -5   0 -16  120.80   35.24
  -5   0 -17   51.55   24.18
  -5   0 -18  176.48   47.22
  -5   0 -19   19.34   18.90
   5  -1 -21   61.62   32.70
   5   1 -20  235.30   53.95
   5   1 -20  312.49   69.14
   5  -1 -20  285.02   62.36
   5   1 -19  232.79   55.10
   5  -1 -19  446.91   81.15
   5   1 -19  430.90   83.98
   5   1 -18  207.42   51.61
   5   1 -18  379.16   79.96
   5   1 -17  294.20   64.05
   5   1 -17  406.34   84.35
   5   1 -16   29.13   20.34
   5   1 -16  170.29   59.75
   5   1 -15  145.37   45.06
   5   1 -15  215.18   61.44
   5   1 -14  -19.70   34.87
   5   1 -14   -4.06   20.74
   5   1 -13  -27.32   38.42
   5   1 -13  -11.38   28.41
   5   1 -12 1759.88  157.42
   5   1 -12 1555.38  145.45
   5   1 -11  307.17   58.73
   5   1 -11  429.42   72.56
   5   1 -10  582.41   72.72
   5   1 -10  655.55   85.26
   5   1  -9  263.34   42.82
   5   1  -9  356.84   57.96
   5   1  -8  548.46   59.22
   5  -1  -8  531.82   49.40
   5   1  -8  587.06   67.36
   5   1  -7    8.37   11.50
   5   1  -7   -3.42    9.42
   5  -1  -7    1.66    4.72
   5  -1  -6  960.86   53.14
  -5   1   6  937.15   39.47
   5   1  -6  983.84   71.07
   5   1  -6 1041.59   66.06
  -5   1   5  824.24   30.30
   5  -1  -5  800.61   43.58
   5  -1  -5  874.33   32.97
   5   1  -5  915.68   57.35
  -5  -1   4 1409.09   49.61
   5  -1  -4 1394.82   50.78
   5   1  -4 1388.35   63.76
  -5  -1   3  409.37   26.11
   5  -1  -3  360.66   22.95
   5   1  -3  368.84   29.13
   5  -1  -2 2527.17   59.49
   5   1  -2 2465.67   73.35
   5  -1  -1  148.37   14.70
   5   1  -1  142.33   17.41
   5   1  -1  139.57   15.28
   5   1   0 2423.73   70.59
   5   1   0 2357.17   67.86
   5  -1   0 2356.22   64.11
   5   1   1  859.75   46.23
   5  -1   1  847.43   46.88
   5   1   1  808.58   42.78
   5  -1   2  792.98   53.51
   5   1   2  743.96   43.39
   5  -1   3  915.92   66.75
   5   1   3  804.02   50.05
   5  -1   4 5480.77  192.92
   5   1   4 5390.47  145.46
   5  -1   5 3088.86  162.77
   5   1   5 2943.97  120.14
   5   1   6 1728.72  102.34
  -5  -1  -7  428.91   46.53
  -5   1  -7  457.16   56.80
   5   1   7  464.39   59.17
  -5  -1  -8  123.48   28.08
  -5   1  -8  129.78   34.28
   5   1   8  131.29   29.95
  -5  -1  -9 1023.56   86.19
  -5   1  -9 1096.92  102.55
  -5   1 -10  177.77   40.77
  -5  -1 -10  114.19   28.55
  -5  -1 -11  573.17   67.90
  -5   1 -11  583.83   79.25
  -5  -1 -12  143.17   33.95
  -5   1 -12   88.27   30.00
  -5  -1 -13   14.90    9.56
  -5   1 -13   74.89   31.87
  -5  -1 -14    2.19   16.76
  -5   1 -14  -11.39   25.88
  -5  -1 -15  199.18   44.09
  -5   1 -15  197.71   44.35
  -5  -1 -16    2.26   10.61
  -5   1 -16  -12.72   22.24
  -5   1 -17   52.13   21.30
  -5  -1 -17   91.32   32.89
  -5   1 -18  115.87   40.80
   5   2 -20    1.30   17.48
   5   2 -20   35.07   29.50
   5   2 -19   -1.34   20.18
   5   2 -19   70.20   40.95
   5  -2 -19   86.82   39.44
   5   2 -18  144.41   56.58
   5  -2 -18  148.51   52.66
   5   2 -17  238.92   58.55
   5   2 -17  361.92   80.22
   5   2 -16   58.04   28.06
   5   2 -16  131.45   56.93
   5   2 -15  820.51  116.46
   5   2 -15 1166.08  134.63
   5   2 -14  288.74   65.20
   5   2 -14  501.02   87.18
   5   2 -13  197.81   55.48
   5   2 -13  152.36   43.87
   5   2 -12   93.59   34.64
   5   2 -12   87.89   33.33
   5   2 -11  594.17   81.11
   5   2 -11  595.17   87.17
   5   2 -10    6.85   15.09
   5   2 -10   21.69   14.40
   5   2  -9 1004.37   91.32
   5  -2  -9 1023.13   72.12
   5   2  -9 1135.53  106.46
   5   2  -8   40.50   21.71
   5   2  -8   80.10   23.89
   5  -2  -8   44.95   11.85
   5   2  -7 3835.73  146.58
   5  -2  -7 3922.92  107.79
   5   2  -7 4155.42  167.72
   5   2  -6    9.61   11.35
   5   2  -6    4.79   10.27
   5  -2  -6    5.20    5.18
  -5  -2   5 1006.39   60.05
   5  -2  -5 1136.02   43.00
   5   2  -5 1131.85   66.40
   5   2  -4    2.88    4.41
  -5  -2   4    2.93    3.52
   5  -2  -4    8.86    3.68
   5   2  -3   60.47   12.83
  -5   2   3   72.33    7.56
   5  -2  -3   78.72    8.78
   5  -2  -3   67.34   10.92
  -5  -2   3   77.06   15.44
   5   2  -2  655.75   41.60
  -5  -2   2  670.15   45.48
   5  -2  -2  593.01   26.23
  -5   2   2  659.94   26.04
   5  -2  -2  593.03   31.41
  -5   2   1  452.21   18.65
   5  -2  -1  485.16   31.48
   5   2  -1  503.31   35.37
   5   2  -1  455.33   33.45
   5  -2   0 2981.92  103.84
   5   2   0 3115.55   86.86
   5   2   0 2916.67   86.98
   5   2   1 4758.20  114.35
   5   2   1 4973.64  113.57
   5  -2   1 4898.16  172.69
   5   2   2  730.77   44.68
   5   2   2  784.06   50.12
   5   2   3   97.04   18.50
   5   2   3   91.95   16.37
   5   2   4 1666.41   81.01
   5   2   5   91.28   21.70
  -5   2  -6  101.17   32.27
  -5  -2  -6   89.91   19.38
   5   2   6   82.49   23.34
   5   2   7   35.63   15.69
  -5  -2  -7   50.54   16.35
  -5   2  -7   60.59   26.23
   5   2   8 1714.39  122.25
  -5   2  -8 1728.33  135.13
  -5  -2  -8 1493.30   93.69
  -5   2  -9 1832.49  146.07
   5   2   9 1850.83  135.81
  -5  -2  -9 1694.38  101.10
  -5  -2 -10  399.30   50.81
  -5   2 -10  351.62   65.51
  -5  -2 -11   27.69    9.33
  -5   2 -11   15.06   13.16
  -5  -2 -12    7.39    8.58
  -5   2 -12    3.89   12.23
  -5  -2 -13  245.60   43.76
  -5   2 -13  220.57   54.67
  -5   2 -14  -51.63   39.99
  -5   2 -15  -29.13   26.71
  -5   2 -16  103.83   37.72
  -5   2 -17   20.50   18.27
  -5   2 -18   97.29   39.47
   5   3 -18  103.08   41.13
   5   3 -18  180.54   61.88
   5   3 -17  104.22   41.24
   5   3 -17  149.66   57.03
   5   3 -16   56.99   35.26
   5   3 -16   69.04   39.94
   5   3 -15  106.26   35.50
   5   3 -15   63.00   32.43
   5   3 -14  -18.11   27.93
   5   3 -14   12.66   19.39
   5   3 -13   -7.02   12.50
   5   3 -13   10.61   15.13
   5  -3 -12 1006.56   94.82
   5   3 -12  762.83  105.95
   5   3 -12  782.76  111.61
   5   3 -11  191.25   50.13
   5   3 -11  162.43   46.93
   5  -3 -11  212.47   38.26
   5   3 -10  319.08   67.74
   5   3 -10  276.94   54.27
   5  -3 -10  287.76   38.31
   5   3  -9  153.12   39.11
   5   3  -9  149.26   42.87
   5  -3  -9  124.37   20.73
   5   3  -8  267.01   45.47
   5  -3  -8  283.96   26.67
   5   3  -8  286.88   55.05
   5  -3  -7    1.06    1.76
   5   3  -7   12.42   14.83
  -5  -3   6  444.03   49.10
   5   3  -6  446.55   47.69
   5  -3  -6  493.14   18.17
   5   3  -6  466.11   57.52
   5   3  -5  400.83   42.10
  -5  -3   5  413.03   46.30
  -5   3   4  627.82   32.35
   5   3  -4  652.31   50.48
  -5  -3   4  624.80   56.03
   5   3  -3  200.09   26.61
   5  -3  -3  190.90   22.31
  -5  -3   3  201.07   31.22
  -5   3   3  185.15   17.37
   5  -3  -2 1326.40   60.39
   5   3  -2 1462.45   68.52
  -5  -3   2 1454.47   82.41
  -5  -3   1  100.75   21.83
   5  -3  -1   76.29   15.24
   5   3  -1   84.38   17.88
   5   3  -1   77.51   15.40
   5   3   0 1312.45   68.75
   5   3   0 1303.74   60.97
   5   3   1  309.04   33.84
   5   3   1  282.13   28.84
   5   3   2  443.01   41.00
   5   3   2  379.32   34.78
   5   3   3  408.24   42.19
   5   3   3  391.02   37.00
  -5  -3  -4 3409.33   78.13
   5   3   4 3445.09  122.80
   5   3   5 1594.35   90.59
  -5  -3  -5 1425.92   60.83
  -5   3  -5 1743.41  132.62
  -5   3  -6  831.44   98.16
   5   3   6  765.89   67.81
   5   3   7  267.28   44.66
  -5   3  -7  283.51   60.94
  -5   3  -8   72.81   28.33
   5   3   8   62.24   22.78
  -5   3  -9  547.54   86.70
  -5   3 -10   39.06   21.12
  -5   3 -11  335.52   68.89
  -5   3 -12  102.86   40.37
  -5   3 -13  -27.40   35.41
  -5   3 -14  -33.28   30.59
  -5   3 -15  117.59   41.34
  -5   3 -16   11.82   12.53
   5   4 -17   49.42   28.62
   5   4 -17  -40.27   45.23
   5   4 -16   37.29   28.46
   5   4 -16  -12.93   29.93
   5   4 -15  265.36   74.99
   5   4 -15  450.13   88.28
   5   4 -14  186.94   67.10
   5   4 -14  142.74   48.85
   5   4 -13  101.03   49.65
   5   4 -13   26.27   24.33
   5   4 -12   79.95   51.86
   5   4 -12  -18.22   42.12
   5   4 -11  304.12   70.30
   5   4 -11  169.94   54.06
   5   4 -10   49.84   35.65
   5   4 -10    6.35   13.09
  -5  -4   9  315.76   57.51
   5   4  -9  392.69   62.36
   5   4  -9  491.73   85.50
   5   4  -8  -10.98   17.49
   5   4  -8   35.59   26.73
  -5  -4   8  -12.64   21.30
   5   4  -7 1814.14  134.24
   5   4  -7 1829.14  116.85
  -5  -4   7 1665.91  120.71
   5   4  -6   -6.32   13.43
  -5  -4   6    8.92   12.30
  -5   4   5  455.31   34.26
   5   4  -5  476.19   51.28
  -5  -4   5  443.50   57.06
  -5  -4   4    2.08    6.28
  -5   4   4    9.92    5.45
   5   4  -4   20.18   12.43
   5  -4  -3   21.41   10.06
  -5  -4   3   21.39   14.60
  -5   4   3   17.63    7.31
   5   4  -3   10.95    4.80
  -5   4   2  293.45   26.63
  -5  -4   2  305.11   45.58
   5  -4  -2  302.66   36.11
   5   4  -2  274.68   32.55
   5   4  -1  102.13   21.28
   5  -4  -1  110.44   23.04
   5   4  -1  111.29   19.55
   5   4   0 1428.81   82.19
   5   4   0 1423.98   72.45
   5  -4   0 1515.37   87.52
   5  -4   1 2569.18  119.48
   5   4   1 2481.63  111.04
   5   4   1 2612.70   98.77
  -5   4  -2  346.63   66.91
   5   4   2  276.40   36.29
   5   4   2  266.73   33.47
   5   4   3    8.79    6.68
  -5   4  -3   42.36   29.94
   5   4   3   33.94   14.25
  -5   4  -4  630.30   96.74
   5   4   4  514.14   54.15
   5   4   4  557.68   55.18
  -5   4  -5   14.03   11.84
   5   4   5   28.69   14.18
   5   4   6   29.97   17.45
  -5   4  -6    7.93   18.54
  -5   4  -7    9.63   19.29
   5   4   7   16.76   12.28
   5   4   8  601.13   78.57
  -5   4  -8  755.22  113.12
  -5   4  -9  804.65  117.60
  -5   4 -10  213.87   63.79
  -5   4 -11  -43.03   38.14
  -5   4 -12  -29.00   38.67
  -5   4 -13   70.61   30.75
  -5   4 -14  -26.30   31.74
  -5   4 -15   16.11   19.86
   5   5 -15  -29.78   39.61
   5   5 -15  -52.85   54.42
  -5  -5  15  -59.88   54.28
   5   5 -14  -96.85   62.31
   5   5 -14  -34.55   41.66
  -5  -5  14  -69.94   58.51
   5   5 -13  -93.93   67.14
   5   5 -13  -69.67   58.55
  -5  -5  13  -31.19   41.75
   5   5 -12  195.94   60.45
   5   5 -12  172.28   60.62
  -5  -5  12  219.24   69.06
   5   5 -11   11.06   28.77
   5   5 -11   47.09   30.24
  -5  -5  11    1.07   34.01
   5   5 -10   82.57   35.72
  -5  -5  10   51.84   28.59
   5   5  -9   33.07   18.88
  -5  -5   9   51.20   27.35
   5   5  -8   92.73   32.96
  -5  -5   8   66.12   30.73
  -5  -5   7   12.96   16.47
   5   5  -7   32.11   22.18
  -5  -5   6  164.98   45.63
   5   5  -6  154.09   35.15
   5   5  -5  140.27   29.40
  -5   5   5  137.72   22.19
  -5  -5   5  162.79   44.19
  -5   5   4  166.45   23.76
  -5  -5   4  223.42   50.75
   5   5  -4  175.45   31.11
   5  -5  -3   84.69   22.98
  -5  -5   3   91.72   31.33
  -5   5   3   60.97   14.82
   5   5  -3   45.23   15.59
   5  -5  -2  497.99   55.32
  -5  -5   2  527.71   71.40
  -5   5   2  403.63   39.09
   5   5  -2  443.59   56.17
   5   5  -2  453.84   47.19
  -5   5   1   27.75   11.20
   5   5  -1   39.48   16.97
   5  -5  -1   71.86   25.27
   5   5  -1   43.99   15.09
   5   5   0  413.60   52.85
   5  -5   0  464.18   58.04
   5   5   0  487.74   49.20
   5   5   1   76.20   24.57
   5   5   1   87.75   21.91
   5  -5   1   51.10   20.98
   5   5   2  100.68   27.33
  -5   5  -2  147.40   63.99
   5  -5   2  108.32   28.78
   5  -5   3   37.51   14.46
   5   5   3   95.64   28.85
  -5   5  -3   71.77   41.96
   5  -5   4  657.42   65.06
   5   5   4 1128.82   88.12
   5   5   5  491.43   60.15
  -5   5  -5  887.45  149.79
  -5   5  -6  377.38   96.62
  -5   5  -7  158.35   57.88
  -5   5  -8   24.90   18.12
  -5   5  -9  287.68   74.79
  -5   5 -10   -3.46   30.81
  -5   5 -11  148.81   55.17
  -5   5 -12   39.42   34.41
  -5   5 -13   -1.43   19.36
  -5  -6  11   83.04   56.98
  -5  -6  10   80.82   56.98
  -5  -6   9  227.66   81.83
  -5  -6   8   60.97   48.57
  -5  -6   7  551.51  107.22
  -5  -6   6   80.66   45.66
  -5  -6   5  210.39   62.42
   5   6  -4  -23.36   23.60
  -5  -6   4   88.32   41.14
   5   6  -3   10.92   11.90
   5   6  -2   74.06   25.18
   5  -6  -1   40.07   20.52
   5   6  -1   16.84   15.49
  -5   6   1    9.00    9.98
  -5   6   0  363.61   49.22
   5  -6   0  387.63   60.73
   5   6   0  372.85   58.34
   5   6   1  680.69   75.99
   5  -6   1  695.33   81.80
  -5   6  -1  690.19   67.69
   5   6   2   65.08   25.06
   5  -6   2   63.79   24.88
   5  -6   3   13.61   13.83
   5   6   3   25.79   19.85
   5   6   4   96.68   29.35
   5  -6   4   76.55   24.28
   5  -6   5   -6.87    9.72
   5  -6   6   -6.86    8.40
   5  -6   7  -15.71   12.18
   5  -6   8   78.74   18.76
   5  -6   9    5.16    6.28
   5   7  -2   90.11   37.31
   5   7  -1   18.36   18.95
   5   7   0   96.33   35.44
   5  -7   1   48.50   26.31
   5   7   1   28.00   22.97
   5  -7   2   74.28   29.73
   6   0 -20  223.03   57.46
   6   0 -19  149.98   52.84
   6   0 -18  716.75  101.82
   6   0 -17  355.85   76.60
   6   0 -16  338.07   72.84
   6   0 -15  143.00   44.73
   6   0 -14   -1.59   12.67
   6   0 -13   82.25   29.11
   6   0 -12   29.36   11.09
   6   0 -11  600.83   72.64
   6   0 -10 3372.48  158.01
   6   0  -9  555.80   57.77
   6   0  -8  546.08   52.62
   6   0  -7  447.97   43.55
   6   0  -6 1034.86   61.89
   6   0  -5  254.86   28.14
   6   0  -4  634.98   40.48
   6   0  -3 1192.56   51.50
   6   0  -3 1342.74   35.30
   6   0  -2 4709.53   79.05
   6   0  -2 4588.49   52.17
   6   0  -1   15.99    6.16
   6   0   0 1866.70   66.18
   6   0   1 2031.85   72.38
   6   0   2  104.39   17.83
   6   0   3  423.19   40.73
   6   0   4  881.62   66.18
   6   0   5 1362.62   89.28
   6   0   6 2728.53  142.36
   6   0   7   19.32   19.81
  -6   0  -8  124.64   30.62
  -6   0  -9  259.83   45.78
  -6   0 -10  479.14   66.52
  -6   0 -11   -4.58   10.75
  -6   0 -12  176.82   41.48
  -6   0 -13 1216.71  112.60
  -6   0 -14  926.20   97.93
  -6   0 -15  -27.71   27.28
  -6   0 -16  -30.48   22.94
  -6   0 -17   40.29   21.92
  -6   0 -18   30.71   23.25
   6  -1 -21  131.53   43.72
   6   1 -20  205.83   58.01
   6  -1 -20  262.21   60.79
   6   1 -19   95.40   44.78
   6  -1 -19   75.89   38.91
   6   1 -18   86.67   44.08
   6  -1 -18   99.00   46.66
   6   1 -17  243.86   56.88
   6   1 -17  291.00   70.76
   6  -1 -17  338.54   71.95
   6   1 -16  195.37   54.32
   6   1 -16  210.34   60.24
   6  -1 -16  316.27   72.00
   6   1 -15  379.93   71.72
   6   1 -15  317.87   69.55
   6  -1 -15  410.26   76.54
   6   1 -14 1834.89  172.70
   6   1 -14 1385.15  138.61
   6  -1 -14 1516.29  139.24
   6   1 -13   57.60   24.29
   6   1 -13  132.11   43.37
   6  -1 -13   85.08   29.69
   6   1 -12  -16.71   31.24
   6   1 -12  -19.68   25.28
   6  -1 -12  -12.11   18.71
   6   1 -11  930.91   95.41
   6  -1 -11  861.45   82.09
   6   1 -11  955.15  108.25
   6   1 -10   42.52   22.21
   6   1 -10   58.48   21.96
   6  -1 -10   33.80   12.48
   6   1  -9   22.46   18.21
   6   1  -9    8.46   11.92
   6  -1  -9    0.64    8.56
   6   1  -8 1649.00   97.40
   6  -1  -8 1437.52   77.71
   6   1  -7 2517.48  112.58
   6  -1  -7 2439.99   92.78
   6  -1  -6 1247.65   43.54
   6   1  -6 1241.70   72.43
  -6   1   6 1279.97   36.04
   6  -1  -6 1258.43   60.75
   6  -1  -5  648.12   40.30
   6   1  -5  611.90   46.71
  -6  -1   5  659.74   35.98
  -6  -1   4  527.02   31.10
   6  -1  -4  488.06   31.34
   6   1  -4  463.79   37.99
  -6  -1   3  752.46   39.13
   6  -1  -3  710.86   19.19
   6   1  -3  649.95   42.17
   6  -1  -3  702.38   36.09
   6   1  -2  961.26   42.39
   6  -1  -2  982.73   41.61
   6   1  -2  956.22   49.26
   6   1  -1   19.81    6.82
   6  -1  -1    8.08    3.68
   6   1  -1   16.34    7.08
   6   1   0  126.30   17.56
   6   1   0  121.96   17.57
   6  -1   0  124.03   16.54
   6   1   1  124.68   19.18
   6  -1   1  139.30   19.57
   6   1   1  124.41   18.65
   6  -1   2  760.21   54.24
   6   1   2  708.92   45.82
   6  -1   3 2497.96  111.38
   6   1   3 2419.97   91.02
   6  -1   4  850.29   75.74
   6   1   4  851.15   61.10
   6  -1   5 2459.45  146.42
   6   1   5 2446.95  113.53
   6   1   6 1723.71  104.48
   6   1   7   16.88   13.01
  -6  -1  -8  423.02   52.70
  -6   1  -8  446.67   60.61
   6   1   8  391.99   62.30
  -6  -1  -9 1520.64  106.78
  -6   1  -9 1723.01  127.02
   6   1   9 1556.17  129.88
  -6  -1 -10 1672.36  120.77
  -6   1 -10 1734.73  136.63
  -6   1 -11  282.13   56.04
  -6  -1 -11  249.24   47.12
  -6   1 -12  309.93   59.66
  -6  -1 -12  332.50   55.47
  -6  -1 -13   15.90   15.08
  -6   1 -13   26.20   25.07
  -6  -1 -14  583.32   75.75
  -6   1 -14  668.59   88.76
  -6   1 -15  237.19   50.88
  -6  -1 -15  343.69   59.48
  -6  -1 -16  254.08   53.44
  -6   1 -16  165.61   44.33
  -6  -1 -17   73.50   32.45
  -6   1 -17  -11.44   22.18
  -6   1 -18   23.60   23.23
   6   2 -19   12.08   17.18
   6   2 -19   51.50   35.69
   6  -2 -19   44.84   32.60
   6   2 -18  395.09   76.97
   6   2 -18  416.68   83.78
   6  -2 -18  535.70   85.22
   6   2 -17  267.11   63.58
   6   2 -17  213.84   62.13
   6  -2 -17  318.04   68.61
   6   2 -16  116.02   36.22
   6  -2 -16  246.26   60.46
   6   2 -16  161.72   54.37
   6   2 -15   71.62   25.44
   6   2 -15   73.33   36.43
   6  -2 -15  158.88   45.60
   6   2 -14   -4.89   18.44
   6  -2 -14    9.95   11.43
   6   2 -13   55.00   16.80
   6   2 -13   73.32   32.74
   6  -2 -13   62.35   25.12
   6   2 -12  -18.60   36.61
   6   2 -12   22.42   12.56
   6  -2 -12   14.14   10.29
   6   2 -11  443.24   67.87
   6  -2 -11  429.15   54.29
   6   2 -11  468.59   76.19
   6  -2 -10 2293.13  111.40
   6   2 -10 2230.58  140.83
   6   2 -10 2572.34  166.37
   6   2  -9  417.12   56.49
   6  -2  -9  383.96   40.96
   6   2  -9  429.71   63.64
   6   2  -8  412.12   51.92
   6  -2  -8  436.43   39.37
   6   2  -8  386.49   55.02
   6  -2  -7  309.13   29.88
   6   2  -7  330.81   42.58
  -6  -2   6  664.29   50.00
   6   2  -6  643.00   55.22
   6  -2  -6  731.35   40.71
   6   2  -5  133.95   22.85
   6  -2  -5  151.69   16.75
  -6  -2   5  151.83   23.55
   6  -2  -4  474.50   26.87
   6   2  -4  501.72   42.09
  -6  -2   4  555.16   43.76
   6  -2  -3  882.51   36.81
  -6   2   3  822.98   22.97
   6  -2  -3  877.96   35.52
  -6  -2   3  908.28   55.08
   6   2  -3  886.70   54.38
   6  -2  -2 3371.38   74.41
   6   2  -2 3496.79  101.77
   6   2  -1   11.65    6.93
   6  -2  -1   -0.59    7.02
   6   2  -1   14.40    7.66
   6  -2   0 1218.10   65.35
   6   2   0 1240.87   58.17
   6   2   0 1239.57   60.68
   6  -2   1 1380.36   84.43
   6   2   1 1371.10   66.31
   6   2   1 1519.07   67.39
   6  -2   2   37.57   11.91
   6   2   2   48.47   13.15
   6   2   2   64.22   15.63
   6   2   3  297.77   35.18
   6   2   3  289.07   32.88
   6   2   4  524.42   47.12
   6   2   5  871.51   66.77
   6   2   6 1744.96  103.53
  -6  -2  -7   40.83   17.52
  -6   2  -7   54.21   27.88
   6   2   7   14.58   11.61
  -6  -2  -8   69.04   21.82
  -6   2  -8  116.33   38.30
   6   2   8   54.41   21.58
  -6   2  -9  139.63   41.83
   6   2   9   88.31   27.40
  -6  -2  -9  134.88   31.08
  -6   2 -10  290.12   59.81
  -6  -2 -10  341.96   52.11
  -6  -2 -11   26.00   15.19
  -6   2 -11   -9.87   25.03
  -6  -2 -12  203.91   39.73
  -6   2 -12  134.95   41.63
  -6   2 -13 1075.21  121.36
  -6   2 -14  699.90   97.73
  -6   2 -15  -47.76   36.46
  -6   2 -16  -51.06   37.64
  -6   2 -17  -17.90   31.48
   6   3 -18  -30.01   31.30
   6   3 -18   20.65   23.97
   6   3 -17   77.02   33.02
   6   3 -17   66.14   35.13
   6   3 -16  110.77   43.40
   6   3 -16   51.91   23.65
   6   3 -15  164.23   50.62
   6   3 -15  109.44   43.75
   6   3 -14  662.98  105.74
   6   3 -14  881.51  123.58
   6   3 -13    3.63   32.92
   6   3 -13   40.63   25.70
   6   3 -12  -16.34   27.44
   6   3 -12    3.41   11.63
   6   3 -11  417.63   70.27
   6   3 -11  577.65   91.71
   6   3 -10   21.08   19.64
   6   3 -10   75.13   33.02
   6  -3 -10   43.24   13.61
   6   3  -9   15.34   19.22
   6  -3  -9   17.61    9.03
   6   3  -9   31.93   23.46
  -6  -3   8  684.72   66.96
   6  -3  -8  789.17   40.66
   6   3  -8  788.57   74.97
   6   3  -8  814.14   86.45
   6  -3  -7 1452.25   46.34
   6   3  -7 1289.16   89.09
  -6  -3   7 1251.00   86.08
   6   3  -6  598.54   56.82
  -6  -3   6  613.92   58.57
   6   3  -5  290.04   37.30
  -6  -3   5  266.54   36.81
  -6   3   4  224.07   17.89
   6  -3  -4  220.14   23.91
   6   3  -4  253.74   33.36
  -6  -3   4  261.12   36.85
  -6   3   3  264.57   19.44
   6   3  -3  308.10   35.27
  -6  -3   3  343.40   42.42
   6  -3  -3  305.61   28.04
   6   3  -2  468.58   41.41
   6  -3  -2  410.01   34.04
  -6  -3   2  462.29   48.47
   6   3  -1   11.25    8.11
   6   3  -1    5.68    5.63
   6  -3  -1    2.87    3.29
   6   3   0   82.82   18.44
   6   3   0   75.38   16.11
   6   3   1   68.99   17.26
   6   3   1   63.38   14.57
   6   3   2  372.32   40.74
   6   3   2  363.41   36.51
   6   3   3 1203.61   74.66
   6   3   3 1145.26   67.83
   6   3   4  414.69   46.68
   6   3   4  330.16   40.16
  -6  -3  -5 1394.28   66.47
  -6   3  -5 1345.87  115.55
   6   3   5 1168.07   80.63
  -6   3  -6  994.82  107.64
   6   3   6  861.47   75.53
  -6   3  -7   14.93   22.38
   6   3   7   13.66   11.34
  -6   3  -8  196.78   51.78
   6   3   8  165.16   38.28
   6   3   9  833.29   93.54
  -6   3  -9  948.81  120.48
  -6   3 -10  901.03  119.36
  -6   3 -11  132.52   46.49
  -6   3 -12  252.19   62.84
  -6   3 -13   14.76   23.11
  -6   3 -14  289.95   65.60
  -6   3 -15  177.62   45.22
  -6   3 -16  130.87   44.44
   6   4 -17   74.78   32.25
   6   4 -17  -64.27   57.43
   6   4 -16   48.24   21.40
   6   4 -16  -31.36   44.79
   6   4 -15  -11.56   36.33
   6   4 -15   11.52   15.83
   6   4 -14  -80.51   54.46
   6   4 -14   -1.83   16.19
   6   4 -13  -69.83   57.75
   6   4 -13   34.34   30.79
   6   4 -12  -50.18   39.89
   6   4 -12   29.58   30.98
  -6  -4  12  -31.39   29.23
   6   4 -11  128.56   46.71
   6   4 -11   98.59   36.38
  -6  -4  11  137.74   39.90
  -6  -4  10  805.36   94.90
   6   4 -10 1006.68  124.26
   6   4 -10  926.34  103.77
   6   4  -9  174.90   40.46
  -6  -4   9  134.02   35.06
   6   4  -8  177.86   36.84
  -6  -4   8  163.06   37.14
   6   4  -7   98.58   27.40
  -6  -4   7   60.10   21.85
  -6  -4   6  229.21   42.39
   6   4  -6  281.41   43.11
  -6   4   5   20.99    7.51
  -6  -4   5   31.45   17.12
   6   4  -5   53.32   20.53
  -6   4   4  152.79   18.29
  -6  -4   4  158.91   35.91
   6   4  -4  202.40   33.01
   6  -4  -3  317.43   34.96
  -6  -4   3  327.66   48.89
   6   4  -3  288.06   36.78
  -6   4   3  269.65   24.45
   6   4  -2 1728.62   96.66
  -6  -4   2 1766.66  112.14
   6   4  -2 1607.35   82.20
   6  -4  -2 1770.52   86.48
  -6   4   2 1623.18   61.59
   6  -4  -1    4.45    6.03
   6   4  -1   -7.02   10.46
   6   4  -1    2.62    6.26
   6   4   0  516.81   46.72
   6   4   0  512.61   52.32
   6  -4   0  501.69   50.83
   6  -4   1  446.02   49.88
   6   4   1  501.48   51.27
   6   4   1  477.23   44.62
  -6   4  -2   46.43   29.45
   6   4   2   28.41   16.87
   6   4   2   17.23   10.07
  -6   4  -3  180.43   52.42
   6   4   3  210.55   34.23
   6   4   3  122.67   25.57
   6   4   4  153.24   30.58
  -6   4  -4  165.58   51.85
   6   4   4  159.11   30.80
  -6   4  -5  377.49   78.69
   6   4   5  365.48   52.09
  -6   4  -6  802.90  118.72
   6   4   6  666.36   72.61
  -6   4  -7   -0.40   23.44
   6   4   7    2.70    7.72
   6   4   8   19.11   11.36
  -6   4  -8   -3.23   26.36
  -6   4  -9   31.17   22.78
  -6   4 -10  161.60   55.59
  -6   4 -11   23.60   31.48
  -6   4 -12   36.12   17.97
  -6   4 -13  498.58   93.95
  -6   4 -14  302.93   71.71
   6   5 -15  -34.80   45.35
  -6  -5  15    7.27   18.90
   6   5 -14  138.83   52.24
  -6  -5  14  165.68   61.30
   6   5 -13  -77.81   55.15
  -6  -5  13    5.95   13.90
   6   5 -12  -14.41   32.72
  -6  -5  12  -25.54   30.77
   6   5 -11  134.38   47.20
  -6  -5  11  142.61   50.86
   6   5 -10   23.30   24.91
  -6  -5  10   51.09   32.57
   6   5  -9   27.40   27.62
  -6  -5   9  -12.12   15.07
  -6  -5   8  199.08   52.41
   6   5  -8  273.88   57.33
   6   5  -7  535.96   71.93
  -6  -5   7  466.97   75.77
   6   5  -6  231.53   44.64
  -6  -5   6  216.65   50.77
  -6  -5   5  107.87   37.95
   6   5  -5   54.01   17.98
  -6  -5   4   94.68   34.08
   6   5  -4   46.08   14.94
  -6  -5   3  102.02   35.88
   6  -5  -3   80.57   22.30
   6   5  -3   67.22   20.99
   6   5  -3   65.56   18.17
  -6   5   3   58.34   13.56
   6  -5  -2  120.31   28.26
  -6   5   2  114.08   20.19
   6   5  -2  113.48   27.50
   6   5  -2  131.51   27.85
   6   5  -1    1.62   11.26
  -6   5   1    0.31    4.65
   6  -5  -1   16.25   15.94
   6   5  -1   -3.53    6.97
   6  -5   0   54.55   20.34
   6   5   0   40.59   20.59
   6   5   0   61.99   20.80
  -6   5  -1   23.41   23.13
   6  -5   1    4.97    6.81
   6   5   1   11.21    9.18
   6   5   1   31.49   15.51
  -6   5  -2   57.78   36.57
   6  -5   2  120.06   28.83
   6   5   2  134.76   33.45
   6   5   2  162.06   34.02
   6  -5   3  186.79   34.27
   6   5   3  314.32   48.20
   6   5   3  410.05   55.65
  -6   5  -3  327.95   91.55
   6   5   4  117.95   31.08
   6  -5   4   42.57   14.26
  -6   5  -4   69.55   37.82
  -6   5  -5  591.90  119.03
  -6   5  -6  401.87   99.96
  -6   5  -7   81.39   50.54
  -6   5  -8   69.03   39.26
  -6   5  -9  518.47  107.15
  -6   5 -10  489.24  102.14
  -6   5 -11   25.47   22.51
  -6   5 -12  107.58   46.37
  -6  -6  11   47.68   43.27
  -6  -6  10  312.45   92.81
  -6  -6   9  237.69   76.62
  -6  -6   8  114.77   55.62
  -6  -6   7   80.49   46.90
  -6  -6   6  123.25   48.29
  -6  -6   5   96.91   43.41
   6   6  -5  -46.23   33.91
   6   6  -4   19.71   10.69
   6   6  -3   64.57   26.71
   6   6  -2  440.66   67.31
   6  -6  -1   11.38   16.50
   6   6  -1   -4.34    8.84
   6   6   0  116.93   33.91
   6  -6   0  176.07   41.93
   6   6   1  113.43   34.09
   6  -6   1  100.42   32.39
   6   6   2   11.72   20.32
   6  -6   2    3.52   13.45
   6  -6   3   16.96   15.09
   6   6   3   53.00   25.40
   6  -6   4   13.00    8.43
   6   6   4   24.58   17.88
   6  -6   5   30.70   14.01
   6  -6   6   20.28    9.29
   6  -6   7   -7.69    8.03
   6  -6   8  -11.77   10.77
   6  -7   0   40.30   25.94
   6  -7   1   27.15   19.07
   7   0 -20  262.72   62.81
   7   0 -19   84.51   42.28
   7   0 -18   97.92   45.32
   7   0 -17   66.77   37.92
   7   0 -16   63.17   34.69
   7   0 -15  194.70   50.55
   7   0 -14   98.05   34.75
   7   0 -13 1315.20  118.16
   7   0 -12 1146.78  102.47
   7   0 -11   22.84   12.48
   7   0 -10  137.50   29.82
   7   0  -9  186.80   32.73
   7   0  -8   87.88   21.38
   7   0  -7  784.01   57.16
   7   0  -6 1565.51   75.98
   7   0  -5 4212.31  117.35
   7   0  -4  485.77   23.06
   7   0  -4  477.50   36.75
   7   0  -3 2832.73   85.85
   7   0  -3 2889.19   60.75
   7   0  -2  200.07   22.75
   7   0  -2  204.88   12.59
   7   0  -1  155.92   19.88
   7   0   0  290.01   28.78
   7   0   1  175.82   23.60
   7   0   2 4424.87  126.18
   7   0   3 1864.30   90.89
   7   0   4  134.12   27.32
   7   0   5  341.47   46.59
   7   0   6 2013.17  123.91
   7   0   7   39.11   12.51
   7   0   8  -22.82   33.03
  -7   0  -9  108.17   31.05
  -7   0 -10  191.13   44.60
  -7   0 -11   17.47   17.12
  -7   0 -12   21.39   12.19
  -7   0 -13    0.41   12.33
  -7   0 -14   52.45   27.76
  -7   0 -15   43.14   10.95
  -7   0 -16  -14.42   20.95
  -7   0 -17    7.60   17.56
  -7   0 -18  301.49   61.11
   7   1 -20   75.04   38.43
   7  -1 -20   38.95   26.40
   7   1 -19   58.28   34.37
   7  -1 -19   84.36   36.94
   7   1 -18   74.36   42.57
   7  -1 -18   78.41   41.61
   7   1 -17  362.42   76.64
   7  -1 -17  410.33   78.67
   7   1 -16  627.61   95.84
   7  -1 -16  724.87   99.45
   7   1 -15  342.01   67.70
   7  -1 -15  349.91   65.80
   7   1 -14   68.09   26.12
   7  -1 -14   82.77   31.42
   7   1 -13   17.64   13.91
   7  -1 -13    0.58    7.53
   7   1 -12 1175.01  110.57
   7  -1 -12 1032.47   91.40
   7   1 -11   64.58   22.51
   7  -1 -11   27.14   12.97
   7   1 -10  219.62   39.59
   7  -1 -10  166.48   30.57
   7   1  -9 2746.72  134.08
   7  -1  -9 2377.84  106.29
   7   1  -8  966.77   74.53
   7  -1  -8  942.70   61.82
   7  -1  -7  309.40   22.50
   7   1  -7  322.24   40.28
   7  -1  -7  341.94   34.66
   7  -1  -6 2179.61   83.31
   7   1  -6 2185.54   97.61
  -7  -1   6 2174.71   66.78
   7  -1  -5 1160.36   56.34
   7   1  -5 1115.28   65.45
  -7  -1   5 1188.69   48.89
   7   1  -4  237.37   27.88
   7  -1  -4  254.48   25.35
   7  -1  -3 4225.78   98.31
   7   1  -3 4256.02  115.73
   7  -1  -3 4227.53   42.38
   7   1  -2 1489.22   66.21
   7  -1  -2 1552.96   58.63
   7   1  -2 1600.74   60.34
  -7   1   1 1456.30   34.10
   7   1  -1 1500.37   61.20
   7  -1  -1 1482.73   60.06
   7   1  -1 1390.93   62.54
   7   1   0  804.16   49.28
   7   1   0  812.60   49.85
   7  -1   0  722.26   44.72
   7   1   1  285.77   29.87
   7  -1   1  276.81   30.98
   7  -1   2 1363.78   76.78
   7   1   2 1223.16   65.42
   7  -1   3 1326.57   85.32
   7   1   3 1320.56   72.98
   7  -1   4   13.57    9.25
   7   1   4    9.54    6.26
   7  -1   5 1618.03  117.91
   7   1   5 1460.79   93.19
   7   1   6  249.16   40.96
   7  -1   6  242.88   47.72
   7   1   7  555.14   67.00
   7   1   8  750.83   84.94
  -7  -1  -9  225.49   43.16
  -7   1  -9  222.35   47.81
   7   1   9  159.31   38.07
  -7  -1 -10  153.87   36.49
  -7   1 -10  125.95   38.61
  -7   1 -11  934.84  106.41
  -7  -1 -11  953.53   99.10
  -7  -1 -12  -16.82   17.39
  -7   1 -12   -0.53   19.53
  -7  -1 -13  265.97   55.37
  -7   1 -13  200.79   51.52
  -7  -1 -14  -33.96   27.61
  -7   1 -14    8.40   10.55
  -7  -1 -15  278.25   55.50
  -7   1 -15  169.14   41.50
  -7  -1 -16    9.72   15.07
  -7   1 -16  -27.40   27.79
  -7   1 -17    6.57   16.51
   7   2 -19   45.07   30.97
   7   2 -18   50.37   35.50
   7  -2 -18   75.82   39.14
   7   2 -17   26.28   21.53
   7  -2 -17   34.46   26.71
   7   2 -16   -9.34   18.89
   7  -2 -16   19.33   20.71
   7   2 -15   76.25   28.41
   7   2 -15   97.51   37.35
   7  -2 -15  114.50   37.31
   7   2 -14  -10.05   56.00
   7   2 -14   45.18   22.24
   7  -2 -14   45.32   22.46
   7   2 -13  828.69  104.03
   7  -2 -13  934.74   90.51
   7   2 -13  945.59  115.97
   7   2 -12  872.72   99.80
   7  -2 -12  898.26   81.74
   7   2 -11   21.86   17.52
   7  -2 -11   34.61   15.28
   7   2 -10   92.54   29.86
   7  -2 -10   85.55   21.04
   7   2  -9  145.35   33.74
   7  -2  -9  120.67   22.84
   7  -2  -8   51.02   13.89
   7   2  -8   79.52   25.00
   7  -2  -7  591.52   41.78
  -7  -2   7  548.97   46.53
   7   2  -7  560.61   54.82
   7  -2  -6 1180.81   53.69
   7   2  -6 1144.20   74.63
  -7  -2   6 1112.65   64.23
   7  -2  -5 3523.88   85.88
   7   2  -5 3313.07  121.92
  -7  -2   5 3443.42  111.45
   7  -2  -4  344.98   25.73
   7   2  -4  361.60   37.71
  -7  -2   4  364.95   36.60
   7  -2  -3 2230.17   66.54
   7   2  -3 2327.96   92.89
   7  -2  -3 2282.47   56.93
   7  -2  -2  128.54   14.67
   7   2  -2  146.40   21.64
   7   2  -2  148.98   22.56
   7  -2  -2  163.08   19.39
   7   2  -1   91.41   17.77
   7  -2  -1  104.20   17.26
   7   2  -1   85.95   17.41
   7   2   0  175.40   24.39
   7  -2   0  199.25   28.93
   7   2   0  186.76   25.69
   7   2   1  119.65   21.97
   7  -2   1  119.89   26.66
   7   2   1  119.32   20.13
   7   2   2 3598.07  124.07
   7  -2   2 3698.07  162.43
   7   2   2 3455.66  112.51
   7  -2   3 1245.16  107.94
   7   2   3 1224.55   71.05
   7   2   4   85.96   20.58
   7   2   5  238.05   36.54
   7   2   6 1281.65   93.06
   7   2   7   32.66   20.19
  -7  -2  -8   26.37   16.23
  -7   2  -8   38.34   25.74
   7   2   8   10.13    9.55
  -7  -2  -9   45.98   16.57
  -7   2  -9   71.66   31.51
   7   2   9   41.06   10.35
  -7   2 -10  136.45   38.28
  -7  -2 -10  118.65   31.05
  -7   2 -11   -5.09   16.78
  -7  -2 -11   -4.71   11.48
  -7  -2 -12   50.07   22.69
  -7   2 -12   20.67   17.14
  -7   2 -13    5.13   13.55
  -7   2 -14   32.66   28.31
  -7   2 -15   38.71   17.97
  -7   2 -16  -22.62   26.87
  -7   2 -17   -5.56   21.91
   7   3 -18  -26.52   35.16
   7   3 -17   95.39   38.90
   7   3 -16  249.84   65.00
   7   3 -15  136.24   46.13
   7   3 -14   53.66   29.66
   7   3 -13   11.62   22.03
   7   3 -12  591.94   85.55
   7   3 -11   58.39   28.63
   7   3 -10  136.27   39.10
  -7  -3  10   57.44   19.49
  -7  -3   9 1326.90   94.41
   7   3  -9 1325.15  101.36
   7   3  -8  372.57   50.91
  -7  -3   8  434.45   51.66
   7   3  -7  200.04   34.17
  -7  -3   7  165.78   31.80
   7   3  -6 1080.67   79.41
  -7  -3   6 1073.44   77.27
   7   3  -5  558.49   53.35
  -7  -3   5  603.53   58.97
  -7   3   4  127.47   12.76
   7  -3  -4  129.31   17.53
  -7  -3   4  144.06   28.79
   7   3  -4  144.76   27.91
  -7   3   3 2509.89   54.33
  -7  -3   3 2661.44  120.50
   7   3  -3 2626.30  106.48
   7  -3  -3 2701.79   83.10
   7   3  -2  844.37   60.00
   7   3  -2  767.66   55.93
   7  -3  -2  742.42   44.89
   7  -3  -1  735.96   49.13
   7   3  -1  825.13   58.72
   7   3  -1  667.75   50.50
   7   3   0  269.93   32.59
   7   3   0  324.50   36.95
   7   3   1  111.27   23.14
   7   3   1  108.45   20.09
   7   3   2  598.84   54.16
   7   3   2  566.04   48.80
   7   3   3  691.90   59.14
   7   3   3  598.41   52.76
   7   3   4   -5.48    8.77
   7   3   5  646.18   63.11
  -7   3  -6  176.95   48.56
   7   3   6  141.66   33.53
  -7   3  -7  337.47   68.79
   7   3   7  288.86   49.97
  -7   3  -8  389.99   75.76
   7   3   8  301.88   53.28
  -7   3  -9   84.31   31.47
   7   3   9  101.06   33.20
  -7   3 -10   61.05   32.25
  -7   3 -11  520.37   93.66
  -7   3 -12   17.46   14.71
  -7   3 -13  153.18   54.01
  -7   3 -14  -55.28   40.96
  -7   3 -15   65.78   24.30
   7   4 -17  -94.41   58.43
  -7  -4  16  -47.85   40.06
   7   4 -16  -55.63   48.77
   7   4 -15    8.83   23.93
  -7  -4  15   22.94   12.41
  -7  -4  14  -19.33   28.25
   7   4 -14   23.39   15.89
   7   4 -13  222.22   57.22
  -7  -4  13  231.10   55.44
   7   4 -12  287.27   62.78
  -7  -4  12  292.98   60.76
   7   4 -11  -34.37   33.68
  -7  -4  11    7.85   14.25
   7   4 -10   -1.14   15.31
  -7  -4  10    3.71    9.10
   7   4  -9   28.36   17.19
  -7  -4   9   36.92   15.77
   7   4  -8    1.48   10.01
  -7  -4   8   12.16    9.62
   7   4  -7  274.88   47.15
  -7  -4   7  216.68   42.88
  -7  -4   6  429.47   60.14
   7   4  -6  499.15   61.40
   7   4  -5 1606.64  101.36
  -7  -4   5 1466.54  107.84
  -7   4   4  128.62   16.44
  -7  -4   4  174.39   38.09
   7   4  -4  140.16   27.62
   7   4  -3 1017.93   72.68
  -7   4   3  918.27   42.72
  -7  -4   3 1133.55   91.86
   7  -4  -3 1035.19   62.56
   7   4  -3 1073.40   79.83
  -7   4   2   66.39   12.24
   7   4  -2   67.79   19.40
   7  -4  -2   71.26   17.48
   7   4  -2   80.81   18.99
   7  -4  -1    4.86    4.69
   7   4  -1   24.56   13.29
   7   4  -1   18.60    9.18
   7  -4   0   29.48   13.55
   7   4   0   54.14   18.94
   7   4   0   32.52   13.76
   7   4   1   47.37   18.56
   7   4   1   64.02   18.52
   7  -4   1   38.98   13.32
   7   4   2 1658.78   98.71
   7   4   2 1605.51   90.39
  -7   4  -3  508.94   80.90
   7   4   3  475.63   53.46
   7   4   3  468.66   52.19
   7   4   4   17.59    9.84
   7   4   4   30.11   11.64
  -7   4  -5  156.93   53.04
   7   4   5  127.22   30.53
  -7   4  -6  470.68   92.92
   7   4   6  524.75   67.48
  -7   4  -7    1.88   17.43
   7   4   7   25.89   19.20
  -7   4  -8    2.60   22.96
   7   4   8  -16.05   21.56
   7   4   9  -24.04   28.77
  -7   4  -9   -8.48   25.09
  -7   4 -10   51.00   32.66
  -7   4 -11   -1.06   21.69
  -7   4 -12   77.06   33.62
  -7   4 -13  -40.40   37.99
  -7   4 -14  -82.09   49.34
   7   5 -15   35.63   28.61
  -7  -5  15   29.58   27.68
   7   5 -14  -31.79   38.84
  -7  -5  14   -9.36   23.17
   7   5 -13   -8.38   25.87
  -7  -5  13   13.45   17.17
   7   5 -12  212.76   62.75
  -7  -5  12  191.93   59.02
   7   5 -11   56.74   36.47
  -7  -5  11   35.95   29.02
   7   5 -10   40.03   31.22
  -7  -5  10   55.60   29.47
   7   5  -9  693.73   99.28
  -7  -5   9  525.74   83.84
   7   5  -8  160.32   44.80
  -7  -5   8  169.35   49.29
  -7  -5   7  132.88   42.09
   7   5  -7  119.11   38.27
   7   5  -6  319.60   53.28
  -7  -5   6  374.93   66.23
  -7  -5   5  194.33   47.89
   7   5  -5  160.47   34.53
  -7  -5   4   96.08   36.12
   7   5  -4   43.45   18.75
   7   5  -4   39.89   15.70
   7  -5  -3  879.92   70.85
   7   5  -3  797.65   80.81
   7   5  -3  943.71   75.54
   7   5  -2  254.58   40.60
   7  -5  -2  265.58   41.07
   7   5  -2  228.64   42.79
   7   5  -1  232.52   37.29
   7   5  -1  225.07   41.61
   7  -5  -1  252.40   42.67
   7  -5   0   51.40   19.63
   7   5   0   64.05   21.25
   7   5   0   86.29   24.71
  -7   5  -1   42.79   28.02
   7   5   1   29.34   16.72
   7  -5   1   20.83    7.99
   7   5   1   23.19   14.04
  -7   5  -2  138.19   57.57
   7  -5   2  118.35   29.12
   7   5   2  186.26   38.23
   7   5   2  163.07   39.01
  -7   5  -3  144.30   59.00
   7  -5   3   85.53   22.82
   7   5   3  159.12   37.26
   7   5   3  198.32   40.48
  -7   5  -4  -19.78   37.46
   7   5   4   43.66   26.77
   7  -5   4   -5.17    9.30
   7   5   4   13.28   16.08
  -7   5  -5  151.28   53.55
  -7   5  -6   37.48   29.15
  -7   5  -7  158.33   60.73
  -7   5  -8  168.77   70.04
  -7   5  -9  108.61   52.10
  -7   5 -10  -13.38   40.95
  -7   5 -11  162.30   49.54
  -7   5 -12  -18.46   32.90
  -7  -6  11   74.75   47.98
  -7  -6  10   63.32   45.33
  -7  -6   9  139.09   59.18
  -7  -6   8   64.74   40.93
  -7  -6   7  101.25   45.42
  -7  -6   6  117.68   46.84
   7   6  -6   56.01   26.49
   7   6  -5  399.70   69.09
   7   6  -4   20.44   17.12
   7   6  -3  293.87   57.44
   7  -6  -2   39.23   21.26
   7   6  -2   24.57   18.09
   7  -6  -1   16.33   18.16
   7   6  -1   27.23   23.67
   7   6   0  -10.11   11.58
   7  -6   0   41.69   24.38
   7   6   1   44.25   28.77
   7  -6   1   33.44   23.45
   7   6   2  448.42   66.62
   7  -6   2  335.93   52.55
   7  -6   3   68.86   23.56
   7   6   3  122.01   37.65
   7  -6   4   -7.11    9.12
   7  -6   5    0.65    7.04
   7  -6   6   23.68   11.22
   7  -6   7  -12.49   10.20
   7  -6   8  -13.61    9.89
   8   0 -20   65.33   35.84
   8   0 -19   14.11   19.16
   8   0 -18    7.92   22.54
   8   0 -17   24.30   26.02
   8   0 -16  286.96   64.69
   8   0 -15   -0.43   12.25
   8   0 -14  179.84   44.50
   8   0 -13  112.08   31.26
   8   0 -12  208.71   41.59
   8   0 -11  199.89   39.00
   8   0 -10    7.15   11.65
   8   0  -9  453.66   49.10
   8   0  -8 1664.02   88.80
  -8   0   8 1462.90   31.97
   8   0  -7 1188.10   72.42
   8   0  -6  889.84   59.44
   8   0  -5   74.77   16.71
   8   0  -4  172.44   23.63
   8   0  -4  174.72   15.04
   8   0  -3    1.69    4.65
   8   0  -3    7.72    4.08
   8   0  -2 1690.90   70.63
   8   0  -2 1781.70   41.22
   8   0  -1 2582.19   89.55
   8   0   0 3650.02  109.28
   8   0   1   50.02   14.08
   8   0   2 1016.21   64.99
   8   0   3 1562.41   87.97
   8   0   4   -0.04   12.53
   8   0   5   72.16   24.34
   8   0   6  436.10   58.55
   8   0   7 4698.61  217.12
   8   0   8   46.31   13.46
  -8   0  -9  447.75   61.00
  -8   0 -10   -1.45   10.52
  -8   0 -11   47.82   24.35
  -8   0 -12    6.35   16.33
  -8   0 -13  -13.32   19.64
  -8   0 -14    2.74   10.07
  -8   0 -15  107.50   37.21
  -8   0 -16   15.22   15.32
  -8   0 -17  -11.60   22.35
   8   1 -20   52.86   27.58
   8  -1 -20   52.58   27.64
   8   1 -19   69.81   37.06
   8  -1 -19   60.65   33.99
   8   1 -18   23.69   24.31
   8  -1 -18   63.40   37.82
   8   1 -17   40.78   26.85
   8  -1 -17   59.35   30.68
   8   1 -16   35.47   26.78
   8  -1 -16   20.31   12.27
   8   1 -15   42.24   23.56
   8  -1 -15   53.36   28.59
   8   1 -14  184.87   48.34
   8  -1 -14  164.60   40.02
   8   1 -13   14.77   13.95
   8  -1 -13   50.32   23.11
   8   1 -12   60.64   27.47
   8  -1 -12   64.01   23.06
   8   1 -11 1283.59  103.63
   8  -1 -11 1156.27   85.13
   8   1 -10   34.03   20.42
   8  -1 -10   34.89   16.57
   8  -1  -9  442.53   45.95
   8   1  -9  438.28   53.15
   8  -1  -8  110.36   21.98
   8   1  -8  137.91   29.77
  -8  -1   8  119.85   16.71
   8  -1  -7 1816.79   83.98
   8   1  -7 1891.04   98.90
  -8  -1   7 1698.99   60.56
  -8  -1   6  904.11   43.65
   8  -1  -6  920.23   56.19
   8   1  -6  966.49   65.13
   8  -1  -5  947.03   54.81
   8   1  -5  906.07   60.95
   8   1  -4 1496.27   75.98
   8  -1  -4 1524.80   66.25
   8   1  -3 3394.51   91.19
   8  -1  -3 3217.19   93.58
   8   1  -3 3231.89  105.95
   8  -1  -3 3106.83   32.93
   8   1  -2  107.01   16.57
   8  -1  -2   95.82   16.70
   8   1  -2   88.96   17.66
   8   1  -1 1053.29   57.58
   8  -1  -1  998.20   54.31
   8   1  -1  913.76   54.82
  -8   1   1  910.37   26.62
   8   1   0 1191.03   66.75
   8   1   0 1153.73   64.28
   8  -1   0 1145.66   61.44
   8  -1   1  731.16   53.90
   8   1   1  711.59   51.71
   8  -1   2 3490.89  131.29
   8   1   2 3364.83  117.86
   8  -1   3  217.58   36.24
   8   1   3  201.71   31.00
   8   1   4  440.20   49.31
   8  -1   4  537.29   62.70
   8  -1   5  787.71   82.10
   8   1   5  725.51   66.77
   8  -1   6 1668.94  136.44
   8   1   6 1493.25  103.80
   8   1   7 1204.89  101.60
   8   1   8   88.89   29.15
  -8  -1  -9   52.81   23.82
  -8   1  -9   82.01   31.97
   8   1   9    6.46   26.23
  -8  -1 -10 1380.05  114.70
  -8   1 -10 1431.89  126.40
  -8  -1 -11   34.68   19.99
  -8   1 -11   41.35   24.55
  -8   1 -12  127.44   41.57
  -8  -1 -12  173.64   44.08
  -8  -1 -13   29.35   17.11
  -8   1 -13    4.68   15.51
  -8  -1 -14   47.85   21.69
  -8   1 -14    7.23   14.65
  -8  -1 -15   13.31   17.87
  -8   1 -15  125.99   44.45
  -8  -1 -16  218.49   53.39
  -8   1 -16   97.97   31.70
  -8   1 -17  -23.45   28.07
   8   2 -19   -3.97   22.56
   8   2 -18  -40.69   34.64
   8   2 -17  -26.02   33.10
   8  -2 -17   25.73   20.60
   8   2 -16  163.41   44.59
   8  -2 -16  193.72   47.69
   8   2 -15   15.51   15.90
   8  -2 -15   22.43   19.77
   8   2 -14  151.86   44.96
   8  -2 -14  156.17   39.06
   8   2 -13  104.15   39.15
   8  -2 -13   88.94   28.64
   8   2 -12  178.49   45.50
   8  -2 -12  150.47   32.32
   8   2 -11  140.56   37.21
   8  -2 -11  168.50   31.29
   8  -2 -10   17.02   11.69
   8   2 -10   35.24   22.94
  -8  -2   9  285.16   35.96
   8  -2  -9  306.29   35.65
   8   2  -9  312.02   47.05
   8  -2  -8 1205.71   65.51
   8   2  -8 1087.79   83.21
  -8  -2   8 1130.65   68.59
   8  -2  -7  888.68   53.09
   8   2  -7  828.77   69.54
  -8  -2   7  861.95   57.90
   8  -2  -6  694.64   44.39
   8   2  -6  652.61   58.18
  -8  -2   6  691.90   51.42
   8   2  -5   49.49   16.19
  -8  -2   5   46.87   14.38
   8  -2  -5   33.13    9.42
   8  -2  -4  114.31   16.76
   8   2  -4  129.00   25.20
   8  -2  -3    6.73    3.30
   8   2  -3   16.60    7.91
   8  -2  -3   11.41    5.78
   8   2  -3   12.33    8.63
   8   2  -2 1304.63   67.77
   8  -2  -2 1220.43   59.08
   8   2  -2 1255.21   69.07
   8   2  -1 1864.80   81.65
   8   2  -1 1808.42   81.59
   8  -2  -1 1986.68   85.14
   8   2   0 2773.77  104.82
   8  -2   0 2866.70  114.74
   8   2   0 2760.71  104.99
   8   2   1   31.05   12.93
   8   2   1   31.12   10.55
   8  -2   2  752.40   73.64
   8   2   2  688.48   54.65
   8  -2   3 1085.52  101.06
   8   2   3  990.94   69.24
   8  -2   4  -31.64   30.94
   8   2   4   24.07   14.04
   8   2   5   12.02   10.86
   8   2   6  341.95   52.08
   8   2   7 3137.41  161.61
  -8  -2  -8   82.81   27.68
  -8   2  -8   69.07   32.27
   8   2   8   28.84   19.70
  -8  -2  -9  357.68   57.03
  -8   2  -9  300.90   62.02
   8   2   9  295.25   59.25
  -8  -2 -10   -0.24   17.75
  -8   2 -10    5.44   16.32
   8   2  10  -17.66   25.56
  -8   2 -11   26.82   20.67
  -8  -2 -11    9.41   11.02
  -8   2 -12   -0.58   20.65
  -8   2 -13  -23.63   24.94
  -8   2 -14   18.24   25.04
  -8   2 -15   54.27   26.00
  -8   2 -16  -39.00   34.27
   8   3 -18  -70.70   45.96
   8   3 -17  -52.64   44.06
   8   3 -16  -56.63   42.80
   8   3 -15   -0.96   23.73
   8   3 -14   39.00   21.01
   8   3 -13   39.09   28.37
   8   3 -12   67.37   31.56
  -8  -3  12   25.39    9.12
  -8  -3  11  521.82   64.01
   8   3 -11  535.26   70.54
   8   3 -10  -13.09   22.06
  -8  -3  10   -2.30   12.12
   8   3  -9  225.77   41.66
  -8  -3   9  200.41   35.90
   8   3  -8   19.87    7.48
  -8  -3   8   38.12   15.72
   8   3  -7 1025.98   82.38
  -8  -3   7 1012.26   78.02
   8   3  -6  448.28   52.27
  -8  -3   6  406.00   49.27
   8   3  -5  470.40   53.05
  -8  -3   5  447.14   50.16
  -8  -3   4  828.61   69.24
   8  -3  -4  796.64   42.58
   8   3  -4  853.41   66.93
   8   3  -3 1848.06   93.80
  -8   3   3 1723.85   40.35
   8   3  -3 1711.58   90.62
   8  -3  -3 1702.67   64.52
   8   3  -2   65.28   18.56
   8  -3  -2   47.08   11.38
   8   3  -2   55.75   15.63
   8  -3  -1  441.65   38.62
   8   3  -1  493.61   47.74
   8   3  -1  425.18   42.21
   8   3   0  495.61   47.94
   8   3   0  475.60   46.71
   8   3   1  358.30   43.61
   8   3   1  359.75   40.47
   8   3   2 1874.57   98.98
   8   3   2 1804.61   92.18
   8   3   3   90.68   21.80
   8   3   3   88.84   22.43
   8   3   4  219.84   36.09
   8   3   5  302.63   44.13
   8   3   6  793.05   78.74
  -8   3  -7  649.91   93.36
   8   3   7  613.73   73.94
  -8   3  -8   65.45   38.52
   8   3   8   58.28   26.68
  -8   3  -9   15.83   19.35
   8   3   9   -3.69   25.08
  -8   3 -10  813.72  119.87
   8   3  10  607.59   91.08
  -8   3 -11  -39.10   36.04
  -8   3 -12  121.69   47.21
  -8   3 -13    8.92   16.03
  -8   3 -14   44.25   25.72
  -8   3 -15   -4.64   31.52
   8   4 -16   50.81   26.62
   8   4 -15  -54.47   44.74
  -8  -4  15  -23.39   21.06
   8   4 -14    1.29   30.71
  -8  -4  14   35.96   21.46
  -8  -4  13   23.17   19.05
   8   4 -13  -31.09   32.00
   8   4 -12   24.76   14.91
  -8  -4  12   33.35   18.20
   8   4 -11   22.26   12.25
  -8  -4  11   31.96   20.21
   8   4 -10   20.12   19.85
  -8  -4  10    2.88    7.84
   8   4  -9  107.47   34.37
  -8  -4   9  128.80   36.04
   8   4  -8  492.85   66.97
  -8  -4   8  444.12   62.24
   8   4  -7  387.78   55.80
  -8  -4   7  382.54   57.94
   8   4  -6  313.13   49.64
  -8  -4   6  289.99   49.90
  -8  -4   5   17.15   12.51
   8   4  -5   30.13   18.29
   8   4  -4    3.54   14.55
   8   4  -4   28.82   14.04
   8  -4  -3    6.17    6.84
   8   4  -3    5.04    7.93
   8   4  -3    2.41    6.09
   8   4  -2  426.07   47.07
   8  -4  -2  511.01   45.91
   8   4  -2  520.57   56.53
   8   4  -1  772.14   68.61
   8   4  -1  699.05   61.79
   8  -4  -1  727.02   59.03
   8   4   0 1269.63   85.76
   8   4   0 1188.61   78.74
   8  -4   0 1266.19   82.12
   8   4   1   34.68   17.74
   8   4   1   31.74   14.78
   8   4   2  301.39   44.81
   8   4   2  308.24   42.50
   8   4   3  461.08   56.33
   8   4   3  453.00   54.07
   8   4   4    1.35    7.05
  -8   4  -4   36.97   31.92
  -8   4  -5   37.47   30.15
   8   4   5    5.83   13.91
  -8   4  -6  185.55   59.99
   8   4   6  142.14   37.98
  -8   4  -7 1675.81  181.66
   8   4   7 1381.45  121.05
  -8   4  -8   -9.85   28.81
   8   4   8    6.85   11.73
  -8   4  -9  106.59   40.45
   8   4   9  100.16   33.08
  -8   4 -10  -38.66   38.68
  -8   4 -11   -1.56   25.22
  -8   4 -12   80.71   50.57
  -8   4 -13 -114.52   61.25
   8   5 -14    8.17   28.51
  -8  -5  14   27.27   20.43
   8   5 -13    6.90   19.19
  -8  -5  13    5.70   15.66
   8   5 -12   12.93   22.20
  -8  -5  12   44.26   28.99
   8   5 -11  241.18   67.26
  -8  -5  11  243.06   63.28
  -8  -5  10   25.24   27.58
   8   5 -10   42.78   33.16
  -8  -5   9  118.44   41.15
   8   5  -9  103.27   44.58
  -8  -5   8   65.86   33.47
   8   5  -8   60.84   34.60
   8   5  -7  353.47   61.45
  -8  -5   7  358.57   65.07
  -8  -5   6  120.79   39.07
   8   5  -6   92.21   30.35
   8   5  -5  105.80   29.62
   8   5  -5  140.52   32.75
   8   5  -4  257.55   43.52
   8   5  -4  244.57   46.81
   8   5  -3  523.29   67.38
   8   5  -3  535.36   60.68
   8  -5  -3  498.70   52.57
   8  -5  -2   45.16   17.97
   8   5  -2   34.62   20.71
   8   5  -2   21.19   13.30
   8   5  -1  125.32   32.58
   8  -5  -1  147.52   32.82
   8   5  -1   97.83   26.32
   8  -5   0  170.05   36.09
   8   5   0  151.42   35.64
   8   5   0  152.72   32.61
  -8   5  -1  151.00   58.21
   8   5   1  125.40   32.23
   8  -5   1  128.63   31.09
   8   5   1  111.95   29.22
  -8   5  -2  566.77  109.17
   8   5   2  559.73   67.96
   8   5   2  653.23   72.94
   8  -5   2  402.40   52.27
  -8   5  -3   34.74   32.36
   8  -5   3    9.58    6.68
   8   5   3   36.41   18.87
   8   5   3   27.51   16.43
  -8   5  -4   49.44   28.45
   8   5   4   97.45   34.10
  -8   5  -5   83.36   49.82
   8   5   5   79.00   32.19
  -8   5  -6  177.77   61.13
  -8   5  -7  135.86   53.86
  -8   5  -8   39.68   39.52
  -8   5  -9   48.88   46.66
  -8   5 -10  410.76   99.40
  -8   5 -11  -85.04   63.97
  -8  -6  10   65.58   40.53
  -8  -6   9  122.42   51.00
  -8  -6   8  201.22   61.70
   8   6  -7   66.27   30.02
   8   6  -6   42.79   20.37
   8   6  -5  -32.13   26.52
   8   6  -4    1.83   18.30
   8   6  -3   20.41   23.78
   8  -6  -2  156.95   38.52
   8   6  -2  179.45   45.12
   8  -6  -1  178.09   43.01
   8   6  -1  192.46   47.76
   8   6   0  303.04   57.38
   8  -6   0  363.99   60.53
   8   6   1   13.69   20.49
   8  -6   1   33.79   20.94
   8  -6   2   57.77   22.20
   8   6   2  110.21   35.83
   8  -6   3   55.60   20.61
   8   6   3  158.62   42.26
   8  -6   4   -1.24    6.89
   8  -6   5   -2.08    4.73
   8  -6   6    0.31    3.96
   8  -6   7   55.11   15.60
   9   0 -20  -15.52   21.55
   9   0 -19  535.03   87.63
   9   0 -18  385.24   72.72
   9   0 -17   19.74   12.14
   9   0 -16  128.75   40.73
   9   0 -15   -6.95   12.16
   9   0 -14  310.73   58.43
   9   0 -13   -3.51   12.75
   9   0 -12  373.07   54.17
   9   0 -11 1214.18   89.46
   9   0 -10  372.14   47.64
   9   0  -9  434.31   47.53
   9   0  -8   67.24   15.38
   9   0  -7   51.03   15.10
   9   0  -6   30.56   12.16
   9   0  -6   28.70    6.63
   9   0  -5   71.72   10.02
   9   0  -5   80.46   18.41
   9   0  -4 1648.91   55.79
   9   0  -4 1561.34   75.72
   9   0  -3 1321.58   68.25
   9   0  -2   62.49    8.20
   9   0  -2   62.65   14.73
   9   0  -1 1540.68   76.00
   9   0   0   90.03   19.65
   9   0   1  162.77   27.74
   9   0   2  321.84   38.99
   9   0   3  134.19   27.23
   9   0   4 3383.32  149.53
   9   0   5 2093.19  126.83
   9   0   6   91.39   29.79
   9   0   7  266.86   51.48
   9   0   8  210.99   48.31
   9   0   9  -24.29   38.20
  -9   0 -10  161.09   42.04
  -9   0 -11   78.32   29.49
  -9   0 -12  727.27   95.11
  -9   0 -13  -18.52   25.04
  -9   0 -14  286.25   58.90
  -9   0 -15   65.78   33.47
  -9   0 -16   27.33   11.04
  -9   0 -17  -26.08   27.37
   9   1 -20   30.08   19.13
   9  -1 -20   26.40   22.95
   9   1 -19  -43.27   34.19
   9  -1 -19  -34.67   31.54
   9   1 -18  -39.29   35.63
   9  -1 -18   27.30   24.07
   9   1 -17  -12.22   18.10
   9  -1 -17  -22.86   23.23
   9   1 -16  350.38   69.54
   9  -1 -16  449.10   72.72
   9   1 -15  114.36   41.61
   9  -1 -15  117.72   36.44
   9   1 -14  499.93   78.04
   9  -1 -14  484.91   68.13
   9   1 -13   -5.03   13.29
   9  -1 -13    6.06   15.57
   9   1 -12  516.50   68.36
   9  -1 -12  441.75   55.36
   9  -1 -11   32.10   16.87
   9   1 -11   42.80   22.02
  -9  -1  10  770.56   45.86
   9  -1 -10  841.78   66.69
   9   1 -10  835.34   76.78
   9  -1  -9    8.55    5.09
   9   1  -9    3.27   15.51
  -9  -1   9   28.05    7.94
   9  -1  -8  856.86   62.04
   9   1  -8  889.69   72.38
  -9  -1   8  784.09   41.50
   9  -1  -7   14.04    8.47
   9   1  -7    4.39    5.98
  -9  -1   7   17.93    6.43
   9  -1  -6  722.81   53.41
   9   1  -6  752.83   59.93
   9  -1  -5  913.32   56.81
   9   1  -5  946.39   65.33
   9   1  -4 1017.37   53.03
   9  -1  -4  969.80   56.74
   9   1  -4 1054.04   66.09
   9   1  -3  980.47   53.10
   9  -1  -3  874.13   52.87
   9   1  -3  921.34   60.86
   9   1  -2 1004.24   57.30
   9  -1  -2  963.36   57.51
   9   1  -2  893.74   57.48
   9   1  -1 2611.62   99.44
  -9   1   1 2351.06   44.89
   9  -1  -1 2462.52   93.89
   9   1  -1 2457.09   96.84
   9  -1   0 2358.58   97.34
   9   1   0 2408.01   99.54
   9  -1   1   67.26   17.39
   9   1   1   83.55   20.23
   9  -1   2 2899.46  127.93
   9   1   2 2759.48  113.25
   9  -1   3  112.87   30.83
   9   1   3   78.83   21.22
   9  -1   4   86.38   28.51
   9   1   4   75.59   23.11
   9   1   5  317.18   46.62
   9  -1   5  280.12   50.71
   9  -1   6    2.34   16.04
   9   1   6   46.49   25.86
   9  -1   7  558.68   84.48
   9   1   7  541.59   71.99
   9   1   8   10.05   10.56
  -9  -1  -9  100.16   30.93
   9   1   9   44.25   17.35
  -9   1  -9  105.04   35.99
  -9  -1 -10  277.38   52.83
  -9   1 -10  326.11   62.35
   9   1  10  207.30   48.03
  -9  -1 -11  600.48   82.71
  -9   1 -11  617.39   89.61
  -9   1 -12  236.77   56.62
  -9  -1 -12  215.52   51.92
  -9  -1 -13  -35.19   27.30
  -9   1 -13  -30.67   29.40
  -9  -1 -14   41.89   29.36
  -9   1 -14    3.89   15.23
  -9  -1 -15  156.22   41.97
  -9   1 -15  144.19   47.31
  -9   1 -16   32.90   14.63
   9   2 -19  350.00   72.01
   9   2 -18  160.27   42.83
   9   2 -17  -37.56   38.50
   9   2 -16  116.25   40.58
   9  -2 -16  120.15   36.41
   9   2 -15  -13.96   21.89
   9  -2 -15   18.01   16.88
   9  -2 -14  222.74   44.42
   9   2 -14  234.66   56.69
   9  -2 -13   14.24   10.09
   9   2 -13   33.89   27.40
  -9  -2  12  211.27   35.49
   9   2 -12  257.66   52.86
   9  -2 -12  265.99   41.24
  -9  -2  11  796.89   65.49
   9  -2 -11  927.62   71.93
   9   2 -11  929.55   91.17
   9   2 -10  229.88   40.74
   9  -2 -10  295.70   37.84
  -9  -2  10  261.49   34.91
   9  -2  -9  371.38   40.64
   9   2  -9  377.61   52.14
  -9  -2   9  334.42   37.89
   9  -2  -8   78.45   18.17
   9   2  -8   44.16   14.79
  -9  -2   8   82.35   18.35
   9   2  -7   32.87   10.97
  -9  -2   7   55.30   15.85
   9  -2  -7   55.00   14.28
   9   2  -6   31.98   15.91
  -9  -2   6   21.16    9.51
   9  -2  -6   14.94    5.89
   9  -2  -5   68.72   14.69
   9   2  -5   67.11   21.03
   9   2  -4 1135.72   65.35
   9  -2  -4 1111.82   58.71
   9   2  -4 1068.02   72.20
   9   2  -3  988.42   60.71
   9  -2  -3  990.59   56.20
   9   2  -3  989.97   67.29
   9  -2  -3  885.38   33.71
   9   2  -2   49.43   13.81
   9  -2  -2   52.93   15.28
   9   2  -2   41.60   15.85
   9   2  -1 1114.93   68.19
   9  -2  -1 1127.76   70.89
   9   2  -1 1020.60   64.77
   9   2   0   75.90   19.25
   9  -2   0   47.24   12.75
   9   2   0   47.47   14.56
   9   2   1   79.50   20.08
   9  -2   1  116.80   29.02
   9   2   1  111.56   23.42
   9   2   2  184.04   30.66
   9  -2   2  218.96   42.10
   9  -2   3   59.21   21.55
   9   2   3   94.05   23.74
   9  -2   4 2720.71  179.17
   9   2   4 2217.04  119.17
   9   2   5 1420.07  100.90
   9   2   6   88.57   29.77
   9   2   7  191.69   42.87
  -9   2  -8  207.18   51.94
   9   2   8  198.06   44.06
  -9  -2  -9   52.86   25.74
  -9   2  -9   57.06   33.23
   9   2   9   -8.08   22.95
  -9  -2 -10  121.85   36.98
  -9   2 -10   92.65   35.75
   9   2  10   24.35   13.44
  -9   2 -11   72.26   33.35
  -9  -2 -11   49.65   22.38
  -9   2 -12  531.46   93.16
  -9   2 -13  -30.70   30.49
  -9   2 -14  179.97   52.47
  -9   2 -15   41.37   32.29
   9   3 -18 -144.55   68.72
   9   3 -17  -85.75   56.13
   9   3 -16  145.99   45.83
   9   3 -15   33.80   12.28
   9   3 -14  199.46   54.19
   9   3 -13  -33.45   34.83
  -9  -3  13  -15.03   16.60
   9   3 -12  182.33   41.43
  -9  -3  12  250.76   45.48
   9   3 -11  -16.66   21.14
  -9  -3  11    6.48    8.75
   9   3 -10  405.22   59.44
  -9  -3  10  411.34   53.95
   9   3  -9  -11.71   15.17
  -9  -3   9    0.07    4.93
   9   3  -8  379.01   54.24
  -9  -3   8  441.20   53.43
   9   3  -7    9.60   13.36
  -9  -3   7   27.61   14.90
  -9  -3   6  359.73   47.29
   9   3  -6  400.92   51.78
   9   3  -5  523.55   56.78
   9   3  -4  517.74   51.89
   9  -3  -4  455.81   31.45
   9   3  -4  477.11   51.89
   9   3  -3  472.04   49.37
   9   3  -3  428.87   47.45
   9  -3  -3  405.43   30.75
   9   3  -2  511.54   50.71
   9   3  -2  480.22   48.71
   9  -3  -2  435.67   34.41
   9  -3  -1 1322.79   68.10
   9   3  -1 1291.32   79.77
   9   3  -1 1356.50   82.65
   9   3   0 1341.25   84.24
   9   3   0 1309.23   81.20
   9   3   1   42.60   17.96
   9   3   1   45.94   17.52
   9   3   2 1483.20   94.59
   9   3   2 1305.01   84.23
   9   3   3   45.59   17.35
   9   3   4   26.30   13.49
   9   3   5  128.04   30.08
   9   3   6   36.74   25.83
  -9   3  -7  299.38   64.56
   9   3   7  223.76   46.81
  -9   3  -8   40.67   27.89
   9   3   8  -10.88   16.93
  -9   3  -9   35.80   23.80
   9   3   9   33.64   10.23
  -9   3 -10  161.74   55.69
   9   3  10   94.08   33.31
  -9   3 -11  339.43   79.85
  -9   3 -12  137.03   51.61
  -9   3 -13   21.27   24.62
  -9   3 -14   28.78   29.68
   9   4 -16  -25.54   36.91
   9   4 -15  -24.15   34.81
   9   4 -14   76.94   33.82
   9   4 -13  -15.34   26.86
  -9  -4  13   18.26   16.13
   9   4 -12   93.10   35.28
  -9  -4  12  104.52   33.83
   9   4 -11  388.25   70.07
  -9  -4  11  397.37   65.42
   9   4 -10  114.90   36.45
  -9  -4  10  121.10   36.56
   9   4  -9  188.58   46.15
  -9  -4   9  146.24   36.91
  -9  -4   8   46.15   23.14
   9   4  -8   63.85   29.32
  -9  -4   7   61.46   26.60
   9   4  -7   46.69   23.89
  -9  -4   6   19.58   13.97
   9   4  -6   42.30   23.67
   9   4  -5   15.74    9.46
   9   4  -5   46.16   16.81
   9   4  -4  409.61   53.49
   9   4  -4  398.84   52.21
   9   4  -3  348.34   49.05
   9   4  -3  330.32   44.82
   9  -4  -3  380.81   36.87
   9   4  -2   19.07   15.93
   9   4  -2   29.60   15.30
   9  -4  -2   19.07   10.34
   9   4  -1  424.81   51.96
   9   4  -1  401.80   49.04
   9  -4  -1  434.08   45.93
   9  -4   0   -0.55    5.53
   9   4   0    7.87   10.34
   9   4   1   39.48   20.16
   9   4   1   50.59   20.15
   9   4   2  122.77   32.28
   9   4   2   93.77   24.37
   9   4   3   14.40   15.78
   9   4   3   33.67   16.28
   9   4   4  861.25   84.23
  -9   4  -5  698.56  108.48
   9   4   5  577.62   71.79
  -9   4  -6   34.37   30.79
   9   4   6   71.54   30.73
  -9   4  -7   87.07   50.46
   9   4   7   60.53   31.61
  -9   4  -8   62.17   39.10
   9   4   8   59.82   28.82
  -9   4  -9  -30.32   37.63
   9   4   9  -17.17   27.21
  -9   4 -10   10.29   25.90
  -9   4 -11   18.37   27.89
  -9   4 -12  412.87   94.78
   9   5 -14  120.20   52.06
   9   5 -13   46.16   36.94
  -9  -5  13    4.91   15.06
   9   5 -12   85.08   45.89
  -9  -5  12   77.45   35.64
  -9  -5  11   32.53   29.61
   9   5 -11   30.11   32.86
  -9  -5  10  173.20   49.18
   9   5 -10  232.15   65.07
  -9  -5   9   50.79   31.98
   9   5  -9   84.91   40.81
  -9  -5   8  177.37   46.86
   9   5  -8  241.61   56.87
  -9  -5   7   12.49   17.61
   9   5  -7  -23.87   24.09
   9   5  -6   62.33   23.47
   9   5  -6   92.07   29.04
   9   5  -5  146.62   37.77
   9   5  -5  170.56   39.40
   9   5  -4  116.64   31.92
   9   5  -4  119.80   32.46
   9  -5  -3  147.16   28.70
   9   5  -3  124.91   34.85
   9   5  -3  139.70   34.50
   9  -5  -2  186.94   34.62
   9   5  -2  178.31   42.05
   9   5  -2  140.76   32.69
   9   5  -1  398.22   59.13
   9   5  -1  372.20   52.36
   9  -5  -1  490.72   58.26
  -9   5   0  419.15   79.78
   9   5   0  460.00   63.00
   9  -5   0  482.87   60.16
   9   5   0  459.61   59.34
  -9   5  -1   50.32   38.85
   9   5   1   18.95   20.86
   9  -5   1   24.58   14.01
   9   5   1   19.83   15.29
  -9   5  -2  384.78   88.01
   9   5   2  421.42   62.38
   9   5   2  413.58   61.48
   9  -5   2  269.82   43.05
  -9   5  -3    0.52   20.77
   9  -5   3  -10.86   12.45
   9   5   3    1.35   11.28
   9   5   3    2.25   11.73
  -9   5  -4   44.47   36.88
   9   5   4   20.15   22.39
  -9   5  -5   48.82   42.96
   9   5   5   78.57   35.97
  -9   5  -6  -47.51   50.23
   9   5   6    6.39   19.41
  -9   5  -7   43.28   32.29
  -9   5  -8   12.79   26.78
  -9   5  -9   30.55   40.00
  -9   5 -10  117.28   62.31
  -9  -6  10  100.72   48.10
  -9  -6   9  113.14   50.80
   9   6  -9  -10.56   32.16
   9   6  -8  -42.20   36.04
   9   6  -7  -23.62   28.49
   9   6  -6   -9.15   19.64
   9   6  -5   -8.10   17.24
   9   6  -4   75.99   32.88
   9   6  -3   78.09   33.71
   9   6  -2   47.23   26.28
   9   6  -1  120.03   41.02
   9   6   0   40.78   28.36
   9  -6   0   30.28   22.04
   9   6   1   62.38   31.66
   9  -6   1   12.84   15.78
   9   6   2   48.58   29.65
   9  -6   2   38.47   19.42
   9  -6   3    3.56    8.41
   9  -6   4   64.48   20.22
   9  -6   5   42.00   13.97
   9  -6   6    0.37    4.13
  10   0 -20  -59.14   37.36
  10   0 -19  -32.83   32.78
  10   0 -18  -15.70   26.81
  10   0 -17  -19.29   22.64
  10   0 -16   -0.19   11.90
  10   0 -15   88.88   30.54
  10   0 -14  930.31   93.57
  10   0 -13  303.95   51.93
  10   0 -12   13.45   13.27
  10   0 -11    4.88   10.20
  10   0 -10  344.52   46.04
  10   0  -9  257.62   37.92
  10   0  -8    0.39    8.44
  10   0  -7 1935.96   99.73
  10   0  -7 2021.81   57.45
  10   0  -6 2502.22   62.07
  10   0  -6 2735.76  115.04
  10   0  -5  699.75   36.98
  10   0  -5  718.75   56.42
  10   0  -4  244.47   32.33
  10   0  -3  174.59   25.87
  10   0  -2  419.29   41.17
  10   0  -1 1242.03   73.17
  10   0   0  237.32   33.30
  10   0   1 1543.81   86.80
  10   0   2  860.42   68.66
  10   0   3 1339.59   94.05
  10   0   4   27.55   12.38
  10   0   5  156.21   40.27
  10   0   6  325.89   57.48
  10   0   7  335.05   59.55
  10   0   8  267.09   58.32
  10   0   9 1955.82  174.14
 -10   0 -10  406.59   66.78
 -10   0 -11  110.22   37.32
 -10   0 -12  295.03   61.66
 -10   0 -13    3.96   18.60
 -10   0 -14   18.72   15.14
 -10   0 -15   35.63   26.48
 -10   0 -16  -33.24   32.41
  10  -1 -20  -52.14   36.92
  10  -1 -19   60.91   28.02
  10   1 -19    8.65   27.82
  10  -1 -18  -24.07   30.86
  10   1 -18  -30.62   33.85
  10  -1 -17  -13.92   25.13
  10   1 -17  -38.60   34.99
  10  -1 -16   76.85   26.63
  10   1 -16   81.44   32.04
  10  -1 -15   79.95   28.72
  10   1 -15   58.74   25.66
  10  -1 -14   13.15   15.95
  10   1 -14    0.34   18.01
  10  -1 -13   29.94   15.62
  10   1 -13   28.44   20.52
  10  -1 -12   74.85   22.98
  10   1 -12  101.23   26.68
  10  -1 -11  904.66   74.63
  10   1 -11  925.83   86.07
  10  -1 -10  468.77   52.58
  10   1 -10  432.68   55.26
  10  -1  -9 1315.38   83.40
  10   1  -9 1268.87   91.81
  10  -1  -8  168.23   28.62
  10   1  -8  164.22   32.65
  10  -1  -7 1782.83   92.46
  10   1  -7 1645.37   96.41
  10  -1  -6   47.73   15.17
  10   1  -6   67.09   20.05
  10   1  -5 1111.48   58.23
  10  -1  -5 1118.79   67.40
  10   1  -5 1205.56   77.94
  10   1  -4  147.06   21.81
  10  -1  -4  134.50   22.52
  10   1  -4  111.05   23.26
  10   1  -3 1549.71   73.44
  10   1  -3 1441.69   79.70
  10  -1  -3 1344.69   72.48
  10   1  -2  215.85   29.39
  10  -1  -2  216.15   29.70
  10   1  -2  177.45   27.57
  10  -1  -1   35.88   15.74
  10   1  -1   13.72    8.59
  10  -1   0 1974.92   97.63
  10   1   0 2006.16   97.82
  10  -1   1  537.23   54.87
  10   1   1  538.11   51.42
  10  -1   2 1890.01  111.10
  10   1   2 1799.72   99.74
  10  -1   3   79.44   28.01
  10   1   3   37.62   16.01
  10  -1   4 1164.56   99.43
  10   1   4 1111.48   88.70
  10  -1   5 1431.22  119.82
  10   1   5 1323.94  102.98
  10  -1   6   12.93   11.92
  10   1   6   55.66   27.84
  10  -1   7  238.47   54.74
  10   1   7  208.75   47.04
  10   1   8    8.18   21.86
  10   1   9  199.96   51.53
 -10  -1 -10  105.77   34.46
 -10   1 -10  109.59   40.07
  10   1  10   34.06   19.26
 -10  -1 -11  206.45   50.47
 -10   1 -11  260.05   60.48
 -10  -1 -12   -3.08   16.10
 -10   1 -12   -5.52   19.09
 -10  -1 -13   17.33   17.56
 -10   1 -13   10.56   22.11
 -10  -1 -14  116.92   42.11
 -10   1 -14   40.89   21.58
 -10   1 -15   36.07   26.40
  10   2 -18 -110.29   59.73
  10   2 -17  -52.38   40.57
  10   2 -16  -19.19   24.76
  10  -2 -15   61.16   22.03
  10   2 -15   67.50   30.59
  10  -2 -14  750.59   80.25
  10   2 -14  734.62   95.12
  10  -2 -13  237.21   41.03
  10   2 -13  141.42   35.02
  10  -2 -12   -2.70   11.71
  10   2 -12  -39.99   31.60
  10  -2 -11   10.07    6.18
  10   2 -11   -7.85   21.69
  10   2 -10  252.68   44.26
  10  -2 -10  264.84   36.97
 -10  -2  10  233.34   31.53
  10   2  -9  180.64   37.54
  10  -2  -9  203.94   31.37
 -10  -2   9  193.94   28.30
  10   2  -8   -8.99   13.96
 -10  -2   8   -2.50    4.55
  10  -2  -8   13.95   10.48
  10  -2  -7 1398.32   74.43
  10   2  -7 1392.73   97.79
  10  -2  -6 1943.52   84.28
  10   2  -6 1983.55  112.66
  10   2  -5  458.86   44.46
  10  -2  -5  463.07   40.54
  10   2  -5  467.37   52.50
  10   2  -4  193.16   28.60
  10  -2  -4  140.85   22.42
  10   2  -4  134.52   26.89
  10   2  -3  120.36   23.38
  10  -2  -3   82.85   10.03
  10   2  -3   77.88   18.54
  10  -2  -3  112.35   21.86
  10   2  -2  356.42   40.38
  10  -2  -2  304.26   36.74
  10   2  -2  279.47   36.17
  10   2  -1 1023.99   70.97
  10  -2  -1  920.48   69.96
  10   2  -1  796.02   62.88
  10   2   0  164.78   29.00
  10  -2   0  133.72   28.11
  10   2   0  160.84   29.04
  10  -2   1 1126.33   91.85
  10   2   1  969.44   71.21
  10  -2   2  626.95   73.49
  10   2   2  580.03   57.36
  10  -2   3  879.60   96.04
  10   2   3  842.85   71.77
  10  -2   4   16.35   12.57
  10   2   4   15.79   13.69
  10   2   5   69.70   21.45
  10   2   6  235.02   47.02
  10   2   7  243.36   50.12
  10   2   8  203.35   50.38
 -10  -2  -9 1619.34  128.97
 -10   2  -9 1544.81  143.45
  10   2   9 1275.76  129.05
 -10  -2 -10  368.99   69.09
 -10   2 -10  292.46   67.00
  10   2  10  274.84   62.07
 -10   2 -11  105.93   51.09
 -10   2 -12  285.34   71.57
 -10   2 -13   10.32   14.07
 -10   2 -14   16.78   18.44
  10   3 -17    2.25   14.13
  10   3 -16   -3.76   19.67
  10   3 -15   11.10   22.12
  10   3 -14  -14.01   23.28
  10   3 -13  -39.46   32.41
  10   3 -12   36.48   20.72
  10   3 -11  455.60   66.70
 -10  -3  11  478.95   58.94
  10   3 -10  262.68   48.99
 -10  -3  10  234.02   41.15
  10   3  -9  607.96   72.51
 -10  -3   9  634.85   64.14
  10   3  -8   83.70   26.87
 -10  -3   8   90.92   24.50
 -10  -3   7  799.08   69.36
  10   3  -7  840.35   80.87
  10   3  -6   36.87   22.36
  10   3  -5  609.99   59.54
  10   3  -5  615.05   64.76
  10   3  -4  101.37   24.97
  10   3  -4   67.17   20.39
  10   3  -3  785.17   67.53
  10   3  -3  765.77   66.03
  10  -3  -3  737.53   41.10
  10   3  -2  144.88   28.94
  10  -3  -2   96.12   16.04
  10   3  -2   96.52   24.65
  10   3  -1   29.15   17.60
  10  -3  -1   -8.27   11.94
  10  -3  -1   12.91    7.86
  10   3  -1   -8.95   12.79
  10   3   0 1162.11   84.55
  10   3   0 1044.27   76.49
  10   3   1  279.74   42.77
  10   3   1  256.63   38.74
  10   3   2  855.91   72.13
  10   3   3   10.06    9.11
  10   3   4  549.58   64.94
  10   3   5  656.99   73.68
  10   3   6   56.70   26.94
 -10   3  -7  171.70   52.90
  10   3   7  149.54   41.61
 -10   3  -8   21.48   28.81
  10   3   8    9.26   16.10
 -10   3  -9  153.19   55.39
  10   3   9  107.22   38.71
 -10   3 -10   55.82   31.49
  10   3  10  -50.04   40.21
 -10   3 -11  144.49   51.37
 -10   3 -12  -35.43   34.89
 -10   3 -13   37.38   31.66
  10   4 -16  -36.70   29.37
  10   4 -15    4.01   15.89
  10   4 -14  269.94   64.29
  10   4 -13   89.97   37.55
  10   4 -12   -0.18   14.19
  10   4 -11   28.97   23.18
 -10  -4  11   37.96   24.94
  10   4 -10  111.39   36.18
 -10  -4  10  123.02   36.43
 -10  -4   9  129.50   35.79
  10   4  -9  154.40   43.88
 -10  -4   8   19.32   17.93
  10   4  -8    8.91   16.22
  10   4  -7  554.72   72.88
  10   4  -6  805.75   79.01
  10   4  -6  785.84   80.97
  10   4  -5  148.34   31.88
  10   4  -5  155.99   33.92
  10   4  -4   66.27   23.70
  10   4  -4   56.18   20.20
  10  -4  -3   41.95   12.71
  10   4  -3   -0.62   11.52
  10   4  -3   36.51   15.63
  10   4  -2   80.36   26.14
  10  -4  -2  114.27   22.49
  10   4  -2   86.63   25.13
  10   4  -1  344.26   51.10
  10   4  -1  366.78   49.56
  10  -4  -1  350.14   41.51
  10   4   0   52.75   22.79
  10  -4   0   43.54   15.53
  10   4   0   50.21   20.40
  10   4   1  410.02   56.11
  10   4   1  372.39   50.85
  10   4   2  228.95   42.20
  10   4   2  216.73   42.00
  10   4   3  312.15   50.64
  10   4   4    2.69    9.40
 -10   4  -5   87.66   47.04
  10   4   5   19.14   14.38
 -10   4  -6  125.92   53.07
  10   4   6   76.80   32.34
 -10   4  -7  130.01   55.99
  10   4   7  103.82   36.70
 -10   4  -8   52.12   41.77
  10   4   8   95.58   37.81
 -10   4  -9  629.34  119.97
  10   4   9  493.53   88.91
  10   4  10   37.36   17.10
 -10   4 -10   83.42   43.04
 -10   4 -11   32.62   20.03
  10   5 -13   50.54   39.90
  10   5 -12   89.33   49.39
 -10  -5  11  212.50   57.09
  10   5 -11  289.53   74.73
 -10  -5  10  112.87   41.33
  10   5 -10  182.67   59.66
 -10  -5   9  243.73   57.58
  10   5  -9  264.58   60.94
  10   5  -8   14.13   16.11
  10   5  -7  247.21   50.61
  10   5  -7  303.61   58.75
  10   5  -6  -25.37   22.94
  10   5  -6  -10.42   18.18
  10   5  -5  197.28   43.27
  10   5  -5  184.75   42.80
  10   5  -4   42.50   22.94
  10   5  -4   48.46   24.85
  10   5  -3  276.68   49.77
  10   5  -3  282.91   53.61
  10   5  -2   89.72   31.19
  10   5  -2   47.24   21.78
  10   5  -1   24.33   21.82
  10  -5  -1   16.57   15.73
  10   5  -1    7.59   13.14
  10   5   0  396.48   62.88
  10   5   0  357.05   54.94
  10  -5   0  455.53   59.50
 -10   5  -1  115.88   51.08
  10   5   1   91.76   31.65
  10  -5   1   63.78   22.74
  10   5   1   70.76   26.49
 -10   5  -2  331.19   83.51
  10   5   2  264.82   51.77
  10   5   2  319.12   55.76
  10  -5   2  229.08   41.66
 -10   5  -3   38.15   35.02
  10  -5   3   -9.54   13.10
  10   5   3    7.21   14.47
 -10   5  -4  218.66   76.91
  10   5   4  176.19   47.04
 -10   5  -5  247.98   82.57
  10   5   5  292.32   63.54
 -10   5  -6  -30.44   47.48
  10   5   6   -1.04   13.90
 -10   5  -7  -25.79   40.24
 -10   5  -8  -18.94   32.84
 -10   5  -9   21.10   21.33
  10   6  -7   78.28   31.15
  10   6  -6  186.04   49.04
  10   6  -5    9.54   16.96
  10   6  -4   16.15   21.55
  10   6  -3   -7.55   11.35
  10   6  -2   44.00   28.83
  10   6  -1  143.45   45.83
  10   6   0   51.03   30.41
  10   6   1   84.76   36.57
  10   6   2   91.32   36.74
  10  -6   3   43.01   18.63
  10  -6   4    0.40    5.25
  10  -6   5   -5.15    8.22
  11   0 -19  -50.22   38.03
  11   0 -18   36.27   14.68
  11   0 -17   93.74   27.85
  11   0 -16   63.68   28.15
  11   0 -15   14.20    9.58
  11   0 -14   49.52   17.86
  11   0 -13  -23.15   20.66
  11   0 -12   85.92   23.56
  11   0 -11  219.04   38.61
  11   0 -10 1018.59   81.45
  11   0  -9 1370.14   91.95
  11   0  -8   10.58    8.70
  11   0  -7  457.78   51.80
  11   0  -6  326.48   42.58
  11   0  -5  779.09   62.32
  11   0  -4  253.47   34.42
  11   0  -3   97.91   19.36
  11   0  -2 2828.49  116.91
  11   0  -1 1416.15   83.05
  11   0   0  132.12   28.40
  11   0   1   15.36   14.16
  11   0   2  503.09   56.88
  11   0   3 1062.14   88.58
  11   0   4  721.73   77.40
  11   0   5  870.93   92.44
  11   0   6  466.21   72.48
  11   0   7  187.62   49.04
  11   0   8  318.39   66.50
  11   0   9  172.54   41.95
 -11   0 -10   20.08   21.30
 -11   0 -11    1.33   14.08
 -11   0 -12  106.45   38.51
 -11   0 -13  161.23   47.36
 -11   0 -14  376.96   72.07
 -11   0 -15   14.62   24.99
  11  -1 -19  -66.32   34.17
  11   1 -19  -82.78   51.33
  11  -1 -18  -45.14   31.03
  11   1 -18  -63.74   45.78
  11  -1 -17    5.59   14.80
  11   1 -17    5.60   21.47
  11  -1 -16  243.00   53.39
  11   1 -16  251.69   55.25
  11  -1 -15  -13.73   17.26
  11   1 -15  -17.76   24.21
  11  -1 -14  211.65   43.77
  11   1 -14  202.24   47.00
  11  -1 -13  158.00   35.74
  11   1 -13  149.18   37.22
  11  -1 -12    8.74    6.33
  11   1 -12   -1.38   17.98
  11  -1 -11   31.26   11.21
  11   1 -11    3.08   15.58
  11  -1 -10   17.99   10.93
  11   1 -10   12.19    9.88
  11  -1  -9   93.48   24.78
  11   1  -9  112.07   28.47
  11   1  -8  100.21   25.30
  11  -1  -8  147.73   29.44
  11   1  -7  613.87   44.68
  11  -1  -7  683.89   60.37
  11   1  -7  608.45   63.01
  11   1  -6  649.65   47.12
  11  -1  -6  649.95   56.42
  11   1  -6  660.17   63.54
  11  -1  -5 1328.81   77.86
  11   1  -5 1375.15   88.26
  11   1  -5 1298.83   66.23
  11   1  -4  798.77   54.29
  11  -1  -4  770.98   57.94
  11   1  -4  748.06   62.43
  11   1  -3   -3.73    7.32
  11  -1  -3   -5.93    8.36
  11   1  -3   -1.45    6.49
  11  -1  -2 1259.85   76.92
  11   1  -2 1162.00   75.63
  11  -1  -1  145.92   28.79
  11   1  -1  113.53   24.46
  11  -1   0   33.09   15.92
  11   1   0   -4.68    5.85
  11  -1   1   51.29   17.48
  11   1   1   50.72   15.96
  11  -1   2  258.57   44.32
  11   1   2  268.31   42.20
  11  -1   3 1223.33  101.52
  11   1   3 1073.90   87.64
  11  -1   4   35.14   24.31
  11   1   4    7.23   14.06
  11  -1   5  960.79  103.37
  11   1   5  941.03   91.08
  11  -1   6    1.75   20.50
  11   1   6   49.18   30.97
  11  -1   7 1103.38  128.19
  11   1   7 1122.49  115.46
  11   1   8   27.24   25.52
  11   1   9    0.64   28.59
 -11  -1 -10   27.25   23.31
 -11   1 -10   22.93   24.05
  11   1  10  -35.63   42.70
 -11  -1 -11   89.50   35.15
 -11   1 -11  111.20   39.66
 -11  -1 -12    6.00   10.55
 -11   1 -12  -20.15   23.89
 -11   1 -13    5.60   18.53
 -11  -1 -13    2.95   15.73
 -11  -1 -14   11.01   17.44
 -11   1 -14   11.47   16.91
 -11   1 -15   39.01   28.20
  11   2 -18   21.66   17.73
  11   2 -17   82.01   33.42
  11   2 -16   36.79   14.96
  11   2 -15  -15.34   32.09
  11  -2 -14   45.69   20.09
  11   2 -14   27.70   13.77
  11  -2 -13  -18.02   15.77
  11   2 -13  -27.03   25.61
  11  -2 -12  110.90   27.28
  11   2 -12   56.98   22.89
  11  -2 -11  171.67   32.87
  11   2 -11  166.10   36.85
  11  -2 -10  814.31   68.69
  11   2 -10  759.07   81.28
  11  -2  -9 1035.96   73.40
  11   2  -9  984.50   89.71
  11   2  -8   11.58   12.79
  11  -2  -8    3.52    5.00
  11  -2  -7  307.22   36.64
  11   2  -7  331.13   52.03
  11   2  -6  217.07   31.63
  11  -2  -6  222.33   30.19
  11   2  -6  277.89   44.51
  11   2  -5  595.31   52.65
  11  -2  -5  519.42   47.90
  11   2  -5  509.07   56.74
  11  -2  -4  147.53   25.38
  11   2  -4  159.86   28.28
  11   2  -4  154.11   30.05
  11   2  -3   89.87   21.43
  11  -2  -3   82.68   20.46
  11   2  -3   86.71   22.28
  11  -2  -2 2174.71  108.20
  11   2  -2 1950.01  101.53
  11   2  -1 1101.18   80.72
  11  -2  -1 1078.39   82.95
  11   2  -1  920.06   72.39
  11  -2   0   62.20   18.38
  11   2   0   79.38   22.30
  11  -2   1   35.32   22.12
  11   2   1   17.09   11.20
  11  -2   2  361.41   58.80
  11   2   2  322.74   45.20
  11  -2   3  736.47   91.52
  11   2   3  693.78   69.50
  11  -2   4  575.45   88.80
  11   2   4  503.05   65.01
  11   2   5  466.33   64.96
  11  -2   5  472.47   85.19
  11   2   6  418.36   67.08
  11   2   7  188.60   48.20
  11   2   8  218.76   51.65
 -11  -2  -9  188.27   44.48
 -11   2  -9  196.56   56.06
  11   2   9  109.46   36.85
 -11   2 -10   22.67   26.65
  11   2  10  -23.00   30.04
 -11   2 -11   17.74   13.62
 -11   2 -12   70.03   36.57
 -11   2 -13   44.77   25.11
 -11   2 -14  315.34   74.58
  11   3 -17   17.47   16.40
  11   3 -16  190.87   56.72
  11   3 -15   -4.80   18.47
  11   3 -14  130.38   42.99
  11   3 -13  113.40   40.26
  11   3 -12   31.27   17.28
  11   3 -11    3.03    9.95
  11   3 -10   12.28   15.36
 -11  -3   9   55.58   19.87
  11   3  -9   43.95   23.04
  11   3  -8  100.74   32.61
  11   3  -7  313.87   52.20
  11   3  -6  299.00   42.52
  11   3  -6  304.62   49.37
  11   3  -5  703.69   65.88
  11   3  -5  638.35   67.94
  11   3  -4  430.22   51.79
  11   3  -4  290.82   44.73
  11   3  -3    6.77   11.87
  11   3  -3    4.05   10.34
  11   3  -2  747.31   68.30
  11   3  -2  602.08   61.78
  11  -3  -2  612.59   40.17
  11  -3  -1   64.29   15.29
  11   3  -1   64.70   22.21
  11   3  -1   69.72   22.76
  11   3   0    3.64   10.11
  11   3   0    6.01   12.03
  11   3   1   14.89   11.00
  11   3   1   31.56   15.92
  11   3   2  133.93   31.73
  11   3   3  529.33   64.54
  11   3   4    0.56   14.79
  11   3   5  421.59   62.26
  11   3   6   24.33   24.27
  11   3   7  586.55   82.27
 -11   3  -8   68.95   42.37
  11   3   8    0.47   11.49
 -11   3  -9   15.88   20.64
  11   3   9   -0.77   17.39
 -11   3 -10   21.11   30.41
  11   3  10  -38.54   37.96
 -11   3 -11   65.42   35.38
 -11   3 -12  -26.26   37.01
  11   4 -15   -2.59   14.57
  11   4 -14    4.82   10.94
  11   4 -13   11.99   12.80
  11   4 -12   47.07   26.47
  11   4 -11   97.29   37.38
 -11  -4  10  323.73   56.70
  11   4 -10  384.12   70.96
  11   4  -9  479.86   74.63
  11   4  -8   35.23   23.57
  11   4  -7  151.34   35.21
  11   4  -7  115.25   31.90
  11   4  -6   68.31   22.67
  11   4  -6   55.63   22.33
  11   4  -5  168.95   38.38
  11   4  -5  144.29   35.50
  11   4  -4   49.24   22.77
  11   4  -4   39.99   19.52
  11   4  -3   41.78   19.80
  11   4  -3   25.53   16.86
  11   4  -2  899.70   85.32
  11   4  -2  770.39   77.63
  11   4  -1  406.60   58.75
  11   4  -1  316.92   49.14
  11  -4   0   26.51   13.96
  11   4   0   27.80   18.07
  11   4   0   31.25   19.25
  11  -4   1  -18.67   14.86
  11   4   1   22.89   15.61
  11   4   1    3.46   10.79
  11   4   2  116.60   33.30
  11   4   3  232.46   46.58
  11   4   4  198.80   43.79
 -11   4  -5  313.37   78.02
  11   4   5  191.60   46.63
 -11   4  -6  168.11   63.88
  11   4   6  173.47   48.03
 -11   4  -7   88.76   48.02
  11   4   7   73.42   34.72
 -11   4  -8  105.83   53.86
  11   4   8   57.14   28.77
 -11   4  -9   87.85   46.90
  11   4   9   20.52   14.03
 -11   4 -10  -16.90   32.74
  11   4  10  -16.24   31.04
  11   5 -12   53.52   40.04
  11   5 -11  129.84   53.99
  11   5 -10  -25.08   20.81
  11   5  -9  -17.48   24.90
  11   5  -9  -28.44   30.82
  11   5  -8    1.25   12.00
  11   5  -8   17.33   13.09
  11   5  -7   66.41   26.18
  11   5  -7   45.74   21.23
  11   5  -6   47.95   21.91
  11   5  -6   84.48   32.17
  11   5  -5  213.09   48.59
  11   5  -5  233.01   49.70
  11   5  -4  107.73   35.02
  11   5  -4  118.76   37.71
  11   5  -3   -2.09   10.39
  11   5  -3   22.45   18.29
  11   5  -2  255.41   52.42
  11   5  -2  237.82   46.80
  11   5  -1   49.47   25.31
  11   5  -1   31.67   21.07
  11   5   0   19.08   17.58
  11   5   0   11.31   14.73
  11   5   1   22.08   21.36
  11   5   1    2.94    8.60
  11  -5   2   45.79   19.04
 -11   5  -2   98.16   51.50
  11   5   2   51.43   24.79
  11  -5   3  106.76   26.00
  11   5   3  168.02   43.66
  11  -5   4  -18.84   14.77
  11   5   4    4.27   16.06
 -11   5  -5  153.95   62.55
  11   5   5  204.18   55.46
 -11   5  -6   -4.73   20.45
  11   5   6   48.41   35.36
 -11   5  -7  209.32   77.62
 -11   5  -8  -18.89   34.79
  11   6  -5   49.61   29.60
  11   6  -4   55.22   33.13
  11   6  -3  323.05   66.84
  11   6  -2  279.08   62.49
  11   6  -1  126.21   45.48
  11   6   0   15.42   20.85
  12   0 -19    6.45   16.14
  12   0 -18   12.48   12.74
  12   0 -17   28.99   21.72
  12   0 -16   29.87   20.34
  12   0 -15   56.92   21.50
  12   0 -14  145.25   36.17
  12   0 -13  124.21   30.65
  12   0 -12  815.65   81.12
  12   0 -11  264.70   45.27
  12   0 -10  112.49   28.32
  12   0  -9   51.86   20.36
  12   0  -8  395.32   51.05
  12   0  -7  508.84   56.36
  12   0  -6  824.09   69.52
  12   0  -5 2671.82  122.16
  12   0  -4 1371.15   84.12
  12   0  -3  441.96   48.98
  12   0  -2  620.97   58.46
  12   0  -1  521.93   54.89
  12   0   0    8.85    8.82
  12   0   1  745.54   70.78
  12   0   2  395.54   55.08
  12   0   3 2051.89  132.88
  12   0   4   25.78   11.02
  12   0   5   43.09   29.86
  12   0   6   39.46   29.32
  12   0   7   12.85   21.84
  12   0   8  220.55   58.29
  12   0   9  -88.63   59.15
 -12   0 -10  115.55   42.28
 -12   0 -11  143.35   43.52
 -12   0 -12  -11.80   17.12
 -12   0 -13  -48.01   37.32
 -12   0 -14    6.30   11.81
  12  -1 -19   15.71   20.54
  12  -1 -18  -25.67   24.43
  12   1 -18  -37.68   31.02
  12  -1 -17    5.39   13.42
  12   1 -17  -23.09   26.85
  12  -1 -16  297.54   58.53
  12   1 -16  269.83   58.41
  12  -1 -15   67.31   26.83
  12   1 -15   33.20    9.58
  12  -1 -14   66.07   22.36
  12   1 -14   59.11   24.71
  12  -1 -13   74.36   23.94
  12   1 -13   78.15   23.32
  12  -1 -12   74.76   25.95
  12   1 -12   60.16   24.50
  12  -1 -11  476.98   57.24
  12   1 -11  478.98   65.55
  12   1 -10   76.81   25.72
  12  -1 -10   94.92   24.57
  12   1  -9  185.68   38.51
  12  -1  -9  193.00   36.51
  12   1  -8  943.12   57.28
  12  -1  -8  958.10   76.66
  12   1  -8  954.12   86.22
  12   1  -7  208.74   27.63
  12  -1  -7  198.35   33.39
  12   1  -7  178.79   37.03
  12   1  -6   78.72   17.19
  12  -1  -6   87.21   22.48
  12   1  -6   88.14   26.34
  12   1  -5   10.30    6.47
  12  -1  -5   20.25   12.87
  12   1  -5    5.85    7.58
  12   1  -4  989.12   65.78
  12  -1  -4  905.28   68.92
  12   1  -4  874.73   70.46
  12  -1  -3   15.26    9.47
  12   1  -3   25.71   15.96
  12  -1  -2  969.30   73.07
  12   1  -2  877.62   71.53
  12  -1  -1   42.87   18.00
  12   1  -1   33.07   15.41
  12  -1   0 1408.29   97.24
  12   1   0 1300.32   88.54
  12  -1   1   97.27   27.68
  12   1   1   85.52   25.99
  12  -1   2 1009.34   92.15
  12   1   2  969.89   83.47
  12  -1   3  335.88   59.30
  12   1   3  231.73   44.50
  12  -1   4  245.96   53.35
  12   1   4  243.46   47.07
  12  -1   5  462.43   75.66
  12   1   5  414.48   66.30
  12  -1   6  997.67  119.95
  12   1   6 1058.67  111.01
  12  -1   7  -27.61   35.45
  12   1   7   28.30   26.61
  12   1   8  462.27   80.89
  12   1   9  -20.21   29.12
 -12  -1 -10   78.24   32.36
  12   1  10   57.53   20.44
 -12  -1 -11   56.89   28.52
 -12   1 -11   63.47   35.38
 -12  -1 -12  171.54   49.83
 -12   1 -12  144.55   51.55
 -12   1 -13   -1.72   20.72
 -12  -1 -13    5.42   15.33
 -12   1 -14   19.64   11.64
  12   2 -18  -32.35   28.77
  12   2 -17    8.99   15.35
  12   2 -16    9.56   12.91
  12   2 -15   49.98   25.64
  12   2 -14   92.80   32.48
  12   2 -13   90.70   30.82
  12  -2 -12  729.95   72.97
  12   2 -12  783.41   91.38
  12   2 -11  189.71   44.05
  12  -2 -11  234.07   40.56
  12   2 -10  123.83   34.90
  12  -2 -10  118.36   27.72
  12  -2  -9   32.44   14.35
  12   2  -9   24.00   16.53
  12   2  -8  271.33   37.12
  12  -2  -8  271.40   37.67
  12   2  -8  311.54   52.55
  12   2  -7  370.52   42.52
  12  -2  -7  339.79   40.71
  12   2  -7  333.14   51.58
  12   2  -6  563.76   54.21
  12  -2  -6  556.91   52.69
  12   2  -6  502.70   60.17
  12   2  -5 2079.01  103.86
  12  -2  -5 1966.44   99.73
  12   2  -5 1853.13  114.03
  12   2  -4 1096.07   77.42
  12  -2  -4 1051.58   74.50
  12   2  -4  924.06   77.06
  12   2  -3  354.22   45.64
  12  -2  -3  378.72   47.00
  12   2  -3  299.16   42.86
  12   2  -2  565.37   60.42
  12  -2  -2  551.51   60.35
  12   2  -2  454.36   53.79
  12  -2  -1  383.07   53.58
  12   2  -1  315.71   44.31
  12  -2   0  -19.58   21.34
  12   2   0    7.34   14.31
  12  -2   1  622.28   78.94
  12   2   1  448.80   55.69
  12   2   2  278.58   45.71
  12  -2   2  289.11   57.41
  12  -2   3 1461.00  137.45
  12   2   3 1310.61  102.04
  12  -2   4   -3.12   33.36
  12   2   4   57.78   26.84
  12  -2   5   -4.25   24.07
  12   2   5   -5.11   19.25
  12   2   6   66.79   34.88
  12   2   7   29.88   26.91
  12   2   8  180.11   52.13
 -12  -2  -9   37.23   27.29
 -12   2  -9   70.78   39.39
  12   2   9  -24.05   30.77
 -12   2 -10   69.00   38.37
  12   2  10   32.39   19.47
 -12   2 -11   79.67   40.63
 -12   2 -12   31.45   30.12
 -12   2 -13  -40.32   38.45
  12   3 -16  155.85   49.84
  12   3 -15   13.57   13.64
  12   3 -14   41.04   25.42
  12   3 -13   59.71   29.31
  12   3 -12   43.09   23.59
  12   3 -11  313.48   61.67
  12   3 -10   77.25   32.43
  12   3  -9  122.68   38.30
  12   3  -8  467.27   55.29
  12   3  -8  517.64   71.85
  12   3  -7   55.11   19.50
  12   3  -7   77.51   27.15
  12   3  -6   39.88   16.65
  12   3  -6   18.84    9.47
  12   3  -5    9.85    9.52
  12   3  -5   -9.39   16.11
  12   3  -4  486.66   56.46
  12   3  -4  448.52   57.88
  12   3  -3   20.62   13.81
  12   3  -3   16.96   11.84
  12   3  -2  514.65   60.92
  12   3  -2  422.10   54.91
  12   3  -1   39.30   18.19
  12   3  -1   26.91   16.78
  12   3   0  750.47   78.52
  12   3   0  644.40   69.00
  12   3   1   23.47   17.34
  12   3   2  497.13   62.22
  12   3   3  150.81   37.60
  12   3   4  100.53   31.37
  12   3   5  199.53   45.62
  12   3   6  555.58   81.01
  12   3   7   14.29   22.83
 -12   3  -8  336.28   79.33
  12   3   8  173.72   48.55
 -12   3  -9    6.42   25.79
  12   3   9   -1.19   16.93
 -12   3 -10   25.97   21.00
  12   3  10  -10.72   31.02
 -12   3 -11    4.19   20.97
  12   4 -14   56.48   32.10
  12   4 -13   47.68   29.88
  12   4 -12  371.50   75.52
  12   4 -11  122.55   45.25
  12   4 -10   75.29   36.18
  12   4  -9  -14.62   18.48
  12   4  -9   63.47   34.89
  12   4  -8  115.29   32.82
  12   4  -8   65.83   21.39
  12   4  -7  126.65   33.36
  12   4  -7  141.31   36.65
  12   4  -6  215.24   44.20
  12   4  -6  214.66   46.43
  12   4  -5  844.48   86.08
  12   4  -5  752.62   81.79
  12   4  -4  422.29   59.57
  12   4  -4  380.13   57.17
  12   4  -3  134.80   34.03
  12   4  -3  129.68   35.01
  12   4  -2  273.52   50.18
  12   4  -2  238.23   45.59
  12   4  -1  161.78   39.41
  12   4  -1  121.40   33.26
  12   4   0    0.16   12.89
  12   4   0    5.63   12.74
  12   4   1  185.09   41.54
  12   4   2  107.10   31.79
  12   4   3  519.12   71.31
  12   4   4    6.71   11.46
  12   4   5   12.77   17.87
 -12   4  -6   29.03   34.93
  12   4   6   30.28   26.12
 -12   4  -7    3.69   23.12
  12   4   7   28.98   25.69
 -12   4  -8   60.95   39.42
  12   4   8   59.68   32.53
 -12   4  -9   -8.38   23.92
  12   4   9  -19.64   23.96
  12   4  10  -18.51   34.37
  12   5 -11   25.76   14.90
  12   5 -11   65.40   30.09
  12   5 -10  -15.70   23.24
  12   5 -10  -18.84   30.70
  12   5  -9   17.55   11.28
  12   5  -9   36.23   23.05
  12   5  -8  151.01   44.05
  12   5  -8  150.80   45.38
  12   5  -7   23.33   19.91
  12   5  -7    5.96   13.66
  12   5  -6   -6.27   18.11
  12   5  -6   29.62   20.86
  12   5  -5   -6.88   13.88
  12   5  -5    9.87   13.02
  12   5  -4  130.85   40.18
  12   5  -4  152.58   40.95
  12   5  -3   46.27   27.01
  12   5  -3   36.23   22.71
  12   5  -2  132.29   39.19
  12   5  -2  173.30   44.16
  12   5  -1   17.81   24.31
  12   5  -1    9.09   14.68
  12   5   0  327.26   63.10
  12   5   0  215.29   48.87
  12   5   1    1.04   11.76
  12   5   1    7.97   16.03
 -12   5  -2  227.41   72.28
  12   5   2  219.60   50.89
 -12   5  -3   59.04   40.10
  12   5   3   34.99   25.78
 -12   5  -4   12.65   26.68
  12   5   4   79.94   34.08
 -12   5  -5   49.14   35.53
  12   5   5   77.26   41.51
 -12   5  -6  201.08   77.06
  12   5   6  205.12   59.64
 -12   5  -7   -4.58   25.62
  13   0 -18  -29.71   29.86
  13   0 -17    2.04   15.71
  13   0 -16   17.95   14.49
  13   0 -15  113.85   34.75
  13   0 -14    1.56    9.75
  13   0 -13   25.47   16.45
  13   0 -12   48.40   19.54
  13   0 -11   38.61   18.86
  13   0 -10  167.28   36.67
  13   0  -9  130.77   33.51
  13   0  -8  116.78   32.33
  13   0  -7 1168.79   90.18
  13   0  -6   60.16   20.17
  13   0  -5   63.01   19.74
  13   0  -4   89.32   23.15
  13   0  -3  377.08   48.68
  13   0  -2  530.32   56.91
  13   0  -1   78.74   24.89
  13   0   0 2050.59  118.20
  13   0   1  745.37   74.71
  13   0   2  146.18   35.01
  13   0   3  -10.00   18.35
  13   0   4   20.00   22.81
  13   0   5  210.05   53.70
  13   0   6   39.37   27.57
  13   0   7  204.31   58.01
  13   0   8  541.74   95.62
  13   0   9  -47.96   48.05
 -13   0 -10   63.62   33.11
 -13   0 -11   13.73   22.35
 -13   0 -12   76.64   37.86
 -13   0 -13  -16.13   24.28
  13  -1 -18  114.25   40.89
  13   1 -18  106.39   41.64
  13  -1 -17  -16.43   21.26
  13   1 -17    9.28   13.44
  13  -1 -16   -3.32   13.35
  13   1 -16   12.50   12.57
  13  -1 -15    4.91    8.02
  13   1 -15  -15.67   20.56
  13  -1 -14   53.14   24.46
  13   1 -14   30.02   18.65
  13  -1 -13   58.79   21.86
  13   1 -13   40.21   21.90
  13  -1 -12   34.48   19.62
  13   1 -12   39.54   20.59
  13   1 -11   47.19   21.94
  13  -1 -11   43.83   20.43
  13  -1 -10   97.80   27.71
  13   1 -10   89.89   28.27
  13  -1  -9  778.51   75.04
  13   1  -9  717.45   79.18
  13  -1  -8  154.65   32.51
  13   1  -8  178.30   40.61
  13  -1  -7   97.70   26.04
  13   1  -7   90.87   26.91
  13   1  -6   61.27   15.91
  13  -1  -6   56.35   19.49
  13   1  -6   35.87   17.39
  13   1  -5  718.97   57.46
  13  -1  -5  622.12   60.86
  13   1  -5  630.51   65.58
  13  -1  -4    9.45   10.94
  13   1  -4  -11.19   14.26
  13  -1  -3  559.27   57.92
  13   1  -3  513.46   57.31
  13  -1  -2 1712.95  105.07
  13   1  -2 1665.43  104.36
  13  -1  -1  285.18   44.80
  13   1  -1  253.03   40.63
  13  -1   0    8.43    9.52
  13   1   0   25.91   16.63
  13  -1   1 1042.46   96.74
  13   1   1  964.19   83.17
  13   1   2  282.76   50.23
  13  -1   2  319.61   55.30
  13  -1   3  489.49   74.49
  13   1   3  432.41   62.68
  13  -1   4   40.93   26.67
  13   1   4   52.16   19.28
  13  -1   5  742.21  101.70
  13   1   5  710.25   88.58
  13  -1   6    6.71   16.23
  13   1   6   32.32   33.08
  13  -1   7 1154.48  147.21
  13   1   7 1206.35  130.32
  13   1   8   14.74   22.92
  13   1   9  103.31   34.28
 -13  -1 -10  194.39   51.03
 -13   1 -10  250.13   64.19
  13   1  10  112.20   35.21
 -13  -1 -11  597.26   91.33
 -13   1 -11  567.22   97.36
 -13  -1 -12    3.35   15.66
 -13   1 -12    0.81   17.49
 -13   1 -13    6.64   14.19
  13   2 -17    1.33   12.84
  13   2 -16   -3.37   18.43
  13   2 -15   64.01   29.65
  13   2 -14   21.29   20.02
  13   2 -13   24.16   13.49
  13   2 -12   55.11   25.66
  13   2 -11   11.08   15.98
  13  -2 -11   14.77   12.60
  13  -2 -10  129.57   29.23
  13   2 -10  169.27   43.07
  13   2  -9   63.28   18.40
  13  -2  -9   95.62   24.29
  13   2  -9   80.05   31.95
  13   2  -8   76.99   20.38
  13  -2  -8   77.72   22.24
  13   2  -8  102.80   32.52
  13   2  -7  921.16   70.07
  13  -2  -7  764.35   66.27
  13   2  -7  870.62   86.39
  13   2  -6   62.33   19.32
  13  -2  -6   31.92   13.99
  13   2  -6   32.87   13.65
  13   2  -5   62.39   20.55
  13  -2  -5   86.22   23.12
  13   2  -5   63.39   23.77
  13   2  -4   68.01   20.38
  13  -2  -4   79.25   24.41
  13   2  -4   65.41   23.41
  13   2  -3  321.22   47.13
  13  -2  -3  342.15   48.46
  13   2  -3  274.01   43.95
  13  -2  -2  385.10   54.08
  13   2  -2  375.04   51.94
  13  -2  -1   50.71   20.79
  13   2  -1   40.73   20.62
  13  -2   0 1740.92  133.43
  13   2   0 1331.08   98.20
  13  -2   1  634.67   85.69
  13   2   1  523.56   63.74
  13  -2   2   82.59   33.70
  13   2   2   99.56   31.46
  13  -2   3  -16.39   23.51
  13   2   3   22.30   22.15
  13  -2   4   12.28   13.53
  13   2   4   25.10   12.91
  13  -2   5   85.98   34.86
  13   2   5  121.27   37.78
  13   2   6   47.21   31.89
  13   2   7  158.47   49.99
  13   2   8  343.69   72.65
 -13   2  -9   55.58   33.75
  13   2   9   -5.99   27.55
 -13   2 -10   83.50   45.46
  13   2  10    2.38   24.53
 -13   2 -11   24.86   21.43
 -13   2 -12   97.00   45.77
  13   3 -15  -22.64   19.26
  13   3 -14   51.99   32.71
  13   3 -13   39.38   26.63
  13   3 -12   46.92   29.08
  13   3 -11   76.51   39.68
  13   3 -10   24.74   10.42
  13   3 -10   63.95   32.05
  13   3  -9  381.83   51.84
  13   3  -9  438.77   71.21
  13   3  -8   72.29   22.51
  13   3  -8   32.83   17.14
  13   3  -7   64.45   22.72
  13   3  -7   29.05   15.08
  13   3  -6   29.35   17.79
  13   3  -6   23.42   15.70
  13   3  -5  307.02   46.63
  13   3  -5  301.44   51.59
  13   3  -4   -4.75   11.19
  13   3  -4    3.36   14.58
  13   3  -3  376.51   55.41
  13   3  -3  306.45   49.78
  13   3  -2  999.99   91.11
  13   3  -2  854.63   84.11
  13   3  -1  164.01   37.94
  13   3  -1  117.87   33.78
  13   3   0   15.98   17.60
  13   3   1  423.69   60.16
  13   3   2  164.58   40.12
  13   3   3  196.68   45.82
  13   3   4   -7.22   18.81
  13   3   5  303.21   58.99
  13   3   6   59.02   32.37
  13   3   7  594.54   93.56
 -13   3  -8   18.55   29.75
  13   3   8   14.70   18.34
 -13   3  -9  109.78   50.04
  13   3   9   38.54   25.55
 -13   3 -10  100.64   49.30
  13   3  10   61.97   33.28
  13   4 -13   67.36   38.04
  13   4 -12   48.15   30.76
  13   4 -11  -22.04   24.18
  13   4 -11  119.85   49.26
  13   4 -10   18.53   11.06
  13   4 -10   47.22   24.98
  13   4  -9   45.24   22.66
  13   4  -9   -5.53   22.71
  13   4  -8    8.81    7.97
  13   4  -8   11.57   10.35
  13   4  -7  342.78   56.73
  13   4  -7  292.03   56.23
  13   4  -6   34.07   24.10
  13   4  -6   11.44   20.72
  13   4  -5   25.33   19.46
  13   4  -5   41.90   22.15
  13   4  -4   39.14   22.18
  13   4  -4   46.23   23.05
  13   4  -3  164.39   40.77
  13   4  -3  156.45   41.72
  13   4  -2  184.39   43.65
  13   4  -2  159.76   39.67
  13   4  -1   61.31   28.15
  13   4  -1   22.02   20.05
  13   4   0  633.48   76.26
  13   4   1  215.49   47.43
  13   4   2   60.88   25.92
  13   4   3   -1.62   16.77
  13   4   4    9.40   11.30
  13   4   5   94.80   36.70
 -13   4  -6   50.33   42.15
  13   4   6   59.36   36.94
 -13   4  -7   41.75   33.39
  13   4   7   88.86   38.25
 -13   4  -8  164.25   68.78
  13   4   8  154.05   48.58
  13   4   9  -44.04   37.05
  13   5 -11    1.95   11.84
  13   5 -10   16.70   19.37
  13   5 -10  -10.63   24.06
  13   5  -9  114.89   36.92
  13   5  -9   59.04   26.78
  13   5  -8  -11.34   19.95
  13   5  -8   24.14   21.75
  13   5  -7  -14.88   17.74
  13   5  -7    1.23   13.88
  13   5  -6    9.84   15.82
  13   5  -6   18.90   19.47
  13   5  -5   87.51   31.50
  13   5  -5  117.14   41.41
  13   5  -4   34.27   29.33
  13   5  -4   32.73   20.49
  13   5  -3  124.67   42.45
  13   5  -3   69.18   29.39
  13   5  -2  317.09   62.86
  13   5  -2  319.63   60.45
  13   5  -1   76.41   37.12
  13   5  -1   53.50   28.58
  13   5   0   32.70   26.20
  13   5   0   -1.75   11.04
  13   5   1  117.81   39.11
 -13   5  -2   88.65   47.67
  13   5   2   85.44   33.26
 -13   5  -3   63.85   39.26
  13   5   3   37.42   23.96
 -13   5  -4   73.25   53.53
  13   5   4   23.53   26.85
 -13   5  -5   68.90   47.92
  13   5   5  112.33   44.39
  14   0 -18  291.46   64.85
  14   0 -17   28.81   22.34
  14   0 -16   23.48   19.93
  14   0 -15    2.96   14.24
  14   0 -14   71.85   29.28
  14   0 -13   38.21   20.32
  14   0 -12  233.33   45.99
  14   0 -11  343.64   56.61
  14   0 -10  416.53   60.50
  14   0  -9   64.30   25.72
  14   0  -8   -6.67   14.74
  14   0  -7   53.60   21.91
  14   0  -6    1.99    8.71
  14   0  -5  126.27   30.14
  14   0  -4    8.80   11.39
  14   0  -3  211.90   38.58
  14   0  -2  124.96   30.84
  14   0  -1  455.59   58.53
  14   0   0    6.27    8.48
  14   0   1  130.99   35.15
  14   0   2   12.49   16.47
  14   0   3  279.81   53.90
  14   0   4  321.74   65.55
  14   0   5  786.88  103.36
  14   0   6   64.85   34.18
  14   0   7  -18.97   35.24
  14   0   8  395.91   85.99
  14   0   9  -73.35   56.65
 -14   0 -10   88.38   42.74
 -14   0 -11   55.25   32.08
 -14   0 -12   32.79   24.19
  14  -1 -17   16.95   17.99
  14   1 -17  -13.48   17.53
  14  -1 -16   20.46   20.15
  14   1 -16    5.49   14.64
  14  -1 -15  268.09   54.67
  14   1 -15  307.39   59.76
  14   1 -14  262.29   55.96
  14  -1 -14  253.15   51.68
  14  -1 -13  430.70   64.15
  14   1 -13  358.69   62.03
  14  -1 -12   76.63   27.92
  14   1 -12   84.85   32.41
  14  -1 -11  169.95   39.52
  14   1 -11  161.06   41.52
  14  -1 -10  434.01   60.41
  14   1 -10  523.79   70.73
  14   1  -9  260.14   50.75
  14  -1  -9  204.70   40.42
  14  -1  -8  402.63   54.59
  14   1  -8  438.56   61.39
  14  -1  -7  408.97   53.33
  14   1  -7  391.34   56.58
  14  -1  -6  106.89   28.11
  14   1  -6   87.47   25.93
  14  -1  -5    6.35    9.74
  14   1  -5    7.20   11.15
  14  -1  -4  783.24   73.27
  14   1  -4  723.84   72.18
  14  -1  -3   70.67   24.75
  14   1  -3   86.76   27.64
  14  -1  -2  269.49   44.95
  14   1  -2  246.47   43.55
  14  -1  -1   89.32   28.60
  14   1  -1  114.95   30.52
  14  -1   0  513.92   68.68
  14   1   0  480.50   60.74
  14  -1   1   -4.09   13.05
  14   1   1   15.10   14.16
  14  -1   2  -14.96   23.05
  14   1   2    8.24   11.25
  14  -1   3 1245.47  125.21
  14   1   3 1138.12  109.97
  14  -1   4  123.09   46.27
  14   1   4   83.20   28.37
  14  -1   5  -25.44   23.48
  14   1   5   48.75   36.31
  14  -1   6  233.91   66.95
  14   1   6  271.12   66.18
  14  -1   7  -48.70   52.61
  14   1   7  118.90   47.39
  14   1   8   36.19   28.49
  14   1   9   73.69   35.47
 -14  -1 -10  141.70   45.52
 -14   1 -10  189.41   60.09
  14   1  10   99.84   46.28
 -14  -1 -11   40.02   27.39
 -14   1 -11   37.95   32.95
 -14  -1 -12  120.11   43.82
 -14   1 -12  202.59   63.46
  14   2 -16    1.45   15.05
  14   2 -15  -16.77   21.16
  14   2 -14   57.74   31.01
  14   2 -13   42.09   25.48
  14   2 -12  139.10   42.81
  14   2 -11  274.46   56.98
  14   2 -10  344.49   62.95
  14  -2  -9   22.98   12.19
  14   2  -9   62.17   29.27
  14  -2  -8   -2.84   10.06
  14   2  -8    1.14   17.05
  14   2  -7   55.18   19.80
  14  -2  -7   40.28   16.59
  14   2  -7   12.95   14.64
  14   2  -6   -3.47    7.00
  14  -2  -6   -0.69    5.76
  14   2  -6   13.46   12.86
  14   2  -5  135.08   30.92
  14  -2  -5  106.01   29.31
  14   2  -5   96.04   29.42
  14   2  -4    3.40    8.58
  14  -2  -4   16.71   16.11
  14   2  -4   28.25   20.35
  14  -2  -3  191.92   40.77
  14   2  -3  176.20   39.40
  14  -2  -2   81.06   27.51
  14   2  -2   86.80   27.74
  14  -2  -1  408.34   64.94
  14   2  -1  312.89   51.42
  14  -2   0   34.92   27.16
  14   2   0    9.94   15.65
  14  -2   1  133.45   43.75
  14   2   1   82.79   28.86
  14  -2   2   14.79   23.34
  14   2   2    3.52   11.24
  14  -2   3  241.41   64.10
  14   2   3  179.85   43.51
  14  -2   4  121.68   45.83
  14   2   4  163.64   43.98
  14   2   5  496.45   82.09
  14  -2   5  570.16  110.35
  14   2   6   65.00   32.84
  14   2   7   24.99   31.92
  14   2   8  246.02   64.79
 -14   2  -9   78.62   45.43
  14   2   9  -23.82   29.54
 -14   2 -10   31.62   38.11
  14   2  10  -11.68   35.06
 -14   2 -11   77.04   44.48
  14   3 -15  192.96   56.88
  14   3 -14  147.48   48.89
  14   3 -13  281.02   66.50
  14   3 -12   63.01   32.86
  14   3 -11  162.42   48.79
  14   3 -10  283.79   46.44
  14   3 -10  309.21   62.70
  14   3  -9  102.59   27.78
  14   3  -9   88.59   30.65
  14   3  -8  235.47   41.91
  14   3  -8  211.99   46.10
  14   3  -7  253.69   43.01
  14   3  -7  232.83   49.24
  14   3  -6   37.19   16.89
  14   3  -6   22.47   10.81
  14   3  -5    4.50   14.79
  14   3  -5    8.33   15.23
  14   3  -4  507.68   66.11
  14   3  -4  396.88   60.00
  14   3  -3   31.07   19.11
  14   3  -3   25.98   16.67
  14   3  -2  136.16   37.19
  14   3  -2  119.54   32.80
  14   3  -1   73.61   28.58
  14   3   0  240.11   48.74
  14   3   1   15.58   16.10
  14   3   2    6.37   11.40
  14   3   3  529.86   76.43
  14   3   4   45.47   29.41
  14   3   5   -7.38   13.02
  14   3   6  144.03   49.86
  14   3   7   50.72   33.73
 -14   3  -8   73.23   45.96
  14   3   8    4.86   19.27
 -14   3  -9   99.93   49.03
  14   3   9   33.36   16.31
  14   4 -12   93.73   40.00
  14   4 -11   93.05   31.00
  14   4 -11   72.25   27.12
  14   4 -10  172.90   42.63
  14   4 -10   73.49   26.86
  14   4  -9    4.30   12.71
  14   4  -9   -7.76   20.93
  14   4  -8   -2.14    8.57
  14   4  -8    3.42   10.67
  14   4  -7    6.17    8.78
  14   4  -7   15.16   14.13
  14   4  -6   18.81   18.56
  14   4  -6    6.55   14.63
  14   4  -5   65.34   26.87
  14   4  -5   47.29   28.20
  14   4  -4   20.38   20.82
  14   4  -4   16.53   16.43
  14   4  -3   38.16   21.46
  14   4  -3   73.85   29.45
  14   4  -2   20.88   16.31
  14   4  -2   67.33   29.11
  14   4  -1  121.54   36.82
  14   4   0   12.43   16.77
  14   4   1   53.87   27.97
  14   4   2    5.48   13.43
  14   4   3  111.44   38.89
  14   4   4   93.81   36.59
  14   4   5  239.64   60.52
 -14   4  -6   79.68   50.25
  14   4   6   28.75   21.02
 -14   4  -7   50.92   42.44
  14   4   7   -8.93   22.43
  14   5  -9   71.45   30.35
  14   5  -8   45.36   24.95
  14   5  -8   29.21   23.46
  14   5  -7  106.79   36.54
  14   5  -7   48.20   30.36
  14   5  -6   34.75   22.02
  14   5  -6   36.45   27.06
  14   5  -5   20.95   24.68
  14   5  -5   65.63   36.39
  14   5  -4  155.32   45.98
  14   5  -4  125.63   41.91
  14   5  -3   23.52   20.93
  14   5  -3   25.83   23.22
  14   5  -2   50.20   28.06
  14   5  -2   52.75   26.14
  14   5  -1   28.19   24.03
  14   5  -1   -0.51   15.31
  14   5   0   59.59   28.97
  14   5   1    3.11   15.30
  14   5   2   -7.10   15.18
 -14   5  -3  297.46   92.33
  14   5   3  145.69   48.09
  14   5   4   73.15   40.15
  15   0 -17   17.92   19.56
  15   0 -16  164.87   46.11
  15   0 -15   24.28   19.10
  15   0 -14   96.54   34.99
  15   0 -13  131.91   39.16
  15   0 -12   20.57   18.36
  15   0 -11   36.76   23.71
  15   0 -10   -5.43   15.11
  15   0  -9   72.11   24.70
  15   0  -8   96.64   28.48
  15   0  -7  171.65   37.43
  15   0  -6 1212.50   97.37
  15   0  -5  754.46   77.92
  15   0  -4    5.14   13.82
  15   0  -3    7.27   15.85
  15   0  -2   35.72   19.46
  15   0  -1   74.93   29.70
  15   0   0 1028.76   98.00
  15   0   1   42.43   21.09
  15   0   2  627.74   84.09
  15   0   3   22.99   17.01
  15   0   4  996.27  118.21
  15   0   5    5.05   15.95
  15   0   6   -0.26   16.17
  15   0   7   -6.58   24.81
  15   0   8   46.37   22.75
  15   0   9  150.42   52.03
 -15   0 -10  108.13   46.43
 -15   0 -11   30.13   27.99
  15   1 -16   15.78   17.61
  15  -1 -16   40.34   25.35
  15   1 -15   42.28   26.88
  15  -1 -15   56.40   28.40
  15  -1 -14  134.67   38.39
  15   1 -14  166.86   46.44
  15  -1 -13   37.91   22.82
  15   1 -13   27.41   21.56
  15  -1 -12   50.86   21.87
  15   1 -12   51.79   26.66
  15  -1 -11   -1.72   10.30
  15   1 -11   25.86   19.65
  15  -1 -10  469.43   63.77
  15   1 -10  469.92   68.88
  15  -1  -9  490.53   64.60
  15   1  -9  499.35   69.59
  15  -1  -8  337.18   52.55
  15   1  -8  339.19   55.92
  15  -1  -7  109.80   29.69
  15   1  -7  113.78   32.26
  15  -1  -6  474.14   61.30
  15   1  -6  403.53   57.85
  15  -1  -5  579.65   67.42
  15   1  -5  578.06   68.88
  15  -1  -4   71.27   25.33
  15   1  -4   78.98   29.48
  15  -1  -3  550.93   67.59
  15   1  -3  513.71   66.30
  15  -1  -2  695.32   77.80
  15   1  -2  739.33   77.26
  15  -1  -1    1.39    9.56
  15   1  -1   20.25   18.18
  15  -1   0   67.59   30.26
  15   1   0   37.22   23.17
  15  -1   1  198.95   49.51
  15   1   1  186.05   42.64
  15  -1   2   57.80   29.15
  15   1   2   12.49   10.91
  15  -1   3  394.14   77.12
  15   1   3  272.11   55.89
  15  -1   4  101.13   46.61
  15   1   4   76.86   31.84
  15  -1   5    0.74   23.55
  15   1   5   50.24   36.97
  15  -1   6   -7.54   32.46
  15   1   6   37.61   27.15
  15  -1   7  -37.20   42.50
  15   1   7   30.77   31.18
  15   1   8  -42.52   45.81
  15   1   9  -13.13   30.44
 -15  -1 -10   12.97   22.61
 -15   1 -10   27.24   32.08
  15   1  10  -44.92   51.45
 -15  -1 -11   30.46   28.35
  15   2 -15   21.15   26.19
  15   2 -14   69.71   35.83
  15   2 -13  106.40   41.23
  15   2 -12   32.61   28.10
  15   2 -11   46.09   28.76
  15   2 -10  -27.96   12.13
  15   2  -9   71.80   27.84
  15   2  -8   55.53   21.93
  15   2  -7  130.70   34.90
  15  -2  -6  865.07   80.33
  15   2  -6  813.92   87.40
  15  -2  -5  540.96   65.72
  15   2  -5  525.06   69.17
  15  -2  -4   10.02   12.66
  15   2  -4   37.50   18.95
  15  -2  -3   18.12   17.23
  15   2  -3   -1.57   10.64
  15  -2  -2   12.57   11.77
  15   2  -2    1.09   10.21
  15  -2  -1    6.54   11.94
  15   2  -1   85.43   30.39
  15  -2   0  946.21  113.39
  15   2   0  716.93   81.43
  15  -2   1   67.98   36.95
  15   2   1   10.37   12.87
  15  -2   2  547.64   98.21
  15   2   2  453.52   69.71
  15  -2   3   12.26   17.04
  15   2   3   33.31   21.77
  15  -2   4  868.39  142.66
  15   2   4  712.62   94.63
  15  -2   5  -50.58   52.13
  15   2   5   57.57   36.92
  15   2   6   48.27   36.56
  15   2   7   51.44   35.65
  15   2   8   73.95   38.45
 -15   2  -9  164.42   57.90
  15   2   9   97.05   41.36
  15   3 -14   78.93   38.47
  15   3 -13   60.94   35.24
  15   3 -12   80.64   39.56
  15   3 -11  -16.61   18.81
  15   3 -10  213.91   51.17
  15   3  -9  281.65   58.12
  15   3  -8  168.79   45.03
  15   3  -7   61.40   23.15
  15   3  -7   45.50   20.46
  15   3  -6  329.58   51.82
  15   3  -6  248.34   52.18
  15   3  -5  355.32   56.22
  15   3  -5  325.21   59.73
  15   3  -4   21.64   17.78
  15   3  -4   48.79   24.30
  15   3  -3  280.76   54.90
  15   3  -2  369.09   61.95
  15   3  -1   14.44   19.22
  15   3   0   37.96   20.49
  15   3   1   89.04   33.07
  15   3   2   27.77   23.22
  15   3   3  166.94   45.60
  15   3   4   -1.67   19.66
  15   3   5   55.94   36.16
  15   3   6   29.12   28.07
  15   3   7  -23.96   24.86
 -15   3  -8   43.32   45.63
  15   3   8   -1.74   19.48
  15   4 -11  -19.01   26.15
  15   4 -10  -15.34   23.77
  15   4  -9    2.91   16.42
  15   4  -8   26.11   17.56
  15   4  -8   24.17   18.06
  15   4  -7   87.94   32.16
  15   4  -7   57.00   29.38
  15   4  -6  382.80   63.51
  15   4  -6  393.35   69.44
  15   4  -5  263.49   54.07
  15   4  -5  249.56   56.03
  15   4  -4   -0.80   11.18
  15   4  -4   25.49   25.39
  15   4  -3   -7.20   17.84
  15   4  -3   26.91   24.38
  15   4  -2   31.33   20.73
  15   4  -1   16.58   17.28
  15   4   0  309.96   60.53
  15   4   1   26.38   24.89
  15   4   2  171.55   47.07
  15   4   3   -6.94   15.27
  15   4   4  292.52   66.85
  15   4   5   36.42   32.17
  15   5  -7   15.38   16.78
  15   5  -6  126.20   45.82
  15   5  -5  196.81   51.86
  15   5  -5  161.93   49.64
  15   5  -4   54.11   28.41
  15   5  -4  -24.20   20.54
  15   5  -3   98.44   37.78
  15   5  -3   95.99   37.83
  15   5  -2  153.69   45.92
  15   5  -1   -3.82   11.62
  15   5   0    8.35   12.61
  16   0 -16  134.75   43.26
  16   0 -15   23.60   23.19
  16   0 -14   76.21   31.99
  16   0 -13   61.80   28.43
  16   0 -12   33.83   16.36
  16   0 -11  169.51   42.12
  16   0 -10    9.33    9.50
  16   0  -9  364.75   59.62
  16   0  -8   12.47   12.98
  16   0  -7   81.76   31.32
  16   0  -6   38.12   21.04
  16   0  -5  134.93   38.76
  16   0  -4  390.74   59.63
  16   0  -3   38.39   22.32
  16   0  -2   19.83   22.52
  16   0  -1 1146.70  107.33
  16   0   0  306.47   57.40
  16   0   1   28.58   22.90
  16   0   2   -5.77   12.91
  16   0   3   90.93   41.42
  16   0   4  142.84   49.81
  16   0   5  452.57   89.39
  16   0   6   27.94   34.42
  16   0   7  606.12  113.96
  16   0   8  -22.32   36.29
 -16   0 -10   63.20   37.94
  16   1 -15   86.02   36.22
  16  -1 -14   -1.32   13.02
  16   1 -14   64.61   31.56
  16  -1 -13    4.74   12.97
  16   1 -13   53.34   31.06
  16  -1 -12    8.33   10.67
  16   1 -12   68.69   35.07
  16  -1 -11   -4.79   12.05
  16   1 -11  -38.14   27.92
  16  -1 -10   43.36   22.91
  16   1 -10   23.25   13.80
  16  -1  -9   29.99   17.99
  16   1  -9   30.14   19.27
  16  -1  -8  127.61   33.99
  16   1  -8  111.29   32.61
  16  -1  -7  157.17   38.17
  16   1  -7  154.60   40.83
  16  -1  -6    8.71   10.53
  16   1  -6   18.92   17.07
  16  -1  -5  152.80   37.48
  16   1  -5  158.22   41.01
  16  -1  -4  389.18   60.07
  16   1  -4  390.50   61.93
  16  -1  -3    5.16   12.82
  16   1  -3   14.66   20.76
  16  -1  -2   78.48   30.70
  16   1  -2   92.54   32.93
  16  -1  -1   67.98   28.62
  16   1  -1   97.73   31.25
  16  -1   0   66.57   24.87
  16   1   0   89.37   32.95
  16  -1   1  143.84   42.99
  16   1   1  150.32   42.37
  16  -1   2  429.95   81.05
  16   1   2  267.44   57.19
  16  -1   3  231.66   63.74
  16   1   3  169.19   48.43
  16  -1   4  297.89   74.66
  16   1   4  295.25   67.34
  16  -1   5   54.54   37.36
  16   1   5   67.15   37.33
  16  -1   6  -54.37   51.56
  16   1   6   42.31   33.10
  16  -1   7  -63.11   57.22
  16   1   7   11.23   24.08
  16   1   8    9.90   25.23
  16   1   9  -76.82   54.72
  16   2 -14   90.39   42.40
  16   2 -13   80.40   38.54
  16   2 -12   44.77   23.28
  16   2 -11   98.02   32.07
  16   2 -10   -8.28   19.92
  16   2  -9  281.86   57.01
  16   2  -8   -2.22   13.57
  16   2  -7   30.47   21.90
  16   2  -6   39.66   26.57
  16   2  -5  114.96   35.95
  16  -2  -4  324.48   57.37
  16   2  -4  340.28   60.50
  16  -2  -3    0.45   10.64
  16   2  -3   31.88   23.11
  16  -2  -2  -13.43   20.01
  16   2  -2   -5.10   13.92
  16  -2  -1 1032.95  121.40
  16   2  -1  799.24   90.60
  16  -2   0  252.70   63.48
  16   2   0  242.51   50.80
  16  -2   1   52.72   35.39
  16   2   1   -0.29   10.12
  16  -2   2   17.35   29.30
  16   2   2  -16.88   22.47
  16  -2   3   28.55   26.44
  16   2   3    7.26   13.20
  16  -2   4   25.61   26.48
  16   2   4   58.43   25.49
  16   2   5  309.11   72.07
  16   2   6   28.05   26.09
  16   2   7  353.02   80.43
  16   2   8  -11.43   31.53
  16   3 -12  -60.12   41.40
  16   3 -11  -36.62   31.77
  16   3 -10    9.43   13.30
  16   3  -9   15.28   14.21
  16   3  -8   64.33   27.51
  16   3  -7   88.95   37.36
  16   3  -6   13.34   12.09
  16   3  -5  110.17   39.52
  16   3  -4  303.09   59.65
  16   3  -3   21.22   22.19
  16   3  -2   75.07   30.51
  16   3  -1   75.81   30.07
  16   3   0   49.85   28.38
  16   3   1   45.96   27.70
  16   3   2  144.46   42.98
  16   3   3   93.46   37.20
  16   3   4  136.20   47.03
  16   3   5   72.90   41.17
  16   3   6   -1.88   15.57
  16   4  -9   82.29   34.35
  16   4  -8   26.71   21.62
  16   4  -7   51.06   28.73
  16   4  -6   32.99   25.74
  16   4  -5   62.59   30.37
  16   4  -5   68.69   31.61
  16   4  -4  135.46   41.67
  16   4  -4  125.09   42.73
  16   4  -3   38.65   25.29
  16   4  -2  -18.81   21.12
  16   4  -1  314.68   62.81
  16   4   0   98.09   36.98
  16   4   1   -9.53   18.16
  16   4   2   19.99   23.97
  16   4   3    0.27   15.13
  17   0 -15  -15.27   21.09
  17   0 -14  -43.66   28.49
  17   0 -13   33.30   17.20
  17   0 -12  343.91   62.81
  17   0 -11  227.56   50.70
  17   0 -10  132.85   37.28
  17   0  -9  207.08   46.90
  17   0  -8   48.33   23.82
  17   0  -7  141.34   39.90
  17   0  -6   50.24   25.10
  17   0  -5   10.54   14.84
  17   0  -4  537.87   75.00
  17   0  -3    1.73   11.98
  17   0  -2  146.68   41.91
  17   0  -1  107.17   37.31
  17   0   0  207.80   52.55
  17   0   1    1.33   15.11
  17   0   2  -14.14   25.63
  17   0   3   28.77   30.16
  17   0   4  371.78   82.37
  17   0   5   47.62   39.54
  17   0   6  -37.67   30.32
  17   0   7  -13.05   21.75
  17   0   8  -35.39   42.58
  17   1 -14  -17.04   20.24
  17   1 -13   55.11   22.26
  17  -1 -12   32.91   17.53
  17   1 -12  -11.63   24.72
  17  -1 -11    8.61   15.43
  17   1 -11  -28.90   26.88
  17  -1 -10   40.55   26.21
  17   1 -10   42.53   24.52
  17  -1  -9   64.10   27.12
  17   1  -9   33.12   18.34
  17  -1  -8   45.20   21.77
  17   1  -8   63.64   26.77
  17   1  -7  318.02   59.58
  17  -1  -7  289.39   54.80
  17  -1  -6   13.84   15.16
  17   1  -6   15.73   21.61
  17  -1  -5  114.66   36.68
  17   1  -5  123.94   39.30
  17  -1  -4  101.81   33.87
  17   1  -4  131.76   40.32
  17  -1  -3  538.22   77.83
  17   1  -3  456.77   68.37
  17  -1  -2  134.11   40.27
  17   1  -2  106.94   33.84
  17  -1  -1   77.85   33.43
  17   1  -1   52.22   25.14
  17  -1   0  -28.07   21.87
  17   1   0   -9.62   14.49
  17  -1   1  174.78   55.13
  17   1   1  176.64   49.29
  17  -1   2  142.85   55.41
  17   1   2   60.08   28.64
  17  -1   3  134.01   51.35
  17   1   3   85.05   36.72
  17  -1   4  153.35   58.11
  17   1   4  113.88   46.13
  17  -1   5  -32.17   40.24
  17   1   5   48.17   40.61
  17  -1   6  324.83   89.26
  17   1   6  332.87   80.01
  17  -1   7   -6.93   43.61
  17   1   7   60.96   34.67
  17   2 -13   22.69   15.50
  17   2 -12  281.84   61.07
  17   2 -11  173.31   46.23
  17   2 -10   89.88   33.50
  17   2  -9  116.67   37.17
  17   2  -8   11.36   14.28
  17   2  -7  106.50   34.52
  17   2  -6   12.36   19.55
  17   2  -5   24.27   22.72
  17   2  -4  473.59   73.93
  17   2  -3    2.30   11.22
  17   2  -2   93.15   36.46
  17   2  -1   99.66   35.32
  17  -2   0  172.45   55.34
  17   2   0  197.42   50.64
  17  -2   1    6.80   21.99
  17   2   1   10.05   16.92
  17  -2   2   36.77   32.87
  17   2   2   -0.60   14.07
  17  -2   3   45.93   42.09
  17   2   3   41.80   28.68
  17  -2   4  295.87   87.73
  17   2   4  294.67   69.75
  17   2   5   73.74   40.37
  17   2   6   22.34   29.27
  17   3 -11  -39.48   28.99
  17   3 -10   27.96   23.56
  17   3  -9   21.84   18.96
  17   3  -8   56.78   28.03
  17   3  -7  203.59   52.21
  17   3  -6   43.69   32.37
  17   3  -5  110.42   40.74
  17   3  -4   50.04   28.80
  17   3  -3  278.99   59.82
  17   3  -2   67.98   31.62
  17   3  -1   56.46   29.72
  17   3   0   13.96   15.69
  17   3   1   70.84   28.95
  17   3   2   55.40   29.81
  17   3   3   30.43   24.32
  17   3   4  100.88   44.96
  17   4  -5   36.73   28.69
  17   4  -4  164.79   49.62
  17   4  -3   19.47   20.96
  17   4  -2   56.63   25.41
  17   4  -1   21.43   18.35
  18   0 -14  127.06   39.09
  18   0 -13   -2.53    9.46
  18   0 -12   12.20   10.25
  18   0 -11   -5.35    9.36
  18   0 -10   -2.65    9.48
  18   0  -9    5.63   14.49
  18   0  -8   17.75   20.42
  18   0  -7  193.04   47.11
  18   0  -6  156.95   43.87
  18   0  -5  344.24   62.28
  18   0  -4  132.37   42.74
  18   0  -3   15.26   19.42
  18   0  -2   47.53   27.20
  18   0  -1  -11.44   24.60
  18   0   0   -8.76   12.34
  18   0   1  138.05   47.03
  18   0   2   36.25   29.42
  18   0   3   40.08   34.74
  18   0   4  150.15   59.71
  18   0   5    6.98   16.24
  18   0   6  103.20   50.25
  18   1 -13  -31.24   24.69
  18   1 -12   23.31   15.83
  18  -1 -11   18.07   13.25
  18   1 -11    6.74   15.45
  18  -1 -10    3.93   12.48
  18   1 -10   11.47   14.50
  18  -1  -9   24.82   23.33
  18   1  -9   42.90   24.34
  18  -1  -8  238.64   50.92
  18   1  -8  289.77   55.62
  18  -1  -7   63.93   29.05
  18   1  -7  126.61   43.47
  18  -1  -6    8.61   13.57
  18   1  -6    6.65   14.45
  18  -1  -5   18.41   21.61
  18   1  -5    0.28   15.33
  18  -1  -4   20.55   23.43
  18   1  -4   -2.07   13.50
  18  -1  -3    7.22   11.75
  18   1  -3   12.11   19.15
  18  -1  -2  263.54   62.59
  18   1  -2  284.13   57.43
  18  -1  -1   32.23   17.01
  18   1  -1   56.49   31.71
  18  -1   0  546.97   93.29
  18   1   0  555.35   85.47
  18  -1   1  127.74   51.15
  18   1   1   75.86   31.98
  18  -1   2  525.26  100.61
  18   1   2  408.78   77.65
  18  -1   3   43.76   40.20
  18   1   3    8.38   16.85
  18  -1   4   97.05   47.91
  18   1   4   74.91   44.28
  18  -1   5   10.58   23.26
  18   1   5   14.12   29.49
  18  -1   6   -6.25   40.63
  18   2 -11   13.77   11.79
  18   2 -10   -4.78   16.79
  18   2  -9   19.75   23.78
  18   2  -8   45.30   36.01
  18   2  -7  121.55   42.21
  18   2  -6   97.24   32.19
  18   2  -5  254.57   57.83
  18   2  -4   90.12   33.32
  18   2  -3   42.07   26.35
  18   2  -2   31.20   18.58
  18   2  -1   22.64   24.86
  18   2   0   21.24   26.43
  18   2   1  141.14   47.37
  18   2   2  -12.28   27.28
  18   2   3  -12.48   24.24
  18   2   4  125.95   54.43
  18   3  -8  212.86   56.81
  18   3  -7   56.51   33.29
  18   3  -6   62.56   38.19
  18   3  -5   25.52   27.42
  18   3  -4   14.63   14.83
  18   3  -3   -5.07   12.60
  18   3  -2  133.70   44.54
  18   3  -1   17.24   21.87
  18   3   0  296.41   66.94
  18   3   1   87.27   41.96
  19   0 -12   41.48   25.62
  19   0 -11   69.99   32.02
  19   0 -10  192.81   49.84
  19   0  -9  292.51   63.04
  19   0  -8   27.91   27.42
  19   0  -7   16.87   18.59
  19   0  -6   25.41   24.75
  19   0  -5   68.32   31.81
  19   0  -4   26.87   27.32
  19   0  -3  122.72   43.22
  19   0  -2   25.81   23.09
  19   0  -1   25.99   26.58
  19   0   0  185.80   56.45
  19   0   1  -45.99   36.08
  19   0   2   95.46   45.26
  19   0   3   60.18   43.62
  19   0   4   49.82   38.71
  19   1 -11   44.78   26.96
  19   1 -10    5.28   13.44
  19   1  -9  304.20   62.67
  19  -1  -8   70.15   30.85
  19   1  -8   65.32   32.31
  19  -1  -7  202.52   50.97
  19   1  -7  159.08   47.73
  19  -1  -6   33.19   21.82
  19   1  -6   34.59   26.14
  19  -1  -5   28.25   28.11
  19   1  -5   15.19   20.15
  19  -1  -4   83.96   35.96
  19   1  -4   92.69   37.56
  19  -1  -3  144.41   47.77
  19   1  -3  159.93   47.00
  19  -1  -2   34.36   23.63
  19   1  -2   23.39   18.67
  19  -1  -1   32.37   25.50
  19   1  -1   61.68   31.97
  19  -1   0   90.65   43.80
  19   1   0   70.61   37.76
  19  -1   1   32.71   29.36
  19   1   1  -17.19   23.36
  19  -1   2   17.00   24.90
  19   1   2  -31.71   33.31
  19  -1   3   16.69   21.86
  19   1   3   65.79   43.35
  19  -1   4   15.24   31.10
  19   2  -9  249.28   59.71
  19   2  -8   13.02   25.17
  19   2  -7   16.37   23.18
  19   2  -6   45.37   34.36
  19   2  -5   43.90   26.51
  19   2  -4   26.83   25.11
  19   2  -3  116.79   42.12
  19   2  -2   -7.68   13.71
  19   2  -1   32.86   20.74
  19   2   0  152.34   53.22
  19   2   1   16.25   22.77
  20   0 -10   35.93   25.11
  20   0  -9   15.78   21.65
  20   0  -8   27.99   25.54
  20   0  -7  201.55   55.34
  20   0  -6   53.64   28.75
  20   0  -5  392.17   73.40
  20   0  -4   76.75   34.21
  20   0  -3   18.67   25.04
  20   0  -2   -5.65   17.15
  20   0  -1   -3.72   16.81
  20   0   0   25.07   25.82
  20   0   1   89.49   44.90
  20   1  -8   58.94   32.98
  20   1  -7   41.78   30.04
  20   1  -6   55.06   32.20
  20  -1  -5   11.01   19.34
  20   1  -5   10.88   17.26
  20  -1  -4  157.97   50.30
  20   1  -4  138.64   47.06
  20  -1  -3   85.33   40.72
  20   1  -3   87.71   39.67
  20  -1  -2  143.83   51.44
  20   1  -2  171.19   53.27
  20  -1  -1   38.02   30.94
  20   1  -1   44.52   27.14
  20  -1   0   51.49   39.14
  20  -1   1   12.49   23.66
   0   0   0    0.00    0.00




TITL PbBr2 in P2(1)/m
REM P2(1)/m (#11 in standard setting)
CELL 0.71073  12.260597   4.333105  12.500030  90.0000 101.3976  90.0000
ZERR   12.00   0.000736   0.000211   0.000752   0.0000   0.0064   0.0000
LATT  1
SYMM -x, y+1/2,-z
SFAC B P
UNIT 24.00 12.00
TREF
HKLF 4
END
_computing_structure_solution     'SHELXT 2014/5 (Sheldrick, 2014)'
_computing_structure_solution     'SHELXT 2014/5 (Sheldrick, 2014)'
_computing_structure_solution     'SHELXT 2014/5 (Sheldrick, 2014)'
;
_shelx_hkl_checksum              78066
loop_
_space_group_symop_operation_xyz
'x, y, z'
'-x, y+1/2, -z'
'-x, -y, -z'
'x, -y-1/2, z'
loop_
_atom_site_label
_atom_site_type_symbol
_atom_site_fract_x
_atom_site_fract_y
_atom_site_fract_z
_atom_site_U_iso_or_equiv
_atom_site_adp_type
_atom_site_occupancy
_atom_site_site_symmetry_order
_atom_site_calc_flag
_atom_site_refinement_flags_posn
_atom_site_refinement_flags_adp
_atom_site_refinement_flags_occupancy
Pb1 Pb 0.57429(7) 0.2500 0.19514(8) 0.0280(2) Uani 1 2 d S T P
Pb2 Pb 0.19173(8) 0.7500 0.06529(8) 0.0343(3) Uani 1 2 d S T P
Pb3 Pb -0.04401(8) 0.2500 0.32390(9) 0.0363(3) Uani 1 2 d S T P
Br2 Br 0.36655(16) 0.2500 -0.01003(16) 0.0217(4) Uani 1 2 d S T P
Br5 Br 0.10162(16) -0.2500 0.44369(17) 0.0223(4) Uani 1 2 d S T P
Br3 Br 0.17952(15) 0.2500 0.22513(17) 0.0213(4) Uani 1 2 d S T P
Br4 Br -0.05623(16) 0.7500 0.10334(18) 0.0240(4) Uani 1 2 d S T P
Br1 Br 0.42723(15) 0.7500 0.23983(17) 0.0211(4) Uani 1 2 d S T P
Br6 Br -0.23373(16) -0.2500 0.30929(18) 0.0242(4) Uani 1 2 d S T P
O1 O 0.5818(14) 0.2500 0.3989(13) 0.026(3) Uani 1 2 d S T P
H1 H 0.6119 0.0706 0.4323 0.039 Uiso 1 1 d R U .
O2 O 0.6308(16) 0.7500 0.5325(17) 0.037(4) Uani 1 2 d GS T P
H2 H 0.5913 0.8158 0.5755 0.055 Uiso 1 1 d G U .
loop_
_atom_site_aniso_label
_atom_site_aniso_U_11
_atom_site_aniso_U_22
_atom_site_aniso_U_33
_atom_site_aniso_U_23
_atom_site_aniso_U_13
_atom_site_aniso_U_12
Pb1 0.0275(4) 0.0271(4) 0.0309(4) 0.000 0.0093(3) 0.000
Pb2 0.0463(6) 0.0326(4) 0.0239(4) 0.000 0.0071(3) 0.000
Pb3 0.0298(5) 0.0350(5) 0.0395(5) 0.000 -0.0044(3) 0.000
Br2 0.0198(8) 0.0273(8) 0.0166(8) 0.000 -0.0002(6) 0.000
Br5 0.0210(8) 0.0242(8) 0.0208(8) 0.000 0.0020(6) 0.000
Br3 0.0198(8) 0.0248(8) 0.0187(8) 0.000 0.0020(6) 0.000
Br4 0.0170(8) 0.0309(9) 0.0226(9) 0.000 0.0001(6) 0.000
Br1 0.0159(8) 0.0227(8) 0.0234(9) 0.000 0.0006(6) 0.000
Br6 0.0173(8) 0.0293(9) 0.0247(9) 0.000 0.0012(6) 0.000
O1 0.036(8) 0.023(6) 0.016(6) 0.000 -0.004(5) 0.000
O2 0.035(9) 0.041(10) 0.032(9) 0.000 -0.001(7) 0.000
loop_
_atom_type_symbol
_atom_type_description
_atom_type_scat_dispersion_real
_atom_type_scat_dispersion_imag
_atom_type_scat_source
Pb Pb -3.3944 10.1111 'International Tables Vol C Tables 4.2.6.8 and 6.1.1.4'
Br Br -0.2901 2.4595 'International Tables Vol C Tables 4.2.6.8 and 6.1.1.4'
H H 0.0000 0.0000 'International Tables Vol C Tables 4.2.6.8 and 6.1.1.4'
O O 0.0106 0.0060 'International Tables Vol C Tables 4.2.6.8 and 6.1.1.4'
loop_
_geom_angle_atom_site_label_1
_geom_angle_atom_site_label_2
_geom_angle_atom_site_label_3
_geom_angle
_geom_angle_site_symmetry_1
_geom_angle_site_symmetry_3
O1 Pb1 Br1 73.2(2) . .
O1 Pb1 Br1 73.2(2) . 1_545
Br1 Pb1 Br1 94.85(6) . 1_545
O1 Pb1 Br2 131.6(4) . .
Br1 Pb1 Br2 74.62(5) . .
Br1 Pb1 Br2 74.61(5) 1_545 .
Br3 Pb2 Br3 93.65(6) . 1_565
Br3 Pb2 Br4 73.84(5) . .
Br3 Pb2 Br4 73.84(5) 1_565 .
Br5 Pb3 Br5 92.03(6) 1_565 .
Br5 Pb3 Br5 76.01(5) 1_565 3_556
Br5 Pb3 Br5 76.01(5) . 3_556
Br5 Pb3 Br6 151.66(7) 1_565 .
Br5 Pb3 Br6 83.84(4) . .
Br5 Pb3 Br6 75.78(5) 3_556 .
Br5 Pb3 Br6 83.84(4) 1_565 1_565
Br5 Pb3 Br6 151.65(7) . 1_565
Br5 Pb3 Br6 75.78(5) 3_556 1_565
Br6 Pb3 Br6 86.65(5) . 1_565
Br5 Pb3 Br3 74.02(5) 1_565 .
Br5 Pb3 Br3 74.02(5) . .
Br5 Pb3 Br3 136.29(6) 3_556 .
Br6 Pb3 Br3 130.60(4) . .
Br6 Pb3 Br3 130.60(4) 1_565 .
Pb3 Br5 Pb3 92.03(6) 1_545 .
Pb3 Br5 Pb3 103.99(5) 1_545 3_556
Pb3 Br5 Pb3 103.99(5) . 3_556
Pb2 Br3 Pb2 93.65(6) 1_545 .
Pb2 Br3 Pb3 114.68(5) 1_545 .
Pb2 Br3 Pb3 114.68(5) . .
Pb1 Br1 Pb1 94.85(6) . 1_565
Pb3 Br6 Pb3 86.65(5) 1_545 .
Pb1 O1 H1 112.7 . .
loop_
_geom_bond_atom_site_label_1
_geom_bond_atom_site_label_2
_geom_bond_distance
_geom_bond_site_symmetry_2
Pb1 O1 2.531(16) .
Pb1 Br1 2.9420(13) .
Pb1 Br1 2.9420(13) 1_545
Pb1 Br2 3.238(2) .
Pb2 Br3 2.9709(15) .
Pb2 Br3 2.9709(15) 1_565
Pb2 Br4 3.169(2) .
Pb3 Br5 3.0112(16) 1_565
Pb3 Br5 3.0112(16) .
Pb3 Br5 3.122(2) 3_556
Pb3 Br6 3.1575(15) .
Pb3 Br6 3.1575(15) 1_565
Pb3 Br3 3.221(2) .
Br5 Pb3 3.0112(16) 1_545
Br5 Pb3 3.122(2) 3_556
Br3 Pb2 2.9709(15) 1_545
Br1 Pb1 2.9420(13) 1_565
Br6 Pb3 3.1575(15) 1_545
O1 H1 0.9237 .
O2 H2 0.8415 .
