#------------------------------------------------------------------------------
#$Date: 2021-02-23 01:16:28 +0200 (Tue, 23 Feb 2021) $
#$Revision: 262136 $
#$URL: file:///home/coder/svn-repositories/cod/cif/4/00/38/4003869.cif $
#------------------------------------------------------------------------------
#
# This file is available in the Crystallography Open Database (COD),
# http://www.crystallography.net/
#
# All data on this site have been placed in the public domain by the
# contributors.
#
data_4003869
loop_
_publ_author_name
'Fateev, Sergey A.'
'Petrov, Andrey A.'
'Marchenko, Ekaterina I.'
'Zubavichus, Yan V.'
'Khrustalev, Victor N.'
'Petrov, Andrey V.'
'Aksenov, Sergey M.'
'Goodilin, Eugene A.'
'Tarasov, Alexey B.'
_publ_section_title
;
 FA2PbBr4: Synthesis, Structure, and Unusual Optical Properties of Two
 Polymorphs of Formamidinium-Based Layered (110) Hybrid Perovskite
;
_journal_name_full               'Chemistry of Materials'
_journal_paper_doi               10.1021/acs.chemmater.1c00382
_journal_year                    2021
_chemical_formula_sum            'C4 Br8 N8 Pb2'
_chemical_formula_weight         1213.71
_space_group_IT_number           2
_space_group_name_Hall           '-P 1'
_space_group_name_H-M_alt        'P -1'
_symmetry_cell_setting           triclinic
_symmetry_Int_Tables_number      2
_symmetry_space_group_name_Hall  '-P 1'
_symmetry_space_group_name_H-M   'P -1'
_cell_angle_alpha                65.92(3)
_cell_angle_beta                 73.01(3)
_cell_angle_gamma                83.76(3)
_cell_formula_units_Z            2
_cell_length_a                   8.5642(17)
_cell_length_b                   11.884(2)
_cell_length_c                   14.312(3)
_cell_measurement_reflns_used    500
_cell_measurement_temperature    100(2)
_cell_measurement_theta_max      30.2
_cell_measurement_theta_min      3.2
_cell_volume                     1271.7(6)
_diffrn_ambient_temperature      100(2)
_diffrn_measured_fraction_theta_full 0.99
_diffrn_measured_fraction_theta_max 0.99
_diffrn_measurement_device       'Rayonix SX165 CCD'
_diffrn_measurement_method       '/f scan'
_diffrn_radiation_probe          x-ray
_diffrn_radiation_type           synchrotron
_diffrn_radiation_wavelength     0.80246
_diffrn_reflns_av_R_equivalents  0.1369
_diffrn_reflns_av_unetI/netI     0.1319
_diffrn_reflns_limit_h_max       10
_diffrn_reflns_limit_h_min       -10
_diffrn_reflns_limit_k_max       15
_diffrn_reflns_limit_k_min       -15
_diffrn_reflns_limit_l_max       18
_diffrn_reflns_limit_l_min       -18
_diffrn_reflns_number            24310
_diffrn_reflns_theta_full        30.87
_diffrn_reflns_theta_max         30.87
_diffrn_reflns_theta_min         3.16
_exptl_absorpt_coefficient_mu    32.973
_exptl_absorpt_correction_T_max  0.06
_exptl_absorpt_correction_T_min  0.06
_exptl_absorpt_correction_type   multi-scan
_exptl_absorpt_process_details   'Scala (Evans, 2006)'
_exptl_crystal_colour            black
_exptl_crystal_density_diffrn    3.1695
_exptl_crystal_description       'prism '
_exptl_crystal_F_000             1048
_refine_diff_density_max         20.87
_refine_diff_density_min         -8.37
_refine_ls_extinction_coef       4100(600)
_refine_ls_extinction_method
'B-C type 1 Gaussian isotropic (Becker & Coppens, 1974)'
_refine_ls_goodness_of_fit_gt    2.77
_refine_ls_goodness_of_fit_ref   2.50
_refine_ls_hydrogen_treatment    constr
_refine_ls_number_constraints    0
_refine_ls_number_parameters     140
_refine_ls_number_reflns         5529
_refine_ls_number_restraints     0
_refine_ls_R_factor_all          0.1677
_refine_ls_R_factor_gt           0.1620
_refine_ls_shift/su_max          0.0460
_refine_ls_shift/su_mean         0.0080
_refine_ls_structure_factor_coef Fsqd
_refine_ls_weighting_details     w=1/(\s^2^(I)+0.0016I^2^)
_refine_ls_weighting_scheme      sigma
_refine_ls_wR_factor_gt          0.3524
_refine_ls_wR_factor_ref         0.3545
_reflns_number_gt                4446
_reflns_number_total             5529
_reflns_threshold_expression     I>3\s(I)
_cod_data_source_file            cm1c00382_si_002.cif
_cod_data_source_block           FAPbBr
_cod_depositor_comments
;
The following automatic conversions were performed:

data item '_diffrn_radiation_probe' value 'X-ray' was changed to
'x-ray' in accordance with the
/home/data/users/saulius/crontab/automatic-downloads/rss-feeds/ACS/lib/dictionaries/cif_core.dic
dictionary named 'cif_core.dic' version 2.4.2 last updated on
2011-04-26.

Automatic conversion script
Id: cif_fix_values 7556 2019-12-06 15:28:31Z antanas 
;
_cod_database_code               4003869
loop_
_space_group_symop_id
_space_group_symop_operation_xyz
1 x,y,z
2 -x,-y,-z
loop_
_atom_site_label
_atom_site_type_symbol
_atom_site_fract_x
_atom_site_fract_y
_atom_site_fract_z
_atom_site_adp_type
_atom_site_U_iso_or_equiv
_atom_site_site_symmetry_multiplicity
_atom_site_occupancy
_atom_site_calc_flag
_atom_site_refinement_flags
_atom_site_disorder_assembly
_atom_site_disorder_group
Pb1 Pb 0.67789(13) 0.69571(9) 0.15812(9) Uani 0.0218(5) 2 1 d . . .
Pb2 Pb 0.33943(13) 0.81747(9) -0.18289(9) Uani 0.0213(5) 2 1 d . . .
Br1 Br 1.0110(3) 0.7608(2) -0.0105(2) Uani 0.0270(12) 2 1 d . . .
Br2 Br 0.7127(4) 0.9206(2) 0.2009(2) Uani 0.0277(11) 2 1 d . . .
Br3 Br 0.3607(3) 0.6575(3) 0.3143(2) Uani 0.0272(11) 2 1 d . . .
Br4 Br 0.6483(3) 0.4488(2) 0.1566(2) Uani 0.0271(11) 2 1 d . . .
Br5 Br 0.8563(3) 0.5655(3) 0.3247(2) Uani 0.0284(12) 2 1 d . . .
Br6 Br 0.5023(3) 0.7869(3) -0.0097(2) Uani 0.0272(11) 2 1 d . . .
Br7 Br 0.6542(3) 0.8706(3) -0.3442(2) Uani 0.0275(11) 2 1 d . . .
Br8 Br 0.1639(3) 0.8826(3) -0.3435(2) Uani 0.0276(11) 2 1 d . . .
N1 N 0.757(3) 0.486(2) 0.827(2) Uiso 0.038(6) 2 1 d . . .
N2 N 0.934(3) 0.592(2) 0.862(2) Uiso 0.037(6) 2 1 d . . .
C1 C 0.781(3) 0.566(2) 0.862(2) Uiso 0.025(5) 2 1 d . . .
N3 N 0.827(3) -0.014(2) 0.7823(19) Uiso 0.029(5) 2 1 d . . .
N4 N 0.848(3) 0.086(2) 0.890(2) Uiso 0.032(5) 2 1 d . . .
C2 C 0.754(4) 0.045(3) 0.846(2) Uiso 0.030(6) 2 1 d . . .
N5 N 0.550(3) 0.178(2) 0.5408(19) Uiso 0.028(5) 2 1 d . . .
N6 N 0.448(3) 0.379(2) 0.4756(19) Uiso 0.029(5) 2 1 d . . .
C3 C 0.531(3) 0.288(2) 0.462(2) Uiso 0.022(5) 2 1 d . . .
N7 N 0.001(3) 0.281(2) 0.444(2) Uiso 0.041(6) 2 1 d . . .
N8 N 0.115(3) 0.193(2) 0.585(2) Uiso 0.031(5) 2 1 d . . .
C4 C 0.035(4) 0.283(3) 0.529(2) Uiso 0.034(6) 2 1 d . . .
loop_
_atom_site_aniso_label
_atom_site_aniso_type_symbol
_atom_site_aniso_U_11
_atom_site_aniso_U_22
_atom_site_aniso_U_33
_atom_site_aniso_U_12
_atom_site_aniso_U_13
_atom_site_aniso_U_23
Pb1 Pb 0.0185(6) 0.0186(6) 0.0357(7) -0.0006(4) -0.0101(4) -0.0160(4)
Pb2 Pb 0.0181(6) 0.0179(5) 0.0354(7) -0.0007(4) -0.0102(4) -0.0158(4)
Br1 Br 0.0193(14) 0.0287(14) 0.0394(17) -0.0049(12) -0.0058(12) -0.0200(12)
Br2 Br 0.0311(15) 0.0181(12) 0.0423(16) 0.0008(11) -0.0121(12) -0.0189(11)
Br3 Br 0.0224(14) 0.0268(13) 0.0366(16) -0.0002(11) -0.0078(11) -0.0167(11)
Br4 Br 0.0236(14) 0.0201(12) 0.0479(17) -0.0001(11) -0.0133(12) -0.0210(11)
Br5 Br 0.0248(14) 0.0294(14) 0.0404(17) 0.0057(12) -0.0153(12) -0.0201(12)
Br6 Br 0.0231(14) 0.0277(13) 0.0374(16) -0.0005(11) -0.0144(11) -0.0149(11)
Br7 Br 0.0211(14) 0.0284(14) 0.0397(17) -0.0015(11) -0.0081(11) -0.0198(12)
Br8 Br 0.0232(14) 0.0296(14) 0.0404(17) 0.0028(12) -0.0137(12) -0.0213(12)
loop_
_atom_type_symbol
_atom_type_scat_dispersion_real
_atom_type_scat_dispersion_imag
_atom_type_scat_source
C 0.0050 0.0020 'International Tables Vol C tables 4.2.6.8 and 6.1.1.1'
H 0.0000 0.0000 'International Tables Vol C tables 4.2.6.8 and 6.1.1.1'
Br -0.9621 2.9511 'International Tables Vol C tables 4.2.6.8 and 6.1.1.1'
N 0.0090 0.0040 'International Tables Vol C tables 4.2.6.8 and 6.1.1.1'
Pb -7.4040 10.6371 'International Tables Vol C tables 4.2.6.8 and 6.1.1.1'
loop_
_diffrn_standard_refln_index_h
_diffrn_standard_refln_index_k
_diffrn_standard_refln_index_l
? ? ?
loop_
_geom_angle_atom_site_label_1
_geom_angle_atom_site_label_2
_geom_angle_atom_site_label_3
_geom_angle_site_symmetry_1
_geom_angle_site_symmetry_2
_geom_angle_site_symmetry_3
_geom_angle
_geom_angle_publ_flag
Br1 Pb1 Br2 . . . 89.05(9) ?
Br1 Pb1 Br3 . . . 174.85(10) ?
Br1 Pb1 Br4 . . . 95.18(9) ?
Br1 Pb1 Br5 . . . 88.50(9) ?
Br1 Pb1 Br6 . . . 91.33(9) ?
Br2 Pb1 Br3 . . . 86.27(10) ?
Br2 Pb1 Br4 . . . 169.50(10) ?
Br2 Pb1 Br5 . . . 84.54(10) ?
Br2 Pb1 Br6 . . . 104.44(10) ?
Br3 Pb1 Br4 . . . 89.79(9) ?
Br3 Pb1 Br5 . . . 93.18(9) ?
Br3 Pb1 Br6 . . . 87.77(9) ?
Br4 Pb1 Br5 . . . 85.96(10) ?
Br4 Pb1 Br6 . . . 85.10(10) ?
Br5 Pb1 Br6 . . . 171.02(11) ?
Br1 Pb2 Br2 1_455 . 2_675 85.67(9) ?
Br1 Pb2 Br4 1_455 . 2_665 88.77(9) ?
Br1 Pb2 Br6 1_455 . . 87.77(9) ?
Br1 Pb2 Br7 1_455 . . 179.11(11) ?
Br1 Pb2 Br8 1_455 . . 89.19(9) ?
Br2 Pb2 Br4 2_675 . 2_665 173.76(9) ?
Br2 Pb2 Br6 2_675 . . 84.68(10) ?
Br2 Pb2 Br7 2_675 . . 94.30(9) ?
Br2 Pb2 Br8 2_675 . . 86.46(10) ?
Br4 Pb2 Br6 2_665 . . 97.95(10) ?
Br4 Pb2 Br7 2_665 . . 91.30(9) ?
Br4 Pb2 Br8 2_665 . . 90.63(10) ?
Br6 Pb2 Br7 . . . 91.34(10) ?
Br6 Pb2 Br8 . . . 170.83(10) ?
Br7 Pb2 Br8 . . . 91.70(10) ?
Pb1 Br1 Pb2 . . 1_655 177.30(14) ?
Pb1 Br1 N2 . . 1_554 93.4(4) ?
Pb1 Br1 N4 . . 2_766 93.8(4) ?
Pb2 Br1 N2 1_655 . 1_554 83.9(4) ?
Pb2 Br1 N4 1_655 . 2_766 88.9(4) ?
N2 Br1 N4 1_554 . 2_766 170.8(6) ?
Pb1 Br2 Pb2 . . 2_675 156.63(13) ?
Pb1 Br2 N5 . . 2_666 97.7(5) ?
Pb1 Br2 N8 . . 2_666 104.3(5) ?
Pb2 Br2 N5 2_675 . 2_666 88.9(4) ?
Pb2 Br2 N8 2_675 . 2_666 98.5(5) ?
N5 Br2 N8 2_666 . 2_666 61.7(6) ?
Pb1 Br3 N1 . . 2_666 86.2(4) ?
Pb1 Br3 N6 . . . 94.6(4) ?
N1 Br3 N6 2_666 . . 87.8(7) ?
Pb1 Br4 Pb2 . . 2_665 169.03(13) ?
Pb1 Br4 N1 . . 2_666 86.5(5) ?
Pb1 Br4 N2 . . 2_766 88.4(5) ?
Pb2 Br4 N1 2_665 . 2_666 101.7(5) ?
Pb2 Br4 N2 2_665 . 2_766 83.4(5) ?
N1 Br4 N2 2_666 . 2_766 174.9(7) ?
Pb1 Br5 N1 . . 2_766 102.5(5) ?
Pb1 Br5 N6 . . 2_666 93.6(4) ?
Pb1 Br5 N7 . . 1_655 138.9(7) ?
N1 Br5 N6 2_766 . 2_666 161.3(8) ?
N1 Br5 N7 2_766 . 1_655 67.4(6) ?
N6 Br5 N7 2_666 . 1_655 106.1(6) ?
Pb1 Br6 Pb2 . . . 165.86(13) ?
Pb1 Br6 N4 . . 2_666 101.3(5) ?
Pb2 Br6 N4 . . 2_666 88.3(5) ?
Pb2 Br7 N3 . . 1_564 94.6(4) ?
Pb2 Br7 N5 . . 1_564 90.9(4) ?
Pb2 Br7 N7 . . 2_665 140.8(4) ?
N3 Br7 N5 1_564 . 1_564 81.4(7) ?
N3 Br7 N7 1_564 . 2_665 98.2(7) ?
N5 Br7 N7 1_564 . 2_665 127.6(5) ?
Pb2 Br8 N3 . . 1_464 97.5(5) ?
Pb2 Br8 N5 . . 2_665 101.3(5) ?
Pb2 Br8 N7 . . 2_565 134.7(4) ?
Pb2 Br8 N8 . . 1_564 102.6(6) ?
N3 Br8 N5 1_464 . 2_665 160.8(6) ?
N3 Br8 N7 1_464 . 2_565 101.0(7) ?
N3 Br8 N8 1_464 . 1_564 60.9(5) ?
N5 Br8 N7 2_665 . 2_565 68.2(7) ?
N5 Br8 N8 2_665 . 1_564 110.5(5) ?
N7 Br8 N8 2_565 . 1_564 122.5(7) ?
Br3 N1 Br4 2_666 . 2_666 73.6(7) ?
Br3 N1 Br5 2_666 . 2_766 79.7(7) ?
Br3 N1 C1 2_666 . . 163(2) ?
Br4 N1 Br5 2_666 . 2_766 148.1(11) ?
Br4 N1 C1 2_666 . . 95.5(18) ?
Br5 N1 C1 2_766 . . 106.1(18) ?
Br1 N2 Br4 1_556 . 2_766 75.9(7) ?
Br1 N2 C1 1_556 . . 125(2) ?
Br4 N2 C1 2_766 . . 157(2) ?
N1 C1 N2 . . . 122(3) ?
Br7 N3 Br8 1_546 . 1_646 81.7(7) ?
Br7 N3 C2 1_546 . . 128(2) ?
Br8 N3 C2 1_646 . . 150(2) ?
Br1 N4 Br6 2_766 . 2_666 75.2(6) ?
Br1 N4 C2 2_766 . . 164.0(19) ?
Br6 N4 C2 2_666 . . 89.4(17) ?
N3 C2 N4 . . . 119(3) ?
Br2 N5 Br7 2_666 . 1_546 77.1(4) ?
Br2 N5 Br8 2_666 . 2_665 150.9(7) ?
Br2 N5 C3 2_666 . . 122.3(17) ?
Br7 N5 Br8 1_546 . 2_665 74.0(5) ?
Br7 N5 C3 1_546 . . 158(2) ?
Br8 N5 C3 2_665 . . 85.5(15) ?
Br3 N6 Br5 . . 2_666 85.5(6) ?
Br3 N6 C3 . . . 134.7(18) ?
Br5 N6 C3 2_666 . . 138.3(15) ?
N5 C3 N6 . . . 126(3) ?
Br5 N7 Br7 1_455 . 2_665 129.8(7) ?
Br5 N7 Br8 1_455 . 2_565 100.2(9) ?
Br5 N7 C4 1_455 . . 105(2) ?
Br7 N7 Br8 2_665 . 2_565 77.8(7) ?
Br7 N7 C4 2_665 . . 101.2(19) ?
Br8 N7 C4 2_565 . . 146.9(18) ?
Br2 N8 Br8 2_666 . 1_546 71.7(5) ?
Br2 N8 C4 2_666 . . 146(3) ?
Br8 N8 C4 1_546 . . 139(3) ?
N7 C4 N8 . . . 121(3) ?
loop_
_geom_bond_atom_site_label_1
_geom_bond_atom_site_label_2
_geom_bond_site_symmetry_1
_geom_bond_site_symmetry_2
_geom_bond_distance
_geom_bond_publ_flag
Pb1 Br1 . . 3.081(3) ?
Pb1 Br2 . . 3.037(4) ?
Pb1 Br3 . . 2.911(3) ?
Pb1 Br4 . . 2.982(4) ?
Pb1 Br5 . . 3.003(4) ?
Pb1 Br6 . . 2.973(4) ?
Pb2 Br1 . 1_455 3.074(3) ?
Pb2 Br2 . 2_675 3.010(3) ?
Pb2 Br4 . 2_665 3.024(3) ?
Pb2 Br6 . . 3.065(4) ?
Pb2 Br7 . . 2.922(3) ?
Pb2 Br8 . . 2.908(4) ?
Br1 N2 . 1_554 3.43(4) ?
Br1 N4 . 2_766 3.47(3) ?
Br2 N5 . 2_666 3.50(2) ?
Br2 N8 . 2_666 3.50(3) ?
Br3 N1 . 2_666 3.51(4) ?
Br3 N6 . . 3.33(2) ?
Br4 N1 . 2_666 3.43(3) ?
Br4 N2 . 2_766 3.51(3) ?
Br5 N1 . 2_766 3.53(3) ?
Br5 N6 . 2_666 3.49(3) ?
Br5 N7 . 1_655 3.39(3) ?
Br6 N4 . 2_666 3.51(3) ?
Br7 N3 . 1_564 3.38(3) ?
Br7 N5 . 1_564 3.48(2) ?
Br7 N7 . 2_665 3.53(3) ?
Br8 N3 . 1_464 3.33(2) ?
Br8 N5 . 2_665 3.42(3) ?
Br8 N7 . 2_565 3.45(4) ?
Br8 N8 . 1_564 3.42(2) ?
N1 C1 . . 1.31(5) ?
N2 C1 . . 1.38(4) ?
N3 C2 . . 1.35(4) ?
N4 C2 . . 1.38(5) ?
N5 C3 . . 1.37(3) ?
N6 C3 . . 1.28(4) ?
N7 C4 . . 1.35(5) ?
N8 C4 . . 1.31(4) ?
loop_
_refln_index_h
_refln_index_k
_refln_index_l
_refln_F_squared_calc
_refln_F_squared_meas
_refln_F_squared_sigma
_refln_observed_status
2 0 0 22903.80 18986.60 1768.98 o
3 0 0 86099.60 98786.00 9204.99 o
4 0 0 19704.40 17563.80 1631.87 o
5 0 0 13303.30 14952.10 2532.59 o
6 0 0 116095.00 178686.00 19582.80 o
7 0 0 3953.02 7628.90 726.77 o
8 0 0 50.46 41.49 102.63 <
9 0 0 6764.05 6077.27 596.46 o
10 0 0 3860.03 2926.81 353.77 o
-10 1 0 1118.62 964.69 181.56 o
-9 1 0 7653.71 8336.41 858.42 o
-8 1 0 10.69 63.32 109.18 <
-7 1 0 402.60 786.75 113.64 o
-6 1 0 7303.22 9033.16 851.93 o
-5 1 0 719.11 807.52 126.93 o
-4 1 0 11858.70 11401.80 1063.35 o
-3 1 0 6747.94 6043.28 789.63 o
-2 1 0 253.44 249.42 39.38 o
-1 1 0 0.97 43.67 56.77 <
1 1 0 202.32 208.00 32.84 o
2 1 0 3598.77 3756.05 345.74 o
3 1 0 2411.71 2176.16 201.25 o
4 1 0 11.03 87.34 61.14 <
5 1 0 3934.27 5172.08 484.05 o
6 1 0 13310.80 18793.20 1765.53 o
7 1 0 110.46 176.91 102.65 <
8 1 0 1370.12 1560.89 177.32 o
9 1 0 2298.86 2104.50 256.49 o
10 1 0 208.06 264.29 148.53 <
-10 2 0 6019.05 6354.60 1270.04 o
-9 2 0 2687.91 2228.71 322.46 o
-8 2 0 112.93 2625.12 371.27 o
-7 2 0 1687.17 24633.20 2750.17 o
-6 2 0 8924.41 11188.10 1529.10 o
-5 2 0 15944.60 12996.10 1496.91 o
-4 2 0 771.84 865.00 122.63 o
-3 2 0 38789.40 41454.40 9971.13 o
-2 2 0 41524.70 50349.40 12056.70 o
-1 2 0 5.16 8570.64 1115.82 o
0 2 0 45046.90 45794.80 5995.72 o
1 2 0 41941.00 42093.00 3890.67 o
2 2 0 126.42 417.40 59.00 o
3 2 0 31260.10 29844.70 2777.25 o
4 2 0 3419.05 3334.92 311.82 o
5 2 0 224.04 742.89 91.77 o
6 2 0 40455.60 97489.40 9139.63 o
7 2 0 21119.40 22237.70 2087.36 o
8 2 0 407.96 472.00 113.63 o
9 2 0 9249.01 8719.43 825.14 o
10 2 0 1076.82 551.21 139.99 o
-10 3 0 2613.85 2787.02 712.65 o
-9 3 0 197.65 286.13 229.34 <
-8 3 0 231.83 2761.12 690.28 o
-7 3 0 949.13 1301.75 350.05 o
-6 3 0 9506.30 12407.00 2995.10 o
-5 3 0 1584.60 2031.10 522.03 o
-4 3 0 3775.78 3800.76 920.32 o
-3 3 0 1586.18 1833.63 452.91 o
-2 3 0 10.27 427.99 135.38 o
-1 3 0 1693.95 1910.43 172.27 o
0 3 0 15111.40 13791.70 1474.64 o
1 3 0 169.20 222.97 45.91 o
2 3 0 1398.35 1020.85 99.00 o
3 3 0 912.81 1001.78 107.41 o
4 3 0 643.14 1488.08 148.81 o
5 3 0 2333.46 2351.81 221.99 o
6 3 0 2827.07 3521.58 340.73 o
7 3 0 4093.47 4324.65 407.36 o
8 3 0 4703.31 5050.12 477.92 o
9 3 0 1319.90 1573.46 179.45 o
10 3 0 1413.96 978.26 151.01 o
-10 4 0 12010.80 12993.90 3162.79 o
-9 4 0 383.61 9054.25 2202.39 o
-8 4 0 3461.74 13574.20 3258.42 o
-7 4 0 18367.10 24372.70 5861.12 o
-6 4 0 275.40 589.92 229.41 <
-5 4 0 7059.53 7521.85 1810.94 o
-4 4 0 128018.00 192355.00 46362.20 o
-3 4 0 3096.82 49476.20 11797.40 o
-2 4 0 29400.90 30494.30 5113.75 o
-1 4 0 57775.90 68700.00 6448.72 o
0 4 0 1950.90 2021.47 187.58 o
1 4 0 21479.60 18520.40 1626.09 o
2 4 0 156636.00 208230.00 19252.60 o
3 4 0 3915.82 3427.59 316.84 o
4 4 0 9338.45 9349.44 847.29 o
5 4 0 8949.30 15015.80 1401.44 o
6 4 0 61.64 179.07 109.19 <
7 4 0 9827.19 9517.00 888.25 o
8 4 0 11223.90 11166.30 1035.78 o
9 4 0 2347.48 2045.22 223.59 o
-9 5 0 159.85 445.55 244.62 <
-8 5 0 7530.67 9239.25 2239.01 o
-7 5 0 2513.48 4280.68 1050.97 o
-6 5 0 1712.38 2185.03 550.09 o
-5 5 0 708.11 874.93 258.11 o
-4 5 0 101.58 218.41 135.42 <
-3 5 0 6120.11 6500.83 1568.40 o
-2 5 0 28263.60 29101.30 3148.31 o
-1 5 0 4208.09 3919.32 355.49 o
0 5 0 1868.01 1690.44 154.08 o
1 5 0 7081.13 5711.22 519.20 o
2 5 0 10043.70 9260.18 797.55 o
3 5 0 5872.16 9293.63 852.36 o
4 5 0 1422.09 11654.10 1072.02 o
5 5 0 5343.60 6917.02 643.70 o
6 5 0 717.13 793.83 126.84 o
7 5 0 2783.71 2581.47 252.44 o
8 5 0 2463.36 2247.75 228.06 o
9 5 0 24.33 63.32 128.83 <
-9 6 0 3977.36 4663.53 1153.80 o
-8 6 0 327.73 3585.14 884.81 o
-7 6 0 26818.80 38650.90 9316.18 o
-6 6 0 2813.87 4115.38 1007.98 o
-5 6 0 2618.70 3696.82 904.98 o
-4 6 0 55992.70 71511.30 17207.80 o
-3 6 0 15645.30 19662.70 6697.29 <
-2 6 0 4863.70 8440.37 787.27 o
-1 6 0 65359.20 74357.50 6885.15 o
0 6 0 982.25 876.43 89.83 o
1 6 0 467.63 457.08 72.17 o
2 6 0 40477.10 39001.20 3508.13 o
3 6 0 12219.90 53590.90 4931.28 o
4 6 0 1210.60 3627.01 674.59 o
5 6 0 14030.90 14499.50 1344.75 o
6 6 0 2117.79 2214.76 219.28 o
7 6 0 1336.33 1120.69 137.90 o
8 6 0 9115.68 7907.21 742.83 o
9 6 0 2947.73 7301.61 1792.49 o
-9 7 0 20.70 1281.76 371.21 o
-8 7 0 1319.54 2267.11 593.04 o
-7 7 0 695.94 1154.31 332.30 o
-6 7 0 11.18 111.36 159.40 <
-5 7 0 2043.01 2633.69 653.49 o
-4 7 0 25437.10 37639.00 9051.31 o
-3 7 0 14.38 1436.79 377.76 o
-2 7 0 6780.30 6789.32 622.87 o
-1 7 0 353.74 526.77 80.87 o
0 7 0 1661.66 1566.72 149.21 o
1 7 0 6738.03 6157.98 561.03 o
2 7 0 44515.20 51648.70 4731.65 o
3 7 0 2834.63 5361.56 571.78 o
4 7 0 1495.10 1581.91 170.90 o
5 7 0 2510.32 2770.00 272.17 o
6 7 0 8849.52 9307.10 863.66 o
7 7 0 108.89 211.84 111.38 <
8 7 0 16449.80 15032.80 1388.44 o
-8 8 0 401.75 834.65 305.89 <
-7 8 0 3193.93 4990.23 1229.45 o
-6 8 0 1846.25 2852.47 720.78 o
-5 8 0 2957.49 7651.38 1857.94 o
-4 8 0 7664.68 17347.60 4189.35 o
-3 8 0 7167.24 10221.70 1080.76 o
-2 8 0 6815.66 6978.57 637.04 o
-1 8 0 25651.40 25045.10 2297.12 o
0 8 0 28896.30 29267.70 2677.96 o
1 8 0 3621.53 5387.36 502.38 o
2 8 0 16522.90 21484.40 1966.13 o
3 8 0 23576.40 22977.00 2101.78 o
4 8 0 3076.55 2887.61 281.29 o
5 8 0 29602.60 27995.40 2499.51 o
6 8 0 12977.80 12128.40 1103.81 o
7 8 0 437.93 292.81 120.18 <
8 8 0 2517.60 2181.51 223.63 o
-8 9 0 1.13 -2.18 240.18 <
-7 9 0 516.27 891.63 334.36 <
-6 9 0 8865.76 12149.30 2953.07 o
-5 9 0 245.80 3184.97 801.70 o
-4 9 0 4516.04 5786.48 1416.33 o
-3 9 0 366.75 539.73 253.48 <
-2 9 0 119.47 157.25 98.28 <
-1 9 0 3195.07 3659.25 343.05 o
0 9 0 6603.65 6612.48 596.10 o
1 9 0 5479.71 8827.13 815.53 o
2 9 0 1068.49 14897.20 1365.63 o
3 9 0 5313.70 5036.86 463.52 o
4 9 0 162.03 141.97 107.03 <
5 9 0 1421.42 1212.78 146.67 o
6 9 0 88.81 107.01 91.72 <
7 9 0 196.63 277.39 115.76 <
-7 10 0 937.40 1283.67 404.56 o
-6 10 0 2136.38 20267.30 4923.83 o
-5 10 0 21042.50 41004.00 9913.27 o
-4 10 0 3338.33 5037.06 1249.93 o
-3 10 0 1303.73 1409.64 236.40 o
-2 10 0 10045.80 11130.00 1215.64 o
-1 10 0 38.39 200.90 107.00 <
0 10 0 2852.39 7894.92 775.22 o
1 10 0 9256.42 9580.47 885.10 o
2 10 0 387.08 1105.68 150.77 o
3 10 0 154.50 120.13 102.65 <
4 10 0 1066.87 866.33 126.89 o
5 10 0 88.81 72.07 113.56 <
6 10 0 1012.77 730.52 135.60 o
7 10 0 1379.06 820.64 137.87 o
-6 11 0 1205.59 2675.66 693.53 o
-5 11 0 768.30 2090.10 561.88 o
-4 11 0 461.67 747.35 292.82 <
-3 11 0 2509.17 2230.46 342.14 o
-2 11 0 16056.40 17769.40 1932.18 o
-1 11 0 17.74 58.96 135.38 <
0 11 0 913.36 1356.06 183.72 o
1 11 0 2842.03 7126.81 654.08 o
2 11 0 2911.10 3360.47 331.44 o
3 11 0 259.58 238.11 104.86 <
4 11 0 11858.10 10117.20 931.09 o
5 11 0 527.15 533.24 118.01 o
6 11 0 390.87 172.61 109.24 <
-5 12 0 8092.06 10286.30 2501.88 o
-4 12 0 5001.37 4374.35 1085.33 o
-3 12 0 357.54 220.67 185.71 <
-2 12 0 12884.00 12966.10 1394.56 o
-1 12 0 4341.30 4291.86 398.17 o
0 12 0 575.26 4572.42 509.26 o
1 12 0 16769.90 18459.20 1969.91 o
2 12 0 14095.10 14173.70 1292.18 o
3 12 0 300.02 410.70 142.00 <
4 12 0 8733.02 7368.43 675.49 o
5 12 0 3033.13 1998.92 219.42 o
-3 13 0 766.44 327.93 198.95 <
-2 13 0 508.15 203.23 148.60 <
-1 13 0 2527.90 2025.96 228.03 o
0 13 0 47.32 41.49 126.65 <
1 13 0 1712.07 1742.97 214.59 o
2 13 0 1301.50 1133.46 168.49 o
3 13 0 1969.60 1496.09 192.76 o
-2 -13 1 650.58 432.79 146.45 <
-1 -13 1 336.32 347.37 135.45 <
0 -13 1 4129.22 4024.93 386.89 o
1 -13 1 1083.67 1004.00 170.61 o
2 -13 1 3392.79 1758.62 351.29 o
3 -13 1 209.20 -170.37 415.01 <
-4 -12 1 96.71 163.79 113.56 <
-3 -12 1 7887.37 7192.73 661.32 o
-2 -12 1 5482.32 6209.33 575.10 o
-1 -12 1 1237.30 1017.45 168.48 o
0 -12 1 5057.03 12653.90 1162.77 o
1 -12 1 2418.73 2703.28 295.98 o
2 -12 1 426.25 246.91 146.40 <
3 -12 1 4641.28 4085.96 765.71 o
4 -12 1 1619.34 1479.96 461.94 o
-5 -11 1 4746.97 3797.93 360.87 o
-4 -11 1 11014.90 9587.99 882.75 o
-3 -11 1 530.30 402.13 111.46 o
-2 -11 1 128.24 270.81 157.25 <
-1 -11 1 6427.86 11813.40 1049.05 o
0 -11 1 692.00 789.22 155.22 o
1 -11 1 5864.43 6575.26 582.51 o
2 -11 1 7562.64 7850.75 743.48 o
3 -11 1 57.76 74.25 231.47 <
4 -11 1 227.52 371.34 233.72 <
5 -11 1 1537.09 2175.91 571.34 o
6 -11 1 129.40 452.08 264.26 <
-6 -10 1 25.41 -8.73 122.28 <
-5 -10 1 614.65 646.98 124.59 o
-4 -10 1 1665.44 1333.62 157.67 o
-3 -10 1 307.13 255.61 100.50 <
-2 -10 1 2980.39 2933.50 283.25 o
-1 -10 1 13089.90 29700.00 2592.15 o
0 -10 1 185.09 2896.36 305.80 o
1 -10 1 4301.08 4685.31 438.15 o
2 -10 1 12167.40 12787.90 1407.48 o
3 -10 1 1750.37 1555.31 315.44 o
4 -10 1 8948.86 13744.70 3340.78 o
5 -10 1 9514.17 26158.80 6308.92 o
6 -10 1 72.12 1273.13 406.18 o
7 -10 1 4252.02 5384.22 1334.51 o
-7 -9 1 5373.49 3988.92 370.04 o
-6 -9 1 999.59 903.30 135.60 o
-5 -9 1 1866.81 2039.53 205.92 o
-4 -9 1 21295.10 21058.70 1954.04 o
-3 -9 1 93.56 104.83 100.46 <
-2 -9 1 8925.43 10446.00 958.33 o
-1 -9 1 1435.55 1979.90 205.88 o
0 -9 1 4467.00 4120.29 381.39 o
1 -9 1 2640.14 3025.92 289.86 o
2 -9 1 17393.40 18822.50 2034.31 o
3 -9 1 470.71 526.72 126.76 o
4 -9 1 882.03 2793.03 713.02 o
5 -9 1 2276.40 13948.70 3380.84 o
6 -9 1 163.61 526.37 240.25 <
7 -9 1 12.44 -61.14 246.74 <
-8 -8 1 274.84 214.08 124.51 <
-7 -8 1 8542.60 7536.08 668.79 o
-6 -8 1 4925.06 4944.22 460.29 o
-5 -8 1 3980.91 4032.08 369.55 o
-4 -8 1 28060.80 27256.70 2508.49 o
-3 -8 1 947.73 1713.16 188.16 o
-2 -8 1 7221.56 14222.50 1289.53 o
-1 -8 1 57355.60 64371.90 5921.90 o
0 -8 1 4143.92 4316.23 394.79 o
1 -8 1 10861.00 10755.90 1149.54 o
2 -8 1 42915.60 52458.70 4899.99 o
3 -8 1 1234.10 3238.24 562.70 o
4 -8 1 7102.94 21726.90 5275.52 o
5 -8 1 29247.70 45452.50 10899.00 o
6 -8 1 2682.74 7628.80 1829.86 o
7 -8 1 538.33 804.27 297.23 <
8 -8 1 11510.40 17340.30 4179.91 o
-8 -7 1 549.90 345.30 122.39 <
-7 -7 1 5227.17 4780.73 458.24 o
-6 -7 1 569.85 655.73 128.96 o
-5 -7 1 967.35 1076.35 137.83 o
-4 -7 1 4059.43 4011.38 376.69 o
-3 -7 1 3988.78 5243.98 487.15 o
-2 -7 1 1216.94 6411.16 582.63 o
-1 -7 1 5777.36 5249.86 476.86 o
0 -7 1 4493.43 4048.33 349.34 o
1 -7 1 158.07 399.76 80.82 o
2 -7 1 4485.64 4600.29 490.52 o
3 -7 1 18676.50 19419.50 3445.24 o
4 -7 1 1739.79 3487.73 868.10 o
5 -7 1 1239.41 2751.74 698.33 o
6 -7 1 1289.67 1650.41 435.59 o
7 -7 1 163.13 203.12 165.99 <
8 -7 1 567.72 1215.18 362.80 o
9 -7 1 2685.60 2953.95 745.62 o
-9 -6 1 1791.59 1708.06 256.21 o
-8 -6 1 281.15 321.12 133.26 <
-7 -6 1 84.76 194.36 122.29 <
-6 -6 1 225.70 366.99 113.59 o
-5 -6 1 6217.47 6748.51 632.81 o
-4 -6 1 6041.53 34434.20 3145.49 o
-3 -6 1 580.81 1611.74 159.64 o
-2 -6 1 991.28 911.00 109.50 o
-1 -6 1 68.76 120.12 72.07 <
0 -6 1 637.46 555.77 76.58 o
1 -6 1 7638.80 7189.90 657.90 o
2 -6 1 18174.70 17436.60 1888.22 o
3 -6 1 3784.40 7836.12 1893.38 o
4 -6 1 79.44 792.77 279.54 <
5 -6 1 12200.30 16732.80 4040.73 o
6 -6 1 7160.84 8761.14 2128.81 o
7 -6 1 126.04 604.97 218.40 <
8 -6 1 17227.20 23465.00 5657.77 o
9 -6 1 2603.60 6190.30 1513.04 o
-9 -5 1 2154.21 1807.73 205.97 o
-8 -5 1 15851.20 14347.90 1329.84 o
-7 -5 1 1825.97 1840.34 201.56 o
-6 -5 1 580.70 668.95 124.61 o
-5 -5 1 7323.25 7423.21 692.80 o
-4 -5 1 813.45 1547.06 168.49 o
-3 -5 1 1045.06 1384.35 140.19 o
-2 -5 1 31260.60 26201.10 2389.84 o
-1 -5 1 109.53 329.85 69.90 o
0 -5 1 174.03 174.80 56.81 o
1 -5 1 8963.82 7870.98 723.15 o
2 -5 1 4590.72 5109.73 472.79 o
3 -5 1 1362.21 2721.59 668.89 o
4 -5 1 1456.36 4053.84 1015.10 o
5 -5 1 1072.01 1626.61 431.28 o
6 -5 1 3412.13 4364.01 1064.61 o
7 -5 1 16383.80 20627.80 4977.87 o
8 -5 1 410.56 697.04 242.54 <
9 -5 1 330.60 976.56 314.60 o
-9 -4 1 7171.58 6177.31 585.47 o
-8 -4 1 22528.00 22893.00 2128.63 o
-7 -4 1 473.89 620.68 124.57 o
-6 -4 1 5178.62 5045.28 470.30 o
-5 -4 1 56057.80 78003.00 7249.96 o
-4 -4 1 5395.50 5715.63 530.09 o
-3 -4 1 93681.70 105398.00 12587.70 o
-2 -4 1 145023.00 181169.00 16659.50 o
-1 -4 1 0.08 91.71 72.06 <
0 -4 1 17489.10 14319.10 1312.09 o
1 -4 1 106229.00 127001.00 13652.80 o
2 -4 1 1098.07 107555.00 14560.50 o
3 -4 1 52008.80 97999.50 23548.60 o
4 -4 1 56910.50 66623.00 16026.40 o
5 -4 1 1238.95 1735.04 444.71 o
6 -4 1 408.04 546.39 187.96 <
7 -4 1 19912.70 34305.40 8334.48 o
8 -4 1 169.10 37139.60 8952.91 o
9 -4 1 1711.92 2877.42 735.78 o
10 -4 1 4642.09 5464.57 1341.94 o
-9 -3 1 6210.10 5572.75 536.10 o
-8 -3 1 17065.70 18088.90 1689.86 o
-7 -3 1 18.08 34.94 120.10 <
-6 -3 1 3229.17 4214.38 402.52 o
-5 -3 1 15967.20 16463.00 1532.23 o
-4 -3 1 6521.73 5686.75 530.56 o
-3 -3 1 9743.67 8868.75 825.21 o
-2 -3 1 21370.70 18443.80 1696.65 o
-1 -3 1 15292.20 12740.60 1151.32 o
0 -3 1 220.93 174.93 48.11 o
1 -3 1 9205.19 8540.42 925.35 o
2 -3 1 16.24 11084.40 2679.38 o
3 -3 1 1945.68 2263.30 557.02 o
4 -3 1 3457.60 3389.79 828.66 o
5 -3 1 21602.10 21185.40 5097.48 o
6 -3 1 33.84 124.47 176.88 <
7 -3 1 33.85 93.90 163.77 <
8 -3 1 330.81 1667.04 439.15 o
9 -3 1 1115.59 1564.19 441.91 o
10 -3 1 161.43 351.64 224.96 <
-10 -2 1 22.74 -87.34 135.38 <
-9 -2 1 0.33 148.48 126.64 <
-8 -2 1 17333.70 18472.80 1734.43 o
-7 -2 1 1046.15 1179.43 153.17 o
-6 -2 1 6550.59 11830.30 1097.65 o
-5 -2 1 3933.10 15189.90 1419.64 o
-4 -2 1 531.02 474.70 72.19 o
-3 -2 1 1260.24 1163.69 118.57 o
-2 -2 1 102653.00 111140.00 10314.00 o
-1 -2 1 5642.63 5165.11 466.86 o
0 -2 1 17026.40 14404.00 1309.23 o
1 -2 1 34636.00 60295.00 6579.33 o
2 -2 1 3092.69 2536.62 616.89 o
3 -2 1 8884.85 8209.31 1989.10 o
4 -2 1 158722.00 241800.00 58144.50 o
5 -2 1 10079.10 9098.14 1008.40 o
6 -2 1 1229.05 1226.57 140.18 o
7 -2 1 23831.50 30158.30 4293.25 o
8 -2 1 8002.79 7767.60 1092.87 o
9 -2 1 4385.42 4952.47 935.05 o
10 -2 1 27573.80 32951.10 7952.62 o
-10 -1 1 44.38 120.10 157.22 <
-9 -1 1 2804.77 2621.75 274.24 o
-8 -1 1 244.75 297.09 109.22 <
-7 -1 1 1281.86 1733.98 188.29 o
-6 -1 1 4093.98 8106.98 763.06 o
-5 -1 1 160.72 294.91 74.27 o
-4 -1 1 44.55 76.43 63.33 <
-3 -1 1 1227.26 1109.22 112.02 o
-2 -1 1 8415.66 7239.87 666.98 o
-1 -1 1 317.28 265.06 52.57 o
0 -1 1 4.51 65.51 52.41 <
1 -1 1 659.81 448.95 70.42 o
2 -1 1 1641.66 1508.23 159.23 o
3 -1 1 16388.40 13366.50 1236.98 o
4 -1 1 191.27 222.89 54.63 o
5 -1 1 8697.43 7899.86 855.07 o
6 -1 1 243.15 1959.84 192.27 o
7 -1 1 927.99 1708.81 177.23 o
8 -1 1 3507.24 3396.39 340.74 o
9 -1 1 2622.31 2088.24 265.42 o
10 -1 1 5840.20 4444.21 610.64 o
-10 0 1 272.17 146.36 150.73 <
-9 0 1 2771.78 2715.99 318.11 o
-8 0 1 184.12 257.74 117.95 <
-7 0 1 23221.10 28384.40 3096.81 o
-6 0 1 31693.00 117262.00 11201.00 o
-5 0 1 6887.51 6140.62 666.44 o
-4 0 1 2450.28 2325.12 218.19 o
-3 0 1 30887.70 27888.70 2622.46 o
-2 0 1 8971.71 8209.73 777.89 o
-1 0 1 119708.00 183681.00 26257.20 o
2 0 1 9215.71 8577.56 1114.09 o
3 0 1 15751.70 14633.50 1367.12 o
4 0 1 58823.30 63735.80 5960.49 o
5 0 1 54009.00 57213.90 5352.16 o
6 0 1 73.25 8132.92 764.37 o
7 0 1 8509.46 26110.00 2854.64 o
8 0 1 123.73 163.80 113.57 <
9 0 1 728.43 852.66 150.85 o
10 0 1 9116.98 7167.37 811.15 o
-10 1 1 2902.22 1972.23 261.06 o
-9 1 1 2391.49 2284.52 278.44 o
-8 1 1 89.02 107.01 102.64 <
-7 1 1 7971.69 8101.95 905.89 o
-6 1 1 8362.19 8366.97 802.37 o
-5 1 1 10308.90 7762.61 729.43 o
-4 1 1 1661.58 1718.28 191.16 o
-3 1 1 703.69 894.03 92.03 o
-2 1 1 57.04 229.36 58.98 o
-1 1 1 327.29 227.99 52.61 o
1 1 1 0.21 13.10 56.77 <
2 1 1 55.61 109.23 39.32 <
3 1 1 1643.67 1615.38 147.65 o
4 1 1 7768.98 6647.27 610.85 o
5 1 1 261.81 260.06 63.38 o
6 1 1 7.60 1412.75 144.11 o
7 1 1 3949.25 4973.67 471.38 o
8 1 1 364.96 504.74 126.73 o
9 1 1 56.87 50.23 104.82 <
10 1 1 1745.43 1537.23 190.51 o
-10 2 1 2486.50 1571.89 217.04 o
-9 2 1 10209.90 10362.80 1388.37 o
-8 2 1 149.60 460.85 113.57 o
-7 2 1 7470.95 8608.76 960.22 o
-6 2 1 85421.70 105507.00 11669.10 o
-5 2 1 5232.11 4161.47 587.53 o
-4 2 1 10277.40 8514.82 965.22 o
-3 2 1 29584.10 24909.00 2854.08 o
-2 2 1 4501.05 3459.06 663.04 o
-1 2 1 11320.80 10340.90 1723.08 o
1 2 1 6522.84 6738.94 583.36 o
2 2 1 89.58 214.12 41.51 o
3 2 1 13567.30 12150.30 1129.66 o
4 2 1 19825.90 19107.60 1776.03 o
5 2 1 1599.76 13634.20 1272.79 o
6 2 1 63326.60 147252.00 13910.30 o
7 2 1 40.20 98.27 87.35 <
8 2 1 71.46 211.83 104.82 <
9 2 1 2505.83 2429.89 247.81 o
10 2 1 117.92 264.25 133.22 <
-10 3 1 358.15 509.05 190.07 <
-9 3 1 1295.43 2577.79 667.43 o
-8 3 1 13.18 506.58 244.56 <
-7 3 1 8103.64 9429.27 1052.14 o
-6 3 1 590.86 728.12 124.63 o
-5 3 1 5990.96 6349.99 874.79 o
-4 3 1 348.41 437.22 104.93 o
-3 3 1 3.46 196.52 58.96 o
-2 3 1 794.30 690.82 116.23 o
-1 3 1 17297.80 16305.00 2732.19 o
0 3 1 2219.53 1860.18 166.68 o
1 3 1 1486.30 1249.53 112.59 o
2 3 1 16493.10 15162.40 1410.68 o
3 3 1 12124.40 10891.00 987.16 o
4 3 1 1549.65 3164.29 298.64 o
5 3 1 140.53 3752.82 351.69 o
6 3 1 20437.10 20258.10 1895.04 o
7 3 1 12597.90 12826.80 1192.77 o
8 3 1 1168.70 1107.29 146.62 o
9 3 1 6324.88 6308.42 589.34 o
10 3 1 1652.28 1418.73 181.72 o
-9 4 1 5835.83 20497.90 4967.38 o
-8 4 1 62.10 37.12 155.04 <
-7 4 1 1546.96 2739.95 676.78 o
-6 4 1 24506.10 31354.00 7565.42 o
-5 4 1 23374.00 25814.40 6220.59 o
-4 4 1 322.40 1632.73 410.92 o
-3 4 1 88713.60 114912.00 27735.10 o
-2 4 1 13110.90 22672.00 2976.15 o
-1 4 1 2877.09 2936.15 266.12 o
1 4 1 139850.00 148548.00 35757.80 o
2 4 1 13427.20 11985.60 1107.37 o
3 4 1 148118.00 204264.00 19053.70 o
4 4 1 9651.92 10098.60 937.52 o
5 4 1 13.77 403.96 82.98 o
6 4 1 73745.30 81962.00 7645.76 o
7 4 1 25935.60 27000.50 2513.33 o
8 4 1 1355.64 1416.25 166.36 o
9 4 1 9864.18 8873.44 823.63 o
10 4 1 1877.68 1362.28 190.54 o
-9 5 1 8639.99 10937.90 2655.31 o
-8 5 1 2744.50 4230.04 1035.57 o
-7 5 1 516.27 679.74 240.42 <
-6 5 1 13.32 120.10 187.79 <
-5 5 1 2221.85 2761.90 684.99 o
-4 5 1 1241.32 1207.39 315.54 o
-3 5 1 21060.60 39097.40 9382.16 o
-2 5 1 452.68 923.06 100.62 o
-1 5 1 566.34 525.33 67.86 o
0 5 1 16343.30 14367.50 1258.33 o
1 5 1 241.31 314.76 59.02 o
2 5 1 501.38 599.48 72.20 o
3 5 1 827.12 1412.42 144.53 o
4 5 1 40.68 2963.36 270.79 o
5 5 1 5648.05 5241.02 474.04 o
6 5 1 25964.40 26708.70 2480.34 o
7 5 1 1051.42 1179.35 140.03 o
8 5 1 2.09 -13.10 100.44 <
9 5 1 4503.30 4611.08 448.79 o
-9 6 1 249.88 17780.90 4287.95 o
-8 6 1 3934.32 9019.20 2149.84 o
-7 6 1 11626.00 16129.00 3914.04 o
-6 6 1 101.14 321.04 181.27 <
-5 6 1 3529.68 4151.35 1012.52 o
-4 6 1 17316.80 36271.70 8656.65 o
-3 6 1 2053.59 61328.20 14773.00 o
-2 6 1 1011.20 1231.23 216.89 o
-1 6 1 1494.84 1589.35 171.23 o
0 6 1 2506.60 2373.60 215.98 o
1 6 1 386.75 319.24 61.22 o
2 6 1 10350.00 14238.80 1276.97 o
3 6 1 7383.21 14230.00 1310.49 o
4 6 1 435.58 1904.05 190.19 o
5 6 1 53.82 174.70 93.90 <
6 6 1 1460.41 1679.86 179.59 o
7 6 1 3846.36 3655.30 347.50 o
8 6 1 2748.26 2419.91 245.72 o
9 6 1 6192.69 6632.68 628.64 o
-9 7 1 394.10 548.41 253.45 <
-8 7 1 1315.42 1761.58 477.05 o
-7 7 1 156.49 165.99 174.73 <
-6 7 1 1023.82 1527.09 409.12 o
-5 7 1 12099.60 18531.60 4566.27 o
-4 7 1 467.63 8164.34 1982.61 o
-3 7 1 633.02 1012.63 286.51 o
-2 7 1 6140.86 5921.00 764.29 o
-1 7 1 2163.91 2386.88 213.19 o
0 7 1 1951.20 2029.84 173.55 o
1 7 1 8869.63 8130.76 742.42 o
2 7 1 1822.07 1848.23 175.60 o
3 7 1 1760.58 8198.06 756.84 o
4 7 1 4605.92 4309.54 392.98 o
5 7 1 8404.67 7986.19 740.37 o
6 7 1 749.19 581.67 107.15 o
7 7 1 1308.21 1300.06 159.77 o
8 7 1 4782.88 4670.85 442.43 o
9 7 1 611.18 1658.92 203.27 o
-8 8 1 2182.38 3541.17 885.29 o
-7 8 1 19064.80 26972.20 6531.13 o
-6 8 1 4846.75 6795.68 1652.11 o
-5 8 1 3823.53 8645.88 2094.37 o
-4 8 1 44136.90 61705.90 14862.10 o
-3 8 1 8682.00 11233.90 1243.02 o
-2 8 1 4642.41 5886.50 622.89 o
-1 8 1 87362.70 105595.00 11296.50 o
0 8 1 17145.90 17113.20 1566.54 o
1 8 1 4815.89 6857.13 599.25 o
2 8 1 68559.70 70108.60 6439.85 o
3 8 1 10847.10 24659.30 2304.46 o
4 8 1 10210.90 10259.00 955.36 o
5 8 1 32273.80 30829.90 2826.17 o
6 8 1 1204.01 1041.67 135.68 o
7 8 1 508.17 509.20 131.12 o
8 8 1 9807.97 12576.10 1573.12 o
-8 9 1 51.96 133.20 231.47 <
-7 9 1 4552.12 6461.47 1575.22 o
-6 9 1 3.58 1438.93 417.05 o
-5 9 1 450.28 1048.95 345.28 o
-4 9 1 5962.42 18479.70 6300.55 <
-3 9 1 275.07 426.03 113.61 o
-2 9 1 4896.92 5425.38 582.71 o
-1 9 1 609.28 763.11 118.07 o
0 9 1 5469.01 4849.65 435.65 o
1 9 1 34.93 371.22 76.43 o
2 9 1 30280.20 30401.40 2792.59 o
3 9 1 1581.63 1601.51 166.50 o
4 9 1 1671.72 1334.19 159.93 o
5 9 1 6221.55 6158.40 567.69 o
6 9 1 2846.19 2422.66 237.00 o
7 9 1 1285.41 1186.01 150.99 o
8 9 1 8782.18 6335.82 555.85 o
-7 10 1 5895.09 9598.05 2312.44 o
-6 10 1 6001.08 21403.90 5178.40 o
-5 10 1 1765.90 2347.94 613.27 o
-4 10 1 15442.30 20415.20 4932.62 o
-3 10 1 5386.09 5497.66 608.89 o
-2 10 1 1336.66 1749.29 207.99 o
-1 10 1 19739.50 22498.60 2067.64 o
0 10 1 4682.93 5957.42 551.20 o
1 10 1 477.26 2338.65 233.87 o
2 10 1 9650.62 9157.58 841.41 o
3 10 1 1858.09 1588.74 166.54 o
4 10 1 3.52 155.03 106.99 <
5 10 1 8504.15 8587.69 749.07 o
6 10 1 2860.24 2505.59 250.12 o
7 10 1 512.74 2220.29 260.05 o
-6 11 1 842.20 2910.23 760.90 o
-5 11 1 17.89 146.30 240.19 <
-4 11 1 3702.62 4480.68 1116.32 o
-3 11 1 3737.61 3347.72 463.80 o
-2 11 1 1307.18 1372.35 188.23 o
-1 11 1 5707.20 6739.98 624.56 o
0 11 1 1056.54 1476.82 183.78 o
1 11 1 8.09 187.78 152.85 <
2 11 1 13161.50 12840.10 1176.43 o
3 11 1 5311.17 4992.86 462.91 o
4 11 1 100.14 141.95 102.64 <
5 11 1 2154.04 2108.14 214.76 o
6 11 1 1217.51 973.59 146.59 o
-5 12 1 4876.30 5986.23 1472.35 o
-4 12 1 905.87 935.94 330.20 <
-3 12 1 3101.97 2631.78 491.67 o
-2 12 1 7196.08 7138.09 733.93 o
-1 12 1 2546.08 4695.73 603.14 o
0 12 1 6535.65 64133.60 5669.50 o
1 12 1 14268.40 17102.50 1548.67 o
2 12 1 205.86 362.59 133.24 <
3 12 1 7709.77 6917.15 639.29 o
4 12 1 4959.84 4281.93 405.08 o
5 12 1 2259.85 1599.83 192.86 o
-4 13 1 2148.09 1627.98 488.61 o
-3 13 1 1733.91 1162.73 225.54 o
-2 13 1 3417.53 2806.27 399.64 o
-1 13 1 1009.50 962.36 234.03 o
0 13 1 1613.93 1510.68 216.75 o
1 13 1 1151.89 1034.78 164.08 o
2 13 1 2888.52 2643.69 265.47 o
3 13 1 78.54 17.47 141.95 <
4 13 1 3843.74 2933.11 296.61 o
-1 14 1 726.94 607.73 177.07 o
0 14 1 1509.93 818.63 207.94 o
1 14 1 4170.57 3106.10 309.95 o
0 -13 2 1569.08 1917.60 284.58 o
1 -13 2 1478.65 724.47 181.66 o
-3 -12 2 6947.29 5469.47 510.07 o
-2 -12 2 200.31 299.24 148.53 <
-1 -12 2 2538.90 2170.76 236.81 o
0 -12 2 5439.27 6078.78 663.18 o
1 -12 2 488.61 533.21 174.82 o
2 -12 2 5676.40 4441.06 500.31 o
3 -12 2 6419.57 5010.88 931.13 o
4 -12 2 838.46 924.88 347.65 <
-5 -11 2 56.48 67.69 122.29 <
-4 -11 2 1894.12 1752.23 192.75 o
-3 -11 2 3592.49 3508.03 333.89 o
-2 -11 2 292.12 367.01 133.26 <
-1 -11 2 96.22 545.97 150.69 o
0 -11 2 17161.00 21601.80 2003.67 o
1 -11 2 2238.75 2262.20 247.70 o
2 -11 2 2338.12 2639.59 313.51 o
3 -11 2 3229.67 3258.16 489.60 o
4 -11 2 1292.32 1800.90 509.86 o
5 -11 2 432.43 600.89 277.50 <
-6 -10 2 245.47 122.32 117.96 <
-5 -10 2 160.52 233.70 115.76 <
-4 -10 2 101.91 19.65 111.38 <
-3 -10 2 2651.26 2230.97 230.34 o
-2 -10 2 2429.22 4783.19 552.66 o
-1 -10 2 6.90 8144.54 753.32 o
0 -10 2 3446.16 3946.96 384.59 o
1 -10 2 436.96 649.03 131.12 o
2 -10 2 1605.56 1793.60 232.14 o
3 -10 2 19529.70 19625.50 2219.54 o
4 -10 2 2459.07 3644.62 929.79 o
5 -10 2 1117.96 1605.73 450.65 o
6 -10 2 13004.60 19290.60 4672.12 o
-6 -9 2 577.95 426.19 122.39 o
-5 -9 2 4332.96 4546.79 422.34 o
-4 -9 2 2355.75 2451.46 249.97 o
-3 -9 2 4034.55 4230.69 400.41 o
-2 -9 2 1554.17 2656.66 265.01 o
-1 -9 2 965.72 11698.00 1085.13 o
0 -9 2 431.29 607.55 128.94 o
1 -9 2 889.14 809.37 122.50 o
2 -9 2 2112.12 2510.76 355.23 o
3 -9 2 2186.96 2127.03 313.57 o
4 -9 2 8877.95 11249.20 2734.62 o
5 -9 2 839.33 1375.47 397.99 o
6 -9 2 194.67 456.50 198.76 <
7 -9 2 381.79 502.52 255.63 <
-7 -8 2 8575.52 7452.82 695.24 o
-6 -8 2 1125.78 1076.34 146.57 o
-5 -8 2 10357.20 10660.10 931.90 o
-4 -8 2 4735.23 4871.45 458.28 o
-3 -8 2 2825.94 3443.45 333.80 o
-2 -8 2 20683.70 23160.20 2100.50 o
-1 -8 2 20334.70 22989.70 2098.28 o
0 -8 2 6082.86 7009.69 642.08 o
1 -8 2 8001.19 8654.28 798.28 o
2 -8 2 6348.57 7489.56 812.73 o
3 -8 2 2807.39 2923.71 415.16 o
4 -8 2 5401.52 23558.80 5694.90 o
5 -8 2 5940.45 32026.00 7748.16 o
6 -8 2 669.47 1075.56 325.73 o
7 -8 2 1425.00 1761.96 481.53 o
8 -8 2 1766.15 2629.95 696.36 o
-8 -7 2 4929.28 3983.71 382.96 o
-7 -7 2 4014.14 3917.23 371.50 o
-6 -7 2 1603.66 1576.60 175.18 o
-5 -7 2 6338.69 6603.14 590.04 o
-4 -7 2 33092.90 33428.20 3069.03 o
-3 -7 2 2505.63 4982.19 537.96 o
-2 -7 2 4633.47 4879.43 445.99 o
-1 -7 2 6723.84 6878.04 619.62 o
0 -7 2 1888.18 1900.26 182.13 o
1 -7 2 919.35 1072.48 116.00 o
2 -7 2 43059.20 47861.70 4521.61 o
3 -7 2 4266.94 6067.94 838.17 o
4 -7 2 961.17 3223.14 811.80 o
5 -7 2 183.40 659.66 259.93 <
6 -7 2 2164.72 3111.03 784.88 o
7 -7 2 26.68 205.26 213.99 <
8 -7 2 4260.94 5864.77 1433.76 o
9 -7 2 98.42 371.25 231.49 <
-8 -6 2 585.86 450.23 128.95 o
-7 -6 2 2780.43 2586.74 261.09 o
-6 -6 2 593.78 620.80 137.71 o
-5 -6 2 4422.87 4902.08 462.67 o
-4 -6 2 11914.10 12042.00 1107.57 o
-3 -6 2 2059.51 7148.17 654.02 o
-2 -6 2 1107.19 1024.97 124.84 o
-1 -6 2 34343.50 31847.30 2905.48 o
0 -6 2 3914.01 3722.95 340.26 o
1 -6 2 17719.90 16008.10 1493.14 o
2 -6 2 42108.40 39127.50 4319.47 o
3 -6 2 1323.32 2092.66 282.67 o
4 -6 2 3846.01 5820.93 1423.83 o
5 -6 2 48276.50 67772.70 16310.40 o
6 -6 2 468.35 1099.33 316.90 o
7 -6 2 11322.80 14059.20 3398.90 o
8 -6 2 19642.30 27882.10 6738.10 o
9 -6 2 181.99 3981.70 993.79 o
-9 -5 2 728.34 463.45 128.98 o
-8 -5 2 236.41 238.10 115.77 <
-7 -5 2 3004.78 3288.49 322.70 o
-6 -5 2 257.56 107.04 120.15 <
-5 -5 2 3392.00 3805.47 365.15 o
-4 -5 2 13890.50 33571.80 3111.93 o
-3 -5 2 2845.57 3305.69 297.12 o
-2 -5 2 1547.37 1301.09 133.84 o
-1 -5 2 11651.60 9821.24 887.89 o
0 -5 2 13755.70 11266.00 1028.98 o
1 -5 2 17369.80 15639.90 1451.96 o
2 -5 2 4266.80 3960.38 431.92 o
3 -5 2 1774.64 3789.23 691.55 o
4 -5 2 5171.02 6669.44 1625.29 o
5 -5 2 3.67 91.71 157.21 <
6 -5 2 10523.40 13315.00 3228.27 o
7 -5 2 72.17 218.38 150.68 <
8 -5 2 34.43 5928.55 1447.75 o
9 -5 2 435.57 1131.87 347.43 o
-9 -4 2 2957.84 2205.01 241.34 o
-8 -4 2 1.01 -67.69 113.54 <
-7 -4 2 1923.16 1875.74 203.79 o
-6 -4 2 3895.32 4287.64 407.19 o
-5 -4 2 3294.37 3106.92 301.45 o
-4 -4 2 55081.30 138796.00 12901.30 o
-3 -4 2 14372.80 12529.50 1129.71 o
-2 -4 2 1531.60 1233.95 127.35 o
-1 -4 2 35458.60 30387.90 2776.86 o
0 -4 2 28291.70 25492.60 2695.06 o
1 -4 2 1846.79 11700.30 1179.71 o
3 -4 2 3186.91 4053.96 986.99 o
4 -4 2 1714.49 1938.09 487.27 o
5 -4 2 23183.50 28163.90 6779.25 o
6 -4 2 5713.87 7261.72 1754.05 o
7 -4 2 878.49 4274.10 1041.18 o
8 -4 2 29524.80 38544.50 9326.22 o
9 -4 2 4068.88 10003.30 2424.97 o
10 -4 2 217.35 148.53 200.95 <
-9 -3 2 4630.30 3878.87 387.23 o
-8 -3 2 3128.24 2941.90 294.19 o
-7 -3 2 1738.76 1686.90 188.41 o
-6 -3 2 689.91 793.79 129.02 o
-5 -3 2 379.28 933.24 135.51 o
-4 -3 2 2708.51 2623.57 248.71 o
-3 -3 2 3787.59 3549.26 327.49 o
-2 -3 2 7853.98 6313.17 577.62 o
-1 -3 2 313.80 295.23 74.35 o
0 -3 2 68.12 76.45 61.16 <
1 -3 2 32.76 7971.17 746.89 o
2 -3 2 327.52 2713.99 312.73 o
3 -3 2 4473.00 5702.64 1378.42 o
4 -3 2 16605.70 17252.90 4154.06 o
5 -3 2 375.01 415.31 179.24 <
6 -3 2 92.81 799.34 248.97 o
7 -3 2 153.64 316.71 190.02 <
8 -3 2 831.47 1799.82 472.37 o
9 -3 2 464.02 2781.81 688.35 o
10 -3 2 961.56 1334.03 395.83 o
-9 -2 2 7349.20 5894.50 574.64 o
-8 -2 2 13240.40 12886.10 1217.99 o
-7 -2 2 643.58 533.45 118.06 o
-6 -2 2 124.71 1144.47 146.34 o
-5 -2 2 11119.10 35941.60 3378.58 o
-4 -2 2 15.78 264.22 87.34 o
-3 -2 2 23070.40 19150.80 1756.15 o
-2 -2 2 36666.00 30409.60 2753.47 o
-1 -2 2 23.43 52.41 69.88 <
0 -2 2 38752.40 37256.40 3453.75 o
1 -2 2 67356.40 74911.60 8356.86 o
2 -2 2 61.70 1044.09 393.17 <
3 -2 2 36756.70 32418.40 7803.68 o
4 -2 2 16521.40 16342.80 3934.43 o
5 -2 2 2705.76 2782.68 475.52 o
6 -2 2 292.86 644.61 115.81 o
7 -2 2 8744.23 11498.90 1688.79 o
8 -2 2 10042.20 79142.60 18983.40 o
9 -2 2 11072.40 13460.40 3244.91 o
10 -2 2 463.57 548.48 255.66 <
-9 -1 2 364.34 456.63 144.20 o
-8 -1 2 14693.30 14409.10 1369.42 o
-7 -1 2 1254.24 1407.54 197.01 o
-6 -1 2 888.56 1218.72 140.03 o
-5 -1 2 6863.29 6977.69 654.16 o
-4 -1 2 4130.86 3925.74 365.34 o
-3 -1 2 2929.46 2874.44 249.85 o
-2 -1 2 19369.10 16348.50 1741.32 o
-1 -1 2 252.19 253.78 72.19 o
0 -1 2 1219.55 808.60 90.58 o
1 -1 2 411.71 475.63 92.06 o
2 -1 2 9080.03 8003.08 1336.56 o
3 -1 2 275.01 411.09 69.97 o
4 -1 2 2855.42 3039.09 395.35 o
5 -1 2 540.30 647.43 85.30 o
6 -1 2 2.73 65.51 87.34 <
7 -1 2 9405.46 15986.50 1756.71 o
8 -1 2 2629.21 3357.90 390.66 o
9 -1 2 1530.28 1013.69 170.77 o
10 -1 2 1415.68 1372.26 291.08 o
-10 0 2 146.02 26.21 174.72 <
-9 0 2 1077.10 1041.23 170.62 o
-8 0 2 31857.60 35227.50 5913.98 o
-7 0 2 3603.22 10430.40 1003.01 o
-6 0 2 10480.60 9344.85 888.39 o
-5 0 2 39972.40 39629.20 3773.98 o
-4 0 2 4704.51 4399.56 415.10 o
-3 0 2 25087.20 20677.90 1952.63 o
-1 0 2 16640.60 11386.10 1249.17 o
0 0 2 39315.60 41477.70 5914.44 o
2 0 2 24080.40 21388.20 2796.48 o
3 0 2 33174.80 31604.20 3413.16 o
5 0 2 8615.61 8731.19 940.94 o
6 0 2 1172.13 1765.45 201.51 o
7 0 2 21297.10 25641.40 2229.09 o
8 0 2 8726.71 8879.55 841.76 o
9 0 2 1367.25 1287.01 188.24 o
10 0 2 19551.40 15898.80 1814.36 o
-10 1 2 15.26 34.94 137.56 <
-9 1 2 125.96 91.73 126.67 <
-8 1 2 6185.87 6933.56 907.55 o
-7 1 2 1498.38 2378.57 271.59 o
-6 1 2 8209.43 9162.96 1001.78 o
-5 1 2 13830.50 11476.50 1298.37 o
-4 1 2 236.99 222.90 74.30 <
-3 1 2 451.80 452.93 120.34 o
-2 1 2 8129.90 6242.29 707.37 o
-1 1 2 1073.76 721.26 108.08 o
0 1 2 295.48 274.06 76.74 o
1 1 2 214.83 199.24 32.84 o
2 1 2 1702.60 1158.13 101.86 o
3 1 2 5980.30 5078.91 465.21 o
4 1 2 1990.82 1937.69 178.36 o
5 1 2 3962.47 4678.73 433.58 o
6 1 2 1987.89 6313.38 588.31 o
7 1 2 1201.99 1501.96 159.83 o
8 1 2 373.59 336.51 128.92 <
9 1 2 418.18 412.99 131.11 o
10 1 2 3834.17 3082.92 320.82 o
-10 2 2 202.73 235.90 290.50 <
-9 2 2 831.78 752.17 137.75 o
-8 2 2 2727.58 4230.66 484.95 o
-7 2 2 5095.71 9135.62 1197.93 o
-6 2 2 2059.32 7810.99 1094.85 o
-5 2 2 10910.30 9443.47 1100.54 o
-4 2 2 10747.50 9126.18 1037.43 o
-3 2 2 1.41 115.73 69.87 <
-2 2 2 28173.30 18371.40 2596.76 o
-1 2 2 29657.60 52938.10 7358.27 o
0 2 2 297.64 530.12 35.05 o
1 2 2 44402.90 45171.60 4003.97 o
2 2 2 27175.60 27190.70 2525.21 o
3 2 2 185.38 332.22 45.90 o
4 2 2 75778.20 95421.30 8986.33 o
5 2 2 39456.80 75142.20 7003.72 o
6 2 2 619.58 3319.99 314.94 o
7 2 2 24676.30 30214.70 2822.19 o
8 2 2 1338.26 1714.15 212.35 o
9 2 2 112.24 209.66 111.38 <
10 2 2 25070.50 30685.00 6042.42 o
-9 3 2 1198.84 1306.16 214.41 o
-8 3 2 3742.57 4233.72 580.32 o
-7 3 2 165.36 2214.80 281.76 o
-6 3 2 7419.59 7510.55 837.22 o
-5 3 2 1471.79 1828.33 278.41 o
-4 3 2 230.83 284.07 78.67 o
-3 3 2 2952.55 2963.74 340.36 o
-2 3 2 19001.20 15373.70 2148.53 o
-1 3 2 2131.58 2024.40 369.89 o
0 3 2 1.63 24.02 37.12 <
1 3 2 11046.40 8777.91 800.58 o
2 3 2 659.04 594.15 59.20 o
3 3 2 2144.88 2296.61 214.00 o
4 3 2 1006.19 4225.93 392.35 o
5 3 2 1036.49 2919.90 273.81 o
6 3 2 8720.04 8335.14 781.28 o
7 3 2 34.29 91.71 78.61 <
8 3 2 2487.07 3014.47 291.79 o
9 3 2 1489.30 1212.81 159.81 o
10 3 2 3276.20 2946.05 298.56 o
-9 4 2 8533.70 11939.80 2356.07 o
-8 4 2 15.33 106.99 200.89 <
-7 4 2 6739.37 5680.94 665.87 o
-6 4 2 60957.30 81128.40 19495.20 o
-5 4 2 2026.87 2568.08 456.55 o
-4 4 2 15094.60 13282.80 1482.98 o
-3 4 2 56707.20 66311.10 7741.20 o
-2 4 2 1446.82 27160.80 4582.47 o
-1 4 2 26382.90 24575.70 2654.60 o
1 4 2 2468.10 2624.80 221.50 o
2 4 2 16199.70 13386.50 1241.47 o
3 4 2 27175.10 28194.70 2498.73 o
4 4 2 409.16 10959.20 1016.77 o
5 4 2 24652.10 23874.20 2221.83 o
6 4 2 36124.00 37075.80 3461.01 o
7 4 2 4991.76 5372.85 503.08 o
8 4 2 446.52 517.92 109.27 o
9 4 2 863.85 688.83 133.39 o
10 4 2 9.38 2502.32 281.67 o
-9 5 2 4738.92 9396.08 2286.31 o
-8 5 2 424.16 633.68 240.36 <
-7 5 2 4.40 30.57 152.85 <
-6 5 2 3418.93 4310.69 1053.48 o
-5 5 2 620.28 892.21 268.98 o
-4 5 2 30740.60 34290.90 8252.31 o
-3 5 2 215.13 3874.10 561.56 o
-2 5 2 1495.18 1385.78 239.38 o
-1 5 2 9465.13 9724.76 1255.69 o
0 5 2 968.08 1182.28 127.22 o
1 5 2 3988.68 3907.50 355.83 o
2 5 2 6286.73 4745.31 430.37 o
3 5 2 3722.50 5765.63 531.19 o
4 5 2 2117.34 7618.08 703.34 o
5 5 2 7681.56 8162.01 744.23 o
6 5 2 567.80 769.60 113.69 o
7 5 2 149.69 246.81 91.73 <
8 5 2 815.83 756.62 115.90 o
9 5 2 947.62 1095.69 166.21 o
10 5 2 1118.15 1312.48 188.12 o
-9 6 2 9259.70 27524.30 6648.93 o
-8 6 2 1343.98 1864.59 485.85 o
-7 6 2 2219.92 2882.96 714.71 o
-6 6 2 40282.50 52519.30 12650.20 o
-5 6 2 5861.38 8232.84 1984.64 o
-4 6 2 4071.87 34654.80 8194.82 o
-3 6 2 56763.60 70693.90 11928.00 o
-2 6 2 385.48 491.92 69.96 o
-1 6 2 879.68 1038.32 113.91 o
0 6 2 72041.00 85716.60 7965.13 o
1 6 2 18150.50 16904.40 1557.14 o
2 6 2 2330.20 2571.42 222.36 o
3 6 2 38900.20 61308.70 5708.73 o
4 6 2 3926.60 4386.30 384.11 o
5 6 2 1399.51 1242.29 131.46 o
6 6 2 31292.80 30416.20 2831.64 o
7 6 2 11168.80 10548.50 979.24 o
8 6 2 1581.93 1609.37 177.36 o
9 6 2 7436.75 12091.40 1551.76 o
-8 7 2 473.81 869.72 316.86 <
-7 7 2 604.76 721.32 229.51 o
-6 7 2 7893.69 10142.60 2469.17 o
-5 7 2 467.46 1615.20 439.32 o
-4 7 2 7388.52 8588.28 2063.77 o
-3 7 2 2843.47 5323.52 893.12 o
-2 7 2 16.91 91.71 74.24 <
-1 7 2 6089.31 5820.30 620.74 o
0 7 2 34747.80 34135.50 3127.95 o
1 7 2 1.75 98.26 61.14 <
2 7 2 988.00 3994.62 271.56 o
3 7 2 54.73 6302.53 585.27 o
4 7 2 8844.33 8269.50 723.16 o
5 7 2 10.21 54.59 85.16 <
6 7 2 28888.20 28060.80 2606.43 o
7 7 2 6418.61 5704.60 532.46 o
8 7 2 3774.82 3173.42 305.48 o
9 7 2 4566.15 4426.05 426.77 o
-8 8 2 366.76 893.59 393.27 <
-7 8 2 2494.58 4390.01 1083.25 o
-6 8 2 4865.80 6844.27 1660.95 o
-5 8 2 4774.14 9422.40 2281.21 o
-4 8 2 4130.11 9102.52 2205.14 o
-3 8 2 17184.70 36271.00 6726.28 o
-2 8 2 20398.10 22763.00 2921.16 o
-1 8 2 3811.70 3853.64 496.32 o
0 8 2 28837.40 28790.50 2635.31 o
1 8 2 32273.00 28967.90 2668.66 o
2 8 2 5610.34 82918.90 7252.05 o
3 8 2 60012.30 82014.50 7589.07 o
4 8 2 27715.30 26199.90 2406.06 o
5 8 2 602.33 526.88 94.01 o
6 8 2 15123.70 14402.60 1331.99 o
7 8 2 12569.60 10675.20 1149.43 o
8 8 2 413.51 8383.88 775.68 o
9 8 2 11078.40 9236.75 860.11 o
-7 9 2 180.24 198.76 231.52 <
-6 9 2 3659.67 5779.22 1417.34 o
-5 9 2 30.24 259.85 373.40 <
-4 9 2 1.37 4203.24 1043.71 o
-3 9 2 3738.92 4758.27 1170.86 o
-2 9 2 12346.20 14273.90 1535.12 o
-1 9 2 3518.72 3859.45 413.90 o
0 9 2 5.34 471.64 100.44 o
1 9 2 3606.47 3805.65 350.17 o
2 9 2 29.27 5162.13 476.03 o
3 9 2 170.93 316.73 83.00 o
4 9 2 2604.17 2348.90 232.70 o
5 9 2 219.99 314.56 102.67 o
6 9 2 10688.80 8750.35 792.25 o
7 9 2 3842.78 3870.29 364.83 o
8 9 2 64.34 74.25 124.47 <
-7 10 2 14121.50 23498.30 5646.21 o
-6 10 2 3775.13 9536.45 2320.39 o
-5 10 2 2152.85 7245.93 1766.55 o
-4 10 2 17461.70 23086.90 5620.74 o
-3 10 2 59.50 194.35 120.11 <
-2 10 2 2335.59 2729.21 307.15 o
-1 10 2 17402.60 18826.90 2421.83 o
0 10 2 1081.83 2017.85 201.35 o
1 10 2 85.33 851.72 107.01 o
2 10 2 3525.62 3932.71 345.32 o
3 10 2 142.62 126.68 80.81 <
4 10 2 607.00 653.62 109.30 o
5 10 2 4957.69 4370.77 394.34 o
6 10 2 223.89 176.93 122.32 <
7 10 2 43.50 657.28 135.39 o
-6 11 2 47.82 993.57 334.10 <
-5 11 2 1454.36 2138.50 569.10 o
-4 11 2 7791.88 10295.40 2514.09 o
-3 11 2 247.17 308.01 124.51 <
-2 11 2 1569.52 2251.23 256.22 o
-1 11 2 662.15 1020.99 181.46 o
0 11 2 1846.45 2951.70 287.06 o
1 11 2 975.15 1673.52 175.01 o
2 11 2 14646.70 14595.00 1339.67 o
3 11 2 71.36 185.62 98.27 <
4 11 2 768.35 666.88 118.07 o
5 11 2 2168.05 1781.77 190.67 o
6 11 2 4050.23 3602.76 347.31 o
7 11 2 55.10 78.61 122.29 <
-5 12 2 149.41 511.06 253.35 <
-4 12 2 16266.80 19558.80 4736.08 o
-3 12 2 4887.06 4555.38 783.82 o
-2 12 2 1422.95 1921.88 242.97 o
-1 12 2 25417.70 44099.50 4633.77 o
0 12 2 21774.60 25127.40 2272.76 o
1 12 2 482.16 2956.82 347.48 o
2 12 2 26399.00 28978.80 2517.52 o
3 12 2 8079.80 7217.51 673.04 o
4 12 2 1970.37 2037.41 219.08 o
5 12 2 20232.70 16991.20 1484.37 o
6 12 2 7526.66 7328.54 667.44 o
-4 13 2 19.74 15.28 209.62 <
-3 13 2 553.96 305.97 209.81 <
-2 13 2 5.17 0.00 157.21 <
-1 13 2 202.26 1146.73 251.19 o
0 13 2 109.46 146.32 146.32 <
1 13 2 2286.47 2148.09 221.38 o
2 13 2 5418.51 5334.19 469.30 o
3 13 2 4787.21 4425.78 420.35 o
4 13 2 62.40 148.49 157.23 <
-2 14 2 465.64 426.10 190.11 <
-1 14 2 5983.73 4585.84 493.86 o
0 14 2 2032.38 2416.38 357.09 o
1 14 2 1324.07 989.07 164.12 o
2 14 2 149.16 174.72 157.25 <
-2 -12 3 2263.89 1630.48 197.24 o
-1 -12 3 1210.01 1021.71 196.90 o
0 -12 3 115.95 1884.72 218.39 o
1 -12 3 3315.87 2625.66 329.30 o
2 -12 3 1886.44 1375.47 236.54 o
3 -12 3 1316.98 1021.88 299.78 o
-4 -11 3 1154.60 942.85 142.19 o
-3 -11 3 4308.30 4175.81 393.61 o
-2 -11 3 148.72 133.23 135.41 <
-1 -11 3 5634.32 6509.26 615.00 o
0 -11 3 8791.86 10107.90 952.95 o
1 -11 3 324.26 430.39 152.93 <
2 -11 3 144.84 183.46 152.88 <
3 -11 3 3385.93 2821.71 349.15 o
4 -11 3 84.81 224.93 314.47 <
5 -11 3 2710.69 2269.88 598.72 o
-5 -10 3 138.76 24.02 117.93 <
-4 -10 3 887.73 872.50 131.20 o
-3 -10 3 4786.61 4407.06 418.25 o
-2 -10 3 7.80 290.41 135.38 <
-1 -10 3 1510.93 1576.37 190.48 o
0 -10 3 4398.92 4643.87 446.78 o
1 -10 3 1026.88 938.47 146.57 o
2 -10 3 7766.25 8206.97 896.64 o
3 -10 3 9602.35 9409.93 1314.46 o
4 -10 3 328.90 454.42 251.24 <
5 -10 3 5007.02 7237.26 1765.83 o
6 -10 3 3964.45 5015.03 1239.47 o
-6 -9 3 9724.92 7880.40 716.40 o
-5 -9 3 14.77 43.67 122.28 <
-4 -9 3 7399.42 7614.07 707.67 o
-3 -9 3 4311.58 4896.05 446.70 o
-2 -9 3 3189.83 4770.89 448.10 o
-1 -9 3 4994.06 5736.19 537.91 o
0 -9 3 20368.00 23406.20 2161.48 o
1 -9 3 696.41 732.47 122.44 o
2 -9 3 3613.73 3984.23 450.75 o
3 -9 3 115.93 30.58 124.49 <
4 -9 3 427.54 793.23 279.70 <
5 -9 3 238.65 1924.46 513.34 o
6 -9 3 5196.61 6625.42 1612.30 o
7 -9 3 10.73 -26.20 209.62 <
-7 -8 3 738.65 588.06 122.42 o
-6 -8 3 7573.84 7053.09 658.88 o
-5 -8 3 102.93 50.23 117.93 <
-4 -8 3 1748.44 1752.39 188.38 o
-3 -8 3 22308.70 24358.90 2234.11 o
-2 -8 3 3136.27 27523.00 2529.26 o
-1 -8 3 7292.96 9434.31 1013.27 o
0 -8 3 23981.30 25686.10 2760.61 o
1 -8 3 24.52 -61.14 128.83 <
2 -8 3 5217.47 5393.64 726.36 o
3 -8 3 25626.60 27508.40 3780.39 o
4 -8 3 2785.38 59824.90 14375.50 o
5 -8 3 1719.34 4326.16 1073.32 o
6 -8 3 12531.20 16169.00 3905.01 o
7 -8 3 1511.33 2552.42 665.47 o
8 -8 3 853.73 1182.91 376.08 o
-7 -7 3 125.30 198.74 113.57 <
-6 -7 3 3272.40 3449.60 329.37 o
-5 -7 3 1448.00 1615.69 188.28 o
-4 -7 3 744.37 605.71 113.71 o
-3 -7 3 5392.76 6103.71 567.53 o
-2 -7 3 1291.54 1057.69 142.34 o
-1 -7 3 20.97 253.30 109.18 <
0 -7 3 7376.36 6345.98 591.25 o
1 -7 3 16165.50 15134.40 1418.57 o
2 -7 3 1416.11 1579.62 201.56 o
3 -7 3 6061.23 6477.00 730.49 o
4 -7 3 824.72 3204.46 796.19 o
5 -7 3 54.16 316.64 211.82 <
6 -7 3 4035.29 5943.88 1445.27 o
7 -7 3 7483.09 10395.90 2508.28 o
8 -7 3 327.93 644.48 305.86 <
-8 -6 3 61.48 107.00 113.55 <
-7 -6 3 2374.41 2367.63 247.72 o
-6 -6 3 1987.12 2081.71 223.51 o
-5 -6 3 513.48 338.78 107.10 o
-4 -6 3 78.73 310.11 107.01 <
-3 -6 3 257.33 5520.98 513.43 o
-2 -6 3 381.85 550.77 128.95 o
-1 -6 3 9033.19 8523.20 782.77 o
0 -6 3 12859.30 10707.30 977.10 o
1 -6 3 2830.00 2255.81 213.48 o
2 -6 3 27.34 48.04 78.61 <
3 -6 3 6783.66 8542.97 1195.04 o
4 -6 3 7623.26 9277.27 2244.86 o
5 -6 3 193.32 2317.65 607.26 o
6 -6 3 23682.80 32442.90 7752.02 o
7 -6 3 2499.10 3272.56 809.36 o
8 -6 3 421.12 891.51 314.65 <
9 -6 3 11876.60 17367.10 4199.89 o
-8 -5 3 1117.92 864.07 142.19 o
-7 -5 3 7540.11 7662.51 714.49 o
-6 -5 3 687.07 719.30 124.62 o
-5 -5 3 3502.81 4079.65 391.47 o
-4 -5 3 25178.30 25387.80 2334.86 o
-3 -5 3 5.62 96.08 109.18 <
-2 -5 3 1982.34 1908.16 195.43 o
-1 -5 3 313.91 380.30 87.42 o
0 -5 3 5017.87 4276.11 386.11 o
1 -5 3 37.05 76.43 96.09 <
2 -5 3 6400.72 16988.80 2282.84 o
3 -5 3 945.04 2163.18 304.33 o
4 -5 3 2288.96 3031.24 760.01 o
5 -5 3 16773.20 20416.40 4919.19 o
6 -5 3 8.66 113.54 172.50 <
7 -5 3 212.28 336.39 185.67 <
8 -5 3 1112.05 2185.57 553.50 o
9 -5 3 127.35 414.95 222.76 <
-9 -4 3 371.41 229.40 174.79 <
-8 -4 3 1788.90 1484.85 177.39 o
-7 -4 3 12699.40 13451.60 1263.88 o
-6 -4 3 1275.64 1608.89 179.49 o
-5 -4 3 34607.60 47566.40 4347.92 o
-4 -4 3 55670.60 92240.50 8574.90 o
-3 -4 3 956.14 1000.58 133.56 o
-2 -4 3 10119.90 8161.74 737.47 o
-1 -4 3 69283.60 66078.10 6098.51 o
0 -4 3 794.97 2788.08 289.10 o
1 -4 3 66190.60 71192.50 7922.78 o
2 -4 3 80410.50 78311.50 8814.42 o
3 -4 3 4.73 1862.55 257.66 o
4 -4 3 1621.12 2044.62 519.93 o
5 -4 3 35690.20 41181.40 9923.84 o
6 -4 3 343.10 710.18 244.74 <
7 -4 3 5355.06 5682.48 1383.66 o
8 -4 3 9052.50 15871.90 3834.83 o
9 -4 3 530.26 2659.70 679.68 o
10 -4 3 46.63 69.88 189.98 <
-9 -3 3 48.87 80.80 124.47 <
-8 -3 3 2842.80 3106.83 368.61 o
-7 -3 3 9810.20 9469.77 891.40 o
-6 -3 3 2178.36 2081.41 214.94 o
-5 -3 3 10999.20 16875.70 1572.22 o
-4 -3 3 27612.90 30277.60 2825.69 o
-3 -3 3 4294.88 3831.22 360.77 o
-2 -3 3 493.66 575.31 91.88 o
-1 -3 3 22834.80 18394.60 1656.12 o
0 -3 3 157.68 146.40 65.55 <
1 -3 3 853.76 3382.55 388.02 o
2 -3 3 28922.30 27468.50 3671.64 o
3 -3 3 29134.70 24469.70 2742.84 o
4 -3 3 96.98 159.45 137.60 <
5 -3 3 6113.77 7305.12 1767.44 o
6 -3 3 6.16 17.47 163.76 <
7 -3 3 345.83 1175.57 325.58 o
8 -3 3 892.85 1572.55 419.93 o
9 -3 3 4636.72 5095.08 1245.71 o
10 -3 3 15.32 28.39 200.89 <
-9 -2 3 541.01 450.20 131.13 o
-8 -2 3 1126.69 1271.09 172.83 o
-7 -2 3 922.69 660.57 124.68 o
-6 -2 3 698.79 874.70 129.02 o
-5 -2 3 117.69 790.66 124.50 o
-4 -2 3 40941.80 38789.60 4217.06 o
-3 -2 3 455.50 553.31 87.48 o
-2 -2 3 12411.70 9917.39 914.96 o
-1 -2 3 10517.70 7510.41 676.28 o
0 -2 3 302.10 439.64 80.93 o
1 -2 3 4248.54 14208.60 1615.02 o
2 -2 3 169005.00 222322.00 31546.50 o
3 -2 3 10102.00 9331.23 1590.91 o
4 -2 3 3788.39 3890.66 504.59 o
5 -2 3 34566.60 35631.20 8573.07 o
6 -2 3 13413.60 16284.50 3924.98 o
7 -2 3 11444.10 41592.00 10013.10 o
8 -2 3 69748.30 103527.00 24921.20 o
9 -2 3 2095.55 2452.29 611.43 o
10 -2 3 1398.97 1932.47 523.06 o
-9 -1 3 1427.30 1275.98 188.22 o
-8 -1 3 2322.47 2282.30 276.24 o
-7 -1 3 78.85 152.87 137.58 <
-6 -1 3 63.19 648.59 117.93 o
-5 -1 3 2501.06 3353.54 336.23 o
-4 -1 3 9769.39 8047.17 755.90 o
-3 -1 3 1539.06 1541.82 151.55 o
-2 -1 3 26.47 65.51 69.88 <
-1 -1 3 3759.04 2516.48 236.69 o
0 -1 3 2482.67 2439.79 337.75 o
1 -1 3 13638.20 7949.04 1158.19 o
2 -1 3 9790.26 7629.56 1032.40 o
3 -1 3 3931.69 3611.95 603.10 o
4 -1 3 1556.92 1397.11 186.72 o
5 -1 3 98.52 163.81 65.53 <
6 -1 3 3943.79 4493.75 483.13 o
7 -1 3 7114.27 17341.60 2923.54 o
8 -1 3 2933.85 4321.80 450.19 o
9 -1 3 998.45 588.40 135.62 o
10 -1 3 16.12 96.08 161.58 <
-9 0 3 6604.73 5743.64 660.01 o
-8 0 3 11091.80 11866.50 1311.33 o
-7 0 3 1747.90 3932.85 449.15 o
-6 0 3 798.98 1159.34 194.68 o
-5 0 3 14879.40 12974.30 1248.40 o
-4 0 3 2634.80 2285.76 220.21 o
-3 0 3 73974.40 68370.20 6516.06 o
-2 0 3 30868.00 25540.70 2800.06 o
-1 0 3 34309.50 26864.40 2938.93 o
0 0 3 11479.30 12150.60 1694.98 o
1 0 3 16736.20 13549.70 1770.40 o
2 0 3 62946.70 65159.70 8492.62 o
3 0 3 75906.80 82608.30 8976.75 o
4 0 3 265.09 518.05 72.13 o
5 0 3 16556.10 21551.90 2919.01 o
6 0 3 495.32 1803.79 203.34 o
7 0 3 2478.00 5013.03 546.76 o
8 0 3 20320.50 32717.70 3515.69 o
9 0 3 12165.20 10756.80 1184.54 o
10 0 3 276.91 166.02 137.62 <
-9 1 3 4794.07 4936.59 708.69 o
-8 1 3 11246.70 12725.80 1730.47 o
-7 1 3 4511.56 4972.11 517.70 o
-6 1 3 2979.55 3493.05 393.49 o
-5 1 3 3083.61 3064.63 343.45 o
-4 1 3 6.81 48.04 74.24 <
-3 1 3 3300.04 2711.33 303.23 o
-2 1 3 13231.20 8744.11 1001.73 o
-1 1 3 874.77 6882.38 951.49 o
0 1 3 323.76 387.65 98.56 o
1 1 3 3777.91 3089.70 391.30 o
2 1 3 13215.90 10349.50 1331.17 o
3 1 3 434.49 413.67 70.04 o
4 1 3 3531.75 3102.15 285.84 o
5 1 3 3292.88 4132.16 379.66 o
6 1 3 564.91 1290.24 194.63 o
7 1 3 1358.96 1923.07 192.74 o
8 1 3 1792.80 1860.40 192.83 o
9 1 3 173.08 233.71 131.05 <
10 1 3 3.14 28.39 135.38 <
-9 2 3 3847.36 3397.25 474.65 o
-8 2 3 28270.20 41934.30 5274.74 o
-7 2 3 1457.78 16714.50 1905.10 o
-6 2 3 6902.03 7180.35 904.75 o
-5 2 3 12567.00 12021.40 1342.74 o
-4 2 3 51.72 19.65 76.44 <
-3 2 3 7273.88 5986.92 685.70 o
-2 2 3 115268.00 150742.00 17515.00 o
-1 2 3 9268.68 56761.20 7443.56 o
0 2 3 2228.30 2203.54 282.68 o
1 2 3 28841.60 23617.00 2948.69 o
2 2 3 25286.20 23883.50 2563.91 o
3 2 3 1581.11 1219.82 112.29 o
4 2 3 146015.00 197434.00 18420.90 o
5 2 3 189.60 362.68 54.62 o
6 2 3 479.56 819.86 94.01 o
7 2 3 7016.47 8482.60 794.14 o
8 2 3 1261.14 2333.42 247.35 o
9 2 3 7429.11 8028.68 761.05 o
10 2 3 16022.30 14723.80 1864.85 o
-9 3 3 1423.22 1341.64 192.60 o
-8 3 3 2657.11 3007.61 397.07 o
-7 3 3 4607.25 5179.43 579.41 o
-6 3 3 1165.53 1061.74 148.86 o
-5 3 3 3569.63 3896.27 445.16 o
-4 3 3 389.95 260.15 67.77 o
-3 3 3 6805.29 5682.81 795.50 o
-2 3 3 5231.03 4274.11 593.32 o
-1 3 3 1567.48 2936.19 520.23 o
0 3 3 18570.40 17570.10 2276.14 o
1 3 3 282.39 185.97 48.13 o
2 3 3 220.09 271.12 39.36 o
3 3 3 807.97 850.53 81.11 o
4 3 3 7569.74 7789.79 680.99 o
5 3 3 14924.60 15955.00 1481.21 o
6 3 3 3549.81 3706.63 350.39 o
7 3 3 6377.39 7172.57 670.97 o
8 3 3 2382.13 3112.78 304.92 o
9 3 3 54.13 120.10 115.74 <
10 3 3 8066.94 7695.43 736.80 o
-9 4 3 629.66 1361.73 196.72 o
-8 4 3 8017.70 9590.83 1102.55 o
-7 4 3 6414.41 5103.37 722.74 o
-6 4 3 10.76 32.75 106.99 <
-5 4 3 40042.80 42763.50 5743.74 o
-4 4 3 3474.70 3542.72 487.51 o
-3 4 3 5253.99 4982.48 689.54 o
-2 4 3 145293.00 202239.00 37720.10 o
-1 4 3 94243.00 122731.00 16248.10 o
0 4 3 12640.00 13174.40 1387.27 o
2 4 3 11832.50 10082.30 931.32 o
3 4 3 2326.16 2042.18 185.25 o
4 4 3 152337.00 280796.00 55097.40 o
5 4 3 55805.40 97543.30 9156.61 o
6 4 3 5894.44 6188.17 578.27 o
7 4 3 37530.40 38154.70 3569.19 o
8 4 3 3869.13 3932.90 378.33 o
9 4 3 428.41 476.36 122.37 o
10 4 3 17657.70 35081.80 5885.91 o
-9 5 3 29.21 133.20 168.14 <
-8 5 3 198.18 397.53 207.50 <
-7 5 3 1629.98 2411.32 621.99 o
-6 5 3 2.65 19.65 93.89 <
-5 5 3 21097.50 23703.30 4023.14 o
-4 5 3 1326.80 1832.06 328.72 o
-3 5 3 942.80 2060.92 383.27 o
-2 5 3 1257.97 13178.60 1698.05 o
-1 5 3 1950.20 2080.79 268.63 o
0 5 3 37.20 54.60 39.31 <
1 5 3 4638.10 4140.60 377.03 o
2 5 3 329.55 295.19 45.92 o
3 5 3 7212.13 12635.80 1170.73 o
4 5 3 28552.50 26275.10 2443.70 o
5 5 3 98.33 163.81 69.89 <
6 5 3 149.96 224.98 87.37 <
7 5 3 2280.58 2294.71 223.77 o
8 5 3 173.00 198.76 91.74 <
9 5 3 3016.62 3145.12 311.66 o
10 5 3 8332.98 6136.96 586.47 o
-9 6 3 6579.61 8672.47 1712.43 o
-8 6 3 54.40 172.51 229.29 <
-7 6 3 2969.60 3918.44 965.89 o
-6 6 3 11435.50 15023.50 3648.69 o
-5 6 3 82.55 1961.14 506.66 o
-4 6 3 1083.66 965.57 120.42 o
-3 6 3 4502.45 12626.20 1059.56 o
-2 6 3 2713.46 2304.36 299.61 o
-1 6 3 279.97 338.79 69.94 o
0 6 3 10286.30 9420.99 1226.16 o
1 6 3 2903.81 2654.07 240.68 o
2 6 3 376.38 682.18 74.34 o
3 6 3 94.72 1413.16 135.42 o
4 6 3 3568.40 4041.35 375.02 o
5 6 3 4201.97 3678.47 342.03 o
6 6 3 7323.02 7069.52 659.02 o
7 6 3 14546.30 14469.50 1349.92 o
8 6 3 2950.84 2836.06 283.17 o
9 6 3 82.21 2559.41 264.24 o
10 6 3 3517.44 2538.49 278.88 o
-8 7 3 350.97 651.06 284.02 <
-7 7 3 4077.99 4840.18 1185.30 o
-6 7 3 442.92 607.52 209.79 <
-5 7 3 1315.62 2395.32 602.11 o
-4 7 3 4939.16 34236.10 8319.95 o
-3 7 3 60.71 572.17 82.99 o
-2 7 3 2533.97 2597.58 279.33 o
-1 7 3 10096.20 9413.21 1009.12 o
0 7 3 153.82 200.98 65.54 o
1 7 3 957.94 893.65 94.18 o
2 7 3 14584.70 12375.10 1139.12 o
3 7 3 8274.34 7296.28 652.73 o
4 7 3 288.20 954.90 102.70 o
5 7 3 1725.34 1688.01 157.84 o
6 7 3 5882.99 5949.78 554.75 o
7 7 3 4009.50 3634.40 345.40 o
8 7 3 185.97 314.52 102.66 o
9 7 3 4512.88 5048.47 475.15 o
-8 8 3 1738.42 2305.75 617.49 o
-7 8 3 4015.28 7034.87 1723.54 o
-6 8 3 28412.50 44186.40 10628.30 o
-5 8 3 3593.65 7920.40 1924.03 o
-4 8 3 4144.58 56183.10 13649.30 o
-3 8 3 76432.30 94308.00 10363.50 o
-2 8 3 19310.20 21757.10 2345.92 o
-1 8 3 10999.80 11045.70 1185.07 o
0 8 3 104045.00 120626.00 12817.40 o
1 8 3 14617.80 57775.40 5093.82 o
2 8 3 14750.70 71008.30 6257.76 o
3 8 3 77870.30 84843.70 7859.14 o
4 8 3 4291.41 3921.13 361.68 o
5 8 3 2538.51 2177.75 206.36 o
6 8 3 31933.10 30917.20 2865.66 o
7 8 3 1712.46 1852.94 199.31 o
8 8 3 3217.85 4228.33 386.39 o
9 8 3 5636.20 9199.65 850.55 o
-7 9 3 546.45 710.28 266.63 <
-6 9 3 220.73 5386.57 1260.36 o
-5 9 3 63.91 823.28 301.36 <
-4 9 3 4042.51 5594.99 1369.03 o
-3 9 3 6960.32 7990.58 875.28 o
-2 9 3 1288.92 1616.15 186.14 o
-1 9 3 71.84 148.50 87.35 <
0 9 3 22740.50 25570.90 2680.88 o
1 9 3 403.55 362.82 78.68 o
2 9 3 1333.05 6864.81 628.65 o
3 9 3 1451.30 1634.24 164.30 o
4 9 3 2031.60 1975.80 192.98 o
5 9 3 3404.92 3068.62 281.36 o
6 9 3 14395.90 12366.20 1071.23 o
7 9 3 69.22 550.31 131.02 o
8 9 3 370.74 1498.80 192.26 o
-7 10 3 1206.53 1623.34 446.31 o
-6 10 3 10232.30 21913.50 5294.59 o
-5 10 3 3696.97 7335.81 1802.09 o
-4 10 3 2070.72 4458.27 1100.32 o
-3 10 3 17036.70 21354.20 2350.88 o
-2 10 3 3806.84 4423.22 455.53 o
-1 10 3 483.36 577.04 196.72 <
0 10 3 21997.00 22185.90 2333.67 o
1 10 3 2656.96 2973.56 274.52 o
2 10 3 411.87 2537.26 631.58 o
3 10 3 18412.40 17494.90 1619.90 o
4 10 3 6528.99 5886.27 524.06 o
5 10 3 582.68 480.89 111.48 o
6 10 3 6533.12 5302.29 490.26 o
7 10 3 3692.59 7359.82 634.92 o
8 10 3 6.34 10142.40 1567.77 o
-6 11 3 902.41 1056.19 367.37 <
-5 11 3 1189.67 1829.06 496.65 o
-4 11 3 1418.92 1808.05 492.51 o
-3 11 3 2551.12 2783.73 533.05 o
-2 11 3 4173.07 4676.51 596.39 o
-1 11 3 560.50 769.43 126.78 o
0 11 3 7975.66 14786.10 1536.93 o
1 11 3 4019.07 4535.81 398.34 o
2 11 3 667.05 717.11 98.38 o
3 11 3 1189.97 1293.34 142.24 o
4 11 3 17.52 54.59 100.44 <
5 11 3 2878.91 2389.74 228.22 o
6 11 3 9403.07 9110.87 836.12 o
7 11 3 6097.78 5329.90 487.34 o
-5 12 3 2591.50 2951.44 747.73 o
-4 12 3 6659.22 7466.78 1821.44 o
-3 12 3 2751.62 3020.90 405.86 o
-2 12 3 4813.24 5991.71 645.19 o
-1 12 3 16994.40 20859.50 2177.97 o
0 12 3 9.64 16568.70 2089.64 o
1 12 3 12479.00 20886.00 1853.26 o
2 12 3 9206.89 8891.33 803.46 o
3 12 3 5065.80 4478.55 425.16 o
4 12 3 14021.50 12419.40 1137.98 o
5 12 3 8792.68 7953.42 702.29 o
6 12 3 1609.86 1981.25 214.54 o
-4 13 3 1145.13 759.09 271.26 <
-3 13 3 1230.13 999.89 212.23 o
-2 13 3 2301.50 2316.87 276.18 o
-1 13 3 190.91 377.87 139.79 <
0 13 3 3035.91 3125.43 346.78 o
1 13 3 137.56 124.49 135.41 <
2 13 3 4644.16 4634.62 426.93 o
3 13 3 33.32 63.32 122.28 <
4 13 3 373.78 336.47 137.65 <
5 13 3 665.25 518.05 144.27 o
-2 14 3 3110.36 1997.02 302.85 o
-1 14 3 7831.68 10886.80 1123.40 o
0 14 3 2813.41 2178.22 269.81 o
1 14 3 186.57 174.73 150.71 <
2 14 3 5339.41 4704.60 436.10 o
3 14 3 45.33 43.67 144.12 <
0 -12 4 2906.60 1540.03 228.15 o
1 -12 4 3124.82 1988.26 283.10 o
2 -12 4 239.60 240.28 192.22 <
-3 -11 4 263.45 137.62 128.88 <
-2 -11 4 10578.20 9840.00 915.14 o
-1 -11 4 1055.13 885.86 157.49 o
0 -11 4 3057.36 2778.39 327.00 o
1 -11 4 4535.65 5161.24 585.20 o
2 -11 4 605.59 587.95 159.56 o
3 -11 4 725.80 644.90 209.87 o
4 -11 4 12101.80 15905.70 3840.62 o
-4 -10 4 1306.23 1028.43 137.85 o
-3 -10 4 52.06 89.53 115.74 <
-2 -10 4 806.04 760.90 161.80 o
-1 -10 4 65.23 2480.73 262.05 o
0 -10 4 415.79 388.95 146.40 <
1 -10 4 10456.70 10881.60 1196.22 o
2 -10 4 2200.55 2211.60 278.37 o
3 -10 4 574.67 450.24 170.48 <
4 -10 4 7729.69 10362.80 2514.93 o
5 -10 4 356.83 478.47 275.28 <
6 -10 4 4487.99 6343.04 1559.37 o
-5 -9 4 1974.34 1822.55 205.91 o
-4 -9 4 43.43 67.69 117.92 <
-3 -9 4 9.73 2.18 113.54 <
-2 -9 4 878.47 3114.20 310.55 o
-1 -9 4 1241.74 1297.78 172.89 o
0 -9 4 172.05 268.66 135.42 <
1 -9 4 3926.50 4071.49 444.32 o
2 -9 4 4981.86 5423.44 925.58 o
3 -9 4 895.47 929.50 179.34 o
4 -9 4 571.96 620.74 174.86 o
5 -9 4 570.06 828.35 303.80 <
6 -9 4 677.96 959.64 319.15 o
7 -9 4 412.72 544.05 251.27 <
-6 -8 4 533.15 413.04 122.38 o
-5 -8 4 1360.25 1378.76 170.70 o
-4 -8 4 8139.48 8210.00 764.08 o
-3 -8 4 8887.43 8446.36 781.17 o
-2 -8 4 3225.71 22952.80 2131.16 o
-1 -8 4 5978.75 5992.36 559.02 o
0 -8 4 2231.43 2570.73 254.44 o
1 -8 4 2323.67 2463.77 280.82 o
2 -8 4 7357.64 8166.14 915.23 o
3 -8 4 6481.82 7916.68 1928.31 o
4 -8 4 915.39 1876.69 503.08 o
5 -8 4 1047.72 4454.02 1102.57 o
6 -8 4 2154.07 3329.07 828.43 o
7 -8 4 686.99 1009.93 327.90 o
8 -8 4 1683.14 1793.16 492.63 o
-7 -7 4 5298.28 4144.65 403.01 o
-6 -7 4 15226.40 15854.00 1466.51 o
-5 -7 4 218.39 290.52 111.40 <
-4 -7 4 4458.25 4700.46 433.72 o
-3 -7 4 9423.90 12019.70 1116.56 o
-2 -7 4 14.34 6.55 120.10 <
-1 -7 4 3613.04 4067.22 378.55 o
0 -7 4 41746.80 45438.50 4209.83 o
1 -7 4 4650.64 4978.26 551.67 o
2 -7 4 4108.72 4206.73 570.74 o
3 -7 4 4429.68 12298.30 1688.57 o
4 -7 4 1824.03 10154.00 2454.66 o
5 -7 4 636.82 1156.49 351.98 o
6 -7 4 13094.60 16848.80 4070.26 o
7 -7 4 187.73 259.92 174.74 <
8 -7 4 0.46 -100.44 233.63 <
-7 -6 4 858.83 909.62 133.38 o
-6 -6 4 1806.92 1605.51 175.23 o
-5 -6 4 1674.74 1504.70 166.46 o
-4 -6 4 337.79 238.16 107.06 <
-3 -6 4 8563.58 14051.90 1292.00 o
-2 -6 4 2299.99 2524.42 259.03 o
-1 -6 4 8488.07 7793.06 715.55 o
0 -6 4 17252.70 16281.70 1527.41 o
1 -6 4 44.37 82.98 117.92 <
2 -6 4 3184.96 3184.89 367.57 o
3 -6 4 49313.50 51826.80 5868.10 o
4 -6 4 300.93 13236.60 3166.02 o
5 -6 4 18458.70 23728.20 5717.24 o
6 -6 4 22841.80 31752.30 7649.82 o
7 -6 4 12.33 58.96 220.54 <
8 -6 4 5034.39 7843.69 1904.77 o
9 -6 4 11303.20 25343.70 6070.22 o
-8 -5 4 15.14 19.65 120.10 <
-7 -5 4 1092.85 1100.33 155.31 o
-6 -5 4 9376.23 9493.64 874.77 o
-5 -5 4 846.41 944.83 135.60 o
-4 -5 4 905.71 7361.71 676.01 o
-3 -5 4 9904.50 13040.60 1177.59 o
-2 -5 4 4615.09 4377.16 413.19 o
-1 -5 4 18812.40 16922.80 1574.16 o
0 -5 4 14684.60 12012.30 1093.06 o
1 -5 4 800.94 643.47 109.43 o
2 -5 4 7960.24 7082.00 792.84 o
3 -5 4 3642.98 3258.92 372.64 o
4 -5 4 11310.90 12588.10 3032.54 o
5 -5 4 1913.07 3127.08 793.83 o
6 -5 4 1289.70 2237.42 584.53 o
7 -5 4 1143.14 1800.86 470.46 o
8 -5 4 354.83 589.91 214.12 <
9 -5 4 36.78 11813.40 2851.82 o
-8 -4 4 1217.44 1043.61 155.34 o
-7 -4 4 1464.29 1341.88 166.37 o
-6 -4 4 14084.00 13989.80 1313.15 o
-5 -4 4 6526.09 7260.50 686.00 o
-4 -4 4 832.96 1752.35 194.71 o
-3 -4 4 13622.80 12076.60 1017.31 o
-2 -4 4 12027.50 10523.90 958.16 o
-1 -4 4 47.15 366.88 96.09 o
0 -4 4 86171.20 78604.40 7152.53 o
1 -4 4 1105.72 839.45 122.74 o
2 -4 4 3004.31 13980.80 1574.49 o
3 -4 4 17319.30 22190.20 3133.57 o
4 -4 4 7721.34 7162.27 802.74 o
5 -4 4 843.56 1308.43 402.59 o
6 -4 4 46048.50 53221.40 12810.70 o
7 -4 4 3514.45 4801.61 1176.22 o
8 -4 4 9.17 168.13 157.21 <
9 -4 4 6250.97 10034.80 2433.69 o
10 -4 4 3765.09 5149.31 1263.16 o
-8 -3 4 652.61 780.36 159.57 o
-7 -3 4 1375.52 1387.72 168.54 o
-6 -3 4 2317.66 2919.36 293.91 o
-5 -3 4 5456.77 5755.76 543.54 o
-4 -3 4 5495.91 5675.01 537.84 o
-3 -3 4 27.37 115.73 104.82 <
-2 -3 4 68.64 109.20 85.18 <
-1 -3 4 1827.06 1448.59 147.28 o
0 -3 4 789.42 573.87 87.61 o
1 -3 4 6204.53 4431.60 485.69 o
2 -3 4 19959.20 22689.10 3214.09 o
3 -3 4 23.19 329.73 93.90 o
4 -3 4 1324.10 1311.01 188.54 o
5 -3 4 13.31 54.59 181.24 <
6 -3 4 188.62 500.24 205.34 <
7 -3 4 1957.81 7574.30 1837.12 o
8 -3 4 2247.25 3025.77 749.86 o
9 -3 4 43.29 711.87 277.33 <
10 -3 4 251.64 218.44 205.33 <
-9 -2 4 388.51 257.82 137.65 <
-8 -2 4 51.92 227.10 141.94 <
-7 -2 4 2293.92 2495.21 296.00 o
-6 -2 4 45.07 144.12 115.74 <
-5 -2 4 8518.26 30103.00 2831.76 o
-4 -2 4 17209.70 20314.50 1961.57 o
-3 -2 4 280.66 417.41 87.42 o
-2 -2 4 7905.39 6158.90 575.22 o
-1 -2 4 36081.60 26159.00 2411.77 o
0 -2 4 528.04 803.33 122.58 o
1 -2 4 40400.60 41080.00 4814.67 o
2 -2 4 14795.80 10758.70 1914.21 o
3 -2 4 2496.40 1988.90 275.62 o
4 -2 4 1050.08 1003.58 120.52 o
5 -2 4 19425.90 23591.40 5679.46 o
6 -2 4 8821.52 17823.80 2349.00 o
7 -2 4 22343.60 27980.80 6736.72 o
8 -2 4 1555.07 10555.60 2562.26 o
9 -2 4 3595.63 5438.03 1212.85 o
10 -2 4 865.87 1067.07 334.55 o
-9 -1 4 152.43 107.02 163.80 <
-8 -1 4 1376.73 1361.34 210.11 o
-7 -1 4 6033.70 6526.81 722.01 o
-6 -1 4 1505.82 4529.65 508.16 o
-5 -1 4 4601.77 5009.04 479.05 o
-4 -1 4 31616.20 27682.90 2630.35 o
-3 -1 4 189.77 214.12 83.03 <
-2 -1 4 3124.90 2118.45 205.65 o
-1 -1 4 9959.99 5905.15 634.25 o
0 -1 4 2310.72 4626.41 541.81 o
1 -1 4 6159.54 5284.37 768.47 o
2 -1 4 463.19 345.82 89.74 o
3 -1 4 335.58 373.93 83.10 o
4 -1 4 132.95 168.21 72.09 <
5 -1 4 4432.62 4428.25 573.17 o
6 -1 4 3317.85 6659.22 706.88 o
7 -1 4 553.07 1775.17 201.13 o
8 -1 4 1104.33 2372.01 245.08 o
9 -1 4 264.56 412.87 111.41 o
10 -1 4 11.04 52.40 233.64 <
-9 0 4 636.89 485.24 153.00 o
-8 0 4 3433.91 3237.57 382.18 o
-7 0 4 10832.10 12947.30 1316.79 o
-6 0 4 319.08 1306.62 185.72 o
-5 0 4 10276.00 9719.31 1083.66 o
-4 0 4 155558.00 184931.00 20590.00 o
-3 0 4 7571.16 5678.38 632.43 o
-2 0 4 26043.60 21352.10 2720.77 o
-1 0 4 69246.20 63278.30 7601.73 o
0 0 4 13362.80 14645.90 2041.46 o
1 0 4 48409.70 36330.20 4881.65 o
3 0 4 8933.79 8089.25 1059.28 o
4 0 4 9533.77 8699.39 933.13 o
5 0 4 40341.50 43332.60 4678.08 o
6 0 4 10923.80 11303.60 1226.75 o
7 0 4 4216.78 25133.70 3310.89 o
8 0 4 52587.10 70032.90 9176.52 o
9 0 4 2884.25 2901.46 329.21 o
10 0 4 508.89 397.73 137.68 <
-9 1 4 1091.54 846.53 157.49 o
-8 1 4 3311.46 3957.28 544.62 o
-7 1 4 10178.60 11520.30 1277.56 o
-6 1 4 408.63 375.89 137.68 <
-5 1 4 753.41 717.54 124.69 o
-4 1 4 13704.20 11389.90 1270.85 o
-3 1 4 2652.23 1995.37 231.51 o
-2 1 4 6036.97 3676.13 428.66 o
-1 1 4 4667.41 4393.24 612.23 o
0 1 4 3201.72 2319.14 319.19 o
1 1 4 3962.92 2791.75 366.09 o
2 1 4 7145.94 6047.39 775.89 o
3 1 4 13170.40 12656.00 1313.82 o
4 1 4 558.86 417.98 59.09 o
5 1 4 129.47 371.35 83.01 o
6 1 4 5263.50 6614.55 863.63 o
7 1 4 1039.37 1669.97 194.79 o
8 1 4 239.67 347.34 107.04 o
9 1 4 253.88 176.94 113.59 <
10 1 4 158.34 294.85 146.33 <
-9 2 4 1426.59 818.54 159.77 o
-8 2 4 1579.84 21827.00 2423.76 o
-7 2 4 2117.65 2646.10 394.61 o
-6 2 4 1520.43 1724.04 212.49 o
-5 2 4 11.72 67.69 82.98 <
-4 2 4 10079.70 7862.14 875.07 o
-3 2 4 7016.65 5574.85 624.90 o
-2 2 4 373.20 1839.46 244.97 o
-1 2 4 20100.20 16176.80 2249.34 o
0 2 4 38930.50 35756.40 4770.84 o
1 2 4 372.32 1046.47 142.30 o
2 2 4 76856.60 90387.80 11667.00 o
3 2 4 48285.60 45255.70 4727.44 o
4 2 4 344.50 1541.48 168.36 o
5 2 4 38917.50 75598.00 7074.40 o
6 2 4 603.69 839.82 89.67 o
7 2 4 9.78 63.32 87.34 <
8 2 4 59984.20 71936.90 7791.73 o
9 2 4 18812.80 20554.40 2220.63 o
10 2 4 2523.16 2747.45 322.33 o
-9 3 4 100.40 89.54 137.58 <
-8 3 4 7182.14 8601.27 950.54 o
-7 3 4 711.26 704.03 120.25 o
-6 3 4 845.98 778.72 122.50 o
-5 3 4 3426.22 3481.28 402.96 o
-4 3 4 10229.60 8413.18 940.04 o
-3 3 4 3717.92 3156.95 362.82 o
-2 3 4 2409.89 20769.10 2753.62 o
-1 3 4 19331.00 17097.30 2173.30 o
0 3 4 388.44 221.06 70.04 o
1 3 4 629.89 629.17 63.57 o
2 3 4 105.80 58.99 48.07 <
3 3 4 318.32 426.42 61.23 o
4 3 4 10263.70 8727.59 805.59 o
5 3 4 2715.06 15918.90 1477.60 o
6 3 4 3728.69 3737.20 346.16 o
7 3 4 2642.20 2796.05 267.96 o
8 3 4 3015.06 3068.43 296.52 o
9 3 4 1791.41 1796.17 199.33 o
10 3 4 1952.33 1938.67 251.92 o
-9 4 4 3419.30 3508.67 478.65 o
-8 4 4 18494.00 20247.90 3153.18 o
-7 4 4 662.28 706.14 122.43 o
-6 4 4 5543.93 5358.23 726.65 o
-5 4 4 34025.40 28585.30 3325.91 o
-4 4 4 342.24 334.39 102.72 o
-3 4 4 24355.30 19038.30 2644.54 o
-2 4 4 176884.00 241680.00 34664.60 o
-1 4 4 426.64 7154.42 1251.48 o
0 4 4 20016.00 19043.30 2477.07 o
1 4 4 44066.50 47759.80 3929.40 o
2 4 4 759.25 646.56 70.14 o
3 4 4 45274.20 45930.10 4275.00 o
4 4 4 77735.10 244208.00 22784.00 o
5 4 4 5142.06 7380.06 685.02 o
6 4 4 1044.00 1164.68 124.79 o
7 4 4 2054.57 2002.45 201.78 o
8 4 4 110.75 626.80 126.67 o
9 4 4 5396.48 8911.46 844.20 o
10 4 4 6640.83 5582.56 538.61 o
-9 5 4 348.06 998.42 259.98 o
-8 5 4 4788.18 5392.87 702.17 o
-7 5 4 4.45 43.67 93.89 <
-6 5 4 20288.70 23388.60 4033.70 o
-5 5 4 5542.10 5439.46 740.74 o
-4 5 4 834.59 623.67 100.66 o
-3 5 4 3899.07 4092.40 570.11 o
-2 5 4 2593.66 3847.89 500.27 o
-1 5 4 251.56 297.26 63.39 o
0 5 4 18732.00 19319.60 1567.35 o
1 5 4 1.08 30.57 52.40 <
2 5 4 4409.89 4177.65 353.70 o
3 5 4 12029.20 11346.60 1029.44 o
4 5 4 1323.21 2197.25 201.74 o
5 5 4 982.16 1287.40 129.18 o
6 5 4 3747.33 3663.74 341.48 o
7 5 4 1060.04 1520.91 159.75 o
8 5 4 3546.32 3336.62 318.71 o
9 5 4 909.49 1106.59 155.27 o
10 5 4 345.70 849.86 146.38 o
-8 6 4 16872.20 22919.90 4518.44 o
-7 6 4 965.74 1170.18 339.02 o
-6 6 4 2108.71 1835.07 221.44 o
-5 6 4 25601.00 34299.10 8277.50 o
-4 6 4 170.46 1719.13 266.50 o
-3 6 4 4481.78 6944.77 961.79 o
-2 6 4 63852.40 70987.60 9367.54 o
-1 6 4 11869.50 10620.80 842.02 o
0 6 4 3092.77 3028.77 304.86 o
1 6 4 56433.30 64678.90 5331.85 o
2 6 4 2991.63 2664.26 229.56 o
3 6 4 197.02 391.10 61.18 o
4 6 4 68285.60 77848.90 7237.49 o
5 6 4 24443.60 27047.70 2517.52 o
6 6 4 2297.74 2563.54 243.62 o
7 6 4 25171.80 26666.80 2485.96 o
8 6 4 2062.70 2695.80 267.39 o
9 6 4 35.36 257.67 124.47 <
10 6 4 17957.10 33129.40 2938.85 o
-8 7 4 1006.48 1174.48 380.56 o
-7 7 4 486.75 880.69 303.76 <
-6 7 4 3715.88 4441.23 1088.32 o
-5 7 4 6898.47 8022.68 1933.15 o
-4 7 4 1132.87 2397.12 240.81 o
-3 7 4 2104.11 2739.65 471.98 o
-2 7 4 14309.40 13657.70 1097.43 o
-1 7 4 2013.12 1671.97 166.98 o
0 7 4 405.51 459.14 63.40 o
1 7 4 6794.50 6187.34 656.23 o
2 7 4 2802.79 3978.20 367.86 o
3 7 4 308.58 2825.80 257.88 o
4 7 4 27868.40 27711.30 2564.17 o
5 7 4 2494.57 2365.48 221.83 o
6 7 4 6959.79 6573.77 600.44 o
7 7 4 2013.45 1898.20 195.08 o
8 7 4 8376.52 8457.41 786.58 o
9 7 4 90.15 307.92 131.03 <
-8 8 4 1864.46 2150.69 578.19 o
-7 8 4 2427.16 3168.07 793.66 o
-6 8 4 1467.72 2257.11 584.53 o
-5 8 4 6228.49 41272.90 9950.84 o
-4 8 4 7162.99 14634.00 1662.46 o
-3 8 4 4194.43 6620.92 725.37 o
-2 8 4 26670.40 30707.40 3195.19 o
-1 8 4 26960.50 26629.20 2853.38 o
0 8 4 5977.23 7675.41 814.83 o
1 8 4 68791.10 88701.50 9262.18 o
2 8 4 33544.00 42609.10 3979.55 o
3 8 4 508.17 16808.80 1561.06 o
4 8 4 44029.30 45042.10 4000.69 o
5 8 4 23309.70 20777.10 1917.60 o
6 8 4 459.48 548.56 111.46 o
7 8 4 30284.60 28348.80 2625.95 o
8 8 4 7792.26 10286.20 953.62 o
9 8 4 380.62 288.40 137.65 <
-7 9 4 73.52 124.47 216.19 <
-6 9 4 136.50 253.35 233.69 <
-5 9 4 2421.05 3993.81 997.91 o
-4 9 4 12881.80 22661.30 5487.34 o
-3 9 4 516.47 769.43 135.52 o
-2 9 4 1245.72 2005.75 229.92 o
-1 9 4 1179.73 1291.91 181.74 o
0 9 4 207.41 257.79 72.09 o
1 9 4 586.53 2261.02 231.79 o
2 9 4 8660.00 13571.80 1257.31 o
3 9 4 209.33 629.15 87.38 o
4 9 4 10601.50 8994.29 821.93 o
5 9 4 4472.23 4128.64 381.14 o
6 9 4 1714.32 1721.73 173.05 o
7 9 4 2267.96 2049.68 210.45 o
8 9 4 668.81 865.63 142.09 o
9 9 4 22.56 26.20 133.20 <
-7 10 4 2114.49 2199.75 589.38 o
-6 10 4 16981.50 24939.30 5990.11 o
-5 10 4 1.12 2487.01 650.68 o
-4 10 4 1536.79 11789.30 2741.50 o
-3 10 4 17591.60 22766.80 3857.33 o
-2 10 4 2112.83 2467.14 326.76 o
-1 10 4 441.37 410.89 137.69 <
0 10 4 8065.92 9769.03 782.23 o
1 10 4 69.20 14970.20 1550.52 o
2 10 4 129.45 7640.01 701.10 o
3 10 4 11289.00 10541.80 965.46 o
4 10 4 894.94 857.45 107.18 o
5 10 4 140.75 216.22 89.55 <
6 10 4 3885.81 3697.91 345.17 o
7 10 4 286.77 21192.40 1896.19 o
8 10 4 2925.99 3183.38 302.76 o
-6 11 4 1419.74 2424.92 639.06 o
-5 11 4 445.80 1614.81 474.17 o
-4 11 4 1247.30 1877.53 512.05 o
-3 11 4 184.53 205.32 139.79 <
-2 11 4 95.13 179.08 98.28 <
-1 11 4 1486.44 1576.69 216.79 o
0 11 4 8985.52 9899.24 1037.93 o
1 11 4 372.64 463.25 96.15 o
2 11 4 1148.05 1407.16 144.44 o
3 11 4 439.12 467.66 100.53 o
4 11 4 6200.95 6000.21 552.10 o
5 11 4 16.84 41.49 96.08 <
6 11 4 12375.50 11582.70 1052.16 o
7 11 4 1188.83 1061.06 144.39 o
-5 12 4 3632.09 4190.84 1045.51 o
-4 12 4 2426.54 3154.83 802.41 o
-3 12 4 23841.80 22946.50 2408.96 o
-2 12 4 17687.40 20041.80 2598.39 o
-1 12 4 271.74 4655.32 480.61 o
0 12 4 45035.60 57214.20 7230.02 o
1 12 4 12691.50 11964.60 1253.44 o
2 12 4 4565.52 4627.80 424.91 o
3 12 4 41619.20 38000.70 3475.49 o
4 12 4 17424.20 15159.30 1347.24 o
5 12 4 14.88 668.17 131.01 o
6 12 4 17135.40 15936.60 1337.78 o
-4 13 4 22.16 -34.94 334.09 <
-3 13 4 342.87 268.72 122.35 <
-2 13 4 344.03 419.47 137.64 o
-1 13 4 1706.07 2108.84 243.07 o
0 13 4 2093.32 2980.27 319.94 o
1 13 4 2789.38 2505.55 278.64 o
2 13 4 310.42 371.39 102.68 o
3 13 4 4294.58 4495.43 395.88 o
4 13 4 341.12 480.64 124.53 o
5 13 4 231.53 220.62 133.24 <
-3 14 4 6448.89 3893.96 615.53 o
-2 14 4 1656.16 6443.38 794.75 o
-1 14 4 1432.41 8032.29 831.68 o
0 14 4 425.69 1636.59 211.95 o
1 14 4 2366.93 2038.59 245.51 o
2 14 4 16.56 126.65 139.75 <
3 14 4 6480.59 5527.42 511.92 o
4 14 4 1523.39 958.73 168.54 o
-2 -11 5 6090.30 4010.82 350.59 o
-1 -11 5 620.22 334.41 144.26 <
0 -11 5 1095.03 588.41 159.68 o
1 -11 5 3942.47 2984.34 375.79 o
2 -11 5 12.12 43.67 181.23 <
3 -11 5 3732.43 2616.33 342.69 o
4 -11 5 843.02 1272.53 719.35 <
-3 -10 5 141.94 120.12 131.04 <
-2 -10 5 463.79 456.70 155.15 <
-1 -10 5 329.60 878.25 176.96 o
0 -10 5 3963.82 3457.73 389.08 o
1 -10 5 5520.42 6076.41 841.93 o
2 -10 5 554.31 555.13 131.13 o
3 -10 5 3669.63 3394.28 467.95 o
4 -10 5 2203.97 2281.32 429.53 o
5 -10 5 2895.67 3683.41 938.95 o
-5 -9 5 3372.65 2559.83 199.78 o
-4 -9 5 1597.21 1392.35 170.76 o
-3 -9 5 4085.33 4610.29 439.70 o
-2 -9 5 12768.00 14368.70 1341.14 o
-1 -9 5 769.80 754.33 144.31 o
0 -9 5 5117.08 5927.47 656.65 o
1 -9 5 624.61 776.01 166.13 o
2 -9 5 691.51 856.99 174.90 o
3 -9 5 1437.24 1562.97 247.36 o
4 -9 5 8851.07 9917.87 1815.54 o
5 -9 5 10.52 292.59 244.56 <
6 -9 5 544.13 867.62 314.70 <
-5 -8 5 5296.40 5389.61 515.39 o
-4 -8 5 1884.61 1986.78 210.29 o
-3 -8 5 2584.97 2540.03 256.64 o
-2 -8 5 7651.88 7220.07 677.50 o
-1 -8 5 219.79 220.62 117.96 <
0 -8 5 1929.04 1998.77 247.65 o
1 -8 5 13166.90 14790.30 1916.81 o
2 -8 5 2464.37 2685.30 313.72 o
3 -8 5 2290.68 2083.29 265.35 o
4 -8 5 8163.61 11208.60 1502.46 o
5 -8 5 305.13 1992.42 535.24 o
6 -8 5 624.05 878.70 314.76 <
7 -8 5 10385.60 14296.80 3457.61 o
-6 -7 5 321.16 303.67 115.79 <
-5 -7 5 3073.39 3325.27 329.23 o
-4 -7 5 73.09 93.90 100.45 <
-3 -7 5 5.41 7371.56 694.36 o
-2 -7 5 5616.95 5874.58 554.12 o
-1 -7 5 8141.57 8085.26 743.70 o
0 -7 5 622.68 706.20 146.49 o
1 -7 5 8013.53 9071.89 977.14 o
2 -7 5 253.22 257.79 128.90 <
3 -7 5 569.80 1143.30 172.70 o
4 -7 5 7964.39 9116.49 1226.32 o
5 -7 5 10374.60 12908.80 3115.93 o
6 -7 5 559.68 705.97 262.28 <
7 -7 5 1605.28 2706.14 689.67 o
8 -7 5 1056.47 1410.79 413.39 o
-7 -6 5 227.06 170.38 102.66 <
-6 -6 5 40.35 238.02 111.37 <
-5 -6 5 121.97 253.34 113.57 <
-4 -6 5 127.75 216.22 102.65 <
-3 -6 5 4664.34 8320.05 749.35 o
-2 -6 5 5468.87 5613.39 532.40 o
-1 -6 5 1134.32 1142.72 155.43 o
0 -6 5 9.36 52.41 124.46 <
1 -6 5 1674.76 1543.29 238.95 o
2 -6 5 5189.86 5438.85 618.80 o
3 -6 5 2073.71 15882.40 1776.90 o
4 -6 5 21381.20 26852.00 4590.62 o
5 -6 5 2196.42 2383.87 614.06 o
6 -6 5 532.33 979.18 301.62 o
7 -6 5 13168.50 18703.60 4510.05 o
8 -6 5 3730.91 5363.15 1320.46 o
9 -6 5 608.57 6605.04 1617.38 o
-7 -5 5 3356.33 3736.89 421.55 o
-6 -5 5 12550.20 12037.20 1122.08 o
-5 -5 5 29.16 76.43 107.00 <
-4 -5 5 2921.73 3909.36 377.76 o
-3 -5 5 1434.77 1616.46 183.99 o
-2 -5 5 3240.92 3467.53 336.63 o
-1 -5 5 1524.67 1556.25 177.54 o
0 -5 5 9911.99 7998.98 878.32 o
1 -5 5 674.22 636.54 131.25 o
2 -5 5 373.50 736.56 150.81 o
3 -5 5 7343.75 17146.80 2381.56 o
4 -5 5 1024.89 1223.50 196.99 o
5 -5 5 9.17 56.77 205.25 <
6 -5 5 2536.86 3201.73 803.18 o
7 -5 5 189.65 456.51 244.64 <
8 -5 5 1011.84 1447.99 424.33 o
9 -5 5 3061.44 10814.40 2622.40 o
-8 -4 5 235.16 299.25 137.61 <
-7 -4 5 7321.29 8063.38 904.04 o
-6 -4 5 13492.20 13570.70 1303.63 o
-5 -4 5 956.02 1058.78 155.32 o
-4 -4 5 3823.83 4156.17 396.24 o
-3 -4 5 26020.50 26362.60 2389.65 o
-2 -4 5 117.93 290.49 122.31 <
-1 -4 5 45471.50 40244.70 3710.16 o
0 -4 5 51576.90 40924.60 4397.57 o
1 -4 5 1899.19 2259.84 265.73 o
2 -4 5 2067.05 2902.18 336.13 o
3 -4 5 32373.50 21463.50 3127.46 o
4 -4 5 502.85 728.05 144.30 o
5 -4 5 10727.30 12195.50 2685.74 o
6 -4 5 12731.70 16770.20 4040.10 o
7 -4 5 634.64 994.70 295.13 o
8 -4 5 63.79 104.82 161.60 <
9 -4 5 11227.80 24062.90 5803.29 o
10 -4 5 49.84 1089.65 355.94 o
-8 -3 5 705.15 548.69 150.84 o
-7 -3 5 5894.47 6135.99 690.35 o
-6 -3 5 17659.80 17895.50 1663.96 o
-5 -3 5 308.57 489.41 124.54 o
-4 -3 5 1951.26 3079.31 326.79 o
-3 -3 5 18896.10 17448.20 1609.72 o
-2 -3 5 79.36 69.89 117.94 <
-1 -3 5 6585.07 4668.81 510.58 o
0 -3 5 47160.00 35899.00 3896.27 o
1 -3 5 18901.20 12481.20 1415.78 o
2 -3 5 35.15 85.17 87.35 <
3 -3 5 20953.10 16224.80 2251.31 o
4 -3 5 741.00 588.60 133.47 o
5 -3 5 767.54 824.78 129.08 o
6 -3 5 10050.20 9776.85 2672.50 o
7 -3 5 10861.80 11434.10 2762.02 o
8 -3 5 217.63 360.42 168.20 <
9 -3 5 5.94 -13.10 203.07 <
10 -3 5 387.45 533.11 244.71 <
-8 -2 5 272.39 264.32 135.44 <
-7 -2 5 2.53 65.51 133.19 <
-6 -2 5 9235.92 25929.50 6328.49 o
-5 -2 5 28.46 3797.33 443.28 o
-4 -2 5 3765.76 3684.27 356.97 o
-3 -2 5 676.31 702.23 120.32 o
-2 -2 5 446.69 295.19 89.65 o
-1 -2 5 414.51 461.41 98.40 o
0 -2 5 95391.20 92228.50 10559.30 o
1 -2 5 5467.37 3066.66 361.57 o
2 -2 5 5545.63 3845.77 455.07 o
3 -2 5 27139.60 22719.50 4022.42 o
4 -2 5 9631.37 8668.82 1196.63 o
5 -2 5 16508.70 15280.10 2110.51 o
6 -2 5 109975.00 138358.00 19074.40 o
7 -2 5 1044.17 8827.50 2133.57 o
8 -2 5 3648.75 4564.06 1114.63 o
9 -2 5 18798.30 25085.50 6045.95 o
10 -2 5 2795.87 3182.81 802.83 o
-8 -1 5 24.56 50.22 139.75 <
-7 -1 5 2121.37 2220.28 278.36 o
-6 -1 5 4731.81 4718.47 533.34 o
-5 -1 5 2107.34 2525.01 302.74 o
-4 -1 5 80.34 111.38 128.85 <
-3 -1 5 3819.07 3217.80 353.36 o
-2 -1 5 1156.08 741.02 129.35 o
-1 -1 5 4617.72 2627.07 300.30 o
0 -1 5 21357.50 23524.30 2705.87 o
1 -1 5 17.05 1847.38 281.69 o
2 -1 5 5215.98 3520.86 491.49 o
3 -1 5 2734.45 2354.97 315.61 o
4 -1 5 5385.17 4889.53 651.49 o
5 -1 5 12315.40 11959.40 1569.56 o
6 -1 5 74.12 2450.34 331.95 o
7 -1 5 366.61 703.65 124.56 o
8 -1 5 9.13 2065.62 362.47 o
9 -1 5 3.19 89.52 109.18 <
10 -1 5 678.30 673.27 260.13 <
-9 0 5 271.62 135.44 150.73 <
-8 0 5 358.21 395.45 137.64 <
-7 0 5 4448.60 7307.73 1003.71 o
-6 0 5 971.82 3500.44 411.30 o
-5 0 5 29627.40 28110.90 3136.13 o
-4 0 5 15519.00 13954.30 1573.73 o
-3 0 5 14875.40 11464.30 1303.28 o
-2 0 5 3804.58 2380.99 276.86 o
-1 0 5 10398.80 6331.62 724.33 o
0 0 5 29518.60 35740.50 4927.48 o
1 0 5 60515.60 49558.00 7018.64 o
2 0 5 3404.46 3272.69 470.70 o
3 0 5 22139.50 19176.30 2495.43 o
4 0 5 2061.55 1993.06 215.59 o
5 0 5 5244.96 4902.72 525.77 o
6 0 5 29143.80 150503.00 16387.10 o
7 0 5 22046.20 30820.50 3318.89 o
8 0 5 140.12 1758.20 323.25 o
9 0 5 3844.32 3836.28 424.30 o
10 0 5 150.00 107.02 131.04 <
-9 1 5 1469.75 914.88 166.34 o
-8 1 5 3251.08 3308.66 371.04 o
-7 1 5 3425.09 4306.49 496.57 o
-6 1 5 17.14 2.18 128.83 <
-5 1 5 5248.34 5024.03 570.26 o
-4 1 5 20141.50 16518.10 1882.45 o
-3 1 5 1440.52 1140.77 155.76 o
-2 1 5 1424.59 1064.95 136.14 o
-1 1 5 5473.34 3671.55 510.75 o
0 1 5 10198.70 6774.42 922.00 o
1 1 5 2970.36 1816.33 242.03 o
2 1 5 21623.90 19387.70 2486.16 o
3 1 5 1311.16 1243.22 171.33 o
4 1 5 317.70 308.24 65.58 o
5 1 5 5882.81 6840.31 738.29 o
6 1 5 1764.33 1704.47 193.04 o
7 1 5 346.76 895.93 131.11 o
8 1 5 809.37 1010.40 139.97 o
9 1 5 786.21 791.54 159.62 o
10 1 5 83.15 281.71 139.76 <
-9 2 5 243.78 196.59 137.62 <
-8 2 5 1918.11 2311.09 297.92 o
-7 2 5 3491.77 10416.10 1169.06 o
-6 2 5 305.47 314.62 115.80 <
-5 2 5 3526.17 3419.07 394.08 o
-4 2 5 54242.30 48223.30 5601.88 o
-3 2 5 3254.52 2048.03 240.55 o
-2 2 5 4035.05 2735.55 332.79 o
-1 2 5 20526.50 41471.70 5445.75 o
0 2 5 6798.54 4202.58 539.20 o
1 2 5 1362.91 814.25 123.24 o
2 2 5 180351.00 268231.00 48474.90 o
3 2 5 500.49 317.33 56.90 o
4 2 5 1967.62 1823.63 197.98 o
5 2 5 13849.30 15118.80 1955.07 o
6 2 5 4021.89 4625.24 498.71 o
7 2 5 12747.40 12730.40 1648.86 o
8 2 5 44802.40 50344.30 5412.70 o
9 2 5 1133.90 2166.06 306.31 o
10 2 5 765.69 1005.70 207.70 o
-9 3 5 1740.83 1199.93 227.73 o
-8 3 5 1020.12 4807.62 702.11 o
-7 3 5 5069.73 5544.53 632.46 o
-6 3 5 51.57 69.88 104.82 <
-5 3 5 1289.95 1368.78 175.20 o
-4 3 5 14166.40 12197.30 1356.01 o
-3 3 5 4663.56 3346.78 385.65 o
-2 3 5 12313.10 20629.00 2910.07 o
-1 3 5 7996.02 6540.70 882.96 o
0 3 5 37.15 78.62 67.70 <
1 3 5 240.43 275.48 63.40 o
2 3 5 1181.27 1296.02 166.95 o
3 3 5 8511.80 7401.09 790.63 o
4 3 5 11136.30 9733.80 1045.67 o
5 3 5 1968.26 3040.27 327.31 o
6 3 5 2470.89 3243.55 353.80 o
7 3 5 100.52 323.23 100.46 o
8 3 5 6635.44 7523.02 816.23 o
9 3 5 2394.85 2591.92 296.03 o
10 3 5 120.13 382.19 165.98 <
-9 4 5 1128.21 479.06 179.37 <
-8 4 5 12.68 4814.71 602.66 o
-7 4 5 9881.26 8554.04 977.86 o
-6 4 5 419.44 496.07 104.90 o
-5 4 5 2953.84 2670.75 309.94 o
-4 4 5 57198.00 54156.70 6082.71 o
-3 4 5 34328.50 34741.70 3971.03 o
-2 4 5 4046.27 62853.60 8271.32 o
-1 4 5 138298.00 157981.00 16033.90 o
0 4 5 8033.61 5825.79 743.53 o
1 4 5 11281.80 11594.20 1133.84 o
3 4 5 65612.00 73682.90 7936.28 o
4 4 5 12614.70 12540.90 1347.08 o
5 4 5 85985.00 135598.00 14626.10 o
6 4 5 4141.41 3922.71 364.03 o
7 4 5 23.56 107.00 87.34 <
8 4 5 46409.50 54433.90 5093.15 o
9 4 5 17682.80 19255.20 2050.91 o
10 4 5 78.37 2201.25 321.02 o
-8 5 5 334.83 356.11 131.08 <
-7 5 5 11615.80 10271.00 1167.72 o
-6 5 5 1337.61 1317.90 175.14 o
-5 5 5 726.28 802.62 124.66 o
-4 5 5 268.40 1077.19 194.46 o
-3 5 5 2099.93 2488.98 353.68 o
-2 5 5 99.36 1898.09 270.84 o
-1 5 5 16026.60 15048.80 1877.05 o
0 5 5 392.56 223.08 63.43 o
1 5 5 3427.17 3166.03 234.85 o
2 5 5 18266.90 15918.50 1288.41 o
3 5 5 5279.96 4992.74 514.19 o
4 5 5 957.12 23100.10 2144.21 o
5 5 5 503.98 1077.97 113.70 o
6 5 5 2316.97 2437.18 232.74 o
7 5 5 8309.33 7553.95 706.52 o
8 5 5 8170.20 7706.89 725.02 o
9 5 5 10.34 141.93 117.91 <
10 5 5 186.79 1310.50 209.68 o
-8 6 5 4955.04 7121.31 1428.66 o
-7 6 5 37.76 41.49 113.55 <
-6 6 5 547.76 609.83 122.40 o
-5 6 5 4556.15 5526.39 784.76 o
-4 6 5 1600.02 4383.54 563.28 o
-3 6 5 319.66 1529.76 220.72 o
-2 6 5 7909.82 8266.84 1082.27 o
-1 6 5 198.19 428.25 80.84 o
0 6 5 112.49 207.52 65.53 o
1 6 5 789.23 895.66 56.94 o
2 6 5 5052.80 4885.96 377.89 o
3 6 5 1903.50 1527.01 140.62 o
4 6 5 13050.60 45929.30 4039.58 o
5 6 5 19121.50 18956.00 1727.44 o
6 6 5 3318.52 3225.15 303.60 o
7 6 5 102.16 216.21 89.54 <
8 6 5 8904.23 9136.22 852.15 o
9 6 5 11349.50 25430.40 2361.42 o
10 6 5 988.84 11033.50 1198.49 o
-8 7 5 1659.92 2110.60 468.54 o
-7 7 5 1199.05 1802.88 413.52 o
-6 7 5 3352.84 4677.16 1164.35 o
-5 7 5 2685.75 2697.94 311.72 o
-4 7 5 1858.83 2251.70 267.49 o
-3 7 5 4855.56 13318.00 1456.21 o
-2 7 5 4413.92 4561.37 590.06 o
-1 7 5 51.08 131.03 54.60 <
0 7 5 20924.80 19265.90 2049.07 o
1 7 5 3121.68 3316.97 249.21 o
2 7 5 30.18 12543.20 1013.24 o
3 7 5 2917.62 3173.18 286.27 o
4 7 5 2736.26 2938.32 272.72 o
5 7 5 9000.95 7676.67 628.94 o
6 7 5 2236.12 1983.32 195.26 o
7 7 5 6484.85 5816.81 543.88 o
8 7 5 1285.61 2720.30 249.49 o
9 7 5 3062.37 3948.26 357.73 o
10 7 5 2309.38 2469.99 273.96 o
-8 8 5 12290.70 16829.50 3328.94 o
-7 8 5 665.75 1003.34 327.89 o
-6 8 5 2698.76 4736.64 1178.13 o
-5 8 5 38941.30 39723.80 4601.01 o
-4 8 5 10214.80 17331.60 1736.95 o
-3 8 5 11811.40 14707.90 1632.22 o
-2 8 5 93532.30 125329.00 16276.60 o
-1 8 5 9677.68 10658.60 1115.35 o
0 8 5 14007.60 13252.80 1408.76 o
1 8 5 111516.00 147834.00 12246.40 o
2 8 5 9376.63 42513.90 3498.40 o
3 8 5 8656.21 10680.70 933.22 o
4 8 5 68616.50 71197.10 6298.02 o
5 8 5 4006.55 3859.18 359.05 o
6 8 5 6759.95 6333.94 568.77 o
7 8 5 18192.60 18524.40 1705.99 o
8 8 5 900.80 1347.13 144.34 o
9 8 5 125.74 233.68 124.49 <
-7 9 5 198.97 380.05 262.11 <
-6 9 5 2467.08 3692.52 918.74 o
-5 9 5 11099.70 17493.40 4218.55 o
-4 9 5 7.74 3993.67 694.36 o
-3 9 5 613.34 848.28 126.81 o
-2 9 5 5832.78 6158.43 663.62 o
-1 9 5 24.30 137.57 69.88 <
0 9 5 804.23 1174.86 129.08 o
1 9 5 2110.53 2352.97 250.22 o
2 9 5 392.98 708.13 93.98 o
3 9 5 3494.94 3854.43 334.59 o
4 9 5 14389.40 12652.50 1150.84 o
5 9 5 1253.56 921.60 109.45 o
6 9 5 432.93 924.38 124.56 o
7 9 5 278.93 1339.14 155.10 o
8 9 5 126.10 3723.65 353.80 o
9 9 5 1630.98 1339.84 168.57 o
-7 10 5 1777.71 1856.93 523.36 o
-6 10 5 1259.05 1973.64 522.95 o
-5 10 5 8960.07 41434.10 10060.30 o
-4 10 5 1557.89 6247.30 1035.74 o
-3 10 5 262.79 312.40 120.15 <
-2 10 5 24214.60 27660.60 3581.60 o
-1 10 5 1740.83 2121.52 236.70 o
0 10 5 2571.35 6420.73 663.15 o
1 10 5 21695.60 40800.70 4329.50 o
2 10 5 7327.13 7620.30 807.51 o
3 10 5 359.14 487.29 100.52 o
4 10 5 17125.90 14541.60 1323.40 o
5 10 5 6270.09 6243.87 541.31 o
6 10 5 2.47 1709.68 183.41 o
7 10 5 19667.70 20012.60 1744.05 o
8 10 5 7517.47 10791.10 968.15 o
-6 11 5 1006.64 2569.82 677.99 o
-5 11 5 451.30 489.47 251.29 <
-4 11 5 4516.21 6087.00 1496.44 o
-3 11 5 1370.86 1326.50 297.70 o
-2 11 5 2243.58 2087.52 285.06 o
-1 11 5 1736.01 1827.23 208.14 o
0 11 5 1280.00 2410.19 253.93 o
1 11 5 146.13 600.64 100.47 o
2 11 5 2689.71 3090.79 322.69 o
3 11 5 1236.16 1271.65 124.76 o
4 11 5 7408.18 6629.70 577.75 o
5 11 5 5319.33 4278.36 387.94 o
6 11 5 507.65 3549.08 332.18 o
7 11 5 899.68 924.99 133.39 o
-5 12 5 1618.79 1716.39 470.69 o
-4 12 5 2452.28 2764.68 721.32 o
-3 12 5 13915.50 13056.10 1723.67 o
-2 12 5 265.48 578.90 395.40 <
-1 12 5 12802.10 17743.70 1818.60 o
0 12 5 12263.50 17842.20 1844.28 o
1 12 5 7369.23 16039.50 1653.30 o
2 12 5 16136.50 14310.30 1483.63 o
3 12 5 15295.00 14218.50 1283.21 o
4 12 5 3499.74 3873.10 329.53 o
5 12 5 11707.30 9227.90 830.60 o
6 12 5 2339.58 2012.20 212.62 o
7 12 5 5644.28 9891.19 887.98 o
-4 13 5 2367.48 1757.91 480.03 o
-3 13 5 109.96 26.21 113.56 <
-2 13 5 1830.40 1828.85 225.60 o
-1 13 5 953.36 1229.13 188.09 o
0 13 5 3192.32 4865.38 489.61 o
1 13 5 168.27 181.28 102.65 <
2 13 5 1123.08 846.65 122.51 o
3 13 5 83.14 133.21 93.90 <
4 13 5 3.46 45.85 109.18 <
5 13 5 640.31 581.42 133.33 o
6 13 5 869.77 962.09 159.62 o
-3 14 5 9211.01 5214.08 726.82 o
-2 14 5 3143.08 2216.64 305.06 o
-1 14 5 303.65 653.19 146.37 o
0 14 5 10903.70 10373.90 1291.46 o
1 14 5 197.64 192.21 128.87 <
2 14 5 834.25 596.92 139.94 o
3 14 5 3845.77 3458.49 364.75 o
4 14 5 3531.43 2193.82 254.74 o
1 15 5 585.11 522.35 161.73 o
1 -11 6 671.27 421.87 207.66 <
2 -11 6 11299.20 6865.29 1007.12 o
-2 -10 6 53.94 34.94 144.12 <
-1 -10 6 3031.45 2312.86 291.85 o
0 -10 6 1497.47 1072.57 188.25 o
1 -10 6 91.28 76.43 150.68 <
2 -10 6 2923.21 2538.54 313.75 o
3 -10 6 130.66 128.85 146.33 <
4 -10 6 2801.71 2057.48 322.44 o
5 -10 6 7981.25 9980.94 2428.33 o
-4 -9 6 1011.44 804.84 148.72 o
-3 -9 6 1107.58 1060.93 175.00 o
-2 -9 6 54.98 2683.76 342.84 o
-1 -9 6 3249.89 3069.43 355.68 o
0 -9 6 1258.66 1102.87 188.19 o
1 -9 6 526.80 432.73 135.50 o
2 -9 6 747.02 553.14 122.43 o
3 -9 6 537.41 349.68 126.76 <
4 -9 6 272.60 342.97 159.47 <
5 -9 6 1199.20 2535.69 660.72 o
6 -9 6 1255.64 1312.77 391.64 o
-5 -8 6 2087.24 1833.77 234.42 o
-4 -8 6 1089.17 1185.59 168.43 o
-3 -8 6 2626.49 2612.16 304.86 o
-2 -8 6 166.14 194.39 133.23 <
-1 -8 6 1469.06 1442.73 199.22 o
0 -8 6 4513.43 4627.66 519.57 o
1 -8 6 4195.59 4715.48 539.10 o
2 -8 6 927.96 688.98 139.98 o
3 -8 6 531.13 673.16 150.81 o
4 -8 6 1506.41 2736.63 396.27 o
5 -8 6 402.32 456.67 211.95 <
6 -8 6 2755.90 4016.35 1002.44 o
7 -8 6 2814.24 3255.16 818.18 o
-6 -7 6 2410.78 1600.16 175.36 o
-5 -7 6 5805.26 6071.00 665.74 o
-4 -7 6 243.51 253.39 102.67 <
-3 -7 6 4685.86 4920.88 471.17 o
-2 -7 6 24878.40 28439.50 3779.90 o
-1 -7 6 2227.77 2317.87 280.69 o
0 -7 6 5743.38 5971.20 662.48 o
1 -7 6 9571.55 9121.12 1010.24 o
2 -7 6 473.25 513.60 133.32 o
3 -7 6 2389.24 2919.73 353.18 o
4 -7 6 21329.50 29111.20 3344.58 o
5 -7 6 164.88 168.18 200.94 <
6 -7 6 670.37 1009.95 327.90 o
7 -7 6 1.82 43.67 203.07 <
8 -7 6 78.41 102.64 203.09 <
-6 -6 6 10.67 58.96 120.09 <
-5 -6 6 965.04 968.88 157.47 o
-4 -6 6 1066.60 995.39 135.63 o
-3 -6 6 1765.90 14240.10 1373.63 o
-2 -6 6 3937.94 4040.44 457.74 o
-1 -6 6 322.57 452.29 139.84 o
0 -6 6 1272.38 1274.30 216.76 o
1 -6 6 25388.90 24333.00 2680.36 o
2 -6 6 143.75 670.54 146.34 o
3 -6 6 15427.50 13498.20 1945.71 o
4 -6 6 14890.80 13175.40 1839.79 o
5 -6 6 149.61 139.78 190.02 <
6 -6 6 5701.48 7765.27 1877.34 o
7 -6 6 16070.10 22485.70 5420.62 o
8 -6 6 65.22 161.60 233.66 <
-7 -5 6 233.61 170.38 109.22 <
-6 -5 6 325.88 415.09 126.71 o
-5 -5 6 4503.51 5017.94 559.02 o
-4 -5 6 1325.29 2399.09 245.16 o
-3 -5 6 10072.70 11565.10 1521.67 o
-2 -5 6 15541.20 15001.80 1649.81 o
-1 -5 6 39.88 113.55 124.47 <
0 -5 6 6049.00 5872.34 657.90 o
1 -5 6 7612.38 6387.27 720.57 o
2 -5 6 8776.46 7244.21 849.51 o
3 -5 6 5647.70 9992.38 1181.30 o
4 -5 6 6515.98 6799.37 764.10 o
5 -5 6 1134.75 1472.92 282.33 o
6 -5 6 1189.34 1680.74 453.01 o
7 -5 6 1282.01 1993.73 520.86 o
8 -5 6 748.07 1386.09 421.95 o
9 -5 6 76.57 257.68 248.95 <
-7 -4 6 1934.32 2091.88 258.47 o
-6 -4 6 320.34 297.12 120.16 <
-5 -4 6 3552.14 3318.63 378.02 o
-4 -4 6 3277.35 3327.41 369.22 o
-3 -4 6 334.70 270.95 122.36 <
-2 -4 6 28189.30 27347.00 3001.82 o
-1 -4 6 1005.79 978.52 151.05 o
0 -4 6 2780.43 2369.13 279.37 o
1 -4 6 8557.81 6573.99 757.51 o
2 -4 6 6685.33 5230.33 562.38 o
3 -4 6 265.35 6026.20 913.33 o
4 -4 6 42174.80 34950.70 6529.97 o
5 -4 6 1323.39 1077.43 223.37 o
6 -4 6 209.02 362.61 225.00 <
7 -4 6 4628.65 7300.89 1777.32 o
8 -4 6 4676.96 10845.80 2392.80 o
9 -4 6 236.78 11502.80 2787.24 o
-8 -3 6 1330.51 743.99 205.69 o
-7 -3 6 4132.89 4214.66 483.69 o
-6 -3 6 3428.47 3404.98 386.63 o
-5 -3 6 241.45 323.31 133.26 <
-4 -3 6 103.13 126.67 120.12 <
-3 -3 6 3645.43 3080.79 345.73 o
-2 -3 6 2234.02 2213.70 254.75 o
-1 -3 6 6084.54 5452.66 610.79 o
0 -3 6 15266.10 10916.10 1208.08 o
1 -3 6 53.93 936.88 146.32 o
2 -3 6 2294.69 1829.30 233.06 o
3 -3 6 162.73 209.71 104.86 <
4 -3 6 2876.53 2745.67 323.41 o
5 -3 6 3704.59 3771.22 524.27 o
6 -3 6 3870.97 3194.67 603.27 o
7 -3 6 779.71 2866.93 730.40 o
8 -3 6 15.85 4707.75 1148.55 o
9 -3 6 1412.79 2882.52 737.59 o
10 -3 6 27.95 371.21 231.46 <
-8 -2 6 14.95 6.55 139.75 <
-7 -2 6 2150.19 2003.01 260.79 o
-6 -2 6 4576.20 6314.51 755.19 o
-5 -2 6 465.03 1569.21 205.44 o
-4 -2 6 1003.89 1299.91 181.64 o
-3 -2 6 8009.73 6682.40 726.15 o
-2 -2 6 501.74 332.36 118.08 <
-1 -2 6 17703.10 12178.60 1334.48 o
0 -2 6 8875.19 5707.95 652.21 o
1 -2 6 1186.09 1497.49 186.36 o
2 -2 6 772.96 1751.40 227.68 o
3 -2 6 26195.40 21500.80 2957.30 o
4 -2 6 4022.30 3843.34 534.53 o
5 -2 6 30624.10 28635.20 3275.62 o
6 -2 6 3395.33 3591.04 402.67 o
7 -2 6 5738.19 11160.00 1248.09 o
8 -2 6 846.18 1239.98 349.91 o
9 -2 6 1251.92 1833.71 481.40 o
10 -2 6 10784.60 12287.20 2975.15 o
-8 -1 6 193.02 270.84 133.24 <
-7 -1 6 3514.48 3842.12 443.74 o
-6 -1 6 22261.40 34946.90 3924.93 o
-5 -1 6 14.83 91.71 133.20 <
-4 -1 6 3830.59 3820.22 440.63 o
-3 -1 6 11949.70 11163.40 1223.61 o
-2 -1 6 322.58 277.58 104.91 <
-1 -1 6 12346.60 7442.66 828.73 o
0 -1 6 10779.70 20817.90 2442.88 o
1 -1 6 311.64 330.11 100.56 o
2 -1 6 964.05 751.69 146.83 o
3 -1 6 17.98 104.81 89.53 <
4 -1 6 2623.68 2150.77 294.99 o
5 -1 6 119.71 87.37 91.74 <
6 -1 6 15.76 4397.73 489.12 o
7 -1 6 173.59 8455.42 1111.81 o
8 -1 6 124.33 198.74 85.18 <
9 -1 6 683.46 636.16 144.28 o
10 -1 6 173.14 242.44 218.41 <
-8 0 6 5.45 61.14 126.64 <
-7 0 6 2386.57 2508.36 309.16 o
-6 0 6 32247.40 40375.00 5493.78 o
-5 0 6 2589.12 2300.98 283.23 o
-4 0 6 10235.60 9751.12 1101.11 o
-3 0 6 30264.80 26441.30 2938.71 o
-2 0 6 1947.82 1375.58 180.19 o
-1 0 6 31396.30 21261.60 2404.72 o
0 0 6 218373.00 420273.00 60382.50 o
1 0 6 3051.47 2188.02 307.52 o
2 0 6 18738.90 13101.50 1752.52 o
3 0 6 40178.10 38064.00 5046.14 o
4 0 6 7494.99 7097.05 1188.44 o
5 0 6 7749.38 8419.93 1129.50 o
6 0 6 87111.10 144818.00 15675.40 o
7 0 6 4248.20 8477.53 916.73 o
8 0 6 110.00 165.98 104.83 <
9 0 6 7630.08 8882.63 1163.99 o
10 0 6 5824.27 6587.35 1607.16 o
-8 1 6 279.64 292.72 137.62 <
-7 1 6 455.15 1977.65 255.68 o
-6 1 6 9155.27 9553.08 1079.97 o
-5 1 6 1925.91 1743.17 223.65 o
-4 1 6 5889.97 4965.43 567.22 o
-3 1 6 7807.74 5978.50 676.68 o
-2 1 6 568.03 511.93 100.64 o
-1 1 6 862.95 845.71 157.75 o
0 1 6 30429.50 26190.80 3590.97 o
1 1 6 13552.00 8693.83 1144.47 o
2 1 6 368.29 308.38 94.05 o
3 1 6 5854.24 5893.70 762.14 o
4 1 6 12699.60 11124.90 1199.36 o
5 1 6 1078.61 1139.06 122.67 o
6 1 6 5443.09 17790.10 1923.79 o
7 1 6 2380.74 4168.32 447.78 o
8 1 6 8.50 189.97 135.38 <
9 1 6 3.79 67.69 104.81 <
10 1 6 233.52 172.56 148.54 <
-8 2 6 70.35 373.42 139.76 <
-7 2 6 3.15 3493.61 441.07 o
-6 2 6 2386.07 2075.19 258.85 o
-5 2 6 810.97 826.83 142.18 o
-4 2 6 648.22 546.77 120.29 o
-3 2 6 3826.97 2859.66 337.86 o
-2 2 6 14398.80 9841.48 1148.78 o
-1 2 6 45.76 3575.05 465.17 o
0 2 6 33963.40 22512.70 2997.65 o
1 2 6 32103.40 22942.10 2281.10 o
2 2 6 150.83 163.88 89.59 <
3 2 6 31347.60 28404.10 3696.30 o
4 2 6 127.84 222.82 67.72 o
5 2 6 678.56 901.44 105.02 o
6 2 6 86239.30 148183.00 16002.50 o
7 2 6 29941.00 36893.60 3998.12 o
8 2 6 5538.16 6421.02 688.68 o
9 2 6 22575.30 24563.60 3172.65 o
10 2 6 1754.67 2595.03 315.35 o
-8 3 6 1059.28 1273.03 227.48 o
-7 3 6 2795.83 2955.72 419.11 o
-6 3 6 3204.41 2658.47 327.36 o
-5 3 6 2450.25 2217.15 331.48 o
-4 3 6 6704.46 6279.05 861.48 o
-3 3 6 12109.00 8160.13 949.64 o
-2 3 6 59.27 128.85 100.46 <
-1 3 6 35.60 1563.60 224.93 o
0 3 6 82.15 155.09 80.82 <
1 3 6 2954.79 2494.73 318.76 o
2 3 6 4523.86 3849.73 490.13 o
3 3 6 12191.70 10563.20 1088.17 o
4 3 6 3359.33 2949.04 313.68 o
5 3 6 4212.00 4288.99 457.64 o
6 3 6 1276.18 3763.44 409.64 o
7 3 6 149.42 449.95 89.55 o
8 3 6 4221.36 4933.67 537.18 o
9 3 6 3.45 80.79 128.83 <
10 3 6 540.70 498.29 144.24 o
-8 4 6 1547.36 1495.15 234.23 o
-7 4 6 12564.70 14127.80 1579.92 o
-6 4 6 3.25 48.04 102.62 <
-5 4 6 13987.80 10836.20 1288.74 o
-4 4 6 66933.80 62500.20 7277.93 o
-3 4 6 12.15 5172.88 755.52 o
-2 4 6 15061.80 14208.90 1959.77 o
-1 4 6 37614.90 36455.80 4913.51 o
0 4 6 652.16 518.90 120.42 o
1 4 6 48430.40 44930.30 5785.07 o
2 4 6 99411.70 116528.00 15236.80 o
3 4 6 2327.05 2282.17 244.52 o
4 4 6 2355.50 8857.52 926.46 o
5 4 6 4360.44 17874.60 1914.59 o
6 4 6 539.54 887.69 113.69 o
7 4 6 8612.21 7933.89 854.11 o
8 4 6 18143.70 19867.90 2144.52 o
9 4 6 2192.30 8673.53 929.39 o
10 4 6 85.76 157.23 122.29 <
-8 5 6 9184.50 8236.13 981.86 o
-7 5 6 7771.11 8413.43 1128.58 o
-6 5 6 465.71 596.62 128.94 o
-5 5 6 188.27 218.44 102.67 <
-4 5 6 8469.08 8815.71 1160.43 o
-3 5 6 213.36 2470.96 353.93 o
-2 5 6 25083.40 26042.90 3339.50 o
-1 5 6 4635.24 4215.90 552.51 o
0 5 6 3930.73 3590.31 458.76 o
1 5 6 9315.88 8244.66 796.85 o
2 5 6 10429.70 9464.23 753.87 o
3 5 6 3495.11 3092.22 316.07 o
4 5 6 8637.93 8460.28 903.66 o
5 5 6 75.15 259.89 76.44 o
6 5 6 8793.52 8408.75 900.62 o
7 5 6 1484.78 1651.50 201.51 o
8 5 6 818.05 2097.22 255.87 o
9 5 6 74.13 235.85 124.47 <
10 5 6 745.74 723.63 150.85 o
-8 6 6 655.08 509.30 155.19 o
-7 6 6 6743.46 5857.29 700.14 o
-6 6 6 66.45 100.45 104.82 <
-5 6 6 4482.52 4798.75 630.14 o
-4 6 6 31748.20 33527.10 3790.22 o
-3 6 6 2468.04 8599.96 1114.00 o
-2 6 6 2097.99 3754.04 500.83 o
-1 6 6 39705.20 43645.50 5710.85 o
0 6 6 788.14 639.30 98.52 o
1 6 6 822.15 735.77 76.64 o
2 6 6 85764.40 98641.30 8160.26 o
3 6 6 29256.40 63555.50 5249.54 o
4 6 6 2535.62 4449.42 472.88 o
5 6 6 50419.30 52821.00 5694.59 o
6 6 6 3355.63 3379.37 367.42 o
7 6 6 586.76 695.18 107.12 o
8 6 6 44279.60 60591.60 6536.29 o
9 6 6 5906.06 26007.80 2796.64 o
10 6 6 3745.39 3220.59 369.07 o
-8 7 6 1136.19 1032.51 288.75 o
-7 7 6 5124.47 5276.68 700.33 o
-6 7 6 1365.91 1359.26 194.81 o
-5 7 6 388.43 450.14 131.11 o
-4 7 6 2484.56 2991.94 373.17 o
-3 7 6 3070.18 5648.11 767.60 o
-2 7 6 49.16 67.70 93.90 <
-1 7 6 19604.00 20794.50 2241.58 o
0 7 6 42.66 72.06 80.80 <
1 7 6 231.17 319.02 56.81 o
2 7 6 10334.20 10114.40 808.52 o
3 7 6 37.15 7381.00 587.42 o
4 7 6 11259.10 12398.40 1299.42 o
5 7 6 354.05 681.82 93.97 o
6 7 6 9656.54 9854.95 911.51 o
7 7 6 96.30 148.51 89.54 <
8 7 6 14599.40 15962.20 1480.85 o
9 7 6 2217.22 2526.96 289.30 o
10 7 6 1897.11 1883.58 254.07 o
-7 8 6 1319.25 2105.11 459.54 o
-6 8 6 1356.86 1221.26 179.47 o
-5 8 6 3763.07 7365.91 1807.40 o
-4 8 6 13937.20 18796.00 2610.75 o
-3 8 6 14782.10 14003.20 1927.67 o
-2 8 6 2927.23 3478.58 391.39 o
-1 8 6 40760.10 41617.30 4417.47 o
0 8 6 22051.30 22508.20 1834.81 o
1 8 6 422.10 7484.98 524.65 o
2 8 6 66229.00 90644.80 7498.17 o
3 8 6 27850.10 28787.20 2061.58 o
4 8 6 152.25 930.51 259.93 o
5 8 6 48007.00 42646.90 3689.64 o
6 8 6 14311.50 13366.20 1197.34 o
7 8 6 92.34 170.34 98.27 <
8 8 6 14680.00 12748.30 1175.43 o
9 8 6 8647.16 12760.70 1357.56 o
-7 9 6 1146.02 1483.18 376.26 o
-6 9 6 8214.50 13490.60 3287.41 o
-5 9 6 152.11 993.76 187.83 o
-4 9 6 2175.74 3334.89 456.05 o
-3 9 6 133.70 227.15 117.94 <
-2 9 6 329.90 504.75 124.55 o
-1 9 6 2007.86 2226.62 239.12 o
0 9 6 12398.80 13377.10 1079.53 o
1 9 6 13.10 181.24 82.98 <
2 9 6 6589.40 14718.50 1193.45 o
3 9 6 2961.01 3264.83 255.03 o
4 9 6 5382.48 5224.94 532.44 o
5 9 6 649.11 638.43 85.27 o
6 9 6 6826.12 6011.80 548.54 o
7 9 6 180.87 214.05 87.37 <
8 9 6 11186.10 10724.70 978.82 o
9 9 6 512.82 476.40 131.12 o
-6 10 6 893.99 11978.90 2910.52 o
-5 10 6 10290.10 27750.50 6794.85 o
-4 10 6 2541.32 3033.66 438.71 o
-3 10 6 1280.87 1085.67 186.05 o
-2 10 6 11324.30 12592.20 1349.01 o
-1 10 6 34.40 532.81 111.37 o
0 10 6 200.74 9945.82 978.64 o
1 10 6 15289.10 17411.20 1417.45 o
2 10 6 2185.98 5486.99 434.40 o
3 10 6 440.88 640.36 89.61 o
4 10 6 7642.14 6114.91 638.54 o
5 10 6 258.61 572.36 89.57 o
6 10 6 1968.46 1538.26 151.20 o
7 10 6 7936.39 13208.10 1144.20 o
8 10 6 223.61 3475.22 329.83 o
-6 11 6 319.92 480.62 318.96 <
-5 11 6 1888.80 2630.63 689.97 o
-4 11 6 490.94 607.53 201.05 o
-3 11 6 797.26 817.80 139.95 o
-2 11 6 1803.31 1945.52 227.85 o
-1 11 6 1586.00 1693.06 197.12 o
0 11 6 1362.00 11468.20 932.70 o
1 11 6 374.56 662.10 85.22 o
2 11 6 4272.52 5520.61 436.01 o
3 11 6 2.23 109.18 85.16 <
4 11 6 12694.00 10868.20 1124.38 o
5 11 6 869.96 776.35 96.22 o
6 11 6 4136.73 5301.91 455.20 o
7 11 6 2613.82 2179.82 219.30 o
8 11 6 3071.21 1876.18 204.07 o
-5 12 6 13723.10 14001.60 3386.01 o
-4 12 6 7210.72 4463.55 536.95 o
-3 12 6 62.73 148.49 133.21 <
-2 12 6 43719.50 49983.00 5294.89 o
-1 12 6 12016.90 11594.30 1177.95 o
0 12 6 6916.84 17812.30 1806.66 o
1 12 6 53871.60 120685.00 10008.50 o
2 12 6 23586.80 27469.20 2255.12 o
3 12 6 30.16 87.34 87.34 <
4 12 6 44627.10 41283.50 4158.00 o
5 12 6 6381.12 7175.95 728.41 o
6 12 6 2857.49 21100.60 1862.59 o
7 12 6 18787.90 15401.60 1365.58 o
-4 13 6 1227.56 802.94 315.05 <
-3 13 6 728.09 487.51 131.17 o
-2 13 6 22.55 104.81 120.10 <
-1 13 6 451.50 1005.19 170.45 o
0 13 6 192.62 513.29 115.76 o
1 13 6 947.70 1286.02 131.23 o
2 13 6 204.00 329.83 104.85 o
3 13 6 122.30 115.75 96.09 <
4 13 6 8193.08 8984.72 728.25 o
5 13 6 1179.30 879.47 144.39 o
6 13 6 1641.04 1683.58 210.17 o
-3 14 6 948.66 268.98 181.51 <
-2 14 6 467.05 1365.73 192.29 o
-1 14 6 2525.66 3894.04 396.86 o
0 14 6 22.42 1268.66 128.83 o
1 14 6 10444.80 12679.40 1030.70 o
2 14 6 997.51 1130.74 122.48 o
3 14 6 2562.69 2295.77 197.34 o
4 14 6 735.62 1549.96 146.47 o
0 15 6 6.44 336.26 148.48 <
1 15 6 1441.78 1278.14 157.58 o
2 15 6 69.26 -41.49 133.21 <
-1 -10 7 1659.37 1946.34 280.24 o
0 -10 7 347.54 144.19 152.93 <
1 -10 7 1368.01 978.20 181.63 o
2 -10 7 373.77 284.03 168.23 <
3 -10 7 1516.51 696.06 161.98 o
-3 -9 7 515.11 386.80 137.68 <
-2 -9 7 3773.63 3598.64 415.23 o
-1 -9 7 1475.70 1302.36 194.81 o
0 -9 7 736.59 832.94 170.52 o
1 -9 7 2459.60 2451.24 309.15 o
2 -9 7 7814.74 7605.20 822.90 o
3 -9 7 67.29 48.04 139.76 <
4 -9 7 2015.00 1634.30 230.03 o
5 -9 7 542.97 12441.60 3031.19 o
-4 -8 7 1450.37 1089.94 161.96 o
-3 -8 7 180.62 80.81 122.31 <
-2 -8 7 402.93 382.37 155.13 <
-1 -8 7 4176.85 4264.28 481.63 o
0 -8 7 1656.94 1458.43 205.85 o
1 -8 7 1368.65 1173.18 186.05 o
2 -8 7 2682.11 2808.08 394.89 o
3 -8 7 38.80 32.75 124.47 <
4 -8 7 129.93 851.75 159.43 o
5 -8 7 6989.79 10190.30 2485.16 o
6 -8 7 1380.48 1827.35 507.72 o
-5 -7 7 7.21 19.65 120.09 <
-4 -7 7 2749.81 2965.56 339.99 o
-3 -7 7 2745.57 2930.86 337.84 o
-2 -7 7 249.07 384.46 144.17 <
-1 -7 7 5383.47 5999.54 665.88 o
0 -7 7 26.31 120.10 137.57 <
1 -7 7 548.97 609.83 148.63 o
2 -7 7 8010.00 9510.15 1263.29 o
3 -7 7 8045.94 9202.82 1201.04 o
4 -7 7 485.91 832.64 174.83 o
5 -7 7 4657.79 4646.84 655.97 o
6 -7 7 618.46 957.37 345.35 <
7 -7 7 313.06 578.92 259.97 <
-6 -6 7 11.04 -65.51 192.15 <
-5 -6 7 1169.69 1253.57 183.77 o
-4 -6 7 1285.69 1212.33 179.44 o
-3 -6 7 245.56 238.11 122.33 <
-2 -6 7 13.84 26.20 135.38 <
-1 -6 7 165.88 166.00 131.05 <
0 -6 7 2727.49 2952.90 351.27 o
1 -6 7 2983.47 2504.32 298.76 o
2 -6 7 12246.70 12410.20 1380.65 o
3 -6 7 1693.43 2848.11 376.83 o
4 -6 7 703.78 452.60 107.14 o
5 -6 7 8774.31 8575.34 1204.76 o
6 -6 7 3938.19 5355.85 1310.38 o
7 -6 7 397.98 476.32 257.83 <
8 -6 7 10890.40 14100.30 3408.97 o
-6 -5 7 2130.18 1919.42 247.60 o
-5 -5 7 2583.11 2565.91 307.03 o
-4 -5 7 1706.21 2728.93 317.57 o
-3 -5 7 3117.43 3338.50 395.35 o
-2 -5 7 7725.57 7210.68 802.66 o
-1 -5 7 599.20 769.56 157.41 o
0 -5 7 167.84 198.77 133.24 <
1 -5 7 641.03 502.92 135.57 o
2 -5 7 2316.89 9443.90 1099.56 o
3 -5 7 300.98 152.94 126.72 <
4 -5 7 3114.74 3045.83 360.40 o
5 -5 7 40.36 28.39 96.08 <
6 -5 7 501.11 869.84 303.79 <
7 -5 7 2477.62 2760.92 690.78 o
8 -5 7 22.06 24.02 235.83 <
9 -5 7 480.77 913.41 316.85 <
-7 -4 7 320.33 235.94 122.34 <
-6 -4 7 987.23 988.57 157.47 o
-5 -4 7 5397.66 6138.60 687.70 o
-4 -4 7 1.73 76.42 100.44 <
-3 -4 7 17264.40 16175.20 1640.11 o
-2 -4 7 15507.50 15888.30 1739.79 o
-1 -4 7 2603.83 2249.30 274.57 o
0 -4 7 1015.67 1020.00 161.97 o
1 -4 7 15642.40 12108.30 1355.95 o
2 -4 7 453.25 34629.30 3779.45 o
3 -4 7 12967.20 11592.20 1393.04 o
4 -4 7 11512.50 8645.70 1016.88 o
5 -4 7 109.53 146.33 152.88 <
6 -4 7 56.08 205.27 220.56 <
7 -4 7 17508.40 24730.00 5965.11 o
8 -4 7 76.17 18404.90 4468.02 o
9 -4 7 2483.33 3424.54 868.19 o
-7 -3 7 17.10 45.85 137.56 <
-6 -3 7 1865.67 2188.26 273.81 o
-5 -3 7 8776.01 9558.53 1051.46 o
-4 -3 7 5.21 102.62 117.91 <
-3 -3 7 7238.96 7106.63 782.73 o
-2 -3 7 34716.80 32342.90 3261.43 o
-1 -3 7 6179.06 5284.23 607.59 o
0 -3 7 912.14 842.69 151.03 o
1 -3 7 25305.20 19407.10 2210.55 o
2 -3 7 2138.61 1932.61 307.46 o
3 -3 7 6645.78 4973.42 579.75 o
4 -3 7 27001.90 20244.60 2457.28 o
5 -3 7 12692.40 8964.90 1055.49 o
6 -3 7 912.77 940.67 172.82 o
7 -3 7 2205.66 3310.86 828.81 o
8 -3 7 197.09 3569.07 895.54 o
9 -3 7 3.03 493.47 294.77 <
10 -3 7 861.04 957.70 338.91 <
-7 -2 7 16.78 87.34 133.20 <
-6 -2 7 587.25 712.55 155.19 o
-5 -2 7 82.31 4249.74 521.94 o
-4 -2 7 149.22 227.15 128.87 <
-3 -2 7 13.18 148.48 109.18 <
-2 -2 7 30502.60 23350.90 2600.29 o
-1 -2 7 954.57 604.23 142.30 o
0 -2 7 3449.90 2739.40 324.23 o
1 -2 7 8662.69 12183.50 1371.40 o
2 -2 7 2218.31 1943.07 241.78 o
3 -2 7 10635.50 8151.51 949.47 o
4 -2 7 101609.00 114111.00 19980.50 o
5 -2 7 213.34 329.88 120.15 <
6 -2 7 5470.84 6802.95 901.46 o
7 -2 7 22152.20 31070.20 5222.42 o
8 -2 7 3644.37 6235.50 1516.56 o
9 -2 7 7731.31 12283.90 2707.63 o
10 -2 7 26782.90 32625.90 7860.91 o
-8 -1 7 1476.06 1087.79 183.85 o
-7 -1 7 1544.64 1849.84 240.81 o
-6 -1 7 175.04 1788.84 231.52 o
-5 -1 7 2197.82 2241.08 278.49 o
-4 -1 7 327.31 264.39 137.66 <
-3 -1 7 634.71 625.44 133.40 o
-2 -1 7 14835.00 10996.50 1199.13 o
-1 -1 7 1035.84 650.51 111.70 o
0 -1 7 5838.14 4856.48 553.95 o
1 -1 7 5148.18 4957.60 557.51 o
2 -1 7 6396.43 4557.55 633.24 o
3 -1 7 11644.50 8954.64 1206.17 o
4 -1 7 6704.90 5901.48 1034.76 o
5 -1 7 1.49 -26.20 120.09 <
6 -1 7 645.22 1707.82 271.15 o
7 -1 7 635.25 2501.17 349.81 o
8 -1 7 619.81 623.01 109.30 o
9 -1 7 1227.93 1072.18 179.43 o
10 -1 7 45.80 91.71 209.63 <
-8 0 7 384.51 393.27 142.02 <
-7 0 7 7523.61 8027.03 915.48 o
-6 0 7 4580.01 23888.20 5790.41 o
-5 0 7 4036.84 3515.18 413.81 o
-4 0 7 986.36 1293.30 186.01 o
-3 0 7 4871.70 4560.12 519.45 o
-2 0 7 8682.10 6599.57 727.32 o
-1 0 7 32661.10 24843.40 2789.60 o
0 0 7 6723.54 8966.73 1010.21 o
1 0 7 18500.30 13265.10 1764.79 o
2 0 7 2070.49 1841.21 274.97 o
3 0 7 4833.50 4433.71 601.37 o
4 0 7 24838.10 23177.90 3076.60 o
5 0 7 26551.40 27396.40 3626.33 o
6 0 7 121.93 8745.25 952.28 o
7 0 7 4587.24 23232.30 3051.19 o
8 0 7 421.13 614.05 128.93 o
9 0 7 2854.00 2826.38 379.63 o
10 0 7 10394.00 8539.40 990.53 o
-8 1 7 88.95 24.02 128.85 <
-7 1 7 3883.95 5301.55 615.44 o
-6 1 7 14321.80 14239.10 1620.21 o
-5 1 7 1221.39 1245.50 175.12 o
-4 1 7 2353.41 2147.01 267.83 o
-3 1 7 5937.78 5499.30 638.63 o
-2 1 7 4179.75 3369.31 386.90 o
-1 1 7 4989.03 5373.39 595.07 o
0 1 7 34509.60 29100.00 3971.21 o
1 1 7 180.11 201.02 102.70 <
2 1 7 364.33 349.85 107.14 o
3 1 7 11637.80 10215.00 1337.14 o
4 1 7 2140.37 2018.10 270.40 o
5 1 7 4426.64 6390.51 680.83 o
6 1 7 5410.55 8378.15 911.49 o
7 1 7 328.78 382.38 100.51 o
8 1 7 410.86 402.08 107.08 o
9 1 7 14.47 72.06 109.18 <
10 1 7 46.12 102.63 155.04 <
-8 2 7 311.84 89.57 133.26 <
-7 2 7 1375.52 1280.36 190.41 o
-6 2 7 14861.60 14183.70 1617.59 o
-5 2 7 467.17 417.45 118.02 o
-4 2 7 1826.98 1699.41 223.66 o
-3 2 7 5808.66 5558.77 647.45 o
-2 2 7 236.43 305.91 107.07 <
-1 2 7 1301.21 1901.66 276.37 o
0 2 7 103652.00 109424.00 14807.20 o
1 2 7 1192.68 2893.86 462.93 o
2 2 7 3026.43 2468.15 327.02 o
3 2 7 17783.50 15994.10 2065.25 o
4 2 7 4435.52 4215.13 449.64 o
5 2 7 15288.70 17059.70 1847.68 o
6 2 7 80471.60 122158.00 13282.40 o
7 2 7 1302.80 1725.47 251.81 o
8 2 7 1782.54 1998.24 352.76 o
9 2 7 3685.52 3914.21 512.08 o
10 2 7 257.71 2354.82 474.02 o
-8 3 7 16.32 183.42 135.38 <
-7 3 7 38.16 54.59 122.28 <
-6 3 7 10914.50 11456.70 1296.49 o
-5 3 7 3228.81 2949.73 353.88 o
-4 3 7 8077.04 8341.91 960.99 o
-3 3 7 14565.70 11147.90 1270.16 o
-2 3 7 59.93 1059.19 174.71 o
-1 3 7 399.37 8101.06 1062.65 o
0 3 7 16030.20 12696.00 1657.10 o
1 3 7 1044.79 795.93 124.98 o
2 3 7 22604.50 19776.60 2487.54 o
3 3 7 213.91 253.48 76.48 o
4 3 7 1780.16 3540.08 386.51 o
5 3 7 77.17 1943.74 198.74 o
6 3 7 520.97 4020.61 476.61 o
7 3 7 1666.91 1428.78 164.35 o
8 3 7 687.19 815.53 122.44 o
9 3 7 1080.13 1032.58 153.14 o
10 3 7 2.05 729.29 148.48 o
-8 4 7 45.12 -2.18 172.51 <
-7 4 7 804.92 673.44 142.12 o
-6 4 7 15860.80 13729.70 1595.43 o
-5 4 7 8453.59 6740.88 808.46 o
-4 4 7 608.47 706.25 135.57 o
-3 4 7 48155.00 42764.60 5851.20 o
-2 4 7 2393.20 3371.17 466.20 o
-1 4 7 12541.90 9056.93 1206.07 o
0 4 7 125027.00 147617.00 19269.90 o
1 4 7 35843.50 31198.60 3979.36 o
2 4 7 10882.70 8552.20 1075.28 o
3 4 7 109138.00 138577.00 14544.30 o
4 4 7 1661.77 8889.31 924.05 o
5 4 7 878.61 779.21 96.31 o
6 4 7 77240.80 84239.30 9079.46 o
7 4 7 25823.20 24866.20 2692.78 o
8 4 7 597.01 714.82 139.90 o
9 4 7 15210.60 19648.20 2118.37 o
10 4 7 2732.81 2524.59 293.91 o
-8 5 7 938.33 826.62 216.50 o
-7 5 7 190.03 111.39 144.16 <
-6 5 7 780.87 575.08 124.64 o
-5 5 7 1319.60 1004.87 162.01 o
-4 5 7 383.50 336.55 113.64 <
-3 5 7 15094.50 17522.10 3037.07 o
-2 5 7 425.59 2837.61 400.06 o
-1 5 7 445.75 443.88 98.40 o
0 5 7 4193.35 2868.53 361.06 o
1 5 7 12821.60 10983.00 1073.40 o
2 5 7 1818.23 2173.31 199.97 o
3 5 7 13590.90 14503.00 1555.93 o
4 5 7 4176.66 3919.55 420.03 o
5 5 7 10760.60 10309.90 1104.87 o
6 5 7 4045.28 3868.32 416.59 o
7 5 7 2557.54 2361.96 274.39 o
8 5 7 95.37 395.28 137.59 <
9 5 7 8.90 141.93 124.46 <
10 5 7 1.85 827.55 144.11 o
-8 6 7 125.61 161.61 179.08 <
-7 6 7 2440.85 2126.66 282.82 o
-6 6 7 625.76 491.84 137.71 o
-5 6 7 432.90 450.18 115.82 o
-4 6 7 4650.41 10554.60 1287.90 o
-3 6 7 96.87 37975.50 5195.74 o
-2 6 7 377.25 393.43 93.99 o
-1 6 7 2241.33 1934.18 259.36 o
0 6 7 3906.57 3282.61 415.58 o
1 6 7 406.46 360.76 89.64 o
2 6 7 14369.90 17747.30 1441.63 o
3 6 7 12165.10 15483.60 1254.45 o
4 6 7 1685.37 4339.22 462.88 o
5 6 7 333.81 548.52 91.78 o
6 6 7 13600.60 13022.60 1406.21 o
7 6 7 15581.30 16614.50 1774.49 o
8 6 7 2006.72 4828.00 519.40 o
9 6 7 22847.90 27732.60 2951.09 o
10 6 7 3641.86 5370.43 588.66 o
-7 7 7 4225.18 3814.86 565.08 o
-6 7 7 747.36 662.46 128.99 o
-5 7 7 832.80 1401.81 227.44 o
-4 7 7 7517.62 9227.99 1057.61 o
-3 7 7 154.75 3660.82 500.20 o
-2 7 7 15474.20 17190.80 2696.20 o
-1 7 7 46.36 109.19 102.64 <
0 7 7 320.40 321.27 69.94 o
1 7 7 3212.96 3141.01 240.26 o
2 7 7 87.27 596.25 61.15 o
3 7 7 8479.76 8644.74 692.83 o
4 7 7 8244.65 7414.17 789.36 o
5 7 7 5675.02 5239.35 561.99 o
6 7 7 222.29 163.84 80.83 <
7 7 7 4125.28 3983.73 437.99 o
8 7 7 2340.49 10915.00 1184.03 o
9 7 7 1671.51 2870.62 328.45 o
10 7 7 268.01 703.39 150.73 o
-7 8 7 11492.00 8973.24 1043.24 o
-6 8 7 2759.49 3154.65 432.17 o
-5 8 7 6927.51 7979.16 904.26 o
-4 8 7 51822.80 60472.50 6895.63 o
-3 8 7 3341.46 4705.89 725.67 o
-2 8 7 8911.17 9891.74 1069.62 o
-1 8 7 88868.80 109572.00 13667.60 o
0 8 7 10030.70 9584.82 759.53 o
1 8 7 16698.20 17534.10 1420.70 o
2 8 7 90918.20 119837.00 9923.78 o
3 8 7 4219.20 33390.70 3504.35 o
4 8 7 9853.37 11884.90 963.04 o
5 8 7 38792.50 33596.80 3570.90 o
6 8 7 1699.91 1761.54 201.57 o
7 8 7 614.21 550.87 124.60 o
8 8 7 17315.90 28372.50 3054.05 o
9 8 7 1801.41 12419.50 1324.96 o
-7 9 7 8260.55 10306.40 2051.10 o
-6 9 7 192.65 255.55 111.39 <
-5 9 7 1163.98 1452.80 177.22 o
-4 9 7 17.26 5166.32 607.03 o
-3 9 7 280.07 327.71 111.42 <
-2 9 7 955.09 1424.36 214.42 o
-1 9 7 13140.80 12390.80 1304.06 o
0 9 7 32.96 185.61 115.73 <
1 9 7 946.83 3455.58 277.93 o
2 9 7 7028.50 8924.34 714.84 o
3 9 7 4531.12 5045.68 300.05 o
4 9 7 148.61 163.82 89.55 <
5 9 7 1432.80 1112.46 129.20 o
6 9 7 183.05 537.33 109.21 o
7 9 7 3534.50 4431.90 479.01 o
8 9 7 4086.93 4918.25 529.86 o
9 9 7 644.32 566.12 135.52 o
-6 10 7 260.14 2389.76 522.08 o
-5 10 7 88.51 1209.84 189.99 o
-4 10 7 14086.40 18837.60 3609.97 o
-3 10 7 532.39 743.13 150.81 o
-2 10 7 3781.08 4529.54 598.37 o
-1 10 7 13824.50 15372.60 1603.74 o
0 10 7 3481.45 4415.05 349.77 o
1 10 7 208.99 2949.06 229.37 o
2 10 7 25903.10 28867.60 2367.59 o
3 10 7 5515.35 5818.04 461.64 o
4 10 7 146.93 259.91 87.37 <
5 10 7 33723.70 31282.50 3154.97 o
6 10 7 13059.70 13595.10 1401.30 o
7 10 7 0.78 2303.59 248.92 o
8 10 7 17804.60 14799.00 1530.47 o
-5 11 7 1472.46 2661.59 717.93 o
-4 11 7 235.10 157.27 155.09 <
-3 11 7 220.21 96.11 122.32 <
-2 11 7 1379.82 1337.54 172.94 o
-1 11 7 136.38 235.88 107.02 <
0 11 7 7768.98 17458.50 1421.07 o
1 11 7 85.85 476.08 93.91 o
2 11 7 1616.00 2291.26 181.81 o
3 11 7 2764.81 2792.32 219.52 o
4 11 7 379.58 622.74 89.59 o
5 11 7 21.77 -8.73 87.34 <
6 11 7 329.75 2903.52 299.31 o
7 11 7 3626.60 5792.68 604.09 o
8 11 7 7045.43 4584.70 479.23 o
-5 12 7 7856.20 8946.70 2224.51 o
-4 12 7 625.05 511.47 205.46 <
-3 12 7 8387.75 7195.32 810.55 o
-2 12 7 11404.90 12516.10 1305.06 o
-1 12 7 6891.77 12224.50 1562.88 o
0 12 7 10859.30 65447.20 5420.35 o
1 12 7 17330.60 28212.80 2320.83 o
2 12 7 3114.69 5382.45 426.03 o
3 12 7 17195.50 17553.20 1431.81 o
4 12 7 3451.40 3809.28 298.77 o
5 12 7 11612.60 13606.40 1716.94 o
6 12 7 9594.78 10364.10 1033.75 o
7 12 7 5217.13 4820.26 477.84 o
-4 13 7 610.73 310.36 397.79 <
-3 13 7 1481.75 963.09 164.16 o
-2 13 7 673.08 677.65 157.39 o
-1 13 7 611.11 1822.94 260.11 o
0 13 7 1515.79 5578.16 455.36 o
1 13 7 315.28 659.78 133.27 o
2 13 7 2.21 122.28 124.46 <
3 13 7 161.38 214.04 83.00 <
4 13 7 468.28 963.68 120.19 o
5 13 7 2427.03 3198.52 260.88 o
6 13 7 672.24 3088.66 253.56 o
-2 14 7 12863.30 8664.51 1076.66 o
-1 14 7 388.57 657.65 203.20 o
0 14 7 1901.47 2065.54 181.80 o
1 14 7 5784.81 7521.77 740.71 o
2 14 7 5256.78 5801.52 462.54 o
3 14 7 400.54 447.91 102.69 o
4 14 7 9509.39 9685.34 782.72 o
5 14 7 428.80 2313.93 190.10 o
0 15 7 318.63 255.60 126.71 <
1 15 7 1031.17 1021.40 129.04 o
2 15 7 299.36 200.98 117.97 <
-1 -9 8 130.31 635.53 174.72 o
0 -9 8 670.98 618.61 159.57 o
1 -9 8 420.79 319.01 131.10 <
2 -9 8 8.73 93.89 159.40 <
3 -9 8 1460.13 963.03 183.85 o
4 -9 8 647.33 179.24 153.01 <
-3 -8 8 552.41 441.46 133.31 o
-2 -8 8 1239.59 1588.45 216.61 o
-1 -8 8 1594.27 1705.47 229.88 o
0 -8 8 656.71 601.13 148.64 o
1 -8 8 204.16 338.56 131.05 <
2 -8 8 425.62 369.28 128.92 <
3 -8 8 242.73 240.28 166.01 <
4 -8 8 2535.82 5063.01 603.00 o
5 -8 8 2678.80 2254.52 368.44 o
6 -8 8 209.52 316.71 259.92 <
-4 -7 8 9547.99 9658.49 1042.12 o
-3 -7 8 372.14 498.14 137.65 o
-2 -7 8 4092.47 4848.05 549.66 o
-1 -7 8 8283.56 9127.47 1021.05 o
0 -7 8 1.56 39.30 139.74 <
1 -7 8 3729.36 3730.09 446.20 o
2 -7 8 19569.50 20043.80 2139.73 o
3 -7 8 49.92 87.35 122.29 <
4 -7 8 1999.88 2105.63 328.66 o
5 -7 8 778.41 752.11 153.05 o
6 -7 8 5.80 96.07 227.09 <
7 -7 8 382.25 474.11 249.07 <
-5 -6 8 109.40 229.31 133.22 <
-4 -6 8 378.54 364.87 133.28 <
-3 -6 8 502.17 3518.46 504.82 o
-2 -6 8 132.37 107.02 131.04 <
-1 -6 8 6038.90 6375.72 715.28 o
0 -6 8 156.36 301.41 131.05 <
1 -6 8 6234.43 6153.25 700.39 o
2 -6 8 5470.47 5667.84 639.81 o
3 -6 8 547.65 762.83 148.63 o
4 -6 8 3848.02 2922.31 362.82 o
5 -6 8 13522.00 10782.50 1535.89 o
6 -6 8 66.71 172.52 253.31 <
7 -6 8 7901.46 10438.70 2528.38 o
8 -6 8 3631.68 4170.85 1032.28 o
-5 -5 8 3114.09 3485.21 410.41 o
-4 -5 8 8671.38 16044.80 1766.01 o
-3 -5 8 36.13 61.14 128.84 <
-2 -5 8 2825.19 3202.59 375.36 o
-1 -5 8 5718.00 5749.39 655.75 o
0 -5 8 4549.96 4709.02 546.48 o
1 -5 8 7085.80 7208.53 828.52 o
2 -5 8 10087.00 9518.75 1285.96 o
3 -5 8 397.49 651.20 142.04 o
4 -5 8 2245.98 1688.66 221.50 o
5 -5 8 4555.10 3919.70 469.04 o
6 -5 8 951.32 1445.74 413.38 o
7 -5 8 978.81 1522.25 435.24 o
8 -5 8 3863.58 5117.72 1261.30 o
-6 -4 8 685.98 690.76 144.27 o
-5 -4 8 420.01 489.45 148.58 o
-4 -4 8 6263.56 16831.70 2613.95 o
-3 -4 8 884.16 997.33 164.03 o
-2 -4 8 1673.55 1673.76 227.84 o
-1 -4 8 3114.58 2751.64 329.67 o
0 -4 8 2774.45 2368.11 289.97 o
1 -4 8 8.08 113.54 122.28 <
2 -4 8 21131.00 42036.60 4757.86 o
3 -4 8 130.37 397.51 131.05 o
4 -4 8 411.11 266.62 107.08 <
5 -4 8 1641.72 2015.36 258.49 o
6 -4 8 4016.47 3742.02 444.38 o
7 -4 8 13.78 -65.51 187.79 <
8 -4 8 14405.80 20629.20 4984.55 o
9 -4 8 1421.03 5219.70 1291.25 o
-6 -3 8 157.59 340.71 131.04 <
-5 -3 8 2605.70 2800.94 324.62 o
-4 -3 8 1804.51 1971.70 245.37 o
-3 -3 8 4622.52 4858.69 542.06 o
-2 -3 8 8277.04 7721.21 886.55 o
-1 -3 8 104.10 203.11 126.67 <
0 -3 8 1633.32 1622.08 219.20 o
1 -3 8 972.25 4622.51 536.23 o
2 -3 8 4896.58 15993.00 1902.46 o
3 -3 8 4516.29 4380.70 613.52 o
4 -3 8 5174.28 3781.79 463.89 o
5 -3 8 1938.30 2277.95 333.25 o
6 -3 8 424.95 476.40 133.30 o
7 -3 8 1384.79 1812.53 326.17 o
8 -3 8 985.95 9689.36 2360.01 o
9 -3 8 335.90 611.72 284.01 <
-7 -2 8 240.08 198.78 146.35 <
-6 -2 8 166.70 301.41 137.60 <
-5 -2 8 695.65 2184.02 286.39 o
-4 -2 8 236.86 229.37 120.15 <
-3 -2 8 3888.62 3783.92 431.44 o
-2 -2 8 4020.43 3600.43 418.65 o
-1 -2 8 618.03 782.88 159.64 o
0 -2 8 97.77 190.01 139.78 <
1 -2 8 17213.90 14135.40 1587.35 o
2 -2 8 1181.17 1984.48 273.80 o
3 -2 8 24195.40 25347.10 4314.60 o
4 -2 8 3640.01 3434.19 484.62 o
5 -2 8 6658.49 7663.65 1059.35 o
6 -2 8 686.66 612.25 113.70 o
7 -2 8 2175.23 3701.02 425.35 o
8 -2 8 10648.40 30490.40 5657.16 o
9 -2 8 10089.40 12982.30 3143.99 o
10 -2 8 27.23 50.22 235.83 <
-7 -1 8 9.65 48.04 146.30 <
-6 -1 8 2673.74 4310.25 506.70 o
-5 -1 8 6887.98 7427.00 857.90 o
-4 -1 8 131.78 200.93 139.78 <
-3 -1 8 10446.90 9472.45 1031.90 o
-2 -1 8 18298.60 16308.20 1844.45 o
-1 -1 8 592.93 533.60 146.52 o
0 -1 8 1958.67 2263.59 274.44 o
1 -1 8 3724.16 4997.08 562.83 o
2 -1 8 1594.62 1590.37 239.10 o
3 -1 8 2482.60 2117.29 299.02 o
4 -1 8 2244.93 2178.70 318.46 o
5 -1 8 7.33 -76.42 128.83 <
6 -1 8 206.16 262.14 113.59 <
7 -1 8 37.92 5238.60 703.14 o
8 -1 8 196.19 1098.69 238.09 o
9 -1 8 92.45 72.07 91.72 <
10 -1 8 200.05 179.10 209.68 <
-7 0 8 641.24 574.87 168.31 o
-6 0 8 2293.34 2385.14 295.95 o
-5 0 8 8129.98 7794.37 888.95 o
-4 0 8 11.83 65.51 122.28 <
-3 0 8 10638.20 10045.00 1129.53 o
-2 0 8 66266.20 60459.30 7897.31 o
-1 0 8 539.62 564.20 142.14 o
0 0 8 13265.70 20748.10 2298.27 o
1 0 8 20480.20 15204.30 2080.07 o
2 0 8 2835.10 2105.96 299.59 o
3 0 8 8431.34 6912.80 942.45 o
4 0 8 83412.40 86732.40 11697.90 o
5 0 8 3121.78 3063.23 422.51 o
6 0 8 505.65 1440.57 231.71 o
7 0 8 9592.21 13107.00 1446.93 o
8 0 8 7917.26 8587.43 939.39 o
9 0 8 2650.08 2158.39 256.64 o
10 0 8 21872.00 17996.10 2512.40 o
-7 1 8 859.84 2897.27 347.67 o
-6 1 8 2531.87 2531.01 313.63 o
-5 1 8 5669.83 5897.61 675.40 o
-4 1 8 70.75 13.10 133.21 <
-3 1 8 29.30 109.18 144.12 <
-2 1 8 28233.70 25557.50 2811.56 o
-1 1 8 7318.18 6878.99 749.46 o
0 1 8 2280.33 3057.15 450.87 o
1 1 8 12427.80 8991.26 1207.48 o
2 1 8 10047.00 6629.06 884.48 o
3 1 8 329.67 332.24 109.29 o
4 1 8 25168.00 23079.50 3031.36 o
5 1 8 6243.49 6510.47 701.20 o
6 1 8 527.39 1471.29 220.80 o
7 1 8 2038.22 2863.74 317.95 o
8 1 8 2323.75 2528.60 348.70 o
9 1 8 62.80 172.51 113.55 <
10 1 8 72.89 61.15 131.03 <
-7 2 8 65.31 635.47 183.43 o
-6 2 8 504.67 443.65 128.94 o
-5 2 8 308.19 259.99 124.53 <
-4 2 8 3259.96 3370.76 395.78 o
-3 2 8 9.44 17.47 131.01 <
-2 2 8 7900.24 7047.95 776.17 o
-1 2 8 9682.29 13611.20 1789.06 o
0 2 8 8.97 495.67 150.67 o
1 2 8 11584.20 7084.97 933.31 o
2 2 8 917.08 751.30 131.42 o
3 2 8 1150.52 1041.04 153.42 o
4 2 8 70246.60 75506.60 9753.42 o
5 2 8 28949.90 40668.70 4382.89 o
6 2 8 6258.25 9729.34 1065.77 o
7 2 8 31785.00 37241.30 4001.03 o
8 2 8 845.67 1086.94 155.28 o
9 2 8 1343.05 1560.50 201.35 o
10 2 8 37736.00 39477.20 5197.48 o
-7 3 8 1319.98 1433.35 242.90 o
-6 3 8 6519.69 6719.20 768.67 o
-5 3 8 4437.37 4072.06 585.81 o
-4 3 8 427.21 596.64 150.80 o
-3 3 8 655.49 660.46 159.65 o
-2 3 8 65.71 1008.96 196.55 o
-1 3 8 4017.33 3339.66 437.63 o
0 3 8 18.80 87.35 91.71 <
1 3 8 17566.60 12580.50 1593.99 o
2 3 8 1384.67 1160.59 173.32 o
3 3 8 4701.85 3966.34 509.93 o
4 3 8 45.22 460.78 80.80 o
5 3 8 246.81 13590.30 1472.64 o
6 3 8 5561.33 6021.65 621.63 o
7 3 8 1998.45 2102.80 291.63 o
8 3 8 1027.75 1282.03 212.21 o
9 3 8 98.65 128.85 137.58 <
10 3 8 884.09 2901.75 397.98 o
-7 4 8 4975.68 4484.69 658.28 o
-6 4 8 16105.70 14035.00 1659.50 o
-5 4 8 70.67 45.86 133.21 <
-4 4 8 6442.82 6175.89 706.13 o
-3 4 8 20081.40 20642.10 2425.79 o
-2 4 8 753.21 4997.22 676.07 o
-1 4 8 28448.00 21508.60 2928.79 o
0 4 8 66326.00 59522.90 7366.67 o
1 4 8 550.38 625.65 111.57 o
2 4 8 4197.86 3609.52 453.96 o
3 4 8 6369.35 5801.74 750.84 o
4 4 8 1270.59 5875.73 633.38 o
5 4 8 10162.70 15109.10 1625.24 o
6 4 8 31482.40 31968.80 3452.09 o
7 4 8 1520.91 2299.95 267.23 o
8 4 8 105.60 240.23 113.56 <
9 4 8 896.28 708.56 135.59 o
10 4 8 52.13 5033.39 556.84 o
-7 5 8 344.98 456.61 150.75 o
-6 5 8 7658.97 7260.32 851.94 o
-5 5 8 246.54 233.74 124.52 <
-4 5 8 17715.40 14621.70 1714.20 o
-3 5 8 9865.81 11685.20 1286.69 o
-2 5 8 1280.84 1088.82 168.69 o
-1 5 8 3177.90 2366.54 319.51 o
0 5 8 20025.50 15377.70 1945.99 o
1 5 8 5348.32 5099.95 655.26 o
2 5 8 11736.40 9328.59 1205.44 o
3 5 8 3248.72 3448.92 352.83 o
4 5 8 13188.50 13578.30 1460.64 o
5 5 8 1102.21 1858.98 210.20 o
6 5 8 9859.42 10110.80 1100.60 o
7 5 8 258.19 190.07 91.76 <
8 5 8 3359.91 3526.45 393.29 o
9 5 8 46.88 875.65 161.59 o
10 5 8 1666.36 1258.95 175.16 o
-7 6 8 1922.04 1515.77 232.18 o
-6 6 8 9770.22 8570.72 1010.28 o
-5 6 8 40.50 78.61 122.29 <
-4 6 8 689.20 4390.63 557.57 o
-3 6 8 14102.30 13282.20 1881.04 o
-2 6 8 87.83 190.01 104.83 <
-1 6 8 2874.50 2460.25 327.89 o
0 6 8 56168.00 50167.80 6303.68 o
1 6 8 16399.60 15238.50 1507.81 o
2 6 8 2070.02 2416.76 182.35 o
3 6 8 54152.30 75795.40 6263.94 o
4 6 8 3422.50 3944.08 409.83 o
5 6 8 3574.04 3830.02 400.84 o
6 6 8 69418.90 76652.10 8043.91 o
7 6 8 11892.00 13001.30 1383.50 o
8 6 8 5709.44 5839.91 637.60 o
9 6 8 19049.70 28142.30 3491.59 o
10 6 8 385.01 2787.89 316.81 o
-7 7 8 66.66 52.41 165.96 <
-6 7 8 44.91 0.00 170.33 <
-5 7 8 1686.18 1360.11 208.07 o
-4 7 8 0.12 7744.86 1093.93 o
-3 7 8 20867.30 22718.30 3075.04 o
-2 7 8 1264.38 1003.01 166.44 o
-1 7 8 28.31 257.67 104.82 <
0 7 8 369.25 336.59 128.96 <
1 7 8 347.53 448.05 76.50 o
2 7 8 12929.30 33579.00 2406.25 o
3 7 8 8992.58 11683.80 836.15 o
4 7 8 5569.19 7367.46 591.08 o
5 7 8 251.11 316.79 74.28 o
6 7 8 10815.00 9894.15 1062.88 o
7 7 8 257.55 128.89 93.94 <
8 7 8 3959.66 3973.41 437.58 o
9 7 8 583.84 2216.24 266.65 o
10 7 8 1530.22 965.31 159.79 o
-7 8 8 2145.00 1573.20 282.65 o
-6 8 8 4435.48 3446.95 417.95 o
-5 8 8 5823.95 4716.31 533.84 o
-4 8 8 654.23 1410.10 209.88 o
-3 8 8 12576.50 14881.20 2078.22 o
-2 8 8 8079.11 8336.04 1435.64 o
-1 8 8 672.66 763.25 118.10 o
0 8 8 51968.40 60132.70 4967.12 o
1 8 8 21504.00 24079.50 1968.82 o
2 8 8 11.85 69926.40 5775.52 o
3 8 8 43650.50 93169.70 7709.78 o
4 8 8 15099.70 15286.90 1242.84 o
5 8 8 58.58 185.62 74.25 <
6 8 8 34092.10 30025.90 3212.15 o
7 8 8 11006.80 12115.20 1265.44 o
8 8 8 562.73 11760.90 1230.51 o
9 8 8 15697.50 13735.40 1464.93 o
-6 9 8 1360.90 1028.55 190.39 o
-5 9 8 39.64 318.81 124.47 <
-4 9 8 521.51 566.06 111.46 o
-3 9 8 1690.26 1986.91 238.78 o
-2 9 8 10663.90 11262.20 1184.91 o
-1 9 8 305.30 408.59 107.06 o
0 9 8 2038.90 2318.67 193.04 o
1 9 8 804.23 1253.48 135.63 o
2 9 8 6762.41 7304.96 583.24 o
3 9 8 76.80 373.44 102.64 o
4 9 8 16900.00 17539.40 1427.68 o
5 9 8 493.44 389.05 87.43 o
6 9 8 10590.00 9265.35 951.03 o
7 9 8 54.30 126.65 91.72 <
8 9 8 2336.00 4851.18 515.15 o
9 9 8 120.81 179.08 131.04 <
-6 10 8 1687.15 1388.13 208.00 o
-5 10 8 1531.71 4750.34 479.41 o
-4 10 8 9262.50 9755.85 1269.13 o
-3 10 8 111.94 163.80 104.83 <
-2 10 8 158.34 159.44 109.21 <
-1 10 8 11687.30 12957.00 1343.31 o
0 10 8 2964.24 4143.66 340.55 o
1 10 8 770.08 1233.51 133.41 o
2 10 8 10839.10 12238.40 989.52 o
3 10 8 67.01 200.91 93.90 <
4 10 8 350.27 511.30 89.59 o
5 10 8 13594.80 14343.80 1166.95 o
6 10 8 51.31 382.15 80.80 o
7 10 8 3570.39 2537.42 268.02 o
8 10 8 5540.89 7511.69 784.44 o
-5 11 8 105.60 91.72 126.67 <
-4 11 8 34.96 109.18 124.47 <
-3 11 8 1710.66 1638.16 205.87 o
-2 11 8 1198.15 1450.83 196.95 o
-1 11 8 3325.58 4319.76 362.54 o
0 11 8 657.54 2439.90 207.70 o
1 11 8 31.28 3987.31 314.44 o
2 11 8 5385.01 6052.57 481.03 o
3 11 8 211.54 176.93 87.38 <
4 11 8 6344.26 6508.80 461.76 o
5 11 8 374.17 456.66 87.40 o
6 11 8 5000.61 5415.62 429.46 o
7 11 8 249.49 323.29 100.48 o
8 11 8 7979.44 5823.55 599.39 o
-4 12 8 24942.80 24004.40 3065.31 o
-3 12 8 7095.37 5899.61 651.83 o
-2 12 8 6817.32 6535.11 695.93 o
-1 12 8 43203.10 62601.20 5157.44 o
0 12 8 18112.30 22643.10 1860.43 o
1 12 8 110.16 12485.60 1017.71 o
2 12 8 66987.80 81878.60 6772.85 o
3 12 8 8345.22 9404.00 755.78 o
4 12 8 6601.22 7757.72 620.71 o
5 12 8 32925.40 39914.50 3290.28 o
6 12 8 11032.20 20368.20 1667.70 o
7 12 8 18.61 2984.93 310.07 o
-4 13 8 692.84 251.38 203.29 <
-3 13 8 30.23 41.49 141.93 <
-2 13 8 3.99 117.91 159.40 <
-1 13 8 160.15 535.10 161.62 o
0 13 8 1492.45 4071.75 341.50 o
1 13 8 30.70 148.49 150.67 <
2 13 8 2952.15 3632.15 296.28 o
3 13 8 126.51 275.18 89.54 o
4 13 8 2762.66 3501.11 285.18 o
5 13 8 1273.85 2551.33 212.25 o
6 13 8 873.77 1307.59 131.20 o
-2 14 8 13.15 445.44 187.79 <
-1 14 8 9048.40 11624.40 955.04 o
0 14 8 243.74 7332.96 607.26 o
1 14 8 1833.73 3311.52 280.34 o
2 14 8 837.70 1121.69 137.75 o
3 14 8 3258.92 3942.66 322.70 o
4 14 8 17.59 69.87 106.99 <
5 14 8 10243.60 14307.60 1165.29 o
0 15 8 646.20 445.90 144.26 o
1 15 8 57.07 76.43 122.29 <
2 15 8 31.37 78.61 111.36 <
2 -9 9 2474.00 2284.30 841.81 <
-1 -8 9 320.30 292.74 146.37 <
0 -8 9 281.98 251.22 152.92 <
1 -8 9 184.55 187.84 133.23 <
2 -8 9 17.25 8.73 144.12 <
3 -8 9 2611.74 1936.32 254.38 o
4 -8 9 1129.62 6026.64 689.07 o
5 -8 9 230.65 131.06 155.09 <
-3 -7 9 2399.55 2297.22 287.15 o
-2 -7 9 81.65 203.09 135.40 <
-1 -7 9 170.58 179.10 146.34 <
0 -7 9 5015.11 5994.04 682.64 o
1 -7 9 3786.24 3560.19 430.74 o
2 -7 9 249.22 244.66 133.25 <
3 -7 9 5412.83 6293.52 874.84 o
4 -7 9 144.39 532.90 150.70 o
5 -7 9 1021.35 1041.10 216.53 o
6 -7 9 3823.74 5672.91 1408.34 o
-4 -6 9 41.42 87.35 117.92 <
-3 -6 9 10.29 609.21 146.30 o
-2 -6 9 1068.57 1246.85 190.31 o
-1 -6 9 1455.62 1365.96 192.63 o
0 -6 9 4186.81 4386.29 512.54 o
1 -6 9 808.54 647.26 155.25 o
2 -6 9 737.66 553.16 129.00 o
3 -6 9 3326.51 3632.97 423.92 o
4 -6 9 2861.61 2396.35 359.89 o
5 -6 9 24.35 48.04 150.67 <
6 -6 9 8451.70 7597.10 1087.20 o
7 -6 9 258.17 229.36 227.18 <
-5 -5 9 2425.34 2553.76 315.66 o
-4 -5 9 3627.58 4384.43 494.24 o
-3 -5 9 538.95 705.92 144.24 o
-2 -5 9 702.20 828.58 146.48 o
-1 -5 9 219.84 270.86 126.69 <
0 -5 9 2065.79 2367.35 291.54 o
1 -5 9 1127.72 1100.67 183.81 o
2 -5 9 2466.27 5190.59 587.95 o
3 -5 9 25.16 1908.47 264.22 o
4 -5 9 36.52 93.90 152.85 <
5 -5 9 628.29 572.72 146.46 o
6 -5 9 386.67 386.74 131.10 <
7 -5 9 926.19 1403.97 408.95 o
8 -5 9 1737.90 1681.67 462.02 o
-5 -4 9 3460.35 3653.98 434.79 o
-4 -4 9 2246.39 6345.35 727.69 o
-3 -4 9 1151.05 1325.90 185.98 o
-2 -4 9 235.96 334.22 124.51 <
-1 -4 9 4330.37 4313.45 502.02 o
0 -4 9 166.01 535.14 131.05 o
1 -4 9 8791.37 8015.60 924.71 o
2 -4 9 5329.20 5099.16 591.59 o
3 -4 9 156.49 650.89 159.45 o
4 -4 9 39.94 98.26 133.20 <
5 -4 9 14340.90 10976.10 1148.06 o
6 -4 9 87.93 144.13 104.82 <
7 -4 9 2979.92 3698.03 919.57 o
8 -4 9 2656.54 3912.49 975.93 o
9 -4 9 106.28 565.62 257.70 <
-6 -3 9 15.94 -4.37 131.01 <
-5 -3 9 3717.33 6824.12 779.96 o
-4 -3 9 15467.00 18589.60 2069.75 o
-3 -3 9 931.15 1089.26 166.23 o
-2 -3 9 1758.11 1974.12 251.97 o
-1 -3 9 15907.30 16068.60 1819.98 o
0 -3 9 1462.75 1524.52 205.90 o
1 -3 9 10058.80 12222.70 1408.42 o
2 -3 9 32527.60 34095.90 3878.15 o
3 -3 9 7114.71 6986.72 971.18 o
4 -3 9 1951.19 1615.82 219.24 o
5 -3 9 7448.30 7086.28 850.89 o
6 -3 9 2.36 -34.94 113.54 <
7 -3 9 1213.96 774.62 131.29 o
8 -3 9 4951.97 8685.98 2113.70 o
9 -3 9 1822.34 2082.69 558.45 o
-6 -2 9 9.13 21.84 115.73 <
-5 -2 9 51.80 107.00 117.92 <
-4 -2 9 5494.13 5113.84 573.35 o
-3 -2 9 35.41 41.49 113.55 <
-2 -2 9 779.69 846.38 150.90 o
-1 -2 9 717.31 837.60 157.46 o
0 -2 9 196.27 432.53 148.54 <
1 -2 9 2541.93 4589.03 525.03 o
2 -2 9 52300.30 61261.80 10798.90 o
3 -2 9 60.35 124.48 137.58 <
4 -2 9 5053.60 5074.44 582.97 o
5 -2 9 14601.10 14831.00 2117.75 o
6 -2 9 2404.22 2393.46 293.97 o
7 -2 9 9655.48 14235.20 1926.62 o
8 -2 9 34430.10 31576.80 4515.92 o
9 -2 9 75.84 126.66 231.48 <
-6 -1 9 32.68 179.06 128.83 <
-5 -1 9 0.22 -43.67 117.91 <
-4 -1 9 6072.63 6344.31 708.85 o
-3 -1 9 1278.88 1333.18 172.94 o
-2 -1 9 2724.41 2609.44 307.51 o
-1 -1 9 4246.54 4335.61 500.60 o
0 -1 9 4304.15 4680.81 540.69 o
1 -1 9 5767.53 5626.14 638.18 o
2 -1 9 13136.90 12831.60 1451.57 o
3 -1 9 199.93 211.91 131.08 <
4 -1 9 2565.12 2875.68 514.06 o
5 -1 9 1657.67 2138.95 311.20 o
6 -1 9 656.62 673.42 150.87 o
7 -1 9 2505.15 11583.70 1314.14 o
8 -1 9 2556.71 5709.39 1414.73 o
9 -1 9 1067.94 1023.71 212.18 o
10 -1 9 0.19 -89.52 238.00 <
-7 0 9 667.96 452.47 148.64 o
-6 0 9 306.92 408.52 131.08 o
-5 0 9 1416.40 1403.16 201.39 o
-4 0 9 2183.71 2523.76 313.55 o
-3 0 9 12422.80 12870.30 1393.44 o
-2 0 9 3598.75 3040.26 356.64 o
-1 0 9 8619.82 8488.29 941.16 o
0 0 9 726.76 1498.57 212.21 o
1 0 9 1739.24 1770.50 261.08 o
2 0 9 11074.40 8298.64 1111.59 o
3 0 9 19515.70 15921.10 2184.84 o
4 0 9 415.14 456.83 124.59 o
5 0 9 3157.33 3510.50 505.90 o
6 0 9 1811.26 2218.24 320.02 o
7 0 9 4254.41 5389.66 735.35 o
8 0 9 10834.20 13820.10 1536.06 o
9 0 9 9078.08 7899.56 893.49 o
10 0 9 18.53 65.51 135.38 <
-7 1 9 710.72 2474.58 306.04 o
-6 1 9 2213.38 2266.23 282.73 o
-5 1 9 4046.09 4317.62 497.09 o
-4 1 9 1025.53 1231.79 188.16 o
-3 1 9 4728.51 5874.03 672.77 o
-2 1 9 26449.80 25845.30 2717.26 o
-1 1 9 5.80 3048.21 382.12 o
0 1 9 1166.09 1677.99 258.49 o
1 1 9 12219.60 10576.10 1415.27 o
2 1 9 2308.66 2068.47 294.55 o
3 1 9 11102.90 10222.50 1371.25 o
4 1 9 13093.10 11169.70 1474.99 o
5 1 9 40.63 1074.39 189.98 o
6 1 9 597.80 765.23 142.11 o
7 1 9 390.60 406.45 128.93 o
8 1 9 20.06 -48.04 137.57 <
9 1 9 191.85 146.34 155.08 <
10 1 9 23.33 63.32 163.77 <
-7 2 9 22.17 150.67 141.93 <
-6 2 9 277.23 264.33 128.89 <
-5 2 9 689.39 773.93 153.04 o
-4 2 9 67.90 52.41 124.48 <
-3 2 9 722.47 933.84 170.58 o
-2 2 9 33068.80 42963.50 4765.07 o
-1 2 9 912.53 13505.00 1751.06 o
0 2 9 1772.35 1777.65 274.33 o
1 2 9 12287.80 8614.65 1150.13 o
2 2 9 1029.55 768.78 133.61 o
3 2 9 11635.20 10033.60 1315.99 o
4 2 9 82943.10 82911.80 10797.00 o
5 2 9 889.59 1140.11 142.24 o
6 2 9 2903.92 3285.57 364.82 o
7 2 9 6199.27 7585.78 822.47 o
8 2 9 416.49 513.52 137.67 o
9 2 9 10991.60 10534.70 1145.80 o
10 2 9 13761.90 12244.30 2112.16 o
-7 3 9 1068.78 905.55 161.86 o
-6 3 9 3876.97 3736.63 461.58 o
-5 3 9 9826.49 10207.60 1169.25 o
-4 3 9 123.00 141.96 139.78 <
-3 3 9 1341.27 1473.87 210.24 o
-2 3 9 19037.60 21228.70 2383.89 o
-1 3 9 71.36 7759.46 958.74 o
0 3 9 23607.20 18384.40 2459.66 o
1 3 9 4298.54 3043.76 398.17 o
2 3 9 907.46 689.71 126.99 o
3 3 9 34.32 45.86 102.64 <
4 3 9 4869.45 9651.37 1314.28 o
5 3 9 417.96 966.11 135.52 o
6 3 9 3354.46 4186.62 466.40 o
7 3 9 100.77 165.98 104.83 <
8 3 9 18.38 10.92 146.30 <
9 3 9 40.92 89.53 128.84 <
10 3 9 80.01 755.59 150.68 o
-7 4 9 1442.02 1124.97 186.04 o
-6 4 9 23.89 39.30 131.01 <
-5 4 9 9727.82 7980.72 951.20 o
-4 4 9 386.21 535.37 148.59 o
-3 4 9 5722.53 5934.60 678.81 o
-2 4 9 49681.80 43913.10 5876.78 o
-1 4 9 10222.70 8387.88 1099.24 o
0 4 9 3834.21 3203.31 415.04 o
1 4 9 67237.50 59821.80 7885.04 o
2 4 9 115.06 135.42 98.29 <
3 4 9 3656.72 3082.77 395.00 o
4 4 9 76991.90 147859.00 15858.90 o
5 4 9 21441.20 57262.40 6184.94 o
6 4 9 1458.40 1642.97 194.97 o
7 4 9 23909.50 25247.00 2732.99 o
8 4 9 2475.09 2884.48 324.64 o
9 4 9 363.39 428.23 152.94 <
10 4 9 26151.10 36400.20 3915.71 o
-7 5 9 680.22 402.21 128.97 o
-6 5 9 493.79 426.14 139.86 o
-5 5 9 7751.89 6784.47 814.84 o
-4 5 9 394.01 513.52 139.85 o
-3 5 9 3.88 165.95 117.91 <
-2 5 9 107.72 2647.08 384.39 o
-1 5 9 9539.60 7053.90 939.92 o
0 5 9 1511.36 1344.15 195.15 o
1 5 9 24744.20 19958.40 2425.15 o
2 5 9 2511.14 1983.95 259.54 o
3 5 9 6828.00 6095.65 767.80 o
4 5 9 747.59 1656.16 155.33 o
5 5 9 10103.80 10801.50 1160.90 o
6 5 9 0.72 85.16 98.26 <
7 5 9 4434.92 4855.05 526.48 o
8 5 9 709.62 981.67 170.54 o
9 5 9 1562.53 2325.09 337.16 o
10 5 9 1128.43 1045.64 170.63 o
-7 6 9 434.73 277.50 137.66 <
-6 6 9 1759.61 1914.05 392.01 o
-5 6 9 100.39 268.62 137.59 <
-4 6 9 580.85 555.23 153.02 o
-3 6 9 1965.10 15736.00 2168.45 o
-2 6 9 1563.27 1538.35 238.86 o
-1 6 9 154.13 196.59 120.14 <
0 6 9 9269.18 7659.08 959.90 o
1 6 9 2595.14 2344.32 294.69 o
2 6 9 251.43 437.00 146.40 <
3 6 9 1144.12 1769.68 151.12 o
4 6 9 13048.10 14177.20 1475.00 o
5 6 9 13358.50 12913.80 1393.59 o
6 6 9 3039.44 2806.39 307.67 o
7 6 9 27990.60 27634.60 2898.36 o
8 6 9 3913.81 4529.76 499.15 o
9 6 9 279.62 325.49 139.81 <
10 6 9 13576.10 10533.20 1129.19 o
-7 7 9 11.28 32.75 179.05 <
-6 7 9 5868.91 4634.62 566.65 o
-5 7 9 325.58 264.35 139.82 <
-4 7 9 7918.41 24824.00 2874.20 o
-3 7 9 2669.52 3148.17 458.83 o
-2 7 9 177.41 163.83 113.59 <
-1 7 9 911.95 800.89 150.99 o
0 7 9 4308.88 3716.83 467.92 o
1 7 9 3454.64 3817.90 383.33 o
2 7 9 15038.00 17471.30 1245.52 o
3 7 9 2644.45 6101.81 487.97 o
4 7 9 276.62 570.27 120.17 o
5 7 9 4709.69 4551.68 489.81 o
6 7 9 1089.45 1120.45 144.43 o
7 7 9 4157.89 3769.79 413.73 o
8 7 9 1688.67 5702.80 619.77 o
9 7 9 1887.79 3931.77 433.70 o
10 7 9 2117.70 1976.27 254.15 o
-6 8 9 18659.50 14736.90 1728.19 o
-5 8 9 574.90 474.29 157.37 o
-4 8 9 4004.89 10553.00 1205.30 o
-3 8 9 40068.60 44893.60 6066.45 o
-2 8 9 4984.20 5334.87 723.67 o
-1 8 9 16699.80 15688.50 2581.92 o
0 8 9 71311.30 86040.10 8721.39 o
1 8 9 1667.80 7076.67 572.18 o
2 8 9 8457.49 25014.00 2049.78 o
3 8 9 50817.40 67966.50 4883.89 o
4 8 9 2057.97 2423.90 204.00 o
5 8 9 2203.28 1976.46 160.13 o
6 8 9 30597.70 30063.90 3121.39 o
7 8 9 2943.11 4750.58 520.28 o
8 8 9 933.72 1329.71 214.33 o
9 8 9 8628.43 11852.20 1257.86 o
-6 9 9 1308.41 879.64 164.11 o
-5 9 9 183.16 83.00 139.79 <
-4 9 9 1315.25 1496.98 214.48 o
-3 9 9 15850.80 16455.60 2198.58 o
-2 9 9 359.95 496.01 126.73 o
-1 9 9 13.38 -56.77 137.56 <
0 9 9 595.42 472.25 131.18 o
1 9 9 7094.93 10495.90 849.52 o
2 9 9 46.14 31432.50 2581.16 o
3 9 9 11601.60 12938.00 1050.00 o
4 9 9 1865.17 1760.21 146.87 o
5 9 9 3447.24 3348.27 263.82 o
6 9 9 968.59 861.86 109.37 o
7 9 9 3176.99 2189.19 241.54 o
8 9 9 2041.60 9414.81 957.48 o
9 9 9 523.38 480.78 133.31 o
-5 10 9 112.49 410.57 155.06 <
-4 10 9 2154.82 1917.61 219.16 o
-3 10 9 5012.69 4701.42 530.95 o
-2 10 9 429.81 432.68 120.19 o
-1 10 9 164.12 722.97 190.02 o
0 10 9 22731.10 27129.10 2224.60 o
1 10 9 2212.23 2917.35 241.29 o
2 10 9 986.63 3415.40 282.25 o
3 10 9 32952.50 38972.90 3211.64 o
4 10 9 12203.80 12565.20 1017.29 o
5 10 9 2.43 87.34 91.71 <
6 10 9 33389.80 32696.20 2687.86 o
7 10 9 8756.70 11805.70 1194.54 o
8 10 9 1186.17 11374.30 1170.46 o
-5 11 9 61.95 10.92 214.00 <
-4 11 9 978.50 618.94 161.84 o
-3 11 9 688.80 625.22 146.47 o
-2 11 9 7420.21 6725.80 858.42 o
-1 11 9 104.30 50.23 185.63 <
0 11 9 85.02 1109.40 174.71 o
1 11 9 743.28 1690.26 159.62 o
2 11 9 220.32 364.80 104.85 o
3 11 9 1860.27 2149.59 173.11 o
4 11 9 407.01 504.77 85.22 o
5 11 9 3138.29 2795.19 202.01 o
6 11 9 3670.74 5056.01 402.11 o
7 11 9 4981.53 7798.10 627.46 o
8 11 9 394.98 3373.48 347.40 o
-4 12 9 7268.46 4898.11 680.48 o
-3 12 9 3922.64 3032.94 415.38 o
-2 12 9 4417.59 3245.02 349.80 o
-1 12 9 12850.40 14547.90 1183.30 o
0 12 9 982.92 26042.50 2134.85 o
1 12 9 16419.10 27012.10 2216.72 o
2 12 9 4262.44 4754.96 378.46 o
3 12 9 14746.10 15301.50 1241.51 o
4 12 9 8897.79 9468.96 762.84 o
5 12 9 7479.46 11050.50 895.62 o
6 12 9 3251.45 11843.80 961.56 o
7 12 9 6754.88 5706.43 456.96 o
-3 13 9 552.03 303.78 137.68 <
-2 13 9 1558.42 1000.44 429.07 <
-1 13 9 1610.69 1913.56 210.18 o
0 13 9 0.55 3142.05 275.12 o
1 13 9 19.64 681.27 146.30 o
2 13 9 37.57 56.77 139.75 <
3 13 9 1427.36 1326.43 118.20 o
4 13 9 1817.85 2365.40 210.26 o
5 13 9 1995.96 3511.72 284.79 o
6 13 9 869.17 1325.07 120.26 o
-2 14 9 2733.43 1653.65 193.00 o
-1 14 9 5734.72 13448.50 1101.98 o
0 14 9 4147.44 4427.62 371.53 o
1 14 9 578.88 542.03 135.51 o
2 14 9 13544.30 15583.60 1272.40 o
3 14 9 734.51 937.85 133.35 o
4 14 9 1228.55 5493.78 448.52 o
5 14 9 7955.12 15310.70 1249.53 o
1 15 9 106.96 100.46 133.22 <
2 15 9 1085.79 933.99 144.36 o
1 -8 10 108.52 41.49 126.67 <
2 -8 10 1103.39 750.28 185.93 o
3 -8 10 1409.29 892.90 186.02 o
-2 -7 10 124.06 96.09 131.04 <
-1 -7 10 3082.34 3666.97 438.89 o
0 -7 10 10655.90 12326.00 1381.89 o
1 -7 10 0.28 30.57 144.11 <
2 -7 10 2427.49 2288.76 295.96 o
3 -7 10 1978.36 1555.36 216.87 o
4 -7 10 31.11 1670.46 266.40 o
5 -7 10 1269.57 936.47 247.24 o
-3 -6 10 510.75 437.06 137.67 o
-2 -6 10 214.24 338.56 133.24 <
-1 -6 10 1133.58 1437.28 214.39 o
0 -6 10 1186.30 1288.68 194.72 o
1 -6 10 621.86 791.27 161.75 o
2 -6 10 1368.95 1149.04 177.28 o
3 -6 10 6051.14 4910.80 575.79 o
4 -6 10 64.97 203.09 146.31 <
5 -6 10 6071.15 5341.84 780.77 o
6 -6 10 1553.42 1455.72 332.74 o
-4 -5 10 927.69 2022.77 258.04 o
-3 -5 10 2353.44 2792.59 335.37 o
-2 -5 10 1533.50 1779.80 236.43 o
-1 -5 10 4630.17 5403.60 616.30 o
0 -5 10 7578.83 8831.47 1006.84 o
1 -5 10 19.09 91.71 155.03 <
2 -5 10 2157.81 2016.65 269.62 o
3 -5 10 4988.88 4525.02 546.35 o
4 -5 10 1049.45 953.77 225.32 o
5 -5 10 2188.06 1987.90 267.39 o
6 -5 10 6033.69 4534.69 549.19 o
7 -5 10 2128.05 3131.11 801.95 o
-4 -4 10 714.26 765.12 153.02 o
-3 -4 10 819.83 903.04 161.80 o
-2 -4 10 554.61 858.95 144.25 o
-1 -4 10 242.59 292.72 128.88 <
0 -4 10 5936.03 6422.28 732.97 o
1 -4 10 19.13 4.37 133.20 <
2 -4 10 185.98 1959.29 253.38 o
3 -4 10 285.57 369.21 144.19 <
4 -4 10 2384.21 2274.29 357.48 o
5 -4 10 153.44 231.51 117.94 <
6 -4 10 10356.40 7503.53 902.38 o
7 -4 10 573.39 351.88 155.18 <
8 -4 10 18.39 -4.37 196.52 <
-5 -3 10 2557.63 3966.43 464.83 o
-4 -3 10 3381.57 4181.01 478.71 o
-3 -3 10 130.46 329.78 111.38 <
-2 -3 10 786.08 988.36 159.62 o
-1 -3 10 1541.54 2089.20 260.60 o
0 -3 10 3924.93 4680.43 541.32 o
1 -3 10 4055.91 5692.93 651.63 o
2 -3 10 4700.86 13396.20 1527.65 o
3 -3 10 2112.53 2475.65 388.12 o
4 -3 10 618.03 662.40 153.03 o
5 -3 10 581.78 588.00 135.52 o
6 -3 10 3671.51 3160.62 389.03 o
7 -3 10 639.45 572.71 131.15 o
8 -3 10 214.50 1891.58 500.20 o
9 -3 10 639.97 736.60 284.15 <
-5 -2 10 393.21 1153.64 235.97 o
-4 -2 10 1009.25 1458.93 199.04 o
-3 -2 10 351.22 388.91 113.61 o
-2 -2 10 5.58 87.34 122.28 <
-1 -2 10 4977.84 5165.12 540.33 o
0 -2 10 251.61 288.37 152.93 <
1 -2 10 9982.73 16671.30 1853.60 o
2 -2 10 1873.77 1865.73 245.55 o
3 -2 10 4745.85 5209.88 597.75 o
4 -2 10 501.31 616.39 177.05 o
5 -2 10 2499.39 2935.96 427.89 o
6 -2 10 6246.28 4811.26 598.65 o
7 -2 10 11571.60 13068.40 1475.07 o
8 -2 10 27.90 473.84 120.10 o
9 -2 10 2798.39 3235.39 815.98 o
-6 -1 10 138.34 148.51 120.12 <
-5 -1 10 5258.09 6385.87 715.90 o
-4 -1 10 12778.90 15461.10 1737.00 o
-3 -1 10 672.95 872.32 139.92 o
-2 -1 10 2157.92 2690.73 315.78 o
-1 -1 10 5072.61 5530.88 629.01 o
0 -1 10 853.87 1616.68 227.52 o
1 -1 10 5375.74 11415.10 1288.73 o
2 -1 10 7493.78 8105.99 913.01 o
3 -1 10 120.88 242.43 159.44 <
4 -1 10 39.62 -45.86 137.57 <
5 -1 10 1477.83 2082.88 306.63 o
6 -1 10 100.40 1347.48 229.31 o
7 -1 10 1149.25 4201.12 592.97 o
8 -1 10 1225.60 1096.25 194.74 o
9 -1 10 498.28 358.39 133.30 <
-6 0 10 72.80 82.98 128.84 <
-5 0 10 2005.70 2028.84 251.96 o
-4 0 10 12219.50 14447.60 1604.54 o
-3 0 10 126.34 216.22 122.31 <
-2 0 10 4635.20 5063.94 566.58 o
-1 0 10 6099.76 6723.73 765.77 o
0 0 10 372.25 673.11 159.54 o
1 0 10 5056.74 5574.70 645.45 o
2 0 10 43572.80 42059.10 5543.76 o
3 0 10 624.93 1089.02 216.49 o
4 0 10 1748.75 1574.07 238.96 o
5 0 10 6803.69 7087.98 954.96 o
6 0 10 5833.31 7257.21 806.36 o
7 0 10 2621.62 8590.49 945.72 o
8 0 10 28671.50 30386.80 4120.20 o
9 0 10 1103.20 1113.45 216.57 o
10 0 10 109.49 104.83 159.42 <
-6 1 10 259.59 196.60 139.80 <
-5 1 10 32.90 74.24 126.65 <
-4 1 10 13393.60 15462.10 1742.87 o
-3 1 10 2815.44 3695.42 417.19 o
-2 1 10 2232.30 2446.32 285.22 o
-1 1 10 9977.01 14186.20 1563.83 o
0 1 10 2841.45 3927.05 455.15 o
1 1 10 8.98 170.32 148.48 <
2 1 10 34379.20 28507.70 3738.75 o
3 1 10 7945.52 7265.35 968.86 o
4 1 10 2619.07 2414.77 333.98 o
5 1 10 9261.79 10012.20 1319.51 o
6 1 10 3991.28 6063.23 662.68 o
7 1 10 377.00 705.78 157.33 o
8 1 10 5032.03 5454.96 727.03 o
9 1 10 557.93 360.62 159.55 <
10 1 10 86.43 54.60 187.81 <
-6 2 10 463.50 506.96 135.48 o
-5 2 10 5.87 58.96 152.85 <
-4 2 10 1140.10 1369.79 201.31 o
-3 2 10 1368.78 1804.20 249.61 o
-2 2 10 128.75 310.14 131.05 <
-1 2 10 1969.62 4727.57 513.34 o
0 2 10 1044.12 1265.41 218.93 o
1 2 10 333.22 426.16 142.05 <
2 2 10 30814.00 23860.80 3121.42 o
3 2 10 16098.70 14278.40 1854.19 o
4 2 10 3286.75 2958.49 387.42 o
5 2 10 27055.80 39050.10 5044.19 o
6 2 10 94.30 458.63 137.59 o
7 2 10 2532.05 3234.37 362.06 o
8 2 10 44100.20 54770.30 5922.00 o
9 2 10 10319.80 10668.80 1168.63 o
10 2 10 3865.34 3159.68 441.65 o
-6 3 10 695.80 727.95 163.95 o
-5 3 10 940.43 1100.11 177.16 o
-4 3 10 12.42 137.56 137.56 <
-3 3 10 2809.05 3384.14 404.08 o
-2 3 10 1508.57 22769.60 3082.54 o
-1 3 10 12306.60 12162.30 1486.28 o
0 3 10 322.49 159.53 135.49 <
1 3 10 2548.97 1958.85 268.21 o
2 3 10 252.75 301.53 135.47 <
3 3 10 592.45 537.98 124.65 o
4 3 10 2763.35 3357.32 461.71 o
5 3 10 6832.87 17136.00 1807.87 o
6 3 10 1436.22 1528.77 227.78 o
7 3 10 50.35 69.88 159.41 <
8 3 10 134.80 113.57 133.23 <
9 3 10 649.49 885.30 190.18 o
10 3 10 493.47 467.65 150.78 o
-6 4 10 1635.01 1821.62 286.82 o
-5 4 10 6810.25 6527.12 786.61 o
-4 4 10 701.33 756.49 174.91 o
-3 4 10 11048.70 11599.60 1299.51 o
-2 4 10 24783.30 47305.00 6407.32 o
-1 4 10 94.14 1231.77 222.77 o
0 4 10 4030.80 3130.63 419.18 o
1 4 10 5589.89 4106.78 534.13 o
2 4 10 1500.58 1168.53 197.31 o
3 4 10 8561.86 8150.00 1027.12 o
4 4 10 31458.20 88098.10 11047.90 o
5 4 10 319.85 1350.40 176.99 o
6 4 10 115.18 248.98 120.12 <
7 4 10 842.21 990.76 179.34 o
8 4 10 30.56 30.57 131.02 <
9 4 10 4770.66 4679.85 620.75 o
10 4 10 8138.24 5984.79 659.32 o
-6 5 10 7928.45 6689.68 811.88 o
-5 5 10 8288.91 7615.41 903.75 o
-4 5 10 104.12 272.99 139.77 <
-3 5 10 247.24 463.13 148.55 o
-2 5 10 19675.90 20701.70 2804.12 o
-1 5 10 3778.83 3057.96 420.80 o
0 5 10 11314.60 10165.70 1331.92 o
1 5 10 13169.30 12188.20 1547.52 o
2 5 10 9521.28 7474.77 937.98 o
3 5 10 108.91 303.59 128.86 <
4 5 10 24035.70 36089.60 3829.08 o
5 5 10 869.04 1212.06 161.90 o
6 5 10 7141.47 6881.74 740.26 o
7 5 10 397.56 319.04 115.82 <
8 5 10 3150.48 3256.50 366.71 o
9 5 10 141.43 257.71 128.86 <
10 5 10 78.40 6066.53 670.42 o
-6 6 10 94.39 155.05 133.21 <
-5 6 10 2526.16 1833.38 241.24 o
-4 6 10 8.94 253.29 148.48 <
-3 6 10 2457.37 3613.79 425.67 o
-2 6 10 20482.40 16750.80 2233.75 o
-1 6 10 3548.46 2758.35 376.44 o
0 6 10 896.03 870.94 142.24 o
1 6 10 29169.50 24650.90 3088.10 o
2 6 10 2091.90 2190.77 245.86 o
3 6 10 7047.51 8445.44 855.43 o
4 6 10 66170.40 82417.60 5921.06 o
5 6 10 12382.50 13357.90 1413.42 o
6 6 10 5663.20 6286.65 675.94 o
7 6 10 32219.80 33637.10 3641.70 o
8 6 10 278.25 524.30 150.74 o
9 6 10 4217.83 3918.59 532.15 o
10 6 10 23703.50 25096.50 3178.14 o
-6 7 10 0.94 24.02 144.11 <
-5 7 10 11380.20 9731.17 1150.74 o
-4 7 10 1088.31 1142.03 196.90 o
-3 7 10 296.98 935.07 220.66 o
-2 7 10 762.55 758.87 159.65 o
-1 7 10 473.26 463.39 137.71 o
0 7 10 8461.50 7336.86 930.75 o
1 7 10 19676.90 21511.60 2147.50 o
2 7 10 997.47 1954.58 240.77 o
3 7 10 924.65 5151.25 413.59 o
4 7 10 2323.98 2478.20 212.92 o
5 7 10 313.61 478.51 109.25 o
6 7 10 6975.14 6902.77 737.21 o
7 7 10 852.12 835.42 120.28 o
8 7 10 1707.45 1484.83 188.34 o
9 7 10 183.49 329.81 126.68 <
10 7 10 2145.09 1446.11 159.95 o
-6 8 10 66.88 135.39 189.99 <
-5 8 10 2088.28 2057.50 293.62 o
-4 8 10 1763.19 2786.05 350.45 o
-3 8 10 1028.41 956.03 210.02 o
-2 8 10 23531.20 22978.10 3819.02 o
-1 8 10 10962.40 10254.10 1338.16 o
0 8 10 124.77 161.62 172.54 <
1 8 10 22900.20 24984.00 2046.58 o
2 8 10 8154.50 15820.50 1287.80 o
3 8 10 298.09 9834.49 797.51 o
4 8 10 43733.90 48765.20 4026.55 o
5 8 10 8394.38 8312.90 668.50 o
6 8 10 190.21 166.01 85.19 <
7 8 10 19571.90 17355.00 1844.44 o
8 8 10 6157.84 10408.00 1081.18 o
9 8 10 317.89 257.79 157.29 <
-5 9 10 830.15 1449.65 225.21 o
-4 9 10 6222.79 7726.21 1140.95 o
-3 9 10 1108.49 1089.56 266.92 o
-2 9 10 149.21 268.65 152.89 <
-1 9 10 61.30 48.04 128.84 <
0 9 10 4712.66 5104.44 412.32 o
1 9 10 944.83 1509.65 168.47 o
2 9 10 18465.90 21421.20 1752.19 o
3 9 10 1349.74 1572.21 159.85 o
4 9 10 6194.27 6358.99 506.33 o
5 9 10 66.05 150.68 87.35 <
6 9 10 6071.07 5981.35 423.93 o
7 9 10 343.92 703.51 111.43 o
8 9 10 4462.07 4364.48 448.77 o
9 9 10 4.23 216.17 141.93 <
-5 10 10 248.70 1531.25 227.18 o
-4 10 10 40.05 24.02 185.61 <
-3 10 10 5152.46 4507.62 493.50 o
-2 10 10 2404.31 2394.84 278.52 o
-1 10 10 729.53 835.25 172.74 o
0 10 10 10180.80 11451.50 928.68 o
1 10 10 2.74 10153.30 818.82 o
2 10 10 268.38 4105.00 338.62 o
3 10 10 14432.10 16362.60 1333.98 o
4 10 10 141.94 231.51 96.10 <
5 10 10 5256.38 5888.90 467.41 o
6 10 10 8566.87 8649.36 693.81 o
7 10 10 3287.77 19515.60 1409.66 o
8 10 10 5213.93 3757.01 394.20 o
-4 11 10 890.50 776.28 185.87 o
-3 11 10 5836.74 5098.08 573.31 o
-2 11 10 127.07 229.32 148.51 <
-1 11 10 219.77 360.42 194.41 <
0 11 10 165.93 744.80 179.10 o
1 11 10 4.63 13.10 122.28 <
2 11 10 6760.77 9194.70 743.01 o
3 11 10 700.36 658.09 107.13 o
4 11 10 3985.57 4554.90 321.11 o
5 11 10 11.22 30.57 91.71 <
6 11 10 7770.69 9310.23 679.24 o
7 11 10 234.98 2664.91 209.70 o
8 11 10 2388.28 3706.61 383.59 o
-4 12 10 4434.19 2759.96 316.68 o
-3 12 10 21362.20 16079.20 2140.13 o
-2 12 10 7651.12 7097.20 599.36 o
-1 12 10 283.09 533.03 159.47 o
0 12 10 57040.50 81280.00 6735.14 o
1 12 10 6493.78 7388.25 596.36 o
2 12 10 9768.87 11736.20 946.36 o
3 12 10 36076.60 39049.00 3217.71 o
4 12 10 12541.90 12730.20 1028.50 o
5 12 10 138.03 2083.55 231.51 o
6 12 10 29220.20 32316.20 2320.56 o
7 12 10 3230.97 6646.41 535.58 o
-3 13 10 1570.40 647.96 161.99 o
-2 13 10 1960.51 1290.22 157.72 o
-1 13 10 1.37 353.73 146.29 <
0 13 10 84.85 244.59 152.87 <
1 13 10 240.73 382.27 144.17 <
2 13 10 1726.69 1839.54 175.19 o
3 13 10 2.86 58.95 102.62 <
4 13 10 4298.09 5737.75 479.43 o
5 13 10 174.65 648.68 141.97 o
6 13 10 3142.69 3458.78 278.72 o
-1 14 10 803.50 5603.62 817.70 o
0 14 10 436.72 1033.53 187.91 o
1 14 10 2221.99 2408.45 225.72 o
2 14 10 42.70 89.53 141.94 <
3 14 10 12313.80 14002.10 1140.48 o
4 14 10 2883.67 3031.79 256.67 o
5 14 10 3128.20 2973.61 250.18 o
2 15 10 164.67 292.67 192.20 <
0 -7 11 77.98 65.51 144.13 <
1 -7 11 3326.73 3108.51 399.54 o
2 -7 11 5.37 120.09 126.64 <
3 -7 11 1049.08 485.56 166.23 <
4 -7 11 3141.39 3245.78 614.48 o
-1 -6 11 162.12 231.51 141.96 <
0 -6 11 466.13 528.81 137.67 o
1 -6 11 753.72 791.41 170.53 o
2 -6 11 1546.85 1633.08 225.48 o
3 -6 11 73.42 336.30 137.58 <
4 -6 11 4470.19 4678.47 860.03 o
5 -6 11 103.80 159.42 144.13 <
6 -6 11 432.66 478.52 329.94 <
-3 -5 11 623.68 609.81 133.33 o
-2 -5 11 1153.15 1695.42 227.51 o
-1 -5 11 1423.87 1794.73 240.76 o
0 -5 11 1399.17 2098.95 267.02 o
1 -5 11 22.91 48.04 144.12 <
2 -5 11 166.33 207.49 148.52 <
3 -5 11 9.31 2633.34 353.73 o
4 -5 11 847.03 769.70 179.30 o
5 -5 11 1062.59 885.89 179.37 o
6 -5 11 1763.12 1151.85 208.03 o
7 -5 11 242.33 78.64 150.72 <
-3 -4 11 617.98 778.11 142.07 o
-2 -4 11 17.83 135.38 131.01 <
-1 -4 11 3057.37 3549.33 414.86 o
0 -4 11 852.12 861.59 155.26 o
1 -4 11 524.55 517.97 146.43 o
2 -4 11 63.23 268.60 146.31 <
3 -4 11 5913.98 5993.10 677.42 o
4 -4 11 142.71 253.35 150.70 <
5 -4 11 2225.28 1584.73 225.76 o
6 -4 11 1552.75 1324.47 201.41 o
7 -4 11 87.20 91.72 163.79 <
-4 -3 11 1261.46 1420.01 199.11 o
-3 -3 11 6177.43 9422.32 1047.90 o
-2 -3 11 353.29 509.07 117.98 o
-1 -3 11 6547.51 8911.53 1000.72 o
0 -3 11 21358.60 27984.90 3120.02 o
1 -3 11 1837.65 2559.14 322.08 o
2 -3 11 2432.60 3055.62 375.10 o
3 -3 11 9434.03 12064.10 1362.18 o
4 -3 11 65.47 74.25 152.86 <
5 -3 11 4225.55 3852.23 477.40 o
6 -3 11 9747.20 8044.11 934.74 o
7 -3 11 1461.72 1219.19 232.02 o
8 -3 11 252.77 122.33 107.04 <
-5 -2 11 7.29 -13.10 126.64 <
-4 -2 11 27.86 58.96 128.83 <
-3 -2 11 43.67 65.51 111.37 <
-2 -2 11 30.83 135.38 115.73 <
-1 -2 11 156.57 216.23 135.42 <
0 -2 11 15144.60 18711.60 2067.58 o
1 -2 11 58.61 126.66 146.31 <
2 -2 11 2871.61 3504.86 410.66 o
3 -2 11 4614.54 5345.57 601.54 o
4 -2 11 630.34 813.25 174.89 o
5 -2 11 6431.02 5902.09 841.89 o
6 -2 11 26311.40 31595.20 4274.25 o
7 -2 11 513.34 644.70 135.50 o
8 -2 11 2883.45 1689.33 210.62 o
9 -2 11 4584.00 4617.14 1143.84 o
-5 -1 11 777.65 889.81 155.23 o
-4 -1 11 600.36 961.72 168.30 o
-3 -1 11 2192.77 2788.18 324.41 o
-2 -1 11 1640.29 1962.38 247.49 o
-1 -1 11 1596.54 2190.31 271.60 o
0 -1 11 9435.04 23573.20 5685.79 o
1 -1 11 342.89 4396.34 524.41 o
2 -1 11 3234.70 3737.27 428.69 o
3 -1 11 1607.35 1938.88 247.56 o
4 -1 11 613.28 579.35 179.27 o
5 -1 11 2878.73 2962.05 417.19 o
6 -1 11 7299.30 9093.21 1230.43 o
7 -1 11 1519.49 2068.93 264.91 o
8 -1 11 151.83 133.23 111.39 <
9 -1 11 1981.86 1193.86 197.15 o
-5 0 11 2976.46 3497.62 399.35 o
-4 0 11 759.80 867.98 150.86 o
-3 0 11 2377.33 3370.52 388.15 o
-2 0 11 121.42 63.34 126.67 <
-1 0 11 328.45 648.93 146.39 o
0 0 11 2866.80 7636.19 826.01 o
1 0 11 8821.97 9628.67 1048.34 o
2 0 11 875.59 945.10 214.40 o
3 0 11 1386.26 1379.78 229.96 o
4 0 11 2139.44 2162.71 329.01 o
5 0 11 3539.11 4162.97 734.51 o
6 0 11 6929.88 37907.60 5044.32 o
7 0 11 7958.12 9012.17 1032.11 o
8 0 11 95.98 -6.55 128.85 <
9 0 11 1853.72 1763.09 286.91 o
-6 1 11 85.56 13.10 141.95 <
-5 1 11 2822.18 3740.40 429.98 o
-4 1 11 12531.30 16127.40 1758.21 o
-3 1 11 90.34 144.13 135.40 <
-2 1 11 1805.76 2289.91 269.53 o
-1 1 11 8138.90 10784.60 1179.29 o
0 1 11 1385.69 2010.61 260.63 o
1 1 11 11265.30 12722.10 1677.61 o
2 1 11 16098.20 16317.90 2174.21 o
3 1 11 41.68 257.68 135.39 <
4 1 11 564.69 765.18 168.34 o
5 1 11 1569.91 1936.55 282.60 o
6 1 11 57.15 4922.15 545.93 o
7 1 11 2313.04 2712.51 309.19 o
8 1 11 699.89 780.46 159.59 o
9 1 11 43.57 133.20 163.77 <
10 1 11 46.68 80.80 161.59 <
-6 2 11 72.38 146.31 126.66 <
-5 2 11 221.62 321.09 137.61 <
-4 2 11 5944.82 6630.47 745.79 o
-3 2 11 226.19 404.12 144.17 <
-2 2 11 320.02 493.79 142.02 o
-1 2 11 4019.99 16276.20 1777.39 o
0 2 11 2.73 -128.83 157.21 <
1 2 11 5363.56 5311.28 716.43 o
2 2 11 44796.10 37534.90 5038.64 o
3 2 11 219.21 314.59 135.45 <
4 2 11 2851.72 2905.26 397.77 o
5 2 11 6063.89 6631.22 878.12 o
6 2 11 731.30 811.27 150.88 o
7 2 11 12086.40 13196.00 1444.64 o
8 2 11 19169.70 20992.50 2304.17 o
9 2 11 2333.34 2542.75 469.09 o
10 2 11 861.26 590.37 185.86 o
-6 3 11 105.19 170.34 135.40 <
-5 3 11 1115.01 1391.32 223.14 o
-4 3 11 10566.40 14833.70 1670.68 o
-3 3 11 242.99 220.63 157.29 <
-2 3 11 14682.70 21024.30 2278.31 o
-1 3 11 7158.94 10115.30 1301.84 o
0 3 11 603.32 529.15 153.06 o
1 3 11 636.23 730.41 150.89 o
2 3 11 16622.50 13876.70 1824.33 o
3 3 11 43.41 43.67 113.55 <
4 3 11 8423.02 8367.13 1081.78 o
5 3 11 283.74 5451.19 734.11 o
6 3 11 32.30 91.71 104.82 <
7 3 11 4.35 72.06 146.29 <
8 3 11 3250.59 3658.64 412.86 o
9 3 11 28.65 -2.18 168.14 <
10 3 11 428.74 115.81 150.77 <
-6 4 11 62.04 50.23 135.39 <
-5 4 11 1314.29 1358.97 214.46 o
-4 4 11 13199.60 16133.80 1828.15 o
-3 4 11 1874.51 2603.30 330.89 o
-2 4 11 667.31 5881.67 629.71 o
-1 4 11 20894.40 20959.90 2639.98 o
0 4 11 120.33 100.47 124.49 <
1 4 11 4557.69 3450.43 461.38 o
2 4 11 43555.50 41224.10 5391.24 o
3 4 11 9580.87 8426.10 1076.72 o
4 4 11 1335.88 2142.06 295.68 o
5 4 11 20646.40 35981.60 3967.54 o
6 4 11 968.99 982.32 155.33 o
7 4 11 31.75 100.45 135.38 <
8 4 11 33318.40 37698.40 4077.00 o
9 4 11 11509.60 11571.00 1244.12 o
10 4 11 168.50 666.15 192.20 o
-6 5 11 288.82 222.82 139.81 <
-5 5 11 11.67 -43.67 146.30 <
-4 5 11 169.62 205.31 150.71 <
-3 5 11 3576.21 4315.37 503.42 o
-2 5 11 917.07 2373.53 385.02 o
-1 5 11 16594.60 14443.30 1918.53 o
0 5 11 1068.71 1227.96 186.05 o
1 5 11 2223.96 1802.18 250.24 o
2 5 11 42.43 50.23 115.74 <
3 5 11 15395.20 17987.30 2362.99 o
4 5 11 27.50 22030.70 3616.10 o
5 5 11 16420.30 18415.80 1962.30 o
6 5 11 2048.76 2137.70 245.56 o
7 5 11 821.21 588.27 129.02 o
8 5 11 1.61 -2.18 139.74 <
9 5 11 1841.66 2558.20 313.20 o
10 5 11 749.24 1261.41 220.80 o
-6 6 11 395.36 216.30 139.83 <
-5 6 11 788.63 828.64 172.73 o
-4 6 11 348.49 351.76 155.12 <
-3 6 11 104.65 760.01 187.82 o
-2 6 11 3682.83 3167.47 450.92 o
-1 6 11 39.87 50.22 126.65 <
0 6 11 204.84 452.19 126.70 o
1 6 11 1780.40 1344.04 201.71 o
2 6 11 8160.80 7159.18 910.20 o
3 6 11 6848.83 6477.03 811.85 o
4 6 11 3377.26 6916.68 754.59 o
5 6 11 18575.20 20420.80 1669.97 o
6 6 11 2355.36 2127.88 241.31 o
7 6 11 233.21 157.28 107.04 <
8 6 11 19378.60 20204.60 2171.22 o
9 6 11 9944.13 15390.50 1658.02 o
10 6 11 87.36 1513.38 224.93 o
-6 7 11 3354.33 2300.72 318.33 o
-5 7 11 4023.51 3400.48 419.84 o
-4 7 11 50.16 1340.78 218.37 o
-3 7 11 35.51 2985.03 456.38 o
-2 7 11 6609.49 6077.79 824.97 o
-1 7 11 688.88 623.19 135.57 o
0 7 11 13814.70 11580.20 1459.62 o
1 7 11 276.40 329.91 128.91 <
2 7 11 1120.08 1317.80 192.63 o
3 7 11 3528.79 6067.34 490.76 o
4 7 11 15.94 4.37 128.83 <
5 7 11 4285.86 4017.68 414.10 o
6 7 11 4064.13 4038.16 418.12 o
7 7 11 1483.83 1326.77 170.77 o
8 7 11 1310.21 1700.41 225.41 o
9 7 11 1031.74 4402.87 479.00 o
-5 8 11 10244.30 8361.43 865.90 o
-4 8 11 1203.26 1212.15 194.73 o
-3 8 11 8941.21 8430.38 1140.32 o
-2 8 11 34452.50 32902.20 4401.38 o
-1 8 11 150.75 111.39 141.97 <
0 8 11 4197.88 3607.86 466.95 o
1 8 11 38217.10 42554.60 4290.41 o
2 8 11 1375.84 20176.30 2019.17 o
3 8 11 4783.32 4949.73 399.24 o
4 8 11 34564.00 39954.10 3290.34 o
5 8 11 2334.19 2502.86 212.78 o
6 8 11 689.92 701.81 113.69 o
7 8 11 14105.50 12528.30 1331.61 o
8 8 11 1072.20 2977.14 336.87 o
9 8 11 161.76 345.08 148.52 <
-5 9 11 9310.42 10577.40 1418.60 o
-4 9 11 378.77 332.10 172.61 <
-3 9 11 525.24 483.00 181.40 <
-2 9 11 763.93 763.11 225.21 o
-1 9 11 5200.93 4165.69 518.23 o
0 9 11 191.04 242.46 133.24 <
1 9 11 21830.70 25275.00 2070.34 o
2 9 11 3143.10 11772.30 839.47 o
3 9 11 1090.23 1225.46 140.05 o
4 9 11 359.87 386.75 120.18 o
5 9 11 6849.31 7219.36 581.71 o
6 9 11 2375.37 2245.52 175.43 o
7 9 11 5580.81 4320.97 447.53 o
8 9 11 337.39 867.34 163.85 o
9 9 11 1180.26 1043.52 188.14 o
-5 10 11 1084.20 1493.94 253.73 o
-4 10 11 65.02 2.18 131.02 <
-3 10 11 102.58 161.61 128.85 <
-2 10 11 11319.10 9759.14 1064.55 o
-1 10 11 342.91 454.45 166.05 <
0 10 11 1666.64 2041.44 203.71 o
1 10 11 16548.80 32219.60 2644.98 o
2 10 11 5472.93 5933.70 476.64 o
3 10 11 11.93 6.55 126.65 <
4 10 11 37671.80 44035.60 3161.42 o
5 10 11 7129.91 7694.71 617.08 o
6 10 11 2477.59 2574.55 206.14 o
7 10 11 32184.10 38044.00 2742.74 o
8 10 11 8415.26 11831.50 1151.05 o
-4 11 11 3522.92 2354.12 272.30 o
-3 11 11 366.96 207.56 198.82 <
-2 11 11 976.04 1003.90 188.10 o
-1 11 11 40.24 0.00 194.35 <
0 11 11 66.02 224.93 183.44 <
1 11 11 4252.94 8366.32 677.76 o
2 11 11 2450.32 3107.97 258.81 o
3 11 11 2109.66 2376.03 206.04 o
4 11 11 188.69 150.71 104.84 <
5 11 11 2773.70 2727.24 219.41 o
6 11 11 501.58 6623.81 552.90 o
7 11 11 341.40 1260.59 170.41 o
8 11 11 1.96 759.86 135.38 o
-3 12 11 6271.39 4680.74 520.57 o
-2 12 11 56.97 102.63 163.78 <
-1 12 11 10505.10 10687.30 882.27 o
0 12 11 4221.26 5876.87 497.07 o
1 12 11 11919.70 21178.90 1745.22 o
2 12 11 4863.98 5370.98 431.62 o
3 12 11 7178.86 7311.13 588.07 o
4 12 11 3056.27 3312.22 265.59 o
5 12 11 7869.31 8805.54 721.26 o
6 12 11 467.04 2390.59 238.18 o
7 12 11 7542.90 19593.40 1606.81 o
-2 13 11 1.71 58.95 183.41 <
-1 13 11 296.16 965.58 192.24 o
0 13 11 209.29 1068.10 190.03 o
1 13 11 599.06 509.27 157.37 o
2 13 11 2254.75 2086.60 192.88 o
3 13 11 4701.25 5147.52 420.34 o
4 13 11 902.86 857.22 192.44 o
5 13 11 4.48 379.93 176.86 <
6 13 11 498.55 1962.37 187.93 o
-1 14 11 471.11 834.73 172.63 o
0 14 11 12009.50 11860.50 972.79 o
1 14 11 743.95 819.81 172.71 o
2 14 11 1366.18 1280.21 166.32 o
3 14 11 8488.93 9446.01 768.17 o
4 14 11 5383.83 6623.19 550.65 o
1 -6 12 1162.07 1131.00 196.88 o
2 -6 12 25.08 89.53 148.48 <
3 -6 12 2326.40 1788.46 249.86 o
4 -6 12 271.88 172.57 150.73 <
-1 -5 12 23.54 100.44 128.83 <
0 -5 12 1124.75 1548.77 205.63 o
1 -5 12 2768.66 3904.44 465.02 o
2 -5 12 759.10 520.33 153.04 o
3 -5 12 2225.03 4632.95 598.29 o
4 -5 12 5678.91 5558.26 797.82 o
5 -5 12 1068.52 619.01 157.49 o
6 -5 12 1062.69 590.56 170.61 o
-2 -4 12 1007.24 1356.00 188.09 o
-1 -4 12 5.44 34.94 135.38 <
0 -4 12 47.54 39.31 126.65 <
1 -4 12 25.26 93.89 139.75 <
2 -4 12 887.59 1839.12 258.05 o
3 -4 12 348.47 384.52 131.09 <
4 -4 12 4083.08 3526.54 441.92 o
5 -4 12 110.25 65.52 144.14 <
6 -4 12 17.13 106.99 159.40 <
7 -4 12 742.97 413.18 163.96 <
-3 -3 12 1073.42 1583.62 203.42 o
-2 -3 12 1962.06 2924.50 343.93 o
-1 -3 12 2696.24 4858.68 548.38 o
0 -3 12 2717.76 3211.77 372.95 o
1 -3 12 1252.07 1772.55 240.72 o
2 -3 12 428.30 919.95 190.11 o
3 -3 12 34.09 139.75 146.30 <
4 -3 12 4480.23 4275.82 510.55 o
5 -3 12 1040.94 1028.08 183.74 o
6 -3 12 156.54 222.77 141.96 <
7 -3 12 910.61 780.67 205.56 o
-4 -2 12 1.20 48.04 111.36 <
-3 -2 12 488.00 670.88 137.67 o
-2 -2 12 19.61 58.96 124.46 <
-1 -2 12 2032.65 3308.88 383.48 o
0 -2 12 512.47 716.85 146.43 o
1 -2 12 2060.93 5415.93 607.13 o
2 -2 12 306.31 343.00 152.93 <
3 -2 12 1697.18 2372.16 286.94 o
4 -2 12 2481.43 3162.83 379.45 o
5 -2 12 8467.00 8625.71 1003.97 o
6 -2 12 15.08 104.81 128.83 <
7 -2 12 2992.55 2402.89 326.97 o
8 -2 12 111.98 87.36 159.42 <
-4 -1 12 1440.31 2348.43 284.52 o
-3 -1 12 2727.81 4049.31 447.49 o
-2 -1 12 457.60 618.42 137.67 o
-1 -1 12 5025.87 7853.11 850.53 o
0 -1 12 8075.44 15868.70 3839.17 o
1 -1 12 397.31 469.81 155.15 o
2 -1 12 195.76 410.65 163.82 <
3 -1 12 2560.42 3012.78 346.70 o
4 -1 12 36.91 58.96 174.69 <
5 -1 12 2652.60 3027.92 436.64 o
6 -1 12 3462.20 4235.60 755.73 o
7 -1 12 314.82 4133.40 509.03 o
8 -1 12 133.09 124.49 148.51 <
9 -1 12 772.95 467.85 183.64 <
-5 0 12 62.30 21.84 128.84 <
-4 0 12 839.83 1058.29 172.74 o
-3 0 12 1034.15 1399.93 190.30 o
-2 0 12 0.65 78.61 120.09 <
-1 0 12 1494.28 2010.08 251.81 o
0 0 12 12117.50 37933.60 4072.29 o
1 0 12 5.17 19.65 157.21 <
2 0 12 1158.43 1157.78 190.41 o
3 0 12 2454.24 2244.77 329.14 o
4 0 12 2287.87 2893.01 418.93 o
5 0 12 1245.08 1418.26 262.64 o
6 0 12 22024.10 31052.80 4096.17 o
7 0 12 576.51 1154.04 198.90 o
8 0 12 32.93 120.10 148.49 <
9 0 12 2992.20 2303.84 311.57 o
-5 1 12 853.16 1198.22 185.85 o
-4 1 12 920.85 1460.83 203.38 o
-3 1 12 4576.91 7126.88 785.76 o
-2 1 12 227.69 380.09 139.80 <
-1 1 12 113.20 163.80 139.77 <
0 1 12 23359.20 36570.90 6254.80 o
1 1 12 5382.48 7023.45 781.61 o
2 1 12 3762.09 4505.02 616.22 o
3 1 12 13484.50 13548.20 1780.23 o
4 1 12 2129.34 2300.43 337.72 o
5 1 12 829.44 1130.70 216.52 o
6 1 12 14119.20 40102.60 5413.94 o
7 1 12 1050.04 958.16 172.82 o
8 1 12 885.48 610.11 177.13 o
9 1 12 685.00 548.67 163.95 o
-5 2 12 79.40 74.25 144.13 <
-4 2 12 227.37 307.99 126.69 <
-3 2 12 98.58 207.47 148.50 <
-2 2 12 400.87 583.43 148.59 o
-1 2 12 15.21 117.91 157.22 <
0 2 12 7631.67 8896.57 984.81 o
1 2 12 5133.05 6033.08 827.81 o
2 2 12 650.53 610.06 168.37 o
3 2 12 12917.60 10686.40 1418.27 o
4 2 12 81.92 74.25 133.22 <
5 2 12 2383.64 2996.91 423.43 o
6 2 12 30172.20 42066.00 4669.13 o
7 2 12 8526.17 8688.36 942.22 o
8 2 12 4995.64 5681.63 759.75 o
9 2 12 10585.60 8794.93 981.90 o
-5 3 12 1404.56 1869.01 247.30 o
-4 3 12 2335.50 2746.84 326.64 o
-3 3 12 5004.72 6875.95 757.88 o
-2 3 12 48.97 978.30 196.53 o
-1 3 12 536.47 1897.32 281.98 o
0 3 12 432.41 502.66 172.65 <
1 3 12 648.82 778.43 185.86 o
2 3 12 129.68 133.23 126.68 <
3 3 12 8190.03 7014.78 917.97 o
4 3 12 962.99 1023.97 185.98 o
5 3 12 72.44 515.38 161.60 o
6 3 12 85.84 165.97 131.03 <
7 3 12 1727.89 1925.33 286.94 o
8 3 12 830.45 924.94 161.81 o
9 3 12 2001.24 1526.94 210.31 o
-5 4 12 2820.91 3354.08 397.05 o
-4 4 12 5276.65 7078.94 804.17 o
-3 4 12 11.82 72.06 139.75 <
-2 4 12 1930.40 2572.89 300.24 o
-1 4 12 2867.09 3338.18 434.84 o
0 4 12 1174.59 1317.75 227.65 o
1 4 12 4930.68 4111.94 549.58 o
2 4 12 17022.80 14344.70 1878.63 o
3 4 12 15.20 -56.77 139.75 <
4 4 12 138.09 3328.63 458.67 o
5 4 12 857.86 2602.92 395.91 o
6 4 12 29.28 -50.22 115.73 <
7 4 12 3380.90 3925.98 432.80 o
8 4 12 11849.90 12083.00 1303.44 o
9 4 12 668.75 622.99 168.32 o
-5 5 12 157.27 139.78 174.73 <
-4 5 12 11280.80 14374.60 1606.82 o
-3 5 12 1295.88 4329.04 625.94 o
-2 5 12 7780.95 9007.44 963.90 o
-1 5 12 14331.30 14348.20 1884.79 o
0 5 12 3186.45 2754.37 360.51 o
1 5 12 160.07 139.79 120.13 <
2 5 12 26997.90 24436.90 3139.64 o
3 5 12 1833.91 1887.56 265.27 o
4 5 12 8882.85 9005.99 1141.32 o
5 5 12 3588.12 3890.83 422.29 o
6 5 12 3868.30 3831.99 406.96 o
7 5 12 9.22 89.52 133.20 <
8 5 12 3131.51 3082.19 344.66 o
9 5 12 84.61 120.11 135.40 <
-5 6 12 914.29 717.26 168.38 o
-4 6 12 4354.12 5334.18 626.90 o
-3 6 12 137.13 3822.05 438.99 o
-2 6 12 99.12 281.72 146.32 <
-1 6 12 7815.79 6778.69 893.62 o
0 6 12 748.93 638.58 135.59 o
1 6 12 5595.18 4691.31 601.05 o
2 6 12 37549.10 32031.90 3912.21 o
3 6 12 5765.79 12914.60 1651.35 o
4 6 12 3370.64 3711.79 384.81 o
5 6 12 31950.90 31932.00 3274.95 o
6 6 12 81.00 69.88 113.56 <
7 6 12 7901.48 7609.11 814.95 o
8 6 12 30685.30 31207.80 3344.76 o
9 6 12 1715.24 4469.12 490.49 o
-5 7 12 225.09 325.46 166.01 <
-4 7 12 1381.22 1411.64 231.99 o
-3 7 12 253.88 277.43 161.65 <
-2 7 12 3375.80 2977.14 410.87 o
-1 7 12 18572.90 16041.30 2090.27 o
0 7 12 9.57 41.49 106.99 <
1 7 12 1994.59 1602.80 217.07 o
2 7 12 180.10 524.24 176.93 <
3 7 12 676.49 5068.53 505.10 o
4 7 12 8379.86 9327.49 757.30 o
5 7 12 7280.66 7080.20 735.26 o
6 7 12 1453.51 1280.81 159.83 o
7 7 12 79.42 227.12 104.82 <
8 7 12 523.96 858.88 174.84 o
9 7 12 765.01 4444.62 483.16 o
-5 8 12 830.99 732.46 212.09 o
-4 8 12 6845.58 8356.49 954.02 o
-3 8 12 3927.60 3246.96 492.43 o
-2 8 12 152.14 183.46 135.41 <
-1 8 12 7037.38 5290.24 688.11 o
0 8 12 2034.31 1435.91 201.69 o
1 8 12 138.06 290.49 176.91 <
2 8 12 30255.60 35031.00 3527.21 o
3 8 12 4099.87 4482.47 328.04 o
4 8 12 0.52 -26.20 131.01 <
5 8 12 13654.10 15284.20 1245.50 o
6 8 12 4309.85 4731.36 378.51 o
7 8 12 40.89 45.86 89.53 <
8 8 12 14112.40 13431.50 1425.84 o
9 8 12 7580.00 7322.95 797.94 o
-4 9 12 38.59 61.14 176.87 <
-3 9 12 43.46 41.49 238.02 <
-2 9 12 2586.22 2178.11 265.41 o
-1 9 12 929.50 704.28 157.48 o
0 9 12 11326.30 12016.70 1197.65 o
1 9 12 2790.84 3277.60 283.20 o
2 9 12 1900.76 3134.00 265.18 o
3 9 12 367.40 607.45 135.47 o
4 9 12 7391.02 7654.28 615.53 o
5 9 12 2023.25 2770.22 232.31 o
6 9 12 11251.80 11564.40 937.53 o
7 9 12 85.60 231.48 104.82 <
8 9 12 1726.13 1583.17 205.83 o
-4 10 12 1205.79 608.20 179.40 o
-3 10 12 435.36 305.91 183.55 <
-2 10 12 5995.59 4275.17 562.52 o
-1 10 12 3.37 168.13 148.48 <
0 10 12 391.04 478.53 135.47 o
1 10 12 8943.74 9349.38 756.92 o
2 10 12 758.21 1145.78 155.25 o
3 10 12 5169.61 6117.40 493.80 o
4 10 12 9279.67 9980.84 808.24 o
5 10 12 2028.81 2213.29 195.03 o
6 10 12 2701.90 2878.09 230.34 o
7 10 12 6458.15 10326.70 843.09 o
8 10 12 2941.95 4462.53 388.33 o
-3 11 12 513.70 316.87 174.83 <
-2 11 12 1031.21 923.03 199.04 o
-1 11 12 4.25 -37.12 163.76 <
0 11 12 5143.12 12774.10 1053.12 o
1 11 12 3902.52 10083.10 817.90 o
2 11 12 1142.66 1220.89 150.97 o
3 11 12 161.72 196.57 120.13 <
4 11 12 3403.14 3608.93 294.34 o
5 11 12 135.25 -8.74 107.02 <
6 11 12 3668.12 7649.74 630.52 o
7 11 12 2.31 1316.65 196.51 o
-3 12 12 224.15 152.90 155.08 <
-2 12 12 28117.50 22746.00 1904.25 o
-1 12 12 2979.99 2593.73 258.93 o
0 12 12 8549.43 14329.40 1182.86 o
1 12 12 24921.30 32120.70 2649.41 o
2 12 12 8046.94 8474.05 686.25 o
3 12 12 492.02 625.01 107.08 o
4 12 12 37984.00 44354.20 3658.05 o
5 12 12 2974.22 3638.23 315.99 o
6 12 12 899.65 16065.90 1322.97 o
7 12 12 14639.60 15859.40 1300.76 o
-2 13 12 503.93 524.47 192.30 <
-1 13 12 854.65 791.53 183.67 o
0 13 12 227.59 205.33 172.56 <
1 13 12 1137.81 1192.26 190.32 o
2 13 12 6230.40 7253.82 591.25 o
3 13 12 408.37 301.53 131.10 <
4 13 12 257.40 301.45 137.62 <
5 13 12 1358.59 1509.96 205.70 o
6 13 12 846.96 1364.37 188.04 o
0 14 12 33.93 28.39 168.14 <
1 14 12 8734.06 7630.93 628.90 o
2 14 12 676.49 574.89 148.64 o
3 14 12 2193.89 1961.20 199.41 o
4 14 12 5037.94 5208.26 440.26 o
1 -5 13 265.70 259.95 159.46 <
2 -5 13 802.85 811.13 205.52 o
3 -5 13 858.02 620.98 166.18 o
4 -5 13 1209.19 824.79 175.02 o
-1 -4 13 282.94 478.40 131.07 o
0 -4 13 99.62 172.52 152.87 <
1 -4 13 1197.28 1437.39 218.78 o
2 -4 13 184.58 3549.27 417.17 o
3 -4 13 936.55 715.11 157.46 o
4 -4 13 426.15 332.12 135.47 <
5 -4 13 5.41 26.20 174.68 <
6 -4 13 63.28 85.17 179.07 <
-2 -3 13 8598.41 12577.20 1394.76 o
-1 -3 13 182.11 279.57 128.87 <
0 -3 13 1863.82 2783.87 335.11 o
1 -3 13 6072.53 10032.30 1124.99 o
2 -3 13 71.89 150.68 161.60 <
3 -3 13 5146.27 7041.54 803.93 o
4 -3 13 9539.70 9408.59 1089.28 o
5 -3 13 491.57 423.95 172.64 <
6 -3 13 655.70 487.44 163.94 <
7 -3 13 1172.69 682.54 170.64 o
-3 -2 13 2.93 61.14 115.73 <
-2 -2 13 2344.28 3105.96 363.86 o
-1 -2 13 42.14 74.24 120.10 <
0 -2 13 840.70 1178.60 181.49 o
1 -2 13 514.03 2858.57 336.56 o
2 -2 13 46.40 34.94 157.23 <
3 -2 13 1868.45 2712.01 328.60 o
4 -2 13 11589.70 14162.90 1585.78 o
5 -2 13 595.32 577.03 155.19 o
6 -2 13 2267.81 1884.92 280.55 o
7 -2 13 2202.95 1470.41 212.56 o
-3 -1 13 229.29 362.60 131.06 <
-2 -1 13 3781.83 6581.03 727.32 o
-1 -1 13 279.29 264.33 126.70 <
0 -1 13 1763.10 2505.70 319.78 o
1 -1 13 1023.43 2701.59 360.94 o
2 -1 13 435.66 712.38 174.82 o
3 -1 13 1813.82 2341.83 295.74 o
4 -1 13 8291.38 11205.40 1243.08 o
5 -1 13 946.06 1286.02 299.64 o
6 -1 13 542.59 620.69 185.77 o
7 -1 13 2538.79 2561.08 302.59 o
8 -1 13 185.27 100.47 150.71 <
-4 0 13 7.23 -6.55 124.46 <
-3 0 13 33.07 54.59 126.65 <
-2 0 13 581.23 922.35 144.25 o
-1 0 13 2554.07 3581.73 405.77 o
0 0 13 605.24 1652.54 225.15 o
1 0 13 445.59 583.48 163.90 o
2 0 13 1045.42 1465.82 218.78 o
3 0 13 1417.84 1694.52 225.50 o
4 0 13 2505.85 2669.61 381.69 o
5 0 13 4509.95 4765.63 658.16 o
6 0 13 315.77 1579.54 351.74 o
7 0 13 770.18 2251.93 332.32 o
8 0 13 36.13 39.31 159.40 <
-4 1 13 1444.14 1987.29 251.70 o
-3 1 13 3770.46 6229.41 685.56 o
-2 1 13 372.00 528.75 146.39 o
-1 1 13 6276.41 9309.95 1009.17 o
0 1 13 11878.80 21517.50 5200.27 o
1 1 13 141.64 373.48 146.33 <
2 1 13 623.60 1001.25 225.17 o
3 1 13 2816.56 3106.48 623.49 o
4 1 13 35.04 157.22 148.49 <
5 1 13 5409.02 7030.46 1223.94 o
6 1 13 2158.47 2623.70 387.96 o
7 1 13 453.92 544.11 148.59 o
8 1 13 53.53 109.18 148.49 <
9 1 13 8.83 82.97 157.21 <
-4 2 13 7.50 26.20 146.30 <
-3 2 13 551.76 721.23 161.73 o
-2 2 13 127.27 163.80 155.06 <
-1 2 13 1480.99 5703.54 621.81 o
0 2 13 12611.90 17919.80 2005.74 o
1 2 13 2.84 528.41 183.41 <
2 2 13 1542.87 2120.12 330.72 o
3 2 13 3049.53 2965.56 426.16 o
4 2 13 996.54 877.28 188.15 o
5 2 13 9029.28 9404.33 1287.96 o
6 2 13 16071.10 20471.10 3500.60 o
7 2 13 1699.63 1894.31 247.46 o
8 2 13 1114.56 1004.10 179.38 o
9 2 13 738.83 579.32 146.47 o
-4 3 13 5983.28 8370.43 908.49 o
-3 3 13 5133.44 7180.74 775.34 o
-2 3 13 488.40 725.55 168.28 o
-1 3 13 1201.11 2440.07 312.94 o
0 3 13 14875.00 18738.00 2498.10 o
1 3 13 18.51 34.94 155.03 <
2 3 13 10035.00 10595.80 1434.76 o
3 3 13 1217.24 1475.30 236.40 o
4 3 13 13.83 131.01 159.40 <
5 3 13 141.11 318.88 148.52 <
6 3 13 10216.70 11504.30 1247.86 o
7 3 13 425.95 526.62 142.03 o
8 3 13 1421.15 1300.10 188.23 o
9 3 13 595.85 515.81 150.81 o
-5 4 13 241.29 249.02 150.72 <
-4 4 13 51.93 157.23 146.31 <
-3 4 13 3280.81 3948.08 441.36 o
-2 4 13 102.61 244.60 155.06 <
-1 4 13 2367.93 3037.63 355.30 o
0 4 13 14553.90 16721.10 2146.85 o
1 4 13 2250.17 1923.63 293.92 o
2 4 13 390.73 290.64 128.93 <
3 4 13 9121.08 8300.20 1105.36 o
4 4 13 64.85 2417.44 358.14 o
5 4 13 180.18 342.93 150.71 <
6 4 13 25590.20 26384.80 2871.19 o
7 4 13 8035.45 8144.45 859.17 o
8 4 13 93.54 185.63 124.48 <
9 4 13 6675.47 4904.65 662.19 o
-5 5 13 963.34 695.43 161.83 o
-4 5 13 484.25 703.65 163.89 o
-3 5 13 6238.19 8072.85 873.93 o
-2 5 13 549.70 754.05 157.37 o
-1 5 13 454.08 439.26 179.20 <
0 5 13 376.03 487.28 152.96 o
1 5 13 10762.80 9382.94 1171.19 o
2 5 13 28.09 30.57 135.38 <
3 5 13 21257.40 20458.40 2651.25 o
4 5 13 1825.24 3659.72 486.50 o
5 5 13 51.45 -2.18 115.74 <
6 5 13 941.44 1019.28 155.30 o
7 5 13 4799.57 5079.87 552.69 o
8 5 13 827.23 865.87 159.62 o
9 5 13 2690.37 2101.00 260.98 o
-4 6 13 876.06 575.09 150.88 o
-3 6 13 82.45 6616.93 705.37 o
-2 6 13 389.34 399.86 176.99 <
-1 6 13 1278.67 1341.68 234.19 o
0 6 13 3332.75 2632.76 362.61 o
1 6 13 2244.35 2011.24 276.35 o
2 6 13 2509.54 2082.66 285.30 o
3 6 13 5628.14 8799.85 1088.66 o
4 6 13 778.04 721.66 170.57 o
5 6 13 31.61 32.75 107.00 <
6 6 13 17825.30 17854.70 1904.95 o
7 6 13 7350.55 6714.24 718.75 o
8 6 13 76.22 113.56 126.66 <
9 6 13 14862.10 13502.20 1466.95 o
-4 7 13 4378.02 5220.92 602.58 o
-3 7 13 83.96 480.44 163.79 <
-2 7 13 7383.89 6938.86 926.80 o
-1 7 13 338.01 380.17 159.49 <
0 7 13 868.85 568.65 133.41 o
1 7 13 1082.23 722.08 166.30 o
2 7 13 1436.21 1723.31 254.01 o
3 7 13 2415.37 8723.00 717.41 o
4 7 13 5575.47 4820.22 492.17 o
5 7 13 498.41 434.92 111.46 o
6 7 13 270.71 207.53 111.41 <
7 7 13 792.06 706.24 124.63 o
8 7 13 409.81 688.27 148.58 o
9 7 13 1719.51 1826.13 245.24 o
-4 8 13 10632.90 10600.10 1175.07 o
-3 8 13 14.79 0.00 137.56 <
-2 8 13 1363.71 1170.94 205.74 o
-1 8 13 15988.20 12861.90 1713.87 o
0 8 13 455.53 439.26 126.75 o
1 8 13 5693.15 5153.82 514.28 o
2 8 13 23172.80 28494.30 2866.77 o
3 8 13 700.79 1486.78 179.29 o
4 8 13 300.45 384.51 137.64 <
5 8 13 13700.40 15183.90 1237.72 o
6 8 13 1231.85 1341.40 144.43 o
7 8 13 504.15 319.07 96.16 o
8 8 13 12750.90 18853.70 1957.37 o
9 8 13 1489.91 4020.75 481.53 o
-4 9 13 2162.02 1479.03 230.07 o
-3 9 13 1821.81 1062.20 219.01 o
-2 9 13 594.38 622.93 157.37 o
-1 9 13 18111.20 15452.20 1987.00 o
0 9 13 2268.66 2142.05 241.17 o
1 9 13 6.67 155.03 176.87 <
2 9 13 3411.22 5308.93 432.89 o
3 9 13 8095.80 8909.72 720.31 o
4 9 13 2147.49 2150.44 199.48 o
5 9 13 14629.50 16670.50 1359.90 o
6 9 13 1618.17 1543.68 153.27 o
7 9 13 484.78 417.39 131.12 o
8 9 13 4.89 106.99 133.19 <
-3 10 13 26.84 -26.20 189.97 <
-2 10 13 1080.79 761.23 183.75 o
-1 10 13 3877.70 3622.37 382.46 o
0 10 13 922.92 706.41 135.60 o
1 10 13 104.78 1316.90 159.43 o
2 10 13 25531.40 27051.30 2219.45 o
3 10 13 3235.38 3584.20 298.68 o
4 10 13 3246.63 3406.11 274.51 o
5 10 13 26131.80 30273.70 2489.53 o
6 10 13 7371.68 8066.92 654.37 o
7 10 13 1391.93 1652.33 172.89 o
8 10 13 30624.30 27724.20 2279.24 o
-3 11 13 148.53 113.57 190.01 <
-2 11 13 4.05 -26.20 152.85 <
-1 11 13 4065.18 3869.16 331.96 o
0 11 13 2910.05 4415.04 384.01 o
1 11 13 1124.42 1117.94 146.58 o
2 11 13 719.56 929.15 137.73 o
3 11 13 888.72 890.06 137.77 o
4 11 13 648.12 585.83 118.04 o
5 11 13 2540.20 2988.90 254.37 o
6 11 13 559.80 638.17 102.72 o
7 11 13 1258.90 6555.18 533.87 o
-2 12 13 2962.47 1801.27 219.40 o
-1 12 13 6155.24 4810.33 414.64 o
0 12 13 1512.58 6391.88 542.87 o
1 12 13 4474.32 4388.84 378.39 o
2 12 13 1439.33 1556.24 157.59 o
3 12 13 5887.49 5872.32 478.52 o
4 12 13 363.37 443.52 135.46 o
5 12 13 8624.73 8317.86 675.44 o
6 12 13 1718.71 1957.52 179.55 o
-1 13 13 196.54 187.84 181.29 <
0 13 13 1915.95 3688.51 418.35 o
1 13 13 5835.61 6073.12 515.83 o
2 13 13 738.26 651.47 177.08 o
3 13 13 266.68 242.47 120.14 <
4 13 13 1651.62 1385.89 151.07 o
5 13 13 1108.29 623.42 135.62 o
1 14 13 5974.55 4977.86 425.48 o
2 14 13 3913.61 3199.30 283.45 o
3 14 13 114.43 41.49 152.87 <
2 -4 14 749.86 1506.26 216.43 o
3 -4 14 16.72 4.37 137.56 <
0 -3 14 238.72 476.19 144.17 o
1 -3 14 45.74 96.08 152.86 <
2 -3 14 2936.35 7183.26 1037.78 o
3 -3 14 1251.79 1555.66 225.36 o
4 -3 14 89.21 50.23 137.58 <
5 -3 14 705.11 550.87 155.21 o
-1 -2 14 597.95 968.23 166.11 o
0 -2 14 107.41 192.18 141.95 <
1 -2 14 525.96 740.85 152.98 o
2 -2 14 790.64 1121.62 201.15 o
3 -2 14 3564.44 4854.39 557.92 o
4 -2 14 1.78 102.62 150.66 <
5 -2 14 2169.01 2171.60 289.25 o
6 -2 14 23.02 8.73 155.03 <
-2 -1 14 4398.19 6909.67 758.70 o
-1 -1 14 435.41 832.51 155.14 o
0 -1 14 455.04 970.22 183.55 o
1 -1 14 1841.06 2954.80 363.60 o
2 -1 14 31.46 -87.34 152.85 <
3 -1 14 2977.93 4589.09 522.34 o
4 -1 14 5050.63 6622.36 737.78 o
5 -1 14 53.11 131.02 150.68 <
6 -1 14 223.45 366.96 163.82 <
7 -1 14 1551.04 2099.27 306.46 o
-3 0 14 161.34 242.43 124.49 <
-2 0 14 1668.80 2975.54 343.75 o
-1 0 14 60.10 67.70 144.12 <
0 0 14 207.05 594.12 152.90 o
1 0 14 361.39 393.28 146.39 <
2 0 14 486.56 688.39 174.83 o
3 0 14 238.93 288.34 135.43 <
4 0 14 9118.12 11426.30 1257.76 o
5 0 14 127.08 209.66 168.17 <
6 0 14 41.12 -21.84 159.41 <
7 0 14 1571.63 1541.16 253.94 o
8 0 14 1251.02 785.46 179.41 o
-3 1 14 128.65 192.19 133.22 <
-2 1 14 9469.77 17064.70 1825.35 o
-1 1 14 2153.85 4394.07 506.25 o
0 1 14 2488.02 4171.17 462.73 o
1 1 14 9055.72 13783.70 1499.96 o
2 1 14 315.19 563.66 168.23 o
3 1 14 878.54 1342.80 282.12 o
4 1 14 15516.80 18113.30 2421.24 o
5 1 14 1297.19 1595.40 282.31 o
6 1 14 2220.25 5409.36 760.55 o
7 1 14 2310.55 2279.59 300.29 o
8 1 14 322.86 211.91 148.56 <
-3 2 14 0.05 10.92 135.38 <
-2 2 14 1068.28 1723.70 236.24 o
-1 2 14 971.40 2720.86 312.77 o
0 2 14 7.47 351.55 163.76 <
1 2 14 3254.04 4076.71 467.86 o
2 2 14 96.50 146.32 181.26 <
3 2 14 1064.75 1319.25 242.85 o
4 2 14 11973.80 12646.40 1689.01 o
5 2 14 4109.61 4933.56 675.26 o
6 2 14 3307.67 3724.49 527.05 o
7 2 14 7911.08 6996.12 789.89 o
8 2 14 199.97 218.42 148.53 <
-4 3 14 64.78 172.51 137.57 <
-3 3 14 15.49 74.24 139.75 <
-2 3 14 333.07 736.26 185.70 o
-1 3 14 674.25 1224.21 185.82 o
0 3 14 282.28 548.34 155.11 o
1 3 14 5109.79 6610.51 883.90 o
2 3 14 302.98 476.27 185.70 <
3 3 14 154.10 303.59 168.18 <
4 3 14 352.40 349.59 142.02 <
5 3 14 1582.29 9065.61 1256.92 o
6 3 14 555.71 480.84 155.18 o
7 3 14 3603.75 3690.74 327.33 o
8 3 14 96.21 80.80 207.46 <
9 3 14 27.78 -2.18 144.12 <
-4 4 14 481.58 426.11 144.22 <
-3 4 14 790.91 1176.26 185.84 o
-2 4 14 674.48 2253.79 284.18 o
-1 4 14 1872.87 2471.17 286.99 o
0 4 14 4883.52 6258.78 815.12 o
1 4 14 14.83 67.69 144.12 <
2 4 14 65.49 198.72 152.86 <
3 4 14 816.20 712.92 164.02 o
4 4 14 65.19 8.74 148.50 <
5 4 14 1558.40 2093.37 328.46 o
6 4 14 10247.50 10716.90 1158.17 o
7 4 14 90.97 246.77 137.58 <
8 4 14 63.98 133.21 144.13 <
9 4 14 550.75 310.33 131.13 <
-4 5 14 3569.19 4673.38 522.68 o
-3 5 14 7677.04 11233.40 1202.95 o
-2 5 14 458.09 609.67 148.60 o
-1 5 14 588.65 701.64 177.05 o
0 5 14 18340.00 23979.50 2994.61 o
1 5 14 1903.32 2158.45 324.32 o
2 5 14 7493.25 7084.66 919.08 o
3 5 14 7907.60 7076.78 917.57 o
4 5 14 2270.80 2609.44 366.20 o
5 5 14 203.38 314.54 166.01 <
6 5 14 9159.16 8875.30 962.97 o
7 5 14 106.17 176.90 135.40 <
8 5 14 2720.10 2028.84 256.62 o
9 5 14 22.38 74.24 139.75 <
-4 6 14 15.85 34.94 139.75 <
-3 6 14 872.84 968.69 188.05 o
-2 6 14 184.27 146.34 133.24 <
-1 6 14 2146.27 2332.07 346.30 o
0 6 14 12685.40 12974.80 1744.71 o
1 6 14 914.85 868.33 150.92 o
2 6 14 1073.73 999.89 183.79 o
3 6 14 17006.90 16090.30 2061.99 o
4 6 14 8.55 72.06 133.20 <
5 6 14 8443.22 7668.57 767.08 o
6 6 14 24643.10 23120.60 2478.10 o
7 6 14 1280.13 1332.65 199.13 o
8 6 14 3337.59 3135.23 351.29 o
9 6 14 8295.06 5379.14 595.22 o
-4 7 14 912.62 2217.34 293.02 o
-3 7 14 9693.23 10483.90 1122.48 o
-2 7 14 24.65 111.36 170.32 <
-1 7 14 2035.64 1985.31 302.40 o
0 7 14 1726.74 1550.74 221.22 o
1 7 14 221.94 277.42 113.59 <
2 7 14 5961.43 5905.90 1435.08 o
3 7 14 12026.80 9891.88 1239.00 o
4 7 14 742.63 533.50 111.51 o
5 7 14 36.80 157.22 102.63 <
6 7 14 121.74 312.31 117.93 <
7 7 14 2222.07 1832.26 219.17 o
8 7 14 2754.99 1822.71 230.31 o
-3 8 14 1224.78 953.92 207.85 o
-2 8 14 204.14 163.82 172.55 <
-1 8 14 1.74 74.24 124.46 <
0 8 14 11805.20 9583.21 1203.75 o
1 8 14 1531.48 983.11 166.41 o
2 8 14 96.06 5381.08 735.97 o
3 8 14 5278.75 4947.10 405.64 o
4 8 14 1418.15 1576.15 164.18 o
5 8 14 0.75 15.28 133.19 <
6 8 14 13346.10 14515.50 1183.75 o
7 8 14 4778.92 3525.93 371.96 o
8 8 14 409.01 631.45 148.58 o
-3 9 14 427.43 299.35 179.17 <
-2 9 14 4838.60 3754.97 497.43 o
-1 9 14 3115.00 2074.34 285.36 o
0 9 14 197.66 231.53 159.45 <
1 9 14 541.24 638.19 170.48 o
2 9 14 4912.54 5213.75 422.92 o
3 9 14 2570.02 2777.01 239.10 o
4 9 14 12836.70 12676.20 1029.37 o
5 9 14 358.45 244.70 133.28 <
6 9 14 188.77 253.37 128.87 <
7 9 14 238.49 297.07 135.43 <
8 9 14 832.13 7831.85 649.38 o
-3 10 14 19.59 61.14 318.80 <
-2 10 14 186.38 4.37 172.55 <
-1 10 14 3119.99 2550.46 298.51 o
0 10 14 868.37 824.40 177.12 o
1 10 14 2957.72 2721.39 234.83 o
2 10 14 6822.71 6427.25 514.80 o
3 10 14 813.71 885.57 133.38 o
4 10 14 578.74 740.95 133.33 o
5 10 14 6536.89 7309.73 448.17 o
6 10 14 1943.41 1778.74 166.48 o
7 10 14 6387.41 5698.80 463.32 o
-2 11 14 2951.86 1248.36 193.07 o
-1 11 14 5377.84 4143.47 352.45 o
0 11 14 23.32 146.30 161.59 <
1 11 14 688.13 3408.03 292.93 o
2 11 14 175.26 248.99 131.05 <
3 11 14 110.35 194.37 139.77 <
4 11 14 3843.52 4278.79 356.02 o
5 11 14 1145.20 1194.46 153.14 o
6 11 14 525.33 509.19 131.12 o
7 11 14 148.90 128.86 124.49 <
-1 12 14 11023.10 9040.85 766.74 o
0 12 14 2738.37 2590.28 263.20 o
1 12 14 616.42 509.27 177.04 <
2 12 14 29272.20 30284.30 2492.23 o
3 12 14 1532.33 1598.01 175.12 o
4 12 14 1718.96 2021.08 168.61 o
5 12 14 12666.80 11878.20 967.19 o
6 12 14 6421.41 8888.65 725.83 o
0 13 14 4301.03 3473.90 334.20 o
1 13 14 473.58 266.59 170.44 <
2 13 14 500.09 487.32 183.56 <
3 13 14 2697.26 2465.03 221.50 o
4 13 14 378.47 351.76 126.72 <
0 -2 15 2.21 104.81 290.41 <
1 -2 15 140.12 832.10 168.17 o
2 -2 15 2876.64 4100.09 493.59 o
3 -2 15 262.61 371.35 163.83 <
4 -2 15 1048.33 1150.48 216.54 o
5 -2 15 511.97 301.57 187.94 <
-1 -1 15 519.62 804.20 163.90 o
0 -1 15 206.42 382.24 161.63 <
1 -1 15 631.62 957.37 190.16 o
2 -1 15 4889.07 9022.56 999.33 o
3 -1 15 304.39 709.99 183.51 o
4 -1 15 559.05 725.59 187.95 o
5 -1 15 1847.56 2003.95 271.57 o
6 -1 15 100.90 214.02 159.42 <
-1 0 15 86.85 131.03 137.58 <
0 0 15 257.25 950.23 183.49 o
1 0 15 247.94 537.36 166.01 o
2 0 15 456.03 489.48 163.89 <
3 0 15 1601.96 2338.28 295.57 o
4 0 15 440.99 502.58 176.99 <
5 0 15 124.74 242.42 146.32 <
6 0 15 9.98 159.40 170.32 <
7 0 15 648.41 465.57 166.12 <
-2 1 15 5535.33 10074.80 1101.56 o
-1 1 15 179.70 439.01 150.71 <
0 1 15 698.13 1628.61 216.42 o
1 1 15 2461.03 4172.61 464.84 o
2 1 15 28.96 34.94 152.85 <
3 1 15 5603.31 7464.52 850.95 o
4 1 15 2750.06 3501.24 487.02 o
5 1 15 769.33 902.96 238.31 o
6 1 15 50.55 89.53 172.51 <
7 1 15 35.45 30.57 181.24 <
-2 2 15 1643.53 2533.10 313.08 o
-1 2 15 9.00 877.78 163.76 o
0 2 15 358.81 471.92 152.94 o
1 2 15 695.30 1193.62 188.01 o
2 2 15 826.78 1095.51 220.85 o
3 2 15 4119.50 4844.91 675.16 o
4 2 15 7621.51 8044.15 1079.63 o
5 2 15 833.16 957.74 218.66 o
6 2 15 892.77 1062.77 220.86 o
7 2 15 396.32 249.08 163.87 <
8 2 15 623.96 319.11 144.26 <
-3 3 15 844.33 1569.89 227.39 o
-2 3 15 6492.02 10420.50 1136.50 o
-1 3 15 26.25 264.21 181.24 <
0 3 15 6391.16 9328.85 1030.90 o
1 3 15 1695.79 2774.72 394.20 o
2 3 15 1.98 96.07 168.13 <
3 3 15 491.62 559.46 183.57 o
4 3 15 13038.80 12402.40 1663.92 o
5 3 15 546.82 2651.09 399.96 o
6 3 15 2735.72 2746.41 408.01 o
7 3 15 1485.42 1414.01 205.75 o
8 3 15 473.26 380.22 139.85 <
-3 4 15 535.36 725.55 166.09 o
-2 4 15 3115.30 4404.85 506.99 o
-1 4 15 269.19 235.93 144.18 <
0 4 15 11.50 63.32 122.28 <
1 4 15 1847.22 1862.04 284.78 o
2 4 15 56.38 69.88 159.41 <
3 4 15 337.75 428.22 179.15 <
4 4 15 11133.40 15788.50 2126.36 o
5 4 15 3199.53 2865.37 406.20 o
6 4 15 11.11 52.40 139.75 <
7 4 15 4292.83 3949.55 453.01 o
8 4 15 649.54 400.00 153.01 <
-3 5 15 86.41 72.07 163.79 <
-2 5 15 474.14 727.68 174.82 o
-1 5 15 3802.36 5417.06 599.94 o
0 5 15 25.42 69.88 135.38 <
1 5 15 13316.00 15327.20 1946.62 o
2 5 15 824.39 935.92 188.06 o
3 5 15 21.77 63.32 128.83 <
4 5 15 1865.28 3021.05 429.39 o
5 5 15 5492.25 4792.49 617.25 o
6 5 15 567.22 524.55 137.69 o
7 5 15 7129.20 6738.65 742.36 o
8 5 15 13.39 -10.92 141.93 <
-3 6 15 454.45 2311.84 301.55 o
-2 6 15 852.08 942.41 181.49 o
-1 6 15 572.86 686.28 181.41 o
0 6 15 1125.57 1080.76 201.27 o
1 6 15 516.95 437.10 159.54 <
2 6 15 149.20 141.96 126.68 <
3 6 15 11.95 203.07 133.20 <
4 6 15 10548.30 8516.94 1083.25 o
5 6 15 3797.54 3235.40 358.27 o
6 6 15 61.87 102.64 131.02 <
7 6 15 8707.47 8702.98 903.74 o
8 6 15 845.27 456.98 144.31 o
-3 7 15 1104.32 997.46 183.74 o
-2 7 15 366.97 244.70 179.15 <
-1 7 15 42.71 -32.75 185.61 <
0 7 15 2608.99 2307.38 329.00 o
1 7 15 1026.16 765.60 168.43 o
2 7 15 4600.58 3260.17 418.25 o
3 7 15 17.51 2395.37 314.43 o
4 7 15 2.04 -6.55 109.18 <
5 7 15 397.62 273.12 113.62 <
6 7 15 979.28 1023.57 166.22 o
7 7 15 1589.32 1291.66 203.60 o
8 7 15 2586.99 1613.81 223.65 o
-2 8 15 59.10 194.35 194.35 <
-1 8 15 3490.56 2850.72 397.52 o
0 8 15 9094.30 6629.80 849.24 o
1 8 15 21.33 21.84 111.36 <
2 8 15 48.84 63.33 170.33 <
3 8 15 7435.08 7171.11 716.67 o
4 8 15 833.97 815.63 135.57 o
5 8 15 1094.52 1054.42 135.63 o
6 8 15 10903.30 11906.10 969.39 o
7 8 15 1354.54 969.45 159.75 o
8 8 15 45.52 50.22 148.49 <
-2 9 15 945.09 669.18 205.57 o
-1 9 15 243.56 222.81 163.83 <
0 9 15 5001.27 3461.36 449.18 o
1 9 15 5308.46 4609.29 462.69 o
3 9 15 18320.30 18701.80 1337.78 o
4 9 15 2354.60 2411.53 232.38 o
5 9 15 8.77 37.12 133.20 <
6 9 15 1386.12 1569.17 175.08 o
7 9 15 2130.83 1555.68 170.90 o
-2 10 15 12.44 41.49 189.97 <
-1 10 15 191.60 240.26 268.65 <
0 10 15 10415.30 10252.90 1048.39 o
1 10 15 779.42 946.69 159.60 o
2 10 15 2441.70 2302.15 225.83 o
3 10 15 11799.40 12987.70 1062.27 o
4 10 15 3331.07 3225.53 274.47 o
5 10 15 1027.62 1058.62 153.11 o
6 10 15 30252.40 29525.90 2428.23 o
7 10 15 1700.89 1239.27 151.08 o
-1 11 15 362.39 205.37 176.97 <
0 11 15 1615.05 1243.51 186.09 o
1 11 15 129.92 266.44 172.53 <
2 11 15 536.24 605.37 159.54 o
3 11 15 4183.07 4617.21 380.37 o
4 11 15 1129.68 1211.92 148.76 o
5 11 15 1151.48 977.87 137.82 o
6 11 15 88.77 58.96 120.11 <
0 12 15 319.57 2337.55 264.34 o
1 12 15 3057.53 2488.41 256.74 o
2 12 15 355.36 336.45 133.27 <
3 12 15 5947.15 5472.07 449.76 o
4 12 15 357.96 279.65 135.46 <
5 12 15 3121.38 2589.55 228.23 o
2 13 15 2627.23 2181.80 434.17 o
3 13 15 448.07 231.62 163.88 <
2 -1 16 3881.26 5769.85 674.54 o
3 -1 16 12.15 93.89 168.13 <
4 -1 16 317.72 321.14 163.85 <
0 0 16 56.75 183.43 155.04 <
1 0 16 4.69 6.55 146.29 <
2 0 16 1738.76 2857.56 345.97 o
3 0 16 9.09 -26.20 159.40 <
4 0 16 17.09 -37.12 168.13 <
5 0 16 359.82 513.42 196.63 <
0 1 16 10.54 91.71 155.03 <
1 1 16 528.74 1053.36 198.87 o
2 1 16 9211.00 15805.00 1753.40 o
3 1 16 1043.39 1358.30 207.79 o
4 1 16 2631.17 3559.22 418.86 o
5 1 16 2934.48 3089.16 460.74 o
6 1 16 138.68 148.51 214.03 <
-1 2 16 388.20 810.59 166.05 o
0 2 16 22.11 128.83 152.85 <
1 2 16 228.67 375.70 144.17 <
2 2 16 2850.10 4780.54 544.09 o
3 2 16 1100.39 1572.83 260.32 o
4 2 16 1033.99 1229.25 231.85 o
5 2 16 3543.42 3208.80 586.41 o
6 2 16 399.12 323.37 209.75 <
7 2 16 516.47 185.75 163.90 <
-1 3 16 1952.49 3436.83 389.90 o
0 3 16 47.96 165.96 124.47 <
1 3 16 125.16 275.18 155.06 <
2 3 16 303.94 519.94 183.51 <
3 3 16 847.67 1283.56 251.46 o
4 3 16 43.88 61.14 181.24 <
5 3 16 3157.14 6051.65 825.33 o
6 3 16 48.01 -43.67 198.71 <
7 3 16 42.37 -45.86 155.04 <
-2 4 16 642.02 1650.25 242.62 o
-1 4 16 3.82 133.19 146.29 <
0 4 16 5.45 122.28 128.83 <
1 4 16 477.72 579.09 177.01 o
2 4 16 115.73 196.55 198.74 <
3 4 16 518.58 633.78 183.58 o
4 4 16 4748.55 5960.62 818.82 o
5 4 16 21.13 -13.10 148.48 <
6 4 16 22.95 61.14 155.03 <
7 4 16 542.54 338.74 161.72 <
-2 5 16 8369.45 11025.30 1161.84 o
-1 5 16 918.57 1185.24 196.81 o
0 5 16 4524.60 6894.79 913.00 o
1 5 16 7286.20 9423.07 1160.48 o
2 5 16 458.56 327.78 177.00 <
3 5 16 680.56 638.33 170.51 o
4 5 16 10846.50 15777.90 3844.96 o
5 5 16 23.28 15.29 176.87 <
6 5 16 3785.91 3179.37 362.54 o
7 5 16 413.37 273.12 157.32 <
-2 6 16 2429.19 2571.32 309.08 o
-1 6 16 7.59 85.16 155.03 <
0 6 16 116.40 141.96 155.06 <
1 6 16 4435.76 4666.01 411.38 o
2 6 16 1.17 0.00 144.11 <
3 6 16 4817.01 4682.64 620.83 o
4 6 16 12013.50 10550.10 1343.55 o
5 6 16 313.17 240.31 137.63 <
6 6 16 2088.70 1728.75 221.30 o
7 6 16 6491.05 4717.74 518.55 o
-2 7 16 1525.74 1586.94 234.21 o
-1 7 16 35.03 102.63 150.67 <
0 7 16 2572.59 2482.31 350.86 o
1 7 16 9144.11 9094.69 1192.82 o
2 7 16 204.42 -30.58 146.35 <
3 7 16 526.69 1575.72 249.14 o
4 7 16 1260.61 978.11 181.62 o
5 7 16 2091.37 1779.23 221.31 o
6 7 16 3032.72 2227.37 274.31 o
7 7 16 7284.96 5923.33 620.83 o
-1 8 16 511.57 415.21 205.42 <
0 8 16 119.01 91.72 168.16 <
1 8 16 1138.06 616.92 181.58 o
2 8 16 109.39 218.39 137.59 <
3 8 16 13.94 189.97 200.89 <
4 8 16 7476.67 7570.31 621.28 o
5 8 16 1561.31 1475.51 186.08 o
6 8 16 181.05 244.62 137.60 <
7 8 16 3993.50 2250.39 257.12 o
-1 9 16 457.55 367.10 192.29 <
0 9 16 2209.12 1472.64 232.29 o
1 9 16 1381.70 1264.96 229.79 o
2 9 16 8104.92 8117.37 814.39 o
3 9 16 864.96 732.53 159.63 o
4 9 16 83.38 93.90 161.60 <
5 9 16 446.74 358.36 135.48 <
6 9 16 1165.35 969.13 148.76 o
7 9 16 2932.25 664.73 179.90 o
0 10 16 3300.30 2759.40 366.60 o
1 10 16 266.97 2097.08 275.24 o
2 10 16 42.21 -15.29 155.04 <
3 10 16 4215.32 4008.25 347.40 o
4 10 16 633.66 601.09 144.26 o
5 10 16 4984.42 4572.07 244.34 o
6 10 16 1829.90 1541.74 170.82 o
0 11 16 528.65 360.58 163.90 <
1 11 16 140.12 52.42 185.64 <
2 11 16 2912.71 2428.62 241.33 o
3 11 16 2925.24 2558.12 228.17 o
4 11 16 128.73 56.78 135.40 <
5 11 16 15.83 50.22 137.56 <
2 12 16 1866.95 1441.08 188.35 o
3 12 16 6505.01 4434.92 368.47 o
2 1 17 1984.90 2979.09 376.77 o
3 1 17 592.09 638.19 174.85 o
4 1 17 29.31 96.08 157.22 <
1 2 17 1009.39 1251.00 203.40 o
2 2 17 1889.87 2577.88 332.91 o
3 2 17 297.65 517.74 157.29 o
4 2 17 370.91 351.76 155.12 <
5 2 17 76.61 -8.74 183.44 <
0 3 17 37.18 194.34 139.75 <
1 3 17 636.23 907.09 168.30 o
2 3 17 8393.67 11651.70 1290.45 o
3 3 17 170.50 227.15 185.65 <
4 3 17 2741.02 2963.15 436.47 o
5 3 17 1732.07 3398.36 503.62 o
6 3 17 111.39 117.93 214.02 <
0 4 17 73.59 128.84 133.21 <
1 4 17 165.42 50.23 155.07 <
2 4 17 2549.01 2819.77 403.45 o
3 4 17 741.47 708.32 205.50 o
4 4 17 123.93 240.23 161.61 <
5 4 17 1301.15 1072.19 247.26 o
6 4 17 160.25 120.12 168.17 <
0 5 17 333.60 524.32 139.82 o
1 5 17 14.37 -24.02 165.95 <
2 5 17 1574.33 1970.26 315.24 o
3 5 17 3401.51 3153.17 445.75 o
4 5 17 309.86 2514.49 391.05 o
5 5 17 8163.12 6992.13 929.33 o
6 5 17 22.63 -2.18 168.13 <
0 6 17 11.21 198.70 172.50 <
1 6 17 29.11 82.98 163.77 <
2 6 17 4097.05 3855.80 499.01 o
3 6 17 1410.47 1212.49 229.80 o
4 6 17 45.77 78.61 183.43 <
5 6 17 2581.60 1701.58 282.87 o
6 6 17 270.91 141.99 161.65 <
0 7 17 2386.32 2095.52 306.88 o
1 7 17 161.98 148.52 190.01 <
2 7 17 25.85 43.67 192.16 <
3 7 17 75.24 91.72 152.86 <
4 7 17 1355.35 1365.55 223.21 o
5 7 17 795.04 662.46 148.67 o
6 7 17 2522.91 1521.56 221.44 o
0 8 17 16.07 54.59 170.32 <
1 8 17 2107.27 1478.94 241.01 o
2 8 17 300.83 681.59 163.84 o
3 8 17 1232.48 1163.98 190.35 o
4 8 17 5921.86 5264.87 436.53 o
5 8 17 601.53 365.00 159.55 <
6 8 17 190.57 203.13 144.15 <
0 9 17 1396.21 1234.27 196.96 o
1 9 17 12753.90 11243.30 1134.36 o
2 9 17 1501.95 1545.33 247.34 o
3 9 17 412.75 220.68 148.58 <
4 9 17 3653.97 3490.27 305.32 o
5 9 17 2176.80 1748.59 195.02 o
1 10 17 2589.78 2376.82 293.81 o
2 10 17 674.33 445.92 146.45 o
3 10 17 373.83 229.41 150.75 <
4 10 17 17717.80 14852.00 1493.51 o
5 10 17 562.26 198.88 135.50 <
3 4 18 83.20 -30.57 205.28 <
4 4 18 9.12 50.22 194.33 <
2 5 18 7053.24 7318.53 987.14 o
3 5 18 9.18 63.32 189.97 <
4 5 18 3275.75 2537.51 392.92 o
2 6 18 3528.01 2764.72 379.90 o
3 6 18 0.48 198.70 185.60 <
4 6 18 712.87 360.69 188.00 <
2 7 18 1620.00 1197.51 243.00 o
3 7 18 815.42 765.23 207.71 o
4 7 18 2062.34 909.18 230.03 o
2 8 18 2408.47 1453.29 245.50 o
3 8 18 241.42 107.03 157.27 <
4 8 18 48.06 2.18 152.86 <
