#------------------------------------------------------------------------------
#$Date: 2020-06-03 01:21:17 +0300 (Wed, 03 Jun 2020) $
#$Revision: 252540 $
#$URL: file:///home/coder/svn-repositories/cod/cif/4/00/35/4003563.cif $
#------------------------------------------------------------------------------
#
# This file is available in the Crystallography Open Database (COD),
# http://www.crystallography.net/
#
# All data on this site have been placed in the public domain by the
# contributors.
#
data_4003563
loop_
_publ_author_name
'Liu, Kun'
'Lei, Yilong'
'Fu, Hongbing'
_publ_section_title
;
 A General Synthetic Strategy to a Library of Luminescent All-Organic
 Core--Shell Microstructures
;
_journal_name_full               'Chemistry of Materials'
_journal_paper_doi               10.1021/acs.chemmater.0c01184
_journal_year                    2020
_chemical_formula_sum            'C19 H9 N5 O'
_chemical_formula_weight         323.31
_space_group_crystal_system      triclinic
_space_group_IT_number           1
_space_group_name_Hall           'P 1'
_space_group_name_H-M_alt        'P 1'
_atom_sites_solution_hydrogens   geom
_audit_creation_method           SHELXL-2018/3
_cell_angle_alpha                106.69(3)
_cell_angle_beta                 100.39(3)
_cell_angle_gamma                100.56(3)
_cell_formula_units_Z            1
_cell_length_a                   6.7349(13)
_cell_length_b                   7.8881(16)
_cell_length_c                   7.8913(16)
_cell_measurement_reflns_used    1240
_cell_measurement_temperature    113(2)
_cell_measurement_theta_max      27.8545
_cell_measurement_theta_min      3.1756
_cell_volume                     382.49(17)
_computing_cell_refinement       crystalclear
_computing_data_collection       crystalclear
_computing_data_reduction        crystalclear
_computing_molecular_graphics    'Bruker SHELXTL'
_computing_publication_material  'Bruker SHELXTL'
_computing_structure_refinement  'SHELXL-97 (Sheldrick, 1997)'
_computing_structure_solution    'SHELXS-97 (Sheldrick, 1990)'
_diffrn_ambient_temperature      113(2)
_diffrn_measured_fraction_theta_full 0.991
_diffrn_measured_fraction_theta_max 0.991
_diffrn_measurement_device_type  'rigaku saturn'
_diffrn_measurement_method       '\w scans'
_diffrn_radiation_type           MoK\a
_diffrn_radiation_wavelength     0.71073
_diffrn_reflns_av_R_equivalents  0.0245
_diffrn_reflns_av_unetI/netI     0.0464
_diffrn_reflns_Laue_measured_fraction_full 0.991
_diffrn_reflns_Laue_measured_fraction_max 0.991
_diffrn_reflns_limit_h_max       8
_diffrn_reflns_limit_h_min       -7
_diffrn_reflns_limit_k_max       9
_diffrn_reflns_limit_k_min       -9
_diffrn_reflns_limit_l_max       9
_diffrn_reflns_limit_l_min       -9
_diffrn_reflns_number            3572
_diffrn_reflns_point_group_measured_fraction_full 0.991
_diffrn_reflns_point_group_measured_fraction_max 0.991
_diffrn_reflns_theta_full        25.018
_diffrn_reflns_theta_max         25.018
_diffrn_reflns_theta_min         3.176
_diffrn_standards_decay_%        0
_diffrn_standards_interval_count 0
_diffrn_standards_interval_time  0
_diffrn_standards_number         0
_exptl_absorpt_coefficient_mu    0.093
_exptl_absorpt_correction_T_max  1
_exptl_absorpt_correction_T_min  0.8699
_exptl_absorpt_correction_type   multi-scan
_exptl_absorpt_process_details   crystalclear
_exptl_crystal_density_diffrn    1.404
_exptl_crystal_F_000             166
_exptl_crystal_size_max          0.200
_exptl_crystal_size_mid          0.180
_exptl_crystal_size_min          0.120
_refine_diff_density_max         0.398
_refine_diff_density_min         -0.223
_refine_diff_density_rms         0.060
_refine_ls_abs_structure_details
;
 Refined as a perfect inversion twin.
;
_refine_ls_abs_structure_Flack   0.5
_refine_ls_extinction_method     none
_refine_ls_goodness_of_fit_ref   1.021
_refine_ls_hydrogen_treatment    constr
_refine_ls_matrix_type           full
_refine_ls_number_parameters     343
_refine_ls_number_reflns         2434
_refine_ls_number_restraints     676
_refine_ls_restrained_S_all      0.963
_refine_ls_R_factor_all          0.0721
_refine_ls_R_factor_gt           0.0615
_refine_ls_shift/su_max          0.005
_refine_ls_shift/su_mean         0.001
_refine_ls_structure_factor_coef Fsqd
_refine_ls_weighting_details
'w=1/[\s^2^(Fo^2^)+(0.1431P)^2^] where P=(Fo^2^+2Fc^2^)/3'
_refine_ls_weighting_scheme      calc
_refine_ls_wR_factor_gt          0.1748
_refine_ls_wR_factor_ref         0.1898
_reflns_Friedel_coverage         1.000
_reflns_Friedel_fraction_full    0.991
_reflns_Friedel_fraction_max     0.991
_reflns_number_gt                1883
_reflns_number_total             2434
_reflns_threshold_expression     'I > 2\s(I)'
_cod_data_source_file            cm0c01184_si_010.cif
_cod_data_source_block           shelxl
_cod_depositor_comments
;
The following automatic conversions were performed:

data item '_exptl_absorpt_correction_type' value 'MULTI-SCAN' was
changed to 'multi-scan' in accordance with the
/home/data/users/saulius/crontab/automatic-downloads/rss-feeds/ACS/lib/dictionaries/cif_core.dic
dictionary named 'cif_core.dic' version 2.4.2 last updated on
2011-04-26.

Automatic conversion script
Id: cif_fix_values 7556 2019-12-06 15:28:31Z antanas 
;
_cod_original_cell_volume        382.50(15)
_cod_database_code               4003563
_shelx_shelxl_version_number     2018/3
_shelx_space_group_comment
;
The symmetry employed for this shelxl refinement is uniquely defined
by the following loop, which should always be used as a source of
symmetry information in preference to the above space-group names.
They are only intended as comments.
;
_shelx_estimated_absorpt_t_min   0.982
_shelx_estimated_absorpt_t_max   0.989
_shelx_res_file
;
TITL shelxl in P-1
    shelxl.res
    created by SHELXL-2018/3 at 09:00:30 on 27-May-2019
CELL 0.71073   6.7349   7.8881   7.8913 106.692 100.387 100.559
ZERR    1.00   0.0013   0.0016   0.0016   0.030   0.030   0.030
LATT -1
SFAC C  H  N  O
UNIT 19 9 5 1
OMIT  -3.00  50.04
L.S. 12
ACTA
BOND  $H
FMAP 2
PLAN 20
EXYZ C7 N1A
EADP C7 N1A
EXYZ C4 N1B
EADP C4 N1B
EXYZ C10' N1C
EADP C10' N1C
EXYZ C1' N1D
EADP C1' N1D
DFIX 2.26 O1B C5 O1B C9 O1C C3' O1C C5'
DFIX 1.40 0.01 C5 C10 C10 C9 C4' C5' C6' C7'  C7' C8'
SIMU 0.01 O1A O1B O1C O1D
ISOR 0.005 O1A O1B O1C O1D
SIMU 0.01 C1 > C10'
ISOR 0.01 C1 > C10'
DFIX 1.30 0.01 C1 O1A C4' O1C C10 O1B C7' O1D
TWIN
SIZE 0.20 0.18 0.12
HTAB
CONF
TEMP -160
WGHT    0.143100
FVAR       2.10720
MOLE 1
N1    3    0.750557    0.491988    0.631546    11.00000    0.04925    0.04189 =
         0.02702    0.00452    0.00685    0.00454
N2    3    0.756513    0.803285    0.316340    11.00000    0.05867    0.02681 =
         0.03772    0.01200    0.01512    0.02181
N3    3    0.434577    0.033905   -0.449076    11.00000    0.05029    0.03479 =
         0.02228    0.01111    0.01045    0.01159
N4    3    0.438600   -0.276986   -0.141163    11.00000    0.04524    0.02317 =
         0.03417   -0.00022   -0.00025   -0.00446
PART 1
O1A   4    0.018468   -0.112941    0.101028    10.25000    0.09081    0.04080 =
         0.08543    0.02335    0.04763    0.01458
O1B   4    0.128964    0.620516    0.077309    10.25000    0.08143    0.02045 =
         0.10706    0.02916    0.04877    0.01545
C1    1    0.034356    0.002009    0.014478    10.50000    0.03325    0.04406 =
         0.05075    0.00711    0.01298    0.01198
C2    1   -0.021711   -0.029957   -0.171260    10.50000    0.01919    0.02980 =
         0.04493    0.00615    0.01330    0.00855
C3    1   -0.002619    0.110052   -0.248190    10.50000    0.02327    0.04427 =
         0.04397    0.00643    0.01306    0.00879
C4    1    0.053925    0.286182   -0.145314    10.25000    0.02693    0.04691 =
         0.03848    0.00866    0.01009    0.00936
N1B   3    0.053925    0.286182   -0.145314    10.25000    0.02693    0.04691 =
         0.03848    0.00866    0.01009    0.00936
C5    1    0.098534    0.326559    0.053632    10.50000    0.01515    0.04204 =
         0.03180    0.01051    0.01239    0.01119
C6    1    0.087569    0.189038    0.130190    10.50000    0.02898    0.04329 =
         0.03802    0.01554    0.00763    0.01181
C7    1    0.130016    0.219208    0.310754    10.25000    0.03421    0.04901 =
         0.03670    0.01072    0.00847    0.00982
N1A   3    0.130016    0.219208    0.310754    10.25000    0.03421    0.04901 =
         0.03670    0.01072    0.00847    0.00982
C8    1    0.190554    0.397319    0.420473    10.50000    0.02945    0.04993 =
         0.03114   -0.00599    0.00567    0.00960
C9    1    0.200194    0.560451    0.351288    10.50000    0.02699    0.04647 =
         0.04385   -0.00552    0.00971    0.01043
C10   1    0.163506    0.510597    0.163791    10.50000    0.02464    0.04474 =
         0.04342    0.00752    0.01165    0.01329
PART 2
O1C   4    0.074763    0.299387   -0.261004    10.25000    0.05774    0.07193 =
         0.02705    0.02728    0.00224    0.02178
O1D   4    0.187961    0.275875    0.471980    10.25000    0.05114    0.05564 =
         0.02400   -0.00036    0.00159    0.01683
C1'   1    0.061142    0.045838    0.138827    10.25000    0.03417    0.03738 =
         0.04765    0.01077    0.00920    0.01178
N1D   3    0.061142    0.045838    0.138827    10.25000    0.03417    0.03738 =
         0.04765    0.01077    0.00920    0.01178
C2'   1   -0.004297   -0.067414   -0.059005    10.50000    0.02612    0.03680 =
         0.05089   -0.00093    0.01061    0.00764
C3'   1   -0.006909    0.015600   -0.212463    10.50000    0.02490    0.04603 =
         0.04580   -0.00069    0.00872    0.01254
C4'   1    0.023052    0.193315   -0.166223    10.50000    0.02221    0.04457 =
         0.04558    0.00812    0.01289    0.01458
C5'   1    0.093189    0.300340    0.022339    10.50000    0.01475    0.03743 =
         0.03787    0.01363    0.01119    0.00966
C6'   1    0.104343    0.221094    0.160579    10.50000    0.03012    0.03749 =
         0.04075    0.01502    0.00945    0.01185
C7'   1    0.149903    0.336762    0.340654    10.50000    0.03681    0.05187 =
         0.03929    0.01062    0.00770    0.01404
C8'   1    0.218475    0.524460    0.377167    10.50000    0.02832    0.04479 =
         0.03598    0.00292    0.00072    0.01191
C9'   1    0.188778    0.598298    0.234687    10.50000    0.02035    0.04074 =
         0.05304    0.00155    0.00803    0.00539
C10'  1    0.136114    0.495963    0.072509    10.25000    0.02658    0.03772 =
         0.04110    0.00943    0.00730    0.00804
N1C   3    0.136114    0.495963    0.072509    10.25000    0.02658    0.03772 =
         0.04110    0.00943    0.00730    0.00804
PART 0
C11   1    0.707040    0.427737    0.477092    11.00000    0.04010    0.03048 =
         0.02043    0.00788    0.01422    0.00822
C12   1    0.649938    0.338661    0.277842    11.00000    0.02605    0.02967 =
         0.01424    0.00949    0.00107    0.00780
C13   1    0.595932    0.156848    0.202232    11.00000    0.02945    0.02588 =
         0.01578    0.00483    0.00426    0.00374
AFIX  43
H13   2    0.594527    0.082020    0.277488    11.00000   -1.20000
AFIX   0
C14   1    0.541061    0.076187    0.010776    11.00000    0.02391    0.02244 =
         0.02345    0.00345    0.00069    0.00038
C15   1    0.541958    0.184075   -0.099551    11.00000    0.01491    0.01809 =
         0.02593    0.00172    0.00980    0.00295
C16   1    0.595978    0.377292   -0.019187    11.00000    0.02091    0.02071 =
         0.03200    0.01461    0.01330    0.01136
AFIX  43
H16   2    0.594723    0.452371   -0.094189    11.00000   -1.20000
AFIX   0
C17   1    0.649503    0.454261    0.165663    11.00000    0.01835    0.01618 =
         0.02386    0.00630    0.00753    0.00826
C18   1    0.706932    0.646972    0.249960    11.00000    0.02288    0.02934 =
         0.01748    0.00484    0.00559    0.00667
C19   1    0.483744   -0.122468   -0.074083    11.00000    0.04507    0.02091 =
         0.03180    0.01081    0.00483    0.01011
C20   1    0.483929    0.103647   -0.292348    11.00000    0.02718    0.01594 =
         0.02832    0.00740    0.00141    0.00536
HKLF 4




REM  shelxl in P-1
REM wR2 = 0.1898, GooF = S = 1.021, Restrained GooF = 0.963 for all data
REM R1 = 0.0615 for 1883 Fo > 4sig(Fo) and 0.0721 for all 2434 data
REM 343 parameters refined using 676 restraints

END

WGHT      0.1429      0.0000

REM No hydrogen bonds found for HTAB generation

REM Highest difference peak  0.398,  deepest hole -0.223,  1-sigma level  0.060
Q1    1   0.2458  0.6480  0.4878  11.00000  0.05    0.40
Q2    1  -0.0551 -0.1233 -0.3065  11.00000  0.05    0.39
Q3    1   0.1003  0.5363 -0.0806  11.00000  0.05    0.36
Q4    1   0.0966  0.0013  0.2744  11.00000  0.05    0.35
Q5    1   0.1091  0.0718  0.3474  11.00000  0.05    0.30
Q6    1  -0.0241 -0.2154 -0.1058  11.00000  0.05    0.26
Q7    1   0.2379  0.7414  0.2884  11.00000  0.05    0.22
Q8    1  -0.0477  0.0751 -0.3819  11.00000  0.05    0.21
Q9    1   0.2497  0.5039  0.5590  11.00000  0.05    0.20
Q10   1   0.2311  0.4520  0.5721  11.00000  0.05    0.20
Q11   1   0.0031 -0.0497 -0.1268  11.00000  0.05    0.19
Q12   1   0.0370  0.1860 -0.4449  11.00000  0.05    0.16
Q13   1   0.1706  0.3477  0.6162  11.00000  0.05    0.15
Q14   1   0.6390  0.7218  0.1083  11.00000  0.05    0.15
Q15   1   0.6832  0.8906  0.1679  11.00000  0.05    0.15
Q16   1   0.2534  0.2961 -0.0687  11.00000  0.05    0.14
Q17   1   0.4266  0.1498  0.0862  11.00000  0.05    0.14
Q18   1   0.7938  0.2855  0.1434  11.00000  0.05    0.14
Q19   1   0.5449 -0.2006  0.0755  11.00000  0.05    0.13
Q20   1   0.7547  0.3906  0.0912  11.00000  0.05    0.13
;
_shelx_res_checksum              96213
_shelx_hkl_file
;
   0   0   2  403.41   10.23
   0   0  -2  374.76    8.57
   0   0  -2  369.47    7.79
   0   0  -2  372.51    7.64
   0   0  -2  368.02    5.63
   0   0   2  352.74    4.93
   0   0   4    8.19    7.09
   0   0  -4    4.95    4.58
   0   0  -4    8.47    3.56
   0   0   5   22.99    9.19
   0   0  -5   20.07    5.45
   0   0  -5   24.07    5.57
   0   0   6   50.85    8.51
   0   0  -6   52.03    7.49
   0   0  -6   47.11    6.33
   0   0   7   81.56   10.79
   0   0  -7   95.64   10.10
   0   0  -7   78.22    8.25
   0   0   8    3.46    6.04
   0   0  -8    4.42    5.08
   0   0  -8    0.70    3.14
   0   0   9    1.00    4.76
   0   0  -9    2.62    8.25
   0   0  -9    3.36    4.56
   0  -1   9   53.06   11.56
   0   1  -9   46.56    7.72
   0   1  -9   48.33    8.53
   0  -1   8   24.43    7.16
   0   1  -8   43.30    9.14
   0   1  -8   28.21    6.37
   0  -1   7  240.66   18.21
   0   1  -7  210.59   13.02
   0   1  -7  206.51   12.68
   0  -1   6   17.08    9.14
   0   1  -6   13.46    5.46
   0   1  -6   14.04    5.22
   0  -1   5  438.08   18.39
   0   1  -5  438.37   13.75
   0   1  -5  426.43   11.70
   0  -1   4    9.15    6.25
   0   1  -4   19.21    4.10
   0  -1   3  114.83    7.90
   0  -1   3  108.06    6.23
   0   1  -3  112.49    4.84
   0  -1   2  444.06   10.89
   0   1  -2  495.88    9.64
   0  -1   2  490.43    7.79
   0   1  -2  475.39    7.13
   0   1  -2  500.10    6.67
   0  -1   2  487.87    5.90
   0   1   1 1624.84   13.21
   0  -1  -1 1611.81   12.71
   0  -1  -1 1614.26   13.32
   0   1   1 1608.70   12.39
   0   1   2  157.99    6.64
   0  -1  -2  160.44    6.54
   0  -1  -2  157.25    3.88
   0   1   2  157.80    3.75
   0   1   3  275.83   10.02
   0  -1  -3  297.37   10.45
   0  -1  -3  303.85    6.91
   0   1   4  473.08   15.89
   0  -1  -4  455.80   14.24
   0  -1  -4  485.43   11.31
   0   1   5   95.70    9.37
   0  -1  -5   95.66   10.06
   0  -1  -5   99.66    7.91
   0   1   6  136.94   13.06
   0  -1  -6  142.70   11.47
   0  -1  -6  132.73    8.75
   0   1   7   10.49    6.22
   0  -1  -7   13.82    7.84
   0  -1  -7   13.90    4.44
   0   1   8   64.61   10.92
   0  -1  -8   75.37   11.55
   0  -1  -8   64.86    8.02
   0   1   9   42.50    8.33
   0  -1  -9   48.68   10.14
   0  -1  -9   47.98    8.15
   0  -2  10   20.99    9.22
   0   2 -10   22.24    7.82
   0   2 -10   24.07    7.14
   0  -2   9   19.36    7.55
   0   2  -9   21.71    6.91
   0   2  -9   24.75    7.04
   0  -2   8    4.36    6.88
   0   2  -8   -0.16    4.17
   0   2  -8    0.65    3.01
   0  -2   7  133.77   13.17
   0   2  -7  138.51   11.01
   0   2  -7  141.44   11.27
   0  -2   6  346.73   18.74
   0   2  -6  359.45   14.59
   0   2  -6  342.16   13.19
   0  -2   5  674.07   22.91
   0  -2   5  656.89   16.98
   0   2  -5  670.39   15.91
   0  -2   4   68.65    9.08
   0  -2   4   69.93    8.69
   0   2  -4   69.89    6.59
   0  -2   3  717.83   16.38
   0  -2   3  737.06   11.67
   0   2  -3  773.46   10.54
   0   2  -2 7226.70  102.32
   0  -2   1  507.49   10.95
   0   2  -1  481.13    9.86
   0  -2   1  462.17    7.69
   0   2  -1  486.53    7.38
   0   2  -1  444.70    5.40
   0  -2   1  455.03    5.31
   0   2   0  359.14    7.37
   0  -2   0  351.16    6.67
   0  -2   0  360.89    7.86
   0   2   0  388.68    7.12
   0   2   0  363.00    4.31
   0   2   0  354.75    3.66
   0   2   1  160.08    6.19
   0  -2  -1  158.89    6.41
   0  -2  -1  164.57    3.30
   0   2   1  155.63    2.87
   0   2   2   77.91    6.01
   0  -2  -2   72.34    5.58
   0  -2  -2   76.03    3.10
   0   2   2   77.75    2.62
   0   2   3   21.53    5.03
   0  -2  -3   20.03    6.39
   0  -2  -3   20.97    3.10
   0   2   4   11.65    4.56
   0  -2  -4   12.42    4.98
   0  -2  -4   13.70    3.52
   0   2   5  132.05   10.70
   0  -2  -5  152.02   12.37
   0  -2  -5  140.34    6.99
   0   2   6  161.75   14.02
   0  -2  -6  170.65   13.93
   0  -2  -6  157.97    8.50
   0   2   7    5.28    5.99
   0  -2  -7    5.37    5.47
   0  -2  -7    5.17    2.99
   0   2   8   38.18    9.30
   0  -2  -8   53.35    9.66
   0  -2  -8   52.35    7.21
   0  -3  10  121.01   19.01
   0   3 -10  120.65   11.80
   0   3 -10  126.11   12.72
   0  -3   9    4.72    8.87
   0   3  -9    2.06    5.53
   0   3  -9    1.78    4.49
   0  -3   8   10.38    9.77
   0   3  -8    9.75    4.50
   0   3  -8   13.96    6.12
   0  -3   7  770.72   28.28
   0   3  -7  773.10   21.29
   0  -3   6   71.07   11.68
   0  -3   6   72.17    9.76
   0   3  -6   90.81    9.15
   0  -3   5   67.78   10.66
   0  -3   5   64.31   11.88
   0   3  -5   71.06    7.70
   0  -3   4 1018.99   26.56
   0  -3   4 1019.37   20.63
   0   3  -4 1167.02   21.96
   0  -3   3  111.64    7.84
   0  -3   3  145.93    7.44
   0   3  -3  141.85    6.53
   0  -3   2  693.33   16.42
   0  -3   2  752.04   11.71
   0   3  -2  745.94   11.33
   0   3  -2  700.39    9.23
   0  -3   1  114.22    7.61
   0  -3   1  112.66    6.01
   0   3  -1  114.52    5.37
   0   3  -1  117.45    3.54
   0  -3   1  116.07    3.46
   0   3   0  336.56    4.56
   0   3   0  321.50    3.87
   0   3   2   13.48    3.85
   0  -3  -2   20.78    7.66
   0  -3  -2   18.43    2.32
   0   3   2   18.69    1.83
   0   3   3   17.06    4.60
   0  -3  -3   15.99    5.39
   0  -3  -3   14.93    2.77
   0   3   4  845.64   24.40
   0  -3  -4  863.11   26.12
   0  -3  -4  801.39   18.24
   0   3   5  140.63   12.86
   0  -3  -5  149.20   13.33
   0  -3  -5  132.38    7.03
   0   3   6   68.23    9.80
   0  -3  -6   72.42   11.38
   0  -3  -6   62.39    5.51
   0   3   7   39.88    9.50
   0  -3  -7   39.48    9.53
   0   3   8   14.28    7.79
   0  -3  -8   17.42    9.35
   0  -4  10   11.98    8.50
   0   4 -10    7.60    6.39
   0   4 -10    5.55    5.36
   0  -4   9   28.14    9.60
   0   4  -9   24.39    6.39
   0   4  -9   34.19    6.54
   0  -4   8   27.07   10.84
   0   4  -8   26.55    7.25
   0  -4   7    2.18    5.89
   0  -4   7    2.58    2.98
   0   4  -7    1.92    3.55
   0  -4   6  254.86   17.15
   0  -4   6  256.23   15.48
   0   4  -6  256.15   12.13
   0  -4   5   10.07    6.40
   0  -4   5   12.49    4.22
   0   4  -5   22.52    5.98
   0  -4   4    3.49    7.21
   0  -4   4    1.28    2.66
   0   4  -4   -0.03    1.99
   0  -4   3  996.70   25.82
   0  -4   3 1058.82   21.81
   0   4  -3 1087.87   20.09
   0  -4   2   52.17    6.92
   0  -4   2   53.75    4.96
   0   4  -2  100.50    6.47
   0  -4   1   13.82    5.33
   0  -4   1   16.31    4.63
   0   4  -1   15.95    2.50
   0  -4   1    7.71    1.71
   0   4   0    4.28    3.46
   0  -4   0    3.28    5.47
   0   4   0    5.06    1.50
   0   4   0    4.41    1.44
   0   4   1  472.30   14.28
   0  -4  -1  477.26   15.22
   0   4   1  449.40    7.85
   0   4   2    8.00    3.74
   0  -4  -2   12.38    5.20
   0  -4  -2    9.91    1.80
   0   4   2    6.37    1.30
   0   4   3  896.05   25.22
   0  -4  -3  798.77   24.92
   0  -4  -3  833.94   17.39
   0   4   3  815.86   15.05
   0   4   4 1356.52   30.41
   0  -4  -4 1384.28   30.10
   0  -4  -4 1279.17   16.00
   0   4   5   44.45    8.56
   0  -4  -5   47.15    9.51
   0   4   6   23.82    7.66
   0  -4  -6   26.76   11.12
   0   4   7   59.70   10.66
   0  -4  -7   58.04   11.86
   0  -5  10   28.53    8.27
   0   5 -10   25.54    7.93
   0  -5   9  174.72   17.14
   0   5  -9  156.62   12.33
   0   5  -9  178.47   14.62
   0  -5   8    6.29    9.40
   0  -5   8    1.12    2.57
   0   5  -8    0.26    3.75
   0  -5   7   16.14    9.14
   0  -5   7    8.19    7.51
   0   5  -7    9.75    4.86
   0  -5   6   35.77    9.04
   0  -5   6   36.13    5.43
   0   5  -6   44.96    8.02
   0  -5   5   26.48    9.13
   0  -5   5   19.85    5.06
   0   5  -5   18.10    4.97
   0  -5   4   15.17    7.41
   0  -5   4   11.61    4.09
   0   5  -4    7.99    3.65
   0  -5   3   59.79    8.55
   0  -5   3   60.37    6.29
   0   5  -3   78.22    6.72
   0  -5   2  676.90   21.91
   0  -5   2  659.77   17.02
   0   5  -2  679.49   13.17
   0  -5   1  444.69   16.82
   0  -5   1  429.62   14.92
   0   5  -1  455.06    9.03
   0  -5   0   21.83    6.54
   0  -5   0   23.57    6.29
   0   5   0   23.04    2.46
   0   5   0   22.82    2.10
   0   5   1   95.27   13.81
   0  -5  -1   95.11    8.55
   0   5   1  100.56    3.31
   0   5   2  135.12   18.91
   0  -5  -2  137.49   11.31
   0   5   2  128.43    3.35
   0   5   3  136.15   11.61
   0  -5  -3  132.80   12.66
   0   5   4   47.09    7.12
   0  -5  -4   49.68    9.56
   0   5   5   18.26    6.24
   0  -5  -5   21.42    7.44
   0   5   6   25.47    7.82
   0  -5  -6   24.83    9.64
   0  -6   9   48.84   12.96
   0   6  -9   49.09    9.96
   0  -6   8   26.10   10.51
   0  -6   8   20.49    6.87
   0   6  -8   20.93    5.69
   0  -6   7  132.73   13.72
   0  -6   7  125.80    8.87
   0   6  -7  153.84   11.20
   0  -6   6   61.52   11.29
   0  -6   6   49.44    7.26
   0   6  -6   58.30    9.09
   0  -6   5   36.18    8.81
   0  -6   5   41.34    6.40
   0   6  -5   37.65    6.30
   0  -6   4  233.82   17.77
   0  -6   4  226.21   11.80
   0   6  -4  289.62   11.99
   0  -6   3   87.57   13.45
   0  -6   3   86.64    9.30
   0   6  -3   79.48    6.65
   0  -6   2  344.31   18.86
   0  -6   2  349.03   15.72
   0   6  -2  225.96    7.79
   0  -6   1   13.03    9.58
   0  -6   1   12.91    5.44
   0   6  -1   15.91    2.79
   0  -6   0   52.24    9.19
   0  -6   0   45.57    6.29
   0   6   0   46.59    2.77
   0   6   1  123.28   17.48
   0  -6  -1  131.11   11.20
   0   6   2  149.14   17.29
   0  -6  -2  165.48   12.21
   0   6   3   67.16   10.34
   0  -6  -3   66.89   10.84
   0   6   4   20.52   14.47
   0  -6  -4   21.32    7.53
   0   6   5   28.61    7.78
   0  -6  -5   25.81    9.24
   0  -7   9    5.00    6.34
   0   7  -9    3.89    6.80
   0  -7   8   28.92   11.60
   0   7  -8   34.72    7.50
   0  -7   7   24.90    6.88
   0  -7   7   24.48    4.69
   0   7  -7   20.52    5.96
   0  -7   6  139.02   14.64
   0  -7   6  123.62    8.84
   0   7  -6  146.88   10.79
   0  -7   5    9.23    7.39
   0  -7   5    8.43    4.10
   0   7  -5    7.05    4.82
   0  -7   4    2.83    6.14
   0  -7   4    1.19    3.22
   0   7  -4    3.05    4.40
   0  -7   3  749.25   27.65
   0  -7   3  742.77   22.54
   0   7  -3  795.50   15.20
   0  -7   2  137.88   14.96
   0  -7   2  134.09   10.93
   0   7  -2  124.89    6.86
   0  -7   1  204.54   15.28
   0  -7   1  195.55   12.65
   0   7  -1  195.86    6.01
   0  -7   0   80.92   12.37
   0  -7   0   68.15    8.84
   0  -7  -1   16.19    8.20
   0  -7  -1   16.61    6.51
   0   7   2    5.17    7.16
   0  -7  -2   11.44    7.36
   0   7   3   38.73    9.09
   0  -7  -3   40.21   10.29
   0   7   4   51.76   13.79
   0  -7  -4   65.21   13.38
   0  -8   8   28.54   12.83
   0   8  -8   25.46    8.03
   0  -8   7   41.30   12.63
   0   8  -7   32.52    6.34
   0  -8   6   26.27   10.24
   0  -8   6   23.47    6.08
   0   8  -6   22.32    5.49
   0  -8   5    3.16    6.61
   0  -8   5    2.72    4.53
   0   8  -5    0.71    2.12
   0  -8   4   22.73    8.33
   0  -8   4   29.10    6.63
   0   8  -4   24.81    4.54
   0  -8   3   14.66    9.89
   0  -8   3   11.61    5.52
   0   8  -3    9.27    3.52
   0  -8   2    4.95    9.51
   0  -8   2    1.41    4.62
   0  -8   1   31.93    9.81
   0  -8   1   34.88    7.00
   0  -8   0    4.51    7.48
   0  -8   0    0.59    4.28
   0  -8  -1   67.89   11.39
   0  -8  -1   63.12   10.45
   0  -8  -2   43.41    9.26
   0   8   3   10.24    8.25
   0  -8  -3   16.77    7.84
   0  -9   7    3.59    7.65
   0   9  -7    1.50    3.27
   0  -9   6   45.58   12.83
   0   9  -6   42.52    8.30
   0  -9   5  170.02   17.82
   0  -9   5  153.00   12.32
   0   9  -5  164.08   10.51
   0  -9   4   34.43    9.75
   0  -9   4   32.23    7.89
   0  -9   3    1.67    6.00
   0  -9   3    3.22    6.36
   0  -9   2   19.99    6.39
   0  -9   2   18.62    6.08
   0  -9   1   45.34   11.00
   0  -9   1   45.44    9.45
   0  -9   0    4.82    7.24
   0  -9   0    2.64    6.50
   0  -9  -1   46.13    9.66
   0  -9  -1   52.38    9.30
   0 -10   5   28.89   10.32
   0 -10   4    3.51    5.71
   0 -10   4    4.89    3.61
   0 -10   3  113.19   15.67
   0 -10   3   93.13   10.92
   0 -10   2   26.81    9.68
   0 -10   2   16.07    6.29
   1 -10   1    3.24    5.80
   1 -10   1    3.11    6.41
   1 -10   2   22.43    8.93
   1 -10   2   12.42    6.55
   1 -10   3  134.72   19.04
   1 -10   3  112.37   15.41
   1 -10   4   13.26    9.05
   1 -10   4   17.97    7.66
   1 -10   5    4.61    6.61
   1 -10   5    3.85    5.12
   1  -9  -2   45.88   11.49
   1  -9  -2   46.69    9.13
   1  -9  -1    6.31    8.64
   1  -9  -1    3.54    4.87
   1  -9   0   15.87    6.89
   1  -9   0   13.03    5.86
   1  -9   1   24.18    7.11
   1  -9   1   27.35    6.93
   1  -9   2    4.25    4.79
   1  -9   2    8.40    6.06
   1  -9   3   11.85    7.30
   1  -9   3   11.40    5.16
  -1   9  -3   18.66    4.50
   1  -9   4    6.06    6.50
   1  -9   4    1.87    4.41
  -1   9  -4    1.97    4.53
   1  -9   5  196.35   17.15
   1  -9   5  182.89   14.75
  -1   9  -5  198.50   12.36
   1  -9   6   58.29   12.42
   1  -9   6   49.87    9.17
  -1   9  -6   50.04    8.07
   1  -9   7    4.24    5.83
   1  -9   7    4.73    3.06
  -1   9  -7    3.53    4.52
  -1   8   3   94.17   18.70
   1  -8  -3   89.12   14.69
   1  -8  -2   10.76    6.60
   1  -8  -2   11.66    8.79
   1  -8  -1   30.66    9.07
   1  -8  -1   33.58    8.65
   1  -8   0    2.85    5.80
   1  -8   0    8.99    7.27
   1  -8   1   87.86   10.94
   1  -8   1   83.56   10.58
  -1   8  -1   90.32    5.38
   1  -8   2   42.13   10.12
   1  -8   2   37.06    8.08
  -1   8  -2   31.57    4.53
   1  -8   3    4.70    5.25
   1  -8   3    4.55    6.62
  -1   8  -3    7.11    4.52
   1  -8   4   48.76   12.24
   1  -8   4   35.93    6.88
  -1   8  -4   41.90    5.84
   1  -8   5   34.91   10.79
   1  -8   5   24.03    5.83
  -1   8  -5   27.83    6.83
   1  -8   6    3.57    6.01
   1  -8   6    1.81    3.77
  -1   8  -6    1.37    2.66
   1  -8   7    9.33    5.62
   1  -8   7    8.65    4.62
  -1   8  -7    8.77    4.68
   1  -8   8    4.28    7.36
   1  -8   8    1.90    2.92
  -1   8  -8    3.31    3.43
  -1   7   5   13.10   13.73
   1  -7  -5   17.43    7.65
  -1   7   4  276.26   25.55
   1  -7  -4  273.85   18.08
  -1   7   3   14.88    8.97
   1  -7  -3   17.10    6.59
  -1   7   2   28.47    6.31
   1  -7  -2   35.88    9.10
   1  -7  -1    0.02    4.70
   1  -7  -1    2.30    7.28
   1  -7   0   60.78    8.89
   1  -7   0   52.01    7.93
  -1   7   0   54.56    4.45
   1  -7   1   37.78    6.80
   1  -7   1   44.70    9.14
  -1   7  -1   41.56    4.53
   1  -7   2  393.83   19.10
   1  -7   2  397.74   17.91
  -1   7  -2  402.02   11.37
   1  -7   3 1277.08   31.82
   1  -7   3 1220.70   27.48
  -1   7  -3 1266.22   19.12
   1  -7   4  167.30   13.73
   1  -7   4  175.42   12.71
  -1   7  -4  186.77   10.72
   1  -7   5    6.33    6.97
   1  -7   5    5.10    6.63
  -1   7  -5    5.12    4.81
   1  -7   6   44.79   10.18
   1  -7   6   40.16    6.11
  -1   7  -6   44.74    7.79
   1  -7   7   44.63   11.20
   1  -7   7   37.42    6.49
  -1   7  -7   50.72    8.10
   1  -7   8    3.28    7.57
   1  -7   8    4.95    4.19
  -1   7  -8    6.06    6.09
   1  -7   9   56.48   12.71
   1  -7   9   35.38   11.66
  -1   7  -9   49.73    9.21
  -1   6   6  102.35   10.93
   1  -6  -6  100.22   14.12
  -1   6   5    2.42    3.96
   1  -6  -5    5.91   11.00
  -1   6   4    1.63    3.79
   1  -6  -4    4.84    8.27
  -1   6   3   52.32   14.83
   1  -6  -3   65.27    9.67
  -1   6   2  506.34   22.82
   1  -6  -2  516.40   21.39
  -1   6   2  490.53    8.85
  -1   6   1  231.70   11.36
   1  -6  -1  244.08   14.66
  -1   6   1  228.80    6.43
   1  -6   0  299.35   16.30
   1  -6   0  288.28   14.51
  -1   6   0  273.98    8.41
   1  -6   1  407.04   18.80
   1  -6   1  433.32   18.21
  -1   6  -1  392.82   10.67
   1  -6   2  901.65   28.24
   1  -6   2  890.52   25.76
  -1   6  -2  883.68   19.65
   1  -6   3   40.33    7.62
   1  -6   3   49.72    8.10
  -1   6  -3   64.46    6.91
   1  -6   4  154.32   12.29
   1  -6   4  175.10   12.06
  -1   6  -4  201.87   10.39
   1  -6   5   13.16    6.72
   1  -6   5   16.82    6.30
  -1   6  -5   10.15    4.32
   1  -6   6   21.80    7.47
   1  -6   6   25.04    7.57
  -1   6  -6   18.50    5.80
   1  -6   7   14.37    9.46
   1  -6   7   11.79    4.63
  -1   6  -7   11.67    4.71
   1  -6   8    5.02    5.86
   1  -6   8    2.39    3.20
  -1   6  -8    3.85    5.18
   1  -6   9   37.55    9.51
   1  -6   9   30.83   22.11
  -1   6  -9   42.98    8.62
  -1   5   7   16.23    6.81
   1  -5  -7   17.40    8.81
  -1   5   6    0.76    4.19
   1  -5  -6    2.66    6.07
  -1   5   5   32.07    6.47
   1  -5  -5   39.58   11.78
  -1   5   4    8.80    6.08
   1  -5  -4    1.52    5.83
   1  -5  -4    7.66    2.71
  -1   5   3   16.16    6.94
   1  -5  -3   17.34    7.44
   1  -5  -3   12.69    3.11
  -1   5   2   44.76    8.85
   1  -5  -2   51.99    8.10
   1  -5  -2   39.96    9.68
  -1   5   1    0.57    2.05
   1  -5  -1    0.95    4.51
  -1   5   1    0.91    1.77
   1  -5   0   21.49    6.76
   1  -5   0   22.89    5.71
  -1   5   0   25.55    2.91
   1  -5   1  378.36   15.65
   1  -5   1  374.71   14.23
  -1   5  -1  375.05    9.37
   1  -5   2  505.27   18.18
   1  -5   2  466.67   15.80
  -1   5  -2  463.82   11.74
   1  -5   3   36.17    7.58
   1  -5   3   39.77    7.00
  -1   5  -3   37.65    5.53
   1  -5   4    1.92    4.45
   1  -5   4    3.26    4.07
  -1   5  -4    1.15    3.14
   1  -5   5   61.51   10.83
   1  -5   5   55.56    7.56
  -1   5  -5   64.40    8.54
   1  -5   6   62.73   13.33
   1  -5   6   59.71    7.85
  -1   5  -6   61.84    8.43
   1  -5   7  171.41   15.17
   1  -5   7  151.11   26.45
  -1   5  -7  170.28   13.84
   1  -5   8  186.12   17.70
   1  -5   8  174.79   18.14
  -1   5  -8  194.26   13.38
   1  -5   9   13.06    8.13
   1  -5   9   20.85    7.04
  -1   5  -9   16.77    7.71
  -1   4   7  261.61   16.72
   1  -4  -7  309.33   23.15
  -1   4   6    6.21    5.07
   1  -4  -6    5.54    5.71
   1  -4  -6    2.72    2.79
  -1   4   5    6.75    5.78
   1  -4  -5    5.49    7.56
   1  -4  -5    6.70    3.24
  -1   4   4  969.45   23.18
   1  -4  -4  984.77   25.13
   1  -4  -4  966.91   16.61
  -1   4   3   30.79    6.22
   1  -4  -3   35.47    7.41
   1  -4  -3   35.06    4.49
  -1   4   2   11.53    4.57
   1  -4  -2    7.20    5.03
   1  -4  -2    9.81    2.72
  -1   4   1  458.11   13.09
   1  -4  -1  452.11   14.60
   1  -4  -1  455.58   12.58
   1  -4   0 1382.00   28.92
   1  -4   0 1314.20   26.68
  -1   4   0 1406.08   22.72
   1  -4   1   20.31    5.39
   1  -4   1   30.70    5.44
  -1   4  -1   32.71    3.51
   1  -4   2  112.59    8.88
   1  -4   2  113.30    8.61
  -1   4  -2  165.70    7.82
   1  -4   3    7.67    4.18
   1  -4   3   12.45    5.31
  -1   4  -3   17.77    3.77
   1  -4   4   11.22    4.98
   1  -4   4   11.42    5.85
  -1   4  -4   13.87    3.69
   1  -4   5   68.92   11.68
   1  -4   5   72.17    7.88
  -1   4  -5   66.84    8.13
   1  -4   6   40.68    9.04
   1  -4   6   46.30   12.72
  -1   4  -6   46.60    7.42
   1  -4   7  214.60   16.13
   1  -4   7  206.65   22.49
  -1   4  -7  211.20   13.12
   1  -4   8   16.05    6.55
   1  -4   8   16.69   15.10
  -1   4  -8   23.65    6.56
   1  -4   9   93.08   18.10
  -1   4  -9   83.57   10.72
  -1   4  -9   70.15   11.27
  -1   3   8   85.27   13.71
   1  -3  -8  100.93   13.98
  -1   3   7   21.48    8.08
   1  -3  -7   26.27    9.06
   1  -3  -7   17.38    4.01
  -1   3   6   64.42    9.97
   1  -3  -6   56.98    8.75
   1  -3  -6   57.00    7.32
  -1   3   5   14.54    7.89
   1  -3  -5   21.71    8.77
   1  -3  -5   19.14    4.32
  -1   3   4   33.93    6.86
   1  -3  -4   29.49    7.38
   1  -3  -4   28.61    4.03
  -1   3   3   28.51    6.37
   1  -3  -3   31.54    6.47
   1  -3  -3   33.65    4.34
  -1   3   2  217.80    9.39
   1  -3  -2  249.50   10.81
   1  -3  -2  230.11    7.72
  -1   3   1  799.57   12.46
   1  -3  -1  881.83   15.15
   1  -3  -1  804.46   10.16
   1  -3   0 3986.61   23.37
   1  -3   0 3906.84   29.95
   1  -3   0 3992.30   59.69
  -1   3   0 3981.84   22.02
   1  -3   1 1348.28   17.74
  -1   3  -1 1417.62   17.33
   1  -3   1 1422.05   17.12
  -1   3  -1 1384.81   12.13
   1  -3   2  209.07    9.79
   1  -3   2  206.30    8.04
  -1   3  -2  233.71    6.57
   1  -3   3    8.18    4.42
   1  -3   3    9.36    4.25
  -1   3  -3   10.24    3.72
   1  -3   4  374.13   15.79
   1  -3   4  375.91   14.87
  -1   3  -4  366.53   12.87
   1  -3   5   57.40    9.14
   1  -3   5   59.67   15.00
  -1   3  -5   53.95    7.30
   1  -3   6 1366.91   33.47
   1  -3   6 1422.00   41.81
  -1   3  -6 1188.24   20.13
   1  -3   7  362.88   20.55
   1  -3   7  363.87   25.38
  -1   3  -7  422.26   17.81
   1  -3   8    1.28    5.60
  -1   3  -8    6.34    5.65
  -1   3  -8    7.41    5.04
   1  -3   9   83.13   15.53
  -1   3  -9   69.26    9.86
  -1   3  -9   65.34    8.96
  -1   2   9   45.57   10.17
   1  -2  -9   58.95   10.85
   1  -2  -9   46.23    7.74
  -1   2   8   12.57    7.94
   1  -2  -8   11.89    5.98
   1  -2  -8    8.72    4.20
  -1   2   7   28.67    7.42
   1  -2  -7   29.81    8.57
   1  -2  -7   27.37    5.45
  -1   2   6  524.22   20.63
   1  -2  -6  574.02   19.91
   1  -2  -6  507.10   14.72
  -1   2   5   48.71    8.08
   1  -2  -5   48.84    8.18
   1  -2  -5   45.48    6.62
  -1   2   4   10.01    5.11
   1  -2  -4    9.34    3.95
   1  -2  -4    8.70    2.69
  -1   2   3  219.54    9.47
   1  -2  -3  209.27    9.31
   1  -2  -3  207.95    7.01
  -1   2   2  351.77    9.11
   1  -2  -2  367.19   10.79
   1  -2  -2  348.91    7.33
  -1   2   2  340.50    6.28
  -1   2   1  577.76    9.22
   1  -2  -1  548.49    8.51
   1  -2  -1  581.95    8.66
  -1   2   1  570.24    7.80
   1  -2   0  591.10    6.99
   1  -2   0  566.64    9.20
   1  -2   0  582.51   10.19
  -1   2   0  606.10    9.21
   1  -2   0  597.35    8.23
  -1   2   0  568.50    7.32
   1  -2   1    5.31    3.73
  -1   2  -1    3.56    2.52
   1  -2   1    5.35    4.35
  -1   2  -1    4.55    2.39
  -1   2  -1    4.47    2.43
   1  -2   1    3.48    1.93
   1  -2   2  747.60   13.62
  -1   2  -2  838.52   13.43
   1  -2   2  791.42   12.64
  -1   2  -2  821.49    9.88
   1  -2   3   83.58    7.60
   1  -2   3   73.49    5.99
  -1   2  -3  112.86    6.17
   1  -2   4  544.78   17.88
   1  -2   4  497.70   23.62
  -1   2  -4  548.28   13.53
   1  -2   5   60.48    7.65
   1  -2   5   62.05    6.64
  -1   2  -5   63.25    6.21
   1  -2   6  767.98   27.62
   1  -2   6  675.07   18.93
  -1   2  -6  651.82   15.66
   1  -2   7   19.00   10.83
  -1   2  -7   10.45    5.64
  -1   2  -7   12.18    4.34
   1  -2   8   33.99   11.33
  -1   2  -8   32.08    7.33
  -1   2  -8   29.97    7.26
   1  -2   9   29.29   10.06
  -1   2  -9   40.56    8.80
  -1   2  -9   30.18    7.61
  -1   1   9   -0.12    4.62
   1  -1  -9    4.10    4.92
   1  -1  -9    7.25    6.75
  -1   1   8   36.57    9.35
   1  -1  -8   30.40    7.26
   1  -1  -8   27.92    5.72
  -1   1   7    0.13    3.96
   1  -1  -7    1.85    4.80
   1  -1  -7    0.97    3.22
  -1   1   6  240.83   14.27
   1  -1  -6  245.51   12.90
   1  -1  -6  252.72   10.83
  -1   1   5    1.40    3.65
   1  -1  -5    2.66    4.31
   1  -1  -5   -0.20    2.58
  -1   1   4  451.74   15.42
   1  -1  -4  475.72   14.36
   1  -1  -4  454.02   11.82
  -1   1   3  791.78   14.68
   1  -1  -3  834.82   14.07
   1  -1  -3  800.72   11.46
  -1   1   2  566.16    9.90
   1  -1  -2  564.59    9.84
   1  -1  -2  515.48    9.66
  -1   1   2  517.06    8.67
   1  -1  -2  534.73    8.20
  -1   1   2  509.65    6.77
  -1   1   1  824.53    7.93
   1  -1  -1  826.37    9.56
  -1   1   1  814.17    9.22
   1  -1  -1  863.09    9.12
  -1   1   1  831.94    8.37
   1  -1   0   15.63    1.17
  -1   1   0   17.12    2.07
   1  -1   0   16.34    1.96
   1  -1   0   18.99    2.21
  -1   1   0   17.11    1.80
   1  -1   1   37.99    3.34
  -1   1  -1   39.97    3.27
   1  -1   1   36.71    3.74
  -1   1  -1   35.07    2.65
  -1   1  -1   38.64    2.42
   1  -1   1   37.55    2.16
  -1   1  -2 3476.99   25.33
   1  -1   2 3438.28   23.23
  -1   1  -2 3286.26   16.80
   1  -1   2 3408.78   16.90
   1  -1   3 1025.13   17.41
   1  -1   3 1052.69   15.27
  -1   1  -3 1082.86   11.84
   1  -1   4 1119.29   27.50
   1  -1   4 1000.96   28.82
  -1   1  -4  991.50   19.58
   1  -1   5   -0.39    5.84
  -1   1  -5    0.19    2.65
   1  -1   6  509.90   23.35
  -1   1  -6  436.37   17.50
  -1   1  -6  457.14   14.10
   1  -1   7   16.86    6.42
  -1   1  -7   17.16    6.31
  -1   1  -7   11.14    5.01
   1  -1   8    0.00    5.43
  -1   1  -8    1.84    5.10
  -1   1  -8    4.15    5.35
   1  -1   9   12.94    7.85
  -1   1  -9   10.44    6.40
  -1   1  -9   10.41    5.84
  -1   0   9   22.06    8.99
   1   0  -9   13.94    6.54
   1   0  -9   19.55    6.48
  -1   0   8    2.23    4.35
   1   0  -8    2.44    4.18
   1   0  -8    4.44    4.98
  -1   0   7   47.99    9.35
   1   0  -7   65.66    9.17
   1   0  -7   55.52    7.89
  -1   0   6  347.45   19.40
   1   0  -6  290.70   13.35
   1   0  -6  299.02   13.50
  -1   0   5   29.04    7.85
   1   0  -5   26.42    5.34
   1   0  -5   21.60    4.26
  -1   0   4 1403.24   29.16
   1   0  -4 1321.66   25.04
   1   0  -4 1394.96   24.74
  -1   0   3 3854.15   29.69
   1   0  -3 3874.92   23.66
  -1   0   3 3840.88   22.30
   1   0  -3 3922.15   21.77
  -1   0   2  566.77   10.85
   1   0  -2  602.71    9.96
   1   0  -2  561.60    7.76
  -1   0   2  558.37    7.21
   1   0  -2  593.33    8.30
  -1   0   2  599.17    7.16
  -1   0   1   16.41    2.16
   1   0  -1   17.68    2.07
   1   0  -1   20.05    1.44
  -1   0   1   19.26    1.63
   1   0  -1   15.27    2.04
  -1   0   1   18.39    1.76
   1   0   0   27.87    1.70
  -1   0   0   26.73    1.59
   1   0   0   27.54    1.97
  -1   0   0   30.18    2.04
   1   0   0   27.97    1.87
  -1   0   0   27.70    1.93
   1   0   1  374.39    6.87
  -1   0  -1  369.73    6.79
   1   0   1  385.96    8.36
  -1   0  -1  393.16    7.02
  -1   0  -1  394.19    4.75
   1   0   1  389.12    4.85
   1   0   2  572.70   11.21
   1   0   2  595.55   10.08
  -1   0  -2  584.33    7.29
   1   0   2  562.29    6.69
   1   0   3 1819.83   22.04
  -1   0  -3 1866.68   20.83
  -1   0  -3 1767.83   13.47
   1   0   4  292.01   13.13
  -1   0  -4  318.16   12.13
  -1   0  -4  310.90    9.22
   1   0   5  132.14   10.32
  -1   0  -5  140.86   10.36
  -1   0  -5  141.55    7.98
   1   0   6  208.92   13.02
  -1   0  -6  215.88   13.06
  -1   0  -6  224.31   10.69
   1   0   7   12.96    7.85
  -1   0  -7   10.05    4.96
  -1   0  -7   10.18    4.65
   1   0   8   25.87    7.37
  -1   0  -8   36.50    9.00
  -1   0  -8   29.94    6.24
   1   0   9    7.19    7.79
  -1   0  -9    0.66    4.79
  -1   0  -9    3.76    4.31
  -1  -1  10    1.38    4.47
   1   1 -10    4.15    6.77
   1   1 -10    0.95    3.76
  -1  -1   9   31.13   10.62
   1   1  -9   35.36    8.02
   1   1  -9   30.19    8.00
  -1  -1   8  102.81   15.29
   1   1  -8   97.85   10.94
   1   1  -8   93.79    9.27
  -1  -1   7   52.47   15.28
   1   1  -7   47.29    7.97
   1   1  -7   52.00    7.82
  -1  -1   6  401.11   19.19
   1   1  -6  434.09   16.21
   1   1  -6  430.41   15.70
  -1  -1   5  353.40   14.64
   1   1  -5  379.77   12.42
   1   1  -5  376.47   12.06
  -1  -1   4   30.76    6.62
   1   1  -4   31.86    4.56
   1   1  -4   35.28    4.95
  -1  -1   3 1453.23   20.42
   1   1  -3 1451.18   11.99
   1   1  -3 1434.27   12.14
   1   1  -3 1391.28   12.82
  -1  -1   2    3.92    3.91
   1   1  -2    2.70    2.73
   1   1  -2    5.18    1.35
   1   1  -2    7.54    3.53
  -1  -1   2    8.44    1.96
   1   1   0  386.47    6.91
  -1  -1   0  367.56    6.30
  -1  -1   0  388.82    6.20
   1   1   0  382.29    5.56
   1   1   0  371.63    3.85
  -1  -1   0  367.65    3.67
   1   1   1 2131.15   17.50
  -1  -1  -1 2167.96   17.25
  -1  -1  -1 2045.21   16.87
   1   1   2  192.67    7.77
  -1  -1  -2  193.42    7.17
  -1  -1  -2  206.03    4.17
   1   1   2  188.54    3.91
   1   1   3  482.39   16.47
  -1  -1  -3  453.46   14.81
  -1  -1  -3  484.58   10.18
   1   1   4  172.25   10.71
  -1  -1  -4  184.64   10.85
  -1  -1  -4  179.77    6.50
   1   1   5    0.91    5.24
  -1  -1  -5    2.55    5.13
  -1  -1  -5    1.45    3.34
   1   1   6  230.92   14.70
  -1  -1  -6  246.32   14.71
  -1  -1  -6  236.21    9.67
   1   1   7    7.97    9.31
  -1  -1  -7   -0.17    4.64
  -1  -1  -7    2.43    2.57
   1   1   8   41.60    9.07
  -1  -1  -8   27.74    7.99
  -1  -1  -8   30.91    6.37
  -1  -2  10   28.18   12.70
   1   2 -10   13.15    5.49
   1   2 -10   16.15    6.17
  -1  -2   9   12.45    7.97
   1   2  -9   10.51    5.93
   1   2  -9    5.82    5.88
  -1  -2   8   39.25    9.05
   1   2  -8   37.21    6.85
   1   2  -8   35.51    7.25
  -1  -2   7  388.52   20.38
   1   2  -7  417.50   15.65
   1   2  -7  444.82   18.45
  -1  -2   6  932.67   26.94
   1   2  -6  944.54   18.30
   1   2  -6  878.10   22.84
  -1  -2   5  456.50   19.01
   1   2  -5  476.89   12.64
   1   2  -5  453.51   14.19
  -1  -2   4  127.69   10.94
  -1  -2   4  124.34    6.77
   1   2  -4  127.88    5.92
   1   2  -4  142.57    8.22
  -1  -2   3  212.09   10.37
  -1  -2   3  214.53    4.92
   1   2  -3  213.66    5.00
   1   2  -3  202.62    6.28
  -1  -2   2  755.90   15.11
  -1  -2   2  778.86    7.12
   1   2  -2  773.67    7.04
   1   2  -2  790.90    8.93
  -1  -2   2  784.89    7.70
  -1  -2   1 3258.93   27.67
   1   2  -1 3220.45   15.44
   1   2   0  622.94   11.55
  -1  -2   0  596.31    9.93
   1   2   0  563.83    8.58
   1   2   1  198.87    7.91
  -1  -2  -1  195.94    7.14
   1   2   2  353.88   12.13
  -1  -2  -2  375.96   12.76
  -1  -2  -2  329.32    6.16
   1   2   2  351.09    6.41
   1   2   3   10.50    6.04
  -1  -2  -3   14.36    6.95
  -1  -2  -3   13.27    2.69
   1   2   3   10.86    1.75
   1   2   4  105.56    9.97
  -1  -2  -4  103.51    8.79
  -1  -2  -4  105.26    5.47
   1   2   5  342.26   16.94
  -1  -2  -5  356.27   16.68
  -1  -2  -5  333.15   10.53
   1   2   6    7.76    5.13
  -1  -2  -6    4.57    5.75
  -1  -2  -6   10.13    3.31
   1   2   7   10.46    7.25
  -1  -2  -7    8.39    6.48
  -1  -2  -7    7.55    3.92
   1   2   8    0.66    5.41
  -1  -2  -8    4.22    8.69
  -1  -3  10  136.31   22.27
   1   3 -10  134.96   16.96
   1   3 -10  105.77   14.69
  -1  -3   9   17.97    8.17
   1   3  -9   19.39    5.54
   1   3  -9   15.81    7.82
  -1  -3   8    3.06    5.27
   1   3  -8    4.99    3.62
   1   3  -8    5.07    4.53
  -1  -3   7 1230.03   34.23
   1   3  -7 1202.62   21.99
   1   3  -7 1242.75   24.22
  -1  -3   6   54.86    9.68
   1   3  -6   54.04    7.06
  -1  -3   5   28.65    7.68
  -1  -3   5   28.32    5.80
   1   3  -5   36.02    5.81
  -1  -3   4   15.45    8.72
  -1  -3   4   10.06    3.09
   1   3  -4   11.32    2.43
   1   3  -4   17.36    4.04
  -1  -3   3   24.01    6.95
   1   3  -3    6.49    1.79
   1   3  -3   13.49    3.20
  -1  -3   2   73.96    7.17
  -1  -3   2   80.60    4.30
   1   3  -2   80.99    3.90
   1   3  -2   79.97    4.11
  -1  -3   2   68.81    3.43
  -1  -3   1  995.80   19.79
  -1  -3   1 1025.85   13.01
   1   3  -1 1028.75   12.45
   1   3  -1 1012.72    7.38
  -1  -3   1 1049.73    7.33
   1   3   0 1872.81   20.65
  -1  -3   0 1835.59   18.91
   1   3   1  463.98   14.79
  -1  -3  -1  448.75   13.91
   1   3   2   12.67    5.32
  -1  -3  -2   13.26    5.19
  -1  -3  -2    9.47    1.05
   1   3   2   14.07    1.15
   1   3   3    2.84    6.12
  -1  -3  -3    0.61    4.58
  -1  -3  -3    1.92    1.52
   1   3   3    2.86    1.06
   1   3   4  383.72   16.54
  -1  -3  -4  376.96   16.47
  -1  -3  -4  357.92    7.95
   1   3   5   12.85    6.83
  -1  -3  -5   11.21    6.95
  -1  -3  -5    9.20    2.64
   1   3   6  103.32   10.85
  -1  -3  -6  113.21   13.40
   1   3   7  229.58   16.78
  -1  -3  -7  259.26   17.94
  -1  -4  10   15.03    7.93
   1   4 -10    8.63    6.25
  -1  -4   9    1.77    5.13
   1   4  -9    3.73    5.34
   1   4  -9    4.04    6.12
  -1  -4   8   46.29   11.36
   1   4  -8   41.34    6.48
   1   4  -8   39.31    8.18
  -1  -4   7  179.74   17.53
   1   4  -7  161.83   11.33
  -1  -4   6  159.26   13.15
  -1  -4   6  171.94   13.27
   1   4  -6  189.98   12.56
  -1  -4   5    6.50    6.09
  -1  -4   5    0.25    1.56
   1   4  -5    3.15    4.73
  -1  -4   4   16.98    6.84
  -1  -4   4   11.67    2.49
   1   4  -4   11.14    3.83
  -1  -4   3  367.19   19.00
  -1  -4   3  337.88   10.60
   1   4  -3  371.19   10.49
  -1  -4   2  544.96   20.16
  -1  -4   2  527.07   13.34
   1   4  -2  487.25   10.26
  -1  -4   1  988.98   27.37
  -1  -4   1  960.01   19.80
   1   4  -1  983.38   15.10
  -1  -4   1 1042.70   16.05
   1   4   0  302.38   12.46
  -1  -4   0  306.04   11.63
   1   4   1  175.20   10.30
  -1  -4  -1  170.41    9.57
   1   4   2   95.74   10.33
  -1  -4  -2  106.13    9.56
   1   4   3  391.29   17.26
  -1  -4  -3  402.65   17.17
  -1  -4  -3  305.64    4.01
   1   4   4   56.90    9.14
  -1  -4  -4   61.75   10.85
   1   4   5   19.82    7.26
  -1  -4  -5   19.46    6.33
   1   4   6   53.99    9.88
  -1  -4  -6   65.27   11.01
   1   4   7   22.18    8.53
  -1  -4  -7   27.62    9.32
  -1  -5  10    2.25    6.22
   1   5 -10    4.51    7.36
  -1  -5   9  178.38   16.66
   1   5  -9  190.74   12.96
  -1  -5   8   35.48   12.62
   1   5  -8   24.76    6.48
  -1  -5   7    6.32    7.05
  -1  -5   7    4.47    3.72
   1   5  -7    4.83    4.58
  -1  -5   6   11.00    6.79
  -1  -5   6   11.14    5.82
   1   5  -6    8.17    4.41
  -1  -5   5   58.55    9.42
  -1  -5   5   54.67    5.61
   1   5  -5   61.83    6.22
  -1  -5   4   66.00   12.38
  -1  -5   4   65.79    5.85
   1   5  -4   80.38    7.26
  -1  -5   3   47.30    9.19
  -1  -5   3   43.97    5.35
   1   5  -3   67.69    5.52
  -1  -5   2   59.34    8.85
  -1  -5   2   55.14    6.30
   1   5  -2   64.85    3.89
  -1  -5   1    3.02    6.41
  -1  -5   1    1.78    4.74
   1   5  -1   -0.04    0.66
  -1  -5   0  137.22    8.97
   1   5   1    2.15    4.75
  -1  -5  -1    2.51    5.34
   1   5   2  336.94   18.10
  -1  -5  -2  348.06   16.89
   1   5   3   11.50    6.64
  -1  -5  -3   11.85    7.66
   1   5   4   15.95    6.02
  -1  -5  -4   17.00    7.55
   1   5   5   30.13    7.30
  -1  -5  -5   56.40   10.41
   1   5   6   44.96    8.10
  -1  -5  -6   58.60   14.26
  -1  -6   9   47.59   10.49
   1   6  -9   46.81   10.46
  -1  -6   8    5.23    6.74
   1   6  -8    3.16    5.22
  -1  -6   7   44.52   10.40
  -1  -6   7   32.05   14.69
   1   6  -7   53.21    9.84
  -1  -6   6   26.11   10.78
  -1  -6   6   20.65    4.22
   1   6  -6   18.89    5.47
  -1  -6   5   57.31   10.45
  -1  -6   5   58.32    6.32
   1   6  -5   58.08    6.96
  -1  -6   4   43.86   11.10
  -1  -6   4   38.34    5.95
   1   6  -4   47.27    5.22
  -1  -6   3 1431.00   36.97
  -1  -6   3 1371.52   24.34
   1   6  -3 1282.64   15.68
  -1  -6   2  684.69   24.52
  -1  -6   2  669.16   18.42
   1   6  -2  668.43   10.49
  -1  -6   1  412.54   21.13
  -1  -6   1  452.65   17.01
  -1  -6   0  207.62   16.12
  -1  -6   0  219.68   12.80
   1   6   1  213.80   21.47
  -1  -6  -1  258.41   14.93
   1   6   2    4.68    7.79
  -1  -6  -2   12.31    6.82
   1   6   3  100.14   20.83
  -1  -6  -3  113.51   12.21
   1   6   4   54.80   17.33
  -1  -6  -4   58.28   12.09
   1   6   5   40.50   22.36
  -1  -6  -5   46.78   10.16
  -1  -7   9    3.89    8.49
   1   7  -9    4.01    5.51
  -1  -7   8    6.69    8.40
   1   7  -8    4.94    4.67
  -1  -7   7   46.94   11.79
   1   7  -7   48.01    6.84
  -1  -7   6   15.32   11.40
  -1  -7   6    9.46    3.86
   1   7  -6    9.26    4.15
  -1  -7   5  175.88   18.67
  -1  -7   5  161.35    9.29
   1   7  -5  184.35   10.54
  -1  -7   4  208.02   17.42
  -1  -7   4  215.55   11.81
   1   7  -4  215.49    9.92
  -1  -7   3  371.10   21.93
  -1  -7   3  348.77   14.17
   1   7  -3  371.67   11.52
  -1  -7   2    7.72    5.02
  -1  -7   2   12.33    4.88
   1   7  -2   11.55    2.56
  -1  -7   1   16.47    7.65
  -1  -7   1   11.52    5.13
  -1  -7   0    7.78    8.84
  -1  -7   0    9.58    5.42
  -1  -7  -1    4.30    8.03
  -1  -7  -1    4.62    6.15
   1   7   2    8.69    6.49
  -1  -7  -2   11.80    7.90
   1   7   3  227.91   23.78
  -1  -7  -3  265.68   18.09
   1   7   4   17.67   16.45
  -1  -7  -4   22.18    7.31
  -1  -8   8    2.86    8.45
   1   8  -8    3.13    5.80
  -1  -8   7   10.79    8.99
   1   8  -7    9.71    6.35
  -1  -8   6    5.84    9.09
   1   8  -6    1.79    3.77
  -1  -8   5  193.63   21.17
   1   8  -5  184.78    9.90
  -1  -8   4   13.51    8.71
  -1  -8   4   25.13    5.93
   1   8  -4   15.16    3.75
  -1  -8   3    4.02    5.87
  -1  -8   3    5.36    4.45
  -1  -8   2   33.32    9.27
  -1  -8   2   27.16    6.89
  -1  -8   1    3.49    9.31
  -1  -8   1    4.03    5.65
  -1  -8   0   26.94    8.12
  -1  -8   0   31.13    8.16
  -1  -8  -1   42.12   11.47
  -1  -8  -1   38.64    9.45
  -1  -8  -2    2.50    4.45
  -1  -9   7   53.61   15.11
   1   9  -7   54.78    7.64
  -1  -9   6   53.87   13.66
   1   9  -6   41.63    7.71
  -1  -9   5   15.93    8.25
  -1  -9   4   62.70   14.07
  -1  -9   3   69.51   14.02
  -1  -9   3   69.01    9.08
  -1  -9   2   34.82   10.64
  -1  -9   2   23.80    5.08
  -1  -9   1    6.64    7.25
  -1  -9   1   10.57    6.07
  -1  -9   0    5.71    7.18
  -1  -9   0    5.42    5.21
   2 -10   1   35.93    9.47
   2 -10   1   25.25    7.73
   2 -10   2   74.64   13.50
   2 -10   2   86.74   14.27
   2 -10   3   39.26   11.53
   2 -10   3   40.05   10.79
   2 -10   4    5.09    8.27
   2 -10   4    1.53    4.43
  -2  10  -4    3.56    4.63
   2 -10   5   25.58    9.83
   2 -10   5   16.53    6.37
  -2  10  -5   15.11    5.27
   2  -9  -2  126.39   15.27
   2  -9  -2  119.65   14.04
   2  -9  -1    3.91    5.72
   2  -9  -1    2.99    5.20
   2  -9   0   31.51    8.93
   2  -9   0   16.26    6.68
   2  -9   1    3.38    6.85
   2  -9   1    3.72    5.35
   2  -9   2    2.41    5.16
   2  -9   2    3.19    7.31
  -2   9  -2    0.35    2.16
   2  -9   3   59.46   11.16
   2  -9   3   57.81   10.38
  -2   9  -3   53.36    6.64
   2  -9   4  125.43   15.09
   2  -9   4  122.60   13.58
  -2   9  -4  126.66    9.47
   2  -9   5   62.25   11.85
   2  -9   5   65.61   11.02
  -2   9  -5   61.85   10.41
   2  -9   6    1.37    5.70
   2  -9   6    1.96    4.19
  -2   9  -6    1.37    3.04
   2  -9   7   86.59   15.14
   2  -9   7   81.02   10.70
  -2   9  -7   83.64   11.92
  -2   8   3    2.81    3.47
   2  -8  -3    0.43    5.39
   2  -8  -2   33.56    7.51
   2  -8  -2   30.40    9.26
   2  -8  -1    3.92    5.67
   2  -8  -1    5.26    7.52
   2  -8   0    2.32    4.11
   2  -8   0    3.45    5.44
  -2   8   0    3.18    3.23
   2  -8   1    3.60    4.41
   2  -8   1   12.44    7.53
  -2   8  -1    9.87    3.31
   2  -8   2   52.34    9.34
   2  -8   2   56.67   11.67
  -2   8  -2   48.23    5.76
   2  -8   3  120.76   13.72
   2  -8   3  105.42   12.06
  -2   8  -3   93.99    7.99
   2  -8   4    2.26    4.49
   2  -8   4    0.19    4.40
  -2   8  -4    0.76    2.60
   2  -8   5   18.14    6.25
   2  -8   5   25.17    6.61
  -2   8  -5   29.85    6.20
   2  -8   6   -0.67    3.96
   2  -8   6    7.14    6.37
  -2   8  -6    3.88    4.26
   2  -8   7    3.60    7.93
   2  -8   7    5.12    5.01
  -2   8  -7    1.38    3.48
   2  -8   8   63.02   13.13
   2  -8   8   63.89   10.01
  -2   8  -8   63.00   11.44
  -2   7   5    0.74    4.14
   2  -7  -5    1.58    5.35
  -2   7   4  108.97   12.34
   2  -7  -4  115.07   14.79
  -2   7   3   17.41   13.78
   2  -7  -3   30.56    9.00
  -2   7   2   63.36    8.50
   2  -7  -2   75.74   10.50
  -2   7   2   67.11    5.37
   2  -7  -1  141.03   12.53
   2  -7  -1  135.49   12.98
  -2   7   1  133.45    7.06
   2  -7   0  274.71   16.55
   2  -7   0  269.38   16.32
  -2   7   0  255.14    9.04
   2  -7   1  114.19   12.01
   2  -7   1  135.72   12.24
  -2   7  -1  117.26    7.73
   2  -7   2  623.16   22.58
   2  -7   2  617.57   23.69
  -2   7  -2  627.38   15.63
   2  -7   3   97.18   10.65
   2  -7   3   97.57   10.85
  -2   7  -3   93.00    8.35
   2  -7   4  101.73   12.37
   2  -7   4  104.85   15.21
  -2   7  -4  107.26    8.99
   2  -7   5  136.13   12.98
   2  -7   5  148.26   12.68
  -2   7  -5  145.47   10.56
   2  -7   6   47.65   10.61
   2  -7   6   40.60    9.35
  -2   7  -6   45.26    8.16
   2  -7   7   13.54    6.40
   2  -7   7   11.37    6.37
  -2   7  -7   17.29    6.96
   2  -7   8   20.79    7.51
   2  -7   8   13.11    6.17
  -2   7  -8   14.38    6.13
  -2   6   6   31.35    7.81
   2  -6  -6   27.58    9.74
  -2   6   5   17.27    7.46
   2  -6  -5   21.01    8.68
  -2   6   4    0.42    3.40
   2  -6  -4    5.27    8.35
   2  -6  -4    1.83    2.22
  -2   6   3   10.40    6.41
   2  -6  -3   16.81    8.04
   2  -6  -3    7.69    4.25
  -2   6   2   44.20   11.10
   2  -6  -2   44.44    8.88
   2  -6  -1    2.65    3.98
   2  -6  -1    0.51    5.52
  -2   6   1    0.85    2.72
   2  -6   0  104.83    9.82
   2  -6   0   96.83    9.82
  -2   6   0  109.74    6.42
   2  -6   1   11.54    4.98
   2  -6   1   13.10    6.03
  -2   6  -1    9.80    3.53
   2  -6   2  410.42   17.41
   2  -6   2  414.48   17.65
  -2   6  -2  387.90   12.96
   2  -6   3  186.85   12.96
   2  -6   3  214.62   13.56
  -2   6  -3  227.08    9.82
   2  -6   4    0.59    4.20
   2  -6   4    1.41    5.48
  -2   6  -4    5.35    4.44
   2  -6   5   29.86    8.12
   2  -6   5   24.11    6.47
  -2   6  -5   23.21    5.54
   2  -6   6  144.15   17.51
   2  -6   6  135.98   11.27
  -2   6  -6  158.80   10.97
   2  -6   7    8.44    8.01
   2  -6   7    3.42    4.35
  -2   6  -7    3.40    5.12
   2  -6   8    7.43    8.35
   2  -6   8   -0.02    3.67
  -2   6  -8    0.29    4.05
   2  -6   9   22.73    8.91
   2  -6   9   24.21    9.50
  -2   6  -9   24.66    8.18
  -2   5   7    2.25    5.97
   2  -5  -7    4.14    9.01
  -2   5   6   23.12    8.06
   2  -5  -6   13.16    6.68
  -2   5   5  163.50   12.09
   2  -5  -5  159.47   12.78
   2  -5  -5  168.92   10.54
  -2   5   4  446.86   17.75
   2  -5  -4  405.47   18.13
   2  -5  -4  423.37   13.09
  -2   5   3  479.08   17.01
   2  -5  -3  439.55   17.96
   2  -5  -3  460.24   12.76
  -2   5   2  201.15   22.68
   2  -5  -2  183.65   11.94
   2  -5  -2  199.43    8.46
  -2   5   1   65.42    9.40
   2  -5  -1   55.97    7.59
   2  -5  -1   54.85    5.17
   2  -5   0  171.55    9.93
   2  -5   0  190.19   12.53
  -2   5   0  153.97    7.27
   2  -5   1   41.12    6.57
   2  -5   1   45.00    7.74
  -2   5  -1   43.13    5.03
   2  -5   2  105.51    9.29
   2  -5   2  101.06    9.09
  -2   5  -2  103.38    6.68
   2  -5   3  132.78   10.73
   2  -5   3  124.68    9.62
  -2   5  -3  137.00    8.76
   2  -5   4    4.96    4.37
   2  -5   4    6.29    4.61
  -2   5  -4    4.77    4.17
   2  -5   5    3.28    4.16
   2  -5   5    3.84    5.55
  -2   5  -5    4.08    4.29
   2  -5   6   90.25   10.46
   2  -5   6   89.32   11.42
  -2   5  -6   93.26    9.35
   2  -5   7    5.56    8.85
   2  -5   7    4.34    2.67
  -2   5  -7    5.07    3.48
   2  -5   8  198.77   21.05
   2  -5   8  180.44   17.03
  -2   5  -8  178.59   12.55
   2  -5   9   12.85    9.05
   2  -5   9    8.88   11.30
  -2   5  -9   10.18    6.72
  -2   4   7  122.46   11.83
   2  -4  -7  134.67   14.89
   2  -4  -7  107.34    9.88
  -2   4   6    3.08    4.89
   2  -4  -6    2.15    5.46
   2  -4  -6    6.66    5.05
  -2   4   5  425.96   17.44
   2  -4  -5  442.23   19.20
   2  -4  -5  427.58   13.93
  -2   4   4 1469.62   26.70
   2  -4  -4 1460.72   29.16
   2  -4  -4 1434.34   22.40
  -2   4   3    6.10    3.52
   2  -4  -3   11.49    6.08
   2  -4  -3    6.41    4.56
  -2   4   2  213.69    8.68
   2  -4  -2  217.58   11.78
   2  -4  -2  211.21    8.62
  -2   4   1   66.06    7.58
   2  -4  -1   66.89    7.33
   2  -4  -1   68.15    9.27
   2  -4   0  158.49    8.20
   2  -4   0  179.59   11.10
  -2   4   0  131.01    6.50
   2  -4   1   94.38    6.59
   2  -4   1  101.88    7.65
  -2   4  -1  107.58    5.52
   2  -4   2 1055.47   23.98
   2  -4   2 1180.98   27.84
  -2   4  -2 1058.23   20.34
   2  -4   3    3.00    5.29
   2  -4   3    2.86    4.34
  -2   4  -3    1.43    2.37
   2  -4   4   69.10    8.16
   2  -4   4   72.33    7.41
  -2   4  -4   75.05    6.43
   2  -4   5  105.49   11.73
   2  -4   5  103.79   10.56
  -2   4  -5  100.29    8.45
   2  -4   6   19.16    6.31
   2  -4   6   21.78   20.49
  -2   4  -6   20.82    6.55
   2  -4   7  111.15   15.00
   2  -4   7   99.91   14.83
  -2   4  -7  105.73   10.17
   2  -4   8   29.77    9.59
   2  -4   8   25.15   14.94
  -2   4  -8   34.70    8.01
   2  -4   9    2.98    5.48
  -2   4  -9    1.17    4.67
  -2   3   8    4.94    7.25
   2  -3  -8    0.63    4.89
   2  -3  -8    4.60    4.90
  -2   3   7   20.82    7.02
   2  -3  -7   24.26    9.25
   2  -3  -7   19.74    5.42
  -2   3   6    9.34    5.21
   2  -3  -6   15.61    8.79
   2  -3  -6   11.63    5.25
  -2   3   5  467.19   16.84
   2  -3  -5  495.26   18.71
   2  -3  -5  474.90   14.52
  -2   3   4    8.56    4.32
   2  -3  -4    7.39    4.94
   2  -3  -4    8.05    3.28
  -2   3   3  114.71    6.96
   2  -3  -3  120.20    8.45
   2  -3  -3  118.48    7.00
  -2   3   2   18.45    3.77
   2  -3  -2   26.57    4.99
   2  -3  -2   20.45    4.25
  -2   3   1    5.56    2.69
   2  -3  -1    2.63    1.44
   2  -3  -1    6.32    3.46
   2  -3  -1    5.91    2.83
   2  -3   0  108.99    3.68
   2  -3   0  106.37    4.53
   2  -3   0   98.03    5.90
   2  -3   0  107.38    5.43
   2  -3   1   83.02    4.71
  -2   3  -1   79.64    4.35
   2  -3   1   76.53    5.71
  -2   3  -1   77.27    4.46
   2  -3   2 1556.20   19.22
   2  -3   2 1546.42   20.70
  -2   3  -2 1513.50   25.61
   2  -3   3  948.74   22.58
   2  -3   3  832.81   19.37
  -2   3  -3 1030.50   20.90
   2  -3   4  152.70   10.80
   2  -3   4  146.54   10.09
  -2   3  -4  169.18    9.80
   2  -3   5  180.71   12.53
   2  -3   5  200.10   14.09
  -2   3  -5  205.43   11.41
   2  -3   6  996.04   28.02
   2  -3   6 1019.68   28.15
  -2   3  -6  984.72   20.11
   2  -3   7    3.69    8.60
   2  -3   7    0.94    2.44
  -2   3  -7    0.21    2.90
   2  -3   8    2.26    6.23
  -2   3  -8    1.54    5.28
  -2   3  -8    1.76    3.55
   2  -3   9   77.11   13.79
  -2   3  -9  107.29   18.17
  -2   3  -9   82.95   12.31
  -2   2   9  123.55   12.92
   2  -2  -9  116.87   12.72
   2  -2  -9  117.41   11.60
  -2   2   8   35.93    9.75
   2  -2  -8   40.66    7.95
   2  -2  -8   29.65    5.97
  -2   2   7   68.19    9.18
   2  -2  -7   62.15    9.51
   2  -2  -7   61.96    8.32
  -2   2   6   44.10    8.82
   2  -2  -6   47.77    7.83
   2  -2  -6   43.47    7.26
  -2   2   5  192.52   11.61
   2  -2  -5  190.44   10.77
   2  -2  -5  203.74   10.32
  -2   2   4  219.91   10.35
   2  -2  -4  219.91   10.42
   2  -2  -4  218.37    9.94
  -2   2   3   20.83    3.86
   2  -2  -3   22.79    4.66
   2  -2  -3   23.60    5.14
  -2   2   2  171.65    5.65
   2  -2  -2  181.10    5.89
   2  -2  -2  177.48    7.11
   2  -2  -2  171.50    7.09
  -2   2   1  400.56    5.49
   2  -2  -1  426.58    5.96
   2  -2  -1  434.22   10.06
   2  -2  -1  423.44    8.75
   2  -2   1 1886.00   14.35
  -2   2  -1 1861.03   14.78
   2  -2   1 1874.14   19.47
  -2   2  -1 1873.86   16.39
   2  -2   2  309.78    8.34
  -2   2  -2  316.84    8.63
   2  -2   2  337.22    9.37
  -2   2  -2  311.94    7.07
   2  -2   3   66.69    6.00
   2  -2   3   73.80    7.01
  -2   2  -3   69.24    5.86
   2  -2   4  514.55   17.69
   2  -2   4  467.75   15.13
  -2   2  -4  458.36   11.84
   2  -2   5    1.91    4.94
   2  -2   5    1.11    2.02
  -2   2  -5    2.57    3.86
   2  -2   6    5.19    6.21
   2  -2   6    6.62    6.46
  -2   2  -6   14.55    6.72
   2  -2   7  109.24   10.74
  -2   2  -7  124.54   11.83
  -2   2  -7  135.02   11.48
   2  -2   8   15.73    6.56
  -2   2  -8   20.77    8.02
  -2   2  -8   17.97    5.60
   2  -2   9   31.03   10.22
  -2   2  -9   37.85    9.52
  -2   2  -9   42.38    9.03
  -2   1   9    3.69    6.23
   2  -1  -9    4.22    6.85
   2  -1  -9    3.20    3.94
  -2   1   8    4.64    7.11
   2  -1  -8    0.51    4.03
   2  -1  -8    5.40    5.08
  -2   1   7  107.79   10.43
   2  -1  -7  134.98   13.20
   2  -1  -7  128.78    9.86
  -2   1   6    0.19    4.25
   2  -1  -6    0.23    4.05
   2  -1  -6    0.92    3.66
  -2   1   5   73.64    9.63
   2  -1  -5   61.90    6.42
   2  -1  -5   64.35    7.20
  -2   1   4   77.46    8.89
   2  -1  -4   63.59    6.34
   2  -1  -4   57.04    5.83
  -2   1   3    4.65    4.21
   2  -1  -3    3.05    2.83
   2  -1  -3    9.20    3.66
   2  -1  -2  462.78    9.00
   2  -1  -2  426.21    8.44
  -2   1   2  454.43    8.27
   2  -1  -2  422.79    8.95
   2  -1  -1   41.92    4.18
   2  -1   1 1326.32   11.82
  -2   1  -1 1331.69   12.24
   2  -1   1 1400.64   15.68
  -2   1  -1 1446.76   13.13
   2  -1   2   82.62    5.02
   2  -1   2   90.76    5.54
  -2   1  -2   89.39    4.58
   2  -1   3  231.48    9.49
   2  -1   3  234.94   10.45
  -2   1  -3  263.11    9.04
   2  -1   4  259.71   11.45
   2  -1   4  278.46   23.51
  -2   1  -4  302.27   10.66
   2  -1   5   20.02    6.90
   2  -1   5   21.00    5.36
  -2   1  -5   16.92    5.38
   2  -1   6   85.38    9.72
  -2   1  -6   94.47   11.09
  -2   1  -6   89.71    7.85
   2  -1   7    4.73    4.68
  -2   1  -7    2.77    4.61
  -2   1  -7    3.44    4.25
   2  -1   8   12.78    6.60
  -2   1  -8   12.93    6.87
  -2   1  -8    9.57    5.51
   2  -1   9    5.46    7.11
  -2   1  -9    6.50    5.34
  -2   1  -9    3.94    4.12
  -2   0   9   20.62    7.18
   2   0  -9   19.26    7.17
   2   0  -9   27.15    8.89
  -2   0   8    3.06    5.83
   2   0  -8    6.61    4.45
   2   0  -8    1.16    3.78
  -2   0   7  345.76   21.42
   2   0  -7  271.10   14.12
   2   0  -7  258.58   12.79
  -2   0   6  130.37   12.33
   2   0  -6  113.55    9.43
   2   0  -6  102.77    8.88
  -2   0   5  157.20   10.83
   2   0  -5  166.81    8.44
   2   0  -5  174.19    8.99
  -2   0   4  149.78    9.81
   2   0  -4  157.90    7.17
   2   0  -4  152.56    8.43
  -2   0   3  114.46    6.85
   2   0  -3  110.68    4.41
  -2   0   3  107.23    4.07
   2   0  -3  105.06    5.57
  -2   0   2  704.27   11.09
   2   0  -2  681.58   10.88
   2   0  -2  680.30    7.64
  -2   0   2  680.09    7.33
   2   0  -2  693.50   11.09
   2   0   1  762.09   11.05
  -2   0  -1  775.21   10.58
   2   0   1  720.62   11.16
  -2   0  -1  742.36    8.80
  -2   0  -1  754.05    8.88
   2   0   2  192.54    7.31
   2   0   2  200.09    7.69
  -2   0  -2  187.77    5.19
   2   0   3  211.27    9.45
   2   0   3  211.51   10.02
  -2   0  -3  220.99    6.76
   2   0   4   85.02    7.94
  -2   0  -4   87.93    9.27
  -2   0  -4   88.88    6.16
   2   0   5   24.06    7.11
  -2   0  -5   30.25    6.61
  -2   0  -5   19.17    4.64
   2   0   6  226.94   14.75
  -2   0  -6  233.87   14.21
  -2   0  -6  243.49   11.11
   2   0   7    1.64    4.35
  -2   0  -7    4.26    7.35
  -2   0  -7    0.01    2.54
   2   0   8   19.60    8.52
  -2   0  -8   18.57    8.12
  -2   0  -8   15.18    3.94
  -2  -1  10   31.01    8.13
   2   1 -10   30.80    8.15
   2   1 -10   29.84    7.30
  -2  -1   9    0.89    5.70
   2   1  -9    0.26    3.10
   2   1  -9    2.42    5.99
  -2  -1   8    7.25    6.44
   2   1  -8    7.77    4.17
   2   1  -8    6.37    5.53
  -2  -1   7  124.82   14.41
   2   1  -7  115.45    9.52
   2   1  -7  124.60   12.98
  -2  -1   6   13.90    6.69
   2   1  -6   10.64    3.58
   2   1  -6   12.37    5.19
  -2  -1   5   37.14    7.46
   2   1  -5   42.51    4.63
   2   1  -5   43.05    7.49
  -2  -1   4  109.06    8.97
   2   1  -4  100.41    7.86
   2   1  -4  113.87    4.93
   2   1  -4  106.13    7.55
  -2  -1   3   79.58    6.54
   2   1  -3   84.42    2.72
   2   1  -3   78.26    5.08
  -2  -1   2 1869.09   21.30
   2   1  -2 1845.64   19.59
   2   1  -2 1879.82   16.24
  -2  -1   1 1405.03   13.98
  -2  -1   1 1346.16   17.52
  -2  -1   1 1384.70    9.15
   2   1  -1 1363.74   13.07
  -2  -1   1 1424.71   11.46
   2   1   0  757.96   13.11
  -2  -1   0  767.07   10.53
  -2  -1   0  765.37    9.24
   2   1   0  755.01    8.28
  -2  -1   0  780.07    8.27
   2   1   1  311.95    8.47
  -2  -1  -1  310.79    8.34
  -2  -1  -1  302.35    5.22
  -2  -1  -1  319.36    5.30
   2   1   2   12.97    4.07
  -2  -1  -2   12.99    4.26
  -2  -1  -2   15.95    2.58
   2   1   2   10.49    1.78
   2   1   3   81.32    7.39
  -2  -1  -3   80.73    8.51
  -2  -1  -3   87.13    5.98
   2   1   4    3.02    4.41
  -2  -1  -4    2.74    4.69
  -2  -1  -4    3.66    2.58
   2   1   5   17.03    8.16
  -2  -1  -5   10.57    5.29
  -2  -1  -5    7.54    2.68
   2   1   6   95.53   10.85
  -2  -1  -6  111.37   13.15
  -2  -1  -6  114.34    7.89
   2   1   7   64.58   10.36
  -2  -1  -7   66.37   10.42
  -2  -1  -7   61.38    6.35
   2   1   8   38.98   10.54
  -2  -1  -8   33.48    9.64
  -2  -2  10   90.78   17.79
   2   2 -10   79.97   12.39
  -2  -2   9    4.03    7.63
   2   2  -9    1.12    2.82
   2   2  -9    2.52    6.59
  -2  -2   8   42.72    9.82
   2   2  -8   51.97    7.47
   2   2  -8   52.26   10.27
  -2  -2   7  637.70   27.90
   2   2  -7  606.76   16.10
   2   2  -7  571.36   19.07
  -2  -2   6  398.92   19.57
   2   2  -6  423.21   13.00
   2   2  -6  401.04   15.42
  -2  -2   5  101.80   10.56
   2   2  -5   93.96    4.63
   2   2  -5  100.15    5.12
   2   2  -5   97.14    7.49
  -2  -2   4 1075.57   28.39
   2   2  -4 1053.65   16.64
   2   2  -4 1081.84   22.14
  -2  -2   3 1504.45   30.70
   2   2  -3 1640.55   16.64
  -2  -2   2  315.89   11.40
  -2  -2   2  316.98    3.06
   2   2  -2  318.39    7.41
  -2  -2   1   94.64    7.25
  -2  -2   1   94.75    4.45
  -2  -2   1   89.49    3.61
   2   2  -1   86.26    3.71
  -2  -2   1   86.32    3.01
   2   2   0  193.13    7.26
  -2  -2   0  193.28    6.37
   2   2   0  194.88    4.67
  -2  -2   0  182.42    3.63
   2   2   1   12.93    3.94
  -2  -2  -1   12.52    4.11
  -2  -2  -1   11.53    1.72
  -2  -2  -1   10.04    1.48
   2   2   2   46.98    5.49
  -2  -2  -2   43.58    6.07
  -2  -2  -2   45.16    3.94
  -2  -2  -2   46.72    2.86
   2   2   3   12.35    5.00
  -2  -2  -3   12.04    5.42
  -2  -2  -3    9.38    1.83
   2   2   4  400.86   16.74
  -2  -2  -4  402.61   16.45
  -2  -2  -4  416.55    9.34
   2   2   5   34.37    8.69
  -2  -2  -5   32.23    8.78
  -2  -2  -5   38.36    4.74
   2   2   6    7.39    5.71
  -2  -2  -6    7.48    8.30
  -2  -2  -6   10.49    3.55
   2   2   7    0.58    4.34
  -2  -2  -7    4.15    8.21
  -2  -3  10   26.89    8.91
   2   3 -10   34.27    8.81
  -2  -3   9   52.19   14.67
   2   3  -9   55.05    9.22
  -2  -3   8   96.42   15.21
   2   3  -8   94.35    7.46
   2   3  -8   99.71   10.74
  -2  -3   7  114.20   16.43
   2   3  -7   96.38    7.34
   2   3  -7   87.81    9.74
  -2  -3   6  209.52   16.11
   2   3  -6  204.16    7.75
   2   3  -6  191.86   10.98
  -2  -3   5  124.44   10.24
   2   3  -5  121.15    4.57
   2   3  -5  134.99    5.04
   2   3  -5  124.66    8.57
  -2  -3   4    2.11    5.21
  -2  -3   4    0.44    0.68
   2   3  -4    1.72    1.13
   2   3  -4    0.55    2.47
  -2  -3   3 1009.67   26.96
  -2  -3   3  935.81   14.44
   2   3  -3  884.54   13.50
   2   3  -3  906.85   17.88
  -2  -3   2   59.13    7.25
  -2  -3   2   64.94    3.68
   2   3  -2   67.68    3.31
   2   3  -2   73.22    4.71
  -2  -3   1  248.09   11.81
  -2  -3   1  244.34    8.12
   2   3  -1  237.63    6.08
  -2  -3   1  234.43    5.26
   2   3   0  195.47    8.72
  -2  -3   0  220.75    8.82
   2   3   1   84.61   15.51
  -2  -3  -1   87.30    7.98
   2   3   2   10.21    4.50
  -2  -3  -2    9.08    4.41
   2   3   3  396.82   15.17
  -2  -3  -3  391.72   15.47
   2   3   4 1073.18   27.56
  -2  -3  -4 1107.13   29.35
   2   3   5   11.08    7.95
  -2  -3  -5    8.65    5.76
   2   3   6   20.28    6.73
  -2  -3  -6   24.76    7.68
   2   3   7   67.66   10.08
  -2  -3  -7   70.39   13.08
  -2  -4  10   -1.31    5.23
   2   4 -10   -0.44    4.86
  -2  -4   9  110.48   16.43
   2   4  -9  124.54   13.29
  -2  -4   8    2.64    5.72
   2   4  -8    1.08    3.66
  -2  -4   7  105.68   16.46
   2   4  -7   97.87    6.72
   2   4  -7  111.41    9.48
  -2  -4   6    4.51    7.03
   2   4  -6    0.50    3.38
  -2  -4   5    7.14    6.74
  -2  -4   5    3.79    2.14
   2   4  -5    4.15    1.36
   2   4  -5    4.05    2.83
  -2  -4   4   67.00   10.75
  -2  -4   4   69.70    3.72
   2   4  -4   64.41    6.02
  -2  -4   3  163.51   13.20
  -2  -4   3  149.64    5.75
   2   4  -3  154.25    5.49
   2   4  -3  142.90    7.08
  -2  -4   2  449.87   19.84
  -2  -4   2  438.98   11.13
   2   4  -2  442.31    9.65
  -2  -4   1  293.27   16.47
  -2  -4   1  287.77   10.17
   2   4  -1  255.74    5.86
  -2  -4   1  250.68    4.59
   2   4   0   86.87    8.00
  -2  -4   0   92.89    7.26
   2   4   1    5.10    5.77
  -2  -4  -1    6.36    5.95
   2   4   2  416.54   15.75
  -2  -4  -2  426.55   18.13
   2   4   3 1056.29   27.32
  -2  -4  -3 1093.40   27.89
   2   4   4   21.74    7.63
  -2  -4  -4   25.82    7.64
   2   4   5    3.37    5.97
  -2  -4  -5    8.27    8.07
   2   4   6    4.40    5.14
  -2  -4  -6    6.13    5.78
  -2  -5  10   19.75    9.54
   2   5 -10   22.75    7.73
  -2  -5   9   52.64   10.83
   2   5  -9   60.63   10.22
  -2  -5   8   21.90   10.12
   2   5  -8   22.37    6.84
  -2  -5   7  135.40   15.51
   2   5  -7  147.59   12.13
  -2  -5   6   25.61   11.03
  -2  -5   6   16.84    6.13
   2   5  -6   25.43    5.23
  -2  -5   5    9.76   10.73
  -2  -5   5    4.71    2.20
   2   5  -5    7.47    5.27
  -2  -5   4   81.06   11.37
  -2  -5   4   86.38    5.34
   2   5  -4  113.56    8.19
  -2  -5   3  186.32   14.02
  -2  -5   3  196.18    8.53
   2   5  -3  183.05    7.79
  -2  -5   2    7.65    9.49
  -2  -5   2    0.99    2.25
   2   5  -2    2.01    2.10
  -2  -5   1   17.03    8.37
  -2  -5   1   20.93    5.29
  -2  -5   0   27.67    6.60
   2   5   1   15.73    7.38
  -2  -5  -1   10.74    5.58
   2   5   2   35.87   20.64
  -2  -5  -2   38.55    8.36
   2   5   3   12.78    9.86
  -2  -5  -3   13.34    7.25
   2   5   4    1.96    4.31
  -2  -5  -4    7.42    7.87
   2   5   5   95.31   13.92
  -2  -5  -5   99.43   15.02
  -2  -6   9    4.01    6.58
   2   6  -9    6.96    6.91
  -2  -6   8    3.50    7.48
   2   6  -8    6.66    5.92
  -2  -6   7   55.17   10.78
   2   6  -7   44.12    7.16
  -2  -6   6  157.32   15.60
   2   6  -6  150.63   10.68
  -2  -6   5   94.14   16.22
  -2  -6   5   80.04    5.64
   2   6  -5  101.14    9.13
  -2  -6   4   18.88    6.51
  -2  -6   4   18.02    3.54
   2   6  -4   22.71    4.74
  -2  -6   3  949.97   30.58
  -2  -6   3  905.35   18.48
   2   6  -3 1003.43   16.68
  -2  -6   2    4.28    5.24
  -2  -6   2    5.13    4.50
   2   6  -2    5.57    2.18
  -2  -6   1   90.20   12.17
  -2  -6   1   79.53    7.70
  -2  -6   0  228.02   17.92
  -2  -6   0  237.74   13.56
   2   6   1   93.93   10.10
  -2  -6  -1  117.65   12.54
   2   6   2    8.23    6.29
  -2  -6  -2    7.36    5.39
   2   6   3   19.99   10.88
  -2  -6  -3   20.79    7.16
   2   6   4    4.39    5.47
  -2  -6  -4    7.17    6.73
  -2  -7   9   87.69   15.84
   2   7  -9   84.16   11.84
  -2  -7   8    4.11    9.77
   2   7  -8    2.93    3.40
  -2  -7   7   20.19    8.95
   2   7  -7   10.19    4.22
  -2  -7   6    0.32    6.92
   2   7  -6    1.54    3.43
  -2  -7   5    6.25    8.45
   2   7  -5    1.03    2.40
  -2  -7   4  115.54   15.17
  -2  -7   4  102.49    8.69
   2   7  -4   90.93    7.32
  -2  -7   3    2.43    7.93
  -2  -7   3    0.85    2.24
   2   7  -3    0.39    1.44
  -2  -7   2  124.43   16.62
  -2  -7   2  120.52    9.16
  -2  -7   1    7.69    8.04
  -2  -7   1    5.18    3.81
  -2  -7   0    2.95    7.90
  -2  -7   0    2.52    4.22
  -2  -7  -1   68.69   12.62
  -2  -7  -1   73.36   10.36
   2   7   2    2.35    4.11
  -2  -7  -2    5.27    6.87
   2   7   3   57.65   15.06
  -2  -7  -3   92.26   14.25
  -2  -8   8   57.26   12.93
   2   8  -8   67.38   11.10
  -2  -8   7   18.45    9.27
   2   8  -7   20.30    6.20
  -2  -8   6    1.93    6.59
   2   8  -6    1.29    3.99
  -2  -8   5  170.03   16.73
  -2  -8   4   31.08   10.82
  -2  -8   3    4.31    7.15
  -2  -8   2   24.30    9.71
  -2  -8   2   14.78    4.90
  -2  -8   1    9.46    8.73
  -2  -8   1    7.47    4.12
  -2  -8   0   25.42   10.14
  -2  -8   0   15.15    6.04
  -2  -8  -1   31.60    9.86
  -2  -8  -1   21.02    6.87
  -2  -9   6   24.93    9.55
  -2  -9   5    8.47    8.53
  -2  -9   4    3.52    8.64
  -2  -9   3   81.47   14.58
  -2  -9   2   41.52   11.15
  -2  -9   1    0.69    5.83
  -2  -9   1    4.34    5.75
   3 -10   1   17.77    6.88
   3 -10   2   85.48   12.46
   3 -10   2   77.50   11.07
   3 -10   3    5.47    4.79
   3 -10   3    9.04    7.07
  -3  10  -3    3.43    3.88
   3 -10   4    5.32    4.68
   3 -10   4    3.38    4.92
  -3  10  -4    3.86    4.67
   3  -9  -2    2.60    5.69
   3  -9  -2    2.90    8.11
   3  -9  -1   44.72    9.97
   3  -9  -1   29.25    8.21
   3  -9   0   20.16    6.30
   3  -9   0   16.69    8.86
   3  -9   1   19.93    6.69
   3  -9   1   16.84    9.15
  -3   9  -1   21.25    5.23
   3  -9   2    3.92    5.38
   3  -9   2    3.41    5.57
  -3   9  -2    1.84    3.42
   3  -9   3    3.78    4.13
   3  -9   3    4.48    5.82
  -3   9  -3    1.54    2.90
   3  -9   4  215.46   17.27
   3  -9   4  198.94   16.23
  -3   9  -4  213.48   11.97
   3  -9   5   15.86    6.69
   3  -9   5   19.85    8.03
  -3   9  -5   16.80    6.38
   3  -9   6    2.78    4.43
   3  -9   6    3.96    4.58
  -3   9  -6    3.93    4.84
  -3   8   4  179.62   27.39
   3  -8  -3    4.86    4.83
   3  -8  -3    2.40    6.02
   3  -8  -2    3.43    3.90
   3  -8  -2    3.02    5.50
   3  -8  -1    8.52    4.77
   3  -8  -1    7.43    5.84
  -3   8   1   11.19    3.56
   3  -8   0   15.71    5.27
   3  -8   0   11.13    4.91
  -3   8   0   13.63    3.97
   3  -8   1    0.65    3.39
   3  -8   1    1.47    7.86
  -3   8  -1    0.38    2.02
   3  -8   2   10.06    6.66
   3  -8   2    6.82    6.00
  -3   8  -2    4.84    4.12
   3  -8   3  120.13   11.30
   3  -8   3  113.99   13.60
  -3   8  -3  130.24   10.38
   3  -8   4   59.42    8.30
   3  -8   4   75.32   10.46
  -3   8  -4   69.10    8.60
   3  -8   5    1.87    3.72
   3  -8   5    4.93    5.35
  -3   8  -5    3.07    4.64
   3  -8   6   24.01    9.76
   3  -8   6   18.26    6.15
  -3   8  -6   29.39    7.14
   3  -8   7   11.98    7.65
   3  -8   7   16.94    6.91
  -3   8  -7   20.38    7.93
  -3   7   5   53.67   12.83
   3  -7  -5   54.25   10.38
  -3   7   4   -0.24    2.67
   3  -7  -4    2.30    5.32
  -3   7   3  102.06   10.04
   3  -7  -3  117.32   13.03
   3  -7  -3  104.48    7.76
   3  -7  -2   54.11    7.85
   3  -7  -2   51.21    9.52
  -3   7   2   51.22    5.92
   3  -7  -1  191.59   11.65
   3  -7  -1  179.62   13.91
  -3   7   1  194.50    9.14
   3  -7   0   57.80    8.16
   3  -7   0   62.15   10.16
  -3   7   0   55.97    6.30
   3  -7   1  357.67   16.65
   3  -7   1  382.10   20.66
  -3   7  -1  325.96   13.11
   3  -7   2 1362.15   30.07
   3  -7   2 1470.59   37.34
  -3   7  -2 1350.06   24.71
   3  -7   3  148.24   12.10
   3  -7   3  153.50   13.55
  -3   7  -3  172.28   10.32
   3  -7   4   65.78    9.13
   3  -7   4   72.28    9.87
  -3   7  -4   79.87    8.97
   3  -7   5   35.82    9.28
   3  -7   5   25.99    8.12
  -3   7  -5   21.58    6.37
   3  -7   6   25.86    7.82
   3  -7   6   23.66    9.03
  -3   7  -6   25.99    8.08
   3  -7   7    8.55    6.42
   3  -7   7    6.36    3.72
  -3   7  -7    4.39    5.07
   3  -7   8   10.23    7.52
   3  -7   8    7.72    5.43
  -3   7  -8   11.71    5.45
  -3   6   6    6.06    4.91
   3  -6  -6    9.12    8.49
  -3   6   5    5.37    4.68
   3  -6  -5    3.35    5.91
   3  -6  -5    5.24    4.05
  -3   6   4   21.15   15.57
   3  -6  -4   27.17    6.85
   3  -6  -4   22.65    4.36
  -3   6   3  244.50   23.29
   3  -6  -3  254.69   15.73
   3  -6  -3  241.51   10.46
  -3   6   2   79.71   11.09
   3  -6  -2   82.76   10.73
   3  -6  -2   86.43    6.90
   3  -6  -1   21.68    5.30
   3  -6  -1   23.44    7.33
   3  -6   0  193.77    9.89
   3  -6   0  205.52   13.78
  -3   6   0  179.61    9.28
   3  -6   1   30.68    5.33
   3  -6   1   34.86    8.03
  -3   6  -1   27.43    5.33
   3  -6   2  200.22   11.00
   3  -6   2  185.71   13.49
  -3   6  -2  207.53    9.68
   3  -6   3   25.18    6.26
   3  -6   3   29.88    8.26
  -3   6  -3   39.18    6.78
   3  -6   4    6.12    5.61
   3  -6   4    8.82    7.32
  -3   6  -4    9.15    5.32
   3  -6   5   48.98    8.98
   3  -6   5   41.47    6.99
  -3   6  -5   49.49    8.23
   3  -6   6    4.56    4.31
   3  -6   6    4.33    7.35
  -3   6  -6    4.20    5.21
   3  -6   7   39.37    9.47
   3  -6   7   31.76   15.40
  -3   6  -7   46.32    9.19
   3  -6   8   88.47   15.32
   3  -6   8   85.45   15.79
  -3   6  -8   80.94   13.61
  -3   5   7   54.88    8.56
   3  -5  -7   62.77   11.43
  -3   5   6    4.15    4.93
   3  -5  -6    9.29    7.17
   3  -5  -6    2.19    2.67
  -3   5   5    6.16    4.94
   3  -5  -5   12.86    7.05
   3  -5  -5   10.44    5.14
  -3   5   4  319.61   13.09
   3  -5  -4  313.78   16.21
   3  -5  -4  304.98   12.50
  -3   5   3   48.00    7.83
   3  -5  -3   68.09   12.77
   3  -5  -3   46.28    5.64
  -3   5   2    1.46    2.23
   3  -5  -2    3.65    7.08
   3  -5  -2    0.57    2.67
   3  -5  -1  116.20    7.33
   3  -5  -1  111.64   10.34
   3  -5  -1  125.95    8.37
   3  -5   0  633.64   16.29
   3  -5   0  666.87   20.68
  -3   5   0  620.21   15.47
   3  -5   1  135.77    8.09
   3  -5   1  132.41   10.38
  -3   5  -1  114.47    8.03
   3  -5   2   29.69    4.50
   3  -5   2   43.00   10.01
  -3   5  -2   41.72    5.66
   3  -5   3    3.05    3.05
   3  -5   3    1.88    4.75
  -3   5  -3    6.73    4.33
   3  -5   4   19.96    6.07
   3  -5   4   23.92    6.64
  -3   5  -4   21.22    5.02
   3  -5   5   78.52   10.20
   3  -5   5   84.80   11.93
  -3   5  -5   67.83    9.00
   3  -5   6   98.71   10.95
   3  -5   6  100.12   10.51
  -3   5  -6   95.47   10.21
   3  -5   7    3.51    6.20
   3  -5   7    2.16    4.61
  -3   5  -7    4.44    5.73
   3  -5   8  121.42   15.23
   3  -5   8   89.11   14.82
  -3   5  -8   84.04   11.46
  -3   4   7    0.95    3.77
   3  -4  -7   -1.10    4.78
   3  -4  -7    5.34    4.96
  -3   4   6   32.22    6.71
   3  -4  -6   22.30    8.47
   3  -4  -6   24.00    5.14
  -3   4   5  318.55   14.22
   3  -4  -5  310.41   18.16
   3  -4  -5  301.55   14.88
  -3   4   4   64.21    6.37
   3  -4  -4   63.13    8.90
   3  -4  -4   68.27    8.25
  -3   4   3    3.42    2.55
   3  -4  -3    2.49    4.54
   3  -4  -3    3.90    3.33
  -3   4   2  171.20   12.72
   3  -4  -2  189.59   11.14
   3  -4  -2  165.96    8.72
   3  -4  -1  377.94    8.80
   3  -4  -1  407.77   11.02
   3  -4  -1  396.84   14.20
   3  -4  -1  383.54   18.27
   3  -4   0 1277.42   20.74
   3  -4   0 1347.26   24.19
   3  -4   0 1285.62   29.39
   3  -4   1  113.43    6.17
   3  -4   1  123.55    9.82
  -3   4  -1  110.45    7.03
   3  -4   2  104.41    7.36
   3  -4   2  108.54   10.38
  -3   4  -2  111.93    7.27
   3  -4   3   51.24    6.07
   3  -4   3   54.05    7.42
  -3   4  -3   51.90    6.62
   3  -4   4    5.93    3.85
   3  -4   4    7.55    5.43
  -3   4  -4    7.04    3.75
   3  -4   5    2.13    3.98
   3  -4   5    5.18    5.63
  -3   4  -5    9.34    5.57
   3  -4   6  568.27   25.17
   3  -4   6  445.28   44.43
  -3   4  -6  501.94   18.31
   3  -4   7   49.79   10.36
   3  -4   7   45.40   21.73
  -3   4  -7   53.99    9.10
   3  -4   8   28.71   11.23
   3  -4   8   15.60   12.97
  -3   4  -8   18.28    6.34
  -3   3   8    8.95    6.52
   3  -3  -8    3.74    4.01
   3  -3  -8    1.61    3.28
  -3   3   7  123.94   11.21
   3  -3  -7  114.52   11.19
   3  -3  -7  123.93   11.42
  -3   3   6  249.14   14.43
   3  -3  -6  247.22   13.87
   3  -3  -6  244.26   13.74
  -3   3   5   39.98    5.95
   3  -3  -5   39.17    6.22
   3  -3  -5   44.39    7.66
  -3   3   4    2.35    3.85
   3  -3  -4    2.96    5.98
   3  -3  -4    1.83    2.73
  -3   3   3   17.81    3.99
   3  -3  -3   19.56    4.78
   3  -3  -3   23.04    6.35
  -3   3   2  372.91    9.03
   3  -3  -2  385.23    9.79
   3  -3  -2  407.40   13.50
   3  -3  -2  382.57   12.89
   3  -3   0  262.70    5.73
   3  -3   0  262.40   10.21
   3  -3   0  261.40    9.92
   3  -3   1   29.90    2.83
  -3   3  -1   29.55    2.83
   3  -3   1   26.88    5.03
  -3   3  -1   32.47    4.55
   3  -3   2  189.92    7.64
   3  -3   2  198.03   12.12
  -3   3  -2  203.07    9.57
   3  -3   3  225.38   10.81
   3  -3   3  240.36   14.08
  -3   3  -3  201.04    9.79
   3  -3   4  126.95   10.43
   3  -3   4  113.72    9.58
  -3   3  -4  126.00   10.05
   3  -3   5  564.73   20.33
   3  -3   5  471.41   24.16
  -3   3  -5  468.73   13.64
   3  -3   6 1036.15   33.43
   3  -3   6  907.67   45.49
  -3   3  -6  925.95   21.39
   3  -3   7    9.36    5.70
   3  -3   7   11.66    7.73
  -3   3  -7   12.40    5.78
   3  -3   8    2.61    5.19
  -3   3  -8    2.66    4.79
  -3   2   9    0.89    4.51
   3  -2  -9    1.87    4.39
   3  -2  -9    6.37    4.95
  -3   2   8    4.26    6.31
   3  -2  -8    4.60    4.12
   3  -2  -8    6.53    5.88
  -3   2   7   50.37    7.80
   3  -2  -7   58.39    8.91
   3  -2  -7   56.44    8.90
  -3   2   6   81.25    8.39
   3  -2  -6   84.44    9.60
   3  -2  -6   81.83    8.60
  -3   2   5    4.16    4.45
   3  -2  -5    1.08    5.10
   3  -2  -5    1.69    4.98
  -3   2   4  177.04    9.44
   3  -2  -4  168.05    9.93
   3  -2  -4  183.28   10.03
  -3   2   3  392.15   11.06
   3  -2  -3  376.74   12.78
   3  -2  -3  390.50   13.21
  -3   2   2  897.40   15.56
   3  -2  -2  866.54   15.66
   3  -2  -2  798.07   17.95
   3  -2  -2  829.47   18.82
   3  -2  -1    3.95    3.37
   3  -2  -1    2.68    3.11
   3  -2   0   37.79    4.26
   3  -2   0   46.72   10.11
   3  -2   1  541.65   10.33
  -3   2  -1  523.92   10.83
   3  -2   1  543.77   14.25
  -3   2  -1  506.60   12.46
   3  -2   2  641.21   14.34
   3  -2   2  658.01   17.63
  -3   2  -2  677.24   15.54
   3  -2   3   14.15    4.28
   3  -2   3   14.36    5.21
  -3   2  -3   17.63    3.82
   3  -2   4   16.27    4.80
   3  -2   4   23.94    5.34
  -3   2  -4   18.12    4.76
   3  -2   5   74.09    7.71
   3  -2   5   91.54   10.17
  -3   2  -5   76.63    8.48
   3  -2   6   97.02   10.73
   3  -2   6   90.32   12.17
  -3   2  -6  119.09   11.10
   3  -2   7   27.95    9.59
  -3   2  -7   34.57    9.27
  -3   2  -7   32.43    7.58
   3  -2   8    0.74    3.86
  -3   2  -8    2.28    7.80
  -3   2  -8    3.75    4.70
  -3   1   9   37.39    9.21
   3  -1  -9   40.09    8.52
   3  -1  -9   40.45    9.30
  -3   1   8    6.97    3.69
   3  -1  -8   11.59    4.90
   3  -1  -8    7.22    6.25
  -3   1   7  203.80   13.94
   3  -1  -7  201.57   11.86
   3  -1  -7  190.63   13.10
  -3   1   6   24.22    5.75
   3  -1  -6   23.62    5.90
   3  -1  -6   19.81    5.36
  -3   1   5  144.38   12.04
   3  -1  -5  133.78    9.35
   3  -1  -5  128.52    9.32
  -3   1   4  449.70   14.69
   3  -1  -4  399.62   12.14
   3  -1  -4  401.12   13.74
  -3   1   3  709.36   16.47
   3  -1  -3  693.87   15.60
   3  -1  -3  716.39   17.65
  -3   1   2    1.99    2.02
   3  -1  -2    2.75    1.53
   3  -1  -2    3.25    2.15
   3  -1  -2    1.97    3.48
  -3   1   1  136.46    2.57
  -3   1   1  140.49    3.44
   3  -1  -1  135.00    5.55
   3  -1  -1  137.89    7.03
   3  -1   0   45.15    3.41
  -3   1   0   43.45    2.32
   3  -1   0   46.41    4.13
   3  -1   0   47.89    6.03
   3  -1   1  429.29    9.69
  -3   1  -1  448.74   10.48
   3  -1   1  444.87   12.21
  -3   1  -1  400.05   10.72
   3  -1   2  287.69    9.99
   3  -1   2  293.17   11.50
  -3   1  -2  268.21    8.76
   3  -1   3 1241.04   24.88
   3  -1   3 1271.50   26.42
  -3   1  -3 1263.84   21.61
   3  -1   4  187.18   11.00
   3  -1   4  201.99   11.38
  -3   1  -4  204.50   10.31
   3  -1   5  395.87   15.30
   3  -1   5  400.17   15.19
  -3   1  -5  437.71   13.30
   3  -1   6   20.63    7.65
  -3   1  -6   11.17    6.83
  -3   1  -6   13.97    6.10
   3  -1   7   16.68    9.25
  -3   1  -7   10.28    5.88
  -3   1  -7   17.54    6.35
   3  -1   8   28.45    9.60
  -3   1  -8   25.60    8.09
  -3   1  -8   23.47    6.03
  -3   0   9   12.40    6.88
   3   0  -9   18.00    6.22
   3   0  -9   14.70    5.55
  -3   0   8   17.80    8.35
   3   0  -8   17.92    5.62
   3   0  -8   11.44    5.89
  -3   0   7   65.45   12.29
   3   0  -7   61.06    8.11
   3   0  -7   65.83   10.71
  -3   0   6  180.01   11.35
   3   0  -6  185.96    9.42
   3   0  -6  191.84   11.53
  -3   0   5  665.84   19.65
   3   0  -5  707.96   15.86
   3   0  -5  646.37   18.14
  -3   0   4 1282.72   27.45
   3   0  -4 1365.17   23.86
   3   0  -4 1358.72   28.90
  -3   0   3  271.18   10.36
   3   0  -3  261.12    7.20
  -3   0   3  267.14    7.02
   3   0  -3  261.57   10.09
  -3   0   2   38.14    3.91
   3   0  -2   36.14    3.45
   3   0  -2   37.03    2.87
  -3   0   2   37.40    2.86
   3   0  -2   40.26    5.25
  -3   0   1   42.21    3.46
  -3   0   1   42.93    3.90
   3   0  -1   45.74    3.48
  -3   0   1   44.92    3.07
   3   0  -1   45.25    4.61
   3   0   0  971.66   11.10
  -3   0   0  965.40   10.99
   3   0   0  955.74   12.79
   3   0   0 1003.89   14.15
   3   0   1  115.47    5.80
   3   0   1  107.03    6.02
  -3   0  -1  110.75    4.98
   3   0   2  551.63   15.22
   3   0   2  533.21   16.18
  -3   0  -2  515.56   11.39
   3   0   3  239.89   11.43
   3   0   3  247.52   12.55
  -3   0  -3  265.68    9.19
   3   0   4   27.49    5.46
  -3   0  -4   26.36    6.82
  -3   0  -4   32.09    5.40
   3   0   5   29.56    6.46
  -3   0  -5   32.01    6.36
  -3   0  -5   25.27    4.27
   3   0   6   55.17    8.74
  -3   0  -6   65.66   11.33
  -3   0  -6   59.25    6.34
   3   0   7    1.91    4.16
  -3   0  -7   -2.03    5.43
  -3   0  -7    1.25    3.22
   3   0   8   15.06    8.81
  -3   0  -8   14.60    7.70
  -3   0  -8   13.47    4.94
  -3  -1  10   18.29    8.77
   3   1 -10   20.49    7.42
  -3  -1   9   27.80   11.71
   3   1  -9   17.26    7.56
  -3  -1   8    1.79    7.03
   3   1  -8    0.44    2.36
   3   1  -8    2.94    5.81
  -3  -1   7  332.58   18.40
   3   1  -7  320.50   12.56
   3   1  -7  354.11   17.35
  -3  -1   6   30.59    8.64
   3   1  -6   30.91    5.05
   3   1  -6   29.04    7.09
  -3  -1   5  124.42   11.88
   3   1  -5  116.49    7.51
   3   1  -5  121.81    5.84
   3   1  -5  118.43    9.59
   3   1  -4   -0.60    0.63
  -3  -1   3   31.70    5.22
   3   1  -3   30.99    1.45
   3   1  -3   34.29    4.72
  -3  -1   2  564.04   15.23
   3   1  -2  533.26    8.89
  -3  -1   2  501.23    8.66
   3   1  -2  545.39   13.35
  -3  -1   1  415.97   12.83
   3   1  -1  440.00    9.71
  -3  -1   1  423.59    9.32
   3   1  -1  438.48   11.45
   3   1   0  106.19    9.42
   3   1   0  114.80    5.18
   3   1   0  115.72    8.82
   3   1   1   18.82    3.67
  -3  -1  -1   19.17    2.83
   3   1   2  323.31   12.09
  -3  -1  -2  321.01   13.21
  -3  -1  -2  325.93    7.98
   3   1   3  102.47    8.81
  -3  -1  -3  100.71    8.64
  -3  -1  -3  106.62    5.55
   3   1   4   44.30    7.60
  -3  -1  -4   46.04    9.55
  -3  -1  -4   55.62    5.09
   3   1   5  340.89   17.08
  -3  -1  -5  334.90   19.01
  -3  -1  -5  320.87   11.20
   3   1   6    0.18    4.21
  -3  -1  -6   -0.44    5.13
  -3  -1  -6    1.59    3.46
   3   1   7   14.03    8.30
  -3  -1  -7    6.97    5.47
  -3  -2  10  105.82   17.06
   3   2 -10   86.63   10.96
  -3  -2   9    3.33    5.59
   3   2  -9   12.44    5.84
  -3  -2   8    5.83    8.03
   3   2  -8    6.15    5.37
  -3  -2   7 1368.87   36.95
   3   2  -7 1319.81   21.35
   3   2  -7 1329.39   29.33
  -3  -2   6  199.89   15.66
   3   2  -6  196.98    6.61
   3   2  -6  178.21   10.72
  -3  -2   5   40.36    9.10
   3   2  -5   34.73    1.90
   3   2  -5   34.74    2.33
   3   2  -5   31.73    6.56
  -3  -2   4  100.76    9.50
   3   2  -4  117.78    7.71
  -3  -2   3  186.74   11.10
   3   2  -3  185.97    8.34
  -3  -2   2  694.88   19.83
  -3  -2   2  657.42   10.82
  -3  -2   2  661.45   10.99
   3   2  -2  662.03   14.89
  -3  -2   1  290.19   12.94
  -3  -2   1  276.03    7.30
  -3  -2   1  287.21    8.22
   3   2  -1  281.98    8.51
   3   2   0  542.00   16.20
  -3  -2   0  552.71   13.55
   3   2   0  553.58   11.40
  -3  -2   0  541.56   10.94
   3   2   1  304.76   14.42
  -3  -2  -1  333.91   11.87
  -3  -2  -1  311.90    7.14
  -3  -2  -1  313.76    6.66
   3   2   2   52.45    6.87
  -3  -2  -2   52.45    7.39
  -3  -2  -2   46.96    3.13
  -3  -2  -2   50.90    3.06
   3   2   3    7.80    4.96
  -3  -2  -3    8.27    5.04
  -3  -2  -3    5.42    2.00
   3   2   4   13.86    6.43
  -3  -2  -4   11.39    7.57
  -3  -2  -4   19.45    4.03
   3   2   5   16.23    6.16
  -3  -2  -5   16.33    8.25
   3   2   6  114.33   12.00
  -3  -2  -6  142.56   13.56
   3   2   7   27.98    7.61
  -3  -2  -7   28.72    8.38
  -3  -3  10    4.99    6.49
   3   3 -10    5.37    5.36
  -3  -3   9    1.03    5.49
   3   3  -9    1.99    4.31
  -3  -3   8  110.64   14.21
   3   3  -8  112.52   12.54
  -3  -3   7  167.93   16.64
   3   3  -7  157.69   11.87
  -3  -3   6   28.27    8.60
   3   3  -6   41.60    8.41
  -3  -3   5    4.66    5.59
   3   3  -5    2.72    3.14
  -3  -3   4   57.56   10.08
   3   3  -4   57.32    6.39
  -3  -3   3  210.72   14.57
   3   3  -3  210.10    9.72
  -3  -3   2   12.77    6.16
  -3  -3   2   16.22    3.99
  -3  -3   2   15.33    2.32
   3   3  -2   16.11    3.78
  -3  -3   1 1323.74   27.54
  -3  -3   1 1328.58   16.83
   3   3  -1 1301.54   19.95
  -3  -3   1 1323.25   10.95
   3   3   0  241.35   10.86
  -3  -3   0  260.28   10.59
  -3  -3   0  230.31    5.07
   3   3   1   97.90   12.02
  -3  -3  -1  105.65    8.23
  -3  -3  -1   96.20    3.22
  -3  -3  -1   94.14    2.92
   3   3   2    6.76    5.22
  -3  -3  -2    5.67    6.64
   3   3   3  416.51   17.72
  -3  -3  -3  425.48   18.26
   3   3   4   89.84    9.88
  -3  -3  -4   79.95    9.42
   3   3   5   27.16    7.85
  -3  -3  -5   24.46    8.31
   3   3   6  112.37   14.82
  -3  -3  -6  114.30   16.33
  -3  -4  10    2.14    5.12
   3   4 -10    4.47    6.47
  -3  -4   9  179.48   18.00
   3   4  -9  193.68   14.59
  -3  -4   8   72.21   13.58
   3   4  -8   64.00    8.56
  -3  -4   7   76.96   11.91
   3   4  -7   78.61    9.83
  -3  -4   6   11.41    9.28
   3   4  -6    8.20    4.33
  -3  -4   5   26.22    8.03
   3   4  -5   19.64    4.31
  -3  -4   4   11.35    8.56
   3   4  -4    7.62    3.76
  -3  -4   3  126.09   11.49
  -3  -4   3  103.47    3.56
  -3  -4   3  111.14    4.30
   3   4  -3  108.85    6.57
  -3  -4   2   19.22    6.94
  -3  -4   2   15.65    2.77
   3   4  -2   16.43    3.11
  -3  -4   1  193.92   14.38
  -3  -4   1  192.60    8.83
   3   4  -1  185.37    6.08
  -3  -4   1  180.48    4.70
   3   4   0   24.84    6.20
  -3  -4   0   28.47    5.69
   3   4   1   50.97   21.12
  -3  -4  -1   42.55    5.86
   3   4   2   12.91    9.11
  -3  -4  -2   15.84    7.35
   3   4   3   74.74   12.31
  -3  -4  -3  107.99   11.71
   3   4   4   65.99    9.40
  -3  -4  -4   82.04   11.01
   3   4   5    3.03    4.01
  -3  -4  -5    6.38    6.99
  -3  -5   9   14.06    9.14
   3   5  -9   15.97    7.87
  -3  -5   8    7.80    8.62
   3   5  -8    2.69    5.60
  -3  -5   7   44.83   11.87
   3   5  -7   26.83    8.49
  -3  -5   6   45.93   10.27
   3   5  -6   48.04    8.86
  -3  -5   5   70.64   12.22
   3   5  -5   73.68    8.36
  -3  -5   4    7.92    8.17
  -3  -5   4    2.89    1.07
   3   5  -4   12.36    4.46
  -3  -5   3  453.37   22.06
  -3  -5   3  418.41    9.68
   3   5  -3  452.87   11.42
  -3  -5   2   73.65   11.24
  -3  -5   2   79.48    6.30
   3   5  -2   75.20    4.82
  -3  -5   1  405.93   20.50
  -3  -5   1  409.51   13.83
  -3  -5   0   26.73    9.70
  -3  -5   0   32.01    5.78
   3   5   1  310.31   27.02
  -3  -5  -1  344.87   17.26
   3   5   2   13.01   10.65
  -3  -5  -2   15.56    6.01
   3   5   3   19.98   18.29
  -3  -5  -3   21.26    7.51
   3   5   4    3.81    5.25
  -3  -5  -4   -0.16    4.88
  -3  -6   9    0.51    5.50
   3   6  -9    5.01    3.82
  -3  -6   8   22.77    9.76
   3   6  -8   24.28    7.40
  -3  -6   7   31.61   11.90
   3   6  -7   21.65    5.23
  -3  -6   6    5.35   10.75
   3   6  -6    2.41    2.99
  -3  -6   5  103.05   15.07
   3   6  -5   95.20    8.00
  -3  -6   4  509.10   27.51
   3   6  -4  501.86   15.86
  -3  -6   3  875.04   33.68
   3   6  -3  892.16   17.69
  -3  -6   2  102.76   13.46
  -3  -6   2  100.77    7.85
  -3  -6   1   13.51    9.19
  -3  -6   1   13.16    4.92
  -3  -6   0   74.69   13.99
  -3  -6   0   64.41    8.30
  -3  -6  -1    1.46    4.37
   3   6   2  107.35   22.64
  -3  -6  -2  125.01   13.74
   3   6   3  114.24   18.07
  -3  -6  -3  133.97   17.43
  -3  -7   8   19.78   11.83
   3   7  -8   16.93    6.26
  -3  -7   7    7.32    9.79
   3   7  -7    8.42    4.45
  -3  -7   6   37.28   10.62
   3   7  -6   41.08    6.70
  -3  -7   5    2.73    7.82
   3   7  -5    0.94    2.42
  -3  -7   4   60.90   13.00
  -3  -7   3   17.30    8.83
  -3  -7   2   28.26   11.98
  -3  -7   2   30.27    5.98
  -3  -7   1   19.41    8.63
  -3  -7   1   11.57    4.54
  -3  -7   0    3.86    6.41
  -3  -7   0    1.65    3.43
  -3  -7  -1   14.35   10.12
  -3  -7  -1   10.24    5.23
   3   7   2   22.53    7.68
  -3  -7  -2   36.06    8.54
  -3  -8   7   21.96   10.23
   3   8  -7   11.86    5.24
  -3  -8   6   98.79   19.23
  -3  -8   5   97.83   15.49
  -3  -8   4   17.40    8.15
  -3  -8   3    2.27    7.01
  -3  -8   2    0.51    6.97
  -3  -8   1   27.51    9.73
  -3  -8   0   21.14   11.49
  -3  -8   0   15.01    6.06
   4  -9  -1   17.29    7.95
   4  -9   0    6.18    5.86
  -4   9   0    1.92    2.56
   4  -9   1    4.62    5.31
  -4   9  -1    6.42    5.03
   4  -9   2    0.41    6.09
  -4   9  -2    2.22    4.32
   4  -9   3    8.30    8.05
  -4   9  -3    4.53    5.89
   4  -9   4   50.20   10.45
  -4   9  -4   54.57   10.82
   4  -9   5    4.09    4.90
  -4   9  -5    5.52    4.73
   4  -8  -3    1.29    5.23
   4  -8  -2   26.94    7.34
  -4   8   2   22.59    5.05
   4  -8  -1    3.88    7.96
  -4   8   1    7.57    4.80
   4  -8   0   59.31    9.98
  -4   8   0   60.17    6.98
   4  -8   1  139.96   13.19
  -4   8  -1  139.50   10.13
   4  -8   2  213.68   17.98
  -4   8  -2  203.09   10.89
   4  -8   3   29.43    6.13
   4  -8   3   30.90    9.95
  -4   8  -3   35.18    7.34
   4  -8   4    1.19    3.21
   4  -8   4    4.13    6.25
  -4   8  -4    3.19    4.13
   4  -8   5   26.21    8.06
   4  -8   5   24.71   10.50
  -4   8  -5   23.69    7.97
   4  -8   6   19.71    7.62
   4  -8   6    8.62    6.36
  -4   8  -6   13.44    6.11
   4  -7  -5   23.48    8.64
   4  -7  -4    6.57    6.30
   4  -7  -4    4.51    4.46
   4  -7  -3   17.69    6.95
   4  -7  -3   13.10    4.49
   4  -7  -2  130.86    9.56
   4  -7  -2  120.50   13.00
   4  -7  -1  149.42   10.00
   4  -7  -1  139.97   13.13
  -4   7   1  143.20    9.37
   4  -7   0    9.33    4.48
   4  -7   0    7.42    6.66
  -4   7   0    7.87    3.70
   4  -7   1   57.28    7.53
   4  -7   1   56.02   10.16
  -4   7  -1   66.24    7.98
   4  -7   2  343.19   14.01
   4  -7   2  387.66   21.50
  -4   7  -2  347.39   14.37
   4  -7   3  140.20   11.18
   4  -7   3  130.44   13.53
  -4   7  -3  137.28   10.75
   4  -7   4   49.70    7.90
   4  -7   4   50.49    9.99
  -4   7  -4   53.76    8.48
   4  -7   5   37.55    8.11
   4  -7   5   39.75    9.22
  -4   7  -5   32.79    8.01
   4  -7   6   62.13    9.43
   4  -7   6   60.30   11.43
  -4   7  -6   64.74    9.36
   4  -7   7    3.79    5.31
   4  -7   7    4.07    4.39
  -4   7  -7    2.03    5.51
   4  -6  -6   72.34    9.94
   4  -6  -5   37.55    8.57
   4  -6  -5   36.63    5.57
  -4   6   4   30.40   15.84
   4  -6  -4   44.06    9.29
   4  -6  -4   27.39   12.90
  -4   6   3   13.06    6.54
   4  -6  -3   21.89    7.83
   4  -6  -3   31.78    9.58
   4  -6  -2   52.86    6.49
   4  -6  -2   60.59   10.28
   4  -6  -2   53.76   16.60
   4  -6  -1   28.22    4.72
   4  -6  -1   27.13    7.45
   4  -6   0   49.19    5.11
   4  -6   0   50.66   10.39
  -4   6   0   42.84    6.21
   4  -6   1   65.67    6.29
   4  -6   1   75.42   10.76
  -4   6  -1   65.40    7.49
   4  -6   2    1.99    3.03
   4  -6   2    5.15    5.91
  -4   6  -2    2.96    4.72
   4  -6   3   12.32    4.79
   4  -6   3   15.99    8.02
  -4   6  -3   18.69    6.44
   4  -6   4    8.13    4.19
   4  -6   4   13.01    7.18
  -4   6  -4   10.99    5.07
   4  -6   5   22.20    5.64
   4  -6   5   27.35    7.90
  -4   6  -5   26.59    8.06
   4  -6   6   47.79    8.59
   4  -6   6   56.22   11.17
  -4   6  -6   61.30    9.14
   4  -6   7    9.63    7.87
   4  -6   7    7.52    4.78
  -4   6  -7   10.11    7.27
  -4   5   7   14.32    5.44
   4  -5  -7   11.38    5.04
   4  -5  -7   18.58    6.31
  -4   5   6   46.12    6.44
   4  -5  -6   45.89   10.18
   4  -5  -6   37.90    7.28
  -4   5   5  157.14    9.68
   4  -5  -5  156.17   14.79
   4  -5  -5  150.47   11.02
  -4   5   4  881.38   18.88
   4  -5  -4  795.41   24.47
   4  -5  -4  883.53   23.12
  -4   5   3  145.15   13.90
   4  -5  -3  146.13   13.68
   4  -5  -3  148.45    9.68
   4  -5  -2  105.92   10.54
   4  -5  -2  101.38   21.22
   4  -5  -1   13.21    2.97
   4  -5  -1   19.23    6.68
   4  -5  -1   16.20    5.58
   4  -5   0   22.24    2.53
   4  -5   0   43.66    3.87
   4  -5   0   43.60    9.14
  -4   5   0   34.33    5.63
   4  -5   1  181.09    7.18
   4  -5   1  204.72   12.91
  -4   5  -1  181.27    9.89
   4  -5   2  244.16    9.50
   4  -5   2  275.68   14.78
  -4   5  -2  259.99   11.85
   4  -5   3    2.27    2.94
   4  -5   3    2.44    4.96
  -4   5  -3    0.07    2.97
   4  -5   4    1.02    3.78
   4  -5   4    2.64    4.39
  -4   5  -4    2.41    4.45
   4  -5   5   44.19    8.77
   4  -5   5   35.69   10.68
  -4   5  -5   35.55    8.27
   4  -5   6    8.06    4.32
   4  -5   6    5.50    4.91
  -4   5  -6   11.19    5.95
   4  -5   7   18.70    8.32
   4  -5   7   11.90   11.20
  -4   5  -7    4.81    4.27
   4  -5   8    1.34    3.91
   4  -5   8    2.83    4.41
  -4   5  -8   -0.64    3.95
  -4   4   7   10.63    5.23
   4  -4  -7    9.96    6.25
   4  -4  -7    7.92    4.81
  -4   4   6   38.60    6.71
   4  -4  -6   40.84    7.57
   4  -4  -6   37.28    7.46
  -4   4   5  885.01   20.75
   4  -4  -5  894.64   25.31
   4  -4  -5  895.04   22.27
  -4   4   4   12.96    3.43
   4  -4  -4   17.58    6.59
   4  -4  -4   10.71    5.93
  -4   4   3    0.48    1.37
   4  -4  -3    2.85    3.81
   4  -4  -3    1.91    4.69
  -4   4   2    7.41    3.24
   4  -4  -2    8.56    2.02
   4  -4  -2   10.11    6.05
   4  -4  -2    8.62    4.42
   4  -4  -1    1.69    1.17
   4  -4  -1    2.33    1.38
   4  -4  -1    1.82    5.07
   4  -4  -1    0.86    1.71
   4  -4   0   10.75    4.32
   4  -4   1   68.32    3.92
   4  -4   1   71.58    8.97
  -4   4  -1   57.71    7.72
   4  -4   2  158.48    7.36
   4  -4   2  156.58   12.12
  -4   4  -2  155.62    8.91
   4  -4   3  129.38    7.91
   4  -4   3  114.31   10.08
  -4   4  -3  127.99   10.09
   4  -4   4  119.08    9.55
   4  -4   4  111.89   11.61
  -4   4  -4  103.77   10.20
   4  -4   5   19.80    6.83
   4  -4   5   21.51    8.59
  -4   4  -5   16.95    7.16
   4  -4   6  322.92   17.36
   4  -4   6  383.36   20.89
  -4   4  -6  380.00   18.04
   4  -4   7   16.83    7.21
   4  -4   7   14.52   15.94
  -4   4  -7   20.75    6.72
   4  -4   8    8.69    6.90
   4  -4   8    7.01    8.36
  -4   4  -8    8.79    4.71
  -4   3   8    5.92    5.76
   4  -3  -8    4.34    5.80
   4  -3  -8    6.03    5.81
  -4   3   7   22.40    6.96
   4  -3  -7   14.61    5.46
   4  -3  -7   15.87    7.25
  -4   3   6   14.13    4.73
   4  -3  -6   20.73    6.51
   4  -3  -6   20.82    6.64
  -4   3   5  141.87    9.04
   4  -3  -5  152.25   12.32
   4  -3  -5  143.40   12.54
  -4   3   4    0.22    1.94
   4  -3  -4   -0.91    3.48
   4  -3  -4    0.80    3.38
  -4   3   3    3.79    2.16
   4  -3  -3    2.48    3.92
   4  -3  -3    1.94    2.94
  -4   3   2   35.70    3.23
   4  -3  -2   40.29    2.80
   4  -3  -2   46.64    6.40
   4  -3  -2   38.98    5.67
   4  -3  -1  120.23    9.08
   4  -3  -1  118.66   13.88
   4  -3   0  298.21   11.80
   4  -3   0  293.10   12.40
   4  -3   1 1141.75   16.10
  -4   3  -1 1113.80   16.78
   4  -3   1 1144.69   25.41
  -4   3  -1 1104.21   22.78
   4  -3   2  526.39   12.12
   4  -3   2  526.97   18.24
  -4   3  -2  548.64   15.26
   4  -3   3   91.11    6.67
   4  -3   3   98.32   11.05
  -4   3  -3  103.10    8.46
   4  -3   4  198.04   10.41
   4  -3   4  215.60   13.49
  -4   3  -4  207.76   10.92
   4  -3   5  280.01   14.70
   4  -3   5  279.38   16.10
  -4   3  -5  284.91   13.43
   4  -3   6   15.83    6.42
   4  -3   6   18.58   14.81
  -4   3  -6   12.73    4.74
   4  -3   7   29.65    7.73
   4  -3   7   26.21   22.18
  -4   3  -7   47.34   10.41
   4  -3   8    4.34    5.87
  -4   3  -8    4.02    4.78
  -4   2   8   19.78    7.07
   4  -2  -8   26.19    6.63
   4  -2  -8   17.40    7.09
  -4   2   7  119.49   11.21
   4  -2  -7  128.57   11.10
   4  -2  -7  138.53   12.80
  -4   2   6   62.34    7.07
   4  -2  -6   71.76    8.73
   4  -2  -6   65.60    9.62
  -4   2   5  107.80    8.30
   4  -2  -5  105.57    8.06
   4  -2  -5  103.83   10.10
  -4   2   4    6.86    3.32
   4  -2  -4    7.29    4.52
   4  -2  -4   11.19    6.02
  -4   2   3   38.09    3.57
   4  -2  -3   32.91    3.41
   4  -2  -3   34.79    5.74
   4  -2  -3   45.48    7.42
  -4   2   2   36.05    1.79
   4  -2  -2   39.52    2.17
   4  -2  -2   37.95    5.97
   4  -2  -2   38.22    7.08
   4  -2  -1   12.41    3.93
   4  -2  -1   12.45    5.56
   4  -2   0  869.63   21.59
   4  -2   0  924.04   21.51
   4  -2   1   34.93    2.92
  -4   2  -1   33.14    2.96
   4  -2   1   38.13    5.44
  -4   2  -1   29.68    5.28
   4  -2   2  109.22    5.98
   4  -2   2  110.39    8.37
  -4   2  -2  111.53    7.76
   4  -2   3   52.45    5.32
   4  -2   3   63.96   23.47
  -4   2  -3   45.09    5.78
   4  -2   4   64.11    6.97
   4  -2   4   62.63   26.39
  -4   2  -4   72.15    9.02
   4  -2   5    0.87    5.18
   4  -2   5    3.85    5.86
  -4   2  -5    2.59    3.36
   4  -2   6   99.98   11.49
   4  -2   6  113.74   17.49
  -4   2  -6  114.87   10.87
   4  -2   7    5.72    5.17
  -4   2  -7    9.40    7.74
  -4   2  -7    6.92    5.87
   4  -2   8   10.27    7.20
  -4   2  -8   17.07    9.83
  -4   2  -8   12.16    5.22
  -4   1   9    7.73    5.85
   4  -1  -9    8.76    5.03
  -4   1   8    5.16    5.05
   4  -1  -8    3.20    3.10
   4  -1  -8    6.59    6.53
  -4   1   7  135.88   10.48
   4  -1  -7  143.82    9.93
   4  -1  -7  148.02   11.71
  -4   1   6   26.88    6.06
   4  -1  -6   24.99    5.05
   4  -1  -6   28.48    8.38
  -4   1   5   20.69    6.91
   4  -1  -5   14.08    3.98
   4  -1  -5   11.01    5.44
  -4   1   4    4.34    3.76
   4  -1  -4    2.36    2.34
   4  -1  -4    3.22    4.64
  -4   1   3  121.42    6.09
   4  -1  -3  113.33    5.77
   4  -1  -3  114.39    6.32
   4  -1  -3  131.50   10.59
  -4   1   2   10.86    2.09
   4  -1  -2   14.40    4.27
   4  -1  -2   14.50    4.77
  -4   1   1 9619.30   34.59
   4  -1  -1 9999.99   51.57
   4  -1   1    1.01    1.86
   4  -1   1   -0.09    2.58
  -4   1  -1    2.43    4.35
   4  -1   2  251.35    9.16
   4  -1   2  262.28   12.80
  -4   1  -2  266.21   10.34
   4  -1   3    7.70    4.35
   4  -1   3   11.31    6.74
  -4   1  -3    7.64    3.26
   4  -1   4   19.82    5.50
   4  -1   4   19.70    8.04
  -4   1  -4   18.42    4.34
   4  -1   5    6.01    5.29
   4  -1   5    3.66    4.80
  -4   1  -5    5.63    4.55
   4  -1   6  127.43   11.57
  -4   1  -6  118.20   12.59
  -4   1  -6  119.40    8.75
   4  -1   7    0.75    4.40
  -4   1  -7    0.94    5.59
  -4   1  -7   -0.27    2.54
  -4   0   9    3.87    5.29
   4   0  -9    3.25    6.51
  -4   0   8   67.76   11.45
   4   0  -8   55.55   10.09
  -4   0   7    7.43    6.35
   4   0  -7    4.68    6.82
  -4   0   6   43.67    7.35
   4   0  -6   46.16    5.83
   4   0  -6   59.58    9.34
  -4   0   5   41.71    8.04
   4   0  -5   41.28    4.57
   4   0  -5   38.57    6.22
  -4   0   4   13.26    5.17
   4   0  -4   13.95    3.01
  -4   0   4   10.76    2.12
   4   0  -4   14.12    4.89
  -4   0   3  298.69   10.87
   4   0  -3  281.93    7.81
  -4   0   3  293.00    7.63
   4   0  -3  295.86   12.18
  -4   0   2  903.71   16.41
  -4   0   2  957.37   20.09
   4   0  -2  943.80   18.36
  -4   0   2  926.38   17.09
   4   0  -2  954.03   21.83
  -4   0   1 3571.43   23.86
  -4   0   1 3554.36   29.78
   4   0  -1 3699.31   28.13
   4   0  -1 3688.75   31.83
   4   0   0  269.83    8.68
   4   0   0  269.73    9.92
   4   0   0  269.17   12.25
   4   0   1    2.88    2.67
   4   0   1    1.09    1.70
  -4   0  -1    0.17    2.12
   4   0   2   48.84    5.19
   4   0   2   60.12   10.27
  -4   0  -2   53.32    5.43
   4   0   3   30.95    5.93
   4   0   3   34.36    8.92
  -4   0  -3   28.19    5.08
   4   0   4    3.56    4.41
  -4   0  -4    6.13    7.26
  -4   0  -4    1.45    1.93
   4   0   5   32.84    8.27
  -4   0  -5   28.35    7.22
  -4   0  -5   26.45    4.87
   4   0   6   21.84    7.80
  -4   0  -6   18.28    4.60
   4   0   7   41.51    9.56
  -4   0  -7   32.44   10.70
  -4  -1   9    8.09    8.36
   4   1  -9   -0.03    4.60
  -4  -1   8  133.85   14.34
   4   1  -8  132.30   11.17
  -4  -1   7   60.43   11.86
   4   1  -7   63.93   11.88
  -4  -1   6   73.98    9.92
   4   1  -6   53.59    4.24
   4   1  -6   55.68    7.88
  -4  -1   5  198.18   14.26
   4   1  -5  163.60    3.95
   4   1  -5  171.38    4.86
   4   1  -5  182.78   11.42
  -4  -1   4   58.84    8.61
   4   1  -4   55.19    2.49
   4   1  -4   61.71    8.18
  -4  -1   3 1181.17   25.91
   4   1  -3 1134.43   15.98
  -4  -1   3 1086.08   14.98
   4   1  -3 1165.87   24.25
  -4  -1   2   32.31    5.29
   4   1  -2   35.04    6.62
  -4  -1   2   27.96    2.64
   4   1  -2   33.66    5.53
  -4  -1   1    1.19    3.19
   4   1  -1   -0.29    1.26
   4   1  -1    0.47    2.51
   4   1   0    0.34    1.55
   4   1   0    0.66    1.31
   4   1   0    2.05    2.04
   4   1   1    6.97    3.96
  -4  -1  -1    8.54    2.71
   4   1   2    5.74    3.87
  -4  -1  -2    3.19    4.24
  -4  -1  -2    6.69    2.62
   4   1   3   14.81    4.79
  -4  -1  -3   16.01    5.97
  -4  -1  -3   13.34    3.63
   4   1   4  180.63   12.81
  -4  -1  -4  180.31   13.15
  -4  -1  -4  179.91    8.47
   4   1   5  111.64   13.83
  -4  -1  -5  106.37   11.88
  -4  -1  -5  107.39    7.54
   4   1   6   12.11    5.36
  -4  -1  -6   18.66    8.46
  -4  -2   9   11.51    7.89
   4   2  -9    1.86    5.04
  -4  -2   8  223.38   18.42
   4   2  -8  186.04   14.39
  -4  -2   7  352.76   19.86
   4   2  -7  357.35   17.95
  -4  -2   6    2.60    4.94
   4   2  -6    1.84    3.89
  -4  -2   5  237.39   13.16
   4   2  -5  254.48   13.44
  -4  -2   4  163.11   13.01
   4   2  -4  151.83    9.95
  -4  -2   3  568.12   19.45
   4   2  -3  547.33   16.13
  -4  -2   2  114.63    9.81
  -4  -2   2  106.01    4.40
  -4  -2   2  109.22    4.61
   4   2  -2  118.03    8.78
  -4  -2   1  271.79   14.01
  -4  -2   1  263.19    8.87
   4   2  -1  263.77    9.21
   4   2   0   56.86    6.60
  -4  -2   0   56.17    5.72
   4   2   1    5.30    4.46
  -4  -2  -1    6.46    4.53
  -4  -2  -1    3.89    2.23
   4   2   2    3.32    3.83
  -4  -2  -2    5.51    3.91
  -4  -2  -2    6.58    2.32
   4   2   3  132.77   11.04
  -4  -2  -3  139.68   12.48
  -4  -2  -3  122.45    6.02
   4   2   4  144.44   13.34
  -4  -2  -4  149.35   12.75
   4   2   5   13.68    6.94
  -4  -2  -5    8.32    6.38
   4   2   6    3.60    5.40
  -4  -2  -6    2.42    5.11
  -4  -3   9    4.76    5.29
   4   3  -9    3.93    4.22
  -4  -3   8   39.34   11.63
   4   3  -8   38.08    8.11
  -4  -3   7  146.01   15.70
   4   3  -7  140.39   11.73
  -4  -3   6   20.72    7.27
   4   3  -6   18.45    7.01
  -4  -3   5    0.36    5.16
   4   3  -5    1.58    4.19
  -4  -3   4  114.53   10.61
   4   3  -4  120.33    9.11
  -4  -3   3   89.99    9.76
   4   3  -3   98.49    7.96
  -4  -3   2   46.66    7.54
  -4  -3   2   45.22    3.08
  -4  -3   2   50.89    4.22
   4   3  -2   54.91    5.45
  -4  -3   1    7.20    5.70
  -4  -3   1    6.39    2.90
   4   3  -1    8.44    2.86
   4   3   0   30.08    5.27
  -4  -3   0   30.62    5.27
  -4  -3   0   32.07    2.96
   4   3   1   13.63    8.57
  -4  -3  -1   16.07    4.95
  -4  -3  -1   16.49    2.15
   4   3   2  137.71   15.90
  -4  -3  -2  131.32   10.83
   4   3   3 1184.79   40.06
  -4  -3  -3 1223.78   28.61
   4   3   4   11.21    6.65
  -4  -3  -4   14.24    8.00
   4   3   5    5.37    5.97
  -4  -3  -5    5.30    6.65
  -4  -4   9   50.19   12.23
   4   4  -9   49.27   12.64
  -4  -4   8    3.32    5.95
   4   4  -8   24.99    6.73
  -4  -4   7   55.09   12.77
   4   4  -7   48.59    9.46
  -4  -4   6    6.94    6.97
   4   4  -6    9.05    5.06
  -4  -4   5    3.06    6.41
   4   4  -5   -1.78    3.47
  -4  -4   4  111.52   13.38
   4   4  -4  108.41    8.77
  -4  -4   3  209.48   16.20
   4   4  -3  219.67    9.92
  -4  -4   2   71.67   12.59
  -4  -4   2   65.16    4.71
   4   4  -2   68.15    6.33
  -4  -4   1   16.59    9.29
  -4  -4   1   20.98    4.52
   4   4  -1   11.33    6.50
  -4  -4   0    7.78   10.12
  -4  -4   0    2.92    3.15
   4   4   1  175.53   32.58
  -4  -4  -1  179.59   11.32
   4   4   2  155.45   22.49
  -4  -4  -2  155.93   13.35
   4   4   3   11.28    9.66
  -4  -4  -3   10.64    5.75
   4   4   4   22.77   11.22
  -4  -4  -4   22.44    7.43
  -4  -5   9    8.53    6.21
   4   5  -9    4.42    5.82
  -4  -5   8   21.52    9.22
   4   5  -8   31.40    8.92
  -4  -5   7   39.86   12.35
   4   5  -7   31.94    7.46
  -4  -5   6   27.99    8.92
   4   5  -6   34.02    7.65
  -4  -5   5   29.28   10.73
   4   5  -5   36.49    6.82
   4   5  -4   16.68    5.38
  -4  -5   3  290.03   18.76
   4   5  -3  285.32   11.17
  -4  -5   2   -2.39    7.00
  -4  -5   2    1.79    2.61
   4   5  -2    2.98    2.44
  -4  -5   1    3.21    5.52
  -4  -5   1    5.31    5.25
  -4  -5   0   22.89    8.28
  -4  -5   0   31.56    5.84
   4   5   1  108.43   11.04
  -4  -5  -1  105.86   10.05
   4   5   2    9.55    9.71
  -4  -5  -2   15.38    7.80
   4   5   3    1.62    5.98
  -4  -5  -3    2.97    4.28
  -4  -6   8   22.44    9.13
   4   6  -8   16.13    6.92
  -4  -6   7   69.17   14.63
   4   6  -7   61.76    9.12
  -4  -6   6   63.25   13.11
   4   6  -6   48.38    7.27
  -4  -6   5   12.63    8.33
   4   6  -5   12.95    4.57
  -4  -6   4  373.38   23.58
   4   6  -4  267.50   11.60
  -4  -6   3   18.95    9.03
  -4  -6   2   93.56   13.19
  -4  -6   1  117.71   14.82
  -4  -6   1  114.17    9.16
  -4  -6   0   18.50   10.08
  -4  -6   0   19.31    6.51
  -4  -6  -1   21.93   11.80
  -4  -6  -1   15.41    5.86
   4   6   2    1.46    4.28
  -4  -6  -2    2.84    4.00
  -4  -7   7    6.96    8.79
   4   7  -7    3.20    5.51
  -4  -7   6    5.76    6.94
   4   7  -6    6.06    5.08
  -4  -7   5   13.15    9.84
  -4  -7   4   11.81    7.92
  -4  -7   3   33.11   11.52
  -4  -7   2    1.44    6.79
  -4  -7   1   10.01    9.96
  -4  -7   0   40.76   11.40
  -4  -8   5    3.86    6.73
  -4  -8   4    8.42    6.08
  -4  -8   3    4.52    6.14
  -4  -8   2   16.72    8.42
   5  -9  -1    3.04    5.55
  -5   9   1    1.32    2.44
   5  -9   0   24.65    9.80
  -5   9   0   23.46    6.73
   5  -9   1    1.59    6.65
  -5   9  -1    0.35    3.05
   5  -9   2    3.87    6.15
  -5   9  -2    2.67    4.43
   5  -9   3   14.04    7.15
  -5   9  -3   20.05    7.84
   5  -9   4    1.28    5.07
  -5   9  -4    2.79    4.85
   5  -8  -3    9.98    5.63
   5  -8  -2    3.43    5.36
  -5   8   2    3.62    4.60
   5  -8  -1    8.18    5.70
  -5   8   1    8.93    5.62
   5  -8   0    5.01    6.39
  -5   8   0    3.98    4.30
   5  -8   1   18.94    9.11
  -5   8  -1   21.90    6.88
   5  -8   2  387.66   23.64
  -5   8  -2  372.21   18.02
   5  -8   3  106.03   12.79
  -5   8  -3  105.39    9.59
   5  -8   4   28.21    7.37
  -5   8  -4   31.93    9.23
   5  -8   5   38.47   15.00
  -5   8  -5   30.12    9.78
   5  -7  -4   82.61   12.58
   5  -7  -4   54.72   21.35
   5  -7  -3   73.44   13.12
   5  -7  -3   77.78    9.00
   5  -7  -2  167.45   14.65
   5  -7  -1    1.06    5.57
  -5   7   1    1.05    2.82
   5  -7   0  280.83   19.74
  -5   7   0  239.45   15.22
   5  -7   1  497.99   28.10
  -5   7  -1  420.68   19.73
   5  -7   2  212.29   21.46
  -5   7  -2  212.37   13.76
   5  -7   3   75.67   13.12
  -5   7  -3   53.09    7.79
   5  -7   4   -0.34    5.14
  -5   7  -4    0.46    3.51
   5  -7   5   22.93    9.03
  -5   7  -5   21.51    6.41
   5  -7   6   15.74    8.44
  -5   7  -6   11.04    7.73
   5  -6  -5    2.97    4.48
   5  -6  -5    5.76    5.66
   5  -6  -4    5.69    9.30
   5  -6  -4    1.31    3.26
   5  -6  -3   21.20    7.91
   5  -6  -3   19.99   19.85
   5  -6  -2    3.96    6.96
   5  -6  -2    1.95    4.56
   5  -6  -1   13.68    7.16
   5  -6   0   50.37   11.27
  -5   6   0   61.61    8.45
   5  -6   1  137.02   17.50
  -5   6  -1  108.87    9.44
   5  -6   2    2.58    6.23
  -5   6  -2    1.64    3.61
   5  -6   3   13.58    8.97
  -5   6  -3   11.48    6.19
   5  -6   4   30.75    8.38
  -5   6  -4   30.96    8.92
   5  -6   5    1.23    4.41
  -5   6  -5    0.78    3.71
   5  -6   6   36.05    8.91
  -5   6  -6   40.24    9.91
   5  -6   7    3.53    8.19
  -5   6  -7    7.51    6.55
   5  -5  -6    5.31    4.37
   5  -5  -6    3.06    5.01
   5  -5  -5  301.52   17.40
   5  -5  -5  282.67   16.06
   5  -5  -4  101.12   12.41
   5  -5  -4   80.94    9.90
   5  -5  -3    6.08    7.16
   5  -5  -3    5.06    3.89
   5  -5  -2   97.03    9.73
   5  -5  -2   72.13   15.65
   5  -5  -1  238.71   15.51
   5  -5  -1  253.80   13.34
   5  -5   0  135.23   12.57
  -5   5   0  131.74   10.00
   5  -5   1   18.36    7.43
  -5   5  -1    8.00    4.26
   5  -5   2   52.58    8.66
  -5   5  -2   60.62    7.53
   5  -5   3    1.80    2.05
   5  -5   3   -0.23    5.17
  -5   5  -3    3.15    3.56
   5  -5   4   14.48    5.09
   5  -5   4    9.67    7.19
  -5   5  -4   12.37    5.22
   5  -5   5   21.82    5.83
   5  -5   5   24.14    7.08
  -5   5  -5   19.78    6.29
   5  -5   6   70.56    9.80
   5  -5   6   75.79   15.01
  -5   5  -6   78.06   12.49
   5  -5   7   12.64    6.77
   5  -5   7    9.88    7.32
  -5   5  -7   10.57    4.96
   5  -4  -7   72.60   12.62
   5  -4  -7   76.64   12.15
   5  -4  -6    3.81    6.38
   5  -4  -6    3.35    5.74
   5  -4  -5   83.67   10.53
   5  -4  -5   83.97   11.33
   5  -4  -4    2.96    6.14
   5  -4  -4   -0.61    3.34
   5  -4  -3   15.36    5.01
   5  -4  -3    8.12    4.65
   5  -4  -2  137.69   10.98
   5  -4  -2  124.14   10.51
   5  -4  -1  759.56   20.52
   5  -4  -1  706.75   28.27
   5  -4   0   17.21    5.69
   5  -4   1    1.66    5.39
  -5   4  -1    2.41    3.35
   5  -4   2    1.07    1.48
   5  -4   2    2.28    5.19
  -5   4  -2    3.81    4.99
   5  -4   3   49.58    5.61
   5  -4   3   52.27    9.90
  -5   4  -3   43.46    7.17
   5  -4   4    3.99    3.36
   5  -4   4    0.42    4.70
  -5   4  -4    1.91    3.39
   5  -4   5  221.19   12.68
   5  -4   5  234.53   17.52
  -5   4  -5  215.12   14.40
   5  -4   6  353.60   17.95
   5  -4   6  326.48   43.18
  -5   4  -6  360.89   16.83
   5  -4   7    0.01    3.15
   5  -4   7   -0.22    4.39
  -5   4  -7   -0.10    3.62
   5  -3  -8   14.17    6.37
   5  -3  -8   10.89    5.66
   5  -3  -7   81.38   10.08
   5  -3  -7   69.64    9.70
  -5   3   6   24.03    5.79
   5  -3  -6   26.72    6.23
   5  -3  -6   27.09    7.57
  -5   3   5    4.04    3.60
   5  -3  -5    5.05    5.30
   5  -3  -5    6.77    4.77
  -5   3   4   14.74    3.42
   5  -3  -4   12.47    5.45
   5  -3  -4   12.01    7.35
  -5   3   3  210.30    4.56
   5  -3  -3  211.35   11.10
   5  -3  -3  216.81   12.73
   5  -3  -2    6.27    4.31
   5  -3  -2    7.56    5.18
   5  -3  -1    3.66    5.33
   5  -3  -1    0.83    2.17
   5  -3   0  109.93    9.20
   5  -3   0  115.75    9.62
   5  -3   1  209.78    3.73
   5  -3   1  223.80   12.00
  -5   3  -1  220.58   10.75
   5  -3   2    4.33    2.34
   5  -3   2    4.62    4.24
  -5   3  -2    5.07    4.93
   5  -3   3   19.80    4.42
   5  -3   3   26.91    7.68
  -5   3  -3   24.43    5.61
   5  -3   4  100.91    8.53
   5  -3   4  100.32   10.35
  -5   3  -4   98.13    9.82
   5  -3   5  362.21   17.20
   5  -3   5  340.27   29.67
  -5   3  -5  351.88   15.97
   5  -3   6    9.74    5.65
   5  -3   6    8.90    8.70
  -5   3  -6   15.38    6.64
   5  -3   7    3.52    5.16
   5  -3   7    3.91    4.81
  -5   3  -7    4.37    5.66
  -5   2   8    0.63    2.88
   5  -2  -8    1.18    6.44
  -5   2   7  150.10   10.96
   5  -2  -7  164.58   11.19
   5  -2  -7  172.30   15.38
  -5   2   6    2.58    2.53
   5  -2  -6    2.41    2.83
   5  -2  -6    3.85    6.72
  -5   2   5   83.95    6.64
   5  -2  -5   80.68    8.17
   5  -2  -5   96.47   13.83
  -5   2   4  123.96    6.42
   5  -2  -4  115.73    8.74
   5  -2  -4  129.09   11.15
  -5   2   3    4.91    1.49
   5  -2  -3    8.43    3.92
   5  -2  -3    8.29    4.92
   5  -2  -2    5.37    3.77
   5  -2  -2    4.86    4.20
   5  -2  -1   12.66    5.41
   5  -2  -1   14.98    9.29
   5  -2   0   37.90    6.05
   5  -2   0   40.56    8.10
   5  -2   1  232.11    8.45
   5  -2   1  235.33   11.78
  -5   2  -1  217.27   10.85
   5  -2   2    1.05    1.53
   5  -2   2    5.06    4.89
  -5   2  -2    1.54    3.40
   5  -2   3  165.02    9.13
   5  -2   3  155.03   13.03
  -5   2  -3  173.61   11.60
   5  -2   4   28.54    6.81
   5  -2   4   23.35   11.39
  -5   2  -4   32.50    5.86
   5  -2   5  207.16   12.17
   5  -2   5  202.07   26.48
  -5   2  -5  226.12   12.83
   5  -2   6    2.95    4.04
   5  -2   6    2.30    4.17
  -5   2  -6    4.21    3.49
   5  -2   7    6.75    5.62
  -5   2  -7   11.70    5.58
  -5   2  -7   11.51    4.34
  -5   1   9    4.29    4.50
   5  -1  -9    5.09    4.23
  -5   1   8    7.58    4.65
   5  -1  -8   11.58    7.59
  -5   1   7    3.20    4.12
   5  -1  -7    0.23    2.31
   5  -1  -7   -0.86    3.98
  -5   1   6   16.94    6.28
   5  -1  -6   21.70    4.17
   5  -1  -6   15.54    7.25
  -5   1   5  274.44   12.47
   5  -1  -5  220.57    9.78
   5  -1  -5  236.01   14.37
  -5   1   4  655.64   13.84
   5  -1  -4  657.61   13.91
   5  -1  -4  716.85   20.19
  -5   1   3    1.49    1.76
   5  -1  -3    1.48    2.10
   5  -1  -3    1.84    2.99
   5  -1  -3    1.05    3.27
  -5   1   2   11.27    1.55
  -5   1   2   10.67    2.46
   5  -1  -2   13.99    3.61
   5  -1  -2   16.15    6.15
  -5   1   1   86.34    3.73
  -5   1   1   93.10    4.78
   5  -1  -1   92.85    8.25
   5  -1  -1   99.36   20.03
  -5   1   0   42.55    3.87
  -5   1   0   31.12    4.03
   5  -1   0   34.08    7.03
   5  -1   0   41.86    7.04
   5  -1   1    1.46    1.93
   5  -1   1    1.24    2.67
  -5   1  -1    1.41    4.01
   5  -1   2  546.07   13.13
   5  -1   2  553.69   15.80
  -5   1  -2  552.18   13.90
   5  -1   3  186.90    9.60
   5  -1   3  193.77   11.54
  -5   1  -3  189.29    9.75
   5  -1   4   31.10    6.24
   5  -1   4   26.35   18.03
  -5   1  -4   31.04    6.39
   5  -1   5    3.11    3.82
  -5   1  -5    1.58    3.57
   5  -1   6    5.89    5.38
  -5   1  -6    5.04    5.36
  -5   1  -6    6.21    4.16
  -5   0   9   22.79    7.85
   5   0  -9   22.58    7.74
  -5   0   8    7.76    6.45
   5   0  -8   16.22    7.13
  -5   0   7  248.20   17.51
   5   0  -7  250.59   16.44
  -5   0   6   55.04    8.28
   5   0  -6   53.87   10.26
  -5   0   5  120.81   10.30
   5   0  -5  125.94    6.01
   5   0  -5  141.66   13.62
  -5   0   4   18.59    4.65
   5   0  -4   16.98    2.98
   5   0  -4   17.79    6.10
  -5   0   3  107.22    7.80
   5   0  -3  112.79    6.09
   5   0  -3  121.30   11.48
  -5   0   2   37.39    6.00
   5   0  -2   35.55    4.63
   5   0  -2   39.56    7.55
  -5   0   1   35.37    4.57
   5   0  -1   36.75    4.67
   5   0  -1   41.22   10.46
  -5   0   0   10.22    4.14
   5   0   0    7.28    5.32
   5   0   0    9.85    3.83
   5   0   1    1.13    1.15
   5   0   1    4.94    3.75
  -5   0  -1    1.76    2.80
   5   0   2  130.31    8.35
   5   0   2  122.80    7.93
  -5   0  -2  136.99    7.66
   5   0   3   97.36    8.45
   5   0   3  102.39    9.90
  -5   0  -3  108.28    7.36
   5   0   4    0.40    3.01
  -5   0  -4   -0.75    4.44
  -5   0  -4    2.78    3.22
   5   0   5  165.69   12.91
  -5   0  -5  165.22   17.12
  -5   0  -5  154.86    9.05
   5   0   6    2.05    6.22
  -5   0  -6    2.80    4.99
  -5  -1   9    1.61    4.20
   5   1  -9    1.55    5.69
  -5  -1   8   14.23    5.59
   5   1  -8   17.15    8.35
  -5  -1   7  418.18   20.59
   5   1  -7  455.15   25.75
  -5  -1   6  115.97   10.96
   5   1  -6  128.36   11.89
  -5  -1   5    8.72    4.29
   5   1  -5   11.91    6.66
  -5  -1   4    1.97    3.14
   5   1  -4    1.11    3.37
  -5  -1   3  224.53   10.98
   5   1  -3  225.32    7.85
   5   1  -3  230.88   11.27
  -5  -1   2  244.86   12.22
   5   1  -2  232.72   10.31
   5   1  -2  244.02   11.48
  -5  -1   1    1.83    3.22
   5   1  -1    1.26    1.32
   5   1  -1    1.17    2.39
   5   1   0    2.35    2.13
   5   1   1  190.61   22.64
  -5  -1  -1  193.71    7.98
   5   1   2    3.05    3.99
  -5  -1  -2    0.94    4.16
  -5  -1  -2    4.73    4.48
   5   1   3   10.65    5.39
  -5  -1  -3    7.76    5.43
  -5  -1  -3   10.24    3.26
   5   1   4   34.14    6.67
  -5  -1  -4   46.91   11.90
  -5  -1  -4   34.27    6.15
   5   1   5   40.69    7.79
  -5  -1  -5   41.44    9.78
  -5  -2   9    3.93    4.43
   5   2  -9    1.69    4.64
  -5  -2   8  364.14   21.08
   5   2  -8  353.88   19.86
  -5  -2   7  210.70   17.21
   5   2  -7  200.65   15.86
  -5  -2   6    3.12    6.79
   5   2  -6    1.51    3.92
  -5  -2   5   60.17    8.90
   5   2  -5   58.33    8.51
  -5  -2   4    1.58    3.87
   5   2  -4    2.31    3.84
  -5  -2   3    3.17    6.09
  -5  -2   3    2.23    1.15
   5   2  -3    4.88    4.09
  -5  -2   2    0.68    5.43
  -5  -2   2    3.37    2.06
   5   2  -2    2.48    3.83
  -5  -2   1  546.11   19.28
  -5  -2   1  575.01   13.18
   5   2  -1  541.18   21.87
  -5  -2   0  134.96   10.99
  -5  -2   0  131.31    8.37
  -5  -2   0  122.01    6.45
   5   2   1    2.62    4.46
  -5  -2  -1    6.32    5.22
  -5  -2  -1    5.49    2.27
   5   2   2    1.86    4.46
  -5  -2  -2    6.23    6.46
  -5  -2  -2    3.68    2.32
   5   2   3   94.89   15.34
  -5  -2  -3  102.15   10.47
   5   2   4    5.73    5.20
  -5  -2  -4    7.23    7.82
   5   2   5   79.59   10.83
  -5  -2  -5   77.95   12.45
  -5  -3   9   20.03    9.21
   5   3  -9   11.75    7.91
  -5  -3   8  115.83   16.38
   5   3  -8   96.57   13.31
  -5  -3   7   37.55    9.28
   5   3  -7   46.03    9.65
  -5  -3   6   10.69    7.18
   5   3  -6    8.71    6.39
  -5  -3   5   -0.90    5.28
   5   3  -5    3.36    5.68
  -5  -3   4   45.12    9.03
   5   3  -4   52.58    8.96
  -5  -3   3   17.75    6.60
   5   3  -3   26.55    6.56
  -5  -3   2  164.04   14.02
  -5  -3   2  167.85    7.07
   5   3  -2  168.53    9.68
  -5  -3   1  183.07   14.09
  -5  -3   1  189.12    8.75
   5   3  -1  163.19   16.30
  -5  -3   0  109.84   11.70
  -5  -3   0  111.61    8.96
  -5  -3   0  101.78    5.43
   5   3   1    6.15    5.55
  -5  -3  -1   11.96    5.01
   5   3   2   97.22   29.62
  -5  -3  -2  107.53   11.51
   5   3   3  157.95   31.86
  -5  -3  -3  170.73   16.05
   5   3   4    5.45    6.42
  -5  -3  -4    6.90    6.66
  -5  -4   9    9.40    9.81
   5   4  -9    0.77    4.17
  -5  -4   8   26.82   12.26
   5   4  -8   26.22    7.39
  -5  -4   7   11.19    8.90
   5   4  -7    0.33    4.04
  -5  -4   6   30.23    9.86
   5   4  -6   29.42    7.91
  -5  -4   5   13.17    8.46
   5   4  -5    8.53    5.52
  -5  -4   4    2.40    5.33
   5   4  -4    5.38    4.27
  -5  -4   3   89.63   11.45
   5   4  -3  101.91    8.54
  -5  -4   2   29.17    7.26
   5   4  -2   31.78    6.22
  -5  -4   1   23.21    7.05
  -5  -4   1   30.48    5.24
  -5  -4   0    4.76    7.94
  -5  -4   0    2.63    4.07
   5   4   1   36.91    9.43
  -5  -4  -1   34.29    7.80
   5   4   2    2.88    5.24
  -5  -4  -2    7.60    7.71
   5   4   3    2.96    4.11
  -5  -4  -3    1.28    4.11
  -5  -5   8   33.16   11.37
   5   5  -8   22.22    7.16
  -5  -5   7   23.50    8.02
   5   5  -7   16.00    6.41
  -5  -5   6    1.39    6.24
   5   5  -6    2.68    3.68
  -5  -5   5   11.84    7.38
   5   5  -5   23.30    5.99
  -5  -5   4  232.54   18.15
   5   5  -4  244.70   12.50
  -5  -5   3  375.79   23.87
  -5  -5   2  202.43   16.44
  -5  -5   1    3.81   10.13
  -5  -5   0  174.84   19.54
  -5  -5   0  152.91   10.12
  -5  -5  -1   34.48   10.18
  -5  -5  -1   34.01    6.80
   5   5   2   78.75    9.97
  -5  -5  -2   82.10   10.53
  -5  -6   7    7.03    6.53
   5   6  -7   15.89    5.87
  -5  -6   6   41.00   12.08
   5   6  -6   49.24   10.19
  -5  -6   5   79.58   13.53
  -5  -6   4  352.42   24.83
  -5  -6   3   17.30    9.29
  -5  -6   2    2.78    6.79
  -5  -6   1    7.60    6.37
  -5  -6   0    0.40    5.29
  -5  -7   5   22.16    9.60
  -5  -7   4   -0.16    5.78
  -5  -7   3    3.64    5.74
  -5  -7   2   11.27    7.31
   6  -8  -2   18.07    7.49
  -6   8   2   27.75    6.98
   6  -8  -1   88.24   16.86
  -6   8   1   80.76   12.23
   6  -8   0   80.60   15.97
  -6   8   0   70.19   11.30
   6  -8   1   38.79   10.60
  -6   8  -1   43.23    9.15
   6  -8   2  185.69   22.67
  -6   8  -2  213.15   14.07
   6  -8   3    9.42   10.13
  -6   8  -3   10.19    8.16
   6  -8   4   21.49    9.95
  -6   8  -4   30.12    9.24
   6  -7  -3   57.33   11.17
   6  -7  -3   58.98   10.59
   6  -7  -2   19.38    7.51
   6  -7  -1    1.34    6.35
  -6   7   1    5.05    6.93
   6  -7   0    7.02    9.08
  -6   7   0    3.05    4.78
   6  -7   1  139.25   14.89
  -6   7  -1  138.14   11.67
   6  -7   2    5.36    8.61
  -6   7  -2    6.16    6.24
   6  -7   3   33.81    9.03
  -6   7  -3   37.32    9.45
   6  -7   4   19.88    9.91
  -6   7  -4   13.49    5.54
   6  -7   5   30.43   10.81
  -6   7  -5   29.52    9.76
   6  -6  -5    9.27    6.03
   6  -6  -5   14.25   10.78
   6  -6  -4  123.20   16.14
   6  -6  -4  130.77   22.36
   6  -6  -3   90.94   10.99
   6  -6  -3  101.73   28.52
   6  -6  -2    1.98    5.51
   6  -6  -2    2.14    5.48
   6  -6  -1    7.10    5.00
   6  -6   0    7.26    6.05
  -6   6   0    9.38    5.43
   6  -6   1   64.70   12.96
  -6   6  -1   60.23    9.11
   6  -6   2   35.24    8.20
  -6   6  -2   34.58    8.24
   6  -6   3    6.36    5.77
  -6   6  -3    3.82    3.68
   6  -6   4    5.41    4.29
  -6   6  -4    3.63    3.93
   6  -6   5   27.62   10.87
  -6   6  -5   33.74    8.51
   6  -5  -6    7.55    4.93
   6  -5  -6   13.13    6.06
   6  -5  -5  601.47   23.54
   6  -5  -5  623.10   22.80
   6  -5  -4  102.21   12.83
   6  -5  -4   77.93   10.41
   6  -5  -3   10.29    6.99
   6  -5  -3    5.55    6.50
   6  -5  -2   11.98    7.08
   6  -5  -2   12.40    8.68
   6  -5  -1   12.47    6.99
   6  -5  -1   10.73    5.78
   6  -5   0   11.34    6.38
  -6   5   0   14.03    6.15
   6  -5   1   50.15    9.01
  -6   5  -1   47.28    8.34
   6  -5   2   18.96    6.35
  -6   5  -2   21.59    6.14
   6  -5   3    1.75    4.03
  -6   5  -3    5.64    5.20
   6  -5   4   17.24    9.44
  -6   5  -4   19.27    7.25
   6  -5   5   29.48   10.39
  -6   5  -5   20.51    8.03
   6  -5   6   12.24    5.58
  -6   5  -6   23.33    7.37
   6  -4  -6  155.28   12.32
   6  -4  -6  152.09   16.04
   6  -4  -5   91.12    9.02
   6  -4  -5   89.83   11.38
   6  -4  -4    4.15    3.95
   6  -4  -4    1.35    3.81
   6  -4  -3    2.07    4.25
   6  -4  -3    1.67    3.88
   6  -4  -2   12.72    6.99
   6  -4  -2   10.17    8.86
   6  -4  -1   47.30    7.35
   6  -4  -1   47.08    8.66
   6  -4   0   27.95    7.31
  -6   4   0   22.44    6.16
   6  -4   1  280.03   17.66
  -6   4  -1  262.86   13.84
   6  -4   2  129.79   13.20
  -6   4  -2  128.37   10.88
   6  -4   3   98.90   12.15
  -6   4  -3  106.30   10.49
   6  -4   4    2.61    4.27
  -6   4  -4    3.76    3.11
   6  -4   5  201.40   15.70
  -6   4  -5  217.20   16.21
   6  -4   6   28.62   27.84
  -6   4  -6   53.23   10.46
   6  -3  -7   53.20   10.53
   6  -3  -6  104.22   10.16
   6  -3  -6  104.34   14.32
   6  -3  -5   10.08    4.79
   6  -3  -5    5.25    3.89
   6  -3  -4    5.73    5.81
   6  -3  -4    5.29    5.28
   6  -3  -3   17.76    5.25
   6  -3  -3   18.55    6.80
   6  -3  -2    5.11    4.31
   6  -3  -2    3.44    3.44
   6  -3  -1    8.21    3.81
   6  -3  -1    9.36    6.82
   6  -3   0   50.85    7.67
   6  -3   1  270.30   14.14
  -6   3  -1  280.25   13.70
   6  -3   2    2.85    4.09
  -6   3  -2    5.43    4.47
   6  -3   3   81.74   12.03
  -6   3  -3   73.12    8.62
   6  -3   4   13.48   10.71
  -6   3  -4   22.80    7.34
   6  -3   5   18.29   16.82
  -6   3  -5   15.68    4.43
   6  -3   6   27.51   25.99
  -6   3  -6   54.80   10.48
   6  -2  -8   21.44    8.04
   6  -2  -7   21.85    8.61
   6  -2  -6    1.00    2.30
   6  -2  -6    0.38    3.65
   6  -2  -5   13.41    5.26
   6  -2  -5   10.50    6.63
   6  -2  -4    8.16    4.13
   6  -2  -4   11.73    7.83
   6  -2  -3    9.19    3.58
   6  -2  -3    1.58    3.75
   6  -2  -2   71.71    7.81
   6  -2  -2   75.49   11.56
   6  -2  -1 1482.51   30.11
   6  -2  -1 1448.93   31.87
   6  -2   0  340.23   14.62
   6  -2   1   39.47    8.08
  -6   2  -1   42.16    8.27
   6  -2   2    6.24    2.58
   6  -2   2    8.25    4.81
  -6   2  -2    6.97    4.99
   6  -2   3   19.91    4.45
   6  -2   3   18.48   12.32
  -6   2  -3   23.11    6.08
   6  -2   4   13.26    4.42
   6  -2   4   10.94    7.81
  -6   2  -4   14.49    5.72
   6  -2   5    8.62    6.04
   6  -2   5    0.81    6.15
  -6   2  -5    8.14    5.71
   6  -2   6   19.49    6.13
  -6   2  -6   26.15    6.47
   6  -1  -8   84.72   14.31
   6  -1  -7    1.70    5.73
   6  -1  -6    8.21    4.63
   6  -1  -5   10.49    3.40
   6  -1  -5   15.63    8.21
   6  -1  -4   50.53    6.35
   6  -1  -4   43.73    8.48
   6  -1  -3    7.92    3.28
   6  -1  -3   10.53    6.57
   6  -1  -2 1417.35   23.92
   6  -1  -2 1417.43   30.75
   6  -1  -1 2773.11   33.81
   6  -1  -1 2753.09   54.40
  -6   1   0    1.72    2.23
   6  -1   0    1.55    3.12
   6  -1   1   53.34    7.99
   6  -1   1   53.81   19.50
  -6   1  -1   53.56    6.39
   6  -1   2    0.76    2.38
   6  -1   2    0.84    4.41
  -6   1  -2    2.06    3.25
   6  -1   3   13.90    4.17
   6  -1   3    9.66    8.20
  -6   1  -3   14.36    4.66
   6  -1   4    9.92    4.80
   6  -1   4    4.22    6.54
  -6   1  -4    4.24    3.67
   6  -1   5   54.81    9.18
  -6   1  -5   52.15   11.85
  -6   1  -5   52.21    8.54
   6   0  -8   75.61   15.10
   6   0  -7    1.66    4.34
  -6   0   6    8.43    4.56
   6   0  -6    7.21    6.40
  -6   0   5   12.48    4.16
   6   0  -5   23.25    7.06
  -6   0   4   23.79    6.08
   6   0  -4   27.30    7.81
  -6   0   3   60.02    6.41
   6   0  -3   46.63    5.38
  -6   0   2  393.09   12.32
   6   0  -2  380.83   14.97
   6   0  -2  384.44   15.80
  -6   0   1    2.43    2.94
   6   0  -1    0.06    2.08
   6   0  -1    1.73    2.81
   6   0   0    5.63    7.42
   6   0   1   15.23    7.84
   6   0   1   12.01   12.19
  -6   0  -1   17.62    4.73
   6   0   2    0.83    2.31
   6   0   2    2.33    3.22
  -6   0  -2    2.21    3.38
   6   0   3    7.73    3.33
  -6   0  -3   10.50    4.39
   6   0   4   23.93    6.31
  -6   0  -4   23.08    7.65
  -6   0  -4   25.56    6.35
   6   0   5   49.59    8.38
  -6   0  -5   48.25   10.13
  -6  -1   8   39.41    9.56
   6   1  -8   25.79    8.96
  -6  -1   7  141.84   13.88
   6   1  -7  147.28   16.61
  -6  -1   6   64.97    9.05
   6   1  -6   51.25   10.21
  -6  -1   5   47.17    8.41
   6   1  -5   58.83   10.96
  -6  -1   4  248.65   12.80
   6   1  -4  267.43   14.93
  -6  -1   3  270.36   12.71
   6   1  -3  292.61   14.50
  -6  -1   2   46.08    6.63
   6   1  -2   34.64    7.47
   6   1  -2   40.55    7.20
  -6  -1   1   55.21    6.85
   6   1  -1   54.87    5.94
   6   1  -1   54.39    8.56
  -6  -1   0   15.74    5.72
  -6  -1   0   12.62    3.15
   6   1   1    2.37    2.85
  -6  -1  -1    4.72    5.19
  -6  -1  -1    7.18    3.47
   6   1   2    7.26    3.57
  -6  -1  -2    8.97    6.02
  -6  -1  -2    6.95    2.89
   6   1   3   63.70   19.31
  -6  -1  -3   81.26   10.63
   6   1   4    6.29    7.75
  -6  -1  -4    2.08    6.99
  -6  -2   8  162.84   20.26
   6   2  -8  193.10   23.46
  -6  -2   7   12.53    7.11
   6   2  -7    8.51    7.56
  -6  -2   6   43.68    9.90
   6   2  -6   34.54    9.27
  -6  -2   5   19.71    6.92
   6   2  -5   15.99    6.01
  -6  -2   4  137.82   12.24
   6   2  -4  145.66   13.76
  -6  -2   3    7.00    4.97
   6   2  -3    6.69    6.63
  -6  -2   2    5.52    4.50
   6   2  -2    4.01    3.02
  -6  -2   1    0.01    3.74
  -6  -2   1    0.45    1.94
   6   2  -1    1.05    2.78
  -6  -2   0    1.99    4.09
  -6  -2   0    0.56    2.62
  -6  -2   0    0.78    2.01
   6   2   1    6.79    3.46
  -6  -2  -1    7.08    4.62
   6   2   2   10.08    8.47
  -6  -2  -2   12.85    5.39
   6   2   3  414.40   30.66
  -6  -2  -3  381.68   19.06
   6   2   4   10.48   12.24
  -6  -2  -4    9.41    5.10
  -6  -3   8   10.88    7.02
  -6  -3   7   40.39   11.27
   6   3  -7   34.75    8.55
  -6  -3   6    1.89    6.27
   6   3  -6    4.47    5.33
  -6  -3   5    8.14    8.71
   6   3  -5   -0.37    2.74
  -6  -3   4   89.81   11.91
   6   3  -4  101.98   10.17
  -6  -3   3   80.49   12.30
   6   3  -3   81.87    8.78
  -6  -3   2   16.80    5.85
   6   3  -2   14.79   11.33
  -6  -3   1   10.87    5.25
  -6  -3   0    7.99    5.60
  -6  -3   0    8.61    4.09
  -6  -3  -1   73.25    8.08
   6   3   2  394.20   23.14
  -6  -3  -2  404.47   19.78
   6   3   3   52.63   18.26
  -6  -3  -3   55.32   10.61
   6   4  -8   24.31    8.60
  -6  -4   7   13.65    7.95
   6   4  -7   14.36    7.73
  -6  -4   6    9.72    7.85
   6   4  -6    7.30    6.41
  -6  -4   5   20.05    7.07
   6   4  -5   14.88    6.74
  -6  -4   4    6.67    6.87
   6   4  -4    2.64    4.56
  -6  -4   3   17.84    7.30
   6   4  -3   20.63    5.56
  -6  -4   2    8.49    5.77
  -6  -4   1    4.50    5.63
  -6  -4   0   38.73   11.95
  -6  -4  -1    5.82    8.55
  -6  -4  -1    4.56    5.16
   6   4   2   16.51    7.26
  -6  -4  -2   15.27    5.51
  -6  -5   7   27.42    8.38
   6   5  -7   29.68    9.86
  -6  -5   6   39.36   11.87
   6   5  -6   32.43    8.70
  -6  -5   5   25.07    9.28
   6   5  -5   25.20    7.87
  -6  -5   4  235.30   19.42
  -6  -5   3   19.04    8.59
  -6  -5   2    6.09    6.29
  -6  -5   1   62.10   12.02
  -6  -5   0   43.62    9.93
  -6  -6   5   18.81    9.58
  -6  -6   4   59.08   12.45
  -6  -6   3   51.59   11.26
   7  -7  -2    1.71    4.85
  -7   7   2   -0.47    3.55
   7  -7  -1   77.66   12.63
  -7   7   1   80.55   12.36
   7  -7   0   69.24   12.79
  -7   7   0   53.75   10.54
   7  -7   1  144.23   22.42
  -7   7  -1  138.80   17.09
   7  -7   2   16.21    9.82
  -7   7  -2   16.74    6.64
   7  -7   3    3.11    5.74
  -7   7  -3   12.97    6.78
   7  -6  -4    4.88    4.85
   7  -6  -4    2.60    5.81
   7  -6  -3    2.32    4.56
   7  -6  -3    4.71    5.15
   7  -6  -2    3.73    6.74
   7  -6  -2    4.71    4.39
   7  -6  -1   65.86   13.43
  -7   6   1   57.58    9.05
   7  -6   0    4.17    5.25
  -7   6   0    0.38    4.13
   7  -6   1   11.29    7.51
  -7   6  -1    7.97    6.33
   7  -6   2    3.54    6.17
  -7   6  -2    1.01    4.72
   7  -6   3    5.36    4.91
  -7   6  -3    2.48    5.91
   7  -6   4    3.07    4.05
  -7   6  -4    1.70    3.65
   7  -5  -5  115.76   11.68
   7  -5  -5   99.52   11.55
   7  -5  -4    6.06    5.97
   7  -5  -4    3.77    4.86
   7  -5  -3   16.00    6.43
   7  -5  -3   12.77   16.59
   7  -5  -2   77.54   11.95
   7  -5  -2   63.11   10.64
   7  -5  -1  214.78   15.07
   7  -5   0    9.16    7.15
  -7   5   0    4.50    7.32
   7  -5   1   18.25    9.09
  -7   5  -1    7.74    4.57
   7  -5   2    1.48    3.88
  -7   5  -2    2.59    5.55
   7  -5   3    2.93    4.86
  -7   5  -3    1.03    4.41
   7  -5   4   16.03    7.61
  -7   5  -4    8.27    4.80
   7  -4  -6    2.68    4.65
   7  -4  -5    5.95    3.60
   7  -4  -5    7.34    9.06
   7  -4  -4    2.11    3.52
   7  -4  -4    0.65    4.06
   7  -4  -3   77.93    9.70
   7  -4  -3   61.89   15.36
   7  -4  -2   93.03   10.27
   7  -4  -2   80.93   15.82
   7  -4  -1    4.13    4.14
   7  -4  -1    6.29    6.40
   7  -4   0   33.79    6.87
  -7   4   0   36.95    8.34
   7  -4   1   20.30    8.68
  -7   4  -1   22.05    5.74
   7  -4   2   15.34    7.88
  -7   4  -2   17.13    6.79
   7  -4   3    4.08    5.27
  -7   4  -3    1.74    3.47
   7  -4   4   66.98   13.34
  -7   4  -4   72.46   10.42
   7  -3  -6    0.20    3.93
   7  -3  -5   17.46    5.75
   7  -3  -5   14.65    7.80
   7  -3  -4   71.33    8.02
   7  -3  -4   68.62    9.48
   7  -3  -3    0.41    2.86
   7  -3  -3    3.97    5.44
   7  -3  -2    4.19    4.48
   7  -3  -2    1.09    3.82
   7  -3  -1   15.87    6.21
   7  -3  -1   11.95    7.02
   7  -3   0   45.41    8.53
  -7   3   0   46.23    7.56
   7  -3   1    4.59    3.17
  -7   3  -1    3.59    3.85
   7  -3   2    6.22    3.92
  -7   3  -2   10.66    6.45
   7  -3   3    1.01    1.38
  -7   3  -3   -0.55    3.56
   7  -3   4   17.75   21.74
  -7   3  -4   27.72    7.31
   7  -2  -7    2.25    3.92
   7  -2  -6    3.71    6.46
   7  -2  -5   53.27    9.38
   7  -2  -4   74.60    7.39
   7  -2  -4   83.55   11.08
   7  -2  -3    3.01    3.64
   7  -2  -3    2.57    4.97
   7  -2  -2   20.31    5.19
   7  -2  -2   15.03    9.37
   7  -2  -1    6.14    3.70
   7  -2  -1    6.19    5.12
   7  -2   0    5.68    3.53
  -7   2   0    9.57    5.22
   7  -2   1   11.53    7.81
  -7   2  -1   12.71    5.08
   7  -2   2  152.69   11.97
  -7   2  -2  159.04   11.39
   7  -2   3   88.31   19.17
  -7   2  -3   87.97   10.97
   7  -2   4   49.42   17.43
  -7   2  -4   51.47    8.31
   7  -1  -7   80.32   16.57
   7  -1  -6   55.52   12.72
   7  -1  -5  230.81   18.28
   7  -1  -4    4.68    5.23
   7  -1  -3   12.54    4.65
   7  -1  -3   12.37    6.27
   7  -1  -2    2.96    3.34
   7  -1  -2    5.05    7.43
   7  -1  -1    7.49    4.27
   7  -1  -1   15.83    7.08
   7  -1   0    0.09    1.93
  -7   1   0    0.65    3.03
   7  -1   1   44.95   17.20
  -7   1  -1   49.49    8.09
   7  -1   2   71.57   17.83
  -7   1  -2   88.20    8.44
   7  -1   3    8.53    7.02
  -7   1  -3   17.22    5.62
  -7   1  -4    1.53    2.42
   7   0  -7   47.14   11.25
   7   0  -6    3.67    6.55
   7   0  -5    2.57    6.27
   7   0  -4   34.13    9.70
   7   0  -3   45.20    9.20
   7   0  -2    3.33    2.76
   7   0  -2    6.26    3.99
   7   0  -1    0.60    1.55
   7   0  -1    1.54    5.19
   7   0   0    5.34    7.93
  -7   0   0   14.31    5.75
   7   0   1   67.61   12.94
  -7   0  -1   73.87    7.60
  -7   0  -2   40.13    5.78
  -7   0  -3    5.13    5.72
  -7   0  -3   -0.55    2.08
   7   1  -7  136.82   20.44
   7   1  -6    6.89    5.10
   7   1  -5   13.55    7.10
   7   1  -4   21.37    6.03
   7   1  -3   10.07    4.89
   7   1  -2    8.64    8.14
   7   1  -1   58.41    7.78
  -7  -1   0   66.93    7.96
  -7  -1   0   77.39    7.34
  -7  -1  -1    3.64    5.67
  -7  -1  -1    7.13    4.00
   7   1   2    1.74    3.96
  -7  -1  -2    2.28    5.18
   7   1   3    6.73    7.05
  -7  -1  -3    8.47    5.77
   7   2  -7   13.75    5.88
   7   2  -6    2.75    5.16
   7   2  -5    3.22    4.25
   7   2  -4   17.86    6.35
  -7  -2   3    2.09    3.78
   7   2  -3    8.66    5.08
  -7  -2   2  155.80   13.27
   7   2  -2  132.62   19.57
  -7  -2   1   84.21    9.03
  -7  -2   0   43.73    8.31
  -7  -2  -1    4.62    5.11
  -7  -2  -1    5.65    5.26
   7   2   2   59.35    8.32
  -7  -2  -2   55.88    8.60
   7   3  -7    4.22    5.99
   7   3  -6    2.99    5.38
  -7  -3   5    2.44    4.09
   7   3  -5    1.22    3.77
  -7  -3   4    2.79    5.73
   7   3  -4   -0.20    2.88
  -7  -3   3    5.40    6.41
   7   3  -3    3.03    3.94
  -7  -3   2   81.98   11.00
  -7  -3   1   10.58    5.62
  -7  -3   0    2.97    6.06
  -7  -3  -1    6.53    4.97
  -7  -4   6    2.75    4.24
   7   4  -6    2.98    4.50
  -7  -4   5    3.12    4.48
   7   4  -5    5.58    5.75
  -7  -4   4   71.35   13.61
  -7  -4   3   31.17   10.28
  -7  -4   2   47.68    9.92
  -7  -4   1    4.05    6.98
   8  -6  -1   15.00    7.33
  -8   6   1   16.98    6.78
   8  -6   0   22.26   11.05
  -8   6   0   25.75    9.47
   8  -5  -3    5.49    4.07
   8  -5  -3    4.61    6.03
   8  -5  -2    5.81    7.46
   8  -5  -2    0.65    4.40
   8  -5  -1    4.51    4.38
  -8   5   1    7.16    9.33
   8  -5   0    2.24    4.33
  -8   5   0    1.78    6.76
   8  -5   1   62.52   12.54
  -8   5  -1   58.88   10.77
   8  -5   2    8.36    6.68
  -8   5  -2   12.19    6.53
   8  -4  -4    1.12    3.42
   8  -4  -3    4.06    3.76
   8  -4  -3    4.33    5.97
   8  -4  -2   10.54    6.63
   8  -4  -2    9.88    6.80
   8  -4  -1    4.63    4.25
   8  -4   0   33.55    9.92
  -8   4   0   31.85    9.07
   8  -4   1  125.05   16.12
  -8   4  -1  140.11   16.61
   8  -4   2   39.30   10.85
  -8   4  -2   39.93    8.30
   8  -3  -5    6.15    7.31
   8  -3  -4    6.47    7.31
   8  -3  -3    4.30    4.38
   8  -3  -3    1.97    3.07
   8  -3  -2    7.99    5.02
   8  -3  -2    9.97   11.11
   8  -3  -1   91.46   11.59
   8  -3   0    7.67    6.14
  -8   3   0    8.26    6.12
   8  -3   1    0.23    3.79
  -8   3  -1    3.48    5.68
   8  -3   2    5.63    5.92
  -8   3  -2    9.53    4.80
   8  -2  -5   -0.30    3.42
   8  -2  -4    7.45    5.31
   8  -2  -3    7.62   10.35
   8  -2  -2  441.01   25.20
   8  -2  -1  719.67   21.06
   8  -2   0   20.21    6.88
  -8   2   0   24.50    6.98
   8  -2   1    5.33    6.75
  -8   2  -1   10.25    5.67
   8  -2   2   10.53    5.93
  -8   2  -2    9.67    5.42
   8  -1  -5    8.39    8.11
   8  -1  -4    7.78    6.89
   8  -1  -3   96.94   14.28
   8  -1  -2  826.99   42.44
   8  -1  -1    5.38    5.54
   8  -1   0    2.92    3.19
  -8   1   0   14.09    6.88
   8  -1   1    0.43    2.14
  -8   1  -1    0.90    3.00
   8  -1   2    0.34    3.07
  -8   1  -2    2.54    3.49
   8   0  -6   15.15    7.64
   8   0  -5    2.84    5.02
   8   0  -4   30.86    8.91
   8   0  -3    4.65    5.06
   8   0  -2   15.07   14.55
  -8   0   0    7.66    5.09
  -8   0  -1    3.72    4.16
   8   1  -5   55.22   11.98
   8   1  -4  136.60   16.95
   8   1  -3    0.82    2.31
   8   1  -2    6.43    6.04
  -8  -1   1    0.65    2.17
   8   2  -5    4.23    3.99
   8   2  -4   38.89    8.40
   8   2  -3    6.27    7.23
   8   2  -2    6.10    5.22
   0   0   0    0.00    0.00
;
_shelx_hkl_checksum              23140
loop_
_space_group_symop_operation_xyz
'x, y, z'
loop_
_atom_site_label
_atom_site_type_symbol
_atom_site_fract_x
_atom_site_fract_y
_atom_site_fract_z
_atom_site_U_iso_or_equiv
_atom_site_adp_type
_atom_site_occupancy
_atom_site_site_symmetry_order
_atom_site_calc_flag
_atom_site_refinement_flags_posn
_atom_site_refinement_flags_adp
_atom_site_refinement_flags_occupancy
_atom_site_disorder_assembly
_atom_site_disorder_group
N1 N 0.7506(11) 0.4920(10) 0.6315(9) 0.0422(18) Uani 1 1 d . . . . .
N2 N 0.7565(11) 0.8033(9) 0.3163(9) 0.0388(17) Uani 1 1 d . . . . .
N3 N 0.4346(10) 0.0339(8) -0.4491(8) 0.0351(16) Uani 1 1 d . . . . .
N4 N 0.4386(10) -0.2770(9) -0.1412(9) 0.0395(17) Uani 1 1 d . . . . .
O1A O 0.018(5) -0.113(3) 0.101(3) 0.069(8) Uani 0.25 1 d D U P A 1
O1B O 0.129(4) 0.621(3) 0.077(3) 0.064(7) Uani 0.25 1 d D U P A 1
C1 C 0.034(3) 0.002(3) 0.014(3) 0.044(3) Uani 0.5 1 d D U P A 1
C2 C -0.022(3) -0.030(3) -0.171(3) 0.032(3) Uani 0.5 1 d . U P A 1
C3 C -0.003(3) 0.110(3) -0.248(3) 0.038(3) Uani 0.5 1 d . U P A 1
C4 C 0.054(2) 0.286(2) -0.145(2) 0.038(2) Uani 0.25 1 d . U P A 1
N1B N 0.054(2) 0.286(2) -0.145(2) 0.038(2) Uani 0.25 1 d . U P A 1
C5 C 0.099(5) 0.327(3) 0.054(3) 0.029(3) Uani 0.5 1 d D U P A 1
C6 C 0.088(5) 0.189(4) 0.130(4) 0.036(3) Uani 0.5 1 d . U P A 1
C7 C 0.130(2) 0.219(2) 0.311(2) 0.041(2) Uani 0.25 1 d . U P A 1
N1A N 0.130(2) 0.219(2) 0.311(2) 0.041(2) Uani 0.25 1 d . U P A 1
C8 C 0.191(3) 0.397(3) 0.420(3) 0.041(3) Uani 0.5 1 d . U P A 1
C9 C 0.200(4) 0.560(3) 0.351(3) 0.043(4) Uani 0.5 1 d D U P A 1
C10 C 0.164(3) 0.511(2) 0.164(2) 0.038(3) Uani 0.5 1 d D U P A 1
O1C O 0.075(3) 0.299(2) -0.261(2) 0.050(5) Uani 0.25 1 d D U P B 2
O1D O 0.188(3) 0.276(3) 0.472(2) 0.047(5) Uani 0.25 1 d D U P B 2
C1' C 0.061(2) 0.046(2) 0.139(2) 0.040(2) Uani 0.25 1 d . U P B 2
N1D N 0.061(2) 0.046(2) 0.139(2) 0.040(2) Uani 0.25 1 d . U P B 2
C2' C -0.004(3) -0.067(3) -0.059(3) 0.041(3) Uani 0.5 1 d . U P B 2
C3' C -0.007(3) 0.016(3) -0.212(3) 0.042(4) Uani 0.5 1 d D U P B 2
C4' C 0.023(3) 0.193(2) -0.166(2) 0.037(3) Uani 0.5 1 d D U P B 2
C5' C 0.093(5) 0.300(3) 0.022(2) 0.029(3) Uani 0.5 1 d D U P B 2
C6' C 0.104(5) 0.221(4) 0.161(3) 0.035(3) Uani 0.5 1 d D U P B 2
C7' C 0.150(3) 0.337(2) 0.341(2) 0.043(3) Uani 0.5 1 d D U P B 2
C8' C 0.218(4) 0.524(2) 0.377(3) 0.039(4) Uani 0.5 1 d D U P B 2
C9' C 0.189(3) 0.598(3) 0.235(3) 0.042(3) Uani 0.5 1 d . U P B 2
C10' C 0.136(2) 0.496(2) 0.073(2) 0.036(3) Uani 0.25 1 d . U P B 2
N1C N 0.136(2) 0.496(2) 0.073(2) 0.036(3) Uani 0.25 1 d . . P B 2
C11 C 0.7070(12) 0.4277(10) 0.4771(9) 0.0296(18) Uani 1 1 d . . . . .
C12 C 0.6499(10) 0.3387(10) 0.2778(8) 0.0232(16) Uani 1 1 d . . . . .
C13 C 0.5959(10) 0.1568(10) 0.2022(9) 0.0248(17) Uani 1 1 d . . . . .
H13 H 0.594527 0.082020 0.277488 0.030 Uiso 1 1 calc R U . . .
C14 C 0.5411(11) 0.0762(9) 0.0108(10) 0.0256(17) Uani 1 1 d . . . . .
C15 C 0.5420(9) 0.1841(9) -0.0996(9) 0.0204(16) Uani 1 1 d . . . . .
C16 C 0.5960(10) 0.3773(9) -0.0192(9) 0.0215(16) Uani 1 1 d . . . . .
H16 H 0.594723 0.452371 -0.094189 0.026 Uiso 1 1 calc R U . . .
C17 C 0.6495(9) 0.4543(8) 0.1657(8) 0.0187(15) Uani 1 1 d . . . . .
C18 C 0.7069(10) 0.6470(10) 0.2500(9) 0.0238(16) Uani 1 1 d . . . . .
C19 C 0.4837(12) -0.1225(10) -0.0741(11) 0.0325(18) Uani 1 1 d . . . . .
C20 C 0.4839(10) 0.1036(9) -0.2923(10) 0.0245(17) Uani 1 1 d . . . . .
loop_
_atom_site_aniso_label
_atom_site_aniso_U_11
_atom_site_aniso_U_22
_atom_site_aniso_U_33
_atom_site_aniso_U_23
_atom_site_aniso_U_13
_atom_site_aniso_U_12
N1 0.049(4) 0.042(4) 0.027(4) 0.005(3) 0.007(3) 0.005(3)
N2 0.059(4) 0.027(4) 0.038(4) 0.012(3) 0.015(3) 0.022(4)
N3 0.050(4) 0.035(4) 0.022(3) 0.011(3) 0.010(3) 0.012(3)
N4 0.045(4) 0.023(4) 0.034(4) 0.000(3) 0.000(3) -0.004(3)
O1A 0.091(14) 0.041(11) 0.085(13) 0.023(9) 0.048(11) 0.015(9)
O1B 0.081(13) 0.020(9) 0.107(14) 0.029(9) 0.049(10) 0.015(8)
C1 0.033(5) 0.044(5) 0.051(5) 0.007(5) 0.013(5) 0.012(5)
C2 0.019(5) 0.030(6) 0.045(6) 0.006(5) 0.013(5) 0.009(5)
C3 0.023(5) 0.044(6) 0.044(5) 0.006(5) 0.013(4) 0.009(5)
C4 0.027(4) 0.047(4) 0.038(4) 0.009(4) 0.010(3) 0.009(4)
N1B 0.027(4) 0.047(4) 0.038(4) 0.009(4) 0.010(3) 0.009(4)
C5 0.015(4) 0.042(5) 0.032(5) 0.011(4) 0.012(4) 0.011(5)
C6 0.029(4) 0.043(5) 0.038(5) 0.016(4) 0.008(4) 0.012(4)
C7 0.034(4) 0.049(4) 0.037(4) 0.011(4) 0.008(3) 0.010(4)
N1A 0.034(4) 0.049(4) 0.037(4) 0.011(4) 0.008(3) 0.010(4)
C8 0.029(5) 0.050(6) 0.031(5) -0.006(5) 0.006(5) 0.010(5)
C9 0.027(5) 0.046(6) 0.044(6) -0.006(5) 0.010(5) 0.010(5)
C10 0.025(5) 0.045(5) 0.043(6) 0.008(5) 0.012(5) 0.013(4)
O1C 0.058(9) 0.072(9) 0.027(8) 0.027(7) 0.002(6) 0.022(7)
O1D 0.051(8) 0.056(9) 0.024(7) 0.000(7) 0.002(6) 0.017(7)
C1' 0.034(4) 0.037(4) 0.048(4) 0.011(4) 0.009(4) 0.012(3)
N1D 0.034(4) 0.037(4) 0.048(4) 0.011(4) 0.009(4) 0.012(3)
C2' 0.026(5) 0.037(6) 0.051(6) -0.001(5) 0.011(5) 0.008(5)
C3' 0.025(5) 0.046(6) 0.046(6) -0.001(5) 0.009(5) 0.013(5)
C4' 0.022(4) 0.045(6) 0.046(5) 0.008(5) 0.013(4) 0.015(5)
C5' 0.015(4) 0.037(5) 0.038(5) 0.014(4) 0.011(5) 0.010(4)
C6' 0.030(5) 0.037(5) 0.041(5) 0.015(4) 0.009(4) 0.012(4)
C7' 0.037(5) 0.052(5) 0.039(5) 0.011(5) 0.008(4) 0.014(5)
C8' 0.028(5) 0.045(6) 0.036(6) 0.003(5) 0.001(5) 0.012(5)
C9' 0.020(5) 0.041(6) 0.053(6) 0.002(5) 0.008(5) 0.005(5)
C10' 0.027(4) 0.038(5) 0.041(5) 0.009(5) 0.007(5) 0.008(4)
N1C 0.027(4) 0.038(5) 0.041(5) 0.009(5) 0.007(5) 0.008(4)
C11 0.040(4) 0.030(4) 0.020(4) 0.008(3) 0.014(3) 0.008(4)
C12 0.026(3) 0.030(4) 0.014(3) 0.009(3) 0.001(3) 0.008(3)
C13 0.029(4) 0.026(4) 0.016(4) 0.005(3) 0.004(3) 0.004(3)
C14 0.024(4) 0.022(4) 0.023(4) 0.003(3) 0.001(3) 0.000(3)
C15 0.015(3) 0.018(3) 0.026(4) 0.002(3) 0.010(3) 0.003(3)
C16 0.021(3) 0.021(4) 0.032(4) 0.015(3) 0.013(3) 0.011(3)
C17 0.018(3) 0.016(4) 0.024(4) 0.006(3) 0.008(3) 0.008(3)
C18 0.023(3) 0.029(5) 0.017(3) 0.005(3) 0.006(3) 0.007(3)
C19 0.045(4) 0.021(4) 0.032(4) 0.011(3) 0.005(3) 0.010(4)
C20 0.027(4) 0.016(3) 0.028(4) 0.007(3) 0.001(3) 0.005(3)
loop_
_atom_type_symbol
_atom_type_description
_atom_type_scat_dispersion_real
_atom_type_scat_dispersion_imag
_atom_type_scat_source
C C 0.0033 0.0016 'International Tables Vol C Tables 4.2.6.8 and 6.1.1.4'
H H 0.0000 0.0000 'International Tables Vol C Tables 4.2.6.8 and 6.1.1.4'
N N 0.0061 0.0033 'International Tables Vol C Tables 4.2.6.8 and 6.1.1.4'
O O 0.0106 0.0060 'International Tables Vol C Tables 4.2.6.8 and 6.1.1.4'
loop_
_geom_angle_atom_site_label_1
_geom_angle_atom_site_label_2
_geom_angle_atom_site_label_3
_geom_angle
_geom_angle_site_symmetry_1
_geom_angle_site_symmetry_3
_geom_angle_publ_flag
O1A C1 C2 129(2) . . ?
O1A C1 C6 114(2) . . ?
C2 C1 C6 116(2) . . ?
C1 C2 C3 123.1(17) . . ?
C4 C3 C2 121.9(19) . . ?
C3 C4 C5 116.6(19) . . ?
C6 C5 C10 120.9(16) . . ?
C6 C5 C4 121.6(15) . . ?
C10 C5 C4 117.4(19) . . ?
C7 C6 C5 124(2) . . ?
C7 C6 C1 116(3) . . ?
C5 C6 C1 120(2) . . ?
C6 C7 C8 116(2) . . ?
C7 C8 C9 124.4(18) . . ?
C10 C9 C8 113.0(17) . . ?
O1B C10 C9 122.6(18) . . ?
O1B C10 C5 113.6(17) . . ?
C9 C10 C5 121.1(18) . . ?
C6' C1' C2' 111.3(17) . . ?
C1' C2' C3' 122.9(17) . . ?
C4' C3' C2' 117.2(18) . . ?
C3' C4' O1C 128.3(18) . . ?
C3' C4' C5' 118.7(17) . . ?
O1C C4' C5' 107.9(17) . . ?
C6' C5' C4' 122.2(17) . . ?
C6' C5' C10' 118.9(14) . . ?
C4' C5' C10' 118.7(19) . . ?
C1' C6' C7' 115(3) . . ?
C1' C6' C5' 126.8(15) . . ?
C7' C6' C5' 118(2) . . ?
O1D C7' C6' 121(2) . . ?
O1D C7' C8' 118(2) . . ?
C6' C7' C8' 119(2) . . ?
C7' C8' C9' 120.1(19) . . ?
C10' C9' C8' 120(2) . . ?
C9' C10' C5' 122.4(19) . . ?
N1 C11 C12 178.1(8) . . ?
C13 C12 C17 120.8(6) . . ?
C13 C12 C11 121.5(7) . . ?
C17 C12 C11 117.7(7) . . ?
C12 C13 C14 119.9(7) . . ?
C12 C13 H13 120.0 . . ?
C14 C13 H13 120.0 . . ?
C15 C14 C13 120.4(7) . . ?
C15 C14 C19 119.0(7) . . ?
C13 C14 C19 120.6(7) . . ?
C14 C15 C20 120.6(7) . . ?
C14 C15 C16 119.7(6) . . ?
C20 C15 C16 119.7(7) . . ?
C17 C16 C15 119.6(6) . . ?
C17 C16 H16 120.2 . . ?
C15 C16 H16 120.2 . . ?
C16 C17 C18 120.9(7) . . ?
C16 C17 C12 119.6(6) . . ?
C18 C17 C12 119.5(6) . . ?
N2 C18 C17 178.6(8) . . ?
N4 C19 C14 179.6(9) . . ?
N3 C20 C15 178.3(8) . . ?
loop_
_geom_bond_atom_site_label_1
_geom_bond_atom_site_label_2
_geom_bond_distance
_geom_bond_site_symmetry_2
_geom_bond_publ_flag
N1 C11 1.136(10) . ?
N2 C18 1.149(9) . ?
N3 C20 1.156(9) . ?
N4 C19 1.137(10) . ?
O1A C1 1.283(14) . ?
O1B C10 1.276(13) . ?
C1 C2 1.38(3) . ?
C1 C6 1.43(3) . ?
C2 C3 1.40(3) . ?
C3 C4 1.33(2) . ?
C4 C5 1.47(3) . ?
C5 C6 1.38(4) . ?
C5 C10 1.400(14) . ?
C6 C7 1.34(3) . ?
C7 C8 1.36(2) . ?
C8 C9 1.53(3) . ?
C9 C10 1.380(14) . ?
O1C C4' 1.314(13) . ?
O1D C7' 1.267(14) . ?
C1' C6' 1.31(4) . ?
C1' C2' 1.50(2) . ?
C2' C3' 1.53(3) . ?
C3' C4' 1.31(2) . ?
C4' C5' 1.424(14) . ?
C5' C6' 1.40(3) . ?
C5' C10' 1.44(3) . ?
C6' C7' 1.393(14) . ?
C7' C8' 1.395(14) . ?
C8' C9' 1.41(3) . ?
C9' C10' 1.25(3) . ?
C11 C12 1.470(9) . ?
C12 C13 1.336(10) . ?
C12 C17 1.442(10) . ?
C13 C14 1.409(10) . ?
C13 H13 0.9500 . ?
C14 C15 1.381(11) . ?
C14 C19 1.461(11) . ?
C15 C20 1.418(10) . ?
C15 C16 1.420(9) . ?
C16 C17 1.359(9) . ?
C16 H16 0.9500 . ?
C17 C18 1.419(10) . ?
loop_
_geom_torsion_atom_site_label_1
_geom_torsion_atom_site_label_2
_geom_torsion_atom_site_label_3
_geom_torsion_atom_site_label_4
_geom_torsion
_geom_torsion_site_symmetry_1
_geom_torsion_site_symmetry_2
_geom_torsion_site_symmetry_3
_geom_torsion_site_symmetry_4
_geom_torsion_publ_flag
O1A C1 C2 C3 178(2) . . . . ?
C6 C1 C2 C3 8(3) . . . . ?
C1 C2 C3 C4 -6(3) . . . . ?
C2 C3 C4 C5 1(3) . . . . ?
C3 C4 C5 C6 2(4) . . . . ?
C3 C4 C5 C10 178(2) . . . . ?
C10 C5 C6 C7 2(5) . . . . ?
C4 C5 C6 C7 179(3) . . . . ?
C10 C5 C6 C1 -176(3) . . . . ?
C4 C5 C6 C1 1(4) . . . . ?
O1A C1 C6 C7 5(4) . . . . ?
C2 C1 C6 C7 176(2) . . . . ?
O1A C1 C6 C5 -177(3) . . . . ?
C2 C1 C6 C5 -6(4) . . . . ?
C5 C6 C7 C8 -1(4) . . . . ?
C1 C6 C7 C8 177(2) . . . . ?
C6 C7 C8 C9 4(3) . . . . ?
C7 C8 C9 C10 -7(3) . . . . ?
C8 C9 C10 O1B 168(2) . . . . ?
C8 C9 C10 C5 8(3) . . . . ?
C6 C5 C10 O1B -168(3) . . . . ?
C4 C5 C10 O1B 16(4) . . . . ?
C6 C5 C10 C9 -6(4) . . . . ?
C4 C5 C10 C9 177(2) . . . . ?
C6' C1' C2' C3' 3(3) . . . . ?
C1' C2' C3' C4' -9(3) . . . . ?
C2' C3' C4' O1C 162.9(19) . . . . ?
C2' C3' C4' C5' 11(3) . . . . ?
C3' C4' C5' C6' -9(4) . . . . ?
O1C C4' C5' C6' -166(3) . . . . ?
C3' C4' C5' C10' 177(2) . . . . ?
O1C C4' C5' C10' 20(3) . . . . ?
C2' C1' C6' C7' 175(2) . . . . ?
C2' C1' C6' C5' 0(4) . . . . ?
C4' C5' C6' C1' 2(5) . . . . ?
C10' C5' C6' C1' 177(3) . . . . ?
C4' C5' C6' C7' -172(3) . . . . ?
C10' C5' C6' C7' 2(4) . . . . ?
C1' C6' C7' O1D 14(4) . . . . ?
C5' C6' C7' O1D -171(3) . . . . ?
C1' C6' C7' C8' 173(2) . . . . ?
C5' C6' C7' C8' -11(4) . . . . ?
O1D C7' C8' C9' 177(2) . . . . ?
C6' C7' C8' C9' 17(4) . . . . ?
C7' C8' C9' C10' -13(3) . . . . ?
C8' C9' C10' C5' 3(3) . . . . ?
C6' C5' C10' C9' 2(4) . . . . ?
C4' C5' C10' C9' 177(2) . . . . ?
C17 C12 C13 C14 1.1(10) . . . . ?
C11 C12 C13 C14 179.7(7) . . . . ?
C12 C13 C14 C15 -0.2(11) . . . . ?
C12 C13 C14 C19 179.3(6) . . . . ?
C13 C14 C15 C20 -179.1(7) . . . . ?
C19 C14 C15 C20 1.3(10) . . . . ?
C13 C14 C15 C16 -0.8(9) . . . . ?
C19 C14 C15 C16 179.6(7) . . . . ?
C14 C15 C16 C17 1.0(8) . . . . ?
C20 C15 C16 C17 179.3(6) . . . . ?
C15 C16 C17 C18 179.1(6) . . . . ?
C15 C16 C17 C12 -0.2(8) . . . . ?
C13 C12 C17 C16 -0.8(9) . . . . ?
C11 C12 C17 C16 -179.5(6) . . . . ?
C13 C12 C17 C18 179.8(7) . . . . ?
C11 C12 C17 C18 1.1(9) . . . . ?
