#------------------------------------------------------------------------------
#$Date: 2020-02-13 01:19:08 +0200 (Thu, 13 Feb 2020) $
#$Revision: 248090 $
#$URL: file:///home/coder/svn-repositories/cod/cif/4/00/34/4003479.cif $
#------------------------------------------------------------------------------
#
# This file is available in the Crystallography Open Database (COD),
# http://www.crystallography.net/
#
# All data on this site have been placed in the public domain by the
# contributors.
#
data_4003479
loop_
_publ_author_name
'W\"orle, Michael'
'Guntlin, Christoph P.'
'Gyr, Luzia'
'Sougrati, Moulay T.'
'Lambert, Charles-Henri'
'Kravchyk, Kostiantyn V.'
'Zenobi, Renato'
'Kovalenko, Maksym V.'
_publ_section_title
;
 Structural Evolution of Iron(III) Trifluoroacetate upon Thermal
 Decomposition: Chains, Layers, and Rings
;
_journal_name_full               'Chemistry of Materials'
_journal_paper_doi               10.1021/acs.chemmater.9b05004
_journal_year                    2020
_chemical_formula_moiety         'C10 F16 Fe2 O10'
_chemical_formula_sum            'C10 F16 Fe2 O10'
_chemical_formula_weight         695.80
_space_group_crystal_system      triclinic
_space_group_IT_number           2
_space_group_name_Hall           '-P 1'
_space_group_name_H-M_alt        'P -1'
_atom_sites_solution_primary     dual
_audit_creation_date             2018-02-01
_audit_creation_method
;
Olex2 1.2
(compiled 2017.08.10 svn.r3458 for OlexSys, GUI svn.r5381)
;
_cell_angle_alpha                106.748(16)
_cell_angle_beta                 92.231(18)
_cell_angle_gamma                90.877(17)
_cell_formula_units_Z            2
_cell_length_a                   8.483(2)
_cell_length_b                   8.5123(15)
_cell_length_c                   14.559(3)
_cell_measurement_reflns_used    894
_cell_measurement_temperature    100.01(10)
_cell_measurement_theta_max      50.4870
_cell_measurement_theta_min      5.1790
_cell_volume                     1005.6(4)
_computing_cell_refinement       'CrysAlisPro 1.171.39.23a (Rigaku OD, 2015)'
_computing_data_collection       'CrysAlisPro 1.171.39.23a (Rigaku OD, 2015)'
_computing_data_reduction        'CrysAlisPro 1.171.39.23a (Rigaku OD, 2015)'
_computing_molecular_graphics    'Olex2 (Dolomanov et al., 2009)'
_computing_publication_material  'Olex2 (Dolomanov et al., 2009)'
_computing_structure_refinement  'ShelXL (Sheldrick, 2015)'
_computing_structure_solution    'ShelXT (Sheldrick, 2015)'
_diffrn_ambient_environment      N~2~
_diffrn_ambient_temperature      100.01(10)
_diffrn_detector                 'CCD plate'
_diffrn_detector_type            'Pilatus 300K'
_diffrn_measured_fraction_theta_full 0.991
_diffrn_measured_fraction_theta_max 0.991
_diffrn_measurement_details
;
List of Runs (angles in degrees, time in seconds):

  # Type    Start    End  Width  t~exp~   \w     \q     \k     \f   Frames
--------------------------------------------------------------------------
  1  \w    -20.00   7.00   0.50    5.00    --  -57.07  77.00   0.00   54
  2  \w    -32.00   0.00   0.50    5.00    --  -57.07  77.00 -90.00   64
  3  \w    -49.00  14.00   0.50    5.00    --  -57.07  57.00-150.00  126
  4  \w    -65.00 -35.00   0.50    5.00    --  -57.07  77.00   0.00   60
  5  \w    -80.00   3.00   0.50    5.00    --  -57.07  77.00 -30.00  166
  6  \w    -72.00 -37.00   0.50    5.00    --  -57.07  77.00 -90.00   70
  7  \w    -81.00 -46.00   0.50    5.00    --  -57.07  77.00-120.00   70
  8  \w   -132.00 -49.00   0.50    5.00    --  -57.07 -38.00  60.00  166
  9  \w   -118.00 -90.00   0.50    5.00    --  -57.07 -99.00   0.00   56
 10  \w   -115.00 -82.00   0.50    5.00    --  -57.07 -77.00 -60.00   66
 11  \w   -118.00 -78.00   0.50    5.00    --  -57.07 -77.00-180.00   80
 12  \w     -1.00  89.00   0.50    5.00    --   55.20 -99.00  60.00  180
 13  \w     55.00  89.00   0.50    5.00    --   55.20 -99.00 150.00   68
 14  \w     -5.00  32.00   0.50    5.00    --   55.20 -99.00 150.00   74
 15  \w     79.00 104.00   0.50    5.00    --   55.20  77.00  60.00   50
 16  \w     82.00 126.00   0.50    5.00    --   55.20 178.00-120.00   88
 17  \w     86.00 111.00   0.50    5.00    --   55.20  77.00-150.00   50
;
_diffrn_measurement_device       'four-circle diffractometer'
_diffrn_measurement_device_type  'XtaLAB Synergy, Dualflex, Pilatus 300K'
_diffrn_measurement_method       '\w scans'
_diffrn_orient_matrix_type
'CrysAlisPro convention (1999,Acta A55,543-557)'
_diffrn_orient_matrix_UB_11      0.0229166000
_diffrn_orient_matrix_UB_12      -0.1605899000
_diffrn_orient_matrix_UB_13      -0.0800927000
_diffrn_orient_matrix_UB_21      0.1605855000
_diffrn_orient_matrix_UB_22      0.0667676000
_diffrn_orient_matrix_UB_23      -0.0204793000
_diffrn_orient_matrix_UB_31      0.0821056000
_diffrn_orient_matrix_UB_32      -0.0741621000
_diffrn_orient_matrix_UB_33      0.0734947000
_diffrn_radiation_monochromator  mirror
_diffrn_radiation_probe          x-ray
_diffrn_radiation_type           CuK\a
_diffrn_radiation_wavelength     1.54184
_diffrn_reflns_av_R_equivalents  0.1199
_diffrn_reflns_av_unetI/netI     0.1754
_diffrn_reflns_Laue_measured_fraction_full 0.991
_diffrn_reflns_Laue_measured_fraction_max 0.991
_diffrn_reflns_limit_h_max       8
_diffrn_reflns_limit_h_min       -8
_diffrn_reflns_limit_k_max       7
_diffrn_reflns_limit_k_min       -8
_diffrn_reflns_limit_l_max       14
_diffrn_reflns_limit_l_min       -12
_diffrn_reflns_number            5103
_diffrn_reflns_point_group_measured_fraction_full 0.991
_diffrn_reflns_point_group_measured_fraction_max 0.991
_diffrn_reflns_theta_full        50.435
_diffrn_reflns_theta_max         50.435
_diffrn_reflns_theta_min         5.220
_diffrn_source                   'micro-focus sealed X-ray tube'
_diffrn_source_type              'PhotonJet (Cu) X-ray Source'
_diffrn_standards_number         0
_exptl_absorpt_coefficient_mu    13.506
_exptl_absorpt_correction_T_max  0.70941
_exptl_absorpt_correction_T_min  0.69535
_exptl_absorpt_correction_type   multi-scan
_exptl_absorpt_process_details
'CrysAlisPro 1.171.39.23a (Rigaku Oxford Diffraction, 2015) Spherical absorption correction using equivalent radius and absorption coefficient. Empirical absorption correction using spherical harmonics, implemented in SCALE3 ABSPACK scaling algorithm.'
_exptl_crystal_colour            colourless
_exptl_crystal_colour_primary    colourless
_exptl_crystal_density_diffrn    2.298
_exptl_crystal_description       needle
_exptl_crystal_F_000             672
_exptl_crystal_size_max          0.133
_exptl_crystal_size_mid          0.02
_exptl_crystal_size_min          0.01
_refine_diff_density_max         0.775
_refine_diff_density_min         -0.761
_refine_diff_density_rms         0.173
_refine_ls_extinction_method     none
_refine_ls_goodness_of_fit_ref   1.075
_refine_ls_hydrogen_treatment    undef
_refine_ls_matrix_type           full
_refine_ls_number_parameters     235
_refine_ls_number_reflns         2086
_refine_ls_number_restraints     43
_refine_ls_restrained_S_all      1.066
_refine_ls_R_factor_all          0.1766
_refine_ls_R_factor_gt           0.0996
_refine_ls_shift/su_max          0.000
_refine_ls_shift/su_mean         0.000
_refine_ls_structure_factor_coef Fsqd
_refine_ls_weighting_details
'w=1/[\s^2^(Fo^2^)+(0.1404P)^2^+13.1967P] where P=(Fo^2^+2Fc^2^)/3'
_refine_ls_weighting_scheme      calc
_refine_ls_wR_factor_gt          0.2745
_refine_ls_wR_factor_ref         0.3125
_reflns_Friedel_coverage         0.000
_reflns_number_gt                1127
_reflns_number_total             2086
_reflns_threshold_expression     'I > 2\s(I)'
_cod_data_source_file            cm9b05004_si_002.cif
_cod_data_source_block           sm300118_3_1
_cod_database_code               4003479
_shelx_shelxl_version_number     2016/6
_chemical_oxdiff_formula         Fe2C10O10F16
_shelx_space_group_comment
;
The symmetry employed for this shelxl refinement is uniquely defined
by the following loop, which should always be used as a source of
symmetry information in preference to the above space-group names.
They are only intended as comments.
;
_shelx_estimated_absorpt_t_max   0.877
_shelx_estimated_absorpt_t_min   0.267
_reflns_odcompleteness_completeness 99.14
_reflns_odcompleteness_iscentric 1
_reflns_odcompleteness_theta     50.38
_olex2_refinement_description
;
1. Restrained distances
 C10-C9 \\sim C9-C0
 with sigma of 0.001
 F15-C10 \\sim F14-C10 \\sim F13-C10 \\sim F15A-C0 \\sim F14A-C0 \\sim F13A-C0
 with sigma of 0.001
 F15-F13 \\sim F15-F14 \\sim F15A-F13A \\sim F13A-F14A \\sim F13-F14 \\sim
F15A-F14A
 with sigma of 0.02
 C7-O8 \\sim C7-O7 \\sim C7-C8
 with sigma of 0.02
2. Uiso/Uaniso restraints and constraints
Uiso(C0) = Uiso(C10)
Uiso(F15A) = Uiso(F14) = Uiso(F14A) = Uiso(F13) = Uiso(F13A) = Uiso(F15)
Uiso(F10) = Uiso(F10A) = Uiso(F11) = Uiso(F11A) = Uiso(F12) = Uiso(F12A)
3. Rigid body (RIGU) restrains
 All non-hydrogen atoms
 with sigma for 1-2 distances of 0.004 and sigma for 1-3 distances of 0.004
4. Others
 Sof(F13A)=Sof(F14A)=Sof(F15A)=Sof(C0)=1-FVAR(1)
 Sof(F13)=Sof(F14)=Sof(F15)=Sof(C10)=FVAR(1)
 Sof(F10A)=Sof(F11A)=Sof(F12A)=1-FVAR(2)
 Sof(F10)=Sof(F11)=Sof(F12)=FVAR(2)
;
_shelx_res_file
;
TITL sm300118_3_1_a.res in P-1
    sm300118_3_1.res
    created by SHELXL-2016/6 at 16:27:12 on 01-Feb-2018
REM Old TITL sm300118_3_1 in P-1
REM SHELXT solution in P-1
REM R1 0.249, Rweak 0.032, Alpha 0.140, Orientation as input
REM Formula found by SHELXT: C13 O10 F13 Fe2
CELL 1.54184 8.4832 8.5123 14.5591 106.748 92.231 90.877
ZERR 2 0.0022 0.0015 0.0026 0.016 0.018 0.017
LATT 1
SFAC C O F Fe
UNIT 20 20 32 4
SADI 0.001 C10 C9 C9 C0
SADI 0.001 F15 C10 F14 C10 F13 C10 F15A C0 F14A C0 F13A C0
SADI F15 F13 F15 F14 F15A F13A F13A F14A F13 F14 F15A F14A
SADI C7 O8 C7 O7 C7 C8
RIGU
EADP C0 C10
EADP F15A F14 F14A F13 F13A F15
EADP F10 F10A F11 F11A F12 F12A

L.S. 20
PLAN  20
SIZE 0.01 0.02 0.133
BIND F15A C0
FREE F15A F13A
FREE F15 F13
FREE F15 F14
FREE F13 F14
FREE F13A F14A
list 4
fmap 2
acta
SHEL 999 1
REM <olex2.extras>
REM <HklSrc "%.\\sm300118_3_1.hkl">
REM </olex2.extras>

WGHT    0.140400   13.196700
FVAR       0.57438   0.66253   0.60852
FE1   4    0.500000    0.500000    0.000000    10.50000    0.04588    0.03388 =
         0.01618    0.00591    0.00382    0.00454
FE2   4    0.423873    0.635534    0.241445    11.00000    0.04955    0.03075 =
         0.01754    0.01004    0.00473    0.00483
FE3   4    0.500000    0.500000    0.500000    10.50000    0.05695    0.03684 =
         0.02406    0.01669    0.00784    0.01022
F1    3    0.930866    0.746568    0.334643    11.00000    0.10885    0.03535 =
         0.07529    0.01971    0.04078   -0.00129
F2    3    0.922524    0.493482    0.256050    11.00000    0.08140    0.05736 =
         0.05870    0.01311    0.02384    0.01504
F3    3    0.994406    0.568898    0.405294    11.00000    0.08175    0.11944 =
         0.05638    0.01907    0.01084    0.01787
F4    3    0.128501    0.198945    0.189205    11.00000    0.16481    0.04653 =
         0.08367    0.01824   -0.05833   -0.01977
F5    3    0.267376    0.054847    0.262041    11.00000    0.10508    0.03629 =
         0.08333    0.01966   -0.01272    0.00604
F6    3    0.082883    0.204978    0.331744    11.00000    0.08582    0.09012 =
         0.12116    0.02896    0.04817   -0.01030
F7    3   -0.062215    0.721141    0.118382    11.00000    0.04592    0.06598 =
         0.04005    0.02946    0.01338    0.01789
F8    3   -0.011513    0.647662   -0.031660    11.00000    0.05224    0.05155 =
         0.02429    0.00745   -0.01210   -0.00681
F9    3    0.071558    0.881634    0.061010    11.00000    0.06670    0.02402 =
         0.05564    0.01575   -0.00048    0.00761
PART 2
F10A  3    0.112802    0.903479    0.522952   -31.00000    0.06008
PART 0
PART 1
F10   3    0.158125    0.889025    0.563877    31.00000    0.06008
F11   3    0.187514    1.034127    0.469072    31.00000    0.06008
PART 0
PART 2
F11A  3    0.293160    1.079230    0.495769   -31.00000    0.06008
F12A  3    0.348163    0.969513    0.599984   -31.00000    0.06008
PART 0
PART 1
F12   3    0.369511    1.032989    0.568453    31.00000    0.06008
PART 0
PART 2
F13A  3    0.671684    1.107625    0.224300   -21.00000    0.05602
PART 0
PART 1
F13   3    0.764685    1.050505    0.208693    21.00000    0.05602
PART 0
PART 2
F14A  3    0.766306    1.004913    0.083628   -21.00000    0.05602
PART 0
PART 1
F14   3    0.717416    1.012109    0.055925    21.00000    0.05602
PART 0
PART 2
F15A  3    0.521219    1.078418    0.096637   -21.00000    0.05602
PART 0
PART 1
F15   3    0.536562    1.114176    0.155823    21.00000    0.05602
PART 0
F16   3    0.496212    0.478093    0.126891    11.00000    0.05662    0.02931 =
         0.02165    0.00893    0.01178    0.01145
O1    2    0.627671    0.611823    0.304518    11.00000    0.04226
O2    2    0.692988    0.530944    0.434103    11.00000    0.03801
O3    2    0.391565    0.345484    0.384465    11.00000    0.04678
O4    2    0.308205    0.450014    0.268231    11.00000    0.04579
O5    2    0.231215    0.672151    0.167479    11.00000    0.03015
O6    2    0.282979    0.593704    0.011143    11.00000    0.03578
O7    2    0.395841    0.692381    0.477287    11.00000    0.04308
O8    2    0.344674    0.792755    0.355750    11.00000    0.03425
O9    2    0.528611    0.818445    0.204101    11.00000    0.04908
O10   2    0.588799    0.728062    0.050015    11.00000    0.03430
PART 2
C0    1    0.638327    1.011327    0.135184   -21.00000    0.04767
PART 0
C1    1    0.722161    0.572682    0.360975    11.00000    0.04745
C2    1    0.893110    0.593407    0.340605    11.00000    0.04587
C3    1    0.306333    0.338710    0.313308    11.00000    0.03921
C4    1    0.198767    0.199995    0.272844    11.00000    0.06005
C5    1    0.202591    0.654045    0.080058    11.00000    0.03104
C6    1    0.043278    0.725156    0.056590    11.00000    0.03787
C7    1    0.337542    0.807511    0.445827    11.00000    0.03536
C8    1    0.271068    0.930209    0.509790    11.00000    0.05080
C9    1    0.589321    0.828426    0.127608    11.00000    0.02922
PART 1
C10   1    0.653575    1.007692    0.137676    21.00000    0.04767
HKLF 4




REM  sm300118_3_1_a.res in P-1
REM R1 =  0.0996 for    1127 Fo > 4sig(Fo)  and  0.1766 for all    2086 data
REM    235 parameters refined using     43 restraints

END

WGHT      0.1404     13.2075

REM Highest difference peak  0.775,  deepest hole -0.761,  1-sigma level  0.173
Q1    1   0.4320  0.9955  0.5969  11.00000  0.05    0.77
Q2    1   0.3686  1.0905  0.5224  11.00000  0.05    0.75
Q3    1   0.2902  0.3212  0.3888  11.00000  0.05    0.73
Q4    1   0.4790  0.3848  0.3946  11.00000  0.05    0.72
Q5    1   0.0998  0.9658  0.4564  11.00000  0.05    0.68
Q6    1   0.2532  0.9204  0.6032  11.00000  0.05    0.64
Q7    1   0.2708  0.9330  0.3677  11.00000  0.05    0.62
Q8    1   0.4912  0.7012  0.0417  11.00000  0.05    0.60
Q9    1   0.5020  0.3131  0.3241  11.00000  0.05    0.58
Q10   1   0.2892  0.4417 -0.0498  11.00000  0.05    0.58
Q11   1   0.3688  0.5572  0.0019  11.00000  0.05    0.56
Q12   1   0.4116  0.3985  0.0149  11.00000  0.05    0.56
Q13   1   0.3118  0.7764  0.2044  11.00000  0.05    0.56
Q14   1   0.2421  1.0719  0.4768  11.00000  0.05    0.55
Q15   1   0.4300  0.3843  0.1164  11.00000  0.05    0.54
Q16   1   0.5969  0.9567  0.2855  11.00000  0.05    0.53
Q17   1   0.2332  0.4372  0.2606  11.00000  0.05    0.51
Q18   1   0.7267  0.7396  0.3394  11.00000  0.05    0.50
Q19   1   0.3950  0.4048  0.2699  11.00000  0.05    0.50
Q20   1   0.7215  0.7098  0.3119  11.00000  0.05    0.49
;
_shelx_res_checksum              60840
_shelx_hkl_file
;
   0   0   2 77.8609 15.6062   9
   0   0   2 70.3337 21.6228   6
   0   0   3 14.6004 18.7041   9
   0   0   3-7.83272 26.8784   6
   0   0   3 18.1954 26.0126   3
   0   0   4 1625.71 173.766   6
   0   0   4 1696.55 170.641   9
   0   0   4 1645.18 172.771   3
   0   0   5 43.8276 29.5094   3
   0   0   5-22.4034 33.1765   6
   0   0   6-10.2835 33.9262   6
   0   0   6 27.0220 31.2054   3
   0   0   7 13.9071 32.6281   3
   0   0   7 67.4423 38.9352   6
   0   0   7 90.0953 39.1976  13
   0   0   8 935.757 115.184  16
   0   0   8 959.216 102.237   6
   0   0   8 787.959 99.8191   3
   0   0   9 2.58746 67.5943  16
   0   0   9 29.9953 42.9915   6
   0   0   9-15.2103 37.6571   3
   0   0  10 96.3754 46.1736   7
   0   0  10 138.675 43.0643   3
   0   0  10 22.4551 67.0239  16
   0   0  10 39.1305 52.0459  13
   0   0  11 266.815 60.7317   7
   0   0  11 129.313 74.4448  16
   0   0  11 316.584 64.6785  13
   0   0  11 180.235 50.1683   3
   0   0  12 110.240 60.3891  13
   0   0  12 290.929 53.5969   3
   0   0  12 226.457 59.1290   7
   0   0  13 11.9176 39.4721   3
   0   0  13-7.61755 50.5942  13
   0   0  13-11.5971 51.1228   7
   0   0  14 25.6808 35.2764   3
   0  -1  14 26.0821 37.3329   3
   0  -1  14-31.0461 50.6545   7
   0  -1  13 83.0506 56.1232   7
   0  -1  13 30.3978 60.6109  13
   0  -1  12 174.473 47.5928   3
   0  -1  12 191.837 65.0235   6
   0  -1  12 237.834 69.8361  13
   0  -1  12 151.535 61.1674   7
   0  -1  11 265.507 64.5142   7
   0  -1  11 127.543 72.3249  16
   0  -1  11 231.429 63.3020   6
   0  -1  11 293.686 50.3010   3
   0  -1  10 269.751 60.5143  13
   0  -1  10 110.470 71.9013  16
   0  -1  10 332.370 61.8469   6
   0  -1  10 290.792 49.7942   3
   0  -1   9 316.263 49.9972   3
   0  -1   9 330.845 59.9167  13
   0  -1   9 286.302 71.5603  16
   0  -1   9 351.582 58.2385   6
   0  -1   8 499.336 83.1781  16
   0  -1   8 508.213 71.6407  13
   0  -1   8 529.651 65.6317   3
   0  -1   8 577.773 72.7506   6
   0  -1   7 409.618 70.4482  16
   0  -1   7 390.557 52.7415   3
   0  -1   7 419.392 57.6104  13
   0  -1   7 350.596 57.8006   6
   0  -1   6 353.529 48.9904   5
   0  -1   6 384.488 50.8416  13
   0  -1   6 242.189 51.0449   6
   0  -1   6 280.399 44.0307   3
   0  -1   5 601.624 64.8639  13
   0  -1   5 482.780 62.7415   5
   0  -1   5 480.559 60.3062   3
   0  -1   5 545.556 73.2473  16
   0  -1   4 1462.01 165.480  16
   0  -1   4 1617.05 163.204   5
   0  -1   4 1534.02 161.063   3
   0  -1   4 1569.97 164.463   2
   0  -1   4 1596.50 161.318  12
   0  -1   3 4846.67 499.096   3
   0  -1   3 4944.23 500.224   5
   0  -1   3 5211.10 500.918  16
   0  -1   3 5112.48 499.095  12
   0  -1   3 4872.21 499.163   4
   0  -1   3 4705.08 500.329   2
   0  -1   2 199.567 28.3018   5
   0  -1   2 146.677 24.5664   4
   0  -1   2 175.936 22.7991   3
   0  -1   2 211.098 24.4210  12
   0  -1   2 143.638 29.2126   2
   0  -1   1 1695.59 172.957   5
   0  -1   1 1686.36 171.825  12
   0  -1   1 1732.03 172.630  13
   0  -1   0 2380.50 241.312  11
   0   1   1 866.445 91.7330   3
   0   1   1 900.563 90.7861   7
   0   1   2 265.105 42.4698   3
   0   1   2 432.783 42.4151  14
   0   1   3 352.495 51.5856   3
   0   1   3 507.716 53.9042  14
   0   1   4 274.448 43.2645   3
   0   1   4 310.994 42.8612   6
   0   1   5-10.1518 30.6982   3
   0   1   5 14.2076 29.6312   6
   0   1   6 44.5103 33.0407   3
   0   1   6 8.24363 27.7295   9
   0   1   7 416.401 52.9495   3
   0   1   7 294.507 49.8428   9
   0   1   8 2811.41 295.128   3
   0   1   8 2841.85 295.603   7
   0   1   8 2858.04 295.781  13
   0   1   9 29.5470 40.0775   3
   0   1   9-4.13299 42.9298  13
   0   1   9 4.53649 42.7844   7
   0   1  10 11.7599 42.1591   3
   0   1  10-15.5768 45.6130  13
   0   1  10-16.4986 77.7280  16
   0   1  11 161.859 48.0278   3
   0   1  11 69.7845 75.6660  16
   0   1  11 155.033 52.3701  13
   0   1  12 620.146 88.5065   7
   0   1  12 650.688 84.7897   3
   0   1  13 43.6634 44.7328   7
   0   1  13 15.7778 37.4245   3
   0  -2  15 5.21890 45.6004   7
   0  -2  14 518.300 81.7527   7
   0  -2  14 518.430 67.6809   3
   0  -2  13 269.488 70.4717   6
   0  -2  13 353.294 52.0714   3
   0  -2  13 263.743 69.5923   7
   0  -2  12 89.6524 61.8929  13
   0  -2  12 118.266 58.2633   6
   0  -2  12 51.8413 35.9834   3
   0  -2  12 62.9177 55.3671   7
   0  -2  11 140.523 74.4704  16
   0  -2  11 193.892 60.0447   6
   0  -2  11 198.940 42.6154   3
   0  -2  11 348.290 65.3879  13
   0  -2  10 379.970 67.4124   6
   0  -2  10 407.876 67.2815  13
   0  -2  10 334.281 51.2918   3
   0  -2  10 292.458 81.1368  16
   0  -2   9 49.3344 46.1291  13
   0  -2   9 27.4042 47.8146   6
   0  -2   9 52.9215 69.8457  16
   0  -2   9 15.5353 28.6142   3
   0  -2   8 420.139 57.6629   5
   0  -2   8 389.339 62.9331   6
   0  -2   8 404.870 62.9731  13
   0  -2   8 287.563 76.8757  16
   0  -2   7 433.153 63.8571   6
   0  -2   7 423.053 63.7812  13
   0  -2   7 455.552 62.1125   5
   0  -2   6 391.084 59.7200  13
   0  -2   6 409.227 57.2793  12
   0  -2   5 315.718 42.4221   4
   0  -2   5 318.377 59.8517  16
   0  -2   5 327.218 45.2311  13
   0  -2   5 279.935 38.2016   3
   0  -2   5 284.406 47.3163   5
   0  -2   5 278.692 49.8151   2
   0  -2   5 344.408 42.5927  12
   0  -2   4 339.855 42.5867   4
   0  -2   4 351.634 44.3202  13
   0  -2   4 283.268 36.3501   3
   0  -2   4 379.499 41.1675  12
   0  -2   4 244.201 46.4671   5
   0  -2   4 303.199 47.2040   2
   0  -2   4 311.158 59.8371  16
   0  -2   3 1325.08 142.061   3
   0  -2   3 1477.79 145.781   4
   0  -2   3 1503.91 148.002   5
   0  -2   3 1527.12 146.649  13
   0  -2   3 1500.66 144.579  12
   0  -2   3 1375.53 147.475   2
   0  -2   2 1265.34 137.163   5
   0  -2   2 1324.50 133.935  12
   0  -2   1 1652.34 170.521   1
   0  -2   1 1794.26 171.664  11
   0  -2   1 1613.20 169.555  12
   0  -2   0 854.730 95.6047  11
   0  -2   0 899.002 92.8789   1
   0   2   1 3769.22 381.188   3
   0   2   2 802.166 85.3695   7
   0   2   2 857.061 87.9997   3
   0   2   3 56.0077 25.7314  14
   0   2   3-0.84717 23.9131   3
   0   2   3 32.1859 19.1812   7
   0   2   4 2676.09 260.544  14
   0   2   4 2520.73 260.379   3
   0   2   4 2436.13 258.817   7
   0   2   5 262.216 42.1178   7
   0   2   5 204.838 39.9354   3
   0   2   6-7.08284 32.6229   7
   0   2   6 17.3560 32.6331   9
   0   2   6 34.0225 33.4275   3
   0   2   7 716.235 82.7248   3
   0   2   7 580.516 79.5430   9
   0   2   7 719.424 82.5386   7
   0   2   8 1451.50 136.914   7
   0   2   8 1124.42 133.789  13
   0   2   8 1343.57 136.805   3
   0   2   8 1057.20 132.569   9
   0   2   9 117.802 42.1107   7
   0   2   9 58.6536 38.5849  13
   0   2   9 99.5941 42.8301   3
   0   2  10 187.060 47.5990   3
   0   2  10 98.8439 40.7826  13
   0   2  10 99.9997 43.7761   7
   0   2  11 76.3815 44.6043   3
   0   2  11 135.757 43.3428   7
   0   2  12 323.293 51.9828   7
   0   2  12 277.864 52.4596   3
   0   2  13 276.897 48.1440   3
   0  -3  15 175.256 52.9430   7
   0  -3  14 1567.79 166.390   7
   0  -3  14 1303.24 162.675   6
   0  -3  13 48.9243 57.4248   6
   0  -3  13 117.600 60.3094   7
   0  -3  13 70.8863 27.0580   3
   0  -3  12-9.44642 24.1844   3
   0  -3  12-50.9253 54.1835   6
   0  -3  12-9.21283 62.6683  13
   0  -3  11 40.5948 25.0313   3
   0  -3  11 14.2328 53.2932   6
   0  -3  11 8.59812 58.7260  13
   0  -3  10 444.641 71.3782   5
   0  -3  10 477.417 74.0436   6
   0  -3  10 408.499 53.7558   3
   0  -3  10 595.498 77.9640  13
   0  -3   9 35.9766 20.2800   3
   0  -3   9 18.3257 45.6983   5
   0  -3   9-28.1025 46.8567  13
   0  -3   9 2.36941 47.3118   6
   0  -3   8 174.892 42.0829   5
   0  -3   8 136.782 49.5440  13
   0  -3   8 118.699 23.8175   3
   0  -3   7 73.8411 39.3783   5
   0  -3   7 52.0125 17.3482   3
   0  -3   7 49.9064 42.0178  13
   0  -3   6 1320.13 138.823   3
   0  -3   6 1578.11 144.809   4
   0  -3   6 1281.24 147.675   5
   0  -3   6 1441.58 148.606   2
   0  -3   6 1266.39 146.311  13
   0  -3   5 30.8995 34.3031  13
   0  -3   5-0.75158 8.86794   3
   0  -3   5 5.84038 35.2241   5
   0  -3   5 70.5811 38.6709   2
   0  -3   5-25.1664 27.1459   4
   0  -3   4 10.7267 26.3781   4
   0  -3   4 3.37566 34.6779   2
   0  -3   4 21.8940 35.0121   5
   0  -3   3 598.622 71.9161   5
   0  -3   3 608.899 66.5298  12
   0  -3   2 284.919 44.4729   5
   0  -3   1 334.545 49.3119  11
   0  -3   1 379.996 46.3338   1
   0  -3   0-22.8697 22.4197   1
   0  -3   0 42.6712 33.7633  11
   0   3   0 11.8666 13.5958   3
   0   3   1 13.0049 17.9241   3
   0  -3  -1 43.0913 38.7277  11
   0  -3  -1-1.61719 23.6240   1
   0  -3  -2 467.231 69.0234  11
   0   3   2 413.480 50.5427   3
   0   3   3 59.2334 27.5065  14
   0   3   4 29.7357 18.1914   7
   0   3   4 33.0441 32.2334  14
   0   3   5 16.6674 31.4640   3
   0   3   5 19.1455 20.6560   7
   0   3   6 119.486 30.1203   7
   0   3   6 101.003 37.9847   3
   0   3   6 153.867 39.0789   9
   0   3   7 181.396 35.8260   7
   0   3   7 124.154 40.7133   9
   0   3   7 263.656 45.9922   3
   0   3   8 16.5213 30.5652   7
   0   3   8 26.6261 39.2857   3
   0   3   8-8.94981 31.8176   9
   0   3   9 148.342 37.4809   7
   0   3   9 154.501 45.9130   3
   0   3  10 64.4018 42.8201   3
   0   3  11 292.985 53.2843   3
   0  -3 -12 3.82168 68.7661  11
   0   3  12 14.3485 35.0819   3
   0  -4  14 535.398 79.1927   7
   0  -4  14 355.648 72.7183   6
   0  -4  13 462.374 81.1351   6
   0  -4  13 578.111 87.3703   7
   0  -4  12 80.2937 59.6244   6
   0  -4  11 60.2427 56.2125   6
   0  -4  11 95.8063 51.5565   5
   0  -4  10 384.585 69.3600   5
   0  -4  10 358.096 69.3091   6
   0  -4   9 57.4338 46.5717   5
   0  -4   9-30.6223 44.9501   6
   0  -4   8 11.9665 41.6187   5
   0  -4   7 83.9312 41.4662   5
   0  -4   7 68.8546 45.4463   2
   0  -4   7 14.4839 33.8668  12
   0  -4   7 73.9213 32.7527   4
   0  -4   6 1093.72 109.491  12
   0  -4   6 991.131 116.258   5
   0  -4   6 993.819 111.825   4
   0  -4   6 865.369 115.560   2
   0  -4   5 350.617 47.5599   4
   0  -4   5 353.223 53.6332   2
   0  -4   5 245.016 42.5273  12
   0  -4   5 226.578 53.4901   5
   0  -4   4 208.219 49.9055   5
   0  -4   4 237.844 42.9103   4
   0  -4   4 333.417 40.2511  12
   0  -4   3 41.0154 23.1508  12
   0  -4   3 155.441 38.0453   5
   0  -4   2 70.6503 22.0300  12
   0  -4   2 66.1845 33.9239   5
   0  -4   1 9.85092 35.0489  11
   0  -4   1-19.5309 29.3223   1
   0  -4   1 15.5286 25.3674  12
   0  -4   0 88.2508 30.3378   1
   0   4   0 90.3098 14.8141   3
   0  -4   0 73.0650 44.8904  11
   0  -4  -1 147.234 43.7179  11
   0   4   1 71.4566 18.2485   3
   0  -4  -1 92.5173 29.4270   1
   0   4   2 2163.92 231.161  14
   0  -4  -2 2226.96 231.931   1
   0   4   2 2293.87 229.919   3
   0  -4  -2 2319.89 238.786  11
   0   4   3 209.455 31.6169   3
   0   4   3 69.4047 31.2243  14
   0  -4  -3 131.258 51.4419  11
   0   4   4-10.0303 29.3438   3
   0  -4  -4 30.5232 30.3257   1
   0   4   4-18.0979 31.7836  14
   0  -4  -4 21.8987 54.9794  11
   0  -4  -5-29.0880 55.5587  11
   0   4   5 86.4658 34.2711   3
   0  -4  -6 89.6546 70.2217  11
   0   4   6 68.2579 36.1784   3
   0   4   6 15.6885 39.1186   9
   0  -4  -7 4.11164 77.7984  11
   0   4   7 32.5839 36.2000   3
   0   4   7 4.05128 38.1682   9
   0  -4  -7-1.70870 33.1628   1
   0  -4  -8 66.5211 32.2164   1
   0  -4  -8 110.281 78.5851  11
   0   4   8 50.0308 36.4666   9
   0   4   8 51.5420 38.4474   3
   0  -4  -9-20.4924 74.7249  11
   0   4   9 49.3819 36.7018   3
   0   4  10 55.7017 37.2384   3
   0  -4 -10 97.1427 66.9591  11
   0  -5  14 40.3551 51.1912   6
   0  -5  14 42.1774 46.6676   7
   0  -5  13 74.9933 57.2177   6
   0  -5  13 153.445 54.6682   7
   0  -5  12 254.320 61.3603   7
   0  -5  12 221.658 65.4849   6
   0  -5  12 263.559 61.5432   5
   0  -5  11 22.3670 54.1570   5
   0  -5  11 9.79121 58.0137   6
   0  -5  10 193.446 63.3306   5
   0  -5  10 299.794 69.3529   6
   0  -5   9 441.688 74.0045   5
   0  -5   8 774.168 85.0573   4
   0  -5   8 509.696 90.5825   5
   0  -5   7 587.001 68.6987   4
   0  -5   7 451.282 63.3187  12
   0  -5   7 529.341 75.8191   5
   0  -5   6 384.597 56.8422   4
   0  -5   6 362.855 48.6269  12
   0  -5   6 290.252 64.7213   5
   0  -5   5 2012.68 189.609   2
   0  -5   5 1633.01 180.104  12
   0  -5   5 1670.34 187.678   5
   0  -5   5 1822.59 186.010   4
   0  -5   4 606.964 70.2123   2
   0  -5   4 592.340 64.4335   4
   0  -5   4 403.869 64.0671   5
   0  -5   4 361.140 53.1980  12
   0  -5   3 83.2336 45.0263   2
   0  -5   3 162.325 27.8479  12
   0  -5   3 95.5399 47.1406   5
   0  -5   2 96.8350 25.0418  12
   0  -5   2 112.213 47.6329   5
   0  -5   1 173.410 46.8094  11
   0  -5   1 190.282 33.3199  12
   0  -5   1 188.200 51.9877   5
   0  -5   0 48.7620 32.1790   1
   0  -5   0 34.8082 32.9053  12
   0  -5   0 49.9387 43.4411  11
   0  -5  -1 637.234 74.8549   1
   0  -5  -1 574.933 86.5567  11
   0   5   2 1759.50 170.619   3
   0  -5  -2 2058.93 185.797  11
   0  -5  -3 1659.01 171.311   1
   0  -5  -3 1270.54 178.019  11
   0   5   3 1672.10 166.486   3
   0  -5  -4-6.96459 33.9064   1
   0   5   4 38.7656 24.5304   3
   0  -5  -4-2.90478 55.4816  11
   0  -5  -5-22.6117 61.8193  11
   0  -5  -5 21.5612 33.7401   1
   0   5   5 24.9467 29.3586   3
   0   5   6 4.47749 40.3395   9
   0  -5  -6 24.5957 33.3281   1
   0  -5  -6-3.53379 64.2076  11
   0   5   6 3.44744 32.5553   3
   0   5   7 110.223 41.7292   9
   0   5   7 135.736 35.8047   3
   0  -5  -7 27.5080 31.4968   1
   0  -5  -7 102.980 68.6974  11
   0   5   8 23.3036 33.7399   9
   0  -5  -8-68.1060 67.6812  11
   0   5   8 24.6526 31.4757   3
   0   5   9 37.6154 29.1734   3
   0  -5  -9-3.28913 57.4006  11
   0  -6  13-41.5105 54.4805   6
   0  -6  12 39.7437 38.0654   7
   0  -6  12 31.9351 58.2570   6
   0  -6  12 61.8019 50.5437   5
   0  -6  11 92.6978 39.3615   7
   0  -6  11 16.1358 52.2807   5
   0  -6  11 92.4419 62.1791   6
   0  -6  10 57.2086 36.0628   7
   0  -6  10 29.2530 59.8952   6
   0  -6  10 9.70218 53.0060   5
   0  -6   9 116.071 59.3921   6
   0  -6   9 104.295 56.6089   5
   0  -6   9 85.4010 34.2118   7
   0  -6   8 232.775 67.4195   5
   0  -6   8 449.597 62.9148   4
   0  -6   7 455.206 69.5358   4
   0  -6   7 583.594 81.2461   2
   0  -6   7 412.781 78.3738   5
   0  -6   6 101.419 43.0463   4
   0  -6   6 93.6161 52.6784   2
   0  -6   6 87.6975 56.1357   5
   0  -6   5 36.1205 44.8290   2
   0  -6   5 5.75374 47.3152   5
   0  -6   5 41.6039 42.9438   4
   0  -6   4 274.578 68.7310   5
   0  -6   4 312.514 57.4187   2
   0  -6   4 386.680 59.2838   4
   0  -6   3 61.7256 39.7753   4
   0  -6   3-16.6816 41.0978   2
   0  -6   3 47.9686 57.4143   5
   0  -6   2 30.0888 38.4505   2
   0  -6   2 19.1303 61.6471   5
   0  -6   1-26.3150 62.0823   5
   0  -6   0 397.676 78.0554   5
   0  -6   0 383.416 70.8237  11
   0  -6  -1 136.763 37.2258  12
   0  -6  -1 263.460 59.2920  11
   0  -6  -2-1.59230 34.1817  12
   0  -6  -2 14.2418 54.2498  11
   0  -6  -3 460.525 78.7156  11
   0  -6  -3 344.453 61.0509  12
   0  -6  -3 482.821 64.1048   1
   0  -6  -4 14.3337 37.3806   1
   0  -6  -4-28.4891 59.1516  11
   0  -6  -5 43.8531 35.8937   1
   0  -6  -5 13.2699 61.3160  11
   0   6   6 19.0751 42.3852   9
   0  -6  -6-80.6669 63.6044  11
   0   6   7-18.9709 37.8305   9
   0  -7  12 147.767 50.5093   5
   0  -7  11 18.7525 50.0896   6
   0  -7  11 15.6155 48.4101   5
   0  -7  10 65.7346 54.0647   5
   0  -7  10-19.1711 51.5024   6
   0  -7   9 47.2871 54.6655   5
   0  -7   9 2.68129 49.9257   6
   0  -7   8 290.151 76.2275   5
   0  -7   8 514.536 70.7358   4
   0  -7   7-61.0737 60.0137   5
   0  -7   7 52.5822 47.5345   4
   0  -7   6 66.1312 46.2921   2
   0  -7   6 19.3304 47.1699   4
   0  -7   6 3.67483 59.9764   5
   0  -7   5 102.174 43.9771   2
   0  -7   5-3.76917 62.4333   5
   0  -7   5-16.2236 46.5806   4
   0  -7   4 60.0582 48.2976   4
   0  -7   4 19.2769 66.6444   5
   0  -7   4 67.7755 38.8571   2
   0  -7   3-22.4559 44.4624   4
   0  -7   3-59.0305 69.2076   5
   0  -7   2 67.0450 44.1973   4
   0  -7   2 59.7070 71.4700   5
   0  -7   1 254.285 75.8334   5
   0  -7   0 695.679 108.614   5
   0  -7  -1-15.2205 64.5709   5
   0  -7  -2 37.6725 68.2148   5
   0  -7  -3-7.43197 64.3412   5
   0  -7  -4 867.064 117.567   5
   0  -7  -5 16.7431 56.8119   5
   0   7   5-19.3927 42.8583   9
   0  -8  10 9.63382 50.3298   5
   0  -8   9 48.6760 55.7486   5
   0  -8   8-33.6375 60.4406   5
   0  -8   7 7.99964 66.9200   5
   0  -8   7 13.8221 46.1929   4
   0  -8   6 4.19108 70.6340   5
   0  -8   6 57.4729 45.1248   4
   0  -8   5 53.7550 46.6901   4
   0  -8   5 94.9159 73.4869   5
   0  -8   4-112.644 77.6157   5
   0  -8   3-4.23466 72.5340   5
   0  -8   2-12.2649 67.3374   5
   0  -8   2-22.3971 44.1484   4
   0  -8   1 38.7665 42.2664   4
   0  -8   1 3.90747 63.1535   5
   0  -8   0 75.2114 65.2485   5
   0  -8   0 107.359 42.9283   4
   0  -8  -1 227.841 66.1705   5
   0  -8  -1 108.016 41.9069   4
   0  -8  -2-51.9827 59.5078   5
   1  -8  -2 38.3101 57.8876   5
   1  -8  -1 53.8441 60.8841   5
   1  -8   0-7.40372 62.2305   5
   1  -8   0-30.3441 44.6458   4
   1  -8   1 156.563 68.9806   5
   1  -8   2 51.5317 64.6176   5
   1  -8   2 2.73161 47.3983   4
   1  -8   3 40.7148 66.1578   5
   1  -8   3 2.84662 47.3724   4
   1  -8   4 85.9462 51.7738   4
   1  -8   4 152.937 73.3166   5
   1  -8   5 162.503 55.0958   4
   1  -8   5 81.8454 67.5649   5
   1  -8   6 154.450 73.3751   5
   1  -8   6 271.514 61.8312   4
   1  -8   7-6.18717 51.9708   4
   1  -8   7 3.77275 61.5639   5
   1  -8   8 104.687 59.4534   5
   1  -8   8 102.207 51.1357   4
   1  -8   9-55.5453 53.2900   5
   1  -7  -5-46.2485 58.4975   5
   1  -7  -4 13.5823 50.5532  11
   1  -7  -4-59.2620 64.0609   5
   1  -7  -3-41.5351 66.6260   5
   1  -7  -2 3.77769 66.9535   5
   1  -7  -1 259.277 77.1563   5
   1  -7   0 446.399 88.2064   5
   1  -7   1 106.505 71.1639   5
   1  -7   2 43.2143 67.5213   5
   1  -7   3 43.8349 45.7873   4
   1  -7   3 100.530 68.1947   5
   1  -7   4 347.109 82.9358   5
   1  -7   4 435.339 70.6995   4
   1  -7   5-29.4371 50.9096   4
   1  -7   5-51.5420 62.4036   5
   1  -7   6 28.6329 60.3918   5
   1  -7   6 127.116 52.4889   4
   1  -7   7 94.0031 61.3058   5
   1  -7   7-8.74235 49.3216   4
   1  -7   8 241.399 57.6219   4
   1  -7   8 197.275 63.6692   5
   1  -7   9 109.854 56.7273   5
   1  -7  10 12.4217 51.6660   5
   1  -7  11 90.5236 48.5817   5
   1  -6  -7 118.497 35.1268   1
   1  -6  -7 95.0454 57.8126  11
   1  -6  -6-39.5391 37.2665   1
  -1   6   6 23.8197 39.4160   9
   1  -6  -6-30.0327 55.7551  11
   1  -6  -5 220.295 47.6232   1
   1  -6  -5 110.302 59.0995  11
   1  -6  -4 118.707 44.7902   1
   1  -6  -4 16.3362 52.2394  11
   1  -6  -3 59.3581 43.5047  12
   1  -6  -2 380.900 59.5132   1
   1  -6  -2 307.927 58.3962  12
   1  -6  -1 91.6674 44.3163   1
   1  -6  -1 130.121 43.4300  12
   1  -6   0 672.764 100.208   5
   1  -6   0 828.656 86.2285   1
   1  -6   0 533.889 80.6786  12
   1  -6   1 404.094 78.9488   5
   1  -6   1 355.636 55.8835  12
   1  -6   2 76.6661 63.1624   5
   1  -6   2 2.88001 32.6531  12
   1  -6   3-25.9340 31.8027  12
   1  -6   3 30.0915 48.8227   5
   1  -6   4 85.4904 33.7102   2
   1  -6   4 9.34499 29.7993  12
   1  -6   4-6.93233 37.5749   4
   1  -6   4-2.87493 54.2153   5
   1  -6   5 67.5444 30.2405  12
   1  -6   5 5.69996 52.3557   5
   1  -6   5 56.5080 44.6613   4
   1  -6   6 20.1394 49.4722   5
   1  -6   6 107.230 43.7415   4
   1  -6   6 35.3231 30.4093  12
   1  -6   7 18.7528 29.2088  12
   1  -6   7-47.0124 54.3586   5
   1  -6   7 53.0708 41.0630   4
   1  -6   7 8.30241 40.1612   6
   1  -6   8 274.477 47.9815  12
   1  -6   8 260.609 62.4624   5
   1  -6   8 300.973 56.8040   6
   1  -6   8 281.059 55.4606   4
   1  -6   9 6.02777 49.7223   5
   1  -6   9 54.6726 47.6451   6
   1  -6  10 26.1659 48.6715   6
   1  -6  10 127.938 54.0995   5
   1  -6  11 23.7878 49.6019   5
   1  -6  11-10.7704 49.5664   6
   1  -6  12 89.8175 47.1419   5
   1  -6  12 56.6922 50.0744   6
   1  -6  13 2.62353 49.9677   6
   1  -5  -9 104.774 64.1710  11
  -1   5   9 98.8226 33.0433   3
   1  -5  -8 65.8228 67.0949  11
  -1   5   8 69.2990 33.3453   3
   1  -5  -8 3.54341 33.2463   1
   1  -5  -7 47.7211 36.0919   1
  -1   5   7 41.5534 34.6745   3
  -1   5   7 21.2693 34.9372   9
   1  -5  -6 125.158 42.4585   1
  -1   5   6 92.0463 36.3787   3
  -1   5   5 3.42415 32.6454   3
  -1   5   4 85.1219 33.2103   3
   1  -5  -3 403.328 60.5300   1
  -1   5   3 444.311 54.5241   3
  -1   5   2 156.939 27.4097   3
   1  -5  -2 137.645 38.5071   1
   1  -5  -1 291.335 51.8313  11
   1  -5  -1 213.354 43.9861   1
   1  -5  -1 269.987 50.8180  12
   1  -5   0 457.624 58.9874   1
   1  -5   0 454.278 65.0233  11
   1  -5   0 391.958 61.9532  12
   1  -5   1 693.294 84.8785   2
   1  -5   1 798.510 89.8924  12
   1  -5   1 866.722 92.5189   1
   1  -5   1 869.665 103.050   5
   1  -5   2 127.288 33.2726   2
   1  -5   2 190.728 37.5591  12
   1  -5   2 222.454 53.9732   5
   1  -5   3 92.4525 33.1516   2
   1  -5   3 76.7983 42.3157   5
   1  -5   3 99.3420 31.6100  12
   1  -5   4 667.576 76.4729   2
   1  -5   4 627.389 73.6703  12
   1  -5   4 564.039 80.2962   5
   1  -5   5 488.622 65.4404   4
   1  -5   5 389.851 68.4766   5
   1  -5   5 534.130 68.4637   2
   1  -5   5 555.186 63.2805  12
   1  -5   6 788.189 83.8304   5
   1  -5   6 784.232 76.5494   4
   1  -5   6 601.101 66.8498   7
   1  -5   7 388.634 64.4080   5
   1  -5   7 379.987 49.8738   7
   1  -5   7 369.960 59.7996   6
   1  -5   7 272.793 55.7356   4
   1  -5   7 377.041 53.0427  12
   1  -5   8 443.493 58.2741   4
   1  -5   8 329.492 62.3089   6
   1  -5   8 424.396 56.4557   7
   1  -5   8 359.026 66.3740   5
   1  -5   8 313.743 56.2499  12
   1  -5   9 463.638 76.2316   6
   1  -5   9 517.259 70.5096  12
   1  -5   9 462.569 77.7966   5
   1  -5   9 546.900 69.5464   7
   1  -5  10 398.587 69.1075   6
   1  -5  10 371.954 68.1352   5
   1  -5  10 370.959 62.1375   7
   1  -5  11 99.9750 52.0838   5
   1  -5  11 28.0500 43.8180   7
   1  -5  11 72.1516 53.8540   6
   1  -5  12 259.864 52.4492   7
   1  -5  12 100.478 51.9581   5
   1  -5  13 157.931 50.5709   7
   1  -5  13 213.749 59.4454   6
   1  -4 -10 121.895 38.0152   1
   1  -4 -10 187.098 80.2303  11
  -1   4  10 239.384 46.8143   3
  -1   4   9 44.0042 41.5428   3
  -1   4   8 11.6309 41.8149   3
  -1   4   7 15.3403 32.0776   9
   1  -4  -7 19.7408 73.0140  11
  -1   4   7 73.2705 40.4882   3
   1  -4  -6 447.210 88.4248  11
  -1   4   6 463.845 65.2600   3
   1  -4  -5 283.358 78.8902  11
  -1   4   5 598.887 66.7720   3
  -1   4   4 26.5701 33.1576   3
   1  -4  -4-2.32742 48.3665  11
   1  -4  -3 1.94762 43.2686  11
  -1   4   3 6.60974 30.2358   3
   1  -4  -2 2309.52 227.052   1
  -1   4   2 2149.14 223.912   3
   1  -4  -2 2178.20 227.821  11
   1  -4  -2 2113.35 222.150  17
   1  -4  -1 80.9782 32.1748   1
  -1   4   1 64.9458 23.0438   3
   1  -4   0 411.439 56.9989  11
  -1   4   0 359.529 42.4069   3
   1  -4   0 384.999 52.6796   1
   1  -4   1 140.358 38.5255  11
   1  -4   1 176.841 34.7364   1
   1  -4   2 1480.69 177.156   2
   1  -4   2 1439.85 181.597   5
   1  -4   3 623.339 64.3621   5
   1  -4   3 658.237 58.7380   2
   1  -4   4 36.3863 20.8523   7
   1  -4   4 34.9027 35.3665   5
   1  -4   4 56.7296 32.7308   2
   1  -4   5 751.903 82.4729  12
   1  -4   5 686.895 86.1097   2
   1  -4   5 721.507 82.7124   4
   1  -4   5 701.346 86.9192   5
   1  -4   6 228.759 50.5694   5
   1  -4   6 271.294 47.2445  13
   1  -4   6 314.418 43.3029  12
   1  -4   6 185.074 42.4716   4
   1  -4   7 39.7649 38.5777  13
   1  -4   7 49.2286 33.5011  12
   1  -4   7 62.7833 40.4028   5
   1  -4   7 26.9603 34.8159   4
   1  -4   8 314.254 54.6244  12
   1  -4   8 367.805 59.9066   6
   1  -4   8 234.028 58.6819  13
   1  -4   8 376.633 58.0462   5
   1  -4   9 633.997 86.0361  12
   1  -4   9 720.001 88.6634   7
   1  -4   9 617.870 90.1407  13
   1  -4   9 743.003 91.8195   6
   1  -4   9 649.463 88.5196   5
   1  -4  10 79.6727 54.1839  13
   1  -4  10 89.2751 51.7824   6
   1  -4  10 64.0715 47.5233   5
   1  -4  11 154.217 51.1569   5
   1  -4  11 126.867 60.5189  13
   1  -4  11 113.171 55.0580   6
   1  -4  12 206.147 59.7902   6
   1  -4  13 764.716 102.647   6
  -1   3  12 64.6196 37.7102   3
   1  -3 -12 16.8525 77.9347  11
  -1   3  11 153.131 46.1920   3
  -1   3  10 81.0358 46.7498   3
  -1   3   9-28.2569 47.2028   3
  -1   3   8 44.9720 43.8015   3
  -1   3   8 73.5199 30.9167   7
  -1   3   8 42.0115 27.1920   9
  -1   3   7 152.270 31.6144   7
  -1   3   7 78.5039 39.9923   3
  -1   3   7 58.5284 32.8761   9
  -1   3   6 978.918 106.853   7
  -1   3   6 1019.20 113.320   3
  -1   3   5 113.706 36.8223   3
  -1   3   5 134.742 25.8492   7
  -1   3   4 479.196 53.1401   7
  -1   3   3 14.1738 12.2063   7
   1  -3  -2 804.545 84.8517  11
  -1   3   2 971.403 77.9964   3
   1  -3  -1 43.3542 34.9029  11
   1  -3  -1 24.2755 24.0592  17
   1  -3   0 25.5813 27.7347  11
   1  -3   0 10.3954 27.7507   1
   1  -3   1 194.295 37.3097   1
   1  -3   1 326.809 39.9777  12
   1  -3   1 237.888 38.7049  11
   1  -3   2 1125.32 101.209  12
   1  -3   2 830.577 96.0847   7
   1  -3   2 980.162 100.454   2
   1  -3   2 1330.00 102.241   1
   1  -3   2 1128.55 104.731   5
   1  -3   3 926.838 98.9508  13
   1  -3   3 949.415 100.996   5
   1  -3   3 879.158 98.0798  12
   1  -3   4 104.420 30.4380  12
   1  -3   4 26.8615 29.7063  13
   1  -3   4 86.6399 34.2349   5
   1  -3   4 90.1268 26.9817   4
   1  -3   5 160.492 45.1745   5
   1  -3   5 243.701 39.1891   4
   1  -3   5 227.592 41.3281  13
   1  -3   5 266.076 38.7394  12
   1  -3   6 1259.44 129.377   5
   1  -3   6 1202.58 125.589   4
   1  -3   6 1135.91 141.274  16
   1  -3   6 1096.87 120.265   3
   1  -3   6 1246.14 128.249  13
   1  -3   6 1230.23 126.145  12
   1  -3   6 1171.61 128.570   6
   1  -3   7 278.264 44.2709   4
   1  -3   7 329.754 51.0940   5
   1  -3   7 269.559 50.7438  13
   1  -3   7 292.004 33.8885   3
   1  -3   7 287.464 50.8335   6
   1  -3   7 144.598 77.9337  16
   1  -3   7 209.078 46.4143  12
   1  -3   8-6.02883 77.3092  16
   1  -3   8 40.4210 17.9885   3
   1  -3   8 48.0060 38.7860   6
   1  -3   8 40.3441 41.5644   5
   1  -3   8 69.7859 41.0108  13
   1  -3   8 1.64282 37.6512  12
   1  -3   9 42.3161 19.7250   3
   1  -3   9-11.3014 42.6177   6
   1  -3   9 2.26733 41.3368   5
   1  -3   9 24.6872 44.5369  13
   1  -3  10 684.178 82.1220   7
   1  -3  10 586.323 78.3751   5
   1  -3  10 511.923 62.8338   3
   1  -3  10 507.703 109.404  16
   1  -3  10 531.516 79.6274   6
   1  -3  10 572.471 82.0924  13
   1  -3  11 166.678 30.7846   3
   1  -3  11 165.354 60.5112  13
   1  -3  11 147.459 58.2007   6
   1  -3  11 164.064 55.4184   7
   1  -3  12 30.0069 54.5981   6
   1  -3  12-25.8857 24.0873   3
   1  -3  12-3.00972 52.8154   7
   1  -3  12 5.99661 58.1168  13
   1  -3  13 462.747 79.7511   6
   1  -3  13 390.783 76.4002  13
   1  -3  13 389.204 52.0466   3
   1  -3  13 519.225 75.0748   7
   1  -3  14 394.738 72.4475   7
  -1   2  13 316.936 51.6121   3
  -1   2  12 57.7759 37.4242   7
  -1   2  12 19.5688 40.5974   3
  -1   2  11 2.68251 43.7187   3
  -1   2  11-19.3456 39.9032   7
  -1   2  10 120.179 47.8527   3
  -1   2  10 57.4221 40.5202   7
  -1   2   9 171.811 44.2438   7
  -1   2   9 101.626 47.8996   3
  -1   2   8-1.85186 38.7456   7
  -1   2   8 38.2923 27.9752  13
  -1   2   8-4.38321 39.5638   3
  -1   2   7 322.900 47.5857   7
  -1   2   7 248.502 40.8080   9
  -1   2   7 261.367 38.4476  13
  -1   2   7 188.958 49.2485   3
  -1   2   6 433.403 59.1411  13
  -1   2   6 516.577 63.0825   9
  -1   2   5 2091.29 211.988  13
  -1   2   5 2030.30 216.409   3
  -1   2   3 2991.53 305.707   8
  -1   2   2 43.9773 27.7307   8
   1  -2  -1 465.124 57.4132  11
  -1   2   1 386.507 50.5126   8
  -1   2   0 1541.95 155.823   8
   1  -2   0 1490.92 156.423  11
   1  -2   1 1739.49 195.673  13
   1  -2   1 1949.66 195.855   1
   1  -2   1 1928.63 195.707  11
   1  -2   1 2113.24 197.268  12
   1  -2   2 3586.13 348.500  13
   1  -2   2 3400.05 349.569   5
   1  -2   2 3637.04 349.017  12
   1  -2   2 3156.04 348.470   1
   1  -2   3 435.034 56.8365   5
   1  -2   3 533.343 57.0282  12
   1  -2   3 444.185 54.9771  13
   1  -2   4 65.3568 29.1258  12
   1  -2   4 21.3982 33.5706   5
   1  -2   4 33.2877 51.7900  16
   1  -2   4 47.7929 29.0762  13
   1  -2   4 47.0147 24.3094   4
   1  -2   5 222.785 45.1396   6
   1  -2   5 198.975 43.9454   5
   1  -2   5 363.176 44.2705  13
   1  -2   5 195.244 38.1956   4
   1  -2   5 313.249 64.5305  16
   1  -2   5 357.802 42.8325  12
   1  -2   6 641.965 80.1631  12
   1  -2   6 560.598 99.5130  16
   1  -2   6 756.970 82.6283   5
   1  -2   6 689.514 83.9193   6
   1  -2   6 755.721 83.1756  13
   1  -2   7-7.30130 67.4363  16
   1  -2   7-15.7606 34.2714   5
   1  -2   7 1.56069 37.7563  13
   1  -2   7-16.3438 37.0357   6
   1  -2   7 13.5489 34.6029  12
   1  -2   8 122.174 75.7389  16
   1  -2   8 97.3964 41.4554  13
   1  -2   8 30.9942 36.6258   5
   1  -2   8 116.249 39.8408  12
   1  -2   8 39.8080 41.9293   6
   1  -2   9 1146.86 113.551   3
   1  -2   9 866.055 118.506  13
   1  -2   9 1051.29 121.203   6
   1  -2  10 656.783 83.2431   6
   1  -2  10 576.804 110.449  16
   1  -2  10 569.133 70.4915   3
   1  -2  10 581.144 82.7071  13
   1  -2  10 599.566 82.2742   7
   1  -2  11 107.177 33.5398   3
   1  -2  11 102.052 53.7198   7
   1  -2  11 53.3741 52.3373  13
   1  -2  11 200.209 92.5977  16
   1  -2  11 87.2656 54.1225   6
   1  -2  12 106.281 58.1787  13
   1  -2  12 142.937 90.9397  16
   1  -2  12 117.098 55.6770   7
   1  -2  12 146.842 36.6319   3
   1  -2  12 109.274 56.4161   6
   1  -2  13-6.04509 51.5609   7
   1  -2  13-36.1143 33.1538   3
   1  -2  13-21.5867 59.0538  13
   1  -2  14 535.329 65.4143   3
   1  -2  14 427.100 77.7666   7
  -1   1  13 54.0350 38.7037   3
  -1   1  13 128.502 46.6422   7
  -1   1  12 132.078 52.4159   7
  -1   1  12 18.0375 43.4722   3
  -1   1  11-2.61132 43.9724   3
  -1   1  11 46.5656 49.8002   7
  -1   1  10-12.0763 38.3999  13
  -1   1  10 67.0466 50.3917   7
  -1   1  10 70.7439 45.9076   3
  -1   1   9 42.4483 54.9689  16
  -1   1   9 48.7002 36.3242  13
  -1   1   9 55.4630 43.6386   3
  -1   1   8 295.429 55.6662   3
  -1   1   8 363.223 49.7631  13
  -1   1   7-1.12963 28.8258  13
  -1   1   7 27.2557 38.1569   3
  -1   1   6 4.25863 23.2515   9
  -1   1   6 23.2328 33.5848   3
  -1   1   6-11.9288 25.4521  13
  -1   1   5 3543.14 358.363  13
  -1   1   5 3580.57 357.881   9
  -1   1   5 3629.54 360.125   8
  -1   1   5 3430.73 357.171  15
  -1   1   4 2296.63 232.679  13
  -1   1   4 2263.42 235.111   8
  -1   1   3 1746.38 184.604   8
  -1   1   3 1805.31 181.887  13
  -1   1   2 853.943 91.2488   8
  -1   1   2 854.614 87.0701  13
  -1   1   1 1683.44 172.053   8
   1  -1   0 1299.35 114.202  17
   1  -1   0 1027.91 111.395  11
  -1   1   0 1092.19 112.374   8
  -1   1  -1 653.430 56.9978   8
   1  -1   1 527.055 56.7410   1
   1  -1   1 535.260 56.2869   7
   1  -1   1 510.096 57.4905   5
   1  -1   1 666.863 68.1977  16
   1  -1   1 462.228 56.1831   6
   1  -1   2 345.521 38.0622   3
   1  -1   2 349.735 42.5601   6
   1  -1   2 381.580 42.0412   7
   1  -1   2 323.435 41.9691   5
   1  -1   3 77.0741 29.9931   6
   1  -1   3 34.7521 20.6638   4
   1  -1   3 11.4374 24.8106   5
   1  -1   3 17.6843 17.7076   3
   1  -1   4 58.9420 54.8325  16
   1  -1   4 31.3426 20.6885   4
   1  -1   4 25.0444 31.3749   6
   1  -1   4 32.1456 27.1954  12
   1  -1   4 10.3620 20.6487   3
   1  -1   4 3.89731 25.9169   5
   1  -1   5 190.467 62.9072  16
   1  -1   5 165.040 34.1027  12
   1  -1   5 126.788 36.1549   6
   1  -1   5 124.488 27.9210   3
   1  -1   5 106.102 31.5428   5
   1  -1   6 1636.02 182.044  12
   1  -1   6 1677.27 183.211   6
   1  -1   6 1808.51 182.668   5
   1  -1   6 1469.64 193.734  16
   1  -1   6 1906.12 181.175   3
   1  -1   7 161.107 43.5682   6
   1  -1   7 158.598 71.7191  16
   1  -1   7 120.401 33.2921   3
   1  -1   8 129.659 46.1464   6
   1  -1   8 236.543 45.0160  13
   1  -1   8 145.188 47.8631   7
   1  -1   8 150.378 35.4950   3
   1  -1   9 260.811 56.6364   6
   1  -1   9 328.847 56.4971  13
   1  -1   9 232.676 44.0919   3
   1  -1   9 286.699 56.4153   7
   1  -1  10 665.061 88.5368   6
   1  -1  10 684.607 78.8708   3
   1  -1  10 483.464 110.485  16
   1  -1  10 724.751 89.4761   7
   1  -1  10 526.059 86.0969  13
   1  -1  11 35.3489 34.9433   3
   1  -1  11-18.7759 53.0722  13
   1  -1  11-11.2170 53.2955   7
   1  -1  11-54.6558 91.2338  16
   1  -1  12-2.94549 50.9344   7
   1  -1  12-20.3550 92.1750  16
   1  -1  13 79.1465 57.8315  13
   1  -1  13 151.150 54.6031   7
   1  -1  14 57.4261 37.3790   3
   1  -1  14 82.8005 52.9619  13
   1  -1  14 126.334 48.1814   7
  -1   0  14 5.17448 46.3242   7
  -1   0  14 123.866 38.9681   3
  -1   0  13 65.0821 42.9665   3
  -1   0  12 86.4733 59.6991   7
  -1   0  12 98.4813 47.5760   3
  -1   0  11 41.8264 48.5414  13
  -1   0  11 22.7201 45.8633   3
  -1   0  10 548.728 87.0468  13
  -1   0  10 842.896 89.8714   3
  -1   0  10 674.057 90.4754   6
  -1   0   9 16.4497 41.1460   6
  -1   0   9 30.1924 49.9408  16
  -1   0   9 90.0800 42.6962  13
  -1   0   9 81.2818 39.5221   3
  -1   0   8 1315.98 133.835   6
  -1   0   8 879.166 132.961  16
  -1   0   8 1379.00 133.355  13
  -1   0   8 1258.84 132.640   3
  -1   0   7 52.7228 33.9647  13
  -1   0   7 59.1064 36.3647   3
  -1   0   7-5.06287 41.1375  16
  -1   0   7 63.7515 36.6213   6
  -1   0   6 16.6121 34.8696   6
  -1   0   6 42.8426 29.0429   8
  -1   0   5 6.76827 29.2127  15
   1   0  -5 25.4929 14.8698  10
  -1   0   5-11.2817 27.3466   8
  -1   0   5 7.28809 30.7546   6
   1   0  -4 789.254 83.5919  10
  -1   0   4 864.549 86.2290  13
  -1   0   4 737.300 86.2079   8
  -1   0   3 6.58932 25.1023   8
  -1   0   3 23.3260 22.5382  13
  -1   0   3 1.25397 29.5374   2
  -1   0   2-32.8812 22.1605   2
   1   0  -2 17.1580 19.5574  10
  -1   0   2-4.10865 18.2876   8
   1   0  -1 565.605 64.8135  10
  -1   0   1 650.858 64.6188   8
   1   0   0 3842.93 381.593   9
   1   0   0 3739.88 381.384  12
   1   0   0 3770.34 381.868  10
   1   0   1 185.221 22.9914   3
   1   0   1 234.367 28.2287   9
   1   0   1 177.959 26.1082  12
   1   0   1 206.998 25.2122   7
   1   0   1 203.689 26.1366  10
   1   0   2 10.1728 22.9208   9
   1   0   2 1.98183 20.1183   7
   1   0   2-9.32087 15.2864   3
   1   0   2 15.9569 21.0355  12
   1   0   3 4388.32 439.676   3
   1   0   3 4314.17 440.139   9
   1   0   3 4237.56 440.420   7
   1   0   3 4427.98 440.287   6
   1   0   4 1638.87 155.017  12
   1   0   4 1424.44 155.760   7
   1   0   4 1365.86 154.713   9
   1   0   4 1468.90 156.275   6
   1   0   4 1440.18 154.609   3
   1   0   4 1629.52 157.432  14
   1   0   5 180.224 36.4899  12
   1   0   5 227.549 41.6777   6
   1   0   5 198.452 37.5902   3
   1   0   5 230.391 39.4631   7
   1   0   6 125.660 40.4891   7
   1   0   6 107.896 39.4544   6
   1   0   6 67.5430 31.5466   3
   1   0   7 47.2444 31.9787   3
   1   0   7 29.3259 38.8942   6
   1   0   7-16.9874 41.1134   7
   1   0   8 1898.87 207.577   7
   1   0   8 1984.83 205.325   3
   1   0   9 481.849 102.115  16
   1   0   9 492.103 65.6100   3
   1   0   9 491.772 71.0357   7
   1   0  10 40.4208 44.9220   7
   1   0  10 64.7573 93.3435  16
   1   0  10 60.6715 37.9100   3
   1   0  11 127.647 57.5652  13
   1   0  11 161.688 54.2151   7
   1   0  11 177.742 44.6983   3
   1   0  11 222.755 99.5044  16
   1   0  12 168.779 93.7521  16
   1   0  12 141.899 55.5222  13
   1   0  12 92.2988 40.9173   3
   1   0  12 54.6846 53.3219   7
   1   0  13 522.955 72.8188   7
   1   0  13 443.338 62.1314   3
   1   0  14 235.796 45.0190   3
  -1  -1  14 148.165 43.9754   3
  -1  -1  14 137.799 54.4958   7
  -1  -1  13 178.306 61.4601   7
  -1  -1  12 869.229 111.514   6
  -1  -1  12 856.405 106.102   3
  -1  -1  11-8.29432 51.5476   6
  -1  -1  11-45.6281 55.1761  13
  -1  -1  11-23.9580 42.9097   3
  -1  -1  10 72.9462 50.1888  13
  -1  -1  10-17.6103 45.4582   6
  -1  -1  10 8.57234 39.8521   3
  -1  -1   9 514.361 66.3461   3
  -1  -1   9 467.557 72.2572   6
  -1  -1   9 411.366 73.4626  16
  -1  -1   8 329.337 59.4822  16
  -1  -1   8 164.837 45.6891   3
  -1  -1   8 420.393 55.8073  13
  -1  -1   8 268.769 53.1775   6
  -1  -1   7 10.0371 37.5450   6
  -1  -1   7 2.69839 32.5890   3
  -1  -1   7 59.1246 37.2992  13
  -1  -1   7 14.3441 46.5440  16
  -1  -1   6 141.845 45.1151  16
  -1  -1   6 180.547 32.8699   8
  -1  -1   6 202.896 40.7820  13
  -1  -1   6 150.093 38.3496   5
  -1  -1   5 431.414 63.6425  16
  -1  -1   5 565.668 66.1877   2
  -1  -1   5 499.877 61.5399  13
  -1  -1   5 490.670 62.5369   5
  -1  -1   5 486.542 57.0582   8
  -1  -1   4 1917.11 196.946   8
  -1  -1   4 2144.05 199.419  13
  -1  -1   4 1855.11 199.828   2
  -1  -1   4 1813.21 199.192  16
  -1  -1   4 1907.62 199.452   5
  -1  -1   3 3503.12 353.415   5
  -1  -1   3 3577.34 354.440   2
  -1  -1   3 3478.34 351.700   8
  -1  -1   3 3338.07 354.441  15
  -1  -1   2 95.8179 24.8321   5
  -1  -1   2 63.5705 32.2410  15
  -1  -1   2 86.6760 20.6682   8
  -1  -1   1 288.438 34.2518   5
   1   1  -1 373.167 35.8264  17
  -1  -1   1 242.692 32.3658   4
  -1  -1   1 273.552 34.7093  11
  -1  -1   0 962.621 109.004  11
   1   1   0 1011.36 106.815  12
  -1  -1  -1 38.1284 24.6739  15
   1   1   1 17.9686 16.6413   3
   1   1   1 45.3587 19.5517  12
   1   1   2 4101.67 416.565   7
   1   1   2 4134.50 416.612   3
   1   1   3 149.796 21.5316  10
   1   1   3 125.175 26.7742   3
   1   1   3 117.623 30.2376   9
   1   1   3 140.555 35.8071  14
   1   1   3 108.660 27.8021   7
   1   1   4 2712.04 261.844  14
   1   1   4 2385.75 260.620   9
   1   1   4 2453.15 260.250   3
   1   1   4 2657.92 260.767   7
   1   1   5 360.521 49.2115   7
   1   1   5 358.527 47.1696   9
   1   1   5 258.775 46.2006   3
   1   1   5 351.041 55.5847  14
   1   1   6 53.2016 36.6746   7
   1   1   6 70.4762 32.5119   9
   1   1   6 101.043 31.6850   3
   1   1   7 549.931 74.5226   7
   1   1   7 607.030 73.0127   3
   1   1   8 1003.97 115.498   3
   1   1   8 1045.91 118.307   7
   1   1   9 16.1471 37.7613   3
   1   1   9-29.4566 44.6487   7
   1   1  10 30.7369 94.7465  16
   1   1  10-32.6519 40.3049   3
   1   1  10 19.0469 47.6782  13
   1   1  10 9.93860 44.3709   7
   1   1  11 35.5557 93.6774  16
   1   1  11 56.4974 48.4910  13
   1   1  11-6.83353 38.3709   3
   1   1  12 101.534 48.3325  13
   1   1  12 100.902 41.5561   3
   1   1  12 58.3011 45.9152   7
   1   1  13 187.400 50.9981   7
   1   1  13 228.188 45.2979   3
  -1  -2  15-20.8895 45.3176   7
  -1  -2  14 409.548 73.5481   6
  -1  -2  14 357.344 57.3016   3
  -1  -2  14 431.562 71.7097   7
  -1  -2  13 56.5862 40.5652   3
  -1  -2  13 36.7001 58.5308   6
  -1  -2  12 168.184 58.1711   6
  -1  -2  12 213.335 49.2303   3
  -1  -2  11 377.581 59.0718   3
  -1  -2  11 359.599 68.4166   6
  -1  -2  10 272.468 65.2814   6
  -1  -2  10 301.376 50.5347   3
  -1  -2  10 325.154 66.5888  13
  -1  -2   9 421.585 72.9000   6
  -1  -2   9 575.133 73.6937  13
  -1  -2   9 420.863 60.7631   3
  -1  -2   8 860.115 102.735   5
  -1  -2   8 901.227 105.490  13
  -1  -2   7 602.767 70.8976   5
  -1  -2   7 474.500 72.7027  13
  -1  -2   7 575.590 75.4042   2
  -1  -2   6 2331.38 234.749   2
  -1  -2   6 2220.52 233.278   5
  -1  -2   6 2304.01 229.381   8
  -1  -2   6 2051.03 233.807  13
  -1  -2   5 539.585 60.0572   8
  -1  -2   5 467.470 68.4134   2
  -1  -2   5 553.818 67.0550   5
  -1  -2   5 581.061 68.1740  13
  -1  -2   4 333.003 44.8429   4
  -1  -2   4 316.642 50.0899   5
  -1  -2   4 343.942 53.4090   2
  -1  -2   4 371.087 41.3859   8
  -1  -2   3 320.870 46.7436   5
  -1  -2   3 320.536 42.7256   4
  -1  -2   2 1751.77 185.007   4
  -1  -2   2 1890.44 186.768   5
  -1  -2   1 5391.23 536.487  11
  -1  -2   1 5216.83 536.420   5
  -1  -2   0 1022.39 109.853  11
  -1  -2   0 1016.07 106.282   1
  -1  -2  -1 153.217 46.3676  11
   1   2   1 134.967 23.1501   3
   1   2   2 33.2401 20.5723   3
   1   2   3 231.907 40.0544  14
   1   2   3 143.436 30.0157   3
   1   2   4 291.805 32.4710  10
   1   2   4 328.696 46.4663  14
   1   2   4 232.954 40.9932   3
   1   2   5 1210.72 131.664   9
   1   2   5 1210.60 129.996   3
   1   2   6 102.681 47.7180  14
   1   2   6 36.8380 38.1365   9
   1   2   6 89.7935 31.3608   3
   1   2   7 97.6150 37.8954   3
   1   2   8 524.003 72.3999   3
   1   2   8 457.491 73.4547   9
   1   2   8 700.112 75.8974   7
   1   2   9 94.2146 41.4717   3
   1   2   9 54.4752 42.9551   7
   1   2  10 47.9647 42.2894   3
   1   2  10 78.7148 41.5818   7
   1   2  10 32.2519 43.8582  13
   1   2  11 64.8764 40.8623   7
   1   2  11 151.887 44.1033  13
   1   2  11 135.651 42.7870   3
   1   2  12 530.450 71.8449   3
  -1  -3  15-2.67031 46.8487   6
  -1  -3  15 16.8124 46.5435   7
  -1  -3  14 1060.54 139.976   6
  -1  -3  14 1356.69 145.337   7
  -1  -3  13-3.02199 53.8012   6
  -1  -3  13 26.7354 27.2550   3
  -1  -3  12 1.52903 27.1954   3
  -1  -3  12 87.6702 54.1511   6
  -1  -3  11 84.3636 56.2711   6
  -1  -3  11 101.264 30.3739   3
  -1  -3  10 1090.18 121.068   3
  -1  -3  10 1226.35 130.849   5
  -1  -3  10 1093.54 132.444   6
  -1  -3   9 790.382 98.5312   5
  -1  -3   9 823.226 89.5851   3
  -1  -3   8-6.56294 45.5091   2
  -1  -3   8 4.11647 39.9232   5
  -1  -3   8-26.2411 22.9129   3
  -1  -3   7 103.559 40.9287   5
  -1  -3   7 37.8901 20.8293   3
  -1  -3   7 29.6937 41.8618   2
  -1  -3   6 480.427 67.4582   2
  -1  -3   6 401.623 53.1806   3
  -1  -3   6 490.117 52.0667   8
  -1  -3   5 620.249 70.1674   3
  -1  -3   5 864.382 83.5713   5
  -1  -3   5 706.227 83.1739   2
  -1  -3   5 644.532 69.7674   8
  -1  -3   5 708.494 75.9981   4
  -1  -3   4 166.975 34.9896   4
  -1  -3   4 195.418 25.3910   8
  -1  -3   4 237.090 43.6259   5
   1   3  -3 2043.40 201.564  17
  -1  -3   3 1929.26 200.775   8
  -1  -3   3 1983.87 206.037   5
  -1  -3   3 1979.10 204.460   4
  -1  -3   2 1620.39 163.616   4
  -1  -3   2 1510.79 164.964   5
  -1  -3   1 2243.86 202.093   5
  -1  -3   1 1904.53 201.658  11
  -1  -3   1 1904.00 196.145  12
   1   3   0 125.833 19.6360   3
  -1  -3   0 119.055 39.0587  11
  -1  -3  -1 2082.64 212.006  11
   1   3   1 1979.49 204.062   3
  -1  -3  -2 1887.28 196.232   1
  -1  -3  -2 1980.56 206.320  11
  -1  -3  -3 30.9344 23.4093   1
   1   3   4 131.270 36.2279  14
   1   3   5 49.2567 40.6571   9
   1   3   5 16.9029 38.2083  14
   1   3   5 64.1724 29.4030   3
   1   3   6 861.603 129.976  14
   1   3   6 1460.26 129.454   3
   1   3   7 61.2799 43.8039   9
   1   3   7 106.509 36.5590   3
   1   3   8 170.368 45.9866   9
   1   3   8 185.265 43.1886   3
   1   3   9 30.7526 39.4455   3
   1   3  10 144.071 42.8393   3
   1   3  11 2.14265 35.4658   3
   1   3  11 73.6370 74.6926  16
  -1  -3 -12 36.2092 58.5273  11
  -1  -4  14 372.524 71.7152   6
  -1  -4  14 498.962 80.3765   7
  -1  -4  13 73.0576 55.2562   6
  -1  -4  12 100.089 58.4465   6
  -1  -4  11 57.6992 53.0661   5
  -1  -4  11-3.04525 53.5596   6
  -1  -4  10 357.628 66.7669   5
  -1  -4   9 168.708 52.9412   5
  -1  -4   8-2.41740 51.8027   2
  -1  -4   8 2.39905 44.8299   5
  -1  -4   7 44.5961 43.9767   2
  -1  -4   7-6.56779 42.1451   5
  -1  -4   6 1214.04 137.260   2
  -1  -4   6 1292.06 136.699   5
  -1  -4   6 1171.31 132.348   4
  -1  -4   5 242.746 55.7764   2
  -1  -4   5 182.865 49.3156   5
  -1  -4   5 224.783 44.1939   4
  -1  -4   4 147.267 41.1129   5
  -1  -4   4 186.857 38.6645   4
  -1  -4   3 600.859 68.0824   8
  -1  -4   3 772.897 80.5765   5
  -1  -4   3 821.112 78.6906   4
  -1  -4   2 7668.01 777.835   5
  -1  -4   1 1050.73 109.555  11
  -1  -4   1 908.796 96.3182  12
  -1  -4   1 1058.68 106.990   5
  -1  -4   0 277.106 50.9963  11
   1   4   1 303.958 36.2408   3
  -1  -4  -1 304.077 44.6052   1
  -1  -4  -1 324.655 60.9926  11
  -1  -4  -2 1822.07 204.720  11
   1   4   2 1876.31 193.686   3
  -1  -4  -2 1934.80 196.506   1
  -1  -4  -3 94.3150 29.4788   1
   1   4   3 122.864 39.7132  14
   1   4   3 90.1231 24.5753   3
  -1  -4  -3 113.246 52.5393  11
  -1  -4  -4-61.6926 57.8864  11
  -1  -4  -4-35.5703 26.9514   1
   1   4   4 1.26115 25.1913   3
   1   4   4 1.35814 35.3990  14
  -1  -4  -5 16.1043 60.2822  11
  -1  -4  -5 24.7752 26.6612   1
   1   4   5-28.2912 40.7613  14
   1   4   5 36.6056 29.7351   3
  -1  -4  -6 60.0275 28.2024   1
   1   4   6 65.2306 34.1153   3
   1   4   7 162.077 48.7042   9
  -1  -4  -7 84.2179 75.3267  11
   1   4   7 160.233 40.1439   3
   1   4   8-20.3720 36.4061   3
   1   4   8-8.92280 38.6294   9
  -1  -4  -8-118.109 73.0992  11
   1   4   9 51.2127 36.7567   3
  -1  -4  -9 50.1855 65.2469  11
   1   4  10 174.416 41.0685   3
  -1  -4 -10 116.136 60.8453  11
  -1  -5  14 106.597 53.2099   6
  -1  -5  14 252.274 59.2808   7
  -1  -5  13-24.9339 52.4193   6
  -1  -5  12 33.1696 59.8322   6
  -1  -5  12 100.322 58.2510   5
  -1  -5  11 48.5913 54.5055   5
  -1  -5  11 33.2848 60.9062   6
  -1  -5  10 465.553 78.1395   5
  -1  -5   9 117.106 63.6859   2
  -1  -5   9 85.8192 47.3089   5
  -1  -5   8 16.4451 49.5024   5
  -1  -5   8 123.777 62.6766   2
  -1  -5   7 15.4638 44.3893   5
  -1  -5   7 79.6912 40.9888   4
  -1  -5   7 33.6535 54.2594   2
  -1  -5   6 1889.92 219.718   5
  -1  -5   6 2220.19 223.588   2
  -1  -5   6 2073.64 218.156   4
  -1  -5   5 238.118 46.9216   4
  -1  -5   5 226.276 60.4552   2
  -1  -5   5 190.394 46.6729   5
  -1  -5   4 334.025 57.6708   5
  -1  -5   4 290.124 53.7397   4
  -1  -5   3 57.5503 44.4559   5
  -1  -5   3-13.2637 39.3856   4
  -1  -5   2 199.196 50.7359   5
  -1  -5   2 250.708 47.3321   4
  -1  -5   1 208.576 52.5108   5
  -1  -5   1 203.437 55.8905  11
  -1  -5   0 133.602 52.0405  11
  -1  -5   0 159.968 50.1758   5
  -1  -5  -1 41.3325 56.5104  11
  -1  -5  -2 965.572 121.237  11
   1   5   2 975.235 112.901  14
  -1  -5  -3 7.90140 32.2966   1
   1   5   3 14.9722 18.4092   3
  -1  -5  -3 45.7455 60.4963  11
   1   5   3 43.3735 37.1748  14
  -1  -5  -4 6.16843 53.8938  11
   1   5   4-10.8311 23.2466   3
  -1  -5  -4 14.2968 32.1572   1
   1   5   4 16.5556 37.5315  14
  -1  -5  -5-6.18617 30.5448   1
   1   5   5 2.94921 27.6909   3
   1   5   5 48.3942 45.8866   9
  -1  -5  -5 16.7034 59.5116  11
  -1  -5  -6 563.057 111.062  11
   1   5   6 885.182 93.1361   3
   1   5   7 39.1435 32.5107   3
  -1  -5  -7 7.03089 65.4447  11
   1   5   7 12.0764 42.9426   9
   1   5   8 6.98318 30.0824   3
  -1  -5  -8 6.60254 54.2013  11
   1   5   8 17.2893 37.6795   9
  -1  -5  -9 35.2575 53.7523  11
  -1  -6  13 27.4285 52.4855   6
  -1  -6  12 143.362 55.4730   5
  -1  -6  12 128.041 63.1705   6
  -1  -6  11 105.336 64.3444   6
  -1  -6  11-42.1274 52.0233   5
  -1  -6  10 119.749 54.3979   5
  -1  -6   9 34.6779 53.5952   5
  -1  -6   8 222.774 58.4764   5
  -1  -6   7 28.2817 44.3419   4
  -1  -6   7-20.8382 54.4771   5
  -1  -6   6 141.207 53.7156   5
  -1  -6   6 142.759 49.5752   4
  -1  -6   5 55.6437 55.2207   2
  -1  -6   5 78.2264 45.7772   4
  -1  -6   5 84.5463 54.0073   5
  -1  -6   4-2.54134 53.1478   2
  -1  -6   4 13.9520 53.8129   5
  -1  -6   4 34.2930 44.4823   4
  -1  -6   3-70.5809 48.4182   5
  -1  -6   2 75.5573 54.7713   5
  -1  -6   1 1610.29 177.904   4
  -1  -6   1 1699.24 185.324   5
  -1  -6   0 383.605 70.9410   5
  -1  -6   0 222.627 66.1741  11
  -1  -6  -1 466.840 82.4993  11
   1   6   1 375.167 67.7417  14
  -1  -6  -1 405.912 74.0235   5
  -1  -6  -2 47.6925 58.7216  11
  -1  -6  -3 85.0142 61.9027  11
  -1  -6  -4-20.2626 61.5347  11
  -1  -6  -5 75.4534 63.3635  11
  -1  -6  -6 153.670 62.2118  11
   1   6   6 145.023 50.6509   9
  -1  -6  -7-3.08260 53.9362  11
   1   6   7-2.22546 39.9403   9
  -1  -7  12 192.690 53.2908   5
  -1  -7  11-105.126 59.7410   6
  -1  -7  11 61.4709 48.2622   5
  -1  -7  10 22.1117 55.6999   6
  -1  -7  10-22.5779 48.6193   5
  -1  -7   9 56.3574 59.2494   5
  -1  -7   8 357.126 74.3830   2
  -1  -7   8 220.277 67.7743   5
  -1  -7   7 79.8060 50.6815   4
  -1  -7   7 97.0753 58.9157   2
  -1  -7   7 27.8594 60.0597   5
  -1  -7   6 10.5796 57.5520   5
  -1  -7   6 2.82081 48.0601   4
  -1  -7   6 13.4598 54.4468   2
  -1  -7   5 38.6471 47.6340   4
  -1  -7   5 92.6892 62.8679   5
  -1  -7   5 95.2526 51.5397   2
  -1  -7   4-42.8813 64.6352   5
  -1  -7   4-4.80069 48.5821   2
  -1  -7   3-35.6378 62.4618   5
  -1  -7   3 43.8129 49.7889   2
  -1  -7   3 30.7153 45.1117   4
  -1  -7   2 69.0052 44.4989   4
  -1  -7   2 127.097 64.2765   5
  -1  -7   1 153.973 64.7354   5
  -1  -7   1 133.000 46.6031   4
  -1  -7   0 103.828 65.1033   5
  -1  -7   0 177.230 47.1872   4
  -1  -7  -1 24.0056 60.9223   5
  -1  -7  -1 74.6513 40.1007   4
  -1  -7  -2-24.3251 61.1552  11
  -1  -7  -2-14.0348 36.7947   4
  -1  -7  -2-37.4936 57.8643   5
  -1  -7  -3-44.4794 60.4858  11
  -1  -7  -3 40.5864 56.8192   5
  -1  -7  -4 46.5484 59.6324  11
  -1  -7  -5 25.0263 55.1475  11
  -1  -8  10-43.8327 53.2239   5
  -1  -8   9-6.68869 53.4211   5
  -1  -8   8 197.944 62.8655   5
  -1  -8   7-26.2820 63.8379   5
  -1  -8   6-27.0108 65.6081   5
  -1  -8   5 148.055 69.1082   5
  -1  -8   5 55.9265 44.2599   4
  -1  -8   4 119.348 45.3857   4
  -1  -8   4 46.2687 65.1272   5
  -1  -8   3 126.738 43.8923   4
  -1  -8   3 26.1772 63.7906   5
  -1  -8   2 46.7875 58.1485   5
  -1  -8   2 9.46429 39.4669   4
  -1  -8   1 112.481 42.5404   4
  -1  -8   1 51.9689 59.2687   5
  -1  -8   0 70.1661 59.1866   5
  -1  -8  -1 41.9340 56.1550   5
   2  -8  -1 3.15187 50.8912   5
   2  -8   0 218.325 64.7799   5
   2  -8   1 39.5776 55.7052   5
   2  -8   2 64.5074 55.4370   5
   2  -8   2 48.6063 50.5483   4
   2  -8   3 346.924 69.2383   4
   2  -8   3 293.105 74.5961   5
   2  -8   4-6.73500 54.7074   4
   2  -8   5-34.4948 58.2160   4
   2  -8   6 116.704 58.6852   4
   2  -8   7 86.8160 60.4748   5
   2  -8   7 65.7589 54.7376   4
   2  -8   8 186.605 54.5511   4
   2  -8   8 62.5001 54.5352   5
   2  -7  -4 94.3917 49.7238   1
   2  -7  -4 180.369 61.1814   5
   2  -7  -3 69.0762 57.8637   5
   2  -7  -2-17.1679 57.7080   5
   2  -7  -1 23.9504 59.2870   5
   2  -7   0 156.500 64.4421   5
   2  -7   1 202.515 68.2786   5
   2  -7   2-3.50276 62.3952   5
   2  -7   3-24.6297 60.9686   5
   2  -7   4 63.0979 61.7155   5
   2  -7   4 72.4785 56.8437   4
   2  -7   5 288.745 71.6392   5
   2  -7   5 290.561 69.4283   4
   2  -7   6 93.3355 54.4232   4
   2  -7   7 95.2287 53.4805   4
   2  -7   8 537.133 79.7099   4
   2  -7   9 318.547 68.0499   5
   2  -7  10-29.0621 49.3212   5
   2  -7  11 13.3165 44.9508   5
   2  -6  -7-15.9852 36.8154   1
   2  -6  -6 70.1075 54.8080  12
   2  -6  -6 56.0224 45.4501  11
   2  -6  -6 6.88899 41.1427   1
   2  -6  -5-62.5715 53.9150  12
   2  -6  -5 39.4458 44.2926  11
   2  -6  -4 201.137 56.2569  12
   2  -6  -4 136.584 47.5236  11
   2  -6  -4 315.736 56.9026   1
   2  -6  -3-22.2483 47.0267  12
   2  -6  -3 62.8075 43.6540  11
   2  -6  -3 72.2887 47.4967   1
   2  -6  -2 53.4583 46.2319  12
   2  -6  -2 84.2013 48.2716   1
   2  -6  -2-38.2974 42.4939  11
   2  -6  -1 64.9167 54.9925   5
   2  -6  -1 70.9972 45.9074  12
   2  -6  -1 78.9009 45.1813   1
   2  -6   0 1167.21 138.957   5
   2  -6   0 927.484 129.306  12
   2  -6   1 149.760 48.5056  12
   2  -6   1 58.3869 59.9629   5
   2  -6   2-4.05427 43.8934  12
   2  -6   2-42.1437 56.2192   5
   2  -6   3 127.263 46.7733  12
   2  -6   3 66.4223 55.0570   5
   2  -6   4 2501.63 262.114   5
   2  -6   4 2398.69 257.045  12
   2  -6   5 286.074 60.5725   4
   2  -6   5 298.386 64.2709   5
   2  -6   5 301.133 55.1533  12
   2  -6   6 201.558 49.3196  12
   2  -6   6 327.592 60.7194   5
   2  -6   6 248.946 54.6686   4
   2  -6   7 95.5437 43.2911   4
   2  -6   7 20.9021 39.3260  12
   2  -6   8 868.622 95.8836   4
   2  -6   8 648.012 90.2295  12
   2  -6   9 57.0321 38.2320   6
   2  -6   9 2.04926 39.3633  12
   2  -6  10 98.6492 43.4167   6
   2  -6  10 142.929 52.5316   5
   2  -6  11 62.1000 47.1024   5
   2  -6  11 116.514 43.4166   6
   2  -6  12 52.3326 43.6360   5
   2  -5  -8 83.3103 41.7594   1
   2  -5  -8 24.6815 51.6215  11
  -2   5   8 64.0329 35.8167   3
   2  -5  -7-21.7175 50.4463  11
  -2   5   7 81.1378 38.0586   3
   2  -5  -6 61.0862 51.6097  11
  -2   5   6 43.2822 36.3796   3
   2  -5  -5 82.4459 45.2405  11
  -2   5   5 16.6611 35.0170   3
   2  -5  -5 7.64378 45.1002   1
   2  -5  -4 441.943 73.3613  11
   2  -5  -4 590.807 79.4107   1
  -2   5   4 574.741 68.8100   3
   2  -5  -3 34.2591 44.8657   1
   2  -5  -3 65.6622 39.7466  11
  -2   5   3 7.25800 29.3571   3
   2  -5  -2 144.395 41.9204  11
   2  -5  -2 228.394 48.4694   1
  -2   5   2 181.682 34.4562   3
   2  -5  -1-5.27593 38.7217  11
   2  -5  -1 43.5843 42.0859   1
   2  -5   0 761.881 93.3635   1
   2  -5   1 828.185 91.5243   1
   2  -5   1 611.251 91.9857   5
   2  -5   2 275.744 58.0248   5
   2  -5   2 244.727 52.5042   1
   2  -5   3-1.58514 35.8721  12
   2  -5   3 53.0336 40.9463   5
   2  -5   4 818.204 93.3164   5
   2  -5   4 678.348 88.1708  12
   2  -5   5 34.5055 42.8353   5
   2  -5   5 2.48244 28.2250   6
   2  -5   5 97.7447 39.3838  12
   2  -5   5 5.66488 33.6539   4
   2  -5   6 576.440 67.5925   6
   2  -5   6 647.512 76.5428   5
   2  -5   6 617.909 71.7632   4
   2  -5   7 155.223 42.2558   4
   2  -5   7 159.817 43.2848  12
   2  -5   7 150.698 41.4074   6
   2  -5   7 152.000 29.2835   7
   2  -5   8 1252.21 130.223   6
   2  -5   8 1197.10 124.276   7
   2  -5   8 926.098 128.476  12
   2  -5   8 1219.82 130.178   4
   2  -5   9 103.650 43.2630   6
   2  -5   9 46.1240 42.7187  12
   2  -5   9 45.1714 33.5326   7
   2  -5  10 420.949 52.9154   7
   2  -5  10 247.282 58.7169   6
   2  -5  10 225.789 58.0663  12
   2  -5  10 272.883 60.3025   5
   2  -5  11 287.172 59.7278   6
   2  -5  11 284.578 52.3603   7
   2  -5  11 241.463 57.5525   5
   2  -5  12 103.640 40.7743   7
   2  -5  13-7.81582 35.8057   7
   2  -4 -10 299.314 80.0706  11
  -2   4  10 526.219 66.7830   3
  -2   4   9 291.907 56.0219   3
   2  -4  -9 215.380 74.1335  11
   2  -4  -8 113.860 66.0815  11
  -2   4   8 89.8627 45.3119   3
   2  -4  -7-6.25910 60.7509  11
  -2   4   7-30.7176 43.1950   3
  -2   4   6 301.585 53.8443   3
   2  -4  -6 273.223 64.1437  11
   2  -4  -5 66.7569 45.1035  11
  -2   4   5 25.4390 35.3613   3
   2  -4  -4 6.04645 35.2258  17
  -2   4   4-29.7013 35.5090   3
   2  -4  -4 14.8027 40.1678  11
  -2   4   3 24.4846 33.4972   3
   2  -4  -3-9.53589 35.1904  17
   2  -4  -3-9.45609 33.7730  11
   2  -4  -2 59.3701 33.9250  11
   2  -4  -2 23.1834 33.1179  17
   2  -4  -1 243.418 46.3102   1
   2  -4  -1 218.440 43.1292  11
   2  -4   0 4.39523 38.7732  12
   2  -4   0-11.7441 32.7466  11
   2  -4   0-38.4360 37.4057   1
   2  -4   1 59.8825 37.3500  12
   2  -4   1 92.2368 32.3012   1
   2  -4   1 123.546 39.3943   5
   2  -4   2 1103.21 110.285   1
   2  -4   2 925.754 110.353   5
   2  -4   2 928.200 108.913  12
   2  -4   3 149.101 38.5776  12
   2  -4   3 182.392 39.7690   5
   2  -4   3 171.349 27.3993   6
   2  -4   4 686.550 69.0619   6
   2  -4   4 473.297 69.2437  13
   2  -4   4 670.676 74.6698   5
   2  -4   4 563.015 73.4668  12
   2  -4   5 1892.42 190.720   6
   2  -4   5 1726.58 193.012   5
   2  -4   5 1629.24 191.718  12
   2  -4   5 1855.26 187.910   7
   2  -4   5 1954.20 191.870   4
   2  -4   6 401.164 59.7164  12
   2  -4   6 389.217 57.1275   6
   2  -4   6 397.779 59.1179  13
   2  -4   6 361.464 60.6782   5
   2  -4   6 474.973 54.6945   7
   2  -4   6 448.118 58.2865   4
   2  -4   7 267.896 48.0993  12
   2  -4   7 193.020 44.8192   4
   2  -4   7 287.717 47.0259   6
   2  -4   7 250.930 51.8578  13
   2  -4   7 227.052 43.8215   7
   2  -4   8 1428.99 152.133   6
   2  -4   8 1084.21 152.165  13
   2  -4   8 1592.95 151.479   7
   2  -4   9 129.291 48.9267   6
   2  -4   9 153.778 47.5282   7
   2  -4   9 206.830 59.3058  13
   2  -4  10 87.0274 44.5590   5
   2  -4  10 171.815 60.4743  13
   2  -4  10 26.3134 45.9551   7
   2  -4  11 73.7704 48.6202   7
   2  -4  11-21.6913 56.8715  13
   2  -4  12 157.249 52.2714   7
   2  -4  12 110.726 63.3083  13
   2  -4  13-16.6208 61.0484  13
   2  -4  13 20.1147 44.6242   7
   2  -4  14 23.2780 41.9448   7
  -2   3  11 130.488 47.1081   3
  -2   3  10 621.003 86.7294   3
  -2   3   9-24.6464 48.7206   3
  -2   3   8-5.16031 46.1357   3
  -2   3   7 76.1589 44.7256   3
  -2   3   6 1063.72 114.112   3
  -2   3   6 938.677 104.715   7
  -2   3   5 1008.58 108.896   3
  -2   3   5 916.147 99.9522   7
  -2   3   4 14.5070 16.2013   7
   2  -3  -3 95.2215 36.6970  11
  -2   3   3 84.3937 34.6511   8
   2  -3  -2 1041.82 121.449  11
   2  -3  -2 1231.66 123.750  17
   2  -3  -1 497.000 62.5952  11
   2  -3  -1 502.859 67.0447  17
   2  -3   0 3501.92 343.994  11
   2  -3   0 3282.76 346.036  12
  -2   3   0 3320.57 343.781   8
   2  -3   1 274.170 44.9953   1
  -2   3  -1 321.715 41.4989   8
   2  -3   1 385.148 48.9745  12
   2  -3   2 103.732 15.7391   6
   2  -3   2 107.826 28.9223   1
   2  -3   2 89.0980 32.0465   5
   2  -3   2 51.5061 23.7262  13
  -2   3  -2 47.1278 19.7816   8
   2  -3   2 74.3709 32.0049  12
   2  -3   3 1275.85 135.655   6
  -2   3  -3 1259.51 133.516   8
   2  -3   3 1385.46 139.196  12
   2  -3   3 1372.68 134.681   7
   2  -3   3 1368.04 139.090   5
   2  -3   4 103.833 28.8112   6
   2  -3   4 166.571 36.7767  12
   2  -3   4 117.758 34.3009   5
  -2   3  -4 72.9891 12.1730   8
   2  -3   4 94.0445 29.8422  13
   2  -3   4 133.377 26.5169   7
   2  -3   5-17.1579 37.4999  12
   2  -3   5 60.7842 32.9465  13
   2  -3   5-21.6468 64.8003  16
   2  -3   5 14.6227 26.1880   7
   2  -3   5 1.17645 29.1292   4
   2  -3   5 21.3390 29.2740   6
   2  -3   6 776.236 114.021  16
   2  -3   6 758.642 85.5247  12
   2  -3   6 728.114 86.5439  13
   2  -3   6 664.577 82.6507   4
   2  -3   7-30.0266 83.7348  16
   2  -3   7 14.5514 37.7908  13
   2  -3   7-30.3537 39.3649  12
   2  -3   8-99.6917 90.7732  16
   2  -3   8-7.70841 40.6103   6
   2  -3   8 6.12413 41.5250   7
   2  -3   8-24.9968 44.6779  13
   2  -3   8 63.4608 41.9374  12
   2  -3   9 133.042 44.8888   6
   2  -3   9 115.068 97.6408  16
   2  -3   9 98.5567 50.3172  13
   2  -3   9 85.9285 48.0299  12
   2  -3   9 115.713 48.9212   7
   2  -3  10 299.171 61.8408  13
   2  -3  10 258.551 57.9774   7
   2  -3  10 251.110 59.6547   6
   2  -3  11 47.9029 54.7193   6
   2  -3  11 76.4630 58.4473  13
   2  -3  11 32.5433 47.8543   7
   2  -3  12-9.66178 60.6682  13
   2  -3  12 25.3660 51.0887   7
   2  -3  13 9.99814 62.6496  13
   2  -3  13-30.2101 52.0980   7
   2  -3  14 173.269 49.9745   7
   2  -3  14 139.490 63.9947  13
  -2   2  12 129.708 46.3153   3
  -2   2  11 405.840 65.4101   3
  -2   2  11 299.035 56.4195   7
  -2   2  10 571.801 80.6841   3
  -2   2  10 547.369 75.5651   7
  -2   2   9-15.5730 47.6693   3
  -2   2   9 55.1202 40.4230   7
  -2   2   8 9.65458 45.1646   3
  -2   2   7 954.383 112.360   3
  -2   2   6 538.424 60.9530   9
  -2   2   5 57.7374 35.5991   8
  -2   2   4 1173.09 127.460   8
  -2   2   3 2541.91 261.620   8
  -2   2   2 53.4870 29.0854   8
   2  -2  -1 73.4065 39.5493  17
   2  -2  -1 34.7628 22.8963  11
  -2   2   1 46.0649 28.1143   8
   2  -2   0 310.646 32.8189  11
  -2   2   0 288.949 36.7668   8
   2  -2   0 335.248 43.3318  17
   2  -2   0 228.269 29.2743  13
   2  -2   1 120.047 30.1636  12
   2  -2   1 83.4259 19.2034  13
   2  -2   1 159.295 26.5825   1
   2  -2   2 206.036 26.2800   6
   2  -2   2 196.358 35.2266  12
   2  -2   2 238.694 62.5084  16
   2  -2   2 125.169 28.1696   1
  -2   2  -2 205.944 29.4531   8
  -2   2  -3 1084.65 109.214   8
   2  -2   3 1019.30 123.118  16
   2  -2   3 976.487 112.773  12
   2  -2   4 151.675 37.5756  12
   2  -2   4 160.030 64.6645  16
   2  -2   4 112.888 28.4719   4
   2  -2   4 150.571 31.7089   7
   2  -2   5 24.2507 35.0703  12
   2  -2   5 51.3026 31.4797   6
   2  -2   5 55.0155 67.3668  16
   2  -2   5 14.2711 28.8471   7
   2  -2   6 1107.71 133.371   6
   2  -2   6 1219.93 155.082  16
   2  -2   6 1302.38 134.750  12
   2  -2   6 1304.34 133.715   7
   2  -2   7-4.89709 34.7974   6
   2  -2   7-3.10986 37.4343  12
   2  -2   7 21.9965 80.7351  16
   2  -2   7 3.37512 36.1000   7
   2  -2   8 73.6212 42.8864   6
   2  -2   8-18.4510 39.6796  12
   2  -2   8 31.4033 40.0204  13
   2  -2   8-67.7738 85.8968  16
   2  -2   8 92.3142 40.2796   7
   2  -2   9 282.407 39.6973   3
   2  -2   9 317.256 57.1267   6
   2  -2   9 281.900 97.6146  16
   2  -2   9 177.961 52.4150  13
   2  -2   9 311.803 57.9488   7
   2  -2   9 178.367 54.3227  12
   2  -2  10 707.834 79.0542   3
   2  -2  10 658.613 90.3697   7
   2  -2  10 606.805 92.4332  13
   2  -2  11-21.2529 30.4156   3
   2  -2  11 64.3976 113.984  16
   2  -2  11-28.8601 51.6898  13
   2  -2  11-2.75362 48.1425   7
   2  -2  12 36.4163 30.1523   3
   2  -2  12 20.8513 112.802  16
   2  -2  12 28.5545 47.7791   7
   2  -2  12-3.14246 57.0200  13
   2  -2  13 70.0311 109.351  16
   2  -2  13 80.3292 59.9671  13
   2  -2  13 61.7192 49.0685   7
   2  -2  14 102.902 46.0445   7
   2  -2  14 48.5947 57.8583  13
  -2   1  13 91.1072 41.4461   3
  -2   1  13 71.6961 44.8614   7
  -2   1  12 219.746 56.7988   7
  -2   1  12 222.622 51.9520   3
  -2   1  11 99.9212 51.4060   7
  -2   1  11 37.0209 47.8083   3
  -2   1  10 145.521 50.2628   3
  -2   1   9 903.796 109.657   3
  -2   1   8 492.738 63.4511   6
  -2   1   8 458.554 69.5993   3
  -2   1   7 706.202 80.2483   8
  -2   1   7 622.163 78.1509   6
  -2   1   6 112.972 36.4176   8
  -2   1   6 141.795 32.5531   6
  -2   1   6 82.4192 33.5621  15
  -2   1   5 1407.08 124.652   6
  -2   1   5 1069.43 119.250   9
  -2   1   5 1497.96 128.927   8
  -2   1   4 672.391 76.3149   6
  -2   1   4 745.350 81.6380   8
  -2   1   3 320.112 39.9172   6
  -2   1   3 319.121 47.1904   8
  -2   1   2 1016.88 108.638   8
  -2   1   1 2999.35 313.489   8
   2  -1  -1 3272.50 316.247  17
   2  -1  -1 3072.40 311.136  14
  -2   1   0 1765.20 217.464   8
   2  -1   0 2175.68 223.373  16
  -2   1  -1 5163.15 537.826   8
   2  -1   1 5650.16 541.598  16
   2  -1   1 5351.19 538.039  14
   2  -1   2 2381.26 262.865   5
   2  -1   2 2875.21 272.431  16
   2  -1   2 2698.84 263.656   7
   2  -1   2 2779.81 265.651  14
   2  -1   3 933.882 104.497  14
   2  -1   3 875.156 113.716  16
   2  -1   3 1024.08 101.120  12
   2  -1   3 869.031 99.4203   7
   2  -1   4 597.538 68.0478   6
   2  -1   4 571.012 63.3799   4
   2  -1   4 670.640 64.9380   3
   2  -1   4 429.175 90.5079  16
   2  -1   4 598.608 67.8508   7
   2  -1   4 478.885 68.4750  12
   2  -1   5 742.415 84.2417   6
   2  -1   5 652.337 105.849  16
   2  -1   5 715.024 78.6928   3
   2  -1   5 718.395 82.2899   7
   2  -1   5 723.410 82.8634  12
   2  -1   6 86.5834 26.1107   3
   2  -1   6 32.9809 35.8058  12
   2  -1   6 39.6733 38.4436   6
   2  -1   6 90.2949 32.9750   7
   2  -1   6 36.5086 75.5369  16
   2  -1   7 719.433 86.2213   6
   2  -1   7 673.403 78.4639   3
   2  -1   7 675.650 113.517  16
   2  -1   7 728.227 84.3766   7
   2  -1   7 644.125 83.3327  12
   2  -1   8 1.44863 28.9264   3
   2  -1   8-3.43336 83.3939  16
   2  -1   8-26.3012 40.3305  12
   2  -1   8 3.92574 37.6330   7
   2  -1   9-39.3447 88.2596  16
   2  -1   9 16.4012 31.1742   3
   2  -1   9 29.3968 45.2203   7
   2  -1  10 471.021 61.5967   3
   2  -1  10 423.946 71.5318   7
   2  -1  10 413.399 74.4714  13
   2  -1  11 353.074 53.0573   3
   2  -1  11 279.041 119.734  16
   2  -1  11 341.764 69.3489  13
   2  -1  11 320.499 64.0035   7
   2  -1  12 219.870 116.462  16
   2  -1  12 200.675 64.7304  13
   2  -1  12 323.656 62.6941   7
   2  -1  13 26.4086 35.3547   3
   2  -1  13 91.1715 109.242  16
   2  -1  13 27.0473 49.1767   7
   2  -1  14 51.2282 42.5911   7
   2  -1  14 69.1665 50.3420  13
  -2   0  14 63.8232 36.7544   3
  -2   0  14 90.3570 46.1490   7
  -2   0  13 170.420 46.6930   3
  -2   0  13 210.767 58.9032   7
  -2   0  12-21.0990 44.6686   3
  -2   0  11 289.905 58.4527   6
  -2   0  11 210.313 54.6551   3
  -2   0  10 65.5174 43.6612   6
  -2   0  10 89.6964 48.0886   3
  -2   0   9 271.929 53.0937   3
  -2   0   8 2001.13 210.380   8
  -2   0   7 552.608 69.4615   8
  -2   0   6 176.255 37.9959   8
   2   0  -6 106.005 23.9407  10
  -2   0   6 153.304 39.8821  15
   2   0  -5 23.6616 24.8959  10
  -2   0   5 25.8090 29.7998   8
  -2   0   4 68.3361 31.9892   2
  -2   0   4 88.1980 29.9771   8
   2   0  -3 1085.85 112.625  10
  -2   0   3 1016.04 112.073   2
  -2   0   3 1051.21 111.887   8
   2   0  -2 2503.26 258.411  10
  -2   0   2 2551.21 258.176   8
  -2   0   1 480.173 52.1170   8
   2   0  -1 409.956 51.4839  16
   2   0   0 1180.47 120.723  10
   2   0   0 1119.83 118.796  12
   2   0   1 1487.79 159.379  10
   2   0   1 1592.40 159.184  12
   2   0   2 473.096 61.1078  14
   2   0   2 384.626 53.0016  10
   2   0   2 511.586 54.3782  12
   2   0   2 435.172 52.7832   7
   2   0   3 695.994 75.6949   3
   2   0   3 700.996 82.8433  14
   2   0   3 736.588 77.8584   7
   2   0   3 661.644 79.7027  12
   2   0   4 21.6747 38.7192  14
   2   0   4 9.42100 22.0771   3
   2   0   4 38.3625 27.6464   7
   2   0   4 46.2614 30.9225  12
   2   0   5 65.3582 25.5330   3
   2   0   5 106.852 35.7702  12
   2   0   5 32.6516 45.0003  14
   2   0   5 44.2665 29.6926   7
   2   0   6 28.7472 31.1504   7
   2   0   6 77.6736 39.9199  12
   2   0   6-9.51702 28.1546   3
   2   0   7 1085.62 119.352   3
   2   0   7 1094.66 122.542   7
   2   0   8 56.4207 34.1258   3
   2   0   8 131.930 81.5440  16
   2   0   8 109.306 43.9182   7
   2   0   9 1243.01 128.438   3
   2   0   9 1047.73 159.243  16
   2   0   9 1074.37 131.530   7
   2   0  10 40.0498 35.5298   3
   2   0  10 85.0617 47.9270   7
   2   0  11 357.665 132.784  16
   2   0  11 759.751 81.1588   3
   2   0  11 379.563 84.5986  13
   2   0  11 772.004 87.9176   7
   2   0  12 123.969 38.0017   3
   2   0  12-31.1770 109.391  16
   2   0  12-24.2240 46.7335   7
   2   0  12 88.3232 53.4162  13
   2   0  13 48.3101 45.5391   7
   2   0  13 23.2846 98.6595  16
   2   0  13 107.971 36.3247   3
   2   0  13 90.5126 50.1609  13
  -2  -1  14 74.7044 40.4307   3
  -2  -1  14 81.9436 52.2870   7
  -2  -1  13 196.300 57.9760   6
  -2  -1  11-15.2405 45.4988   3
  -2  -1  10 25.3863 46.5635   6
  -2  -1  10 37.8479 43.6596   3
  -2  -1   9-39.3985 44.7316   6
  -2  -1   9-8.55206 41.0548   3
  -2  -1   8 1736.71 189.930   6
   2   1  -8 1742.21 182.654  10
  -2  -1   8 1823.61 186.015   8
   2   1  -7 160.123 33.9616  10
  -2  -1   7 138.134 35.2387   8
  -2  -1   6 6.04249 42.0140   2
   2   1  -6 33.0953 32.7100  10
  -2  -1   6 5.17681 29.0829   8
  -2  -1   5 11.9961 26.3663   8
  -2  -1   5 29.8140 40.6222  15
  -2  -1   5 56.0441 32.9077   5
  -2  -1   5 91.2448 39.8489   2
  -2  -1   4 1969.20 215.572   5
  -2  -1   4 2466.93 218.911  15
  -2  -1   4 2079.84 214.341   8
  -2  -1   4 1962.53 216.844   2
  -2  -1   3 517.194 60.4988   5
  -2  -1   3 522.857 68.8053  15
   2   1  -3 525.635 55.5501   9
  -2  -1   3 552.448 60.8177   8
  -2  -1   2 324.469 45.9730   8
   2   1  -1 3405.71 316.519  17
   2   1  -1 2957.37 313.248   9
  -2  -1   0 5690.72 568.248  11
  -2  -1   0 5494.13 567.260   5
   2   1   0 5819.80 568.698   9
   2   1   1 113.136 29.2143   9
   2   1   1 98.5306 27.5521  10
   2   1   2-8.83901 21.7344   3
   2   1   2 20.5321 23.6727  10
   2   1   2-3.29462 28.5045   9
   2   1   2 9.35975 23.9926  12
   2   1   3 90.9430 26.4200   7
   2   1   3 120.005 26.4648   3
   2   1   3 138.909 44.4317  14
   2   1   3 128.199 27.1889  10
   2   1   3 82.7130 31.0615   9
  -2  -1  -3 117.101 34.5911  15
   2   1   3 137.959 30.9818  12
   2   1   4 1019.85 120.159   9
   2   1   4 1123.78 118.170   3
  -2  -1  -4 1162.59 118.534  15
   2   1   4 1122.68 125.140  14
   2   1   4 1090.38 118.811   7
   2   1   4 1176.09 121.246  12
   2   1   5 25.2519 31.9696   9
   2   1   5 23.0522 46.2548  14
   2   1   5 72.3411 24.9890   3
   2   1   5 41.6280 31.5392   7
   2   1   6 157.957 36.9618   9
   2   1   6 156.181 53.9596  14
   2   1   6 144.794 34.2155   3
   2   1   6 155.802 39.8070   7
   2   1   7 173.460 39.2728   3
   2   1   7 191.537 42.1259   7
   2   1   8 2289.97 242.709   3
   2   1   8 2350.36 244.389   7
   2   1   9 763.082 88.5105   3
   2   1   9 662.650 90.7891   7
   2   1  10 38.5642 38.1262   3
   2   1  10-70.5662 46.3532   7
   2   1  11 115.390 47.5100   7
   2   1  11 104.633 41.8329   3
   2   1  11 25.5619 47.8506  13
   2   1  12 354.904 52.3671   3
   2   1  12 170.478 105.810  16
   2   1  12 230.739 58.8427  13
   2   1  13 2.03960 33.5803   3
  -2  -2  14 73.0308 38.6552   3
  -2  -2  13 53.3584 57.5788   6
  -2  -2  13 147.401 45.2552   3
  -2  -2  12 72.0818 43.6227   3
  -2  -2  12 80.7466 55.7592   6
  -2  -2  11 199.298 49.0092   3
  -2  -2  11 186.089 59.2319   6
  -2  -2  10 177.818 59.0592   6
  -2  -2  10 320.610 52.2875   3
   2   2  -9 294.687 46.2479  10
  -2  -2   9 245.990 50.2882   3
  -2  -2   8 557.199 74.2611   5
  -2  -2   8 616.638 83.1167   2
  -2  -2   8 581.758 70.3646   8
  -2  -2   7 62.0375 42.4655   2
  -2  -2   7 49.7189 34.6871   5
  -2  -2   7 70.5717 31.1228   8
  -2  -2   6 428.124 61.9747   5
  -2  -2   6 539.584 67.3931   2
  -2  -2   5 161.842 42.1862   2
  -2  -2   5 116.904 35.4441   5
  -2  -2   4 160.799 34.5047   5
  -2  -2   3 178.144 31.6516   8
  -2  -2   3 115.219 33.4036   5
  -2  -2   3 171.785 47.1659  15
  -2  -2   2 283.396 39.8365   5
  -2  -2   2 255.528 40.3703   8
  -2  -2   2 363.084 53.6059  15
  -2  -2   1-7.97609 44.7440  15
  -2  -2   1-0.73960 25.7898  11
  -2  -2   0 155.392 23.1480   4
  -2  -2   0 189.818 31.3838  11
  -2  -2   0 129.677 46.9700  15
  -2  -2  -1 108.474 35.6072  11
  -2  -2  -1 120.550 42.7611  15
  -2  -2  -1 70.6250 15.7808   4
   2   2   2 2539.78 259.297   3
   2   2   3 872.285 92.3959  10
   2   2   3 877.131 91.9667   3
   2   2   3 816.336 97.1369   9
   2   2   3 685.650 99.5726  14
  -2  -2  -3 870.419 88.1040   1
   2   2   4 970.247 101.273  10
   2   2   4 1005.32 109.869   9
  -2  -2  -4 948.977 99.5259   1
   2   2   4 870.206 110.604  14
   2   2   4 1028.43 104.432   3
   2   2   5 98.2696 32.9563   7
   2   2   5 145.930 47.5061  14
   2   2   5 126.810 43.3188   9
  -2  -2  -5 159.908 22.8874   1
   2   2   5 194.917 32.6556   3
   2   2   6 360.131 57.7427   3
   2   2   6 526.472 64.0744   9
   2   2   6 400.848 69.3500  14
   2   2   6 509.331 60.3748   7
   2   2   7 539.390 66.3626   3
   2   2   7 463.159 70.7598   9
   2   2   8 1579.62 169.954   3
   2   2   9 58.6682 37.9250   3
   2   2  10 119.482 42.3710   3
   2   2  11 35.3032 37.2794   3
   2   2  11-4.65542 94.1490  16
   2   2  11-29.7383 43.7624  13
   2   2  12 238.085 103.332  16
   2   2  12 643.294 72.9175   3
  -2  -3  14 108.627 55.1167   6
  -2  -3  13 417.097 76.4737   6
  -2  -3  13 442.892 57.7704   3
  -2  -3  12 12.4088 54.7110   6
  -2  -3  12 35.3113 32.7477   3
  -2  -3  11 110.189 58.1548   6
  -2  -3  11 130.296 36.9719   3
  -2  -3  10 164.571 39.6133   3
  -2  -3  10 278.269 50.0799   5
  -2  -3   9 36.1945 54.6967   2
  -2  -3   9 71.4130 28.9852   3
  -2  -3   9 20.7203 44.6536   5
  -2  -3   8-64.8020 48.9536   2
  -2  -3   8-13.0357 27.6425   3
  -2  -3   8 24.0776 25.0293   8
  -2  -3   8 2.07081 37.2565   5
  -2  -3   7 700.674 84.2516   5
  -2  -3   7 567.756 88.3223   2
  -2  -3   7 738.320 77.7913   8
  -2  -3   6 804.868 97.4589   5
  -2  -3   6 844.936 100.298   2
  -2  -3   6 859.754 91.4253   8
  -2  -3   5 512.261 68.9077   5
  -2  -3   5 549.269 60.5802   8
  -2  -3   4 5.27942 35.3658   5
  -2  -3   4 37.4071 21.7873   8
   2   3  -4-12.5219 34.2732  17
  -2  -3   3 2960.98 295.289   5
  -2  -3   3 2864.24 293.210   4
  -2  -3   3 2736.19 292.266   8
   2   3  -3 2999.50 293.972  17
  -2  -3   2 48.7805 32.0673   5
  -2  -3   1 3562.50 370.992  11
  -2  -3   1 3767.84 371.007   5
  -2  -3   1 3590.73 368.944   4
  -2  -3   0 142.534 35.6498  11
  -2  -3   0 70.4448 24.1362   4
  -2  -3  -1 107.395 42.1689  11
  -2  -3  -2 272.434 54.4247  11
  -2  -3  -3 236.005 50.5527  11
  -2  -3  -3 145.036 26.3890   1
   2   3   3 158.863 47.0561  14
  -2  -3  -4 381.136 83.1933  11
   2   3   4 526.179 61.8012  10
   2   3   4 535.378 64.6352   3
  -2  -3  -4 595.888 60.6859   1
   2   3   4 588.582 77.7919   9
   2   3   5 95.0439 29.3033   3
   2   3   5 80.8114 47.1830   9
   2   3   6 52.9691 29.3221   3
   2   3   6 64.2996 46.7999   9
   2   3   6-22.1124 48.2899  14
   2   3   7 54.7146 35.1131   3
   2   3   7 133.923 49.3780   9
   2   3   8 501.431 59.5568   3
   2   3   8 235.384 64.0055   9
   2   3   9 42.7795 37.5745   3
   2   3  10 182.992 42.2522   3
  -2  -3 -10 35.2584 65.6267  11
  -2  -3 -11 22.3813 54.0968  11
   2   3  11 4.08862 34.4006   3
   2   3  11-4.05157 81.8597  16
  -2  -4  14 300.485 62.7948   6
  -2  -4  13 30.7073 53.1841   6
  -2  -4  12-22.1103 56.4489   6
  -2  -4  11 94.7122 54.8845   6
  -2  -4  11-32.0905 50.5000   5
  -2  -4  10 408.136 69.4137   5
  -2  -4   9 43.9790 56.2633   2
  -2  -4   9 36.2199 42.0191   5
  -2  -4   8 132.537 49.2491   5
  -2  -4   8 114.930 53.9657   2
  -2  -4   7 55.8754 48.5719   2
  -2  -4   7 64.3728 40.5617   5
  -2  -4   6 2355.73 227.528   2
  -2  -4   6 2456.93 226.238   5
  -2  -4   6 2111.95 216.248   8
   2   4  -6 1858.49 219.931  17
  -2  -4   5 226.806 37.0892   8
   2   4  -5 335.590 48.8123  17
  -2  -4   4 741.732 85.4306   5
  -2  -4   4 649.524 76.1678   8
  -2  -4   4 812.017 83.0358   4
  -2  -4   3 200.305 40.4195   5
  -2  -4   3 111.640 26.7693   8
  -2  -4   2 363.798 56.9334   5
  -2  -4   2 423.613 54.4055   4
  -2  -4   1 4.99254 35.3274  11
  -2  -4   1 3.17707 34.7040   5
  -2  -4   1 67.5512 28.3613   4
  -2  -4   0 238.659 50.2402  11
  -2  -4   0 221.755 36.3843   4
  -2  -4   0 202.351 45.3905   5
  -2  -4  -1 9.85572 43.1222  11
  -2  -4  -2 299.572 62.3451  11
   2   4   3 167.862 28.8986   3
   2   4   3 84.7201 49.4503  14
  -2  -4  -3 161.312 52.4993  11
   2   4   4 103.871 45.5841  14
   2   4   4 89.2207 27.9580   3
  -2  -4  -4 26.5418 52.8178  11
   2   4   4 71.0582 50.5068   9
   2   4   5 61.6194 29.1798   3
  -2  -4  -5 9.09096 60.1265  11
   2   4   5 40.9711 48.1777   9
   2   4   5-17.9506 47.1576  14
   2   4   6 271.400 45.6606   3
   2   4   6 244.238 61.0433   9
   2   4   6 206.726 59.3648  14
  -2  -4  -6 228.722 73.2950  11
   2   4   7 42.8253 35.4007   3
  -2  -4  -7 38.6774 60.8598  11
   2   4   8 118.303 37.9494   3
  -2  -4  -8 20.5740 63.0673  11
   2   4   8 5.05066 46.2626   9
  -2  -4  -9-25.2513 56.8598  11
   2   4   9 2.01710 35.3431   3
  -2  -4 -10 100.899 54.1049  11
  -2  -5  14 122.241 50.9738   6
  -2  -5  13 64.1858 53.8662   6
  -2  -5  12 42.1085 57.6257   6
  -2  -5  12-27.3122 49.9631   5
  -2  -5  11-64.2932 53.6786   5
  -2  -5  10 20.0828 65.6594   2
  -2  -5  10 155.691 53.8397   5
  -2  -5   9 18.6181 60.4500   2
  -2  -5   9-2.84696 49.0967   5
  -2  -5   8 219.218 60.0688   5
  -2  -5   8 283.383 69.4117   2
  -2  -5   7 116.390 57.7720   2
  -2  -5   7 73.0460 49.5116   5
  -2  -5   6 2154.45 232.295   5
  -2  -5   6 2185.53 234.527   2
  -2  -5   5 38.9420 40.6233   4
  -2  -5   5 93.7112 46.6918   5
  -2  -5   4 144.544 47.4669   5
  -2  -5   3 263.936 40.0421   8
  -2  -5   3 370.036 53.8753   4
  -2  -5   3 373.481 57.4867   5
  -2  -5   2 1307.53 159.398   5
  -2  -5   2 1573.33 157.995   4
  -2  -5   1 160.905 47.7308   5
  -2  -5   1 124.445 37.4641   4
  -2  -5   0 231.927 66.5466  11
  -2  -5   0 330.413 58.8176   5
  -2  -5   0 370.341 51.0906   4
  -2  -5  -1 179.458 56.9426  11
  -2  -5  -1 160.836 35.9090   4
  -2  -5  -2 506.519 78.2747  11
   2   5   2 460.121 80.7666  14
  -2  -5  -3-25.1774 53.4132  11
   2   5   3-2.03753 48.2541  14
  -2  -5  -4 342.147 71.1877  11
   2   5   4 490.932 71.4779   9
   2   5   4 257.933 63.1945  14
  -2  -5  -5 272.447 67.1490  11
   2   5   5 178.804 59.1997   9
   2   5   5 106.737 53.9880  14
  -2  -5  -6 46.8391 60.7267  11
   2   5   6 42.8950 52.1456   9
  -2  -5  -7-35.7032 59.8155  11
   2   5   7 18.3448 46.1514   9
  -2  -5  -8 11.8167 53.4660  11
   2   5   8 93.4861 41.3663   9
  -2  -6  13 2.95983 50.2829   6
  -2  -6  12 39.0845 57.2701   6
  -2  -6  12 68.8960 48.4233   5
  -2  -6  11 39.3234 53.4837   5
  -2  -6  10 818.690 118.356   5
  -2  -6  10 1180.13 132.357   2
  -2  -6   9 45.3543 66.7828   2
  -2  -6   9 12.1954 50.6958   5
  -2  -6   8 1218.12 130.800   2
  -2  -6   8 770.233 117.883   5
  -2  -6   7 261.779 64.0837   5
  -2  -6   7 320.939 73.2188   2
  -2  -6   6 426.344 75.7902   5
  -2  -6   6 509.542 85.7051   2
  -2  -6   5 132.185 67.7438   2
  -2  -6   5 111.226 55.0441   5
  -2  -6   4 573.992 89.1994   5
  -2  -6   4 685.374 86.1973   4
  -2  -6   3 186.686 49.2238   4
  -2  -6   3 108.251 55.0419   5
  -2  -6   2 187.045 46.1781   4
  -2  -6   2 113.150 55.0042   5
  -2  -6   1 182.286 57.9657   5
  -2  -6   1 188.097 45.5871   4
  -2  -6   0 3.21283 63.4361  11
  -2  -6   0 1.88312 34.7856   4
  -2  -6  -1 44.2747 61.3825  11
  -2  -6  -1 64.4558 34.1490   4
  -2  -6  -2 44.1810 61.9948  11
   2   6   2 126.730 52.4243  14
  -2  -6  -3 152.538 66.8267  11
   2   6   3 167.513 52.6859  14
  -2  -6  -4-27.3599 54.2906   5
  -2  -6  -4-13.1950 61.2929  11
   2   6   4 24.2387 55.7744   9
  -2  -6  -5 59.1403 59.6580  11
   2   6   5 64.3571 49.0564   9
  -2  -6  -6 111.676 60.8372  11
  -2  -6  -7 2.76125 49.9832  11
  -2  -7  11 240.658 58.1345   5
  -2  -7  10 15.2345 50.1132   5
  -2  -7   9 95.0347 58.2015   5
  -2  -7   8 327.269 71.7016   5
  -2  -7   8 362.952 81.1644   2
  -2  -7   7 75.9976 58.1361   5
  -2  -7   7 44.4938 60.8380   2
  -2  -7   6-13.4407 56.9477   5
  -2  -7   6-18.4401 57.7791   2
  -2  -7   5 22.1855 47.2180   4
  -2  -7   5 77.2698 57.0283   5
  -2  -7   5-42.3672 60.1495   2
  -2  -7   4 225.351 53.5666   4
  -2  -7   4 208.392 64.5861   2
  -2  -7   4 139.752 61.9309   5
  -2  -7   3-7.37828 42.7127   4
  -2  -7   3 45.5442 54.0444   5
  -2  -7   2 151.814 46.0727   4
  -2  -7   1-2.12921 37.6889   4
   2   7   0-14.1650 55.5894  14
  -2  -7  -1 199.409 61.8336   5
  -2  -7  -2 49.3444 54.3277   5
  -2  -7  -3-69.9329 62.2329  11
  -2  -7  -3 70.1017 54.0915   5
   2   7   3 15.4835 51.7328   9
  -2  -7  -4 15.8377 55.5725  11
  -2  -7  -4 108.954 53.5303   5
   2   7   4 61.5087 49.4794   9
  -2  -8   9 38.7806 48.2497   5
  -2  -8   8 307.142 66.8366   2
  -2  -8   8 326.967 66.4616   5
  -2  -8   7-21.0482 51.0919   2
  -2  -8   7-129.563 57.8131   5
  -2  -8   6 13.3166 54.8179   5
  -2  -8   6-25.2939 49.7963   2
  -2  -8   5 24.2044 47.6077   2
  -2  -8   4 357.007 64.3974   2
  -2  -8   3-48.4742 46.4345   2
  -2  -8   1 29.8930 51.7049   5
  -2  -8   0 261.713 63.2645   5
   2   8   1 26.7537 49.7283   9
   3  -8   1-22.1347 48.4619   5
   3  -8   2 149.194 57.8672   5
   3  -8   2 298.283 61.2428   4
   3  -8   3 50.5905 52.4185   5
   3  -8   3 43.8811 49.6593   4
   3  -8   4 60.9204 52.8122   5
   3  -8   4-6.47927 53.3324   4
   3  -8   5 220.838 61.5483   4
   3  -8   5 202.228 59.1932   5
   3  -8   6 207.674 59.1107   4
   3  -8   6 176.289 56.2629   5
   3  -8   7 137.729 52.0679   4
   3  -7  -4 45.0989 45.7265   1
   3  -7  -3 38.5904 51.6698   5
   3  -7  -3-42.2147 51.0071   1
   3  -7  -2 38.8742 53.4027   5
   3  -7  -2 78.6382 50.8478   1
   3  -7  -1-6.05105 53.0093   5
   3  -7   0 196.310 51.5908  12
   3  -7   0 94.5264 57.7937   5
   3  -7   1 392.938 70.9347  12
   3  -7   1 496.511 79.1424   5
   3  -7   2 37.7915 51.7183  12
   3  -7   2 15.9949 56.6219   5
   3  -7   3 389.672 72.6011  12
   3  -7   3 390.985 75.2472   5
   3  -7   4 2.71544 52.7209  12
   3  -7   4-3.35100 58.5202   5
   3  -7   4 73.8819 58.5702   4
   3  -7   5 16.7264 57.6812   5
   3  -7   5 39.6204 55.5405   4
   3  -7   6 40.8845 51.8482   4
   3  -7   6 55.7036 56.4049   5
   3  -7   7 143.444 51.2094   4
   3  -7   7 199.981 57.9024   5
   3  -7   8 278.626 61.7873   5
   3  -7   9 33.4894 46.4728   5
   3  -6  -6 20.4129 52.0521  12
   3  -6  -6 41.2781 46.3544   1
   3  -6  -5 25.4484 52.3150  12
   3  -6  -5 21.9881 47.1369   1
   3  -6  -4 27.4400 52.0856  12
   3  -6  -4 237.810 57.4409   1
   3  -6  -3 60.3941 49.7918  12
   3  -6  -3-2.77279 50.2782   1
   3  -6  -2 27.9942 48.7297  12
   3  -6  -2 19.1030 49.7554   1
   3  -6  -1 2.28103 45.9051  12
   3  -6  -1 2.74381 48.8142   1
   3  -6   0 130.424 54.4803   1
   3  -6   0 210.275 53.3373  12
   3  -6   1 115.013 55.9260   1
   3  -6   1 2.29378 47.0860  12
   3  -6   2 319.024 66.3239  12
   3  -6   2 399.863 71.3667   5
   3  -6   3 145.998 55.6755  12
   3  -6   3 145.451 55.4540   5
   3  -6   4 701.548 95.0921   5
   3  -6   4 676.858 95.1152  12
   3  -6   5 10.3761 52.1849  12
   3  -6   5 57.2934 50.6295   5
   3  -6   5 74.9123 46.4668   4
   3  -6   6 116.380 47.2970   4
   3  -6   6 213.998 55.0511   5
   3  -6   7-7.42516 49.0682  12
   3  -6   7 5.48397 47.4104   5
   3  -6   8 390.358 66.5460   5
   3  -6   8 382.690 66.9714  12
   3  -6   9 49.8339 44.7373   5
   3  -6   9 53.8361 47.6033  12
   3  -6  10-17.6116 42.3866   5
   3  -6  10 27.0441 46.7228  12
   3  -6  11-27.8176 41.3354   5
  -3   5   8 152.942 40.3961   3
   3  -5  -7-45.4283 50.5537   1
  -3   5   7-6.08418 35.9111   3
   3  -5  -6 55.5768 53.3835   1
  -3   5   6 172.043 42.1418   3
   3  -5  -5 40.9179 33.7225  11
  -3   5   5-34.9708 37.4705   3
   3  -5  -5 42.8110 50.5361   1
   3  -5  -4 77.9718 51.9780   1
   3  -5  -4 90.9218 34.9419  11
  -3   5   4 5.44068 34.4844   3
   3  -5  -3 133.047 49.4154   1
   3  -5  -3 32.7316 49.6119  12
   3  -5  -3 46.7402 32.4111  11
  -3   5   3 26.4824 32.6003   3
   3  -5  -2 203.916 54.9722  12
   3  -5  -2 232.177 51.8879   1
  -3   5   2 209.729 40.5557   3
   3  -5  -1 414.596 65.5005  12
  -3   5   1 294.844 49.1211   3
   3  -5  -1 500.317 63.2035   1
   3  -5   0 1051.96 103.152   1
   3  -5   0 621.939 99.6627  12
   3  -5   1 310.797 56.7038  12
   3  -5   1 197.453 55.1661   1
   3  -5   2 37.5578 43.4030  12
   3  -5   2 6.80027 44.3918   1
   3  -5   2 43.4822 46.7768   5
   3  -5   3-19.8041 42.1346  12
   3  -5   3-10.9538 43.8546   5
   3  -5   4 197.618 50.9049  12
   3  -5   4 173.301 48.3225   5
   3  -5   5-8.69561 40.9569   5
   3  -5   5-9.96635 36.7026   4
   3  -5   6 68.4741 41.0007   5
   3  -5   7 28.9397 39.7603   5
   3  -5   8 356.007 59.1738   4
   3  -5   8 481.681 65.1752   5
   3  -5   8 386.380 71.0709  13
   3  -5   9 92.6266 43.1918   5
   3  -5   9 5.70007 57.6196  13
   3  -5   9 139.469 50.3263  12
   3  -5  10-9.27899 60.5682  13
   3  -5  10 16.4735 39.9240   5
   3  -5  10-15.1981 46.8445  12
  -3   4  10 265.906 53.0161   3
  -3   4   9 262.729 55.1246   3
   3  -4  -8 182.030 54.9218  11
  -3   4   8 399.800 60.1565   3
   3  -4  -7 227.897 49.3509  11
  -3   4   7 285.056 54.3229   3
   3  -4  -6 759.511 90.1401  11
  -3   4   6 944.405 96.1436   3
   3  -4  -5 35.4450 35.6107  11
  -3   4   5 56.0579 41.8324   3
   3  -4  -5 87.5847 47.2196  17
   3  -4  -4 582.306 68.2735  11
   3  -4  -4 476.502 75.1736  17
   3  -4  -3 10.6284 29.2035  11
   3  -4  -3 29.3550 39.3529  17
   3  -4  -2 35.8576 28.6300  11
   3  -4  -2-1.59734 34.3331  17
  -3   4   2 50.5994 32.0242   8
   3  -4  -1 937.523 106.640   1
  -3   4   1 913.805 100.564   8
   3  -4  -1 858.078 109.247  12
   3  -4   0 167.379 51.8709  12
   3  -4   0 258.552 46.5716   1
  -3   4   0 203.777 35.9512   8
   3  -4   1 475.114 67.9893  12
   3  -4   1 566.658 68.5359   5
   3  -4   1 528.087 66.6658   1
  -3   4  -1 445.825 57.2974   8
  -3   4  -2 325.250 42.4424   8
   3  -4   2 416.900 55.3842   5
   3  -4   2 316.827 52.8493   1
   3  -4   2 440.072 56.2422  12
   3  -4   3 90.6164 38.4844  12
   3  -4   3 127.744 38.4903   5
   3  -4   4 879.240 94.5637   5
   3  -4   4 759.525 90.1445  13
   3  -4   4 822.402 95.9273  12
   3  -4   5 383.851 66.9677  12
   3  -4   5 532.893 62.6801   5
   3  -4   5 444.420 61.1347  13
   3  -4   6 185.182 48.3623  12
   3  -4   6 151.700 40.1534   5
   3  -4   6 142.690 43.5392  13
   3  -4   7 390.895 58.8294   4
   3  -4   7 457.558 66.6306  12
   3  -4   7 489.597 57.7026   7
   3  -4   7 396.220 61.9939   5
   3  -4   8 131.685 43.8098   5
   3  -4   8 160.039 39.4097   7
   3  -4   8 135.805 49.2370  12
   3  -4   9 159.749 42.5421   5
   3  -4   9 61.9750 58.1997  13
   3  -4   9 64.5096 48.0880  12
   3  -4   9 145.876 42.3427   7
   3  -4  10 117.220 61.8917  13
   3  -4  10 88.3642 54.4376  12
   3  -4  10 168.738 46.4047   7
   3  -4  11 4.54696 41.3182   7
   3  -4  11-46.5172 64.9395  13
   3  -4  12 72.5525 42.5806   7
   3  -4  12 76.6857 65.1120  13
   3  -4  13 19.2642 38.3355   7
   3  -4  13-90.3218 67.8951  13
  -3   3  11 32.8262 42.5482   3
   3  -3 -10 625.760 108.369  11
  -3   3  10 897.359 101.576   3
  -3   3   9 45.8765 50.2494   3
  -3   3   8 50.6793 48.8183   3
  -3   3   7 42.8581 49.3782   3
   3  -3  -5 203.994 52.3548  11
  -3   3   5 501.806 58.6669   8
   3  -3  -4 87.9398 31.9911  11
  -3   3   4 15.4566 35.5108   8
   3  -3  -4 18.1699 49.0510  17
  -3   3   3 69.0548 38.1086   8
   3  -3  -3 89.6439 28.6963  11
   3  -3  -3 48.6875 50.4816  17
   3  -3  -2 995.386 101.129  11
   3  -3  -2 796.017 110.638  17
   3  -3  -1 160.303 50.7302  12
   3  -3  -1 220.398 31.5601  11
   3  -3  -1 160.363 47.7381  17
   3  -3   0 22.2069 38.8126  12
  -3   3   0 32.6938 26.2080   8
   3  -3   0 19.7887 34.0879   1
   3  -3   1 11.7658 35.5103  12
   3  -3   1-56.9519 32.3626   1
   3  -3   1 13.0661 27.4828   5
  -3   3  -1-14.0416 23.2128   8
   3  -3   1-16.4561 16.4538  13
   3  -3   2 1056.76 105.397   5
  -3   3  -2 1008.48 103.135   8
   3  -3   2 903.717 105.303   1
   3  -3   2 909.315 102.149  13
   3  -3   2 1019.12 108.283  12
   3  -3   3 446.523 54.6447   5
  -3   3  -3 466.365 50.5238   8
   3  -3   3 366.865 53.0215  13
   3  -3   3 448.784 60.0794  12
   3  -3   4 964.371 94.9623   5
  -3   3  -4 844.598 89.6487   8
   3  -3   4 772.747 93.9159  13
   3  -3   4 793.303 98.7111  12
   3  -3   4 775.361 122.277  16
   3  -3   5 148.243 31.2935   7
   3  -3   5 168.377 45.1303  12
  -3   3  -5 152.325 26.9032   8
   3  -3   5 135.295 84.0473  16
   3  -3   5 133.787 36.0791   5
   3  -3   5 115.622 32.7864   4
   3  -3   6 1332.00 145.209   5
  -3   3  -6 1324.35 140.288   8
   3  -3   6 1459.69 177.325  16
   3  -3   6 1501.60 148.669  13
   3  -3   6 1204.73 142.658   4
   3  -3   6 1393.13 143.957   7
   3  -3   6 1450.81 149.717  12
   3  -3   7 853.285 90.2003   5
   3  -3   7 692.801 131.222  16
   3  -3   7 647.166 93.7324  13
   3  -3   7 784.011 87.0321   4
   3  -3   7 738.945 94.6227  12
   3  -3   8 152.587 41.4650   5
   3  -3   8 118.396 112.462  16
   3  -3   8 203.055 50.9377  12
   3  -3   8 132.099 53.1311  13
   3  -3   9 315.273 116.726  16
   3  -3   9 226.119 59.2121  13
   3  -3   9 117.956 53.5334  12
   3  -3  10 543.202 139.835  16
   3  -3  10 517.912 91.8350  13
   3  -3  10 669.671 87.9844  12
   3  -3  11-11.1565 117.774  16
   3  -3  11 26.9264 64.2706  13
   3  -3  12-35.9764 69.1945  13
   3  -3  12 12.8139 45.0741   7
   3  -3  13-98.2385 71.1935  13
  -3   2  12 2.49805 40.3960   3
  -3   2  11 65.7812 46.3888   3
  -3   2  10 129.648 53.0032   3
  -3   2  10 147.732 43.9934   7
  -3   2   9-36.3577 48.8793   3
  -3   2   8-5.27347 46.0170   3
  -3   2   7 35.0356 41.7619   8
  -3   2   6 1221.70 136.886   8
  -3   2   5 86.5140 39.4884   8
  -3   2   4 340.547 54.6540   8
   3  -2  -3 135.547 51.4925  17
  -3   2   3 106.927 38.7290   8
   3  -2  -2 1194.50 118.545  11
  -3   2   2 1162.54 123.362   8
   3  -2  -2 827.638 131.828  17
  -3   2   1 152.717 35.3597   8
   3  -2  -1 52.5471 51.6155  17
  -3   2   0 212.980 35.9009   8
   3  -2   0 178.767 40.0689  12
   3  -2   1 584.299 66.0049   5
   3  -2   1 503.748 67.3387   1
   3  -2   1 712.483 71.0002  12
   3  -2   2 5620.56 573.211   5
  -3   2  -2 5995.42 574.412   8
   3  -2   2 5415.59 581.949  16
   3  -2   2 5477.39 575.084  12
   3  -2   3 1692.31 163.593   5
  -3   2  -3 1584.71 164.793   8
   3  -2   3 1113.87 180.912  16
   3  -2   3 1536.19 166.725  12
   3  -2   4 14.3671 39.0863  12
   3  -2   4 10.9344 76.3491  16
   3  -2   4 38.1750 24.2084   5
   3  -2   4 28.5830 22.4944   4
   3  -2   5 645.394 69.8236   5
   3  -2   5 546.278 111.507  16
   3  -2   5 585.369 68.1574   4
   3  -2   5 668.641 72.1783   7
   3  -2   5 515.399 77.9019  12
   3  -2   6 2098.09 209.576   5
   3  -2   6 1837.69 234.483  16
   3  -2   6 1960.55 210.706   7
   3  -2   6 2023.64 213.966  12
   3  -2   7 108.365 97.2649  16
   3  -2   7 240.012 42.9631   7
   3  -2   7 141.170 47.2301  12
   3  -2   8 21.1417 87.5675  16
   3  -2   8 47.5355 39.1646   7
   3  -2   8 28.4077 42.5976  12
   3  -2   9 39.2533 54.7649  13
   3  -2   9 83.5122 98.8095  16
   3  -2   9 22.3831 50.1106  12
   3  -2   9 45.5936 44.7273   7
   3  -2  10 218.793 114.258  16
   3  -2  10 233.115 67.1806  13
   3  -2  10 184.866 53.3947   7
   3  -2  11-27.6866 63.9403  13
   3  -2  11-2.65895 46.9011   7
   3  -2  11-16.6314 124.051  16
   3  -2  12-42.6399 47.8914   7
   3  -2  12 3.57395 66.8642  13
   3  -2  13 50.2856 43.1031   7
   3  -2  13-16.7938 113.663  16
   3  -2  13-45.3506 68.4078  13
  -3   1  13 219.771 48.5489   3
  -3   1  12 38.5855 43.9704   3
  -3   1  12 89.5784 47.4440   7
  -3   1  11-8.08026 45.2551   3
  -3   1  10 153.065 50.8172   3
  -3   1   9-17.7780 36.3400   6
  -3   1   9 17.7418 45.6019   3
  -3   1   8 98.8742 35.6338   6
  -3   1   8 139.044 45.5344   8
  -3   1   7 156.350 36.3603   6
  -3   1   7 190.284 43.1461  15
  -3   1   7 167.020 44.8899   8
  -3   1   6 1027.30 113.523   6
  -3   1   6 1095.32 119.091   8
  -3   1   5 160.284 33.4117   6
  -3   1   5 254.347 43.1092   8
  -3   1   4 72.0219 25.3398   6
  -3   1   4 66.7146 32.2078   8
  -3   1   3 412.102 55.2567   8
  -3   1   2 284.438 45.4460   8
  -3   1   2 343.316 38.2010   2
   3  -1  -2 220.105 58.6507  17
   3  -1  -1 796.320 108.689  17
  -3   1   1 976.260 102.071   8
   3  -1  -1 996.605 99.7924  14
   3  -1  -1 880.463 103.045  12
   3  -1   0 196.473 39.7827  12
  -3   1   0 256.995 39.5835   8
   3  -1   1 406.933 45.5867   1
  -3   1  -1 408.882 51.6404   8
   3  -1   1 356.760 52.4968  14
   3  -1   1 410.384 51.7908  12
   3  -1   1 407.319 71.3303  16
   3  -1   2 403.254 47.4338   1
   3  -1   2 439.641 61.1673  14
   3  -1   2 362.888 81.8024  16
   3  -1   2 508.554 57.6392  12
   3  -1   3 1037.80 92.0416  16
   3  -1   3 744.046 65.9016  14
   3  -1   3 600.910 58.7813  12
   3  -1   4 1368.47 181.223  16
   3  -1   4 1296.54 168.011  14
   3  -1   4 1684.76 160.946   7
   3  -1   4 1532.54 155.927   4
   3  -1   4 1488.05 163.130  12
   3  -1   5 27.5437 28.2148   7
   3  -1   5 5.77694 37.2356  12
   3  -1   5 79.7053 71.7085  16
   3  -1   6 1586.48 216.169  16
   3  -1   6 1900.46 198.329   7
   3  -1   6 1986.17 200.553  12
   3  -1   7 327.602 93.4953  16
   3  -1   7 419.238 58.6784   7
   3  -1   7 432.915 64.6272  12
   3  -1   8 137.356 37.8152   3
   3  -1   8 231.962 50.5759   7
   3  -1   8 224.790 91.9278  16
   3  -1   8 113.543 51.6677  12
   3  -1   9 339.798 50.9464   3
   3  -1   9 239.408 102.783  16
   3  -1   9 263.734 55.1231   7
   3  -1  10 544.445 135.448  16
   3  -1  10 717.627 91.2798   7
   3  -1  11 5.29364 46.2202   7
   3  -1  11-86.0059 121.431  16
   3  -1  11 67.4173 62.1434  13
   3  -1  12-44.6360 47.7691   7
   3  -1  12 119.949 119.174  16
   3  -1  12 23.4035 62.8393  13
   3  -1  13 16.3634 114.008  16
   3  -1  13-3.08126 55.2298  13
  -3   0  13-11.9978 39.8139   3
  -3   0  12 424.150 67.7604   3
  -3   0  11 153.423 46.4171   6
  -3   0  11 136.713 49.2941   3
  -3   0  10 229.846 50.3221   6
  -3   0  10 228.456 54.0352   3
  -3   0   9 19.9932 38.6390   6
  -3   0   9 23.5343 39.3727   8
  -3   0   8 906.384 104.131   6
  -3   0   8 863.365 102.355   8
  -3   0   7-19.4702 38.6315   6
  -3   0   7-4.82916 32.4928   8
  -3   0   7 15.5411 41.2681  15
   3   0  -6 75.1537 29.9645  10
  -3   0   6 48.5150 34.6966   8
  -3   0   6 71.8540 48.0857  15
   3   0  -5 773.577 85.1154  10
  -3   0   5 719.469 86.3026   2
  -3   0   5 724.619 85.0748   8
   3   0  -4 556.686 68.2764  10
  -3   0   4 546.530 64.8738   2
  -3   0   4 497.554 65.3888   8
  -3   0   3 1606.83 166.949   2
   3   0  -3 1621.97 167.972  10
  -3   0   3 1544.39 166.844   8
   3   0  -2 161.671 35.3058  10
   3   0  -2 99.8259 42.7278  17
  -3   0   2 146.500 33.6962   8
   3   0  -2 79.9050 25.7876  16
   3   0  -1 711.812 74.2545  10
  -3   0   1 671.318 73.7067   8
   3   0  -1 604.600 78.6369  16
   3   0  -1 422.627 77.1928  17
   3   0  -1 670.066 71.4940  12
   3   0   0 400.225 50.6785  10
  -3   0   0 365.782 50.8617   8
   3   0   0 369.587 47.9404  12
   3   0   1 190.522 33.2563  12
  -3   0  -1 104.371 20.7641  11
   3   0   1 132.949 34.2360  10
   3   0   1 179.140 18.6810   1
   3   0   2 161.109 35.5068  12
   3   0   2 87.0576 44.6947  14
   3   0   3 1548.90 166.820  14
   3   0   3 1539.15 163.164  12
   3   0   4 46.4522 34.4832  12
   3   0   4 57.8018 50.6665  14
   3   0   5 263.467 43.0734   7
   3   0   5 269.316 42.0610   3
   3   0   5 338.004 66.2855  14
   3   0   5 292.941 48.7407  12
   3   0   6 2839.41 247.417   3
   3   0   6 2095.52 256.340  14
   3   0   6 2374.87 247.574   7
   3   0   6 2021.50 248.289  12
   3   0   7 203.830 39.7878   3
   3   0   7 110.639 82.3844  16
   3   0   7 186.617 49.0980  12
   3   0   7 184.230 42.4736   7
   3   0   8 16.3788 36.5522   3
   3   0   8 69.1750 85.9904  16
   3   0   8-34.7112 42.0901   7
   3   0   9 95.7877 46.3811   7
   3   0   9 111.292 40.4404   3
   3   0   9 106.156 95.1227  16
   3   0  10 112.640 48.7384   7
   3   0  10 226.456 44.9325   3
   3   0  11-5.20308 46.1132   7
   3   0  11-20.0224 39.3355   3
   3   0  11 18.6006 56.5292  13
   3   0  12 112.098 109.657  16
   3   0  12-58.8810 54.7701  13
   3   0  13-42.1429 49.0076  13
  -3  -1  14 61.0559 36.6768   3
  -3  -1  13 69.0336 47.9355   6
  -3  -1  13 158.574 47.3222   3
  -3  -1  12 229.173 55.3914   6
  -3  -1  11 2.57914 48.8319   6
  -3  -1  11-79.6190 46.4162   3
  -3  -1  10 112.702 50.4272   6
  -3  -1  10 44.2543 41.8770   3
  -3  -1   9 305.201 50.3540   8
   3   1  -8 1369.02 145.539  10
  -3  -1   8 1349.22 147.429   8
   3   1  -7 11.8071 35.6915  10
  -3  -1   7-31.9623 49.3558  15
  -3  -1   7-16.8384 32.2999   8
   3   1  -6 63.4642 37.0103  10
  -3  -1   6 70.1588 32.4690   8
   3   1  -5 125.950 36.7252  10
  -3  -1   5 73.2814 31.0805   8
  -3  -1   5 59.3128 45.6895  15
  -3  -1   5 144.669 41.7254   2
   3   1  -4 3908.28 408.639  10
  -3  -1   4 4077.69 407.162   5
  -3  -1   4 3965.84 407.989   8
  -3  -1   4 4083.36 413.342  15
   3   1  -3 1017.37 107.819  10
  -3  -1   3 1056.14 103.580   5
  -3  -1   3 984.509 115.817  15
  -3  -1   3 1046.58 107.302   8
   3   1  -2 918.015 104.572  10
  -3  -1   2 998.500 99.7299   5
   3   1  -2 986.682 101.166   9
  -3  -1   2 1069.57 105.477   8
   3   1  -2 1003.78 101.081  12
   3   1  -1 194.343 28.0822  12
   3   1  -1 163.148 38.3977  10
  -3  -1   1 143.355 21.6023   5
   3   1  -1 216.089 43.3100  17
  -3  -1   1 178.819 35.8704   8
   3   1   0 260.395 34.3766  12
  -3  -1   0 201.895 30.5745  11
   3   1   0 231.888 39.0333  10
   3   1   0 226.049 38.4380   9
   3   1   1 72.7240 29.0144  12
  -3  -1  -1 91.8579 25.2960  11
   3   1   1 90.2388 30.5817  10
   3   1   1 56.5526 29.7357   9
  -3  -1  -2 116.527 35.2949  11
   3   1   2 31.0319 27.1528  10
   3   1   2 21.7593 30.8134   9
   3   1   3 50.3212 30.6205   9
   3   1   3 35.2895 47.1266  14
   3   1   4 100.916 34.7075   9
   3   1   4 64.5282 48.1334  14
  -3  -1  -4 146.298 41.0236  15
   3   1   5 114.974 29.8717   3
   3   1   5 113.272 36.9880   9
  -3  -1  -5 22.8073 31.9715  15
   3   1   5 111.898 40.1987  12
   3   1   5 51.7113 51.3881  14
   3   1   6 514.182 57.1343   3
   3   1   6 218.772 71.8515  14
   3   1   7 343.765 56.0334   7
   3   1   7 375.566 54.0210   3
   3   1   7 327.249 76.0213  14
   3   1   8 589.870 72.7678   3
   3   1   8 546.514 78.3177   7
   3   1   9 144.139 44.0123   3
   3   1   9 154.258 104.863  16
   3   1  10 24.6311 37.6656   3
   3   1  10-26.1304 109.052  16
   3   1  12-19.5400 99.2478  16
   3   1  12 186.029 52.9832  13
  -3  -2  14 170.327 52.2860   6
  -3  -2  14 65.4576 37.6620   3
  -3  -2  13 159.171 54.9340   6
  -3  -2  13 178.365 45.8171   3
  -3  -2  12 169.323 49.9619   3
  -3  -2  11 406.691 66.0467   3
  -3  -2  10 60.8550 54.1143   6
  -3  -2  10 152.489 47.8703   3
   3   2  -9 1360.60 145.106  10
  -3  -2   9 1298.60 144.296   8
   3   2  -8 1488.77 157.659  10
  -3  -2   8 1530.16 162.334   2
  -3  -2   8 1363.32 154.035   8
   3   2  -7 420.943 62.3456  10
  -3  -2   7 460.034 66.6784   2
  -3  -2   6 14.4482 44.0679   2
  -3  -2   5 67.3578 28.8636   8
  -3  -2   5 62.1820 51.6591  15
  -3  -2   4 494.676 61.2568   5
   3   2  -4 579.092 57.8540   9
  -3  -2   4 579.606 63.0279   8
  -3  -2   4 466.064 75.9176  15
  -3  -2   3 580.252 61.2418   5
   3   2  -3 456.713 76.1650  17
   3   2  -3 615.804 60.9513   9
  -3  -2   3 592.908 78.1551  15
   3   2  -3 468.971 54.3614  12
  -3  -2   2 2005.30 222.636   5
   3   2  -2 2253.25 224.269   9
  -3  -2   2 2185.94 225.026   8
  -3  -2   2 2634.88 233.536  15
   3   2  -1 33.9615 27.7175   9
  -3  -2   1 34.9517 21.4073   5
  -3  -2   1 80.0028 51.2084  15
   3   2  -1 9.20193 10.9608  12
  -3  -2   0 99.7634 25.9041   5
   3   2   0 148.848 36.6995   9
  -3  -2   0 90.5794 54.2247  15
   3   2   0 143.184 22.9223  12
  -3  -2  -1 400.015 44.9653   5
   3   2   1 347.300 51.1584  10
   3   2   1 273.861 50.3692   9
   3   2   2 214.778 45.3154   9
  -3  -2  -2 268.938 56.3328  15
  -3  -2  -3 44.3917 40.7119  11
   3   2   3 6.88056 47.3177  14
   3   2   3 6.59651 29.4539  10
   3   2   3 39.9396 37.6727   9
   3   2   4 556.062 62.2539  10
   3   2   4 514.933 70.5376   9
   3   2   4 486.991 75.4820  14
   3   2   5 293.713 40.3228   3
   3   2   5 284.175 51.6020   9
   3   2   6 204.815 37.2221   3
   3   2   6 97.2740 49.8433   9
   3   2   6 133.728 57.7717  14
   3   2   7 174.924 37.2678   3
   3   2   7 119.943 63.5923  14
   3   2   8 484.121 66.0065   3
   3   2   9 21.7462 38.7978   3
   3   2  10 243.913 114.397  16
   3   2  11-68.8593 96.9297  16
   3   2  11-5.03826 46.0723  13
  -3  -3  13-54.7179 53.5407   6
  -3  -3  12-19.1704 59.3311   6
  -3  -3  12-21.2236 34.6462   3
  -3  -3  11 278.047 65.4512   6
  -3  -3  11 266.008 49.0307   3
   3   3 -10 25.6318 40.2803  10
  -3  -3  10 1.92168 36.2985   3
   3   3  -9 584.570 84.3436  10
  -3  -3   9 666.303 84.1563   5
  -3  -3   9 811.022 95.9691   2
  -3  -3   9 635.976 77.0157   8
  -3  -3   8 100.716 32.8561   8
  -3  -3   8 70.9004 49.2472   2
  -3  -3   7 394.072 51.8221   8
  -3  -3   7 373.787 65.3636   2
  -3  -3   6 672.129 84.8950   2
  -3  -3   6 581.603 70.0931   8
  -3  -3   5 311.698 41.1061   8
   3   3  -5 181.912 56.6656  17
  -3  -3   4 391.087 51.5590   5
  -3  -3   4 331.379 49.0044   8
   3   3  -4 356.063 60.7850  17
  -3  -3   3 1079.36 117.273   5
  -3  -3   2 97.2855 32.7086   5
  -3  -3   1 1013.79 111.873  11
  -3  -3   1 1017.04 110.319   5
  -3  -3   0 2667.29 305.292  11
  -3  -3   0 3281.69 305.693   5
  -3  -3  -1 20.9441 34.1888  11
  -3  -3  -1-9.28494 32.1987   5
  -3  -3  -2-5.03585 36.3749  11
   3   3   2 1.50360 36.3228  10
   3   3   2 5.55404 38.3417   9
  -3  -3  -3 439.087 72.6122  11
   3   3   3 571.535 66.3939  10
   3   3   3 550.954 74.9298   9
   3   3   3 484.849 78.1218  14
  -3  -3  -4 122.993 46.3665  11
   3   3   4 71.9007 27.4695  10
   3   3   4 110.895 49.9078   9
   3   3   4 114.787 50.2477  14
  -3  -3  -5 194.928 59.0697  11
   3   3   5 328.754 59.1604   9
   3   3   5 172.519 56.3900  14
  -3  -3  -6-70.9408 59.7760  11
   3   3   6 24.4790 30.9949   3
   3   3   6 17.2098 51.1604   9
  -3  -3  -7 152.202 75.1425  11
   3   3   7 316.003 47.3916   3
   3   3   7 234.127 61.9631   9
   3   3   7 115.380 67.2857  14
  -3  -3  -8 304.392 79.9756  11
  -3  -3  -9 149.289 67.2343  11
  -3  -3 -10 12.3467 54.9275  11
  -3  -4  14 13.7370 48.0277   6
  -3  -4  13 30.8951 54.5656   6
  -3  -4  12 12.9718 57.0508   6
   3   4 -11 18.5778 40.6742  10
  -3  -4  10 535.638 81.8274   5
  -3  -4  10 673.262 95.3546   2
  -3  -4   9-20.6247 58.6854   2
  -3  -4   8-8.75721 23.5645   8
   3   4  -8 4.59771 49.9866  17
  -3  -4   8 2.66471 52.0208   2
  -3  -4   7 345.845 65.6688   2
  -3  -4   7 312.670 40.8686   8
  -3  -4   6 358.130 66.1163   2
  -3  -4   6 409.301 45.1866   8
  -3  -4   5 572.967 66.3732   8
  -3  -4   4 315.192 47.2742   8
  -3  -4   4 446.494 57.4477   5
  -3  -4   3 239.422 48.1581   5
  -3  -4   3 232.727 39.3417   8
  -3  -4   2 417.377 60.2464   5
  -3  -4   1 186.707 31.2176   4
  -3  -4   1 116.862 41.5958  11
  -3  -4   1 134.720 43.0265   5
  -3  -4   0 17.0042 21.4547   4
  -3  -4   0 7.44014 41.5008  11
  -3  -4   0-9.31851 41.3153   5
  -3  -4  -1 15.7130 43.4222  11
  -3  -4  -1-21.0211 42.1100   5
  -3  -4  -2 85.7851 46.0454  11
   3   4   2 195.200 48.6213   9
  -3  -4  -3 331.202 64.9568  11
   3   4   3 441.961 57.4213  10
   3   4   3 462.828 73.7708   9
   3   4   3 369.422 70.6678  14
  -3  -4  -4 33.2811 46.2157  11
   3   4   4 84.7191 54.6172   9
  -3  -4  -5 185.917 61.1431  11
   3   4   5 101.164 59.2515  14
   3   4   5 159.400 61.6635   9
  -3  -4  -6 210.432 64.9006  11
   3   4   6 66.9149 56.7409   9
   3   4   6 8.18075 60.4940  14
  -3  -4  -7 170.400 69.2380  11
   3   4   7 292.577 66.2577   9
  -3  -4  -8-6.25043 56.2292  11
  -3  -4  -9 106.484 53.7969  11
  -3  -5  13 38.7546 51.6921   6
  -3  -5  12-25.5388 56.5648   6
  -3  -5  10 111.562 64.7968   2
  -3  -5   9 9.60061 60.2844   2
  -3  -5   8 118.104 62.8496   2
  -3  -5   7 122.828 62.1193   2
  -3  -5   6 201.585 62.8829   2
  -3  -5   4 158.426 49.5425   5
  -3  -5   4 62.0526 28.8082   8
  -3  -5   3 234.680 55.2456   5
  -3  -5   3 224.366 40.2477   8
  -3  -5   2 789.507 93.1527   5
  -3  -5   2 708.005 83.8010   8
  -3  -5   2 702.566 82.9641   4
  -3  -5   1-45.1789 27.5365   4
  -3  -5   1 14.4707 47.0435   5
  -3  -5   0 35.5207 24.8042   4
  -3  -5   0 2.44913 43.7313  11
  -3  -5   0 41.5120 46.9619   5
  -3  -5  -1 32.2756 43.8691  11
  -3  -5  -1 63.3494 45.3115   5
  -3  -5  -2 302.561 62.3816  11
  -3  -5  -2 294.699 59.1336   5
   3   5   2 324.288 65.8525   9
   3   5   2 283.433 72.7219  14
   3   5   3 203.412 64.5892  14
  -3  -5  -3 285.202 64.0325  11
  -3  -5  -3 384.248 60.1556   5
   3   5   3 231.631 44.3621  10
   3   5   3 315.236 67.4450   9
  -3  -5  -4-67.0220 56.0474  11
   3   5   4-28.8599 55.2244   9
   3   5   4 94.8947 55.8785  14
  -3  -5  -5-3.08401 56.6112  11
   3   5   5-38.5345 58.7331   9
   3   5   5-21.0987 56.8534  14
  -3  -5  -6 119.294 62.7441  11
   3   5   6 159.308 59.9312   9
   3   5   6 86.6621 60.8672  14
  -3  -5  -7 314.004 66.5525  11
   3   5   7 297.054 61.6206   9
  -3  -5  -8 13.0129 48.5954  11
  -3  -6  12 18.7165 54.3272   6
  -3  -6  10-17.9124 66.2002   2
  -3  -6   9 77.5929 68.4266   2
  -3  -6   8 96.6703 66.6128   2
  -3  -6   7 97.2196 66.5595   2
  -3  -6   6 371.534 86.0933   2
  -3  -6   6 398.608 73.5090   5
  -3  -6   5 89.5231 55.8563   5
  -3  -6   4 33.8296 55.0932   5
  -3  -6   3 63.7963 53.4017   5
  -3  -6   2 251.897 63.5384   5
  -3  -6   1 46.2325 49.7613   5
  -3  -6   1-19.4148 34.0936   8
  -3  -6   0 327.718 66.1465   5
  -3  -6  -1 50.6960 53.1362  11
  -3  -6  -1 28.1606 49.8152   5
   3   6   1 43.9324 66.3285  14
  -3  -6  -2 239.908 62.5217  11
  -3  -6  -2 176.218 52.8681   5
   3   6   2 164.025 60.2186   9
   3   6   2 119.907 59.0210  14
  -3  -6  -3-3.05253 53.2746  11
  -3  -6  -3 56.7188 49.8179   5
   3   6   3-38.8000 56.5770   9
   3   6   3 4.80465 53.5001  14
   3   6   4-2.36353 51.8638  14
  -3  -6  -4 46.2503 55.0966  11
  -3  -6  -4 66.8684 50.4526   5
   3   6   4 104.897 56.9979   9
  -3  -6  -5 33.2460 55.2777  11
  -3  -6  -5 2.59247 46.0512   5
   3   6   5 32.6267 49.6595   9
  -3  -6  -6 72.2277 55.3158  11
   3   6   6 226.579 50.8279   9
  -3  -7  10 24.9607 64.7934   2
  -3  -7  10 5.74065 47.8942   5
  -3  -7   9 71.9167 65.9925   2
  -3  -7   9 51.9407 52.1776   5
  -3  -7   8 286.929 66.4318   5
  -3  -7   8 310.395 77.6092   2
  -3  -7   7 206.408 75.9558   2
  -3  -7   7 255.958 65.7673   5
  -3  -7   6 3.33558 55.8782   5
  -3  -7   5 137.782 62.1711   5
  -3  -7   4 448.940 79.8438   5
  -3  -7   3 194.577 63.3490   5
  -3  -7   2 122.241 57.4425   5
  -3  -7   1 87.3736 54.3822   5
   3   7   0 63.6491 56.5593   9
  -3  -7   0 134.437 54.6405   5
   3   7   0 93.3972 63.7403  14
   3   7   1 48.2231 51.9304  14
   3   7   1-19.1246 56.9036   9
  -3  -7  -1 37.0241 47.8425   5
   3   7   2 63.3937 54.2240   9
  -3  -7  -2 74.3626 49.9187   5
   3   7   3 45.7803 52.1946   9
  -3  -8   6-8.68451 49.1640   5
  -3  -8   6-100.587 57.4276   2
  -3  -8   5 94.4864 51.4913   5
  -3  -8   5 73.7284 55.0857   2
  -3  -8   4 180.621 55.7323   5
  -3  -8   4 144.148 59.9634   2
  -3  -8   3-30.6290 55.3749   2
  -3  -8   3 11.3565 48.3703   5
  -3  -8   2-82.8679 51.3461   5
   3   8  -1 20.2107 50.5583   9
   4  -7  -3 71.6348 47.9229   1
   4  -7  -2-32.7353 43.4779  12
   4  -7  -1 71.6754 46.8751  12
   4  -7  -1 130.749 48.6319   5
   4  -7   0 106.396 47.4458  12
   4  -7   0-2.64181 45.6449   5
   4  -7   1-7.31564 50.0908  12
   4  -7   1 30.1749 48.5067   5
   4  -7   2 65.3430 53.3594  12
   4  -7   2 124.868 53.7065   5
   4  -7   3 275.838 66.7452  12
   4  -7   3 266.622 62.6260   5
   4  -7   4 90.1680 56.5426  12
   4  -7   4-5.73729 48.8680   5
   4  -7   4-56.2696 52.0874   4
   4  -7   5 14.5305 56.1395  12
   4  -7   5-22.1019 46.8755   5
   4  -7   6 454.703 75.8200   4
   4  -7   7 87.0291 48.7862   4
   4  -7   8 213.160 49.4913   4
   4  -6  -5 202.217 56.6567   5
   4  -6  -5 375.194 63.2602   1
   4  -6  -4 200.090 53.8792   1
   4  -6  -4 134.959 52.7318   5
   4  -6  -3 148.608 50.4312   1
   4  -6  -3 53.4563 48.8707   5
   4  -6  -2-18.8384 47.7839   5
   4  -6  -2-13.3259 47.2625   1
   4  -6  -1 21.8923 48.8588   5
   4  -6  -1 74.6128 49.2841   1
   4  -6   0 43.0909 49.2897   1
   4  -6   0 41.7002 49.8886   5
   4  -6   1 649.064 91.0318   5
   4  -6   2 25.4085 51.9068   5
   4  -6   3 2.79550 50.4801   5
   4  -6   4 275.154 61.1200   5
   4  -6   5 345.654 63.8983   5
   4  -6   5 409.397 75.7506  12
   4  -6   6 40.7790 59.7927  12
   4  -6   6 122.046 46.1957   5
   4  -6   6 176.904 48.6307   4
   4  -6   7 228.074 63.7031  12
   4  -6   7 271.594 52.9343   4
   4  -6   8 2.16012 36.3196   4
   4  -6   8-47.4289 52.9235  12
   4  -6   9-27.2044 52.6748  12
   4  -6  10-53.5091 51.6275  12
   4  -5  -7-23.2310 49.9434   1
   4  -5  -7-24.4924 55.1445  12
  -4   5   7 11.8408 35.2449   3
   4  -5  -6 103.347 53.0691   1
   4  -5  -6-2.78788 56.9703  12
  -4   5   6 65.5305 37.2822   3
   4  -5  -5-5.73168 50.0805   1
   4  -5  -5 63.9106 56.1425  12
  -4   5   5-12.3817 36.8089   3
   4  -5  -4 310.813 59.2513   1
   4  -5  -4 147.481 60.3056  12
  -4   5   4 148.364 44.4446   3
   4  -5  -3-64.1186 56.0262  12
   4  -5  -3 52.9677 46.2480   1
  -4   5   3 37.8069 36.8737   3
   4  -5  -2-81.1868 56.2678  12
   4  -5  -2 16.6902 42.3230   1
   4  -5  -1 38.6278 53.3684  12
   4  -5  -1 59.4260 47.7478   5
   4  -5  -1 92.3721 42.5501   1
   4  -5   0 483.866 84.8019  12
   4  -5   0 633.192 83.4438   5
   4  -5   0 652.137 82.0291   1
   4  -5   1 2.44121 51.0721  12
   4  -5   1 14.3652 43.2858   5
   4  -5   1-18.6619 44.9144   1
   4  -5   2 2.42075 51.1812  12
   4  -5   2 86.1694 42.8509   1
   4  -5   2 115.094 44.7165   5
   4  -5   3 21.8588 48.5102  12
   4  -5   3 27.9350 40.7362   5
   4  -5   4 132.640 58.9753  12
   4  -5   4 275.823 48.6319   5
   4  -5   5-30.9840 53.0894  12
   4  -5   5 59.3970 37.2334   5
   4  -5   5 61.3306 36.7009   4
   4  -5   6 127.893 55.2724  12
   4  -5   6 139.106 40.4316   5
   4  -5   6 126.586 42.4119   4
   4  -5   7 23.7173 50.8488  12
   4  -5   7-21.4150 34.6796   4
   4  -5   7 1.92350 34.9882   5
   4  -5   7 2.30031 45.8355  13
   4  -5   8 149.853 54.3564  12
   4  -5   8 42.5259 33.9702   4
   4  -5   8 152.176 56.6182  13
   4  -5   9-17.0933 56.3908  13
   4  -5  10 35.3862 57.3131  13
   4  -5  11-43.0669 52.0613  12
  -4   4   9 37.7010 42.5095   3
  -4   4   8 174.235 52.4015   3
  -4   4   7 100.508 47.8372   3
  -4   4   6 115.864 50.7832   3
   4  -4  -6 11.3586 56.2576  17
   4  -4  -5 10.4865 52.6653  17
   4  -4  -4 145.896 51.6154  17
   4  -4  -3 317.558 72.0552  12
  -4   4   3 424.609 59.2436   8
   4  -4  -2-42.6220 55.3647  12
   4  -4  -2 6.23211 39.6937   1
  -4   4   2-26.9011 36.0439   8
   4  -4  -1 49.0743 38.1648   1
   4  -4  -1-2.44606 50.2847  12
  -4   4   1-16.5666 31.8292   8
   4  -4   0 697.562 85.8064   5
   4  -4   0 703.392 84.2733   1
  -4   4   0 613.383 78.7866   8
   4  -4   0 852.600 94.3637  12
  -4   4  -1 78.2487 28.6391   8
   4  -4   1 14.7990 45.1633  12
   4  -4   1 37.2627 35.6111   5
   4  -4   1 135.168 37.2849   1
   4  -4   2-16.1438 43.4706  12
   4  -4   2-16.8048 32.0228   5
  -4   4  -2 23.8927 24.1361   8
   4  -4   3 82.1153 45.0290  12
   4  -4   3 62.0002 31.7063   5
   4  -4   3 39.7325 25.5899  13
   4  -4   4 174.404 48.6727  12
   4  -4   4 116.453 33.9273   5
   4  -4   4 108.814 34.4501  13
   4  -4   5-9.00035 44.9474  12
   4  -4   5 7.36390 29.7136   5
   4  -4   5 67.0853 36.8862  13
   4  -4   5 29.7373 30.5580   4
   4  -4   6-50.6053 31.0154   4
   4  -4   6-2.36301 48.9840  12
   4  -4   6-33.5034 29.1262   5
   4  -4   6 6.13409 42.5298  13
   4  -4   7 176.885 51.8806  12
   4  -4   7 140.017 34.5592   4
   4  -4   7 147.628 35.2710   5
   4  -4   7 179.611 53.1090  13
   4  -4   8 409.500 69.3319  12
   4  -4   8 374.533 71.2551  13
   4  -4   9-11.8116 58.1289  13
   4  -4   9-2.72972 52.1654  12
   4  -4  10 135.723 56.0175  12
   4  -4  11 112.665 56.5283  12
   4  -3 -10 111.816 71.3173  17
  -4   3  10 324.069 57.1909   3
   4  -3  -9-14.3371 71.0546  17
  -4   3   9 275.887 57.3399   3
  -4   3   8 59.1358 51.4910   3
   4  -3  -8-14.1351 67.6707  17
   4  -3  -7 77.6070 69.3399  17
   4  -3  -6 164.137 69.2886  17
  -4   3   6 242.781 53.9019   8
   4  -3  -5-20.5475 61.6329  17
  -4   3   5-28.7197 45.8275   8
   4  -3  -4-8.33512 60.5272  17
  -4   3   4-16.0114 41.7025   8
   4  -3  -2 1380.79 155.945  12
   4  -3  -1 495.762 77.3824  12
  -4   3   1 514.409 65.3744   8
   4  -3   0 50.8425 45.2627  12
   4  -3   0 43.6065 28.7776   5
  -4   3   0 12.8421 32.5534   8
   4  -3   0 27.1613 33.4882   1
   4  -3   1 1107.90 122.750   5
  -4   3  -1 1199.50 124.533   8
   4  -3   1 1195.91 130.001  12
   4  -3   2 69.8936 38.8079  12
   4  -3   2 21.9624 22.5698   5
   4  -3   2-8.52104 29.0098   1
  -4   3  -2-7.69563 28.3752   8
   4  -3   2 56.6004 23.3213  13
   4  -3   3 42.1445 38.8531  12
  -4   3  -3 105.540 29.1783   8
   4  -3   3 108.370 25.2501   5
   4  -3   3 38.3159 29.2262  13
   4  -3   4 1.86999 40.6596  12
   4  -3   4-6.72415 21.2710   5
   4  -3   4-61.9701 97.9970  16
  -4   3  -4 32.4897 27.9261   8
   4  -3   4-13.5802 35.8746  13
   4  -3   5 135.299 49.0744  12
   4  -3   5 152.845 100.434  16
  -4   3  -5 192.092 33.2051   8
   4  -3   5 86.7382 26.3887   5
   4  -3   5 75.2833 41.4701  13
   4  -3   5 94.1711 29.1183   4
   4  -3   6 505.919 71.9946  12
   4  -3   6 417.524 54.0031   5
  -4   3  -6 502.655 57.2992   8
   4  -3   6 408.200 55.0269   4
   4  -3   7 89.7960 49.3773  12
   4  -3   7 87.7385 112.294  16
   4  -3   8 674.813 153.213  16
   4  -3   8 834.326 104.456  13
   4  -3   8 740.589 101.785  12
   4  -3   9-127.945 121.563  16
   4  -3   9-27.4842 57.0658  13
   4  -3   9 48.0269 54.7449  12
   4  -3  10 477.641 134.997  16
   4  -3  10 487.391 84.3496  13
   4  -3  10 324.272 76.2326  12
   4  -3  11-11.1454 117.229  16
   4  -3  11 70.9949 63.5214  13
   4  -3  12 112.859 114.544  16
   4  -3  12 115.740 69.8491  13
  -4   2  11 32.1883 44.6534   3
   4  -2 -11 82.0527 75.2868  17
  -4   2  10 413.962 71.5969   3
  -4   2   9 35.6211 51.1765   3
   4  -2  -7 23.7409 69.9251  17
  -4   2   7 6.26621 38.4708  15
  -4   2   7 19.4204 45.1747   8
   4  -2  -6 193.380 75.1505  17
  -4   2   6 389.134 61.6179   8
  -4   2   5 14.3115 43.5143   8
   4  -2  -5-2.82194 59.4182  17
   4  -2  -4 46.0859 60.6164  17
  -4   2   4-9.10872 41.5749   8
  -4   2   3 403.835 54.2923   8
   4  -2  -3 181.711 72.8926  17
  -4   2   2 1805.93 182.400   8
   4  -2  -2 2106.68 187.215  12
   4  -2  -1 25.7252 43.1176  12
  -4   2   1-19.5074 31.9301   8
   4  -2   0 30.0162 37.4302  12
   4  -2   0-2.93871 17.3100   5
  -4   2   0 18.4714 32.9896   8
   4  -2   1 9.31860 34.5317  12
   4  -2   1-23.3118 24.2025   1
   4  -2   1 6.40754 11.9344   5
  -4   2  -2 683.382 68.7729   8
   4  -2   2 490.002 61.9105   1
   4  -2   2 633.248 104.914  16
   4  -2   2 548.091 71.0161  12
   4  -2   3 789.759 124.688  16
  -4   2  -3 810.884 87.9644   8
   4  -2   3 691.065 90.6604  12
   4  -2   4 48.3245 42.9764  12
  -4   2  -4 71.1041 32.6471   8
   4  -2   4-10.9078 92.4643  16
   4  -2   4 57.9472 21.2247   4
   4  -2   5-17.7340 41.7101  12
   4  -2   5 15.0028 18.0755   4
  -4   2  -5-21.7592 31.3004   8
   4  -2   5 75.1080 92.7827  16
   4  -2   6 968.817 156.806  16
   4  -2   6 1092.15 123.753  12
   4  -2   7-27.0824 100.675  16
   4  -2   7 2.34714 49.2840  12
   4  -2   8 180.950 103.990  16
   4  -2   8 180.256 57.1691  12
   4  -2   9 70.6454 105.731  16
   4  -2   9 54.5483 57.9026  12
   4  -2  10 196.492 118.435  16
   4  -2  10 314.873 81.6282  13
   4  -2  11 71.3017 116.004  16
   4  -2  11 91.2271 70.4987  13
   4  -2  12 38.4403 112.782  16
   4  -2  12 3.71266 68.5128  13
   4  -2  13 122.248 66.8716  13
  -4   1  12 53.5966 43.3395   3
   4  -1 -12-35.7891 78.7319  17
  -4   1  11 169.241 52.5608   3
  -4   1  10 208.683 56.5911   3
  -4   1   9-12.2968 46.0785   8
  -4   1   8 36.1270 40.7968  15
  -4   1   8 18.7770 44.7452   8
  -4   1   7 517.299 60.3284   6
  -4   1   7 649.638 74.1414   8
  -4   1   6 69.4292 27.4365   6
  -4   1   6 71.8484 43.5998   8
  -4   1   5 411.726 50.1031   6
   4  -1  -5 318.117 78.0455  17
  -4   1   5 387.395 60.1491   8
   4  -1  -4 136.173 60.7748  17
  -4   1   4 250.078 44.9665   8
  -4   1   3 21.5491 22.2717   2
  -4   1   3-17.0628 34.0772   8
   4  -1  -3-2.45950 59.5021  17
  -4   1   2 2376.05 236.065   2
  -4   1   2 2668.56 241.280   8
   4  -1  -2 2255.81 236.716  14
   4  -1  -2 2666.98 242.063  12
   4  -1  -1 70.5941 36.1999  12
  -4   1   1 83.0660 33.9546   8
   4  -1  -1 53.1899 54.9060  17
   4  -1  -1 24.7216 28.1397  14
   4  -1   0 19.3164 31.5008  14
   4  -1   0 104.094 36.3748  12
  -4   1   0 70.2667 38.1823   8
   4  -1   1 1141.34 125.654   1
  -4   1  -1 1293.22 132.464   8
   4  -1   1 1365.41 131.756  12
  -4   1  -2 3372.58 342.652   8
   4  -1   2 2882.56 354.031  16
   4  -1   2 3487.81 343.253  12
   4  -1   3 21.2569 38.8874  12
   4  -1   3 17.2951 80.3741  16
   4  -1   3 31.8291 45.6423  14
   4  -1   3 10.2221 10.7947   4
   4  -1   4 609.335 112.359  16
   4  -1   4 656.565 91.7920  14
   4  -1   4 697.654 83.8914  12
   4  -1   5 230.842 51.2428  12
   4  -1   5 241.762 87.3023  16
   4  -1   6 698.020 133.152  16
   4  -1   6 902.937 103.912  12
   4  -1   7 83.9088 92.1900  16
   4  -1   7 37.9426 45.3377  12
   4  -1   8-121.028 89.0386  16
   4  -1   8 12.6916 48.0639  12
   4  -1   9 149.873 105.294  16
   4  -1  10 55.1953 106.921  16
   4  -1  11 53.7109 113.086  16
   4  -1  11-7.41491 68.8103  13
   4  -1  12-87.1829 111.078  16
   4  -1  12-3.46149 64.2857  13
  -4   0  13 268.526 50.8191   3
  -4   0  12 91.5270 44.3351   3
  -4   0  11 16.3045 46.3202   3
  -4   0  10 190.997 47.8398   6
  -4   0   9 293.541 51.4405   6
  -4   0   9 273.646 56.4702   8
  -4   0   8 510.846 72.2951   6
  -4   0   8 423.785 81.5764  15
  -4   0   7 567.304 75.1756   6
  -4   0   7 714.952 79.5089   8
  -4   0   7 444.664 88.7063  15
  -4   0   6 570.081 74.1312   8
  -4   0   5-42.3342 36.6407   2
  -4   0   5-33.5137 35.1826   8
   4   0  -5-14.4351 51.3524  17
  -4   0   4 906.799 87.1656   2
   4   0  -4 831.327 89.4815  10
  -4   0   4 771.946 87.9694   8
   4   0  -3 21.5793 36.8937  10
  -4   0   3 20.5734 34.1812   8
   4   0  -3-24.6111 55.5199  17
   4   0  -2 757.500 78.6471  10
  -4   0   2 733.500 78.8771   8
   4   0  -1 240.231 51.2118  10
  -4   0   1 284.903 54.6801   8
   4   0   0 330.325 47.4041  10
   4   0   0 217.004 70.9292  16
  -4   0   0 298.874 50.2806   8
   4   0   1 1068.79 112.632   1
   4   0   1 1870.68 128.788  14
   4   0   2 366.004 54.8778  12
  -4   0  -2 342.376 40.0807  11
   4   0   2 408.291 83.3116  16
   4   0   2 361.935 60.9655  14
   4   0   3 175.812 44.2806  12
  -4   0  -3 215.711 40.4643  11
   4   0   3 185.130 74.9802  16
   4   0   3 210.387 53.9613  14
   4   0   4 36.5099 38.0081  12
   4   0   4-81.9768 72.8902  16
   4   0   4-26.1248 52.5897  14
   4   0   5 81.9547 74.0999  16
   4   0   5 71.2528 63.6222  14
   4   0   5 112.641 40.6778  12
   4   0   6 70.2496 76.7710  16
   4   0   6 125.745 72.3768  14
   4   0   6 13.7688 42.0429  12
   4   0   7 78.4598 86.1697  16
   4   0   7 226.848 53.4379  12
   4   0   8-78.8722 99.1396  16
   4   0   9 9.70993 102.036  16
   4   0  10 73.2410 107.383  16
   4   0  11 107.847 112.408  16
   4   0  12 23.8566 54.8147  13
  -4  -1  13-6.76215 38.4565   3
  -4  -1  12 299.749 56.5515   6
  -4  -1  11 49.7119 47.2398   6
  -4  -1  11 143.182 47.9739   3
  -4  -1  10-24.1119 46.2380   6
  -4  -1   9 25.4014 44.8513   6
  -4  -1   9 20.0995 38.8890   8
   4   1  -8 958.995 108.862  10
  -4  -1   8 919.115 108.039   8
   4   1  -7 857.218 99.1155  10
  -4  -1   7 871.301 101.264   2
  -4  -1   7 774.993 96.7432   8
  -4  -1   6 573.811 67.4073   2
  -4  -1   6 417.186 60.8465   8
  -4  -1   5 207.457 67.0399  15
   4   1  -5 254.743 46.4387  10
  -4  -1   5 213.991 47.8935   2
  -4  -1   5 210.980 40.5732   8
   4   1  -4 112.945 30.1926  12
   4   1  -4 40.2808 35.3778  10
   4   1  -4-22.4380 57.9284  17
  -4  -1   4 61.9391 33.8179   8
  -4  -1   4 33.2440 55.3544  15
   4   1  -3 2.09620 53.4538  17
   4   1  -3 33.2514 27.0961  12
   4   1  -3-2.93652 36.0538  10
  -4  -1   3 8.50756 33.0003   8
   4   1  -2 362.139 65.8854  10
  -4  -1   2 435.730 67.6678   8
   4   1  -2 994.062 82.5699  17
   4   1  -2 917.792 73.3022  16
   4   1  -2 366.376 58.6919  12
   4   1  -1 1208.53 136.965  10
  -4  -1   1 1190.15 136.493   8
   4   1  -1 1339.21 132.982  12
   4   1   0 1203.41 138.516  10
   4   1   0 1349.89 136.555  12
  -4  -1  -1 288.585 43.4042  11
   4   1   1 396.682 50.5448  10
   4   1   1 398.661 48.7753  12
   4   1   2 155.226 36.8045  12
  -4  -1  -2 139.814 34.2736  11
   4   1   2 221.081 37.7528  10
   4   1   2 120.079 57.3698  14
  -4  -1  -3 69.6993 37.5522  11
   4   1   3 83.0813 50.3928  14
   4   1   3 85.4277 33.1689  12
   4   1   4 83.4029 55.7505  14
  -4  -1  -4 98.5757 48.2134  11
  -4  -1  -4 77.8327 40.0272  15
   4   1   4 130.003 40.4283  12
   4   1   5 294.235 65.9698  14
   4   1   5 347.381 51.6565  12
   4   1   6 65.2452 65.1547  14
   4   1   7-118.029 73.7928  14
   4   1   8 68.3750 100.627  16
   4   1   9 373.834 120.833  16
   4   1  10 151.294 118.635  16
   4   1  11 81.3324 111.124  16
  -4  -2  13 97.2127 46.1069   6
  -4  -2  13 12.8256 38.9174   3
  -4  -2  12 168.318 55.5097   6
  -4  -2  12 206.360 48.1442   3
  -4  -2  11-17.2236 51.2629   6
  -4  -2  11 7.45684 43.7737   3
  -4  -2  10 89.9574 54.2862   6
  -4  -2  10 134.385 40.3020   8
   4   2  -9 32.4805 41.1339  10
  -4  -2   9-22.0457 34.8357   8
   4   2  -8 1036.13 121.307  10
   4   2  -7 1037.66 93.6322  10
   4   2  -7 335.307 97.6086  17
   4   2  -6 49.2153 41.6740  10
   4   2  -6 15.2993 57.3731  17
  -4  -2   6 81.9475 33.9085   8
  -4  -2   6 50.6468 62.3662  15
  -4  -2   6 41.1624 48.5658   2
   4   2  -5 503.616 67.1246  10
  -4  -2   5 555.307 56.1331   5
  -4  -2   5 445.826 60.4294   8
  -4  -2   5 357.565 81.4476  15
   4   2  -5 457.570 52.6739  12
  -4  -2   4 289.141 46.5744   8
  -4  -2   4 279.458 38.1308   5
   4   2  -4 262.663 51.5647  10
   4   2  -4 110.472 63.7593  17
  -4  -2   4 201.553 66.3708  15
   4   2  -4 270.226 32.7757  12
   4   2  -3-2.92134 14.6766  12
   4   2  -3 27.8223 39.9964  10
   4   2  -3 94.4032 28.0087   9
  -4  -2   3 35.7600 35.9622   8
   4   2  -3 116.509 52.8966  17
  -4  -2   3 92.4744 64.6982  15
  -4  -2   3 21.5923 19.5512   5
   4   2  -2 309.153 48.0825  10
   4   2  -2 288.122 38.7702   9
  -4  -2   2 208.266 30.2778   5
  -4  -2   2 257.130 66.5866  15
  -4  -2   2 283.546 45.5620   8
   4   2  -2 202.403 28.0319  12
   4   2  -1-12.9832 35.7955  10
   4   2  -1-7.41491 28.5700   9
  -4  -2   1-24.1327 34.9034   8
  -4  -2   1-11.6336 13.5514   5
  -4  -2   1-15.0826 55.5753  15
   4   2  -1 7.79658 17.1763  12
  -4  -2   0 3848.41 396.378  11
   4   2   0 4252.26 399.562  10
   4   2   0 4070.56 398.342   9
  -4  -2   0 3493.18 404.121  15
   4   2   0 3796.60 394.000  12
  -4  -2  -1 42.8874 31.3631  11
   4   2   1 47.2008 37.6927  10
   4   2   1 6.24898 35.7264   9
   4   2   1 36.1855 25.0968  12
  -4  -2  -2 31.0923 35.0491  11
   4   2   2 20.8010 38.1444   9
  -4  -2  -2-16.1151 53.4755  15
  -4  -2  -3-14.0551 41.6515  11
   4   2   3 21.9676 31.7622  10
   4   2   3 17.2838 38.9507   9
  -4  -2  -3-53.7364 50.7332  15
   4   2   3 2.12853 53.4853  14
  -4  -2  -4 280.650 58.8673  11
   4   2   4 444.998 61.3707   9
   4   2   4 294.332 66.1015  14
  -4  -2  -5 55.4313 53.5645  11
   4   2   5 73.2779 43.3253   9
   4   2   5 97.2013 58.3295  14
  -4  -2  -6-38.9062 57.7384  11
   4   2   6-113.350 64.9928  14
  -4  -2  -7 107.999 66.0600  11
   4   2   7-15.6405 70.4366  14
  -4  -2  -8 158.835 71.9825  11
  -4  -2  -9-68.7582 65.5495  11
   4   2   9 46.8661 118.898  16
  -4  -2 -10 53.9195 57.5550  11
   4   2  10-169.714 115.957  16
  -4  -3  13 58.6980 50.7604   6
   4   3 -13 73.7298 67.7612  17
  -4  -3  12 21.8134 56.0225   6
  -4  -3  12 54.7033 37.1926   3
   4   3 -12 32.7775 68.4244  17
  -4  -3  11 140.873 42.4057   3
   4   3 -11-7.26222 71.9440  17
  -4  -3  10 32.6756 40.6303   3
   4   3 -10-79.4905 45.2748  10
   4   3 -10 49.0728 68.2206  17
  -4  -3  10-8.71153 34.9791   8
  -4  -3   9 36.7089 59.7669   2
   4   3  -9 120.502 50.2583  10
   4   3  -9-32.9666 69.6111  17
  -4  -3   9 50.9499 34.3906   8
   4   3  -8 137.695 55.1256  10
   4   3  -8 76.2235 67.6314  17
  -4  -3   8 185.786 40.4919   8
  -4  -3   8 218.635 61.1375   2
  -4  -3   7 18.1728 53.8953   2
   4   3  -7-4.89010 47.0598  10
   4   3  -7-47.8204 61.3427  17
  -4  -3   7-13.4396 31.3483   8
  -4  -3   7-31.1714 33.5689   5
   4   3  -6-20.9370 59.2506  17
   4   3  -6 35.7989 47.6062  10
  -4  -3   6 42.5895 50.6150   2
  -4  -3   6 36.7449 30.5241   8
  -4  -3   6 6.19145 31.8655   5
  -4  -3   5 32.3344 32.0851   8
   4   3  -5 2.35013 51.9561  17
  -4  -3   5 62.2598 29.1217   5
   4   3  -4 95.7993 31.4391   9
  -4  -3   4 109.555 30.4899   5
   4   3  -3 76.6001 34.2888   9
  -4  -3   3 57.1910 27.1189   5
   4   3  -2 11.1628 36.7180   9
  -4  -3   2-7.45082 33.4756   8
  -4  -3   2-2.06402 24.0111   5
  -4  -3   2 19.5863 68.2933  15
   4   3  -1 9.96299 40.4708  10
  -4  -3   1 34.4266 24.4654   5
  -4  -3   0 574.160 70.8136  11
  -4  -3   0 499.251 61.9847   5
   4   3   0 517.887 72.5115  10
   4   3   0 595.310 74.7033   9
  -4  -3  -1 278.488 50.4938  11
  -4  -3  -1 285.438 40.8837   5
   4   3   1 302.421 55.6781   9
  -4  -3  -2-33.9019 41.1239  11
   4   3   2-34.3701 40.4533  10
  -4  -3  -2 14.3288 28.1069   5
   4   3   2 46.9016 42.3025   9
  -4  -3  -3 187.389 53.8549  11
  -4  -3  -3 308.740 43.1456   5
   4   3   3 281.985 48.0853  10
   4   3   3 293.217 58.6408   9
   4   3   3 156.920 63.4983  14
  -4  -3  -4 323.816 62.9866  11
   4   3   4 325.129 47.4820  10
   4   3   4 164.462 66.6970  14
  -4  -3  -5-53.2172 51.8403  11
   4   3   5-26.3915 49.3013   9
   4   3   5-48.7684 58.8034  14
  -4  -3  -6 11.9750 57.1567  11
   4   3   6 28.3958 53.8348   9
   4   3   6-8.62274 62.6121  14
  -4  -3  -7 66.9010 59.4351  11
  -4  -3  -8 280.731 71.7729  11
  -4  -3  -9-52.4888 55.7883  11
  -4  -4  12-9.56690 54.4963   6
   4   4 -12 121.470 68.1077  17
   4   4 -11-56.8177 69.9019  17
   4   4 -11 10.7718 40.6278  10
  -4  -4  10-34.0915 65.9220   2
   4   4 -10 2.61691 48.6222  10
   4   4 -10 20.9088 69.9230  17
  -4  -4   9 9.58342 60.9538   2
   4   4  -9-113.927 56.8005  10
   4   4  -9 25.7909 68.2806  17
  -4  -4   9 9.40969 42.2842   5
   4   4  -8 57.0978 60.5946  17
  -4  -4   8 5.85464 29.6080   8
  -4  -4   8-4.44137 38.5053   5
  -4  -4   8-8.95441 56.6643   2
  -4  -4   7 78.6194 58.6218   2
   4   4  -7 110.539 55.5098  17
  -4  -4   7 182.286 36.4193   8
  -4  -4   7 189.486 43.9625   5
  -4  -4   6 347.234 67.5994   2
  -4  -4   6 248.789 45.4362   8
  -4  -4   6 391.135 53.6165   5
   4   4  -5 226.801 38.9597   9
  -4  -4   5 117.305 35.1020   8
  -4  -4   5 165.151 39.9324   5
   4   4  -4 79.5922 38.1828   9
  -4  -4   4 66.5227 35.8076   5
  -4  -4   4 71.7475 34.2785   8
   4   4  -3 216.520 48.7815   9
  -4  -4   3 121.882 40.3372   8
  -4  -4   3 195.751 40.7642   5
   4   4  -2 97.7483 44.5771   9
  -4  -4   2 48.8826 35.8680   5
  -4  -4   2 76.0314 37.8603   8
  -4  -4   1-1.63580 35.2966   5
   4   4   0 27.0527 43.6639  10
   4   4   0-29.0689 46.6646   9
  -4  -4   0-29.9923 34.7638   5
   4   4   1 272.179 57.2314  10
  -4  -4  -1 291.532 49.7344   5
   4   4   1 287.655 61.4875   9
   4   4   2 52.9946 42.3011  10
  -4  -4  -2 61.5118 37.6475   5
   4   4   2 67.9062 53.1138   9
   4   4   2 111.647 63.5231  14
   4   4   3 469.484 61.8330  10
  -4  -4  -3 405.319 63.7492   5
   4   4   3 420.038 75.8163   9
   4   4   3 445.719 81.3991  14
   4   4   4 167.858 58.9846   9
   4   4   4 199.120 63.1378  14
   4   4   5 401.014 77.9666   9
  -4  -4  -6 106.702 57.7507  11
   4   4   6 46.8458 59.5971   9
   4   4   6 57.8721 66.6238  14
  -4  -4  -7-27.1137 55.0630  11
  -4  -4  -8 41.6687 53.1888  11
  -4  -5  12 88.5145 56.0281   6
   4   5 -11 77.5656 47.1908  10
  -4  -5  10 116.823 67.4739   2
   4   5 -10 236.080 60.6857  10
  -4  -5  10 144.039 52.2498   5
  -4  -5   9 125.606 48.3133   5
  -4  -5   9 83.5459 65.3752   2
  -4  -5   8 305.858 54.4467   5
  -4  -5   8 121.294 69.3971   2
  -4  -5   7 73.2013 64.0126   2
  -4  -5   7 124.611 46.1836   5
  -4  -5   6 759.335 93.2006   5
  -4  -5   6 619.123 105.763   2
   4   5  -5-1.80061 35.9873   9
  -4  -5   5 67.0429 43.5536   5
  -4  -5   5-18.1657 28.1507   8
  -4  -5   4-47.8394 45.1066   5
   4   5  -4 52.4937 42.0924   9
  -4  -5   4-11.0190 31.9001   8
   4   5  -3-9.43101 44.9153   9
  -4  -5   3 21.3426 42.9363   5
  -4  -5   3 13.6595 33.8978   8
   4   5  -2 50.9593 47.3882   9
  -4  -5   2 35.4672 44.8600   5
  -4  -5   2 47.0559 37.7144   8
  -4  -5   1 79.8491 46.4596   5
  -4  -5   1 95.4231 42.9459   8
   4   5   0 93.3265 52.1890  10
   4   5   0 164.514 58.0470   9
  -4  -5   0 214.768 49.6084   5
   4   5   1 52.3610 45.3572  10
   4   5   1 17.8436 56.9731   9
  -4  -5  -1-15.8973 42.3704   5
   4   5   2-4.19838 40.6470  10
  -4  -5  -2-58.2622 43.8818   5
   4   5   2-12.4287 54.9322   9
   4   5   3-57.6468 58.1201   9
   4   5   4 313.486 68.4956   9
   4   5   4 113.963 66.0657  14
   4   5   5 64.5659 56.5689   9
   4   5   5 34.7372 62.0274  14
  -4  -5  -6 156.412 56.9619  11
   4   5   6 111.951 56.5080   9
   4   5   6 55.8950 65.4842  14
  -4  -5  -7 89.0155 52.1487  11
   4   6 -11 122.175 53.6432  10
  -4  -6  10 228.684 75.4068   2
   4   6 -10 303.268 69.1597  10
  -4  -6  10 322.352 62.9570   5
  -4  -6   9 89.6009 69.0852   2
  -4  -6   9 99.2902 52.8388   5
  -4  -6   8 99.0083 53.8956   5
  -4  -6   8 152.580 69.7572   2
  -4  -6   7 251.316 81.6749   2
  -4  -6   7 237.000 60.3320   5
  -4  -6   6 160.426 84.2923   2
  -4  -6   6 432.009 70.7320   5
   4   6  -5 62.7590 41.8857   9
  -4  -6   5 66.0224 54.5047   5
  -4  -6   4-3.00448 53.9871   5
   4   6  -4 4.72863 44.1811   9
   4   6  -3 65.5038 49.0428   9
  -4  -6   3 5.91600 53.3434   5
   4   6  -2 121.932 54.2822   9
  -4  -6   2 31.6895 51.7904   5
  -4  -6   1-5.53591 48.6847   5
  -4  -6   1 59.0211 37.5032   8
   4   6   0 13.0704 48.9084  10
   4   6   0-21.9831 56.0848   9
  -4  -6   0-15.7867 47.1076   5
  -4  -6   0-5.79803 38.6697   8
   4   6   1 18.2344 42.7380  10
   4   6   1-6.46726 57.2372   9
   4   6   1-33.6060 66.0898  14
   4   6   2 478.063 76.8145   9
   4   6   2 228.145 72.8602  14
   4   6   3-60.1657 58.2324   9
   4   6   3 94.8248 57.8607  14
   4   6   4-15.1967 51.3312   9
   4   6   4-33.5251 54.5910  14
   4   6   5 8.37766 46.7881   9
  -4  -7   9 243.923 72.5351   2
  -4  -7   8 35.4371 50.0632   5
  -4  -7   8 163.346 71.1993   2
  -4  -7   7 371.286 66.8784   5
  -4  -7   7 190.938 79.0540   2
  -4  -7   6 91.7538 74.0781   2
  -4  -7   6 67.1763 53.1965   5
   4   7  -5 317.540 61.0378   9
  -4  -7   5 266.652 91.1084   2
   4   7  -4 150.136 49.5523   9
  -4  -7   4 113.594 54.7899   5
   4   7  -3-32.3542 49.6884   9
  -4  -7   3 46.5127 52.6226   5
   4   7  -2 81.3909 55.9841  10
   4   7  -2 144.785 55.5386   9
   4   7  -1-5.28660 47.3237  10
   4   7   0 72.5446 43.3074  10
   4   7   0 87.9527 63.3526  14
   4   7   1 9.04771 52.3626   9
   4   7   2 173.650 56.0015   9
   5  -7   1-97.3468 51.2050  12
   5  -7   2 61.6092 50.2324  12
   5  -7   3 85.9954 51.7745  12
   5  -7   3 17.3236 42.6318   4
   5  -7   4-13.6869 52.9930  12
   5  -7   4-2.51375 43.1211   4
   5  -7   5-12.3680 43.5906   4
   5  -7   5 57.3484 51.8074  12
   5  -6  -4 84.3976 51.0983  12
   5  -6  -4 206.747 49.5925   1
   5  -6  -3 27.4937 48.5794  12
   5  -6  -3 14.7119 43.7801   1
   5  -6  -2 9.79210 41.1598   1
   5  -6  -2-53.8295 50.0671  12
   5  -6  -1-29.2838 51.3734  12
   5  -6  -1 7.36674 42.8601   1
   5  -6   0 2.74781 53.9128  12
   5  -6   0-40.1604 45.2710   1
   5  -6   1 20.0076 54.4143  12
   5  -6   2 11.9659 57.0501  12
   5  -6   3 62.3209 60.1938  12
   5  -6   4 140.190 63.9497  12
   5  -6   4 105.792 47.6300   4
   5  -6   5-9.97113 44.1912   4
   5  -6   6-13.8472 42.0015   4
   5  -6   7 47.0378 36.4618   4
   5  -6   8-56.1608 54.7630  12
   5  -6   9-61.5828 50.6977  12
   5  -5  -6-76.3934 57.1828  12
   5  -5  -6 54.5981 44.8938   1
   5  -5  -5 116.504 46.9358   1
  -5   5   5 62.1059 39.3078   3
   5  -5  -4 168.599 61.7266  12
  -5   5   4 167.185 45.7489   3
   5  -5  -4 188.538 51.5798   1
   5  -5  -3 20.0978 58.3652  12
   5  -5  -3-69.9883 45.7280   1
   5  -5  -2 40.1602 58.6661  12
   5  -5  -2 41.9801 43.2309   1
   5  -5  -1 9.20073 41.4243   1
   5  -5  -1 37.5179 59.1282  12
   5  -5   0 560.902 88.9322  12
   5  -5   1 5.96818 61.4583  12
   5  -5   2 251.481 70.7475  12
   5  -5   3-57.4628 62.6103  12
   5  -5   4-18.1892 62.1063  12
   5  -5   5 111.429 59.5045  12
   5  -5   5 18.5773 37.0780   4
   5  -5   6-5.88126 59.1208  12
   5  -5   6 83.4057 36.0653   4
   5  -5   7 66.5636 55.4643  12
   5  -5   8 17.0377 52.7866  12
   5  -5   9 16.6613 51.5013  12
   5  -5  10-8.22824 50.5523  12
   5  -4  -8 143.140 61.5865  12
  -5   4   8 96.2273 44.1413   3
   5  -4  -7 122.783 64.1336  12
  -5   4   7 51.0601 45.9838   3
   5  -4  -6-34.0328 58.7876  12
  -5   4   6-39.6845 49.6384   3
   5  -4  -5 91.2145 65.3474  12
   5  -4  -4 162.848 68.3262  12
  -5   4   4 202.624 49.9954   8
   5  -4  -3 124.607 62.8535  12
  -5   4   3 58.0241 41.3978   8
   5  -4  -3 15.9134 40.9331   1
   5  -4  -2 19.2563 37.1968   1
   5  -4  -2 11.4566 60.5748  12
   5  -4  -2-35.0889 34.9852   5
  -5   4   2-2.00217 39.0490   8
   5  -4  -1 109.545 59.0482  12
  -5   4   1 29.4875 37.5632   8
  -5   4   0 1071.19 121.426   8
   5  -4   0 1141.72 133.603  12
   5  -4   1 223.923 46.9837   1
  -5   4  -1 139.437 39.5811   8
   5  -4   2 57.3932 56.2592  12
  -5   4  -2 31.1739 31.0903   8
   5  -4   2 9.57394 35.1837   1
   5  -4   3 62.1798 53.1706  12
   5  -4   4 65.7329 54.9033  12
   5  -4   5 72.3390 54.5589  12
   5  -4   5-37.3332 39.5226  13
   5  -4   5 18.4146 27.3848   4
   5  -4   6 70.3387 52.9755  12
   5  -4   6 28.2344 25.9119   4
   5  -4   6-19.9040 44.6577  13
   5  -4   7 58.0023 52.2265  12
   5  -4   7-17.2557 49.8333  13
   5  -4   8 268.399 60.5869  13
   5  -4   8 129.989 59.6441  12
   5  -4   9-2.74794 52.6643  13
   5  -4   9-37.2232 52.4982  12
   5  -4  10 55.5167 52.5209  13
   5  -4  10 28.9471 55.2411  12
   5  -4  11 51.9365 51.2297  13
   5  -3  -9 58.0935 67.3227  17
   5  -3  -8 87.5253 71.4260  17
  -5   3   8 147.377 53.5098   3
   5  -3  -7 53.2621 76.3724  17
   5  -3  -6-28.2037 66.9822  12
   5  -3  -6 7.32587 74.3683  17
  -5   3   6-2.55062 49.6402   8
   5  -3  -5 64.0420 62.6775  12
   5  -3  -5 64.8079 70.5112  17
  -5   3   5 153.500 51.5078   8
   5  -3  -4 51.7823 58.3019  12
   5  -3  -4 9.56462 64.0255  17
  -5   3   4 107.780 45.2468   8
   5  -3  -3 758.328 102.285  12
   5  -3  -2 239.061 62.4373  12
  -5   3   1 545.806 77.9101   8
   5  -3  -1 778.246 90.5555  12
   5  -3   0 482.566 80.4224  12
  -5   3   0 483.941 71.8790   8
  -5   3  -1 718.237 97.1794   8
   5  -3   1 666.901 102.651  12
   5  -3   2 150.995 35.6377   1
   5  -3   2 204.717 52.0474  12
  -5   3  -2 145.308 38.7842   8
   5  -3   3 228.066 54.9201  12
  -5   3  -3 253.151 44.2314   8
   5  -3   3 195.122 42.4938  13
  -5   3  -4 770.443 85.2984   8
   5  -3   4 703.376 80.4493   4
   5  -3   4 675.891 87.7870  13
   5  -3   4 762.245 95.6130  12
   5  -3   5 77.9274 49.9627  12
   5  -3   5 198.142 118.472  16
  -5   3  -5 59.0081 33.6267   8
   5  -3   5 46.0716 45.9979  13
   5  -3   6 28.2287 52.1977  12
  -5   3  -6 107.253 35.0077   8
   5  -3   6 58.9837 122.090  16
   5  -3   6 39.8291 47.7457  13
   5  -3   7 242.796 59.9234  12
   5  -3   7 305.495 124.168  16
   5  -3   7 123.136 56.4582  13
   5  -3   8 52.7877 53.9735  13
   5  -3   8 62.3774 54.9594  12
   5  -3   9 100.514 123.866  16
   5  -3   9 115.561 58.2298  12
   5  -3  10 5.40775 115.682  16
   5  -3  10-6.09080 57.2977  12
   5  -3  11-96.8297 107.448  16
  -5   2  10 2.84491 46.7011   3
  -5   2   9 247.799 62.1913   3
   5  -2  -8 95.9446 90.1981  17
  -5   2   8 155.232 54.2648   8
   5  -2  -7 34.5848 85.6289  17
  -5   2   7-10.6500 45.6849  15
  -5   2   7 34.0613 48.5855   8
   5  -2  -6-19.9546 84.2159  17
  -5   2   6 190.997 48.5558   8
   5  -2  -5 207.331 59.4865  12
   5  -2  -5 29.3868 72.4922  17
  -5   2   5 189.459 49.9372   8
   5  -2  -4 72.7960 52.5066  12
   5  -2  -4-13.8760 69.9985  17
  -5   2   4 78.5768 43.7334   8
   5  -2  -3 534.819 70.6759  12
  -5   2   3 505.552 65.3773   8
  -5   2   2 1286.24 150.543   8
   5  -2  -2 1517.14 155.390  12
  -5   2   1 437.262 65.0870   8
   5  -2  -1 551.016 72.3120  12
   5  -2   0 115.750 49.8700  12
   5  -2   0 304.875 41.2892   1
   5  -2   1 48.0877 42.1391  12
   5  -2   1 90.1672 25.9495   1
  -5   2  -2 683.081 79.8517   8
   5  -2   2 665.736 83.6210  12
   5  -2   3 146.126 48.9750  12
  -5   2  -3 261.178 45.4003   8
   5  -2   4-17.4108 48.2870  12
  -5   2  -4 26.4110 36.1869   8
   5  -2   4 47.6779 102.181  16
  -5   2  -5 736.998 88.3634   8
   5  -2   5 557.722 137.982  16
   5  -2   5 785.217 97.8592  12
   5  -2   6 87.0150 52.2479  12
  -5   2  -6 64.4819 38.1072   8
   5  -2   6 86.5030 104.837  16
  -5   2  -7 49.1914 36.1935   8
   5  -2   7 50.1808 105.876  16
   5  -2   7 61.0377 53.5107  12
  -5   2  -8 180.308 46.5300   8
   5  -2   8 233.462 114.646  16
   5  -2   8 284.309 64.8042  12
   5  -2   9 21.2379 110.223  16
   5  -2   9 39.7095 58.7329  12
   5  -2  10 234.385 113.520  16
   5  -2  10 126.690 68.0037  13
   5  -2  11 145.821 110.294  16
   5  -2  11 30.7971 62.2944  13
  -5   1  11 50.1262 47.1075   3
   5  -1 -11 45.4396 86.0162  17
  -5   1  10 11.9571 48.3724   3
   5  -1 -10 38.6356 90.4695  17
   5  -1  -9 156.047 99.0446  17
  -5   1   9 274.554 58.5695   8
   5  -1  -8 140.296 97.8511  17
  -5   1   8 94.5833 52.1440  15
  -5   1   8 168.159 51.0325   8
  -5   1   7 40.2825 55.4926  15
  -5   1   7 65.0501 48.0707   8
   5  -1  -7 25.6888 85.1149  17
  -5   1   6 106.960 47.0814   8
   5  -1  -6-112.472 81.8866  17
   5  -1  -5-3.57113 73.1295  17
  -5   1   5-2.13989 43.0648   8
   5  -1  -4 3.34835 68.4964  17
  -5   1   4 56.4422 43.6414   8
   5  -1  -3-6.24962 63.3175  17
  -5   1   3-1.79154 38.1916   8
   5  -1  -2 229.864 49.5445  12
  -5   1   2 241.878 44.8803   8
   5  -1  -2 203.270 36.3388  14
   5  -1  -1-35.6950 38.5159  12
  -5   1   1-64.6533 40.0681   8
   5  -1  -1-18.1331 30.1506  14
   5  -1   0 64.9110 38.7282  12
  -5   1   0 61.5344 35.9859   8
   5  -1   0 102.988 63.5865  16
   5  -1   0 100.594 34.9059  14
   5  -1   0 54.2347 23.0274   1
   5  -1   1 165.734 48.8960  12
   5  -1   1 292.068 31.0805   1
  -5   1  -1 204.884 45.8481   8
   5  -1   1 94.8839 76.7051  16
   5  -1   1 168.388 46.8769  14
  -5   1  -2 460.538 59.8993   8
   5  -1   2 306.488 60.8966  14
   5  -1   2 524.140 64.2657  12
   5  -1   3 27.4452 44.0065  12
  -5   1  -3 23.3678 37.1947   8
   5  -1   4-25.1155 48.1587  12
   5  -1   4 62.4094 85.4162  16
   5  -1   5 147.079 51.6502  12
   5  -1   5 15.7343 92.6032  16
   5  -1   6 574.693 131.338  16
   5  -1   6 829.437 98.7358  12
   5  -1   7 212.855 106.515  16
   5  -1   7 347.168 66.5839  12
   5  -1   8 148.061 100.801  16
   5  -1   8 2.85506 54.7932  12
   5  -1   9 70.8068 112.850  16
   5  -1  10 162.463 110.157  16
   5  -1  11 68.7796 113.249  16
   5  -1  11 258.551 74.2620  13
  -5   0  12 56.8206 40.5866   3
   5   0 -12 8.58439 79.0543  17
  -5   0  11 141.408 49.1943   3
   5   0 -11 49.7978 87.9984  17
   5   0 -10 32.4127 92.2213  17
  -5   0  10 30.3750 44.7974   8
   5   0  -9-13.7315 88.0087  17
  -5   0   9 48.6676 46.8351   8
   5   0  -8-17.4110 87.9189  17
  -5   0   8-41.0903 62.7185  15
  -5   0   8-64.7983 46.2146   8
  -5   0   7 56.1499 34.7780   6
   5   0  -7-28.1428 80.3677  17
  -5   0   7-42.9596 66.3832  15
  -5   0   7-4.73128 44.6913   8
  -5   0   6 515.629 63.5162   8
   5   0  -6 54.8391 83.1487  17
  -5   0   5 532.575 61.4284   2
  -5   0   5 588.663 66.4069   8
   5   0  -5 518.587 67.5815  12
   5   0  -4 91.0379 38.2441  12
  -5   0   4-1.86539 37.9247   8
   5   0  -4 44.0414 66.0620  17
  -5   0   4-39.1402 33.1531   2
   5   0  -3 201.050 41.5288  12
  -5   0   3 105.086 37.2885   2
  -5   0   3 157.698 41.0420   8
   5   0  -3 142.610 67.1242  17
   5   0  -2 37.9118 36.0044  12
  -5   0   2 138.265 41.2517   8
   5   0  -1-53.4116 36.2630  12
  -5   0   1-37.9048 40.8196   8
   5   0  -1 25.9180 48.5250  16
   5   0   0 337.730 51.0264  12
  -5   0   0 311.157 52.6693   8
   5   0   1 51.0556 40.2817  12
  -5   0  -1 15.5130 36.9241   8
   5   0   1 67.7222 72.7107  16
   5   0   2 175.627 45.0246  12
  -5   0  -2 123.464 41.6839   8
   5   0   2 83.4853 49.1760  14
   5   0   3-3.99301 49.1455  14
   5   0   4 75.7583 81.1790  16
   5   0   4 92.5993 57.7097  14
   5   0   5 19.0395 85.9928  16
   5   0   5 115.550 64.8618  14
   5   0   6 121.692 96.9362  16
   5   0   6 309.497 83.1993  14
   5   0   7 13.7544 94.7855  16
   5   0   8-64.3139 108.123  16
   5   0   9 104.795 110.917  16
   5   0  10 70.2792 109.131  16
   5   0  11-176.543 110.817  16
   5   0  11 25.1921 56.2074  13
  -5  -1  12 483.056 65.0296   3
   5   1 -12 158.646 91.5172  17
   5   1 -11-72.9029 84.7299  17
  -5  -1  10 14.9996 40.4975   6
   5   1 -10-43.0857 86.3661  17
  -5  -1   9-37.4147 42.5666   6
   5   1  -9-42.2917 84.5331  17
  -5  -1   9-42.5068 45.5487   8
   5   1  -8 80.9288 88.0421  17
  -5  -1   8 198.131 83.2181  15
  -5  -1   8 343.872 56.8905   8
   5   1  -7 214.577 44.3924  12
  -5  -1   7 160.031 49.3494   2
   5   1  -7 146.530 49.4049  10
  -5  -1   7 136.005 47.2769   8
   5   1  -7 7.53327 76.3398  17
   5   1  -6 149.708 39.8909  12
   5   1  -6 69.8795 73.3655  17
  -5  -1   6 76.3346 42.8728   8
  -5  -1   6 42.2742 75.1105  15
  -5  -1   6 103.776 44.5646   2
   5   1  -5 65.2147 34.7147  12
   5   1  -5 52.5823 41.5145  10
   5   1  -5 45.1124 68.7108  17
  -5  -1   5 73.0484 42.9578   2
  -5  -1   5 95.1136 43.2146   8
  -5  -1   5 39.0297 65.0343  15
   5   1  -4 362.857 57.8772  10
   5   1  -4 166.512 74.1089  17
  -5  -1   4 380.177 55.6852   8
  -5  -1   4 111.828 72.6316  15
   5   1  -4 426.273 49.9340  12
   5   1  -3 34.1394 28.4234  12
   5   1  -3 53.9881 39.8294  10
  -5  -1   3 63.2569 37.1692   8
  -5  -1   3-6.20316 58.0381  15
   5   1  -2 80.7710 31.5142  12
   5   1  -2 68.5998 41.5083  10
  -5  -1   2 84.2929 39.7304   8
   5   1  -2 128.556 38.0540  16
   5   1  -1 116.423 34.1226  12
   5   1  -1 122.824 42.6014  10
   5   1  -1 26.4723 55.6970  16
  -5  -1   1 177.434 43.6790   8
   5   1   0 54.5760 32.7251  12
   5   1   0 60.0214 38.0063  10
  -5  -1   0 32.7503 41.8539   8
   5   1   0 71.0638 60.1172  16
   5   1   1 473.712 66.7349  10
  -5  -1  -1 517.685 68.4772   8
   5   1   1 457.529 81.4775  14
   5   1   1 492.763 63.3847  12
   5   1   2 258.295 45.3148  12
   5   1   2 301.905 68.3319  14
  -5  -1  -3 179.738 34.0635  11
  -5  -1  -3 72.1691 47.4472  15
   5   1   3 216.031 62.3697  14
   5   1   3 190.763 42.7320  12
  -5  -1  -4 132.268 36.4477  11
  -5  -1  -4 57.9990 46.2135  15
   5   1   4 134.138 64.6219  14
   5   1   4 95.5771 41.7822  12
  -5  -1  -5 90.8234 39.7832  11
  -5  -1  -5 10.2337 41.3845  15
   5   1   5 53.0187 68.4165  14
   5   1   5 71.5526 45.9560  12
  -5  -1  -6 67.1504 44.8274  11
   5   1   6 36.1744 98.9984  16
   5   1   6 53.3691 74.7606  14
  -5  -1  -7 64.3660 48.8260  11
   5   1   7 119.680 104.019  16
  -5  -1  -8 20.6104 50.1666  11
   5   1   8 243.649 116.053  16
  -5  -1  -9 49.4360 50.3623  11
   5   1   9 245.097 121.643  16
   5   1  10 17.0802 117.814  16
  -5  -2  12 222.983 50.1035   6
  -5  -2  12 186.413 47.7278   3
  -5  -2  11-10.1081 46.8600   6
  -5  -2  11-7.43533 44.2220   3
  -5  -2  11-18.0519 37.0293   8
  -5  -2  10 45.2336 48.0111   6
   5   2 -10-37.3521 79.7345  17
  -5  -2  10 50.7599 41.1479   8
   5   2  -9-15.9213 41.8234  10
  -5  -2   9-12.8683 40.4482   8
   5   2  -9 52.8410 82.2044  17
   5   2  -8 640.413 81.3241  10
  -5  -2   8 727.377 86.9589   2
   5   2  -7 72.8548 80.6132  17
  -5  -2   7 282.260 59.7116   2
   5   2  -6 68.5991 45.5684  10
   5   2  -6-16.7828 69.5950  17
  -5  -2   6-31.3746 49.7247   2
  -5  -2   6 1.92343 37.2611   8
  -5  -2   6 88.7302 77.9713  15
   5   2  -5 62.3215 43.7210  10
   5   2  -5 51.6823 63.0887  17
  -5  -2   5-5.55396 37.7726   8
  -5  -2   5 42.8260 74.7762  15
   5   2  -4 1323.06 139.086  10
  -5  -2   4 1424.75 137.155   8
   5   2  -3 33.0518 45.3808  10
  -5  -2   3 34.8074 36.5909   8
  -5  -2   3 34.4625 66.5138  15
   5   2  -2 222.250 52.0279  10
  -5  -2   2 214.404 46.3641   8
  -5  -2   2 142.263 69.3525  15
   5   2  -1 247.937 51.0928  10
  -5  -2   1 196.595 50.3515   8
   5   2   0 1441.09 136.063  10
  -5  -2   0 1326.70 136.560   8
   5   2   1 411.671 57.5211  10
   5   2   1 295.236 45.5187  12
  -5  -2  -2-20.9180 34.6680  11
  -5  -2  -2-13.4014 50.7501  15
   5   2   2-26.9895 61.8957  14
  -5  -2  -3 41.8902 37.5048  11
  -5  -2  -3 2.58262 51.2752  15
   5   2   3 23.9548 61.6684  14
  -5  -2  -4 253.727 53.1469  11
   5   2   4 259.164 72.4779  14
  -5  -2  -5 17.4566 43.4184  11
   5   2   5 41.8671 65.8865  14
  -5  -2  -6 26.2177 46.7930  11
   5   2   6-13.0125 74.9182  14
  -5  -2  -7 50.7020 47.7345  11
   5   2   7 24.6371 75.4823  14
  -5  -2  -8 82.2382 50.8666  11
   5   2   8 5.87856 115.926  16
  -5  -2  -9-31.8473 47.3544  11
   5   2   9-230.865 128.508  16
  -5  -3  12 237.901 56.3082   6
   5   3 -12 91.3471 79.7665  17
  -5  -3  11 55.4566 52.0387   6
  -5  -3  11 116.053 44.3610   3
   5   3 -11-28.3216 80.2941  17
   5   3 -10 81.6117 44.3917  10
   5   3 -10 57.4071 80.8077  17
  -5  -3  10 32.4325 37.1974   8
  -5  -3   9 316.441 68.5694   2
   5   3  -9 300.690 58.7149  10
  -5  -3   9 177.566 46.5227   8
   5   3  -8 423.642 66.7496  10
  -5  -3   8 249.550 49.4227   8
   5   3  -7 5.68020 51.8998  10
   5   3  -7-53.4390 68.0446  17
  -5  -3   7-27.9299 35.3859   8
   5   3  -6 213.464 60.3268  10
  -5  -3   6 217.562 63.5281   2
  -5  -3   6 229.206 45.3677   8
   5   3  -5 22.7615 51.7403  10
   5   3  -4 427.837 76.1441  10
   5   3  -3 106.300 55.7630  10
  -5  -3   3 81.1366 41.5534   8
  -5  -3   3 115.714 78.3217  15
   5   3  -2 5.17584 48.1632  10
   5   3  -2 26.3380 37.6914   9
  -5  -3   2 20.0729 40.6633   8
  -5  -3   2-16.0192 75.1931  15
   5   3  -1 80.9609 44.7028  10
   5   3  -1 50.7832 41.7860   9
  -5  -3   1 79.4052 45.3690   8
  -5  -3   1 49.9372 68.3263  15
   5   3   0 3077.84 323.064  10
   5   3   1-43.9991 48.8085   9
  -5  -3  -2 46.9830 44.6875  11
   5   3   2 8.95620 42.3248  10
   5   3   2-31.0831 46.8392   9
   5   3   2 14.7057 65.6580  14
  -5  -3  -3 15.8694 44.8079  11
   5   3   3-6.04059 38.0531  10
   5   3   3 21.8606 49.5236   9
   5   3   3-45.2592 66.5364  14
  -5  -3  -4 347.697 62.2018  11
   5   3   4 259.908 75.4413  14
  -5  -3  -5 84.9678 47.7271  11
   5   3   5-81.4928 67.9117  14
  -5  -3  -6 15.6385 48.3222  11
   5   3   6 70.2617 67.2655  14
  -5  -3  -7 49.4781 52.4787  11
   5   3   7 157.387 73.9734  14
  -5  -3  -8 14.8105 48.1372  11
   5   3   8-104.607 119.007  16
  -5  -4  12 24.8139 51.1681   6
   5   4 -10-10.5004 47.4028  10
   5   4 -10 13.5108 63.9056  17
  -5  -4   9 120.206 64.1579   2
   5   4  -9 50.8971 55.9303  10
   5   4  -9-9.61397 62.0507  17
  -5  -4   8 59.0668 35.1426   8
  -5  -4   8 143.591 61.4483   2
   5   4  -7 133.551 62.1683  10
  -5  -4   7 87.2658 62.3945   2
  -5  -4   7 69.5693 37.9162   8
   5   4  -6-19.9738 61.6362  10
  -5  -4   6 43.7415 59.1127   2
  -5  -4   6 12.3329 35.6302   8
  -5  -4   6-14.4347 30.6805   5
   5   4  -5 228.961 68.1193  10
  -5  -4   5 194.479 44.5843   8
   5   4  -4 296.961 73.6288  10
   5   4  -4 260.777 46.8591   9
  -5  -4   4 257.842 49.1934   8
   5   4  -3 86.5030 61.3979  10
   5   4  -3 13.8531 36.7162   9
  -5  -4   3 7.86654 40.4929   8
   5   4  -2 41.8523 54.5838  10
   5   4  -2 25.5922 45.0330   9
  -5  -4   2 23.7985 43.0762   8
   5   4  -1 327.258 68.5313  10
   5   4  -1 357.073 66.0915   9
   5   4   1 115.542 50.7655  10
   5   4   1 49.5412 54.8082   9
  -5  -4  -2-36.7608 50.7378  11
   5   4   2-11.4630 42.4701  10
   5   4   2 35.9967 56.1992   9
   5   4   2-42.1116 67.3723  14
  -5  -4  -3 52.7717 50.8635  11
   5   4   3 89.8799 37.7592  10
   5   4   3 98.7219 54.6856   9
   5   4   3 54.9790 63.6145  14
  -5  -4  -4 69.7096 51.6734  11
   5   4   4 100.921 57.3462   9
   5   4   4 17.4498 66.1401  14
  -5  -4  -5 176.559 57.2902  11
   5   4   5 169.838 69.6579  14
  -5  -4  -6 50.4405 51.1462  11
  -5  -4  -7 39.5710 46.3863  11
  -5  -5  10 637.194 90.8399   2
   5   5 -10 473.376 82.4386  10
  -5  -5   9-36.0680 61.7019   2
   5   5  -9 101.989 59.7090  10
   5   5  -8 30.0624 59.2827  10
  -5  -5   8-46.1644 61.2729   2
   5   5  -7-20.5329 61.7287  10
  -5  -5   7 51.3780 66.4517   2
   5   5  -6 212.831 71.6255  10
  -5  -5   6 85.4841 69.7275   2
   5   5  -5 42.4644 65.1145  10
  -5  -5   5 40.6034 34.9929   8
   5   5  -4 81.0451 66.3624  10
   5   5  -4 49.6585 40.4426   9
  -5  -5   4 24.3223 39.2038   8
   5   5  -3 292.786 73.7528  10
   5   5  -3 255.610 58.4709   9
  -5  -5   3 370.478 55.6683   8
   5   5  -2 118.267 60.2862  10
   5   5  -2 126.015 52.5907   9
  -5  -5   2 94.8964 45.9907   8
   5   5  -1 87.9791 54.7163   9
  -5  -5   1 9.40408 46.7567   8
   5   5   0 89.7088 50.8096  10
  -5  -5   0-30.8693 50.4964   8
   5   5   1 29.4531 45.9666  10
   5   5   1 59.0627 74.8466  14
   5   5   2 65.0000 39.7973  10
   5   5   2 75.9987 56.2329   9
   5   5   2 57.1792 64.0483  14
   5   5   3 81.9539 55.4040   9
   5   5   3 29.0610 64.8869  14
  -5  -5  -4-2.78898 51.2749  11
   5   5   4-64.6051 54.2199   9
  -5  -5  -5 7.98604 49.4898  11
   5   5   5 31.8648 60.0185  14
  -5  -6   9 129.950 62.8509   2
   5   6  -8 54.9381 58.1727  10
  -5  -6   8 121.075 66.6313   2
   5   6  -7 3.29141 57.1587  10
  -5  -6   7-40.1956 66.4046   2
   5   6  -6 151.124 61.7568  10
  -5  -6   6 81.6799 75.6735   2
   5   6  -5 54.6061 57.7100  10
  -5  -6   5 102.273 75.6497   2
   5   6  -4 27.2802 61.9371  10
   5   6  -3-36.3764 59.3575  10
   5   6  -3 41.2047 45.2008   9
   5   6  -2 24.3129 49.0202   9
   5   6  -1 50.7420 50.8590  10
   5   6  -1 49.2436 53.2572   9
  -5  -6   1 65.1104 37.7897   8
   5   6   0 4.99098 46.4899  10
   5   6   0 60.2714 52.1954   9
  -5  -6   0 71.2045 41.0226   8
   5   6   0-10.2592 73.9643  14
  -5  -6  -1 15.0414 41.5773   8
   5   6   2 130.667 53.0827   9
  -5  -6  -2-18.1477 43.7384   8
   5   6   2-25.3279 63.9076  14
   5   6   3 73.9562 49.9354   9
   5   7  -6 184.502 59.8606  10
  -5  -7   6 233.968 74.6477   2
   5   7  -5 27.5521 52.7802  10
  -5  -7   5 51.5202 65.4922   2
   5   7  -4-15.0579 49.4703  10
  -5  -7   4 129.568 70.1936   2
   5   7  -3 51.3840 52.7381  10
   6  -6  -1 84.8206 53.0259  12
   6  -6   0 123.535 56.0855  12
   6  -6   1 29.8419 57.0399  12
   6  -6   2 31.4941 60.5253  12
   6  -6   3 81.1111 63.5994  12
   6  -6   3 37.2600 41.3151   4
   6  -6   4 3.24672 61.3596  12
   6  -6   5 31.2874 57.8796  12
   6  -6   6 221.139 64.1175  12
   6  -5  -4 139.259 58.8668  12
   6  -5  -3 64.7899 57.1734  12
   6  -5  -2-29.1207 56.6027  12
   6  -5  -2-22.2797 41.3728   1
   6  -5  -1 22.6763 40.7381   1
   6  -5  -1 9.17263 59.9644  12
   6  -5   0-12.7842 60.5069  12
   6  -5   0-25.8202 41.7623   1
   6  -5   1 46.9881 64.3769  12
   6  -5   2-17.4971 67.5451  12
   6  -5   3 10.6570 64.2328  12
   6  -5   4 126.288 68.2959  12
   6  -5   5 123.675 64.1743  12
   6  -5   6 34.9003 57.5385  12
   6  -5   7-6.00465 57.5605  12
   6  -5   8 56.8350 55.4204  12
   6  -4  -6 75.4964 60.5608  12
  -6   4   6-39.2395 44.6461   3
   6  -4  -6 51.8700 40.9157   1
   6  -4  -5-60.9560 61.2188  12
   6  -4  -4 108.476 64.4468  12
  -6   4   4 204.854 51.3336   8
   6  -4  -3 140.336 65.7762  12
   6  -4  -3 263.051 51.2233   1
  -6   4   3 220.405 51.9869   8
   6  -4  -2-11.9495 59.6288  12
   6  -4  -2 43.4774 40.7333   1
  -6   4   2 17.9278 42.2719   8
   6  -4  -1 115.644 63.3397  12
  -6   4   1 84.9808 44.1983   8
   6  -4  -1 176.921 44.2867   1
   6  -4   0 443.363 82.5445  12
   6  -4   0 403.129 64.0099   1
  -6   4   0 398.079 61.4334   8
   6  -4   1-57.4337 65.8860  12
  -6   4  -1-63.6702 39.4819   8
   6  -4   2 22.6325 65.6165  12
   6  -4   3 16.2091 63.8325  12
   6  -4   4 31.9333 63.0036  12
   6  -4   5 15.4492 57.8909  12
   6  -4   6 93.0902 59.5441  12
   6  -4   7-23.4068 55.4064  12
   6  -4   8 270.973 65.1518  12
   6  -4   9 83.0812 53.6875  12
   6  -3  -7 152.170 69.5612  12
   6  -3  -6 32.0379 64.7676  12
  -6   3   6 17.8506 48.1390   8
   6  -3  -5-9.22487 60.7827  12
   6  -3  -4 8.79924 59.7262  12
   6  -3  -3 179.856 62.2276  12
  -6   3   3 155.603 53.6971   8
   6  -3  -3 201.937 47.0854   1
   6  -3  -2-4.09919 38.3881   1
   6  -3  -2 60.2171 55.9982  12
  -6   3   2-25.4734 45.8179   8
   6  -3  -1 78.5444 56.1190  12
   6  -3  -1 52.2812 38.3837   1
  -6   3   1 15.4472 43.9394   8
   6  -3   0 280.697 76.5518  12
  -6   3   0 400.587 65.3359   8
   6  -3   1 187.335 59.3563  12
   6  -3   1 164.581 38.0135   1
  -6   3  -1 140.248 45.9965   8
   6  -3   2 2.74562 54.9658  12
  -6   3  -2-29.9899 36.7247   8
   6  -3   3 80.5342 57.1814  12
  -6   3  -3-1.78646 37.6782   8
   6  -3   4 109.289 57.3486  12
  -6   3  -4 30.7000 35.7048   8
   6  -3   5 55.8959 56.0278  12
  -6   3  -5 26.0790 34.4780   8
   6  -3   5 10.4623 41.6080  13
   6  -3   6 2.81966 54.9017  12
   6  -3   6-31.8989 44.8420  13
   6  -3   7 48.2577 46.6144  13
   6  -3   7-11.3594 53.5992  12
   6  -3   8 194.957 57.9671  13
   6  -3   8 319.136 63.1688  12
   6  -3   9-27.7295 47.6108  13
   6  -3   9-25.7055 54.3449  12
   6  -3  10 39.7893 48.7357  13
   6  -3  10 107.639 55.3188  12
   6  -2  -9 63.4096 59.5988  12
  -6   2   9 64.9643 46.6110   3
   6  -2  -8 74.0198 61.9469  12
  -6   2   8 44.0431 46.8807   8
   6  -2  -7 9.27438 64.0844  12
   6  -2  -7 17.8191 82.4809  17
  -6   2   7-15.9606 50.1603   8
   6  -2  -6 12.6556 80.6307  17
  -6   2   6 33.9739 60.6465  15
  -6   2   6 215.966 55.1567   8
  -6   2   5 71.6105 47.5143   8
  -6   2   4-31.7463 48.6163   8
   6  -2  -3 330.369 69.3824  12
  -6   2   3 416.233 65.1092   8
   6  -2  -2 253.015 57.0905  12
  -6   2   2 214.983 53.5142   8
   6  -2  -1 73.7840 48.9339  12
   6  -2  -1 34.1576 31.7506   1
   6  -2   0 365.025 67.2534  12
   6  -2   0 386.417 51.5841   1
   6  -2   1 260.921 59.5121  12
  -6   2  -1 215.446 50.5977   8
   6  -2   2 174.404 59.3586  12
  -6   2  -2 259.257 49.8388   8
   6  -2   3 70.6675 53.5668  12
   6  -2   3 8.67081 100.647  16
  -6   2  -3-46.7599 41.7537   8
   6  -2   4-10.3528 51.7857  12
  -6   2  -4 52.4715 39.9407   8
   6  -2   4 83.2491 100.363  16
   6  -2   5 218.422 58.6390  12
  -6   2  -5 102.936 43.2669   8
   6  -2   6 13.7397 54.4760  12
  -6   2  -6 33.4752 40.3184   8
   6  -2   6-10.0715 112.972  16
  -6   2  -7-29.4978 40.3886   8
   6  -2   7 124.145 109.116  16
   6  -2   7 90.9090 53.7807  12
   6  -2   8 42.1054 107.409  16
   6  -2   8 129.410 60.5866  12
   6  -2   9 20.7746 107.087  16
   6  -2   9 88.8900 54.8782  13
   6  -2   9 61.9782 57.6153  12
   6  -2  10-29.9571 98.9291  16
  -6   1  10 358.370 61.4973   3
   6  -1 -10 56.6191 92.6502  17
   6  -1  -9 36.5698 55.2801  12
   6  -1  -9-55.9006 96.8098  17
  -6   1   9 29.2149 46.8164   8
   6  -1  -8 54.1452 56.6068  12
   6  -1  -8-51.2317 95.3083  17
  -6   1   8 2.74613 49.0014   8
   6  -1  -7 90.1946 56.1169  12
   6  -1  -7 4.80505 89.8931  17
  -6   1   7 86.7525 60.9470  15
  -6   1   7-13.6542 51.7313   8
   6  -1  -6 251.366 60.0927  12
   6  -1  -6 149.885 90.2563  17
  -6   1   6 99.8268 67.2624  15
  -6   1   6 167.147 53.5016   8
   6  -1  -5-35.2440 51.6906  12
   6  -1  -5 84.6558 74.2932  17
  -6   1   5-17.3069 47.6588   8
   6  -1  -4-48.0095 48.6003  12
  -6   1   4 25.5894 40.7091   8
   6  -1  -3 10.2531 43.9113  12
  -6   1   3 43.9571 43.3464   8
  -6   1   2 625.972 87.0223   8
   6  -1  -2 748.038 89.0515  12
   6  -1  -1 119.718 46.1802  12
  -6   1   1 141.045 46.3274   8
   6  -1  -1 110.764 37.8294  14
   6  -1  -1 147.242 30.5390   1
  -6   1   0 63.8921 44.1107   8
   6  -1   0 34.9344 37.6830  14
  -6   1  -1 2.06600 42.9082   8
   6  -1   1 6.35415 75.8988  16
   6  -1   1 57.0868 41.5870  14
  -6   1  -2 141.992 44.3623   8
   6  -1   2 119.343 91.7286  16
   6  -1   2 41.5093 48.2160  14
   6  -1   3-39.8423 93.6002  16
   6  -1   3 38.4442 53.7974  14
   6  -1   4 4.19284 95.0053  16
  -6   1  -5 94.8598 46.3804   8
  -6   1  -6 139.229 50.9594   8
   6  -1   6 141.558 102.606  16
  -6   1  -7-48.2721 46.7622   8
   6  -1   7-69.5621 103.321  16
  -6   1  -8 45.1979 46.9846   8
   6  -1   8 165.272 105.358  16
  -6   1  -9 231.185 51.0513   8
   6  -1   9 36.6152 110.604  16
   6  -1  10-56.5675 107.489  16
   6  -1  10 28.3466 57.8418  13
   6   0 -10-81.2152 92.3838  17
  -6   0  10 35.3066 43.8497   8
   6   0  -9 15.0766 45.8730  12
   6   0  -9-60.0871 96.4094  17
  -6   0   9 2.68908 49.9047   8
   6   0  -8 6.56020 45.1663  12
   6   0  -8 49.7778 91.9520  17
  -6   0   8-46.2097 70.2154  15
  -6   0   8 30.2795 50.1344   8
   6   0  -7 388.978 62.3282  12
   6   0  -7-32.9129 99.0699  17
  -6   0   7 72.8990 78.0296  15
  -6   0   7 504.549 66.0776   8
   6   0  -6 378.572 59.6183  12
  -6   0   6 411.337 63.8875   8
   6   0  -5 46.9047 41.7496  12
   6   0  -5 65.9251 76.9374  17
  -6   0   5 14.3662 44.6357   8
  -6   0   5-7.64725 68.5148  15
   6   0  -4 5.28282 37.8802  12
  -6   0   4 18.0442 46.2000   8
   6   0  -3 60.2640 40.7280  12
  -6   0   3 159.937 47.7591   8
   6   0  -3 30.3629 38.7368  14
  -6   0   2 601.477 75.4182   8
   6   0  -2 460.513 70.1819  14
   6   0  -2 549.201 71.5294  12
   6   0  -1 72.7519 43.3060  12
  -6   0   1 152.130 44.7946   8
   6   0  -1 17.8805 39.2259  14
   6   0   0 44.6670 42.5861  12
  -6   0   0 8.69389 43.6763   8
   6   0   0-50.8041 65.6512  16
   6   0   0 76.8559 43.1341  14
   6   0   1-14.2901 47.4317  12
  -6   0  -1 24.0247 41.6940   8
   6   0   1-9.26706 74.0112  16
   6   0   1 15.2752 46.8187  14
   6   0   2 511.280 68.4399  12
  -6   0  -2 530.838 69.7931   8
   6   0   3 166.096 50.7312  12
  -6   0  -3 120.218 49.2276   8
   6   0   3 32.9889 85.4220  16
  -6   0  -4-23.8437 46.8377   8
   6   0   4-28.0057 88.8047  16
   6   0   4 27.9781 63.3460  14
   6   0   4 25.2910 47.3063  12
  -6   0  -5 40.9097 49.4289   8
  -6   0  -5-10.3820 47.4236  15
   6   0   5 22.5996 68.7315  14
   6   0   5 31.9326 50.0537  12
   6   0   6 75.5896 101.599  16
   6   0   6 111.996 56.0494  12
   6   0   7 89.8870 105.336  16
   6   0   8 41.5612 110.533  16
   6   0   9-126.396 111.308  16
  -6  -1  11-36.6017 40.8536   3
   6   1 -11 62.8651 80.1015  17
   6   1 -10 76.4079 86.8785  17
   6   1  -9 13.9401 91.2575  17
  -6  -1   9 111.697 48.8282   8
   6   1  -8 27.5740 86.3031  17
  -6  -1   8 23.2881 48.4696   8
  -6  -1   7 63.5436 44.6380   2
   6   1  -7-43.0945 84.6917  17
  -6  -1   7 91.1635 50.2599   8
  -6  -1   6 243.788 49.2763   2
   6   1  -6-107.497 80.6453  17
  -6  -1   6 249.773 53.2420   8
  -6  -1   6-4.38887 82.4788  15
   6   1  -5 264.683 47.4017  12
  -6  -1   5 310.454 59.4860   8
  -6  -1   5 365.192 55.8332   2
   6   1  -4 42.8609 31.7978  12
   6   1  -4 100.870 46.1697  10
  -6  -1   4 49.8191 43.3067   2
  -6  -1   4-4.42243 39.8986   8
  -6  -1   4 15.3943 65.3304  15
   6   1  -3 215.533 41.2639  12
   6   1  -3 209.311 51.8591  10
  -6  -1   3 197.077 50.6652   8
  -6  -1   3 123.058 72.6719  15
   6   1  -2 18.2382 34.8436  12
   6   1  -2 76.8017 44.1733  10
  -6  -1   2 91.0462 44.8155   8
  -6  -1   2 3.66404 64.2888  15
   6   1  -1 30.1295 35.4963  12
  -6  -1   1 143.957 48.2463   8
  -6  -1   1 35.9132 65.3485  15
   6   1  -1 31.9567 59.8312  14
   6   1   0 108.989 36.6536  12
  -6  -1   0 54.0075 46.5376   8
   6   1   0 91.9899 66.6456  16
  -6  -1   0 44.7657 61.5153  15
   6   1   1 289.451 45.6326  12
  -6  -1  -1 289.857 58.6105   8
   6   1   1 24.5375 74.8513  16
  -6  -1  -1 76.9902 63.7861  15
   6   1   1 328.017 68.1062  14
  -6  -1  -2 1123.30 94.3912   8
   6   1   2 3.46702 100.301  16
  -6  -1  -2 294.127 87.9432  15
   6   1   2 733.659 99.0891  14
   6   1   2 815.111 80.9123  12
  -6  -1  -3 35.8083 50.3586   8
   6   1   3 11.6707 86.4174  16
  -6  -1  -3 111.668 52.4391  15
   6   1   3 2.87385 64.1384  14
   6   1   3 7.25940 38.9059  12
  -6  -1  -4-2.58034 50.5887  15
   6   1   4 131.603 74.4027  14
   6   1   4 209.951 48.0223  12
   6   1   5 17.7433 78.0200  14
   6   1   6 60.3577 104.048  16
   6   1   6 58.5957 84.2838  14
   6   1   7 5.25565 107.728  16
   6   1   8-59.3336 111.245  16
   6   1   9-69.9467 108.614  16
  -6  -2  11-11.4887 39.6409   3
   6   2 -11 50.4282 71.9196  17
  -6  -2  11 74.5380 35.9105   8
  -6  -2  10 38.6050 39.3436   8
  -6  -2   9-16.0857 40.4479   8
  -6  -2   8 311.952 62.7490   2
  -6  -2   7 39.4705 43.1530   8
  -6  -2   7 57.0935 47.6729   2
   6   2  -6 91.4691 53.0841  10
  -6  -2   6-18.0133 42.5516   8
  -6  -2   6 4.88443 84.8382  15
  -6  -2   6 46.3235 50.2896   2
   6   2  -5 51.0912 50.2428  10
  -6  -2   5 37.3846 51.2247   2
  -6  -2   5 90.0321 45.0892   8
  -6  -2   5 27.3813 81.9054  15
   6   2  -4 13.3660 49.6932  10
  -6  -2   4 48.1155 41.9587   8
  -6  -2   4 56.2778 74.2441  15
   6   2  -3 413.590 70.2088  10
  -6  -2   3 465.184 66.3928   8
   6   2  -2 156.595 51.1660  10
  -6  -2   2 154.330 50.5435   8
  -6  -2   2 63.8744 71.1122  15
   6   2  -1 116.822 48.3771  10
  -6  -2   1 211.511 54.5010   8
   6   2  -1-26.1006 58.0641  16
  -6  -2   1 72.1274 65.7817  15
   6   2   0 373.943 57.7758  10
  -6  -2   0 389.444 63.7209   8
   6   2   0-85.2959 70.7637  16
  -6  -2   0 3.55418 67.2543  15
   6   2   0 251.854 82.3222  14
   6   2   1 552.028 70.1918  10
  -6  -2  -1 798.504 81.4737   8
   6   2   1 76.5398 91.3656  16
  -6  -2  -1 55.5712 76.9483  15
   6   2   1 477.095 91.7010  14
  -6  -2  -2 48.4804 54.6801   8
  -6  -2  -2-24.3431 54.5505  15
   6   2   2 6.32406 69.7945  14
  -6  -2  -3 116.170 55.9278  15
   6   2   3 123.358 75.3019  14
   6   2   4 30.9951 73.6729  14
   6   2   5 131.129 79.6931  14
   6   2   6 26.4326 104.704  16
   6   2   6 60.7822 81.0534  14
   6   2   7 10.8163 110.542  16
   6   2   8-113.147 109.024  16
   6   3 -10 106.541 70.9418  17
  -6  -3  10 40.0952 36.7248   8
  -6  -3   9-2.83925 53.0168   2
   6   3  -9-28.5637 46.9711  10
  -6  -3   9-12.3550 39.8036   8
  -6  -3   8 204.226 59.3566   2
   6   3  -8 157.479 57.4760  10
  -6  -3   8 156.763 46.6853   8
   6   3  -7 24.1426 54.5605  10
  -6  -3   7-4.24603 39.6265   8
  -6  -3   7-16.8043 55.0152   2
   6   3  -6-62.6415 56.4556  10
  -6  -3   6-5.71367 54.6280   2
  -6  -3   6-6.30159 38.9003   8
   6   3  -5-35.2906 62.0467  10
  -6  -3   5 14.6306 59.3020   2
   6   3  -4 128.602 62.6488  10
   6   3  -3 81.2986 55.9649  10
  -6  -3   3 91.0909 47.7654   8
   6   3  -2-11.8646 53.9096  10
  -6  -3   2 40.9187 49.4233   8
   6   3  -1 16.7662 49.5136  10
  -6  -3   1 54.1738 55.0009   8
   6   3   0 528.112 82.4846  10
  -6  -3   0 704.580 92.6954   8
   6   3   0 509.496 113.086  14
  -6  -3  -1 48.6460 61.0916   8
   6   3   1 31.1218 76.4975  14
  -6  -3  -2 48.5967 62.3922   8
   6   3   2 73.7120 74.1254  14
   6   3   3 36.6195 73.8656  14
   6   3   4 172.042 79.4038  14
   6   3   5 30.8948 73.1142  14
   6   3   6-31.4059 105.856  16
   6   3   6 20.6650 69.1774  14
   6   3   7 5.12699 101.953  16
   6   4 -10 32.8149 42.8129  10
  -6  -4   9 55.6810 56.6183   2
   6   4  -9 39.0692 50.9748  10
  -6  -4   8 191.552 43.0369   8
  -6  -4   8 115.558 61.8295   2
   6   4  -7 202.247 64.5207  10
  -6  -4   7 99.1742 42.4355   8
   6   4  -6 111.936 64.2826  10
  -6  -4   6 67.8182 40.3903   8
   6   4  -5 36.1530 66.4473  10
  -6  -4   5 24.4494 37.9104   8
   6   4  -4 141.034 67.7281  10
  -6  -4   4 154.869 47.2053   8
   6   4  -3 90.3082 63.9087  10
  -6  -4   3 82.5294 48.2219   8
   6   4  -2 61.3398 57.8370  10
   6   4  -1 85.9835 56.5727  10
  -6  -4   0-16.2380 61.8667   8
   6   4   0 67.3413 81.9017  14
   6   4   1 53.5864 47.4852  10
  -6  -4  -1-3.35698 62.0707   8
  -6  -4  -2 63.4833 60.7767   8
   6   4   2-84.7500 72.6462  14
   6   4   3-3.15923 68.0518  14
   6   4   4 21.9688 66.7620  14
   6   4   5-111.403 67.4789  14
   6   5  -9 98.4757 53.7945  10
   6   5  -8-46.1541 56.1696  10
  -6  -5   8 47.9569 56.3283   2
   6   5  -7 39.2703 57.4638  10
  -6  -5   7 37.8484 56.4565   2
   6   5  -6 89.2919 61.4457  10
  -6  -5   6 77.5285 64.6787   2
   6   5  -5 39.0080 62.6709  10
  -6  -5   5-28.5339 70.4664   2
  -6  -5   5 194.488 40.1760   8
   6   5  -4 110.000 66.9366  10
  -6  -5   4 13.6896 38.4346   8
   6   5  -3 3.41210 60.5517  10
  -6  -5   3-8.41655 40.7329   8
   6   5  -2 78.9934 54.5153  10
  -6  -5   2 55.5441 45.7902   8
   6   5  -1 102.946 55.2039  10
  -6  -5   1 174.988 53.8107   8
   6   5   0 153.704 48.6117  10
  -6  -5   0-30.1468 51.2836   8
   6   5   0-45.0604 73.8249  14
   6   5   1 44.3221 42.3589  10
  -6  -5  -1-11.4713 55.1788   8
   6   5   1 57.5317 68.3187  14
  -6  -5  -2 46.1723 55.2567   8
   6   5   2-3.01945 61.5268  14
  -6  -5  -3-34.0179 54.7550   8
   6   5   3-11.6732 61.6017  14
   6   6  -7 55.2839 50.0120  10
  -6  -6   7 80.0018 55.9601   2
   6   6  -6 400.260 70.8033  10
  -6  -6   6 371.052 80.8948   2
   6   6  -5 68.5398 53.3577  10
  -6  -6   5 17.1786 65.0327   2
   6   6  -4 55.9848 55.2709  10
   6   6  -3 62.5740 50.8007  10
   6   6  -2 95.7401 50.9715  10
   6   6  -1 14.4794 44.1596  10
   6   6  -1-46.4182 71.2968  14
   7  -5  -1 75.6335 56.7018  12
   7  -5   0-15.4906 59.0914  12
   7  -5   1 56.1208 64.6231  12
   7  -5   2 113.988 67.0623  12
   7  -5   3 347.447 82.2101  12
   7  -5   4 88.8812 65.3630  12
   7  -5   5 3.26902 61.4352  12
   7  -4  -4 119.396 58.0121  12
   7  -4  -3 89.7573 56.5617  12
   7  -4  -3 41.0897 37.3734   1
  -7   4   3 84.7623 40.2912   8
   7  -4  -2-91.9266 59.6766  12
   7  -4  -2 35.5885 37.5734   1
  -7   4   2 6.32763 40.3039   8
   7  -4  -1-27.6164 58.5150  12
  -7   4   1 18.3632 38.6170   8
   7  -4  -1 17.6755 36.8395   1
   7  -4   0 251.297 71.8665  12
   7  -4   1 27.0323 61.4483  12
   7  -4   2 41.7857 65.4267  12
   7  -4   3 17.4074 63.4261  12
   7  -4   4 60.4008 65.2380  12
   7  -4   5 73.7257 63.5298  12
   7  -4   6 60.7500 56.6353  12
   7  -4   7-68.5758 54.6766  12
   7  -3  -6 19.7133 55.4457  12
  -7   3   6 32.0318 41.5588   8
   7  -3  -5-37.5625 38.7275   1
  -7   3   5 52.9553 43.4121   8
   7  -3  -4 170.225 47.8215   1
  -7   3   4 346.541 59.3706   8
   7  -3  -3 19.4247 36.6933   1
  -7   3   3 89.2638 48.5577   8
   7  -3  -2-43.0282 57.5572  12
  -7   3   2-4.84863 47.4244   8
   7  -3  -2 16.6002 33.6304   1
   7  -3  -1-58.6173 59.9015  12
  -7   3   1-23.4059 44.0895   8
   7  -3   0 458.427 77.4355  12
  -7   3   0 342.001 61.9143   8
   7  -3   1-28.0176 60.4581  12
  -7   3  -1 25.3628 40.7471   8
   7  -3   2-18.9559 61.7549  12
  -7   3  -2 27.8024 38.5903   8
   7  -3   3 3.14545 57.5686  12
  -7   3  -3 68.8286 37.8047   8
   7  -3   4 604.938 94.3451  12
   7  -3   5 83.4475 56.2564  12
   7  -3   6 49.0892 54.2459  12
   7  -3   7-8.36617 51.0972  12
   7  -3   8 102.825 53.2801  12
   7  -2  -7 144.686 52.9772  12
  -7   2   7 2.43790 42.9958   8
   7  -2  -6 56.0069 53.7933  12
  -7   2   6 99.9067 63.5126  15
  -7   2   6 102.337 46.9519   8
   7  -2  -5 151.800 58.6510  12
  -7   2   5 20.5975 73.5140  15
  -7   2   5 213.510 54.1842   8
   7  -2  -4 65.6245 54.3171  12
  -7   2   4 103.732 51.1078   8
   7  -2  -4 10.0043 37.5602   1
   7  -2  -3 37.8495 34.3314   1
   7  -2  -3 107.248 54.1637  12
  -7   2   3 32.9708 48.4158   8
   7  -2  -2 36.7304 51.9332  12
   7  -2  -1 186.420 59.9264  12
  -7   2   0 79.5066 45.8737   8
  -7   2  -1 50.3262 42.7011   8
  -7   2  -2 131.406 46.1121   8
  -7   2  -3 14.5258 39.0688   8
  -7   2  -4 148.751 45.1773   8
  -7   2  -5 152.246 44.3293   8
   7  -2   6 23.4566 99.1119  16
  -7   2  -6 40.7566 38.0059   8
   7  -2   7 9.49265 101.094  16
   7  -2   8 32.7693 99.1447  16
  -7   1   8 65.0146 45.7878   8
   7  -1  -7 42.4690 45.2230  12
  -7   1   7-13.1372 44.0281   8
   7  -1  -6 206.755 54.7021  12
  -7   1   6 298.318 58.8010   8
   7  -1  -5 18.4127 46.2692  12
  -7   1   5 21.1508 48.5341   8
   7  -1  -4 9.24599 48.0890  12
  -7   1   4-46.6566 50.7958   8
   7  -1  -3 242.581 56.0237  12
  -7   1   3 210.631 57.1721   8
   7  -1  -2 37.5417 48.2027  12
  -7   1   2 68.1125 48.2723   8
   7  -1  -1 55.9211 50.2055  12
  -7   1   1 85.5702 48.6444   8
   7  -1   0 5.05910 50.5338  12
  -7   1   0 28.1227 46.5884   8
   7  -1   1 52.3290 54.8000  12
  -7   1  -1 34.7274 44.8214   8
   7  -1   2 26.5134 52.6839  12
   7  -1   3-2.69572 51.1157  12
  -7   1  -3 16.3200 44.5012   8
   7  -1   3-53.2676 92.6999  16
   7  -1   4 242.890 63.4595  12
  -7   1  -4 249.685 54.7478   8
   7  -1   4 92.4264 100.693  16
  -7   1  -5 241.391 54.5301   8
   7  -1   5 166.988 104.753  16
   7  -1   5 105.028 59.5201  12
  -7   1  -6 144.272 49.7188   8
   7  -1   6-4.83829 101.014  16
   7  -1   6 84.2044 53.9908  12
  -7   1  -7 171.293 52.6215   8
   7  -1   7 39.4234 109.154  16
   7  -1   7 243.002 61.3842  12
   7  -1   8-24.4505 104.637  16
  -7   0   9 2.40006 40.7732   8
  -7   0   8 25.8244 45.9583   8
  -7   0   7-53.3885 70.7522  15
  -7   0   7-2.66642 47.6573   8
  -7   0   6 265.795 61.5116   8
   7   0  -5 114.141 44.7208  12
  -7   0   5 167.623 53.9310   8
  -7   0   5 16.7916 71.1449  15
   7   0  -4 283.401 53.8906  12
  -7   0   4 356.808 60.4814   8
   7   0  -3 13.8609 43.0299  12
  -7   0   3 24.9205 43.7848   8
  -7   0   3-33.7581 68.1401  15
   7   0  -2 76.0693 44.6338  12
  -7   0   2 128.145 48.0587   8
  -7   0   2-4.29105 71.1271  15
   7   0  -1 46.8939 46.2450  12
  -7   0   1-17.3089 46.7468   8
   7   0  -1 7.27789 41.0528  14
   7   0   0 19.5305 45.4093  12
  -7   0   0 52.4261 49.6535   8
   7   0   0 51.0509 48.6100  14
   7   0   1-61.9250 46.8937  12
  -7   0  -1-40.4082 48.9673   8
   7   0   1-36.6609 53.3702  14
   7   0   2 67.8576 48.4853  12
  -7   0  -2 28.0381 49.4967   8
   7   0   2 55.9418 57.2136  14
  -7   0  -3-15.7432 51.4421   8
   7   0   3 61.1227 90.3786  16
  -7   0  -3 34.3719 57.2579  15
   7   0   3-28.5747 62.0836  14
   7   0   3-39.5284 47.4871  12
  -7   0  -4 49.2079 54.8552   8
   7   0   4 168.585 97.3840  16
  -7   0  -4-3.15901 53.5754  15
   7   0   4 3.19132 67.4164  14
   7   0   4 4.83615 48.2455  12
   7   0   5 4.71184 98.8556  16
  -7   0  -5 29.5856 52.9195  15
   7   0   5-53.4482 50.5820  12
  -7   0  -6 173.106 62.1656   8
   7   0   6 34.3872 105.819  16
  -7   0  -7 11.2625 54.8039   8
   7   0   7-84.9363 101.145  16
  -7  -1   8 29.7804 42.0327   8
  -7  -1   7 45.9647 46.6217   8
  -7  -1   6-13.5360 78.8473  15
  -7  -1   6 17.9564 47.7786   8
  -7  -1   5 129.125 50.9986   8
  -7  -1   5 43.8858 75.6745  15
  -7  -1   4 62.7337 46.2862   8
  -7  -1   4 12.9193 73.7243  15
  -7  -1   3 206.841 54.7209   8
  -7  -1   3 77.4428 77.0737  15
   7   1  -3 237.411 57.7453  14
  -7  -1   2 85.2556 49.6819   8
  -7  -1   2 4.32826 77.4939  15
   7   1  -2 49.9318 53.5243  14
  -7  -1   1-10.6649 48.2321   8
  -7  -1   1-68.2711 69.7516  15
   7   1  -1 9.54911 54.2019  14
  -7  -1   0-35.6657 51.9912   8
  -7  -1   0 113.799 70.8440  15
   7   1   0 83.2956 58.2887  14
  -7  -1  -1 52.9070 56.0611   8
   7   1   1 5.44657 58.0773  14
  -7  -1  -2 148.381 56.0443   8
  -7  -1  -2 30.4516 58.7032  15
   7   1   2 114.184 67.0423  14
  -7  -1  -3 178.324 59.8237   8
   7   1   3 63.2551 95.0631  16
  -7  -1  -3 24.9107 53.2591  15
  -7  -1  -4 94.1506 57.6684   8
  -7  -1  -4-8.92773 52.5580  15
  -7  -1  -5 9.42978 56.8293   8
   7   1   5 24.4058 100.241  16
   7   1   5-23.9283 83.1292  14
  -7  -1  -6 50.6644 59.4273   8
   7   1   6 183.920 104.331  16
   7   1   7-87.3427 101.987  16
  -7  -2   9 128.243 43.3039   8
  -7  -2   8 205.722 50.9848   8
  -7  -2   6-14.3843 43.4121   8
  -7  -2   6-8.82008 44.4777   2
  -7  -2   5 9.25246 47.1321   2
  -7  -2   5 99.7508 47.4459   8
  -7  -2   5 81.2278 80.9268  15
  -7  -2   4 260.584 61.3957   2
  -7  -2   4 304.315 59.0614   8
  -7  -2   3 47.1221 49.9410   8
  -7  -2   3 89.2193 78.4406  15
  -7  -2   2 164.491 57.3001   8
  -7  -2   2-45.8586 77.7985  15
   7   2  -2 60.6707 69.6457  14
  -7  -2   1-11.8604 54.9136   8
  -7  -2   1 39.1550 73.5091  15
   7   2  -1 24.0348 66.7519  14
  -7  -2   0-46.1144 55.4357   8
  -7  -2  -1 157.350 61.0903   8
  -7  -2  -1 21.7150 63.2472  15
  -7  -2  -2 31.4576 59.3188   8
  -7  -2  -2-19.8703 56.0276  15
   7   2   2-23.7705 69.6054  14
  -7  -2  -3 40.8277 60.4566   8
   7   2   3 76.6883 77.2173  14
  -7  -2  -4-43.9607 63.4439   8
   7   2   4 73.2414 103.432  16
   7   2   4-96.8472 81.2920  14
  -7  -2  -5-37.7310 58.0584   8
   7   2   5-144.113 110.986  16
   7   2   5 40.1386 83.9750  14
  -7  -2  -6 64.5817 56.9496   8
   7   2   6 77.7112 102.483  16
  -7  -3   8 334.667 60.8332   2
  -7  -3   8 250.675 51.8993   8
  -7  -3   7 94.1638 43.2281   8
  -7  -3   7 138.635 52.4964   2
   7   3  -6-31.1379 57.2343  10
  -7  -3   6-4.43856 41.5914   8
  -7  -3   6-47.3776 53.2348   2
   7   3  -5 104.748 59.0226  10
  -7  -3   5 59.8335 57.0737   2
   7   3  -4 496.375 87.5928  10
  -7  -3   4 529.444 89.3883   2
   7   3  -3 111.474 59.0600  10
  -7  -3   3 32.2303 50.5023   8
   7   3  -2-28.0769 57.2917  10
  -7  -3   2 20.7752 57.2690   8
   7   3  -1 2.93384 52.1354  10
  -7  -3   1 61.6750 63.8347   8
   7   3  -1-51.0537 74.3823  14
  -7  -3   0 132.227 66.4933   8
   7   3   0-37.0239 73.5832  14
  -7  -3  -1 166.816 68.6151   8
   7   3   1 135.665 75.5697  14
  -7  -3  -2 3.31629 62.9569   8
   7   3   2-20.7376 74.1969  14
  -7  -3  -3-6.35016 60.3167   8
   7   3   3-49.5167 75.8939  14
  -7  -3  -4 66.9986 57.2524   8
   7   3   4-68.1470 73.6729  14
  -7  -3  -5-26.3171 53.2513   8
   7   3   5-56.7597 76.7647  14
   7   4  -8 220.770 57.8994  10
   7   4  -7-32.2157 51.8007  10
  -7  -4   7-9.39833 36.2460   8
  -7  -4   7-76.1389 55.9290   2
   7   4  -6 60.0781 58.0073  10
  -7  -4   6 154.769 59.4800   2
  -7  -4   6 97.3698 40.8572   8
   7   4  -5 113.381 61.0210  10
  -7  -4   5-19.1232 63.5066   2
  -7  -4   5-31.5388 39.6478   8
   7   4  -4 10.1430 61.4271  10
  -7  -4   4 4.53314 43.8791   8
   7   4  -3 45.8113 58.2861  10
  -7  -4   3 97.9916 48.8346   8
   7   4  -2 3.05710 51.9663  10
  -7  -4   2 67.3864 53.0349   8
   7   4  -2-51.1202 75.7139  14
   7   4  -1-65.1043 74.9153  14
   7   4   0 277.938 82.8516  14
  -7  -4  -1 22.6234 59.7145   8
   7   4   1 71.3326 71.2794  14
  -7  -4  -2-18.6188 56.2910   8
   7   4   2-79.5371 68.6846  14
  -7  -4  -3 55.6945 51.4347   8
   7   4   3 12.6648 64.1483  14
   7   5  -6-25.7133 50.8936  10
   7   5  -5 38.8544 50.8543  10
   7   5  -4 93.4492 53.3709  10
   7   5  -3 29.0076 48.9554  10
   7   5  -2 86.4800 72.9623  14
   7   5  -1 137.986 71.3641  14
   8  -3  -2 19.2939 52.9903  12
   8  -3  -1-16.9871 54.5222  12
  -8   3   1-8.06036 37.6710   8
   8  -3   0 124.538 58.5253  12
  -8   3   0 32.9727 37.2472   8
   8  -3   1 32.2645 57.2120  12
  -8   3  -1 109.206 37.3663   8
   8  -3   2-29.0323 55.2496  12
   8  -3   3 5.71261 53.3775  12
   8  -3   4 143.733 56.9935  12
   8  -2  -3 2.54038 49.9622  12
  -8   2   3-9.64395 79.9755  15
  -8   2   3 21.0213 43.9545   8
   8  -2  -2 5.26657 52.5878  12
  -8   2   2 41.5253 44.5912   8
   8  -2  -1 127.209 56.5598  12
  -8   2   1 65.2983 44.8151   8
   8  -2   0 212.354 63.5285  12
  -8   2   0 264.188 51.9370   8
   8  -2   1-24.7967 53.1660  12
  -8   2  -1 25.0111 39.4828   8
   8  -2   2-13.6536 51.3280  12
  -8   2  -2-8.00198 37.4810   8
   8  -2   3-8.09770 50.1522  12
  -8   2  -3-1.92658 35.5067   8
   8  -2   4 47.3222 51.0807  12
  -8   2  -4 58.8195 37.3644   8
  -8   1   6 205.238 50.7181   8
  -8   1   5 138.653 49.0105   8
  -8   1   4-22.8936 75.6188  15
  -8   1   4 108.576 47.0376   8
  -8   1   3 71.7186 45.6610   8
  -8   1   3 28.3810 78.1144  15
   8  -1  -2 118.025 50.2362  12
  -8   1   2 104.383 46.1391   8
  -8   1   2-38.5961 80.9731  15
   8  -1  -1 26.5952 50.0722  12
  -8   1   1-35.6530 45.5670   8
  -8   1   1 58.3287 78.9602  15
   8  -1   0 143.735 50.7873  12
   8  -1   1 53.7762 48.5649  12
   8  -1   2 78.0657 48.2156  12
  -8   1  -2 15.7958 42.2939   8
  -8   1  -3 2.24698 42.4899   8
  -8   1  -3 110.282 68.2980  15
   8  -1   3-14.6146 47.3721  12
  -8   1  -4 53.6239 42.8730   8
  -8   1  -4-46.0431 59.2235  15
   8  -1   4 116.508 48.0616  12
  -8   1  -5 32.6911 41.6384   8
  -8   0   6 46.1701 74.7146  15
  -8   0   6 268.822 52.2331   8
  -8   0   5-34.9225 69.3143  15
  -8   0   5 45.0415 46.2639   8
  -8   0   4-48.1844 48.4037   8
  -8   0   4-35.7502 73.7106  15
  -8   0   3 121.698 48.1871   8
  -8   0   3 4.59212 76.0033  15
  -8   0   2 181.621 49.3263   8
  -8   0   2-32.9244 80.3230  15
  -8   0   1 7.52614 48.3114   8
  -8   0   1 14.1604 78.1731  15
  -8   0   0 10.0258 45.8172   8
  -8   0   0 64.2120 78.9161  15
  -8   0  -1 110.338 49.3884   8
  -8   0  -2 116.453 49.8939   8
  -8   0  -2 23.3658 66.3018  15
  -8   0  -3 24.4071 60.0150  15
  -8   0  -4 2.62644 48.6295   8
  -8   0  -5-28.7847 49.2068   8
  -8  -1   6-86.1994 71.5117  15
  -8  -1   6 103.695 46.9877   8
  -8  -1   5 53.2099 70.6439  15
  -8  -1   5 12.5191 45.8807   8
  -8  -1   4-12.8028 46.7465   8
  -8  -1   4 13.6113 75.7909  15
  -8  -1   3-28.6932 49.1594   8
  -8  -1   3-27.9395 77.1681  15
  -8  -1   2 82.2691 48.6076   8
  -8  -1   2-28.1844 78.4139  15
  -8  -1   1 32.3233 51.7966   8
  -8  -1   1 32.2076 78.1233  15
  -8  -1   0 62.5558 51.0964   8
  -8  -1  -1-13.7287 51.2513   8
  -8  -1  -1 11.7371 65.1672  15
  -8  -1  -2 404.435 63.3411   8
   8   1   2 255.469 75.6272  14
  -8  -1  -3 143.723 55.0923   8
  -8  -1  -3 41.8108 54.1579  15
   8   1   3-3.24650 68.7535  14
  -8  -1  -4 19.9143 51.8476   8
  -8  -2   6 20.8361 42.1625   8
  -8  -2   5 7.34250 43.3836   8
  -8  -2   4-5.15404 45.2683   8
  -8  -2   3 16.1729 49.2057   8
  -8  -2   3-38.2917 79.1504  15
  -8  -2   2 101.522 53.5599   8
  -8  -2   2 37.7337 77.6256  15
  -8  -2   1 11.5974 50.7301   8
   8   2  -1-21.6004 58.7573  14
  -8  -2   0 111.571 56.2392   8
   8   2   0 22.6806 60.8970  14
  -8  -2  -1 14.5796 53.4767   8
   8   2   1 135.898 66.4601  14
  -8  -2  -2 109.543 54.3736   8
   8   2   2-6.40758 69.5465  14
  -8  -2  -3 5.61975 50.3027   8
   8   2   3-10.1350 70.7419  14
  -8  -3   2-54.2086 52.4613   8
   8   3  -2 62.2408 61.6224  14
  -8  -3   1 14.7696 52.6373   8
   8   3  -1 136.691 62.4780  14
  -8  -3   0-74.1359 56.3392   8
   8   3   0 26.1204 60.0967  14
  -8  -3  -1 51.9683 53.5863   8
   0   0   0    0.00    0.00   0

TITL sm300118_3_1 in P-1
REM P-1 (#2 in standard setting)
CELL 1.54184   8.483242   8.512348  14.559056 106.7476  92.2308  90.8767
ZERR    2.00   0.002155   0.001473   0.002646   0.0156   0.0177   0.0172
LATT  1
SFAC C O F Fe
UNIT 20.00 20.00 32.00 4.00
TREF
HKLF 4
END
;
_shelx_hkl_checksum              72895
_olex2_exptl_crystal_mounting_method tip-mounted
_olex2_submission_special_instructions 'No special instructions were received'
_oxdiff_exptl_absorpt_empirical_details
;
Empirical correction (ABSPACK) includes:
- Absorption correction using spherical harmonics
- Frame scaling
;
_oxdiff_exptl_absorpt_empirical_full_max 1.980
_oxdiff_exptl_absorpt_empirical_full_min 0.600
loop_
_space_group_symop_operation_xyz
'x, y, z'
'-x, -y, -z'
loop_
_atom_site_label
_atom_site_type_symbol
_atom_site_fract_x
_atom_site_fract_y
_atom_site_fract_z
_atom_site_U_iso_or_equiv
_atom_site_adp_type
_atom_site_occupancy
_atom_site_site_symmetry_order
_atom_site_calc_flag
_atom_site_refinement_flags_posn
_atom_site_refinement_flags_adp
_atom_site_refinement_flags_occupancy
_atom_site_disorder_assembly
_atom_site_disorder_group
Fe1 Fe 0.500000 0.500000 0.000000 0.0322(14) Uani 1 2 d S TU P . .
Fe2 Fe 0.4239(4) 0.6355(4) 0.2414(2) 0.0318(11) Uani 1 1 d . U . . .
Fe3 Fe 0.500000 0.500000 0.500000 0.0374(15) Uani 1 2 d S TU P . .
F1 F 0.9309(18) 0.7466(16) 0.3346(10) 0.071(5) Uani 1 1 d . U . . .
F2 F 0.9225(17) 0.4935(16) 0.2561(10) 0.066(4) Uani 1 1 d . U . . .
F3 F 0.9944(19) 0.569(2) 0.4053(11) 0.087(5) Uani 1 1 d . U . . .
F4 F 0.129(2) 0.1989(18) 0.1892(12) 0.100(6) Uani 1 1 d . U . . .
F5 F 0.2674(19) 0.0548(16) 0.2620(11) 0.075(5) Uani 1 1 d . U . . .
F6 F 0.0829(19) 0.205(2) 0.3317(13) 0.098(6) Uani 1 1 d . U . . .
F7 F -0.0622(14) 0.7211(16) 0.1184(8) 0.047(3) Uani 1 1 d . U . . .
F8 F -0.0115(14) 0.6477(14) -0.0317(8) 0.044(3) Uani 1 1 d . U . . .
F9 F 0.0716(15) 0.8816(14) 0.0610(8) 0.048(3) Uani 1 1 d . U . . .
F10A F 0.113(5) 0.903(5) 0.523(3) 0.060(3) Uiso 0.391(17) 1 d . U . A 2
F10 F 0.158(3) 0.889(3) 0.5639(18) 0.060(3) Uiso 0.609(17) 1 d . U . A 1
F11 F 0.188(3) 1.034(3) 0.4691(16) 0.060(3) Uiso 0.609(17) 1 d . U . A 1
F11A F 0.293(5) 1.079(5) 0.496(3) 0.060(3) Uiso 0.391(17) 1 d . U . A 2
F12A F 0.348(4) 0.970(5) 0.600(3) 0.060(3) Uiso 0.391(17) 1 d . U . A 2
F12 F 0.370(3) 1.033(3) 0.5685(17) 0.060(3) Uiso 0.609(17) 1 d . U . A 1
F13A F 0.672(4) 1.108(4) 0.2243(12) 0.056(3) Uiso 0.337(16) 1 d D U . B 2
F13 F 0.7647(19) 1.051(2) 0.2087(10) 0.056(3) Uiso 0.663(16) 1 d D U . B 1
F14A F 0.766(2) 1.005(4) 0.0836(17) 0.056(3) Uiso 0.337(16) 1 d D U . B 2
F14 F 0.717(2) 1.012(2) 0.0559(10) 0.056(3) Uiso 0.663(16) 1 d D U . B 1
F15A F 0.521(2) 1.078(3) 0.097(2) 0.056(3) Uiso 0.337(16) 1 d D U . B 2
F15 F 0.5366(18) 1.114(2) 0.1558(14) 0.056(3) Uiso 0.663(16) 1 d D U . B 1
F16 F 0.4962(14) 0.4781(13) 0.1269(7) 0.035(3) Uani 1 1 d . U . . .
O1 O 0.6277(17) 0.6118(17) 0.3045(10) 0.042(4) Uiso 1 1 d . U . . .
O2 O 0.6930(16) 0.5309(17) 0.4341(10) 0.038(4) Uiso 1 1 d . U . . .
O3 O 0.3916(17) 0.3455(18) 0.3845(10) 0.047(4) Uiso 1 1 d . U . . .
O4 O 0.3082(17) 0.4500(18) 0.2682(10) 0.046(4) Uiso 1 1 d . U . . .
O5 O 0.2312(15) 0.6722(16) 0.1675(9) 0.030(3) Uiso 1 1 d . U . . .
O6 O 0.2830(16) 0.5937(17) 0.0111(9) 0.036(4) Uiso 1 1 d . U . . .
O7 O 0.3958(17) 0.6924(17) 0.4773(10) 0.043(4) Uiso 1 1 d D U . . .
O8 O 0.3447(15) 0.7928(16) 0.3558(9) 0.034(4) Uiso 1 1 d D U . . .
O9 O 0.5286(18) 0.8184(19) 0.2041(11) 0.049(4) Uiso 1 1 d . U . . .
O10 O 0.5888(15) 0.7281(16) 0.0500(9) 0.034(4) Uiso 1 1 d . U . . .
C0 C 0.6383(19) 1.011(2) 0.1352(11) 0.048(7) Uiso 0.337(16) 1 d D U . B 2
C1 C 0.722(3) 0.573(3) 0.3610(17) 0.047(6) Uiso 1 1 d . U . . .
C2 C 0.893(3) 0.593(3) 0.3406(18) 0.046(6) Uiso 1 1 d . U . . .
C3 C 0.306(3) 0.339(3) 0.3133(16) 0.039(6) Uiso 1 1 d . U . . .
C4 C 0.199(3) 0.200(3) 0.273(2) 0.060(7) Uiso 1 1 d . U . . .
C5 C 0.203(2) 0.654(2) 0.0801(14) 0.031(5) Uiso 1 1 d . U . . .
C6 C 0.043(3) 0.725(3) 0.0566(16) 0.038(6) Uiso 1 1 d . U . . .
C7 C 0.338(2) 0.808(2) 0.4458(11) 0.035(6) Uiso 1 1 d D U . . .
C8 C 0.271(3) 0.930(3) 0.5098(17) 0.051(7) Uiso 1 1 d D U . . .
C9 C 0.589(2) 0.828(2) 0.1276(14) 0.029(5) Uiso 1 1 d D U . . .
C10 C 0.6536(14) 1.0077(19) 0.1377(8) 0.048(7) Uiso 0.663(16) 1 d D U . B 1
loop_
_atom_site_aniso_label
_atom_site_aniso_U_11
_atom_site_aniso_U_22
_atom_site_aniso_U_33
_atom_site_aniso_U_23
_atom_site_aniso_U_13
_atom_site_aniso_U_12
Fe1 0.046(3) 0.034(3) 0.016(2) 0.006(2) 0.004(2) 0.005(2)
Fe2 0.050(2) 0.031(2) 0.0175(18) 0.0100(15) 0.0047(16) 0.0048(17)
Fe3 0.057(4) 0.037(3) 0.024(3) 0.017(2) 0.008(2) 0.010(3)
F1 0.109(13) 0.035(8) 0.075(10) 0.020(7) 0.041(9) -0.001(8)
F2 0.081(11) 0.057(9) 0.059(9) 0.013(8) 0.024(8) 0.015(8)
F3 0.082(12) 0.119(15) 0.056(10) 0.019(9) 0.011(9) 0.018(10)
F4 0.165(18) 0.047(10) 0.084(12) 0.018(9) -0.058(12) -0.020(10)
F5 0.105(13) 0.036(9) 0.083(11) 0.020(8) -0.013(9) 0.006(8)
F6 0.086(12) 0.090(13) 0.121(15) 0.029(11) 0.048(11) -0.010(10)
F7 0.046(8) 0.066(9) 0.040(7) 0.029(7) 0.013(6) 0.018(7)
F8 0.052(8) 0.052(8) 0.024(7) 0.007(6) -0.012(6) -0.007(7)
F9 0.067(9) 0.024(7) 0.056(8) 0.016(6) 0.000(7) 0.008(6)
F16 0.057(8) 0.029(7) 0.022(5) 0.009(5) 0.012(6) 0.011(6)
loop_
_atom_type_symbol
_atom_type_description
_atom_type_scat_dispersion_real
_atom_type_scat_dispersion_imag
_atom_type_scat_source
C C 0.0181 0.0091 'International Tables Vol C Tables 4.2.6.8 and 6.1.1.4'
O O 0.0492 0.0322 'International Tables Vol C Tables 4.2.6.8 and 6.1.1.4'
F F 0.0727 0.0534 'International Tables Vol C Tables 4.2.6.8 and 6.1.1.4'
Fe Fe -1.1336 3.1974 'International Tables Vol C Tables 4.2.6.8 and 6.1.1.4'
loop_
_exptl_crystal_face_index_h
_exptl_crystal_face_index_k
_exptl_crystal_face_index_l
_exptl_crystal_face_perp_dist
0 3 -9 0.0610
0 -3 9 0.0610
0 -5 0 0.0089
0 5 0 0.0089
5 -1 0 0.0052
-5 1 0 0.0052
loop_
_geom_angle_atom_site_label_1
_geom_angle_atom_site_label_2
_geom_angle_atom_site_label_3
_geom_angle
_geom_angle_site_symmetry_1
_geom_angle_site_symmetry_3
_geom_angle_publ_flag
F16 Fe1 F16 180.0 . 2_665 ?
F16 Fe1 O6 91.2(5) . . ?
F16 Fe1 O6 88.8(5) 2_665 . ?
F16 Fe1 O6 91.2(5) 2_665 2_665 ?
F16 Fe1 O6 88.8(5) . 2_665 ?
F16 Fe1 O10 88.7(5) . 2_665 ?
F16 Fe1 O10 91.3(5) 2_665 2_665 ?
F16 Fe1 O10 91.3(5) . . ?
F16 Fe1 O10 88.7(5) 2_665 . ?
O6 Fe1 O6 180.0 2_665 . ?
O10 Fe1 O6 88.4(5) 2_665 2_665 ?
O10 Fe1 O6 91.6(5) . 2_665 ?
O10 Fe1 O6 91.6(5) 2_665 . ?
O10 Fe1 O6 88.4(5) . . ?
O10 Fe1 O10 180.0 2_665 . ?
F16 Fe2 O1 87.2(5) . . ?
F16 Fe2 O4 87.4(5) . . ?
F16 Fe2 O5 90.1(5) . . ?
F16 Fe2 O8 178.4(6) . . ?
F16 Fe2 O9 90.3(5) . . ?
O1 Fe2 O4 97.8(6) . . ?
O1 Fe2 O5 173.2(6) . . ?
O1 Fe2 O9 86.4(6) . . ?
O4 Fe2 O5 88.3(6) . . ?
O4 Fe2 O9 175.1(6) . . ?
O8 Fe2 O1 94.3(6) . . ?
O8 Fe2 O4 91.8(6) . . ?
O8 Fe2 O5 88.5(5) . . ?
O8 Fe2 O9 90.4(6) . . ?
O9 Fe2 O5 87.3(6) . . ?
O2 Fe3 O2 180.0 . 2_666 ?
O2 Fe3 O3 84.7(6) . 2_666 ?
O2 Fe3 O3 95.3(6) 2_666 2_666 ?
O2 Fe3 O3 95.3(6) . . ?
O2 Fe3 O3 84.7(6) 2_666 . ?
O3 Fe3 O3 180.0(8) . 2_666 ?
O7 Fe3 O2 93.9(6) 2_666 2_666 ?
O7 Fe3 O2 86.1(6) . 2_666 ?
O7 Fe3 O2 86.1(6) 2_666 . ?
O7 Fe3 O2 93.9(6) . . ?
O7 Fe3 O3 87.4(6) 2_666 . ?
O7 Fe3 O3 87.4(6) . 2_666 ?
O7 Fe3 O3 92.6(6) 2_666 2_666 ?
O7 Fe3 O3 92.6(6) . . ?
O7 Fe3 O7 180.0 . 2_666 ?
Fe1 F16 Fe2 127.8(6) . . ?
C1 O1 Fe2 158.4(16) . . ?
C1 O2 Fe3 135.6(15) . . ?
C3 O3 Fe3 143.4(15) . . ?
C3 O4 Fe2 147.8(14) . . ?
C5 O5 Fe2 132.6(13) . . ?
C5 O6 Fe1 132.7(13) . . ?
C7 O7 Fe3 168.9(12) . . ?
C7 O8 Fe2 137.8(12) . . ?
C9 O9 Fe2 133.5(14) . . ?
C9 O10 Fe1 132.8(13) . . ?
F13A C0 C9 115(2) . . ?
F14A C0 F13A 108.7(13) . . ?
F14A C0 F15A 109.3(13) . . ?
F14A C0 C9 107(2) . . ?
F15A C0 F13A 108.1(12) . . ?
F15A C0 C9 108.9(18) . . ?
O1 C1 O2 128(2) . . ?
O1 C1 C2 114(2) . . ?
O2 C1 C2 118(2) . . ?
F1 C2 C1 113(2) . . ?
F2 C2 F1 105.0(18) . . ?
F2 C2 C1 109(2) . . ?
F3 C2 F1 105(2) . . ?
F3 C2 F2 109(2) . . ?
F3 C2 C1 115(2) . . ?
O3 C3 O4 123(2) . . ?
O3 C3 C4 121(2) . . ?
O4 C3 C4 116(2) . . ?
F4 C4 F5 108(2) . . ?
F4 C4 C3 114(2) . . ?
F5 C4 C3 113(2) . . ?
F6 C4 F4 105(2) . . ?
F6 C4 F5 106(2) . . ?
F6 C4 C3 109(2) . . ?
O5 C5 C6 114.5(18) . . ?
O6 C5 O5 130(2) . . ?
O6 C5 C6 115.7(17) . . ?
F7 C6 F8 110.3(18) . . ?
F7 C6 F9 108.0(18) . . ?
F7 C6 C5 112.2(17) . . ?
F8 C6 F9 107.9(17) . . ?
F8 C6 C5 111.2(18) . . ?
F9 C6 C5 107.2(17) . . ?
O7 C7 C8 116.8(17) . . ?
O8 C7 O7 117.8(15) . . ?
O8 C7 C8 125.4(18) . . ?
F10A C8 F12A 107(3) . . ?
F10 C8 F11 101(2) . . ?
F11A C8 F10A 110(3) . . ?
F11A C8 F12A 96(3) . . ?
F12 C8 F10 107(2) . . ?
F12 C8 F11 101(2) . . ?
F12 C8 C7 115(2) . . ?
C7 C8 F10A 115(2) . . ?
C7 C8 F10 117(2) . . ?
C7 C8 F11 114(2) . . ?
C7 C8 F11A 114(2) . . ?
C7 C8 F12A 113(2) . . ?
O9 C9 C0 111.2(17) . . ?
O9 C9 C10 111.7(16) . . ?
O10 C9 O9 129(2) . . ?
O10 C9 C0 118.3(17) . . ?
O10 C9 C10 118.6(16) . . ?
F13 C10 F14 108.8(11) . . ?
F13 C10 F15 109.9(11) . . ?
F13 C10 C9 109.4(15) . . ?
F14 C10 F15 108.6(11) . . ?
F14 C10 C9 109.7(15) . . ?
F15 C10 C9 110.6(14) . . ?
loop_
_geom_bond_atom_site_label_1
_geom_bond_atom_site_label_2
_geom_bond_distance
_geom_bond_site_symmetry_2
_geom_bond_publ_flag
Fe1 F16 1.911(10) . ?
Fe1 F16 1.911(10) 2_665 ?
Fe1 O6 2.011(14) 2_665 ?
Fe1 O6 2.011(14) . ?
Fe1 O10 1.991(13) 2_665 ?
Fe1 O10 1.991(13) . ?
Fe2 F16 1.942(10) . ?
Fe2 O1 1.966(15) . ?
Fe2 O4 1.986(15) . ?
Fe2 O5 2.000(13) . ?
Fe2 O8 1.960(13) . ?
Fe2 O9 1.998(15) . ?
Fe3 O2 1.981(14) 2_666 ?
Fe3 O2 1.981(14) . ?
Fe3 O3 1.993(15) . ?
Fe3 O3 1.993(15) 2_666 ?
Fe3 O7 1.976(14) 2_666 ?
Fe3 O7 1.976(14) . ?
F1 C2 1.37(3) . ?
F2 C2 1.31(3) . ?
F3 C2 1.31(3) . ?
F4 C4 1.33(3) . ?
F5 C4 1.34(3) . ?
F6 C4 1.32(3) . ?
F7 C6 1.30(2) . ?
F8 C6 1.33(2) . ?
F9 C6 1.33(2) . ?
F10A C8 1.39(4) . ?
F10 C8 1.37(3) . ?
F11 C8 1.39(3) . ?
F11A C8 1.35(4) . ?
F12A C8 1.39(4) . ?
F12 C8 1.30(3) . ?
F13A C0 1.337(9) . ?
F13 C10 1.337(9) . ?
F14A C0 1.337(9) . ?
F14 C10 1.337(9) . ?
F15A C0 1.337(9) . ?
F15 C10 1.337(9) . ?
O1 C1 1.24(2) . ?
O2 C1 1.25(2) . ?
O3 C3 1.23(2) . ?
O4 C3 1.30(2) . ?
O5 C5 1.25(2) . ?
O6 C5 1.23(2) . ?
O7 C7 1.293(14) . ?
O8 C7 1.285(14) . ?
O9 C9 1.27(2) . ?
O10 C9 1.20(2) . ?
C0 C9 1.58(3) . ?
C1 C2 1.51(3) . ?
C3 C4 1.45(3) . ?
C5 C6 1.55(3) . ?
C7 C8 1.332(16) . ?
C9 C10 1.58(3) . ?
loop_
_exptl_oxdiff_crystal_face_indexfrac_h
_exptl_oxdiff_crystal_face_indexfrac_k
_exptl_oxdiff_crystal_face_indexfrac_l
_exptl_oxdiff_crystal_face_x
_exptl_oxdiff_crystal_face_y
_exptl_oxdiff_crystal_face_z
0.0000 3.0000 -9.0000 0.2391 0.3846 -0.8839
-0.0000 -3.0000 9.0000 -0.2391 -0.3846 0.8839
-0.0000 -5.0000 0.0000 0.8029 -0.3338 0.3708
0.0000 5.0000 -0.0000 -0.8029 0.3338 -0.3708
5.0000 -1.0000 0.0000 0.2752 0.7362 0.4847
-5.0000 1.0000 -0.0000 -0.2752 -0.7362 -0.4847
