#------------------------------------------------------------------------------
#$Date: 2020-06-24 01:22:56 +0300 (Wed, 24 Jun 2020) $
#$Revision: 253375 $
#$URL: file:///home/coder/svn-repositories/cod/cif/4/00/35/4003589.cif $
#------------------------------------------------------------------------------
#
# This file is available in the Crystallography Open Database (COD),
# http://www.crystallography.net/
#
# All data on this site have been placed in the public domain by the
# contributors.
#
data_4003589
loop_
_publ_author_name
'Gai, Minqiang'
'Tong, Tinghao'
'Wang, Ying'
'Yang, Zhihua'
'Pan, Shilie'
_publ_section_title
;
 New Alkaline-Earth Metal Fluoroiodates Exhibiting Large Birefringence and
 Short Ultraviolet Cutoff Edge with Highly Polarizable (IO3F)2-- Units
;
_journal_name_full               'Chemistry of Materials'
_journal_paper_doi               10.1021/acs.chemmater.0c01452
_journal_year                    2020
_chemical_formula_moiety         'F2 I2 O5 Sr'
_chemical_formula_sum            'F2 I2 O5 Sr'
_chemical_formula_weight         459.42
_chemical_name_systematic        SrI2O5F2
_space_group_crystal_system      monoclinic
_space_group_IT_number           14
_space_group_name_Hall           '-P 2ybc'
_space_group_name_H-M_alt        'P 1 21/c 1'
_atom_sites_solution_primary     dual
_audit_creation_date             2020-01-17
_audit_creation_method
;
Olex2 1.2
(compiled 2018.05.29 svn.r3508 for OlexSys, GUI svn.r5506)
;
_cell_angle_alpha                90
_cell_angle_beta                 109.699(3)
_cell_angle_gamma                90
_cell_formula_units_Z            4
_cell_length_a                   10.462(3)
_cell_length_b                   7.2724(19)
_cell_length_c                   8.306(2)
_cell_measurement_reflns_used    1167
_cell_measurement_temperature    296.15
_cell_measurement_theta_max      27.45
_cell_measurement_theta_min      3.48
_cell_volume                     595.0(3)
_computing_cell_refinement       'SAINT v8.34A (Bruker, 2013)'
_computing_data_reduction        'SAINT v8.34A (Bruker, 2013)'
_computing_molecular_graphics    'Olex2 (Dolomanov et al., 2009)'
_computing_publication_material  'Olex2 (Dolomanov et al., 2009)'
_computing_structure_refinement  'ShelXL (Sheldrick, 2015)'
_computing_structure_solution    'ShelXT (Sheldrick, 2015)'
_diffrn_ambient_temperature      296.15
_diffrn_measured_fraction_theta_full 1.000
_diffrn_measured_fraction_theta_max 0.997
_diffrn_measurement_device_type  'Bruker APEX-II CCD'
_diffrn_measurement_method       '\f and \w scans'
_diffrn_radiation_type           MoK\a
_diffrn_radiation_wavelength     0.71073
_diffrn_reflns_av_R_equivalents  0.0367
_diffrn_reflns_av_unetI/netI     0.0475
_diffrn_reflns_Laue_measured_fraction_full 1.000
_diffrn_reflns_Laue_measured_fraction_max 0.997
_diffrn_reflns_limit_h_max       13
_diffrn_reflns_limit_h_min       -13
_diffrn_reflns_limit_k_max       4
_diffrn_reflns_limit_k_min       -9
_diffrn_reflns_limit_l_max       10
_diffrn_reflns_limit_l_min       -10
_diffrn_reflns_number            3531
_diffrn_reflns_point_group_measured_fraction_full 1.000
_diffrn_reflns_point_group_measured_fraction_max 0.997
_diffrn_reflns_theta_full        25.242
_diffrn_reflns_theta_max         27.449
_diffrn_reflns_theta_min         2.068
_diffrn_standards_number         0
_exptl_absorpt_coefficient_mu    19.448
_exptl_absorpt_correction_T_max  0.7456
_exptl_absorpt_correction_T_min  0.5011
_exptl_absorpt_correction_type   multi-scan
_exptl_absorpt_process_details
'SADABS-2014/5 (Bruker,2014/5) was used for absorption correction. wR2(int) was 0.1036 before and 0.0468 after correction. The Ratio of minimum to maximum transmission is 0.6721. The \l/2 correction factor is 0.00150.'
_exptl_crystal_colour            'clear colourless'
_exptl_crystal_colour_lustre     clear
_exptl_crystal_colour_primary    colourless
_exptl_crystal_density_diffrn    5.129
_exptl_crystal_description       prism
_exptl_crystal_F_000             808
_refine_diff_density_max         1.207
_refine_diff_density_min         -1.216
_refine_diff_density_rms         0.297
_refine_ls_extinction_method     none
_refine_ls_goodness_of_fit_ref   1.025
_refine_ls_hydrogen_treatment    undef
_refine_ls_matrix_type           full
_refine_ls_number_parameters     91
_refine_ls_number_reflns         1368
_refine_ls_number_restraints     6
_refine_ls_restrained_S_all      1.024
_refine_ls_R_factor_all          0.0350
_refine_ls_R_factor_gt           0.0266
_refine_ls_shift/su_max          0.000
_refine_ls_shift/su_mean         0.000
_refine_ls_structure_factor_coef Fsqd
_refine_ls_weighting_details
'w=1/[\s^2^(Fo^2^)+(0.0158P)^2^] where P=(Fo^2^+2Fc^2^)/3'
_refine_ls_weighting_scheme      calc
_refine_ls_wR_factor_gt          0.0534
_refine_ls_wR_factor_ref         0.0566
_reflns_Friedel_coverage         0.000
_reflns_number_gt                1158
_reflns_number_total             1368
_reflns_threshold_expression     'I > 2\s(I)'
_cod_data_source_file            cm0c01452_si_003.cif
_cod_data_source_block           1111111
_cod_original_cell_volume        594.9(3)
_cod_database_code               4003589
_shelx_shelxl_version_number     2018/3
_shelx_space_group_comment
;
The symmetry employed for this shelxl refinement is uniquely defined
by the following loop, which should always be used as a source of
symmetry information in preference to the above space-group names.
They are only intended as comments.
;
_olex2_refinement_description
;
1. Uiso/Uaniso restraints and constraints
Uanis(O4) \\sim Ueq: with sigma of 0.005 and sigma for terminal atoms of 0.002
;
_shelx_res_file
;
TITL 1111111_a.res in P2(1)/c
    1111111.res
    created by SHELXL-2018/3 at 23:06:07 on 17-Jan-2020
REM Old TITL 1111111 in P21/c #14
REM SHELXT solution in P2(1)/c: R1 0.042, Rweak 0.001, Alpha 0.022
REM <I/s> 0.276 for 105 systematic absences, Orientation as input
REM Formula found by SHELXT: Sr I2 F3
CELL 0.71073 10.4617 7.2724 8.3057 90 109.699 90
ZERR 4 0.0027 0.0019 0.0022 0 0.003 0
LATT 1
SYMM -X,0.5+Y,0.5-Z
SFAC F I O Sr
UNIT 8 8 20 4
ISOR 0.005 0.002 O4

L.S. 10 0 0
PLAN  10
TEMP 23
list 4
fmap 2 53
acta
REM <olex2.extras>
REM <HklSrc "%.\\1111111.hkl">
REM </olex2.extras>

WGHT    0.015800
FVAR       0.26086
I1    2    0.775644    0.327941    0.849098    11.00000    0.00510    0.00360 =
         0.00399   -0.00030    0.00160   -0.00097
I2    2    0.427519    0.371340    0.656652    11.00000    0.00585    0.00393 =
         0.00741    0.00039    0.00372    0.00063
SR1   4    0.089943    0.162925    0.235130    11.00000    0.00684    0.00351 =
         0.00493   -0.00038    0.00234   -0.00003
F1    1    0.964226    0.153638    0.909921    11.00000    0.00499    0.00502 =
         0.00904   -0.00031    0.00212    0.00106
O2    3    0.835095    0.366776    1.073940    11.00000    0.00788    0.00364 =
         0.00364   -0.00151    0.00099   -0.00036
O1    3    0.874914    0.495156    0.785462    11.00000    0.00983    0.00357 =
         0.00967   -0.00163    0.00551   -0.00481
O3    3    0.614086    0.474214    0.801275    11.00000    0.00516    0.00694 =
         0.00932   -0.00010    0.00143    0.00459
O4    3    0.393120    0.593864    0.558786    11.00000    0.00929    0.00521 =
         0.00889    0.00154    0.00363    0.00172
O5    3    0.365487    0.399419    0.828908    11.00000    0.01051    0.01635 =
         0.00727   -0.00036    0.00580   -0.00239
F3    1    0.229822    0.294059    0.524032    11.00000    0.00760    0.00970 =
         0.00801   -0.00281    0.00062    0.00083
HKLF 4




REM  1111111_a.res in P2(1)/c
REM wR2 = 0.0566, GooF = S = 1.025, Restrained GooF = 1.024 for all data
REM R1 = 0.0266 for 1158 Fo > 4sig(Fo) and 0.0350 for all 1368 data
REM 91 parameters refined using 6 restraints

END

WGHT      0.0158      0.0000

REM Highest difference peak  1.207,  deepest hole -1.216,  1-sigma level  0.297
Q1    1   0.6797  0.1990  0.7526  11.00000  0.05    1.21
Q2    1   0.9428 -0.0220  0.8998  11.00000  0.05    1.09
Q3    1   0.9773  0.3054  1.0384  11.00000  0.05    1.09
Q4    1   0.8381  0.1842  0.8413  11.00000  0.05    1.07
Q5    1   0.3365  0.4381  0.4855  11.00000  0.05    1.04
Q6    1   0.6559  0.3280  0.8181  11.00000  0.05    1.03
Q7    1   0.8123  0.3824  1.2237  11.00000  0.05    1.02
Q8    1   0.8558  0.3068  0.9031  11.00000  0.05    0.95
Q9    1   0.4259  0.7039  0.5754  11.00000  0.05    0.95
Q10   1   0.3717  0.3646  0.5777  11.00000  0.05    0.92
;
_shelx_res_checksum              63680
_shelx_hkl_file
;
   0   0   1   -6.40    0.70
   0   0  -1    2.10    1.70
   0   0  -2 3870.91  127.89
   0   0   2 3932.21  127.39
   0   0   3    1.30    3.00
   0   0  -3    4.00    3.30
   0   0  -4 1031.20   44.80
   0   0   4  997.50   42.80
   0   0  -5   -4.00    4.80
   0   0   5    1.80    5.20
   0   0   6 1243.18   54.19
   0   0  -6 1098.09   55.89
   0   0  -7    4.90    9.80
   0   0   7    4.60    6.40
   0   0   8  150.78   22.00
   0   0  -8  145.89   26.00
   0   0   9   -1.40    9.50
   0   0  10 2131.69   99.79
   0  -1   0   -1.00    0.80
   0  -1   0   -0.30    1.00
   0   1   1   66.89    5.60
   0  -1   1   66.79    4.60
   0  -1   1   54.29    4.70
   0   1   2   86.19    6.80
   0  -1   2   88.29    7.80
   0   1  -3   -4.70    2.90
   0   1   3    7.30    3.10
   0  -1   3    8.30    3.80
   0  -1   3    6.80    2.70
   0   1   4    9.10    4.50
   0   1  -4   10.90    6.10
   0  -1   4   17.90    6.20
   0  -1  -4   22.70    7.00
   0   1   5    1.40    4.10
   0   1  -5   17.60    7.50
   0  -1  -5    1.50    5.00
   0  -1   5    1.80    4.40
   0   1  -6  368.86   29.90
   0   1   6  368.36   25.40
   0  -1  -6  394.06   29.10
   0  -1   6  377.36   26.60
   0   1  -7    1.80   11.90
   0   1   7    3.80    6.90
   0  -1  -7   -7.70    8.30
   0  -1   7   -0.40    5.80
   0   1   8  142.59   20.90
   0  -1  -8  153.48   27.20
   0  -1   8  194.58   24.60
   0   1   9   -4.30   11.00
   0  -1   9   15.40   11.00
   0  -1  10   53.69   18.60
   0  -2   0 1280.97   44.00
   0  -2   0 1264.47   45.50
   0  -2   1 8875.81  278.67
   0  -2  -1 8444.36  277.17
   0  -2   1 8828.72  279.57
   0  -2  -1 9079.89  280.37
   0   2   2   42.20    7.40
   0  -2   2   35.40    6.30
   0  -2  -2   26.50    5.10
   0  -2   2   32.10    5.50
   0   2   3  494.35   24.20
   0   2  -3  552.64   30.50
   0  -2   3  453.15   20.20
   0  -2  -3  488.95   22.90
   0  -2   3  486.05   25.00
   0   2   4   77.59   10.70
   0   2  -4   63.99   13.10
   0  -2   4   65.79    8.10
   0  -2   4   83.09   11.50
   0  -2  -4   91.19   10.30
   0   2  -5 2472.55  102.39
   0  -2  -5 2629.24   91.09
   0  -2   5 2560.94   97.49
   0   2   6   52.99   11.20
   0   2  -6   49.99   15.90
   0  -2  -6   45.90   12.80
   0  -2  -6   48.20    9.30
   0  -2   6   47.20   11.90
   0   2  -7  231.28   31.80
   0   2   7  274.87   24.10
   0  -2   7  229.48   26.50
   0  -2  -7  265.17   32.40
   0  -2   8  138.69   22.40
   0  -2  -8  139.89   25.90
   0  -2  -9 1363.86   83.79
   0  -2   9 1497.85   74.89
   0  -3   0   -5.30    2.40
   0  -3   0   -3.20    2.20
   0  -3   1   25.40    5.40
   0  -3  -1   30.90    4.70
   0  -3   1   22.10    5.50
   0  -3  -1   27.90    5.90
   0  -3  -2  379.06   17.80
   0  -3  -2  369.86   20.30
   0  -3   2  370.86   20.50
   0  -3   3   -0.50    3.30
   0  -3  -3   -2.10    3.40
   0  -3  -3    3.00    3.70
   0  -3   3    0.80    5.20
   0   3   4  304.07   23.50
   0  -3   4  295.97   21.60
   0  -3  -4  307.07   19.50
   0  -3   4  326.77   16.90
   0   3   5  344.87   25.60
   0   3  -5  377.26   32.40
   0  -3   5  340.97   25.10
   0  -3  -5  330.77   21.50
   0   3  -6  166.98   26.40
   0  -3   6  136.59   19.10
   0  -3  -6  156.58   17.20
   0  -3   7  547.05   37.50
   0  -3  -7  549.74   42.30
   0  -3   8  236.98   30.80
   0  -3  -8  157.68   29.60
   0  -3  -9  129.49   29.70
   0  -3   9  231.98   30.70
   0  -4   0 5319.77  176.48
   0  -4   0 5211.18  172.48
   0  -4  -1 2242.08   75.59
   0  -4   1 2165.58   79.39
   0  -4  -1 2193.38   81.09
   0  -4   1 2143.69   78.49
   0  -4  -2  592.84   25.20
   0  -4  -2  577.04   30.00
   0  -4   2  603.74   29.70
   0  -4   2  593.24   29.60
   0  -4  -3   59.39    8.70
   0  -4   3   33.30    9.00
   0  -4  -3   28.10    7.60
   0  -4   3   40.50    9.40
   0  -4   4  798.42   40.10
   0  -4   4  730.33   34.60
   0  -4  -4  744.43   37.30
   0  -4  -5  182.38   19.80
   0  -4   5  159.38   20.50
   0  -4  -6  447.06   28.60
   0  -4   6  413.66   31.60
   0  -4   7   -5.10    6.90
   0  -4   8    7.90   11.10
   0  -4  -8   20.60   17.90
   0  -4  -9  745.73   64.59
   0  -4   9  769.42   54.49
   0  -5   0   -5.50    3.80
   0  -5   0   -0.50    3.90
   0  -5   1  462.15   27.60
   0  -5  -1  471.85   23.40
   0  -5  -1  459.05   27.90
   0  -5   1  440.26   25.30
   0  -5   2   -6.10    8.40
   0  -5   2   23.40    7.40
   0  -5  -2   12.30    6.60
   0  -5   3 1593.74   66.69
   0  -5  -3 1589.64   67.19
   0  -5   4  120.09   17.60
   0  -5  -4  129.79   17.60
   0  -5   5   12.80    8.40
   0  -5  -5   -1.20    6.80
   0  -5   6  262.97   30.40
   0  -5  -6  244.38   26.10
   0  -5   7  667.63   45.90
   0  -5  -7  639.54   44.50
   0  -5   8   84.69   20.50
   0  -6   0 3515.95  129.59
   0  -6   1  360.96   23.80
   0  -6  -1  326.87   26.00
   0  -6   1  373.96   28.00
   0  -6  -2 1137.79   54.99
   0  -6   2 1102.99   54.09
   0  -6   2 1129.69   51.79
   0  -6   3   10.90    7.30
   0  -6   3    2.90   11.10
   0  -6  -3   15.70    7.90
   0  -6   4   51.59   13.30
   0  -6  -4   70.09   15.40
   0  -6  -5  484.75   35.50
   0  -6   5  570.64   38.60
   0  -6  -6   53.59   15.50
   0  -6   6   43.90   14.20
   0  -6  -7   71.59   18.10
   0  -6   7   57.89   18.20
   0  -7   0   -5.10   10.00
   0  -7  -1   37.20   13.10
   0  -7   1   20.90   14.20
   0  -7  -2 1427.56   67.79
   0  -7   2 1332.17   66.09
   0  -7  -3  374.66   31.30
   0  -7   3  331.27   28.40
   0  -7   3  351.86   34.30
   0  -7  -4  459.95   36.40
   0  -7   4  538.85   38.10
   0  -7   5    6.90   10.60
   0  -7  -5   11.30   11.80
   0  -7   6  545.35   43.40
   0  -7  -6  504.35   40.90
   0  -8   0   15.50   16.60
   0  -8   1 1088.79   64.29
   0  -8  -1 1266.97   66.79
   0  -8   2   -7.20   14.40
   0  -8  -2    1.10   13.50
   0  -8  -3  173.98   26.90
   0  -8  -4   55.99   18.10
   0  -8   5   29.40   16.10
   0  -8  -5   38.80   17.50
   0  -9   0  -15.20   19.60
   0  -9   1  313.57   40.90
   0  -9  -1  221.98   35.70
   0  -9   2  568.34   49.30
   0  -9  -2  564.84   53.29
   0  -9  -3  633.24   53.79
  -1   0  10  179.68   27.30
   1   0  -9  -10.40   16.40
  -1   0   9    3.70    9.40
   1   0  -8 2074.09   97.79
  -1   0   8 2093.19   88.19
  -1   0   7   -6.90    5.60
   1   0  -7   10.80    9.90
   1   0  -6 2939.91  114.69
  -1   0   6 2942.71  108.59
   1   0  -5    0.30    5.00
  -1   0   5   -1.20    3.60
   1   0  -5    0.40    2.30
   1   0  -4    1.80    1.80
   1   0  -4    2.30    4.10
  -1   0   4   -1.80    3.00
   1   0  -3   -0.10    2.20
  -1   0   3    0.30    2.30
   1   0  -3    1.20    1.20
   1   0  -2 3758.82  122.99
  -1   0   2 3676.93  120.29
  -1   0   1   -1.70    0.50
   1   0  -1   -0.40    1.40
   1   0   0   31.40    3.70
   1   0   0   28.60    4.00
   1   0   1    0.60    1.50
   1   0   1    1.50    1.50
   1   0   2 5700.53  186.18
   1   0   2 5739.33  184.18
  -1   0  -2 5790.72  184.38
   1   0   3    0.60    2.70
  -1   0  -3    3.40    3.30
   1   0   4 5606.14  186.78
  -1   0  -4 5498.85  186.28
   1   0   5   -0.50    4.50
  -1   0  -5   -3.40    4.50
   1   0   6  952.50   47.90
  -1   0  -6  979.10   49.80
   1   0   7    5.50    7.00
  -1   0  -7   -0.80   10.40
   1   0   8  217.78   27.40
   1   0   9  -10.10    9.90
  -1  -1  10   18.70   13.20
  -1   1   9  289.37   31.00
  -1  -1   9  311.97   33.10
   1  -1  -9  261.97   37.20
  -1   1   8  692.33   41.60
   1   1  -8  691.83   51.99
   1  -1  -8  773.82   51.49
  -1  -1   8  778.22   45.50
  -1   1   7  505.95   31.00
   1   1  -7  423.96   37.40
   1  -1  -7  536.95   38.30
  -1  -1   7  505.45   32.90
   1   1  -6 1344.47   66.09
  -1   1   6 1390.16   58.09
  -1  -1   6 1424.66   61.19
   1  -1  -6 1401.36   64.89
   1   1  -5  189.48   21.50
  -1   1   5  215.38   16.00
  -1  -1   5  250.47   18.30
   1  -1  -5  233.28   20.10
   1  -1  -5  224.48   12.80
   1   1  -4  522.85   30.20
   1  -1  -4  530.15   21.50
  -1  -1   4  477.75   25.80
   1  -1  -4  497.75   27.80
   1   1  -3  448.46   25.30
  -1   1   3  443.06   19.80
  -1  -1   3  462.25   22.00
   1  -1  -3  445.46   18.60
   1   1  -2  591.94   27.60
  -1   1   2  568.44   20.80
  -1  -1   2  549.15   23.50
   1  -1  -2  526.05   21.20
   1   1  -1  249.58   14.80
  -1  -1   1  265.47   12.00
   1  -1  -1  248.38   11.50
   1  -1   0  116.19    5.90
   1  -1   0  121.29    7.70
   1   1   1  354.66   19.40
   1  -1   1  379.76   16.60
   1   1   2 1184.68   43.80
  -1   1  -2 1113.99   42.40
   1  -1   2 1108.79   41.40
   1  -1   2 1094.29   42.90
  -1   1  -3  295.17   17.90
   1   1   3  281.77   17.30
   1  -1   3  302.87   18.30
   1  -1   3  257.87   15.80
  -1   1  -4 2068.19   77.09
   1   1   4 2031.90   75.79
   1  -1   4 2005.20   76.69
   1  -1   4 1918.81   70.69
  -1   1  -5  150.38   19.10
   1   1   5  166.38   18.40
   1  -1   5  174.88   20.30
  -1  -1  -5  167.28   19.30
  -1   1  -6    8.00   10.00
   1   1   6   42.90   11.10
   1  -1   6   25.10    9.00
  -1  -1  -6   26.50   10.10
   1   1   7  253.17   26.90
  -1  -1  -7  197.18   26.20
   1  -1   7  221.78   25.90
   1   1   8  523.45   37.90
   1  -1   8  497.45   37.40
   1   1   9  393.36   39.60
   1  -1   9  314.27   36.40
   1  -2 -10   -8.20   20.00
  -1  -2  10    8.90   13.70
  -1  -2   9  236.38   30.10
   1  -2  -9  255.57   37.40
   1   2  -8  395.66   44.20
   1  -2  -8  332.67   37.70
  -1  -2   8  331.07   33.40
   1   2  -7 2393.66  107.89
   1  -2  -7 2469.35  104.79
  -1  -2   7 2296.17   96.89
  -1   2   6  193.18   19.30
   1   2  -6  188.88   26.20
  -1  -2   6  173.38   20.60
   1  -2  -6  207.58   15.30
   1  -2  -6  211.28   24.60
   1   2  -5 1100.09   56.99
  -1   2   5 1065.79   45.60
   1  -2  -5 1175.28   44.60
  -1  -2   5 1102.99   50.09
  -1   2   4   12.90    4.80
   1   2  -4   16.20    9.50
  -1  -2   4   22.30    6.60
   1  -2  -4   17.00    4.70
  -1  -2   4   17.80    3.40
   1   2  -3  388.56   26.80
  -1   2   3  346.97   16.50
  -1  -2   3  336.67   15.00
   1  -2  -3  344.37   17.50
  -1  -2   3  325.77   19.40
  -1  -2   2  214.58   10.40
  -1  -2   2  191.18   13.10
   1  -2  -2  218.98   12.40
  -1  -2   1 2714.43   88.59
  -1  -2   1 2488.45   86.79
   1  -2  -1 2681.03   88.29
   1  -2   0  523.05   22.60
   1  -2   0  509.05   19.90
  -1  -2   0  524.15   21.50
  -1  -2  -1  520.45   23.20
   1  -2   1  551.54   23.50
   1  -2   1  525.85   22.70
   1  -2   2  990.40   39.60
   1  -2   2  967.60   37.00
  -1   2  -3 5924.01  194.18
   1  -2   3 5682.43  187.18
   1  -2   3 5664.53  191.98
  -1   2  -4  250.17   20.40
   1   2   4  243.38   18.70
   1  -2   4  235.18   18.40
   1  -2   4  218.18   15.90
  -1   2  -5 2484.75   96.39
   1   2   5 2367.16   92.09
   1  -2   5 2364.16   93.29
  -1   2  -6   12.80   11.40
   1   2   6   10.10    8.00
   1  -2   6    4.80    7.10
  -1  -2  -6   24.80   11.50
   1   2   7    3.60    8.20
   1  -2   7   14.00    9.00
  -1  -2  -7    0.80   10.60
   1   2   8  116.29   20.80
  -1  -2  -8   71.49   27.60
   1  -2   8  130.99   22.00
   1  -2   9   63.29   17.10
  -1  -3   9  258.17   33.30
   1  -3  -9  183.78   32.60
   1   3  -8  262.27   48.50
  -1  -3   8  258.07   30.70
   1  -3  -8  281.97   36.90
   1   3  -7 1632.64   84.19
  -1  -3   7 1487.35   70.99
   1  -3  -7 1480.95   76.39
   1   3  -6    2.20   13.10
  -1  -3   6   15.60    7.80
   1  -3  -6   11.40    6.50
   1   3  -5 1637.44   75.79
   1  -3  -5 1445.06   59.49
  -1  -3   5 1513.75   65.19
  -1   3   4  671.93   33.60
  -1  -3   4  720.03   35.70
  -1  -3   4  686.13   28.70
   1  -3  -4  727.93   33.00
   1  -3  -3   25.50    5.40
  -1  -3   3   37.00    7.70
   1  -3  -3   19.90    5.50
  -1  -3   3   19.90    5.70
  -1  -3   2    0.00    2.30
   1  -3  -2    3.00    2.00
   1  -3  -2   -1.80    2.40
  -1  -3   2   -2.00    3.40
  -1  -3   1   91.89   10.50
   1  -3  -1   91.19    6.10
  -1  -3   1   80.19    9.20
   1  -3  -1   96.69   10.30
   1  -3   0   47.00    8.10
  -1  -3   0   72.89    9.50
   1  -3   0   72.69    6.20
  -1  -3   0   70.09    8.30
   1  -3   1  371.56   19.80
  -1  -3  -1  343.07   19.40
   1  -3   1  343.57   18.00
  -1  -3  -1  356.16   17.60
   1  -3   2  841.12   35.20
   1  -3   2  636.94   32.40
  -1  -3  -2  870.71   34.80
   1  -3   3 1727.23   60.99
   1  -3   3 1691.03   65.19
  -1  -3  -3 1520.95   65.19
   1   3   4    1.00    6.00
   1  -3   4   -0.10    3.70
   1  -3   4    3.70    3.90
   1   3   5 1138.59   55.99
   1  -3   5 1031.70   51.49
  -1  -3  -6  395.76   26.10
   1  -3   6  405.36   30.20
   1  -3   7  332.67   34.10
  -1  -3  -7  239.58   32.60
   1  -3   8   93.29   19.40
  -1  -3  -8   86.69   24.20
   1  -3   9 1054.49   63.59
  -1  -4   9  373.46   40.30
   1  -4  -9  329.47   44.90
   1  -4  -8  516.15   46.50
  -1  -4   8  557.34   41.90
  -1  -4   7  699.83   44.60
   1  -4  -6 2074.59   80.69
  -1  -4   6 1905.41   85.09
   1  -4  -5   -2.80    5.00
  -1  -4   5    4.60    5.80
  -1  -4   4  111.59   16.00
   1  -4  -4  110.59   14.70
   1  -4  -3   84.19   12.30
  -1  -4   3  111.09   14.70
  -1  -4   3   94.49   12.30
   1  -4  -2  721.63   26.60
  -1  -4   2  698.03   31.80
  -1  -4   2  687.03   34.00
   1  -4  -2  691.23   34.00
   1  -4  -1   86.09    7.90
   1  -4  -1  102.79   13.00
  -1  -4   1   95.39   11.50
  -1  -4   1   99.69   12.00
  -1  -4   0  322.77   18.20
   1  -4   0  334.47   17.00
  -1  -4   0  335.17   20.20
   1  -4   0  319.87   21.00
  -1  -4  -1 2282.17   80.09
  -1  -4  -1 2241.58   83.99
   1  -4   1 2297.67   80.99
   1  -4   1 2278.37   83.49
  -1  -4  -2  397.56   21.20
   1  -4   2  414.76   24.60
  -1  -4  -2  417.66   24.50
   1  -4   2  391.86   23.00
   1  -4   3 2479.35   88.89
   1  -4   3 2353.96   90.99
  -1  -4  -3 2510.35   89.29
  -1  -4  -3 2360.66   90.69
   1  -4   4 1751.82   72.29
  -1  -4  -4 1641.14   70.79
   1  -4   4 1731.93   66.09
  -1  -4  -4 1804.92   70.89
  -1  -4  -5  196.28   20.60
   1  -4   5  154.08   20.60
  -1  -4  -6  384.86   27.60
   1  -4   6  364.26   30.20
   1  -4   7  145.99   23.10
   1  -4   8   71.69   18.60
  -1  -4  -8   82.89   25.40
   1  -5  -8  507.85   53.49
  -1  -5   8  605.64   46.00
   1  -5  -7  104.79   24.20
  -1  -5   7   97.79   20.10
   1  -5  -6  943.21   49.10
  -1  -5   6  918.51   52.39
   1  -5  -5 1218.58   55.79
  -1  -5   5 1091.99   56.79
   1  -5  -4  121.99   17.40
  -1  -5   4  100.39   16.60
  -1  -5   3  651.53   34.80
   1  -5  -3  538.65   32.80
  -1  -5   2  278.87   19.90
  -1  -5   2  262.97   20.60
   1  -5  -2  216.98   19.20
   1  -5  -1  232.78   19.90
  -1  -5   1  245.58   18.40
  -1  -5   1  249.58   18.90
   1  -5   0   30.20    6.80
  -1  -5   0   25.10    6.70
  -1  -5   0   29.00    8.30
   1  -5   0   24.10    9.20
  -1  -5  -1 1481.65   61.89
   1  -5   1 1470.65   62.09
   1  -5   1 1450.45   57.49
  -1  -5  -1 1473.75   56.69
  -1  -5  -2 1344.27   51.59
  -1  -5  -2 1277.07   56.69
   1  -5   2 1254.97   55.89
   1  -5   2 1280.57   54.59
  -1  -5  -3    6.50    5.90
   1  -5   3    6.00    9.20
   1  -5   3    0.80    5.00
  -1  -5  -4  980.20   48.40
   1  -5   4  970.50   49.20
  -1  -5  -5  580.44   34.90
   1  -5   5  494.55   35.30
   1  -5   6   -1.80    7.90
  -1  -5  -6    8.80    8.80
   1  -5   7  213.48   28.60
  -1  -5  -7  174.48   27.70
   1  -5   8  427.46   44.20
  -1  -6   8  548.95   47.10
   1  -6  -7  150.68   23.80
  -1  -6   7  182.18   28.20
  -1  -6   6  543.75   40.20
   1  -6  -6  452.95   35.70
   1  -6  -5  667.23   42.00
  -1  -6   5  689.43   43.80
  -1  -6   4  149.88   20.80
   1  -6  -4  172.08   22.80
  -1  -6   3    5.60   11.60
  -1  -6   3    1.40    6.50
   1  -6  -3    6.90    7.90
  -1  -6   2  299.57   24.50
  -1  -6   2  309.87   24.40
   1  -6  -2  294.47   25.30
  -1  -6   1  536.15   31.80
  -1  -6   1  500.95   32.10
   1  -6  -1  579.04   35.60
  -1  -6   0  730.03   36.10
  -1  -6   0  695.73   39.30
   1  -6   0  718.03   41.60
   1  -6   1  424.56   26.40
  -1  -6  -1  453.95   30.60
   1  -6   1  567.24   34.80
  -1  -6  -2 2249.47   91.69
   1  -6   2 2358.56   88.69
   1  -6   2 2163.08   90.19
   1  -6   3  276.07   23.80
  -1  -6  -3  299.27   25.20
   1  -6   3  282.57   28.80
  -1  -6  -4 1282.47   62.59
   1  -6   4 1346.17   63.29
  -1  -6  -5  481.65   35.00
   1  -6   5  488.05   36.10
   1  -6   6   22.20   12.70
  -1  -6  -6   37.30   14.40
  -1  -6  -7  126.49   23.40
   1  -6   7   88.79   20.60
   1  -7  -7  491.85   48.00
  -1  -7   7  539.55   45.40
  -1  -7   6 1173.68   67.39
   1  -7  -6 1203.38   65.59
   1  -7  -5   15.10   13.60
  -1  -7   5   19.50   12.20
  -1  -7   4 2000.00   88.79
   1  -7  -4 1987.00   89.09
  -1  -7   3  200.28   25.20
   1  -7  -3  229.08   28.90
  -1  -7   3  214.38   27.20
  -1  -7   2    2.70   12.90
   1  -7  -2    2.50   11.40
  -1  -7   2    8.00    8.30
  -1  -7   1   20.90   11.30
   1  -7  -1    2.60   12.70
   1  -7   0  688.23   45.50
  -1  -7   0  707.83   42.80
  -1  -7  -1  238.08   26.80
   1  -7   1  252.07   29.50
   1  -7   2  272.77   30.60
  -1  -7  -2  276.67   29.90
   1  -7   3  459.35   34.70
   1  -7   3  547.65   39.20
  -1  -7  -3  431.46   34.40
  -1  -7  -4  328.57   34.20
   1  -7   4  284.07   31.70
   1  -7   5    8.50   12.50
  -1  -7  -5   37.60   14.90
  -1  -7  -6  633.74   46.50
   1  -7   6  673.53   48.10
  -1  -8   5   26.70   14.70
   1  -8  -5    7.20   18.40
   1  -8  -4  232.48   33.80
  -1  -8   4  178.38   39.70
   1  -8  -3   48.30   21.70
  -1  -8   2   11.50   17.40
   1  -8  -2   29.00   18.70
  -1  -8   1    1.50   14.00
   1  -8  -1   -1.60   16.60
   1  -8   0  758.42   52.49
  -1  -8   0  837.62   51.19
  -1  -8  -1  486.75   38.20
   1  -8   1  484.95   41.90
  -1  -8  -2  473.15   38.30
   1  -8   2  451.45   43.80
  -1  -8  -3 1445.46   74.79
  -1  -8  -4  119.69   23.10
  -1  -8  -5  159.88   26.90
   1  -9  -3  704.83   59.09
  -1  -9   2   35.40   22.90
   1  -9  -2   46.60   26.80
  -1  -9   1   33.80   21.80
   1  -9  -1   68.99   25.60
   1  -9   0  180.48   33.50
  -1  -9   0  158.08   30.40
   1  -9   1  418.16   47.30
  -1  -9  -1  482.05   46.80
  -1  -9  -2  516.05   50.39
   1  -9   2  507.65   50.19
   2   0 -10  663.63   59.89
  -2   0  10  708.23   47.70
  -2   0   9   17.60   10.90
   2   0  -9  -19.00   14.70
  -2   0   8  568.64   37.20
   2   0  -8  659.03   47.60
  -2   0   7   -6.20    4.90
   2   0  -7    2.00    8.40
  -2   0   6   77.39   12.40
   2   0  -6  112.59   17.00
   2   0  -5   -0.30    4.30
   2   0  -5   -3.20    3.40
  -2   0   5   -2.40    3.40
   2   0  -4  161.88   15.00
  -2   0   4  152.08   12.20
   2   0  -4  157.78    8.60
   2   0  -3    5.10    4.40
  -2   0   3   -4.70    2.20
   2   0  -3   -7.40    1.70
  -2   0   2  946.01   35.70
   2   0  -2 1058.49   39.20
   2   0  -1   -0.80    1.70
   2   0  -1    0.40    2.00
  -2   0   1   -0.40    1.40
   2   0   0   13.90    4.40
   2   0   0   28.50    5.30
   2   0   1   -9.70    2.40
   2   0   1   -5.10    2.40
   2   0   2   -2.50    3.40
  -2   0  -2   -2.30    2.30
   2   0   2   -3.30    3.10
  -2   0  -3   -1.40    2.80
   2   0   3    0.60    3.10
   2   0   3   -0.40    1.90
  -2   0  -4  348.87   20.80
   2   0   4  319.57   22.20
   2   0   5    0.90    4.70
  -2   0  -5    1.10    5.80
   2   0   6  804.12   44.50
   2   0   7   -3.60    7.90
   2   0   8  339.07   35.60
   2   0   9   -3.40   11.20
   2   1 -10  100.49   50.69
   2  -1 -10  101.39   29.50
  -2  -1  10  138.99   24.80
   2   1  -9  383.76   46.90
   2  -1  -9  318.67   39.80
  -2  -1   9  334.87   34.10
  -2   1   8  355.46   27.20
   2   1  -8  410.56   44.40
  -2  -1   8  356.46   29.30
   2  -1  -8  437.16   37.70
   2   1  -7   -4.70    9.60
  -2   1   7   12.60    7.40
   2  -1  -7   17.80   10.70
  -2  -1   7    4.10    6.50
   2   1  -6  333.07   29.50
   2  -1  -6  382.66   28.10
  -2  -1   6  341.97   24.20
  -2   1   5 1302.27   51.09
   2   1  -5 1304.67   60.39
   2  -1  -5 1247.58   46.50
  -2  -1   5 1339.37   54.29
   2  -1  -5 1278.57   57.59
  -2   1   4 8460.15  266.97
   2   1  -4 7954.70  276.87
   2  -1  -4 8311.57  274.17
  -2  -1   4 8322.77  270.57
   2  -1  -4 8513.95  264.57
   2   1  -3 3032.30  111.69
  -2   1   3 3158.98  102.49
   2  -1  -3 3139.19  102.79
  -2  -1   3 3114.29  106.29
   2  -1  -3 3148.78  108.49
   2   1  -2 3180.08  110.69
  -2   1   2 3135.89  100.49
  -2  -1   2 3101.09  104.79
   2  -1  -2 3158.98  103.39
   2   1  -1  161.58   12.90
  -2   1   1  176.38    8.20
   2  -1  -1  172.18   11.70
  -2  -1   1  150.88    9.70
  -2  -1   0  465.35   21.50
   2  -1   0  464.85   20.30
   2  -1   0  460.25   19.20
   2   1   1 1906.71   74.39
   2  -1   1 2019.20   69.09
   2  -1   1 1975.20   68.69
   2   1   2 1504.75   57.29
   2  -1   2 1346.97   54.29
   2  -1   2 1419.56   54.09
  -2   1  -3  430.46   21.80
   2   1   3  435.56   24.60
   2  -1   3  396.66   23.30
   2  -1   3  406.56   23.40
  -2   1  -4   10.10    6.10
   2   1   4    9.20    5.60
   2  -1   4   18.10    6.30
   2  -1   4   12.30    6.20
   2   1   5  829.52   42.90
  -2   1  -5  876.21   42.40
  -2  -1  -5  756.42   41.20
   2  -1   5  871.11   43.70
   2   1   6 2440.66  100.79
  -2  -1  -6 2521.25  101.29
   2  -1   6 2655.33  102.79
   2   1   7 1058.49   57.29
   2  -1   7 1147.69   58.99
   2   1   8 1180.28   63.49
   2  -1   8 1138.59   62.99
   2   1   9    5.90   13.60
   2  -1   9   30.60   15.90
   2  -2 -10  161.48   32.90
  -2  -2  10  195.88   29.50
   2   2  -9  385.16   49.10
   2  -2  -9  377.66   44.60
  -2  -2   9  411.16   35.50
   2   2  -8   -1.40   15.90
  -2  -2   8    3.20    8.30
   2  -2  -8    3.00   11.00
   2   2  -7  331.07   39.10
  -2  -2   7  332.27   27.40
   2  -2  -7  402.26   33.20
   2   2  -6  303.17   34.80
  -2   2   6  267.97   18.90
   2  -2  -6  287.37   25.50
  -2  -2   6  283.17   22.80
   2  -2  -6  281.87   19.20
   2   2  -5  123.69   21.40
  -2   2   5   76.89    9.80
   2  -2  -5  111.59   11.30
  -2  -2   5   89.69   13.50
   2  -2  -5  104.99   15.60
  -2   2   4  131.09    9.40
   2   2  -4   96.79   17.20
  -2  -2   4  118.39   14.10
   2  -2  -4  134.49   10.80
   2   2  -3 1118.59   55.99
  -2   2   3 1272.47   42.20
  -2  -2   3 1222.28   42.00
  -2  -2   3 1272.07   49.70
   2  -2  -3 1242.68   46.60
  -2  -2   2   49.90    7.70
   2  -2  -2   69.79    8.80
   2  -2  -1    9.40    4.80
  -2  -2   1    5.30    3.00
   2  -2   0  498.05   23.40
   2  -2   0  471.35   19.70
  -2  -2   0  489.45   22.60
   2  -2   1    6.00    4.60
   2  -2   1   14.00    4.30
  -2  -2  -1    2.50    4.00
   2   2   2  173.08   19.80
  -2  -2  -2  120.59   15.30
   2  -2   2  158.38   13.00
   2  -2   2  164.78   12.20
   2   2   3   22.20    8.40
   2  -2   3   18.00    6.40
   2  -2   3   23.00    6.10
  -2   2  -4  340.57   23.20
   2   2   4  352.16   25.50
   2  -2   4  317.77   22.70
   2  -2   4  326.57   22.00
   2   2   5  260.27   26.00
   2  -2   5  178.88   20.90
   2   2   6  395.96   31.00
  -2  -2  -6  382.96   31.40
   2  -2   6  378.56   29.10
   2   2   7  514.55   39.00
   2  -2   7  594.24   39.60
   2   2   8   -7.50   11.70
   2  -2   8    1.80   10.20
   2  -2   9  105.39   22.90
  -2  -3  10   85.09   22.10
   2  -3 -10   54.69   26.10
   2   3  -9  393.06   53.99
   2  -3  -9  423.76   47.40
  -2  -3   9  486.85   40.20
   2   3  -8   27.10   22.20
   2  -3  -8   65.09   18.90
  -2  -3   8   82.59   18.10
   2   3  -7    7.70   15.90
   2  -3  -7   12.30   10.20
  -2  -3   7    2.20    7.30
   2   3  -6  247.58   34.10
  -2  -3   6  231.48   25.40
   2  -3  -6  265.97   29.90
   2  -3  -6  245.98   18.80
   2   3  -5 2529.05  115.49
  -2  -3   5 2898.01  105.89
   2  -3  -5 2890.11  100.09
   2   3  -4  604.84   41.10
   2  -3  -4  553.24   28.50
  -2  -3   4  608.64   24.90
  -2  -3   4  614.64   32.30
  -2  -3   3 7296.07  239.78
   2  -3  -3 7133.19  236.68
  -2  -3   3 7316.37  232.28
  -2  -3   2   -1.60    2.00
  -2  -3   2    5.50    4.20
   2  -3  -2    4.80    5.10
   2  -3  -1 1158.78   38.90
  -2  -3   1 1119.19   45.00
   2  -3  -1 1152.98   46.20
   2  -3   0  407.66   22.60
   2  -3   0  402.36   18.20
  -2  -3   0  374.56   20.30
   2  -3   1 1602.04   62.29
  -2  -3  -1 1703.73   62.89
   2  -3   1 1626.44   60.39
   2  -3   2  272.17   18.10
  -2  -3  -2  262.67   19.50
   2  -3   2  291.27   18.10
   2  -3   3  906.91   41.50
  -2  -3  -3  832.42   43.60
   2  -3   3  906.71   38.70
   2   3   4   19.80   10.40
   2  -3   4   36.80    9.80
   2  -3   4   19.40    7.00
   2   3   5 1851.01   83.99
   2  -3   5 1787.22   77.19
   2   3   6  222.88   30.10
   2  -3   6  215.18   24.80
   2   3   7 2199.78  115.29
  -2  -3  -7 2101.69  100.59
   2  -3   7 2294.07   97.19
   2  -3   8   71.49   18.30
   2  -4  -9  338.17   44.80
  -2  -4   9  315.87   38.50
  -2  -4   8  337.67   36.30
   2  -4  -8  342.07   40.70
   2  -4  -7  133.49   25.60
  -2  -4   7  140.19   22.10
   2  -4  -6  155.48   18.80
  -2  -4   6  124.79   19.40
   2  -4  -5  443.16   27.10
  -2  -4   5  432.66   29.80
  -2  -4   4   33.60   10.30
   2  -4  -4   39.40    9.20
   2  -4  -3   58.79   11.20
  -2  -4   3   84.19   10.50
  -2  -4   3   95.69   14.60
   2  -4  -2  711.03   36.10
  -2  -4   2  791.72   36.60
  -2  -4   2  749.62   33.50
   2  -4  -1  505.45   20.40
  -2  -4   1  529.85   26.50
  -2  -4   1  482.85   25.70
   2  -4  -1  477.65   27.80
   2  -4   0  364.96   23.10
  -2  -4   0  348.67   20.50
   2  -4   0  367.06   18.20
   2  -4   1  190.38   13.90
   2  -4   1  209.08   19.50
  -2  -4  -1  190.18   14.50
  -2  -4  -2  186.68   18.50
   2  -4   2  162.08   14.50
   2  -4   2  178.18   18.00
  -2  -4  -3  820.32   41.30
   2  -4   3  857.51   41.30
  -2  -4  -4   20.20   10.00
   2  -4   4   20.30    8.10
   2  -4   4   20.20    7.60
   2  -4   5 1221.98   59.19
  -2  -4  -5 1220.48   62.09
   2  -4   6   40.60   14.30
  -2  -4  -6   21.10    9.40
   2  -4   7  190.48   27.00
   2  -4   8  301.77   36.20
   2  -5  -9    5.00   20.20
  -2  -5   8  239.88   31.80
   2  -5  -8  271.97   39.00
  -2  -5   7   68.29   17.40
   2  -5  -7  102.09   27.70
  -2  -5   6  427.06   33.60
   2  -5  -6  415.66   31.80
   2  -5  -5   43.20   12.20
  -2  -5   5   34.40   11.60
  -2  -5   4 4259.67  155.28
   2  -5  -4 4339.67  153.78
   2  -5  -3  210.58   22.60
  -2  -5   3  202.68   16.20
  -2  -5   3  203.18   22.90
  -2  -5   2 2049.89   80.19
  -2  -5   2 2046.50   77.99
   2  -5  -2 1996.50   81.09
   2  -5  -1  327.77   25.30
  -2  -5   1  352.06   22.90
  -2  -5   1  349.67   22.60
   2  -5   0  311.67   18.00
   2  -5   0  357.56   25.10
  -2  -5   0  311.17   21.80
  -2  -5   0  288.07   19.70
   2  -5   1  318.17   24.80
   2  -5   1  303.87   19.70
  -2  -5  -1  317.47   22.90
  -2  -5  -1  319.07   20.50
  -2  -5  -2  607.74   32.00
   2  -5   2  613.74   36.10
   2  -5   2  618.54   32.90
  -2  -5  -2  685.93   36.20
  -2  -5  -3   63.49   12.40
   2  -5   3   44.50   11.00
  -2  -5  -3   39.00   10.90
   2  -5   3   50.59   11.60
   2  -5   4   23.80    9.50
  -2  -5  -4   18.40    8.10
   2  -5   5    5.30    8.00
  -2  -5  -5    0.50    6.50
  -2  -5  -6 1396.36   66.99
   2  -5   6 1443.06   71.19
  -2  -5  -7    2.70   13.60
   2  -5   7    0.10    9.70
  -2  -6   8   32.20   17.50
  -2  -6   7  856.51   55.39
   2  -6  -7  860.51   54.49
  -2  -6   6  388.06   34.10
   2  -6  -6  341.87   35.60
  -2  -6   5  208.98   27.00
   2  -6  -5  253.97   29.50
  -2  -6   4  363.86   29.40
   2  -6  -4  349.96   32.90
  -2  -6   3  291.17   29.50
   2  -6  -3  283.37   29.40
  -2  -6   3  303.17   24.40
  -2  -6   2  105.29   17.20
   2  -6  -2  130.09   20.90
  -2  -6   2  101.39   15.40
   2  -6  -1  979.70   52.29
  -2  -6   1 1071.49   50.29
  -2  -6   1 1029.00   48.40
  -2  -6   0  210.38   22.20
   2  -6   0  253.87   26.40
  -2  -6   0  210.58   18.40
   2  -6   1  118.69   20.30
  -2  -6  -1   83.99   13.70
  -2  -6  -1   68.39   13.50
  -2  -6  -2   98.09   16.80
   2  -6   2  113.69   16.10
   2  -6   2  133.09   21.40
   2  -6   3  558.84   37.20
  -2  -6  -3  574.44   36.90
   2  -6   3  622.84   36.60
   2  -6   4  920.71   49.50
  -2  -6  -4  850.21   48.40
  -2  -6  -5  341.27   33.50
   2  -6   5  334.07   34.10
   2  -6   6  797.22   51.79
  -2  -6  -6  847.52   50.59
   2  -6   7   47.10   16.90
  -2  -6  -7   62.79   19.10
  -2  -7   7   21.50   15.50
   2  -7  -7   12.60   21.90
   2  -7  -6   -9.70   17.10
  -2  -7   6   12.40   12.60
  -2  -7   5  932.71   54.49
   2  -7  -5  870.31   55.89
   2  -7  -4  457.25   42.80
  -2  -7   4  358.26   32.10
   2  -7  -3  687.83   47.90
  -2  -7   3  796.72   45.50
  -2  -7   3  753.92   45.50
   2  -7  -2 1046.30   59.39
  -2  -7   2 1095.59   54.39
  -2  -7   2 1088.69   55.69
   2  -7  -1  174.58   25.80
  -2  -7   1  172.78   28.60
  -2  -7   1  132.89   19.50
  -2  -7   0  397.26   31.40
   2  -7   0  416.96   38.30
   2  -7   1  430.46   36.20
  -2  -7  -1  513.65   35.00
  -2  -7  -2   12.40    9.60
   2  -7   2    4.60   12.80
  -2  -7  -3   90.19   18.00
   2  -7   3   88.59   19.90
   2  -7   4    3.80    9.60
  -2  -7  -4    0.70    9.90
   2  -7   5  457.55   38.10
  -2  -7  -5  452.35   38.10
   2  -7   6  108.19   23.90
  -2  -7  -6   77.09   20.70
   2  -8  -5  226.08   37.10
  -2  -8   5  198.38   29.90
  -2  -8   4   79.29   19.80
   2  -8  -4   77.59   25.10
   2  -8  -3   47.80   23.40
  -2  -8   2  988.60   57.89
   2  -8  -2 1078.79   64.09
   2  -8  -1  -18.30   13.40
  -2  -8   1   11.30   11.50
   2  -8   0  957.90   59.09
  -2  -8   0  947.61   55.19
   2  -8   1   12.70   16.20
  -2  -8  -1   30.30   13.70
   2  -8   2  254.87   34.40
  -2  -8  -2  210.18   29.30
  -2  -8  -3  156.88   25.80
  -2  -8  -4 1277.07   70.39
   2  -9  -3  687.83   57.99
   2  -9  -2   -7.30   19.80
  -2  -9   2   14.70   20.20
   2  -9  -1  658.63   55.19
  -2  -9   1  838.12   55.99
  -2  -9   0  111.19   24.80
   2  -9   0   98.79   28.50
  -2  -9  -1   72.59   20.40
   2  -9   1   73.39   25.30
  -2  -9  -2   -1.10   13.40
   2  -9   2  -10.80   18.50
   3   0 -10  258.87   40.70
   3   0  -9    0.90   16.30
  -3   0   9    3.40    9.30
  -3   0   8  572.14   36.00
   3   0  -8  530.35   43.10
  -3   0   7    4.60    5.80
   3   0  -7   15.50   10.10
   3   0  -6   24.90   10.00
  -3   0   6   35.50    9.00
   3   0  -5   -1.80    4.30
  -3   0   5    1.40    4.10
   3   0  -5    1.70    2.20
   3   0  -4   23.10    6.60
  -3   0   4   27.90    6.50
   3   0  -4   24.20    4.00
   3   0  -3   -0.70    3.10
  -3   0   3   -2.50    1.90
   3   0  -3   -2.60    1.90
   3   0  -2  800.62   33.30
  -3   0   2  767.32   30.40
   3   0  -2  788.72   31.20
   3   0  -1   -8.30    3.00
  -3   0   1    2.30    3.70
   3   0  -1    1.70    3.10
   3   0   0  968.00   40.50
  -3   0   0  942.91   41.20
   3   0   1    2.10    3.30
   3   0   1   -1.40    3.10
   3   0   2   28.70    7.40
   3   0   2   15.40    5.50
   3   0   3   -1.10    3.10
  -3   0  -3   -3.90    2.80
   3   0   3    2.70    3.90
   3   0   4  555.34   32.80
  -3   0  -4  588.14   28.80
   3   0   5   -5.20    4.80
   3   0   6  885.21   49.60
   3   0   7    4.60    9.70
   3   0   8  109.79   22.10
   3   0   9    5.30   14.80
   3   1 -10 1653.03   98.59
  -3  -1  10 1642.74   81.49
   3  -1 -10 1682.13   95.29
   3   1  -9  437.46   50.69
  -3  -1   9  493.45   37.60
   3  -1  -9  496.45   44.60
  -3   1   8   39.70   12.80
   3   1  -8   39.90   18.50
   3  -1  -8   49.50   16.80
  -3  -1   8   56.89   14.20
   3   1  -7   19.90   13.30
  -3   1   7    0.60    4.60
  -3  -1   7   26.30   10.00
   3  -1  -7   21.40   10.60
   3   1  -6 1545.45   72.99
  -3   1   6 1544.45   60.59
   3  -1  -6 1401.36   67.69
  -3  -1   6 1547.55   63.89
  -3   1   5 1225.78   47.60
   3   1  -5 1152.58   57.19
   3  -1  -5 1233.38   45.10
  -3  -1   5 1185.68   50.69
   3  -1  -5 1158.48   53.99
  -3   1   4  247.58   14.30
   3   1  -4  311.77   23.40
  -3  -1   4  249.88   17.50
   3  -1  -4  228.58   18.00
   3  -1  -4  276.67   15.80
  -3   1   3   91.09    7.50
   3   1  -3   98.79   13.40
   3  -1  -3  102.69   12.20
   3  -1  -3  104.69   10.30
  -3  -1   3   92.59   10.20
  -3   1   2 3318.47  108.59
   3   1  -2 3392.66  118.99
   3  -1  -2 3391.86  113.09
   3  -1  -2 3355.46  111.29
  -3  -1   2 3335.27  112.79
   3   1  -1 3671.43  129.09
   3   1  -1 3898.41  124.59
  -3   1   1 3475.05  123.79
  -3  -1   1 3837.02  125.59
   3  -1  -1 3823.42  122.39
   3  -1  -1 3806.92  124.29
   3  -1   0 6477.95  207.28
   3  -1   0 6437.76  207.88
  -3  -1   0 6280.17  210.48
   3  -1   0 6298.27  200.58
   3   1   1 1925.01   75.39
   3  -1   1 1844.82   67.99
   3  -1   1 1848.12   69.19
   3   1   2 2877.41  107.39
   3  -1   2 2854.41  103.69
   3  -1   2 2861.41  101.79
  -3   1  -3   20.00    5.30
   3   1   3   16.00    6.70
   3  -1   3   32.50    8.70
   3  -1   3   22.70    7.10
   3   1   4  942.51   46.80
   3  -1   4  961.60   45.90
   3  -1   4  877.01   42.70
   3   1   5  319.17   26.00
   3  -1   5  325.97   22.90
   3  -1   5  316.07   25.70
  -3  -1  -5  287.67   23.90
   3   1   6  228.18   26.40
   3  -1   6  229.28   26.40
   3   1   7   41.10   13.70
   3  -1   7   25.60   11.70
   3   1   8  450.45   44.30
   3  -1   8  477.95   40.40
   3   1   9  361.56   42.60
   3  -1   9  322.37   40.20
   3   2 -10   61.39   29.80
  -3  -2  10   61.29   19.60
   3  -2 -10   74.79   25.40
   3   2  -9  314.27   47.00
  -3  -2   9  272.37   31.40
   3  -2  -9  267.97   38.30
   3   2  -8  404.06   47.60
   3  -2  -8  333.47   36.90
  -3  -2   8  373.06   31.30
   3   2  -7    2.60   12.50
   3  -2  -7   14.50    9.20
  -3  -2   7   25.40   10.30
   3   2  -6    8.20   10.40
   3  -2  -6   -4.10   10.80
   3  -2  -6   13.30    7.70
  -3  -2   6    0.40    5.70
   3   2  -5   -1.00    8.00
  -3   2   5   -2.90    3.10
   3  -2  -5    7.30    6.20
   3  -2  -5   -3.60    4.20
  -3  -2   5    1.10    5.40
   3   2  -4  201.78   26.10
  -3   2   4  188.88   10.90
   3  -2  -4  194.98   16.80
  -3  -2   4  194.88   16.70
  -3  -2   4  182.18    8.80
   3  -2  -4  207.78   15.00
   3   2  -3  198.18   23.00
  -3   2   3  188.58    9.10
   3  -2  -3  211.78   15.10
  -3  -2   3  212.38   15.40
  -3  -2   2  320.67   18.30
   3  -2  -2  323.27   19.10
   3  -2  -1  232.98   16.00
  -3  -2   1  238.98   15.10
   3  -2  -1  211.88   13.00
   3  -2   0  234.48   13.50
  -3  -2   0  252.37   17.10
   3  -2   0  244.28   15.60
  -3  -2  -1  571.74   31.10
   3  -2   1  546.35   26.30
   3  -2   1  599.14   27.80
  -3  -2  -2  470.45   29.40
   3  -2   2  448.36   24.70
   3  -2   2  458.45   25.00
   3   2   3  412.76   31.20
   3  -2   3  442.46   26.70
   3  -2   3  500.45   27.90
   3   2   4   10.50    8.20
   3  -2   4    1.20    4.70
   3  -2   4   -0.10    5.20
   3   2   5  754.82   45.80
   3  -2   5  769.62   43.00
   3   2   6  213.38   27.80
   3  -2   6  204.78   25.70
   3   2   7  112.59   22.50
   3  -2   7  122.79   22.60
   3   2   8  195.88   31.20
   3  -2   8  164.58   26.60
   3   3 -10  179.88   47.70
   3  -3 -10  164.38   35.00
  -3  -3  10  193.98   30.40
   3   3  -9  675.93   68.79
  -3  -3   9  659.83   47.10
   3  -3  -9  683.63   53.39
   3   3  -8   29.30   20.90
   3  -3  -8   35.70   16.10
  -3  -3   8   25.60   12.90
   3   3  -7  123.99   27.90
   3  -3  -7  130.49   23.80
  -3  -3   7  120.09   19.20
   3   3  -6  292.47   38.10
  -3  -3   6  322.37   26.00
   3  -3  -6  297.17   23.80
   3  -3  -6  337.37   28.30
   3   3  -5 1519.95   80.59
   3  -3  -5 1800.62   67.19
  -3  -3   5 1681.43   70.39
   3   3  -4  237.28   30.00
   3  -3  -4  247.88   19.10
  -3  -3   4  226.18   12.50
  -3  -3   4  227.28   19.50
   3  -3  -3  435.46   24.90
  -3  -3   3  453.65   21.10
  -3  -3   3  457.95   25.90
   3  -3  -2    9.50    6.90
  -3  -3   2   26.80    6.50
  -3  -3   1 9627.94  317.77
   3  -3  -1 9999.00  318.57
   3  -3  -1 9874.21  310.27
   3  -3   0  508.15   27.20
   3  -3   0  471.35   21.80
  -3  -3   0  475.75   25.50
  -3  -3  -1 5573.54  184.78
   3  -3   1 5317.97  178.78
   3  -3   1 5337.67  180.28
   3  -3   2  461.05   25.50
   3  -3   2  518.85   26.20
  -3  -3  -2  388.06   27.60
   3  -3   3    2.30    4.70
  -3  -3  -3    7.50    7.00
   3  -3   3    1.60    3.80
   3   3   4   36.70   13.10
  -3  -3  -4   39.70   11.90
   3  -3   4   23.60    8.20
   3  -3   4   33.50   10.20
   3   3   5  477.65   38.70
   3  -3   5  505.45   33.90
   3   3   6  248.88   33.90
   3  -3   6  237.58   27.00
   3   3   7    3.30   14.90
   3  -3   7    9.70   10.40
   3  -3   8    3.40   10.50
   3   4  -9  534.75   65.79
  -3  -4   9  670.53   49.00
   3  -4  -9  742.83   57.79
   3   4  -8   90.89   31.90
  -3  -4   8   60.99   17.70
   3  -4  -8   71.39   20.60
  -3  -4   7  618.34   41.80
   3  -4  -7  621.54   45.10
  -3  -4   6   41.30   12.50
   3  -4  -6   68.39   15.00
  -3  -4   5   51.69   13.60
   3  -4  -5   84.39   15.30
   3  -4  -4    5.00    8.90
  -3  -4   4   15.20    8.90
  -3  -4   3  410.06   22.10
   3  -4  -3  423.06   27.20
  -3  -4   3  462.75   27.40
  -3  -4   2  754.12   34.70
  -3  -4   2  781.42   37.10
   3  -4  -2  752.12   37.80
   3  -4  -1    0.60    7.10
  -3  -4   1   10.10    5.20
   3  -4  -1    3.10    2.60
   3  -4   0  117.19   15.50
   3  -4   0  125.39   10.10
  -3  -4   0   96.69   12.60
  -3  -4  -1 1187.38   51.49
   3  -4   1 1210.28   52.79
   3  -4   1 1216.68   49.10
   3  -4   2  285.77   20.40
  -3  -4  -2  320.47   23.70
   3  -4   2  267.57   19.90
   3  -4   3  206.78   17.40
   3  -4   3  172.78   19.40
  -3  -4  -3  163.38   21.20
  -3  -4  -4  312.37   32.10
   3  -4   4  328.27   25.80
   3  -4   4  332.37   24.20
   3  -4   5  235.58   26.70
  -3  -4  -5  261.57   29.80
   3  -4   6   38.20   13.70
   3  -4   7  656.73   45.60
   3  -4   8   93.59   21.30
  -3  -5   9   -9.70   12.70
   3  -5  -9    5.10   19.30
  -3  -5   8   35.20   15.20
   3  -5  -8   36.50   17.30
  -3  -5   7    1.30    9.20
   3  -5  -6  679.63   43.20
  -3  -5   6  699.13   44.00
   3  -5  -5   33.70   14.20
  -3  -5   5   46.70   13.40
  -3  -5   4   68.19   14.60
   3  -5  -4   35.50   13.30
  -3  -5   3  615.04   35.60
   3  -5  -3  555.94   35.30
   3  -5  -2 1569.54   68.19
  -3  -5   2 1540.45   66.69
  -3  -5   2 1716.63   65.49
  -3  -5   1   29.20    8.20
   3  -5  -1   36.10   12.50
  -3  -5   1   40.80    9.20
   3  -5   0 4570.34  160.28
  -3  -5   0 4461.15  156.78
  -3  -5   0 4557.04  158.98
   3  -5   1   34.30    8.20
   3  -5   1   21.00   11.00
  -3  -5  -1   22.20    7.80
   3  -5   2 1126.49   49.99
  -3  -5  -2 1135.39   51.39
   3  -5   2 1036.60   51.09
   3  -5   3   72.39   13.00
   3  -5   3   92.19   15.30
  -3  -5  -3   87.79   16.10
   3  -5   4  322.27   26.90
  -3  -5  -5   -4.20    7.60
   3  -5   5    0.50    7.00
   3  -5   6  238.58   29.50
  -3  -5  -6  238.18   28.90
   3  -5   7  401.56   41.80
   3  -6  -8 1029.20   69.39
  -3  -6   8  943.11   62.29
   3  -6  -7  551.04   47.90
  -3  -6   7  602.34   45.00
   3  -6  -6  124.39   24.90
  -3  -6   6  163.18   25.50
   3  -6  -5   12.00   15.20
  -3  -6   5   -6.60    7.90
   3  -6  -4   65.39   18.10
  -3  -6   4   55.59   15.80
  -3  -6   3  939.61   49.50
   3  -6  -3  854.71   49.90
  -3  -6   3  958.10   45.30
   3  -6  -2   36.10   13.60
  -3  -6   2   37.30   10.80
  -3  -6   2   39.20   10.30
  -3  -6   1  444.86   28.50
   3  -6  -1  419.86   32.60
  -3  -6   1  438.06   28.90
   3  -6   0  381.86   34.90
  -3  -6   0  318.07   24.90
  -3  -6   0  324.47   23.70
  -3  -6  -1  280.37   23.90
   3  -6   1  290.17   29.80
  -3  -6  -1  254.87   21.90
   3  -6   2  413.86   32.40
  -3  -6  -2  436.86   31.10
   3  -6   3  587.24   36.30
   3  -6   3  589.64   35.70
  -3  -6  -3  576.74   37.50
   3  -6   4    8.20   10.10
  -3  -6  -4   37.50   12.60
   3  -6   5   63.69   15.60
  -3  -6  -5   82.19   18.80
  -3  -6  -6  679.23   44.70
   3  -6   6  582.74   43.90
  -3  -7   7  -10.30   11.10
   3  -7  -7  -12.40   21.20
   3  -7  -6  -17.40   18.30
  -3  -7   6    9.10   10.80
  -3  -7   5  272.87   33.30
   3  -7  -5  314.77   37.10
  -3  -7   4  117.59   21.50
   3  -7  -4  223.28   31.10
  -3  -7   3    3.90    7.80
   3  -7  -3   10.30   14.40
  -3  -7   3    9.20   11.70
  -3  -7   2  811.62   45.90
   3  -7  -2  777.82   49.30
  -3  -7   2  744.63   43.60
   3  -7  -1 1348.07   67.79
  -3  -7   1 1378.36   63.79
  -3  -7   1 1244.78   60.79
  -3  -7   0  350.26   33.90
   3  -7   0  303.77   33.50
   3  -7   1  790.22   50.49
  -3  -7  -1  824.22   47.20
   3  -7   2   16.20   13.60
  -3  -7  -2    3.90    8.90
  -3  -7  -3    4.50    8.80
   3  -7   3   13.90    9.40
  -3  -7  -4   17.20   11.70
   3  -7   5  140.19   24.90
  -3  -7  -5  115.09   22.90
   3  -8  -5   17.80   21.70
  -3  -8   5   -0.20   12.00
   3  -8  -4  643.94   51.19
  -3  -8   4  690.63   47.40
  -3  -8   3   62.39   19.00
   3  -8  -3   42.40   21.70
   3  -8  -2 1169.48   67.79
  -3  -8   2 1147.49   60.39
  -3  -8   1   56.39   15.70
   3  -8  -1   52.19   20.70
   3  -8   0  -33.30   11.40
  -3  -8   0    3.10   10.10
   3  -8   1  118.79   25.90
  -3  -8  -1   90.19   18.50
  -3  -8  -2 1182.88   64.39
   3  -8   2 1139.69   65.49
  -3  -8  -3   27.10   14.90
  -3  -8  -4  262.37   33.80
  -3  -9   2   19.80   17.90
   3  -9  -2   -6.20   19.60
  -3  -9   1  779.82   51.19
   3  -9  -1  656.43   55.69
   3  -9   0  256.37   39.30
  -3  -9   0  248.98   33.30
  -3  -9  -1  161.08   28.30
   3  -9   1  181.08   32.30
   4   0 -10   59.69   24.20
  -4   0   9    0.50   10.10
   4   0  -9   -3.20   14.60
   4   0  -8 2536.15  115.79
  -4   0   8 2678.83  103.19
   4   0  -7    1.20    9.60
  -4   0   7    8.40    7.20
  -4   0   6 2839.72  102.99
   4   0  -6 2814.42  112.39
   4   0  -5   -3.00    4.50
  -4   0   5   -3.00    4.20
   4   0  -5    4.10    3.70
   4   0  -4   31.90    6.00
  -4   0   4   40.60    7.50
   4   0  -4   44.80    9.90
  -4   0   3    0.30    2.60
   4   0  -3    9.50    5.10
   4   0  -3   -1.90    2.90
   4   0  -2 1000.80   38.70
  -4   0   2  813.92   35.30
   4   0  -2  838.02   37.40
   4   0  -1   -0.70    3.10
  -4   0   1   -1.70    2.90
   4   0  -1   -3.20    2.90
  -4   0   0  113.19   14.60
   4   0   0  130.49   15.60
   4   0   1   -5.10    3.60
   4   0   1    1.20    5.00
   4   0   2 4681.63  164.88
   4   0   2 4860.11  166.98
  -4   0  -3   -1.80    5.60
   4   0   3    2.10    5.00
   4   0   3    6.80    6.10
   4   0   4 3499.95  131.29
   4   0   5   -0.10    6.90
   4   0   6    2.70    9.10
   4   0   7   10.60   11.20
   4   0   8 2182.18  104.69
   4   1 -10   25.60   22.90
   4  -1 -10   24.30   20.50
  -4  -1  10    4.30   12.80
   4   1  -9   54.59   23.60
  -4  -1   9   35.70   13.40
   4  -1  -9   78.29   21.80
   4   1  -8  554.64   47.10
  -4  -1   8  549.05   36.30
   4  -1  -8  536.55   42.30
  -4   1   7  870.61   42.40
   4   1  -7  902.81   55.89
   4  -1  -7  874.21   51.19
  -4  -1   7  923.01   46.40
  -4   1   6 1079.69   45.90
   4   1  -6 1092.39   58.09
   4  -1  -6 1056.29   54.49
  -4  -1   6 1047.60   49.10
  -4   1   5  456.05   23.20
   4   1  -5  490.65   32.80
   4  -1  -5  495.95   30.40
   4  -1  -5  432.66   21.50
  -4  -1   5  460.05   27.20
  -4   1   4   45.10    7.30
   4   1  -4   46.60   12.00
   4  -1  -4   29.50    7.50
  -4  -1   4   47.80    8.70
   4  -1  -4   42.20    6.80
   4   1  -3   -1.90    4.90
   4   1  -3   10.90    4.20
  -4   1   3    7.50    3.00
  -4  -1   3   16.30    5.10
   4  -1  -3   13.80    4.60
   4  -1  -3   10.10    4.10
   4   1  -2  415.36   25.20
   4   1  -2  406.26   20.80
  -4   1   2  387.46   18.50
  -4  -1   2  403.96   21.50
   4  -1  -2  379.66   19.90
   4  -1  -2  389.86   19.90
  -4   1   1   47.00    8.70
   4   1  -1   71.89   10.10
   4  -1  -1   60.09    8.30
   4  -1  -1   62.69    7.00
  -4  -1   1   81.79   11.10
   4   1   0  104.29   12.40
   4  -1   0  134.69   14.40
   4  -1   0  107.49    6.60
  -4  -1   0   86.89   12.60
   4  -1   0   96.09   12.90
  -4  -1  -1   58.29   11.60
   4  -1   1   39.80    8.20
   4  -1   1   60.69   11.40
   4   1   2 2096.29   90.19
   4  -1   2 2226.68   83.79
   4  -1   2 2247.58   85.89
   4   1   3  593.24   37.60
   4  -1   3  637.64   34.90
   4  -1   3  634.04   35.10
   4   1   4 1159.58   58.99
   4  -1   4 1217.88   57.19
   4  -1   4 1214.98   55.39
   4   1   5  197.98   25.30
   4  -1   5  192.18   21.40
   4  -1   5  171.38   22.10
   4   1   6   38.10   14.20
   4  -1   6   15.00   10.30
   4   1   7    2.40   11.00
   4  -1   7    5.40    9.60
   4   1   8    7.80   14.50
   4  -1   8    3.70   11.30
   4   2 -10   12.10   23.50
   4  -2 -10    0.10   17.80
  -4  -2  10   16.40   14.70
   4   2  -9  900.91   69.29
   4  -2  -9  856.01   60.09
  -4  -2   9  826.42   51.79
   4   2  -8  253.77   38.10
  -4  -2   8  409.06   32.30
   4  -2  -8  384.06   40.30
   4   2  -7 2777.62  125.89
   4  -2  -7 2865.01  117.69
  -4  -2   7 2966.20  112.49
   4   2  -6  766.12   51.89
  -4  -2   6  811.82   42.30
   4  -2  -6  849.41   46.40
   4   2  -5  495.95   37.70
  -4  -2   5  519.45   30.80
   4  -2  -5  510.45   27.40
   4  -2  -5  496.85   31.50
  -4   2   4   76.39    6.80
   4   2  -4  111.09   18.50
   4  -2  -4   70.49   12.00
   4  -2  -4   76.99   12.10
  -4  -2   4   80.79   12.00
  -4   2   3  688.33   24.80
   4   2  -3  669.03   40.10
   4  -2  -3  632.94   31.40
  -4  -2   3  636.74   31.70
   4  -2  -3  670.83   32.40
  -4   2   2  125.89    8.60
  -4  -2   2   99.69   12.00
   4  -2  -2  116.79   13.60
   4  -2  -1 1063.79   44.00
   4  -2  -1 1034.80   43.80
  -4  -2   1 1116.19   46.10
   4  -2   0  765.12   35.40
   4  -2   0  773.22   34.50
  -4  -2   0  842.92   39.90
   4  -2   1 1822.42   68.79
  -4  -2  -1 1674.73   73.99
   4  -2   1 1934.31   70.69
   4  -2   2  115.19   14.60
  -4  -2  -2   87.99   15.40
   4  -2   2   97.89   13.70
   4   2   3 4150.88  157.18
   4  -2   3 4271.77  148.79
   4  -2   3 4035.30  149.39
   4   2   4  225.38   29.40
   4  -2   4  294.57   24.00
   4  -2   4  277.37   23.50
   4   2   5  182.08   26.90
   4  -2   5  230.18   26.40
   4   2   6   47.30   17.20
   4  -2   6   25.30   11.40
   4   2   7  585.14   47.90
   4  -2   7  530.05   42.60
   4   2   8  102.19   26.00
   4  -2   8   86.89   22.50
   4   3 -10  115.69   39.20
  -4  -3  10  186.98   29.90
   4  -3 -10  212.48   38.10
   4   3  -9  205.68   40.00
  -4  -3   9  277.97   32.60
   4  -3  -9  251.67   35.30
   4   3  -8   -1.90   18.20
   4  -3  -8    3.90    9.70
  -4  -3   8    2.50    9.50
   4   3  -7 1077.09   71.49
   4  -3  -7 1208.48   63.99
  -4  -3   7 1155.08   58.29
   4   3  -6  457.25   42.30
   4  -3  -6  523.75   35.50
  -4  -3   6  493.95   32.70
   4  -3  -6  485.55   30.20
   4   3  -5   15.40   14.00
  -4  -3   5    9.80    8.20
   4  -3  -5    7.60    6.20
   4  -3  -5   20.30    9.50
  -4  -3   4  458.85   27.90
   4  -3  -4  436.96   26.90
   4  -3  -3  844.92   40.30
  -4  -3   3  875.81   40.60
  -4   3   2   94.49    6.40
  -4  -3   2  115.99   13.90
   4  -3  -2   87.29   13.20
  -4  -3   1    7.30    4.80
   4  -3  -1   16.20    4.80
   4  -3  -1   12.50    7.70
  -4  -3   0  356.76   23.60
   4  -3   0  324.07   21.20
   4  -3   0  351.96   19.00
   4  -3   1  911.91   41.60
   4  -3   1  960.90   40.80
  -4  -3  -1  870.81   45.50
   4  -3   2  125.39   15.40
  -4  -3  -2   87.99   15.60
   4  -3   2  116.99   15.00
  -4  -3  -3 2927.01  116.09
   4  -3   3 2939.91  109.89
   4  -3   3 2933.81  110.69
   4  -3   4  191.48   22.60
   4  -3   4  213.38   23.80
  -4  -3  -4  239.78   28.60
   4   3   5  586.84   44.20
   4  -3   5  608.24   39.50
   4   3   6  254.77   35.70
   4  -3   6  256.47   31.00
   4   3   7   20.00   17.50
   4  -3   7    6.10   10.90
   4  -3   8   -4.20   11.30
   4   4  -9   64.69   32.10
   4  -4  -9   88.39   23.50
  -4  -4   9   83.19   21.50
   4   4  -8 1291.17   88.79
  -4  -4   8 1323.17   69.89
   4  -4  -8 1369.56   75.89
  -4  -4   7 1479.25   71.19
   4  -4  -7 1435.36   73.89
   4  -4  -6  626.84   37.00
   4  -4  -6  534.45   38.40
  -4  -4   6  602.44   38.70
  -4  -4   5 1631.04   72.59
   4  -4  -5 1624.14   68.69
   4  -4  -4  318.37   25.30
  -4  -4   4  363.06   26.20
  -4  -4   3    6.20    5.30
   4  -4  -3    8.60    8.30
  -4  -4   2  912.71   42.40
   4  -4  -2  855.81   43.30
   4  -4  -1  839.92   41.80
  -4  -4   1  791.72   39.60
   4  -4   0   40.50   11.30
  -4  -4   0   40.90    9.20
   4  -4   0   52.79    8.40
   4  -4   1   23.70    6.80
  -4  -4  -1   31.20    9.60
   4  -4   1   28.70    8.60
   4  -4   2  888.91   43.90
   4  -4   2  934.61   44.10
  -4  -4  -2  978.90   49.90
   4  -4   3  711.03   38.70
   4  -4   3  719.73   38.30
  -4  -4  -3  635.54   41.00
   4  -4   4  942.21   49.60
   4  -4   4  915.61   48.20
  -4  -4  -4  974.20   54.69
   4  -4   5  500.45   36.00
  -4  -4  -5  450.55   38.70
  -4  -4  -6  121.59   24.80
   4  -4   6   60.39   16.10
   4  -4   7   16.00   12.50
   4  -5  -9  311.47   45.30
  -4  -5   9  369.06   43.30
  -4  -5   8  427.76   43.00
   4  -5  -8  431.86   45.60
   4  -5  -7    9.90   11.20
  -4  -5   7    6.80   10.10
  -4  -5   6  515.05   37.20
   4  -5  -6  469.75   35.10
  -4  -5   5  349.07   30.90
   4  -5  -5  339.17   29.30
  -4  -5   4   16.00    9.40
   4  -5  -4  -13.50    9.10
  -4  -5   3  301.47   24.30
   4  -5  -3  290.67   28.80
  -4  -5   2  456.15   27.80
   4  -5  -2  475.45   32.40
  -4  -5   2  486.65   29.90
   4  -5  -1  952.20   49.20
  -4  -5   1  975.70   46.40
  -4  -5   0   32.50    9.50
   4  -5   0   20.30   10.50
   4  -5   1 1085.49   48.90
  -4  -5  -1 1200.88   54.79
   4  -5   1 1176.78   54.79
   4  -5   2 1429.46   61.89
   4  -5   2 1379.76   63.19
  -4  -5  -2 1542.85   67.29
   4  -5   3   84.59   14.80
  -4  -5  -3  104.09   19.30
   4  -5   3  130.69   18.50
   4  -5   4 1014.10   53.29
  -4  -5  -4  986.00   56.79
   4  -5   5  378.26   31.70
   4  -5   6  143.09   23.90
   4  -6  -8  728.53   56.79
  -4  -6   8  725.73   53.39
  -4  -6   7  132.79   24.40
   4  -6  -7  111.89   24.70
   4  -6  -6 1561.04   76.39
  -4  -6   6 1604.84   78.29
  -4  -6   5  113.79   21.20
   4  -6  -5  106.69   21.30
   4  -6  -4  391.66   36.90
  -4  -6   4  382.26   32.60
  -4  -6   3  648.04   35.80
  -4  -6   3  608.54   38.80
   4  -6  -3  688.93   43.30
  -4  -6   2   10.70    7.70
  -4  -6   2    9.20    6.70
   4  -6  -2    3.50   11.20
  -4  -6   1   10.30    7.00
  -4  -6   1   10.50    7.20
   4  -6  -1   18.40   12.30
  -4  -6   0   85.09   14.40
  -4  -6   0  126.99   18.60
   4  -6   0  123.99   20.80
  -4  -6  -1  537.95   34.90
  -4  -6  -1  559.84   34.60
   4  -6   1  471.85   35.60
   4  -6   2  455.45   32.30
  -4  -6  -2  454.85   33.20
  -4  -6  -2  489.75   33.80
   4  -6   3  335.07   27.30
   4  -6   3  386.96   29.50
  -4  -6  -3  354.86   29.70
  -4  -6  -4 1091.89   60.09
   4  -6   4 1209.98   60.49
  -4  -6  -5   49.99   16.80
   4  -6   5   44.50   15.00
  -4  -6  -6   27.80   14.70
   4  -6   6   46.00   17.20
  -4  -7   7  487.65   43.20
   4  -7  -7  519.05   49.70
   4  -7  -6   67.29   23.30
  -4  -7   6  159.58   26.70
  -4  -7   5  246.78   31.80
   4  -7  -5  295.77   35.40
  -4  -7   4  494.25   39.60
   4  -7  -4  499.45   45.90
  -4  -7   3   -2.50    9.60
  -4  -7   3    3.30    8.30
   4  -7  -3  -19.20   12.20
   4  -7  -2   33.90   17.40
  -4  -7   2    8.20    8.80
  -4  -7   2   17.50   10.30
  -4  -7   1  118.39   18.40
   4  -7  -1  136.09   25.10
  -4  -7   1  104.29   17.80
  -4  -7   0 1269.57   60.99
  -4  -7   0 1316.57   63.99
   4  -7   0 1306.97   67.79
   4  -7   1   18.80   13.80
  -4  -7  -1    3.30    7.60
  -4  -7  -2 1481.95   72.89
   4  -7   2 1554.64   72.49
   4  -7   3  356.56   36.00
  -4  -7  -3  409.56   39.00
  -4  -7  -4   -2.70   10.70
  -4  -7  -5  470.55   40.00
  -4  -8   5  774.72   52.89
   4  -8  -5  792.62   59.69
  -4  -8   4  705.93   50.69
   4  -8  -4  747.63   56.49
   4  -8  -3  -30.50   14.30
  -4  -8   3   10.90   15.20
  -4  -8   2   40.20   13.80
   4  -8  -2   30.90   20.20
  -4  -8   1   43.00   14.50
   4  -8  -1    4.70   18.60
   4  -8   0  388.46   41.90
  -4  -8   0  372.36   37.40
   4  -8   1  114.99   24.00
  -4  -8  -1  105.29   20.80
   4  -8   2  169.58   26.70
  -4  -8  -2  131.39   23.30
  -4  -8  -3  375.96   39.20
   4  -9  -1  475.65   52.59
  -4  -9   1  471.95   40.90
   5   0 -10  796.42   65.59
   5   0  -9    8.00   12.60
   5   0  -8  667.03   48.50
  -5   0   8  611.54   37.70
   5   0  -7   -6.90    9.30
  -5   0   7   -0.40    6.00
   5   0  -6 1468.85   67.79
  -5   0   6 1354.76   57.89
   5   0  -5    5.70    4.70
   5   0  -5    5.50    5.90
  -5   0   5    5.40    6.10
   5   0  -4 7955.10  257.77
  -5   0   4 7726.53  256.77
   5   0  -4 7993.90  264.47
   5   0  -3   -7.30    3.80
   5   0  -3   -4.80    3.40
  -5   0   3    0.30    3.50
   5   0  -2 6431.56  215.58
   5   0  -2 6542.65  217.68
  -5   0   2 6572.24  215.18
  -5   0   1   -1.80    4.40
   5   0  -1   -7.90    3.60
   5   0  -1   -2.00    3.90
  -5   0   0 2156.48   83.29
   5   0   0 2009.70   81.19
   5   0   1   -3.60    4.60
   5   0   1    2.50    6.20
   5   0   2 2004.40   85.99
   5   0   2 2100.19   83.49
   5   0   3   10.50    8.00
   5   0   3    2.60    6.10
   5   0   4  615.64   40.60
   5   0   5    9.30    9.00
   5   0   6 3435.26  141.49
   5   0   7   -4.60   11.20
   5   0   8 1367.66   81.49
   5   1 -10  112.09   31.30
  -5  -1  10  133.79   23.80
   5  -1 -10  146.69   32.70
   5   1  -9   42.10   20.20
  -5  -1   9   64.09   15.80
   5  -1  -9   55.69   18.70
   5   1  -8   56.69   21.00
   5  -1  -8   58.09   16.70
  -5  -1   8   49.30   13.60
   5   1  -7   62.19   18.30
  -5  -1   7   42.10   11.80
   5  -1  -7   47.00   14.70
  -5   1   6   -0.80    5.10
   5   1  -6   -9.40    5.90
   5  -1  -6    4.80    6.40
  -5  -1   6   -1.80    7.00
   5   1  -5   32.90   12.30
  -5   1   5   35.60    8.30
   5  -1  -5   36.00    6.80
  -5  -1   5   37.50    9.30
   5  -1  -5   34.10    9.50
   5   1  -4   41.50    7.60
   5   1  -4   48.00   12.60
  -5   1   4   31.80    6.40
   5  -1  -4   19.40    5.20
   5  -1  -4   39.80    9.60
  -5  -1   4   31.10    7.50
   5   1  -3    9.90    4.60
  -5   1   3   10.60    4.00
   5   1  -3   12.10    8.50
  -5  -1   3    7.20    4.40
   5  -1  -3   14.00    5.60
   5  -1  -3   10.40    4.80
   5   1  -2  173.98   14.60
  -5   1   2  141.49   12.60
   5   1  -2  173.98   19.90
   5  -1  -2  145.89   14.80
  -5  -1   2  152.88   16.10
  -5   1   1  297.67   21.00
   5   1  -1  309.17   20.90
  -5  -1   1  360.06   23.70
   5  -1  -1  311.97   16.30
   5  -1  -1  316.67   20.50
   5   1   0   28.40    8.00
  -5  -1   0   50.99   11.40
   5  -1   0   35.20    5.50
   5  -1   0   35.10    9.70
   5  -1   0   39.40   10.00
   5   1   1   71.39   12.30
  -5  -1  -1  112.29   16.60
   5  -1   1  102.99   14.90
   5  -1   1   90.89   14.30
   5   1   2  197.48   25.20
   5  -1   2  207.28   22.00
   5  -1   2  168.98   20.20
   5   1   3   82.09   17.40
   5  -1   3   80.89   14.80
   5  -1   3   73.79   14.60
   5   1   4  438.36   35.70
   5  -1   4  468.55   32.00
   5  -1   4  426.36   32.00
   5   1   5    6.50    9.40
   5  -1   5   21.80   10.40
   5  -1   5    5.20    8.20
   5   1   6   18.80   13.60
   5  -1   6   16.10   12.90
   5   1   7   30.10   16.70
   5  -1   7   10.90   12.30
   5   1   8   19.30   17.10
   5  -1   8   -5.40   14.10
   5   2 -10   17.70   24.10
   5  -2 -10    3.80   16.50
  -5  -2  10  -18.80   10.60
   5   2  -9 1243.58   82.59
  -5  -2   9 1164.88   63.99
   5  -2  -9 1222.68   72.09
   5   2  -8   27.80   20.20
   5  -2  -8   31.50   15.20
  -5  -2   8   44.60   13.20
   5   2  -7   10.70   13.10
   5  -2  -7   24.10   11.40
  -5  -2   7   14.80    9.70
   5   2  -6  264.07   34.00
  -5  -2   6  279.97   27.40
   5  -2  -6  305.27   25.30
   5   2  -5 6039.20  222.48
   5  -2  -5 6207.98  212.58
   5  -2  -5 6325.87  204.38
  -5  -2   5 5972.40  209.28
  -5   2   4  832.82   32.70
   5   2  -4  836.12   49.10
   5  -2  -4  816.62   40.80
  -5  -2   4  876.81   40.80
   5  -2  -4  828.92   37.60
   5   2  -3 5570.94  200.38
  -5   2   3 5538.85  180.48
  -5  -2   3 5561.94  189.68
   5  -2  -3 5617.44  188.58
   5  -2  -3 5758.22  187.38
  -5   2   2  827.12   34.50
   5  -2  -2  762.42   36.40
  -5  -2   2  838.42   39.50
  -5   2   1   84.29   11.80
   5  -2  -1   94.49    8.50
  -5  -2   1   92.09   13.50
   5  -2  -1   97.59   13.00
  -5  -2   0   38.10   10.50
   5  -2   0   40.30    9.10
   5  -2   0   32.00    8.20
   5  -2   0   44.00    5.20
   5  -2   1 1631.94   66.49
   5  -2   1 1680.23   67.69
  -5  -2  -1 1584.54   71.69
  -5  -2  -2  103.59   17.10
   5  -2   2  103.59   14.60
   5  -2   2  118.29   17.80
   5   2   3  534.95   38.90
   5  -2   3  522.45   32.70
   5  -2   3  516.15   33.70
  -5  -2  -3  413.26   33.90
   5   2   4   56.99   16.70
   5  -2   4   62.09   13.80
   5  -2   4   74.79   15.80
   5   2   5 1270.97   74.39
   5  -2   5 1427.86   69.29
   5   2   6  235.58   36.70
   5  -2   6  287.47   34.30
   5   2   7 2437.16  119.09
   5  -2   7 2322.77  108.89
   5   3 -10   -0.90   26.30
  -5  -3  10   51.69   18.60
   5  -3 -10   35.10   21.50
   5   3  -9   94.39   31.60
   5  -3  -9  107.19   26.40
  -5  -3   9   95.09   20.80
   5   3  -8  113.29   31.50
   5  -3  -8  154.28   26.30
  -5  -3   8  141.39   23.00
   5   3  -7    4.50   14.80
  -5  -3   7    3.60    9.20
   5  -3  -7    3.90    8.80
   5   3  -6  505.85   52.09
   5  -3  -6  426.26   32.70
   5  -3  -6  432.76   30.50
  -5  -3   6  444.36   32.90
   5   3  -5    4.30   12.90
   5  -3  -5   21.20   10.80
   5  -3  -5    7.90    7.20
  -5  -3   5   25.20    9.90
  -5  -3   4    2.50    5.40
   5  -3  -4    2.80    4.70
   5  -3  -4    5.10    7.70
   5  -3  -3   86.49   14.10
  -5  -3   3   95.29   13.70
  -5  -3   2  363.96   24.50
   5  -3  -2  376.36   23.90
   5  -3  -1   13.80    6.30
   5  -3  -1   12.00    6.30
  -5  -3   1   18.20    7.10
   5  -3   0  300.97   19.80
  -5  -3   0  297.37   24.40
   5  -3   0  301.47   21.10
   5  -3   1   19.10    6.30
   5  -3   1   19.20    7.30
  -5  -3  -1   30.50   10.20
   5  -3   2   18.20    8.00
   5  -3   2   11.10    6.50
  -5  -3  -2    7.10    8.00
   5  -3   3  315.37   25.70
  -5  -3  -3  337.77   33.30
   5  -3   3  298.47   25.70
   5  -3   4  405.46   32.30
  -5  -3  -4  462.25   37.60
   5  -3   4  490.45   35.00
   5  -3   5  206.28   28.10
  -5  -3  -5  218.28   30.20
   5   3   6   -2.80   12.40
   5  -3   6    1.10    9.00
  -5  -3  -6   14.40   14.60
   5   3   7   29.10   18.10
   5  -3   7   24.40   14.70
   5   4  -9  163.58   42.40
   5  -4  -9  200.68   33.50
  -5  -4   9  187.28   29.40
   5   4  -8  148.39   38.40
   5  -4  -8   94.49   22.80
  -5  -4   8  143.59   23.80
   5  -4  -7   19.90   11.90
  -5  -4   7   -5.20    9.20
  -5  -4   6  386.36   33.30
   5  -4  -6  431.66   33.50
   5  -4  -6  420.06   32.40
   5  -4  -5 1590.84   70.29
  -5  -4   5 1630.64   72.49
   5  -4  -4 3345.27  124.69
  -5  -4   4 3351.76  125.49
  -5  -4   3 1962.20   80.39
   5  -4  -3 2022.00   81.49
   5  -4  -2 1668.83   70.99
  -5  -4   2 1726.03   71.09
   5  -4  -1  152.68   19.30
  -5  -4   1  157.78   19.70
  -5  -4   0  477.35   31.50
   5  -4   0  500.35   30.10
   5  -4   0  507.15   26.70
   5  -4   1  176.38   19.90
  -5  -4  -1  237.88   26.10
   5  -4   1  170.48   18.20
  -5  -4  -2 1045.80   57.69
   5  -4   2 1143.29   52.69
   5  -4   2 1143.39   53.69
   5  -4   3    5.20    7.80
   5  -4   3   15.40    8.60
  -5  -4  -3   29.90   11.80
   5  -4   4   49.00   13.70
  -5  -4  -4   46.80   15.50
   5  -4   4   53.59   14.80
  -5  -4  -5  425.76   41.90
   5  -4   5  395.26   33.90
  -5  -4  -6  957.50   61.79
   5  -4   6  832.42   55.19
   5  -4   7  752.72   54.99
  -5  -5   9    9.20   13.90
   5  -5  -9   13.40   17.40
  -5  -5   8   43.00   16.90
   5  -5  -8   70.99   20.60
   5  -5  -7  456.55   39.20
  -5  -5   7  498.85   38.90
  -5  -5   6    8.80   11.40
   5  -5  -6   -3.90   12.10
  -5  -5   5  610.64   40.50
   5  -5  -5  567.64   39.20
   5  -5  -4  -11.00   10.50
  -5  -5   4    4.10    7.30
  -5  -5   3  356.56   23.40
   5  -5  -3  306.37   30.20
  -5  -5   3  344.97   26.60
   5  -5  -2   18.40   12.30
  -5  -5   2    7.10    6.70
  -5  -5   1  899.01   46.60
   5  -5  -1  886.91   47.90
   5  -5   0   19.20    9.60
  -5  -5   0   23.20    9.60
  -5  -5  -1   -0.20    6.40
   5  -5   1    4.50    6.90
   5  -5   2  109.89   16.90
  -5  -5  -2  131.49   21.50
   5  -5   2  105.79   16.70
  -5  -5  -3  967.50   56.29
   5  -5   3  894.11   49.20
   5  -5   3  914.81   49.30
   5  -5   4   90.79   17.70
  -5  -5  -4   73.39   19.70
   5  -5   5  813.52   50.99
   5  -5   6   11.90   12.10
   5  -6  -8   53.99   20.40
  -5  -6   8   41.90   17.60
  -5  -6   7   23.60   14.00
   5  -6  -7   28.40   15.70
   5  -6  -7    9.70   18.30
  -5  -6   6  415.76   40.50
   5  -6  -6  409.56   40.90
   5  -6  -5  502.15   41.40
  -5  -6   5  566.24   41.70
  -5  -6   4 1753.22   80.39
   5  -6  -4 1801.82   82.19
   5  -6  -3  494.55   38.70
  -5  -6   3  532.45   36.40
  -5  -6   3  512.25   31.50
  -5  -6   2  995.70   49.40
  -5  -6   2  962.30   50.79
   5  -6  -2 1002.60   55.09
  -5  -6   1    3.90    6.60
  -5  -6   1    4.90    7.10
   5  -6  -1  -11.70   10.30
  -5  -6   0   19.90   10.30
   5  -6   0    0.20    9.20
  -5  -6  -1  149.59   21.40
   5  -6   1  164.08   22.70
   5  -6   2  126.49   20.00
  -5  -6  -2  146.59   22.60
   5  -6   3  227.48   26.20
   5  -6   4  421.16   35.40
   5  -6   5   74.29   18.90
  -5  -7   7  136.69   27.00
   5  -7  -7  123.39   32.00
  -5  -7   6  787.92   53.09
   5  -7  -6  805.42   56.39
  -5  -7   5   66.09   20.60
   5  -7  -5  103.09   26.20
  -5  -7   4    4.80   12.70
   5  -7  -4    1.40   16.00
   5  -7  -3   97.69   24.70
  -5  -7   3  112.89   23.40
  -5  -7   3  134.79   21.60
   5  -7  -2  903.11   56.99
  -5  -7   2  992.10   53.19
  -5  -7   2  922.71   49.70
  -5  -7   1  277.37   29.40
   5  -7  -1  247.88   33.10
  -5  -7   1  220.78   25.30
  -5  -7   0  471.15   35.10
   5  -7   0  466.85   38.40
  -5  -7   0  552.94   37.50
   5  -7   1  158.78   24.10
  -5  -7  -1  107.79   19.20
  -5  -7  -2  360.26   36.50
   5  -7   2  533.15   37.30
   5  -7   3   35.30   13.50
  -5  -7  -3    7.80   11.60
  -5  -7  -4 1653.13   83.29
  -5  -8   5  607.34   49.60
   5  -8  -5  614.04   56.49
   5  -8  -4   -7.70   18.90
  -5  -8   4    2.80   15.40
  -5  -8   3  916.71   56.69
   5  -8  -3  888.61   61.39
  -5  -8   2   -6.90   10.40
   5  -8  -2  -14.20   15.60
  -5  -8   2   10.50   10.40
   5  -8  -1   32.90   18.60
  -5  -8   1   22.20   11.80
  -5  -8   0   45.30   15.00
   5  -8   0   50.89   20.10
   5  -8   1   46.30   15.90
  -5  -8  -1   11.10   12.40
  -5  -8  -2  113.69   23.10
   5  -8   2  133.29   22.60
   6   0 -10 1461.15   90.29
   6   0  -9  -14.70   11.90
   6   0  -8   20.30   12.60
  -6   0   8   20.30   10.30
   6   0  -7    4.50    8.80
  -6   0   7   -1.80    6.90
  -6   0   6 1474.15   60.99
   6   0  -6 1374.86   68.19
   6   0  -5   11.00    6.90
  -6   0   5    0.40    4.60
   6   0  -5    2.90    5.70
  -6   0   4  314.07   20.00
   6   0  -4  331.87   22.10
   6   0  -4  299.37   23.20
   6   0  -3   -4.30    3.60
   6   0  -3    3.80    5.10
  -6   0   3   -0.60    3.90
   6   0  -2 4020.60  138.59
  -6   0   2 4006.90  140.69
   6   0  -2 3871.31  140.89
   6   0  -1   -0.70    4.70
   6   0  -1    2.00    5.10
  -6   0   1    0.80    5.20
   6   0   0 6340.27  221.98
  -6   0   0 6634.24  224.38
   6   0   1   14.60    8.20
   6   0   1    0.70    5.00
   6   0   2  386.36   32.60
   6   0   2  445.16   31.00
   6   0   3    4.60    7.50
   6   0   3   -5.10    5.80
   6   0   4   46.90   14.30
   6   0   5    0.90   10.40
   6   0   6  145.99   27.30
   6   0   7   -6.10   13.20
   6   1 -10  866.91   69.59
   6  -1 -10  859.31   66.29
   6   1  -9   45.70   21.80
  -6  -1   9   65.59   17.10
   6  -1  -9   72.99   23.00
   6   1  -8   99.09   25.30
  -6  -1   8  121.29   19.90
   6  -1  -8  117.19   23.00
   6   1  -7   33.90   15.40
   6  -1  -7   49.20   14.30
  -6  -1   7   40.40   12.30
  -6   1   6   34.30   10.50
   6   1  -6   68.89   17.40
  -6  -1   6   73.39   14.10
   6  -1  -6   55.19   13.50
  -6   1   5  195.18   15.70
   6   1  -5  217.28   26.10
   6  -1  -5  228.38   20.70
   6  -1  -5  186.98   15.40
  -6  -1   5  197.78   20.30
  -6   1   4  133.79   11.70
   6   1  -4  135.09   20.00
   6   1  -4  131.89   15.10
  -6  -1   4  113.49   14.60
   6  -1  -4  130.29   16.30
   6  -1  -4  146.69   15.50
   6   1  -3  202.18   23.10
  -6   1   3  239.98   16.40
   6   1  -3  223.38   18.00
   6  -1  -3  215.28   16.70
  -6  -1   3  228.18   18.20
   6  -1  -3  196.98   16.30
   6   1  -2  697.53   37.70
   6   1  -2  569.84   33.30
   6  -1  -2  619.74   30.30
  -6  -1   2  697.03   36.00
   6  -1  -2  687.03   34.40
  -6   1   1  989.60   45.60
   6   1  -1  874.21   43.80
   6  -1  -1  931.41   44.60
   6  -1  -1  900.41   36.90
  -6  -1   1  805.62   45.20
   6   1   0 1611.84   71.69
  -6   1   0 1888.61   74.79
  -6  -1   0 1770.82   75.99
   6  -1   0 1681.33   73.39
   6   1   1   22.30    8.70
   6  -1   1   25.60   10.00
  -6  -1  -1   36.70   11.60
   6  -1   1   21.90    8.60
   6   1   2   78.49   16.70
  -6  -1  -2   65.09   14.90
   6  -1   2   61.39   13.80
   6  -1   2   58.39   13.70
   6   1   3  142.09   24.10
   6  -1   3  125.69   19.90
   6  -1   3  137.79   20.40
   6   1   4  979.20   61.29
   6  -1   4  977.80   56.09
   6  -1   4  971.10   52.59
   6   1   5  434.96   47.10
   6  -1   5  442.06   34.10
   6  -1   5  437.06   38.00
   6   1   6  477.55   49.90
   6  -1   6  486.35   42.80
   6   1   7   19.50   20.80
   6  -1   7   29.60   17.90
   6   2 -10  106.19   34.80
  -6  -2  10  140.39   25.70
   6  -2 -10  152.78   32.30
   6   2  -9  685.83   60.29
  -6  -2   9  656.53   45.10
   6  -2  -9  619.94   50.09
   6   2  -8    1.70   14.20
   6  -2  -8    2.80    9.70
  -6  -2   8    7.90   10.40
   6   2  -7  391.36   44.70
   6  -2  -7  301.67   33.10
  -6  -2   7  425.16   31.80
   6   2  -6  120.29   24.60
  -6  -2   6  107.19   17.50
   6  -2  -6  107.29   18.30
   6   2  -5  675.03   44.90
  -6  -2   5  620.94   35.70
   6  -2  -5  576.34   35.60
   6  -2  -5  643.74   32.20
   6   2  -4   65.59   16.80
  -6  -2   4   75.99   12.50
   6  -2  -4   84.09   13.00
   6  -2  -4   80.69   11.60
  -6   2   3   88.19   10.70
   6   2  -3  162.08   24.20
   6  -2  -3  112.89   14.40
  -6  -2   3   90.59   13.80
   6  -2  -3  104.99   13.10
  -6   2   2  625.64   34.40
   6  -2  -2  802.72   38.00
   6  -2  -2  828.22   34.50
  -6  -2   2  810.52   41.20
  -6   2   1 4017.20  140.39
  -6  -2   1 4230.98  147.19
   6  -2  -1 3716.93  139.49
   6  -2  -1 3896.91  131.39
  -6  -2   0  424.06   31.70
   6  -2   0  479.35   31.30
   6  -2   0  485.65   29.50
   6  -2   1 3315.97  123.69
  -6  -2  -1 3223.88  126.69
   6  -2   1 3221.08  122.59
   6  -2   2   12.40    7.40
   6  -2   2   31.40   10.60
  -6  -2  -2   16.80   10.00
  -6  -2  -3    3.80    9.00
   6  -2   3    9.20    8.70
   6  -2   3   10.90    8.20
   6   2   4   14.20   11.60
   6  -2   4   21.10   10.60
  -6  -2  -4   26.70   13.10
   6  -2   4   43.00   13.10
   6   2   5  358.56   42.70
   6  -2   5  292.07   34.00
   6   2   6   24.60   17.10
   6  -2   6   30.00   14.90
   6   2   7   22.90   17.90
   6  -2   7   11.90   15.10
   6   3 -10   -6.20   25.60
   6  -3 -10    4.50   14.50
  -6  -3  10   13.20   16.60
   6   3  -9  741.23   67.89
   6  -3  -9  745.53   56.59
  -6  -3   9  757.82   51.09
   6   3  -8  234.78   40.80
   6  -3  -8  274.97   34.50
  -6  -3   8  307.67   33.50
   6   3  -7   -1.20   15.40
  -6  -3   7   18.10   11.80
   6  -3  -7   22.30   11.70
   6   3  -6  202.58   33.70
   6  -3  -6  141.19   21.30
   6  -3  -6  119.99   17.10
  -6  -3   6  145.59   21.90
   6   3  -5  236.68   34.20
   6  -3  -5  254.17   26.90
  -6  -3   5  250.67   25.60
   6  -3  -5  257.07   21.50
   6  -3  -4  351.66   24.60
   6  -3  -4  357.36   25.10
  -6  -3   4  347.97   25.90
   6  -3  -3  119.29   15.30
  -6  -3   3   86.59   14.20
   6  -3  -3  113.99   15.90
   6  -3  -2  253.37   17.20
   6  -3  -2  218.18   18.50
  -6  -3   2  200.38   22.20
   6  -3  -1 1746.53   64.29
  -6  -3   1 1859.71   76.99
   6  -3  -1 1681.73   71.19
   6  -3   0  104.99   15.40
  -6  -3   0   85.49   16.10
   6  -3   0  108.89   16.10
   6  -3   1  583.24   35.20
   6  -3   1  581.54   34.20
  -6  -3  -1  578.14   39.40
   6  -3   2  265.87   27.70
  -6  -3  -2  281.57   30.60
   6  -3   2  330.77   25.70
   6  -3   3   48.80   13.00
   6  -3   3   44.60   13.10
  -6  -3  -3   61.39   17.10
  -6  -3  -4  311.37   34.90
   6  -3   4  231.08   28.70
   6  -3   4  235.38   28.60
  -6  -3  -5 1192.28   69.69
   6  -3   5 1219.38   66.39
   6  -3   6   23.40   13.10
  -6  -3  -6    6.70   16.10
   6   4  -9   16.70   26.80
   6  -4  -9   18.80   16.10
  -6  -4   9    8.80   12.50
   6   4  -8  209.78   41.20
  -6  -4   8  167.08   26.60
   6  -4  -8  151.78   26.80
  -6  -4   7  378.46   37.20
   6  -4  -7  287.17   33.40
  -6  -4   6  505.55   38.20
   6  -4  -6  445.96   35.10
   6  -4  -6  485.45   35.40
  -6  -4   5   -2.60    6.50
   6  -4  -5    0.00    6.30
   6  -4  -5    0.00   10.10
   6  -4  -4  503.75   31.80
  -6  -4   4  454.55   31.70
   6  -4  -4  470.05   33.40
   6  -4  -3  620.64   36.80
  -6  -4   3  633.94   37.20
   6  -4  -2  620.84   35.50
  -6  -4   2  587.64   36.60
   6  -4  -1 2324.57   92.09
  -6  -4   1 2335.07   95.99
   6  -4   0 1713.63   72.09
   6  -4   0 1679.83   69.09
  -6  -4   0 1647.54   75.79
  -6  -4  -1  298.77   31.30
   6  -4   1  322.07   25.10
   6  -4   1  252.87   22.00
   6  -4   2  619.74   36.90
   6  -4   2  605.74   38.10
  -6  -4  -2  530.75   41.10
   6  -4   3  101.59   18.60
   6  -4   3   62.79   14.30
  -6  -4  -3  117.39   21.90
   6  -4   4    9.00    9.50
  -6  -4  -4    5.70   12.40
   6  -4   4   23.70   12.30
  -6  -4  -5   16.40   15.10
   6  -4   5    0.70    9.50
  -6  -4  -6  198.28   33.60
   6  -4   6  161.98   27.90
  -6  -5   8   71.69   20.00
   6  -5  -8  107.79   24.30
   6  -5  -7  404.86   36.00
  -6  -5   7  343.67   37.30
   6  -5  -6   51.69   15.10
   6  -5  -6   70.09   19.40
  -6  -5   6   68.39   19.60
   6  -5  -5   80.19   18.50
  -6  -5   5   64.99   16.10
   6  -5  -4   -5.00   10.80
  -6  -5   4    1.80    7.80
  -6  -5   3  776.52   44.20
   6  -5  -3  774.12   45.80
   6  -5  -2  413.96   31.50
  -6  -5   2  403.86   30.40
   6  -5  -1   33.10   11.50
  -6  -5   1   50.79   13.40
  -6  -5   0 1009.50   54.59
   6  -5   0  968.00   50.59
   6  -5   1  516.45   34.10
  -6  -5  -1  450.55   35.90
   6  -5   2    5.70    8.20
   6  -5   2    5.10    7.90
  -6  -5  -2   -3.70   10.30
   6  -5   3  452.75   33.90
   6  -5   3  382.16   32.40
  -6  -5  -3  311.07   36.50
  -6  -5  -4  687.33   52.89
   6  -5   4  793.32   49.60
  -6  -5  -5   60.39   22.20
   6  -5   5   41.90   17.10
  -6  -6   8    8.90   14.60
   6  -6  -8   32.60   19.10
   6  -6  -7   -6.80   17.60
  -6  -6   7   -0.40   14.00
   6  -6  -7   -0.40   10.50
  -6  -6   6  323.77   36.90
   6  -6  -6  308.97   35.90
  -6  -6   5  346.17   36.20
   6  -6  -5  477.45   39.30
   6  -6  -4   96.09   21.30
  -6  -6   4  170.68   23.90
   6  -6  -3  343.67   35.50
  -6  -6   3  309.57   31.40
  -6  -6   3  297.87   25.10
   6  -6  -2 1926.71   85.99
  -6  -6   2 1879.11   83.69
  -6  -6   1   45.20   13.20
   6  -6  -1   42.20   14.40
   6  -6   0 1111.89   56.79
  -6  -6   0 1074.79   58.39
   6  -6   1  938.31   51.69
  -6  -6  -1  932.31   55.29
   6  -6   2   10.40    8.60
  -6  -6  -2    3.90   12.40
  -6  -6  -3   61.79   20.80
   6  -6   3   86.39   18.10
   6  -7  -6   76.59   25.60
  -6  -7   6   66.39   21.40
   6  -7  -5   12.00   18.50
  -6  -7   5   13.20   16.30
   6  -7  -4  564.24   47.50
  -6  -7   4  661.43   45.10
   6  -7  -3  231.08   32.20
  -6  -7   3  229.58   28.50
  -6  -7   2   94.69   18.50
   6  -7  -2  118.39   24.10
  -6  -7   2  134.49   21.80
  -6  -7   1  283.17   30.30
  -6  -7   1  343.77   34.90
   6  -7  -1  318.87   34.70
  -6  -7   0  319.97   34.30
  -6  -7   0  243.88   29.30
   6  -7   0  306.47   33.10
   6  -7   1   33.30   12.80
  -6  -7  -1    9.00   10.90
  -6  -7  -1   20.60   14.60
   6  -7   2  766.92   48.90
  -6  -7  -2  777.42   50.89
   6  -7   3  224.68   31.20
  -6  -7  -3  235.88   31.10
   6  -8  -4  712.63   55.59
  -6  -8   4  700.63   51.69
   6  -8  -3  358.96   42.30
  -6  -8   3  348.87   37.00
   6  -8  -2  394.76   44.70
  -6  -8   2  416.66   41.60
  -6  -8   2  342.47   35.20
  -6  -8   1  995.60   74.49
   6  -8  -1 1056.69   62.49
  -6  -8   1  935.71   56.59
  -6  -8   0   26.60   13.00
   6  -8   0   39.80   15.00
  -6  -8  -1  255.57   33.30
   6  -8   1  420.56   35.50
   7   0 -10   -3.50   20.80
   7   0  -9  -13.00   14.50
   7   0  -8  368.66   42.00
  -7   0   7    9.30   10.50
   7   0  -7   -7.50    9.70
   7   0  -6    2.10    7.00
  -7   0   6    1.00    7.00
   7   0  -5   -3.40    6.90
   7   0  -5    4.40    6.20
  -7   0   5    8.70    5.50
   7   0  -4    6.30    7.10
  -7   0   4    0.70    4.70
   7   0  -4    3.50    5.50
   7   0  -3   -7.20    6.10
  -7   0   3   -1.80    4.70
   7   0  -3    5.50    5.90
   7   0  -2  134.09   18.00
   7   0  -2  133.79   16.80
  -7   0   2  115.19   17.70
   7   0  -1   -2.20    4.80
  -7   0   1   -0.10    5.80
   7   0   0  238.48   25.40
  -7   0   0  204.48   23.90
  -7   0  -1    4.10    7.70
   7   0   1   -2.40    6.20
   7   0   2  762.82   44.80
   7   0   2  745.63   48.80
   7   0   3    3.00    9.90
   7   0   3   -0.30    7.80
   7   0   4  493.85   43.00
   7   0   5    6.00   13.70
   7   0   6  161.48   31.50
   7   1 -10  172.08   37.00
   7  -1 -10  131.29   31.70
   7   1  -9  989.60   68.59
  -7  -1   9  940.31   54.39
   7  -1  -9  906.11   63.19
   7   1  -8 2447.35  116.39
  -7  -1   8 2516.15  102.99
   7  -1  -8 2572.84  113.29
   7   1  -7 1434.56   75.49
   7  -1  -7 1371.16   70.29
  -7  -1   7 1379.46   64.99
   7   1  -6 2237.68  101.39
  -7  -1   6 2353.96   92.59
   7  -1  -6 2370.56   97.79
  -7   1   5  102.09   13.10
   7   1  -5  101.59   19.90
   7  -1  -5  127.09   18.60
   7  -1  -5   72.59   12.40
  -7  -1   5   95.59   14.70
  -7   1   4  111.49   13.60
   7   1  -4  116.29   15.90
   7   1  -4  134.49   20.70
  -7  -1   4  112.19   15.50
   7  -1  -4  108.29   15.50
   7  -1  -4  109.09   15.80
   7   1  -3  941.41   49.40
   7   1  -3  864.61   44.40
  -7   1   3  949.21   43.10
   7  -1  -3  853.51   44.10
  -7  -1   3  950.30   46.80
  -7   1   2 1410.66   68.69
   7   1  -2 1720.83   71.89
  -7  -1   2 1824.62   74.79
   7  -1  -2 1768.72   65.99
   7  -1  -2 1713.43   72.09
  -7   1   1  471.25   30.90
   7   1  -1  484.25   31.00
  -7  -1   1  364.56   30.80
   7  -1  -1  447.76   30.60
   7   1   0   73.59   14.40
  -7   1   0   93.49   16.60
  -7  -1   0   81.49   16.20
   7  -1   0   69.09   14.40
   7   1   1  294.17   25.40
  -7  -1  -1  301.97   31.00
   7  -1   1  309.87   26.50
   7  -1   1  274.27   30.70
   7  -1   2 2178.28   99.59
  -7  -1  -2 2283.37   98.99
   7  -1   2 2314.97   95.79
   7   1   3 1466.95   76.19
   7  -1   3 1455.75   69.29
  -7  -1  -3 1278.97   70.99
   7  -1   3 1438.26   73.99
   7   1   4 1629.14   85.39
   7  -1   4 1532.55   74.29
   7  -1   4 1526.05   81.09
   7   1   5  135.59   27.00
   7  -1   5  103.89   19.90
   7  -1   5   78.39   20.20
   7   1   6   19.20   18.20
   7  -1   6   20.40   17.30
   7   2 -10   43.80   27.40
  -7  -2  10   77.49   21.00
   7  -2 -10   59.49   24.00
   7   2  -9   20.90   22.10
   7  -2  -9    8.70   13.40
  -7  -2   9    4.90   11.40
   7   2  -8  198.58   35.70
   7  -2  -8  217.68   30.30
  -7  -2   8  203.78   27.00
   7   2  -7  339.47   42.30
  -7  -2   7  358.66   31.70
   7  -2  -7  358.76   31.80
   7   2  -6    1.50   12.10
   7  -2  -6   -4.80    6.50
  -7  -2   6   -6.10    6.40
   7   2  -5  146.59   26.20
   7  -2  -5  131.49   19.50
  -7  -2   5  147.39   19.20
   7  -2  -5  136.39   16.20
   7   2  -4   53.89   16.80
   7  -2  -4   29.10    8.20
  -7  -2   4   30.30    9.30
   7  -2  -4   44.60   10.50
  -7   2   3   73.19   10.80
   7  -2  -3   92.69   14.10
  -7  -2   3   71.89   14.60
  -7   2   2    6.00    7.40
   7  -2  -2   24.10    7.00
  -7  -2   2   19.20    9.20
   7  -2  -2   38.80    9.80
  -7   2   1   -1.80    5.20
   7  -2  -1    2.60    5.20
  -7  -2   1   -2.20    6.60
   7  -2   0  598.04   37.70
   7  -2   0  593.34   37.20
  -7  -2   0  565.54   39.40
   7  -2   1  263.67   28.70
  -7  -2  -1  301.47   30.90
   7  -2   1  295.07   31.00
   7  -2   2  276.87   30.40
  -7  -2  -2  213.58   28.60
   7  -2   2  178.68   25.30
  -7  -2  -3  471.45   38.60
   7  -2   3  488.45   37.00
   7  -2   3  509.05   39.10
   7  -2   4   -2.00    9.80
   7  -2   4   -3.90    8.70
  -7  -2  -4   -6.60   11.00
  -7  -2  -5  285.37   36.10
   7  -2   5  254.17   35.00
   7   2   6   22.40   18.70
   7  -2   6   24.40   17.00
  -7  -2  -6   41.40   19.90
   7   3  -9 1404.06   91.69
   7  -3  -9 1260.37   76.49
  -7  -3   9 1356.46   72.19
   7   3  -8  308.57   45.30
  -7  -3   8  412.16   39.10
   7  -3  -8  285.97   35.80
   7   3  -7 2818.12  135.29
  -7  -3   7 2944.71  119.69
   7  -3  -7 3000.00  122.29
   7   3  -6   31.50   17.50
  -7  -3   6   20.70   10.80
   7  -3  -6   26.20    9.20
   7  -3  -6   23.70   10.00
   7   3  -5  514.75   45.80
   7  -3  -5  568.24   33.20
   7  -3  -5  552.24   35.20
  -7  -3   5  564.84   36.50
  -7  -3   4  270.57   23.80
   7  -3  -4  248.98   21.30
   7  -3  -4  264.07   21.60
   7  -3  -3  581.94   34.00
  -7  -3   3  598.44   37.90
  -7  -3   2  338.47   33.50
   7  -3  -2  271.17   22.50
   7  -3  -2  282.17   21.30
  -7   3   1  380.36   26.70
   7  -3  -1  338.97   26.10
  -7  -3   1  322.87   28.80
  -7  -3   0   -1.10    7.60
   7  -3   0    7.70    6.70
   7  -3   0    7.60    7.60
   7  -3   1  883.01   49.80
   7  -3   1  931.61   50.59
  -7  -3  -1  971.60   55.99
   7  -3   2  408.26   33.40
  -7  -3  -2  390.16   39.10
   7  -3   2  403.96   32.70
  -7  -3  -3 3886.31  151.08
   7  -3   3 3573.84  146.09
   7  -3   3 3741.43  146.69
  -7  -3  -4   33.50   16.40
   7  -3   4   56.79   17.30
   7  -3   4   50.69   15.90
  -7  -3  -5  391.26   42.40
   7  -3   5  291.67   36.10
   7  -3   6   14.30   14.70
  -7  -3  -6    7.40   16.90
   7   4  -9  423.06   60.39
   7  -4  -9  400.66   45.50
  -7  -4   9  328.67   38.90
  -7  -4   8   62.89   19.50
   7  -4  -8   89.39   20.90
   7  -4  -7   20.80   13.00
  -7  -4   7   24.60   16.50
   7  -4  -6  405.16   34.40
   7  -4  -6  503.85   33.60
  -7  -4   6  472.35   36.60
  -7  -4   5  158.58   22.70
   7  -4  -5  156.68   21.80
   7  -4  -5  150.68   20.50
   7  -4  -4  285.97   24.70
  -7  -4   4  303.97   30.80
   7  -4  -4  332.27   26.50
  -7  -4   3   50.99   13.20
   7  -4  -3   87.69   15.30
  -7  -4   2    9.10    8.00
   7  -4  -2    6.30    6.90
   7  -4  -1  183.58   21.80
  -7  -4   1  275.97   30.40
  -7  -4   0   93.99   20.20
   7  -4   0  128.09   19.50
   7  -4   1 1404.16   65.69
  -7  -4  -1 1351.46   72.09
   7  -4   1 1401.36   66.89
   7  -4   2   58.09   14.80
  -7  -4  -2   62.69   17.80
   7  -4   2   41.50   13.70
  -7  -4  -3  129.49   23.80
   7  -4   3  149.09   23.70
   7  -4   3   91.39   19.20
   7  -4   4  282.67   33.00
  -7  -4  -4  296.37   35.40
   7  -4   4  198.98   29.00
  -7  -4  -5   19.70   16.60
   7  -4   5   31.70   14.70
   7  -5  -8 1633.74   87.19
  -7  -5   8 1724.93   86.19
   7  -5  -7   97.29   22.00
  -7  -5   7   77.99   23.50
   7  -5  -6 1723.83   80.69
  -7  -5   6 1574.64   79.99
   7  -5  -6 1655.83   77.09
  -7  -5   5  357.26   35.70
   7  -5  -5  468.75   34.30
   7  -5  -5  443.06   34.80
  -7  -5   4   11.90    9.80
   7  -5  -4   26.20   11.20
   7  -5  -4   26.90   12.10
  -7  -5   3   98.79   18.30
   7  -5  -3   90.49   17.40
  -7  -5   2  793.72   47.90
   7  -5  -2  759.52   44.40
  -7  -5   1    5.20    8.70
   7  -5  -1   11.00    7.10
  -7  -5   0  135.19   22.80
   7  -5   0  100.19   18.10
   7  -5   1   51.79   13.70
  -7  -5  -1   53.39   16.60
   7  -5   2 1688.83   79.99
   7  -5   3    9.60   11.30
  -7  -5  -3   19.80   15.70
   7  -5   3    2.80   10.60
  -7  -5  -4  959.20   64.09
   7  -5   4  892.51   57.29
   7  -6  -7  205.08   30.90
  -7  -6   7  299.17   38.80
  -7  -6   6   25.90   16.50
   7  -6  -6   31.30   14.80
   7  -6  -6   35.30   17.70
   7  -6  -5  839.12   52.99
  -7  -6   5  846.22   53.09
  -7  -6   4  389.16   38.20
   7  -6  -4  388.36   37.70
   7  -6  -3   53.99   15.10
  -7  -6   3   67.59   17.00
   7  -6  -2   25.70   11.70
  -7  -6   2   30.60   12.80
  -7  -6   1  310.67   33.40
   7  -6  -1  293.57   30.80
  -7  -6   0  715.73   49.40
   7  -6   0  759.72   45.90
   7  -6   1  575.24   40.60
  -7  -6  -1  601.74   46.30
   7  -6   2  675.63   45.30
  -7  -6  -2  615.34   49.00
   7  -6   3   46.30   16.10
  -7  -6  -3   23.40   19.30
   7  -7  -6  671.73   50.39
   7  -7  -6  637.44   52.09
  -7  -7   6  693.53   55.29
   7  -7  -5    0.90   14.40
  -7  -7   5  -11.40   13.00
   7  -7  -4  236.08   31.90
  -7  -7   4  231.48   30.80
  -7  -7   3   94.79   20.90
   7  -7  -3  102.29   21.90
  -7  -7   2   -2.50    9.10
  -7  -7   2    5.10   10.10
   7  -7  -2    5.60   10.10
   7  -7  -1  153.58   23.90
  -7  -7   1  129.79   23.60
  -7  -7   1  101.99   19.80
   7  -7   0   12.50    8.80
  -7  -7   0   14.20   13.40
   7  -7   1  198.88   28.10
  -7  -7  -1  227.08   33.10
   7  -7   2   43.10   15.90
   7  -8  -3   39.80   16.70
  -7  -8   3   17.20   16.10
  -7  -8   2  108.09   20.90
   7  -8  -2  115.29   23.60
  -7  -8   2  105.19   23.10
   7  -8  -1   69.69   19.10
  -7  -8   1   69.09   19.30
  -7  -8   1   89.49   22.10
   8   0 -10    6.90   18.80
   8   0  -9   -5.50   15.40
   8   0  -8   29.80   17.80
  -8   0   7    0.00   17.50
   8   0  -7    3.40   11.80
   8   0  -6   95.99   20.70
  -8   0   6  104.89   16.00
   8   0  -5   -0.10    7.40
  -8   0   5   -0.50    5.70
   8   0  -5  -13.30    7.10
  -8   0   4  634.34   36.70
   8   0  -4  694.83   40.10
   8   0  -4  624.74   37.50
   8   0  -3    0.70    5.10
  -8   0   3    4.90    6.90
   8   0  -3   -0.70    6.00
   8   0  -2   36.30   11.80
   8   0  -2   40.50   12.00
  -8   0   2   32.80   11.00
  -8   0   1    4.90    7.70
   8   0  -1   -2.10    6.10
   8   0   0  187.48   24.40
  -8   0   0  182.08   24.30
   8   0   1   -6.40    5.80
  -8   0  -1    5.70    9.10
   8   0   2  510.15   36.80
  -8   0  -2  441.96   37.20
   8   0   3   -2.00   10.60
   8   0   3   -1.50    8.80
   8   0   4    2.60   12.30
   8   0   5   -7.50   13.10
   8   0   6   73.09   25.50
   8   1 -10  567.34   61.09
   8  -1 -10  494.25   54.69
   8   1  -9  185.88   35.10
   8  -1  -9  222.28   34.00
   8   1  -8  260.97   38.60
   8  -1  -8  290.57   36.70
  -8  -1   8  299.67   32.00
   8   1  -7   -0.60   12.80
  -8  -1   7    1.30   11.00
   8  -1  -7  -10.90    9.70
   8   1  -6 1182.58   67.79
   8  -1  -6 1234.48   64.19
  -8  -1   6 1393.36   61.79
   8   1  -5 1468.55   74.49
   8  -1  -5 1583.74   70.39
  -8  -1   5 1553.24   67.69
   8  -1  -5 1486.45   66.69
   8   1  -4 4181.18  151.98
  -8   1   4 4345.97  149.49
   8   1  -4 4091.79  158.78
  -8  -1   4 4466.45  155.58
   8  -1  -4 4063.29  153.08
   8  -1  -4 4229.68  152.18
   8   1  -3 2887.61  110.19
   8   1  -3 2804.42  112.89
  -8  -1   3 3022.70  113.89
   8  -1  -3 2720.73  105.09
   8  -1  -3 2754.42  110.49
  -8   1   2  544.25   37.80
   8   1  -2  738.63   40.80
   8  -1  -2  722.93   41.40
  -8  -1   2  636.74   41.10
   8   1  -1   17.20    9.90
  -8   1   1   11.50    9.20
  -8  -1   1   11.00    9.20
   8  -1  -1   18.90   10.00
   8   1   0   98.59   17.90
  -8   1   0  112.39   18.10
  -8  -1   0  114.39   19.00
   8  -1   0  133.19   21.50
  -8   1  -1  468.55   35.70
   8   1   1  453.05   33.80
  -8  -1  -1  511.25   37.80
   8  -1   1  439.86   34.30
   8  -1   2  623.14   41.40
   8  -1   2  581.84   44.50
  -8  -1  -2  610.64   43.30
   8  -1   3   42.30   15.10
   8  -1   3   12.00   12.70
  -8  -1  -3   32.00   14.60
   8  -1   4  366.56   44.50
  -8  -1  -4  364.86   41.50
   8  -1   4  379.36   38.90
   8   1   5  186.48   33.10
   8  -1   5  191.08   35.60
   8   2 -10   42.40   26.60
   8  -2 -10   96.89   28.80
  -8  -2  10  108.99   24.50
   8   2  -9   18.70   21.20
   8  -2  -9  -11.70   12.30
  -8  -2   9    6.30   12.80
   8   2  -8   20.30   19.10
  -8  -2   8   30.50   16.70
   8  -2  -8   36.20   15.00
   8   2  -7   34.50   18.70
   8  -2  -7   55.59   15.80
  -8  -2   7   53.89   16.20
   8   2  -6  -14.50   11.60
  -8  -2   6   41.30   12.60
   8  -2  -6   32.10   11.70
   8   2  -5  333.07   38.60
   8  -2  -5  297.27   24.00
   8  -2  -5  297.57   25.30
  -8  -2   5  305.37   26.40
   8   2  -4   59.09   18.00
  -8  -2   4   67.49   14.40
   8  -2  -4   64.59   13.20
   8  -2  -4   45.00   11.10
  -8  -2   3  129.39   20.80
   8  -2  -3   87.79   13.60
   8  -2  -3   73.99   13.80
  -8   2   2  140.99   19.00
  -8  -2   2  105.79   19.30
   8  -2  -2  155.68   21.60
  -8   2   1   22.60   10.20
   8  -2  -1   21.70   10.10
  -8  -2   1   29.60   12.30
  -8   2   0    7.00    9.10
  -8  -2   0   -3.50    7.40
   8  -2   0   12.90    8.80
   8  -2   1  640.94   43.60
   8  -2   1  577.44   41.20
  -8  -2  -1  639.84   44.00
  -8  -2  -2  493.65   38.80
   8  -2   2  441.56   35.90
   8  -2   2  376.96   41.10
  -8  -2  -3  108.79   22.40
   8  -2   3   99.49   19.40
   8  -2   3  143.99   25.20
  -8  -2  -4  221.28   32.20
   8  -2   4  227.08   30.20
   8  -2   4  193.98   31.00
   8  -2   5   27.30   17.50
  -8  -2  -5   61.49   22.90
   8   3  -9  489.15   61.39
  -8  -3   9  480.15   42.20
   8  -3  -9  479.55   49.40
   8   3  -8  287.77   45.90
   8  -3  -8  194.88   29.50
  -8  -3   8  264.37   33.80
   8   3  -7   20.90   21.00
   8  -3  -7   13.30   10.90
  -8  -3   7    9.10   13.60
   8   3  -6   35.70   20.00
   8  -3  -6   44.90   11.90
  -8  -3   6   63.79   15.80
   8  -3  -6   38.60   13.90
   8  -3  -5 2803.72  107.39
  -8  -3   5 2652.83  110.59
   8  -3  -5 2775.82  109.59
  -8  -3   4  257.07   28.70
   8  -3  -4  251.97   25.90
   8  -3  -4  227.68   24.30
   8  -3  -3 3310.07  130.49
  -8  -3   3 3688.23  138.29
  -8  -3   2  372.36   32.70
   8  -3  -2  345.57   28.00
  -8  -3   1   15.90   10.80
   8  -3  -1   14.40    8.10
  -8  -3   0    5.50    9.90
   8  -3   0   -4.50    6.40
   8  -3   0   -3.00    7.40
   8  -3   1  829.82   50.39
  -8  -3  -1  842.52   53.49
   8  -3   1  756.82   50.19
   8  -3   2  273.87   32.50
  -8  -3  -2  223.58   30.90
   8  -3   2  294.67   34.10
   8  -3   3    8.10   12.00
  -8  -3  -3   22.60   15.00
   8  -3   3   17.30   12.80
  -8  -3  -4   77.69   21.50
   8  -3   4   31.30   14.80
   8  -3   4   38.70   17.10
  -8  -3  -5 1468.25   85.19
   8  -3   5 1486.05   85.19
   8  -4  -9   -0.20   16.80
  -8  -4   9   -3.20   14.50
  -8  -4   8   96.59   24.50
   8  -4  -8   70.69   20.90
   8  -4  -7  183.68   27.00
  -8  -4   7  215.18   30.80
   8  -4  -6  414.76   30.80
  -8  -4   6  279.97   33.00
   8  -4  -6  440.46   34.20
  -8  -4   5    4.70   10.10
   8  -4  -5    5.70    8.70
   8  -4  -5    9.80    8.50
  -8  -4   4  144.39   22.70
   8  -4  -4  186.58   23.60
   8  -4  -4  145.19   20.10
   8  -4  -3  382.06   29.80
  -8  -4   3  373.06   32.70
   8  -4  -2  203.28   25.00
  -8  -4   2  238.28   30.40
   8  -4  -1  325.67   27.90
  -8  -4   1  275.47   32.50
   8  -4   0  581.64   39.80
  -8  -4   0  615.44   45.20
  -8  -4  -1  228.08   31.40
   8  -4   1  221.48   27.50
  -8  -4  -2   59.59   19.50
   8  -4   2   76.19   19.20
   8  -4   2   90.89   21.90
   8  -4   3  790.72   54.59
  -8  -4  -3  962.80   59.09
   8  -4   3  756.52   53.69
  -8  -4  -4   34.70   17.00
   8  -4   4    5.10   14.00
   8  -4   4   29.10   15.20
  -8  -5   8  236.18   35.30
   8  -5  -8  233.48   34.70
  -8  -5   7  290.87   38.10
   8  -5  -7  306.47   37.50
  -8  -5   6  934.01   57.59
   8  -5  -6  906.91   55.59
   8  -5  -6  975.40   53.49
  -8  -5   5  240.98   31.70
   8  -5  -5  255.07   29.10
   8  -5  -5  294.67   32.10
  -8  -5   4 2375.46  103.39
   8  -5  -4 2316.97   98.89
  -8  -5   3   -0.20    8.90
   8  -5  -3   18.90    9.70
  -8  -5   2  584.74   44.30
   8  -5  -2  650.73   41.00
   8  -5  -1   16.70    9.50
  -8  -5   1   21.50   13.10
  -8  -5   0  106.39   22.50
   8  -5   0  104.89   18.90
  -8  -5  -1    4.30   13.40
   8  -5   1   17.90   10.90
  -8  -5  -2  162.68   29.70
   8  -5   2  243.18   31.10
  -8  -5  -3  166.78   30.90
   8  -5   3  159.28   28.40
   8  -5   4  195.18   31.40
  -8  -5  -4  252.27   37.80
   8  -6  -7  591.74   47.80
  -8  -6   7  592.34   54.89
   8  -6  -6   80.79   19.30
   8  -6  -6   66.09   20.00
  -8  -6   6   44.80   18.40
  -8  -6   5  246.68   33.40
   8  -6  -5  298.07   33.00
   8  -6  -5  296.27   33.40
  -8  -6   4  129.39   23.50
   8  -6  -4  245.28   30.00
  -8  -6   3  100.19   21.20
   8  -6  -3  129.79   22.50
   8  -6  -2  525.85   38.70
  -8  -6   2  583.74   43.90
   8  -6  -1  755.22   48.20
  -8  -6   1  852.21   55.39
  -8  -6   0   -3.00   12.70
   8  -6   0    9.10    8.30
   8  -6   1   66.99   16.90
  -8  -6  -1   43.40   18.60
  -8  -6  -2  282.87   37.90
   8  -6   2  368.46   40.20
   8  -7  -5  794.42   52.69
  -8  -7   5  678.93   52.99
   8  -7  -4  430.96   42.50
  -8  -7   4  380.36   41.80
   8  -7  -3 1218.88   65.59
  -8  -7   3 1112.69   66.59
   8  -7  -2    9.90    9.80
  -8  -7   2   -3.80   12.30
   8  -7  -1   76.79   16.80
  -8  -7   1   45.70   18.70
  -8  -7   0   15.80   15.10
   8  -7   0   34.00   13.20
  -8  -7  -1  255.77   37.30
   8  -7   1  224.08   30.60
   9   0 -10 1215.68   81.09
   9   0  -9   12.50   19.10
   9   0  -8   23.60   18.30
   9   0  -7   -9.10   11.60
   9   0  -6 1264.17   66.49
  -9   0   6 1203.08   58.29
   9   0  -5    0.30    9.80
   9   0  -5    3.50    8.40
  -9   0   5    2.90    7.00
  -9   0   4   -5.50    7.90
   9   0  -4    8.50    8.20
   9   0  -4   -0.70    8.50
   9   0  -3    2.90    7.10
  -9   0   3    2.20    7.90
   9   0  -3   -2.90    9.00
  -9   0   2 1660.73   81.79
   9   0  -2 1943.81   81.39
  -9   0   1   -3.90    7.90
   9   0  -1   -1.60    7.10
   9   0   0 2244.18   96.89
  -9   0   0 2233.58   97.99
  -9   0  -1    0.60    9.60
   9   0   1    5.30    8.30
   9   0   2   10.10    9.80
  -9   0  -2   20.60   13.80
   9   0   3    0.10   10.20
  -9   0  -3    8.20   13.00
   9   0   4 1280.17   79.49
   9   0   5    2.10   16.90
   9   1  -9  108.29   29.40
   9  -1  -9  103.39   26.20
   9   1  -8   -0.60   16.30
  -9  -1   8    2.10   15.10
   9  -1  -8    6.00   13.30
   9   1  -7   10.40   14.80
   9  -1  -7   37.90   15.70
  -9  -1   7   46.00   15.20
   9   1  -6  300.47   36.40
   9  -1  -6  226.78   29.00
  -9  -1   6  247.48   27.60
   9   1  -5  187.18   27.40
   9  -1  -5  122.29   19.20
   9  -1  -5  173.38   24.20
  -9  -1   5  171.98   22.70
   9   1  -4    9.20   11.60
  -9   1   4   27.50   10.90
   9   1  -4    6.90    9.20
  -9  -1   4    6.30    8.40
   9  -1  -4   25.10   11.10
   9  -1  -4    7.70    9.10
   9   1  -3   69.59   14.90
  -9   1   3   36.00   12.00
   9  -1  -3   66.99   15.10
  -9  -1   3   49.10   14.10
   9   1  -2 1029.40   52.79
  -9   1   2  924.81   52.39
  -9  -1   2  759.12   51.39
   9  -1  -2 1080.69   54.79
  -9   1   1  667.23   41.50
   9   1  -1  572.44   39.40
   9  -1  -1  584.14   40.40
  -9  -1   1  608.24   44.10
   9   1   0 1120.59   60.49
  -9   1   0 1177.98   61.69
   9  -1   0 1246.08   63.59
  -9  -1   0 1135.19   62.69
  -9   1  -1  468.35   38.20
  -9  -1  -1  523.95   39.80
   9  -1   1  446.86   35.80
  -9   1  -2   78.99   18.80
   9  -1   2   90.29   19.70
  -9  -1  -2  109.59   22.60
   9  -1   3   45.30   18.70
   9  -1   3   40.10   14.30
  -9  -1  -3   51.79   19.40
   9  -1   4   33.80   14.30
   9  -1   4   24.40   17.70
  -9  -1  -4   34.70   17.90
   9  -1   5    2.70   17.40
  -9  -1  -5   -4.60   17.80
   9   2  -9  342.27   47.60
  -9  -2   9  302.37   36.40
   9  -2  -9  296.17   39.30
   9   2  -8  106.09   29.80
  -9  -2   8  154.18   28.00
   9  -2  -8  131.29   25.70
   9   2  -7  298.77   40.30
  -9  -2   7  323.97   34.00
   9  -2  -7  297.37   35.00
   9   2  -6   52.69   21.80
   9  -2  -6   62.59   17.00
  -9  -2   6   72.69   17.70
   9   2  -5  367.36   42.00
   9  -2  -5  256.87   28.20
   9  -2  -5  302.07   30.00
  -9  -2   5  311.57   32.50
   9  -2  -4    4.60    7.80
   9  -2  -4   -5.20    6.30
  -9  -2   4    7.30    9.30
  -9  -2   3  357.26   36.50
   9  -2  -3  270.27   29.20
  -9   2   2   42.60   13.50
  -9  -2   2   34.50   14.70
   9  -2  -2   40.20   13.10
  -9   2   1 3056.49  115.19
   9  -2  -1 2738.23  117.29
  -9  -2   1 2712.03  121.09
  -9   2   0  493.75   36.50
  -9  -2   0  488.75   39.90
   9  -2   0  444.46   36.40
  -9   2  -1  533.15   41.50
   9  -2   1  625.24   43.80
  -9  -2  -1  679.63   46.30
  -9  -2  -2   32.10   15.30
   9  -2   2   26.60   14.20
   9  -2   2   22.90   14.30
   9  -2   3  816.72   61.89
  -9  -2  -3  987.90   61.79
   9  -2   3  877.91   55.39
  -9  -2  -4  112.79   27.20
   9  -2   4   94.39   27.00
   9  -2   4   84.79   22.00
   9   3  -9  105.29   36.70
   9  -3  -9   89.99   24.50
  -9  -3   9   81.99   23.20
   9   3  -8  126.49   34.20
   9  -3  -8  128.39   25.40
  -9  -3   8  168.98   29.80
   9   3  -7  222.98   39.50
   9  -3  -7  241.08   31.20
  -9  -3   7  248.38   33.20
   9  -3  -6   23.40   12.00
   9  -3  -6   23.90   11.00
  -9  -3   6   28.00   13.60
  -9  -3   5  140.69   22.70
   9  -3  -5  101.69   17.70
   9  -3  -5  110.49   18.60
  -9  -3   4  385.86   33.90
   9  -3  -4  358.36   29.90
   9  -3  -3  728.73   45.00
  -9  -3   3  855.51   52.79
   9  -3  -2   62.09   14.80
  -9  -3   2   63.39   17.60
   9  -3  -1 1338.37   66.79
  -9  -3   1 1189.58   68.49
  -9   3   0  219.08   27.00
   9  -3   0  176.08   25.40
  -9  -3   0  179.18   28.10
   9  -3   1  352.56   37.10
  -9  -3  -1  456.35   44.10
   9  -3   1  406.66   41.00
   9  -3   2  168.38   28.50
  -9  -3  -2  215.88   29.80
   9  -3   2  226.28   33.80
   9  -3   3   10.30   14.10
   9  -3   3   -6.90   11.10
  -9  -3  -3    8.70   14.20
   9  -3   4    3.90   13.40
  -9  -3  -4   -1.50   14.40
   9  -3   4   13.60   16.00
   9  -4  -8   46.10   18.40
  -9  -4   8   31.10   22.50
  -9  -4   7    1.40   14.40
   9  -4  -7   10.40   13.60
   9  -4  -6  457.75   34.30
  -9  -4   6  404.86   40.60
   9  -4  -6  432.66   37.00
   9  -4  -5  269.57   29.20
   9  -4  -5  255.47   28.80
  -9  -4   5  181.08   27.00
  -9  -4   4   23.90   13.20
   9  -4  -4   47.10   13.20
  -9  -4   3    3.60   10.50
   9  -4  -3    6.50    8.10
  -9  -4   2 1342.97   73.59
   9  -4  -2 1268.17   65.89
  -9  -4   1  719.33   51.69
   9  -4  -1  747.23   47.00
  -9  -4   0  395.76   43.20
   9  -4   0  489.25   38.60
  -9  -4  -1  612.94   49.70
   9  -4   1  600.84   45.70
  -9  -4  -2    3.50   15.30
   9  -4   2   46.30   26.70
   9  -4   2   22.00   14.10
   9  -4   3   26.20   15.50
   9  -4   3   18.70   16.00
  -9  -4  -3   29.50   17.70
  -9  -5   7  121.39   27.90
   9  -5  -7   81.59   20.20
  -9  -5   6   96.99   22.30
   9  -5  -6  100.39   20.90
   9  -5  -6  109.19   19.40
   9  -5  -5  211.98   27.30
  -9  -5   5  228.28   31.90
   9  -5  -4   14.90    9.30
  -9  -5   4    0.40   10.50
  -9  -5   3 1301.87   71.89
   9  -5  -3 1207.48   64.49
   9  -5  -2  750.32   47.80
  -9  -5   2  784.12   55.09
   9  -5  -1  125.69   21.40
  -9  -5   1   97.39   23.00
   9  -5   0 1032.50   59.39
  -9  -5   0  893.71   61.69
  -9  -5  -1  111.69   25.90
   9  -5   1  119.59   24.10
   9  -5   2   63.29   20.20
  -9  -5  -2   92.39   24.80
  -9  -6   6   79.29   22.80
   9  -6  -6  104.19   21.70
  -9  -6   5   -8.80   13.00
   9  -6  -5   25.00   10.90
  -9  -6   4   83.49   21.30
   9  -6  -4   66.89   16.40
   9  -6  -3  279.17   31.30
  -9  -6   3  345.07   39.90
   9  -6  -2  103.79   19.60
  -9  -6   2  117.79   25.80
  -9  -6   1  466.05   47.70
   9  -6  -1  455.25   38.70
  -9  -6   0  861.11   61.29
   9  -6   0  792.22   53.69
   9  -6   1   12.00   13.00
  -9  -6  -1   16.00   17.90
   9  -7  -3   27.10   11.60
  -9  -7   3   -4.00   14.90
  -9  -7   2  921.41   62.89
   9  -7  -2  865.41   56.09
  10   0  -9    8.10   18.90
  10   0  -8 3403.26  147.19
  10   0  -7    8.00   14.00
  10   0  -6 1675.93   83.69
 -10   0   5   -9.80    8.80
  10   0  -5    1.10    8.30
  10   0  -5   -2.40   10.70
 -10   0   4  147.29   22.90
  10   0  -4  102.09   18.30
 -10   0   3   -4.90    9.60
  10   0  -3    5.90    9.30
 -10   0   2 1533.15   77.59
  10   0  -2 1548.65   73.69
 -10   0   1    7.50   10.70
  10   0  -1    7.90    9.50
  10   0   0   70.89   16.80
 -10   0   0   88.09   19.00
 -10   0  -1    8.50   12.50
  10   0   1   -1.40    8.80
 -10   0  -2 3376.96  143.79
  10   0   2 3526.05  141.89
 -10   0  -3   -8.10   14.30
 -10   0  -4 1274.77   81.39
  10   1  -9   13.60   18.60
  10  -1  -9    0.40   18.70
  10   1  -8   -0.70   16.80
  10  -1  -8  -17.30   13.40
  10   1  -7    6.50   14.50
  10  -1  -7    6.80   15.50
 -10  -1   7   -0.20   11.40
  10   1  -6    1.50   12.90
 -10  -1   6   -2.30    9.60
  10  -1  -6   12.60   12.80
  10   1  -5   59.29   19.30
 -10  -1   5   92.19   19.00
  10  -1  -5   84.29   18.90
  10  -1  -5   80.29   17.20
  10   1  -4   17.10   13.10
  10   1  -4    0.40    9.00
  10  -1  -4   13.00    9.50
 -10  -1   4   11.80   12.10
 -10   1   3   31.50   13.70
  10   1  -3   51.59   14.90
 -10  -1   3   32.40   13.90
  10  -1  -3   32.20   13.00
  10   1  -2  155.88   22.80
 -10   1   2  208.28   27.60
  10  -1  -2  171.68   25.70
 -10  -1   2  122.49   23.20
 -10   1   1   18.20   11.80
  10   1  -1   -4.40    7.40
 -10  -1   1   -1.00   10.10
  10  -1  -1   16.50   11.20
  10   1   0  157.08   24.50
 -10   1   0  130.29   22.60
  10  -1   0  114.99   20.80
 -10  -1   0   88.29   19.90
 -10   1  -1    6.00   11.60
  10  -1   1    6.10    9.80
 -10  -1  -1   -6.90   10.10
 -10   1  -2   44.50   17.60
 -10  -1  -2   73.99   19.70
  10  -1   2   76.69   20.30
 -10   1  -3    9.60   16.60
 -10  -1  -3    9.70   16.60
  10  -1   3  -15.10   11.10
 -10   1  -4   10.70   18.90
 -10  -1  -4   19.20   19.20
  10  -1   4    2.70   17.40
  10  -1   4   -9.60   11.30
  10   2  -9 1507.75   94.59
 -10  -2   9 1452.05   79.69
  10  -2  -9 1370.16   82.59
  10   2  -8  486.95   56.79
 -10  -2   8  534.25   46.40
  10  -2  -8  533.25   46.50
  10   2  -7 3597.14  155.68
 -10  -2   7 3483.15  141.69
  10  -2  -7 3524.35  144.49
  10   2  -6  201.08   35.00
  10  -2  -6  192.58   27.60
 -10  -2   6  174.38   25.90
  10   2  -5   38.50   19.40
 -10  -2   5   56.19   17.00
  10  -2  -5   57.29   16.30
  10  -2  -4   13.80   10.20
 -10  -2   4    6.30   11.10
 -10  -2   3  928.91   59.99
  10  -2  -3 1064.39   59.19
 -10  -2   2   47.70   17.30
  10  -2  -2   72.79   17.60
 -10   2   1  265.47   30.10
  10  -2  -1  251.57   32.70
 -10  -2   1  189.38   28.80
 -10   2   0   15.50   13.30
  10  -2   0    6.90   11.60
 -10  -2   0   20.70   15.30
 -10   2  -1 1065.49   61.89
  10  -2   1  996.60   61.19
 -10  -2  -1 1047.10   62.89
 -10   2  -2  357.66   41.00
 -10  -2  -2  340.17   38.40
  10  -2   2  420.86   42.60
  10  -2   3 2139.89  108.29
 -10  -2  -3 2065.69  102.69
  10  -2   3 1986.00   97.39
  10   3  -8   -5.40   23.30
  10  -3  -8    6.20   14.50
 -10  -3   8  -26.70   16.40
  10  -3  -7    8.50   13.00
 -10  -3   7   -0.80   12.80
 -10  -3   6  205.48   30.00
  10  -3  -6  192.98   26.10
  10  -3  -6  178.68   26.10
 -10  -3   5   33.40   15.00
  10  -3  -5   34.10   12.40
 -10  -3   4  230.98   31.90
  10  -3  -4  190.98   26.40
 -10  -3   3   12.20   13.00
  10  -3  -3   46.40   14.70
  10  -3  -2    3.70   10.40
 -10  -3   2   21.90   15.00
  10  -3  -1  150.98   25.70
 -10  -3   1  197.78   30.30
  10  -3   0  267.97   34.40
 -10  -3   0  276.17   35.90
 -10   3  -1  156.58   26.90
  10  -3   1  167.68   28.70
 -10  -3  -1  173.58   29.10
  10  -3   2   54.69   18.00
  10  -3   2   42.10   18.60
 -10  -3  -2   27.10   17.30
  10  -3   3   28.00   19.00
 -10  -3  -3   35.40   19.40
  10  -3   3   31.50   16.10
  10  -4  -8 1400.86   77.99
 -10  -4   8 1274.37   78.89
  10  -4  -7 1277.37   70.79
 -10  -4   7 1246.28   73.39
  10  -4  -6  731.53   48.00
 -10  -4   6  765.62   54.89
 -10  -4   5   66.09   19.50
  10  -4  -5  103.99   19.80
  10  -4  -4  123.59   23.10
 -10  -4   4  135.39   26.70
 -10  -4   3  125.99   26.10
  10  -4  -3  155.88   25.10
 -10  -4   2  755.22   55.89
  10  -4  -2  809.92   51.09
 -10  -4   1    0.40   12.70
  10  -4  -1   11.00   10.30
  10  -4   0    8.50   12.30
 -10  -4   0    1.70   13.90
  10  -4   1  449.66   46.70
  10  -4   2  976.10   64.89
 -10  -4  -2  994.50   67.19
  10  -5  -6   12.50   10.30
 -10  -5   6  -10.40   14.70
  10  -5  -5  774.32   50.99
 -10  -5   5  798.72   56.59
  10  -5  -4   40.50   15.50
 -10  -5   4   15.70   15.00
 -10  -5   3    4.70   13.70
  10  -5  -3   14.10   11.30
 -10  -5   2   34.40   17.20
  10  -5  -2   21.10   13.80
 -10  -5   1  638.54   55.49
  10  -5  -1  759.92   50.99
 -10  -5   0   79.19   23.80
  10  -5   0   86.79   21.10
 -10  -5  -1  409.76   47.20
  10  -5   1  469.65   50.99
 -10  -6   4   -9.20   13.10
  10  -6  -4   18.70   12.80
  10  -6  -3  279.27   34.00
 -10  -6   3  416.96   45.70
 -10  -6   2  105.69   26.50
  10  -6  -2   59.89   17.50
 -10  -6   1   58.49   22.40
  10  -6  -1  114.39   24.90
  11   0  -8  288.27   41.30
  11   0  -7   -8.30   14.90
  11   0  -6  769.72   53.69
 -11   0   5    8.10   12.50
  11   0  -5    9.80   11.00
 -11   0   4 2197.48  107.19
  11   0  -4 2863.71  109.29
  11   0  -3    3.90   10.00
 -11   0   3   -3.20   11.30
  11   0  -2  476.45   37.90
 -11   0   2  471.25   41.60
 -11   0   1   -0.40   11.20
  11   0  -1   10.80   10.90
 -11   0   0  377.36   39.20
  11   0   0  375.86   39.50
 -11   0  -1  -11.30   11.70
  11   0   1    3.50   10.50
  11   0   2    8.50   13.60
 -11   0  -2   25.40   17.20
 -11   0  -3   -4.40   17.60
  11   1  -8   -4.10   18.50
  11  -1  -8   -5.50   16.20
  11   1  -7   38.00   21.90
  11  -1  -7   39.00   19.40
  11   1  -6  188.28   32.30
  11  -1  -6  165.58   26.70
 -11  -1   6  177.68   27.30
  11   1  -5  493.85   44.20
 -11  -1   5  467.85   39.60
  11   1  -4  703.23   45.70
  11  -1  -4  704.63   46.50
 -11  -1   4  650.03   48.30
 -11   1   3   55.39   20.80
  11   1  -3   89.99   19.30
 -11  -1   3   66.39   19.30
  11  -1  -3   68.59   16.90
 -11   1   2   77.99   19.60
  11   1  -2  119.09   22.40
 -11  -1   2  100.79   23.50
  11  -1  -2  106.99   21.00
  11   1  -1  222.28   28.70
 -11   1   1  237.68   30.40
 -11  -1   1  291.47   36.30
  11  -1  -1  287.57   33.70
 -11   1   0  515.25   42.40
  11  -1   0  537.05   41.80
 -11  -1   0  565.64   45.20
 -11   1  -1  366.36   39.70
 -11  -1  -1  330.27   37.90
  11  -1   1  316.97   37.30
 -11   1  -2  551.54   47.80
  11  -1   2  639.04   47.90
 -11  -1  -2  553.04   48.70
  11   2  -8   32.30   24.90
 -11  -2   8    1.60   18.10
  11  -2  -8   -5.00   16.90
  11   2  -7   70.29   26.80
  11  -2  -7   80.09   23.30
 -11  -2   7   77.09   22.30
  11   2  -6  516.95   54.69
 -11  -2   6  561.94   44.80
  11  -2  -5 1568.54   79.29
 -11  -2   5 1561.14   81.89
 -11  -2   4  323.07   39.00
  11  -2  -4  331.07   36.10
  11  -2  -3 1401.16   71.39
 -11  -2   3 1066.69   70.29
  11  -2  -2   17.30   12.70
 -11  -2   2   10.80   13.60
  11  -2  -1   60.39   17.90
 -11  -2   1   58.79   20.10
 -11   2   0   43.90   17.10
  11  -2   0   39.60   16.30
 -11  -2   0   59.89   20.80
 -11   2  -1  319.17   37.30
 -11  -2  -1  389.76   42.60
  11  -2   1  218.18   29.90
 -11   2  -2   29.40   19.50
  11  -2   2   17.30   14.40
 -11  -2  -2   -5.40   14.30
 -11  -3   7   -6.00   14.60
  11  -3  -7   -5.60   19.80
 -11  -3   6  311.57   38.20
 -11  -3   5  683.53   51.79
  11  -3  -5  670.23   48.80
  11  -3  -4    6.00   12.50
 -11  -3   4    9.70   14.20
  11  -3  -3  749.82   51.69
 -11  -3   3  671.43   54.49
  11  -3  -2  100.29   21.90
 -11  -3   2   90.99   24.50
  11  -3  -1   30.80   15.20
 -11  -3   1   41.00   19.00
 -11  -3   0  200.58   33.20
  11  -3   0  191.28   28.90
 -11  -3  -1  534.75   51.69
  11  -3   1  379.26   41.70
 -11   3  -2    2.50   18.10
  11  -3   2   20.30   15.20
 -11  -3  -2   18.50   17.10
 -11  -4   7  524.95   52.99
 -11  -4   6  173.98   31.70
  11  -4  -6  175.58   27.70
 -11  -4   5 1156.38   71.29
  11  -4  -5 1070.29   63.99
  11  -4  -4 1756.12   86.39
 -11  -4   4 1665.73   92.49
  11  -4  -3  305.17   37.90
 -11  -4   3  376.66   44.70
 -11  -4   2  419.46   48.50
  11  -4  -2  489.35   48.60
  11  -4  -1   30.70   14.90
 -11  -4   1   28.80   17.40
  11  -4   0    7.00   13.20
 -11  -4   0    9.10   17.70
  11  -4   1    9.10   15.00
 -11  -4  -1   -2.10   16.80
 -11  -5   5   28.40   20.10
  11  -5  -5   35.20   16.50
  11  -5  -4  519.25   44.20
 -11  -5   4  560.94   55.49
  11  -5  -3  298.87   36.60
 -11  -5   3  304.77   41.10
  11  -5  -2   44.70   17.10
 -11  -5   2   71.39   24.60
 -11  -5   1  152.98   33.00
  11  -5  -1  243.78   36.50
  12   0  -7    4.00   17.50
  12   0  -5   -6.00   12.60
  12   0  -4   32.20   14.90
 -12   0   4   23.10   16.80
  12   0  -3    2.70   10.60
 -12   0   3    4.30   14.10
 -12   0   2  405.66   43.00
  12   0  -2  366.26   39.60
  12   0  -1    2.10   11.80
 -12   0   1    5.30   14.20
 -12   0   0  204.28   30.40
  12   0   0  202.68   30.50
 -12   0  -1   -7.30   12.70
  12   0   1    2.40   12.00
  12   1  -7  212.28   38.60
 -12  -1   6  560.64   46.10
 -12  -1   5   91.29   23.70
  12  -1  -5   60.49   17.80
  12   1  -4   11.10   12.20
 -12  -1   4   29.10   17.70
  12  -1  -4   24.50   14.20
  12   1  -3  305.97   34.40
  12  -1  -3  316.27   33.60
 -12  -1   3  238.68   35.20
 -12   1   2 1638.64   85.19
  12   1  -2 1694.43   83.29
 -12  -1   2 1747.13   89.39
  12  -1  -2 1677.83   83.89
 -12   1   1 1043.20   62.09
 -12  -1   1 1034.00   64.99
  12  -1  -1  810.72   55.89
 -12   1   0 1162.18   68.09
 -12  -1   0 1269.57   73.49
  12  -1   0 1192.78   69.19
 -12   1  -1  141.49   27.60
 -12  -1  -1  247.98   34.40
  12  -1   1  145.39   26.30
  12   2  -7   14.20   22.70
 -12  -2   7   15.90   17.80
 -12  -2   6   11.70   15.30
 -12  -2   5    3.10   15.30
  12  -2  -5   28.70   16.30
 -12  -2   4  147.09   30.20
  12  -2  -4  165.78   27.10
 -12  -2   3   68.59   24.10
  12  -2  -3   73.19   20.30
 -12  -2   2  226.78   34.90
  12  -2  -2  251.67   33.60
  12  -2  -1  258.27   34.60
 -12  -2   1  393.96   43.20
 -12   2   0   13.50   22.30
 -12  -2   0   45.50   20.20
  12  -2   0   54.49   17.10
 -12   2  -1  161.98   28.50
 -12  -2  -1  208.88   34.50
  12  -2   1  163.38   29.10
 -12  -3   6  114.99   27.80
 -12  -3   5  434.16   48.80
  12  -3  -5  311.97   38.70
 -12  -3   4   10.30   17.10
  12  -3  -4    4.50   13.40
  12  -3  -3  245.58   35.40
 -12  -3   3  334.97   43.50
 -12  -3   2  162.28   31.10
  12  -3  -2  130.89   26.40
 -12  -3   1 1650.43   90.99
  12  -3  -1 1570.74   86.59
  12  -3   0  131.59   26.00
 -12  -3   0  146.99   30.60
 -12  -4   5   66.89   25.30
  12  -4  -5   84.39   23.80
 -12  -4   4   41.50   21.80
  12  -4  -4   48.40   21.00
 -12  -4   3  367.66   47.60
  12  -4  -3  478.85   49.90
 -12  -4   2   12.70   19.20
  12  -4  -2   26.80   17.20
  13   0  -4  179.38   28.10
 -13   0   3    6.00   16.70
  13   0  -3   -6.90   10.60
 -13   0   2  286.47   38.20
  13   0  -2  258.27   34.80
 -13   0   1   -0.10   16.60
  13   0  -1   10.90   15.30
 -13  -1   5  111.39   27.50
  13  -1  -5   85.99   22.40
  13  -1  -4  220.38   31.30
 -13  -1   4  159.08   32.00
 -13  -1   3  306.67   40.50
  13  -1  -3  279.37   34.90
 -13  -1   2  168.68   30.90
  13  -1  -2  168.68   28.40
 -13   1   1   55.39   21.50
 -13  -1   1   29.80   19.60
  13  -1  -1   19.30   15.40
  13  -2  -5   40.10   19.70
 -13  -2   5   31.80   21.10
  13  -2  -4   18.20   14.90
 -13  -2   4    1.80   18.50
 -13  -2   3  222.08   37.50
  13  -2  -3  199.88   32.90
 -13  -2   2  126.79   28.80
  13  -2  -2   55.09   18.80
   0   0   0    0.00    0.00

_computing_structure_solution     'SHELXT 2018/2 (Sheldrick, 2018)'
;
_shelx_hkl_checksum              62470
_olex2_submission_special_instructions 'No special instructions were received'
loop_
_space_group_symop_operation_xyz
'x, y, z'
'-x, y+1/2, -z+1/2'
'-x, -y, -z'
'x, -y-1/2, z-1/2'
loop_
_atom_site_label
_atom_site_type_symbol
_atom_site_fract_x
_atom_site_fract_y
_atom_site_fract_z
_atom_site_U_iso_or_equiv
_atom_site_adp_type
_atom_site_occupancy
_atom_site_site_symmetry_order
_atom_site_calc_flag
_atom_site_refinement_flags_posn
_atom_site_refinement_flags_adp
_atom_site_refinement_flags_occupancy
_atom_site_disorder_assembly
_atom_site_disorder_group
I1 I 0.77564(4) 0.32794(5) 0.84910(5) 0.00421(11) Uani 1 1 d . . . . .
I2 I 0.42752(4) 0.37134(5) 0.65665(5) 0.00536(11) Uani 1 1 d . . . . .
Sr1 Sr 0.08994(6) 0.16293(8) 0.23513(8) 0.00500(14) Uani 1 1 d . . . . .
F1 F 0.9642(4) 0.1536(5) 0.9099(5) 0.0064(8) Uani 1 1 d . . . . .
O2 O 0.8351(4) 0.3668(6) 1.0739(5) 0.0053(9) Uani 1 1 d . . . . .
O1 O 0.8749(4) 0.4952(6) 0.7855(5) 0.0071(9) Uani 1 1 d . . . . .
O3 O 0.6141(4) 0.4742(6) 0.8013(5) 0.0074(10) Uani 1 1 d . . . . .
O4 O 0.3931(4) 0.5939(6) 0.5588(6) 0.0077(10) Uani 1 1 d . U . . .
O5 O 0.3655(5) 0.3994(6) 0.8289(6) 0.0107(10) Uani 1 1 d . . . . .
F3 F 0.2298(4) 0.2941(5) 0.5240(5) 0.0089(8) Uani 1 1 d . . . . .
loop_
_atom_site_aniso_label
_atom_site_aniso_U_11
_atom_site_aniso_U_22
_atom_site_aniso_U_33
_atom_site_aniso_U_23
_atom_site_aniso_U_13
_atom_site_aniso_U_12
I1 0.0051(2) 0.0036(2) 0.0040(2) -0.00030(15) 0.00160(17) -0.00097(15)
I2 0.0059(2) 0.0039(2) 0.0074(2) 0.00039(16) 0.00372(16) 0.00063(16)
Sr1 0.0068(3) 0.0035(3) 0.0049(3) -0.0004(2) 0.0023(3) 0.0000(2)
F1 0.0050(19) 0.0050(18) 0.0090(19) -0.0003(14) 0.0021(16) 0.0011(14)
O2 0.008(2) 0.004(2) 0.004(2) -0.0015(18) 0.0010(19) -0.0004(18)
O1 0.010(2) 0.004(2) 0.010(2) -0.0016(18) 0.0055(19) -0.0048(19)
O3 0.005(2) 0.007(2) 0.009(2) -0.0001(19) 0.0014(19) 0.0046(19)
O4 0.0093(17) 0.0052(16) 0.0089(16) 0.0015(14) 0.0036(14) 0.0017(14)
O5 0.011(2) 0.016(3) 0.007(2) -0.0004(19) 0.006(2) -0.002(2)
F3 0.0076(19) 0.0097(19) 0.0080(19) -0.0028(16) 0.0006(16) 0.0008(16)
loop_
_atom_type_symbol
_atom_type_description
_atom_type_scat_dispersion_real
_atom_type_scat_dispersion_imag
_atom_type_scat_source
F F 0.0171 0.0103 'International Tables Vol C Tables 4.2.6.8 and 6.1.1.4'
I I -0.4742 1.8119 'International Tables Vol C Tables 4.2.6.8 and 6.1.1.4'
O O 0.0106 0.0060 'International Tables Vol C Tables 4.2.6.8 and 6.1.1.4'
Sr Sr -1.5307 3.2498 'International Tables Vol C Tables 4.2.6.8 and 6.1.1.4'
loop_
_geom_angle_atom_site_label_1
_geom_angle_atom_site_label_2
_geom_angle_atom_site_label_3
_geom_angle
_geom_angle_site_symmetry_1
_geom_angle_site_symmetry_3
_geom_angle_publ_flag
Sr1 I1 Sr1 69.16(2) 4_666 1_656 ?
F1 I1 Sr1 38.43(9) . 1_656 ?
F1 I1 Sr1 44.32(9) . 4_666 ?
O2 I1 Sr1 103.77(14) . 4_666 ?
O2 I1 Sr1 44.93(14) . 1_656 ?
O2 I1 F1 83.35(17) . . ?
O2 I1 O1 99.76(19) . . ?
O2 I1 O3 95.79(19) . . ?
O1 I1 Sr1 42.42(14) . 4_666 ?
O1 I1 Sr1 92.25(14) . 1_656 ?
O1 I1 F1 84.10(17) . . ?
O1 I1 O3 96.9(2) . . ?
O3 I1 Sr1 140.70(13) . 1_656 ?
O3 I1 Sr1 136.84(13) . 4_666 ?
O3 I1 F1 178.79(15) . . ?
O3 I2 Sr1 132.51(11) . 4_566 ?
O3 I2 F3 172.86(15) . . ?
O4 I2 Sr1 94.63(14) . 4_566 ?
O4 I2 O3 86.70(19) . . ?
O4 I2 F3 89.54(18) . . ?
O5 I2 Sr1 41.92(15) . 4_566 ?
O5 I2 O3 91.16(19) . . ?
O5 I2 O4 101.0(2) . . ?
O5 I2 F3 83.60(18) . . ?
F3 I2 Sr1 41.79(10) . 4_566 ?
I1 Sr1 I2 174.67(2) 4_465 4_565 ?
F1 Sr1 I1 93.51(8) 3_656 4_465 ?
F1 Sr1 I1 94.86(8) 1_454 4_465 ?
F1 Sr1 I1 36.83(8) 4_465 4_465 ?
F1 Sr1 I2 142.50(8) 4_465 4_565 ?
F1 Sr1 I2 89.66(8) 1_454 4_565 ?
F1 Sr1 I2 86.09(8) 3_656 4_565 ?
F1 Sr1 F1 62.05(13) 3_656 1_454 ?
F1 Sr1 F1 114.77(12) 1_454 4_465 ?
F1 Sr1 F1 129.87(8) 3_656 4_465 ?
F1 Sr1 O2 58.20(11) 1_454 1_454 ?
F1 Sr1 O2 102.40(12) 3_656 1_454 ?
F1 Sr1 O2 61.55(13) 3_656 2_646 ?
F1 Sr1 O2 56.71(12) 4_465 1_454 ?
F1 Sr1 O2 123.60(12) 1_454 2_646 ?
F1 Sr1 O2 100.69(12) 4_465 2_646 ?
F1 Sr1 O1 89.63(12) 1_454 4_465 ?
F1 Sr1 O1 61.91(12) 4_465 4_465 ?
F1 Sr1 O1 67.99(12) 3_656 4_465 ?
F1 Sr1 O5 91.69(13) 3_656 4_565 ?
F1 Sr1 O5 114.04(12) 1_454 4_565 ?
F1 Sr1 O5 126.69(13) 4_465 4_565 ?
F1 Sr1 F3 83.08(11) 3_656 4_565 ?
F1 Sr1 F3 142.69(11) 4_465 4_565 ?
F1 Sr1 F3 60.70(11) 1_454 4_565 ?
O2 Sr1 I1 88.32(9) 2_646 4_465 ?
O2 Sr1 I1 50.53(8) 1_454 4_465 ?
O2 Sr1 I2 134.74(8) 1_454 4_565 ?
O2 Sr1 I2 86.82(9) 2_646 4_565 ?
O2 Sr1 O2 136.48(9) 2_646 1_454 ?
O2 Sr1 O1 69.55(13) 2_646 4_465 ?
O2 Sr1 O5 67.95(13) 2_646 4_565 ?
O2 Sr1 F3 112.07(12) 2_646 4_565 ?
O1 Sr1 I1 26.77(9) 4_465 4_465 ?
O1 Sr1 I1 99.27(10) 3_666 4_465 ?
O1 Sr1 I2 83.59(10) 3_666 4_565 ?
O1 Sr1 I2 150.86(9) 4_465 4_565 ?
O1 Sr1 F1 69.47(12) 3_666 4_465 ?
O1 Sr1 F1 89.39(12) 3_666 1_454 ?
O1 Sr1 F1 149.67(12) 3_666 3_656 ?
O1 Sr1 O2 66.71(13) 3_666 1_454 ?
O1 Sr1 O2 66.96(12) 4_465 1_454 ?
O1 Sr1 O2 145.58(14) 3_666 2_646 ?
O1 Sr1 O1 125.52(12) 3_666 4_465 ?
O1 Sr1 O5 137.50(14) 4_465 4_565 ?
O1 Sr1 O5 91.08(14) 3_666 4_565 ?
O1 Sr1 F3 73.39(12) 3_666 4_565 ?
O1 Sr1 F3 69.13(13) 3_666 . ?
O5 Sr1 I1 149.45(9) 4_565 4_465 ?
O5 Sr1 I2 25.40(9) 4_565 4_565 ?
O5 Sr1 O2 155.49(13) 4_565 1_454 ?
F3 Sr1 I1 153.95(8) 4_565 4_465 ?
F3 Sr1 I1 91.73(8) . 4_465 ?
F3 Sr1 I2 85.07(8) . 4_565 ?
F3 Sr1 I2 31.26(8) 4_565 4_565 ?
F3 Sr1 F1 61.53(12) . 4_465 ?
F3 Sr1 F1 138.17(12) . 3_656 ?
F3 Sr1 F1 158.30(11) . 1_454 ?
F3 Sr1 O2 104.85(11) 4_565 1_454 ?
F3 Sr1 O2 77.18(13) . 2_646 ?
F3 Sr1 O2 112.66(12) . 1_454 ?
F3 Sr1 O1 146.29(12) 4_565 4_465 ?
F3 Sr1 O1 105.09(12) . 4_465 ?
F3 Sr1 O5 56.59(12) 4_565 4_565 ?
F3 Sr1 O5 65.18(12) . 4_565 ?
F3 Sr1 F3 108.04(12) . 4_565 ?
I1 F1 Sr1 98.86(13) . 4_666 ?
I1 F1 Sr1 111.12(14) . 3_656 ?
I1 F1 Sr1 108.61(13) . 1_656 ?
Sr1 F1 Sr1 105.54(12) 3_656 4_666 ?
Sr1 F1 Sr1 113.10(13) 1_656 4_666 ?
Sr1 F1 Sr1 117.95(13) 3_656 1_656 ?
I1 O2 Sr1 133.6(2) . 2_656 ?
I1 O2 Sr1 109.83(18) . 1_656 ?
Sr1 O2 Sr1 95.60(13) 2_656 1_656 ?
I1 O1 Sr1 110.8(2) . 4_666 ?
I1 O1 Sr1 143.1(2) . 3_666 ?
Sr1 O1 Sr1 105.21(15) 3_666 4_666 ?
I1 O3 I2 121.0(2) . . ?
I2 O5 Sr1 112.7(2) . 4_566 ?
I2 F3 Sr1 106.94(14) . 4_566 ?
I2 F3 Sr1 139.52(16) . . ?
Sr1 F3 Sr1 113.47(13) . 4_566 ?
loop_
_geom_bond_atom_site_label_1
_geom_bond_atom_site_label_2
_geom_bond_distance
_geom_bond_site_symmetry_2
_geom_bond_publ_flag
I1 Sr1 3.9274(10) 1_656 ?
I1 Sr1 3.7163(11) 4_666 ?
I1 F1 2.254(4) . ?
I1 O2 1.781(4) . ?
I1 O1 1.791(4) . ?
I1 O3 1.922(4) . ?
I2 Sr1 3.8093(11) 4_566 ?
I2 O3 2.057(4) . ?
I2 O4 1.792(4) . ?
I2 O5 1.771(4) . ?
I2 F3 2.067(4) . ?
Sr1 F1 2.576(4) 1_454 ?
Sr1 F1 2.628(3) 4_465 ?
Sr1 F1 2.571(4) 3_656 ?
Sr1 O2 2.948(4) 1_454 ?
Sr1 O2 2.632(4) 2_646 ?
Sr1 O1 2.682(4) 4_465 ?
Sr1 O1 2.528(4) 3_666 ?
Sr1 O5 2.758(5) 4_565 ?
Sr1 F3 2.538(4) . ?
Sr1 F3 2.654(4) 4_565 ?
