#------------------------------------------------------------------------------
#$Date: 2019-11-22 22:26:51 +0200 (Fri, 22 Nov 2019) $
#$Revision: 231428 $
#$URL: file:///home/coder/svn-repositories/cod/cif/4/00/32/4003207.cif $
#------------------------------------------------------------------------------
#
# This file is available in the Crystallography Open Database (COD),
# http://www.crystallography.net/
#
# All data on this site have been placed in the public domain by the
# contributors.
#
data_4003207
loop_
_publ_author_name
'Ahmet, Ibbi Y.'
'Hill, Michael S.'
'Johnson, Andrew L.'
'Peter, Laurence M.'
_publ_section_title
;
 Polymorph-Selective Deposition of High Purity SnS Thin Films from a
 Single Source Precursor
;
_journal_issue                   22
_journal_name_full               'Chemistry of Materials'
_journal_page_first              7680
_journal_paper_doi               10.1021/acs.chemmater.5b03220
_journal_volume                  27
_journal_year                    2015
_chemical_formula_moiety         'C22 H34 N6 S2 Sn2'
_chemical_formula_sum            'C22 H34 N6 S2 Sn2'
_chemical_formula_weight         684.05
_space_group_crystal_system      triclinic
_space_group_IT_number           2
_space_group_name_Hall           '-P 1'
_space_group_name_H-M_alt        'P -1'
_atom_sites_solution_hydrogens   geom
_audit_creation_method           SHELXL-2014/7
_cell_angle_alpha                93.0090(10)
_cell_angle_beta                 99.2320(10)
_cell_angle_gamma                94.8946(16)
_cell_formula_units_Z            1
_cell_length_a                   6.13510(10)
_cell_length_b                   8.9483(2)
_cell_length_c                   12.4437(3)
_cell_measurement_reflns_used    9468
_cell_measurement_temperature    150(2)
_cell_measurement_theta_max      27.485
_cell_measurement_theta_min      0.998
_cell_volume                     670.31(2)
_computing_cell_refinement       'HKL Scalepack (Otwinowski & Minor, 1997)'
_computing_data_collection       'Collect (Nonius BV, 1997-2000)'
_computing_data_reduction
;
 DENZO-SCALEPACK Z. Otwinowski and W. Minor, " 
 Processing of X-ray Diffraction Data Collected in Oscillation Mode ", 
 Methods in Enzymology, Volume 276: Macromolecular Crystallography, 
 part A, p.307-326, 1997,C.W. Carter, Jr. & R. M. Sweet, Eds., Academic Press.
;
_computing_molecular_graphics
'ORTEP3 for Windows - Farrugia, L. J. J. Appl. Crystallogr. 1997, 30, 565'
_computing_publication_material
;
 'SHELXL-2014 (Sheldrick, 2014)
;
_computing_structure_refinement
;
 SHELXL-2014/7 (Sheldrick, 2014)
 Sheldrick GM (2008) Acta Crystallogr A64:112--122 and 
 C. B. H\"ubschle, G. M. Sheldrick and B. Dittrich
 ShelXle: a Qt graphical user interface for SHELXL
 J. Appl. Cryst., 44, (2011) 1281-1284.
;
_computing_structure_solution
; 
 SIR97- Altomare A., Burla M.C., Camalli M., Cascarano G.L., Giacovazzo C. , 
 Guagliardi A., Moliterni A.G.G., Polidori G.,Spagna R. 
 (1999) J. Appl. Cryst. 32, 115-119
;
_diffrn_ambient_temperature      150(2)
_diffrn_measured_fraction_theta_full 0.990
_diffrn_measured_fraction_theta_max 0.891
_diffrn_measurement_device_type  'Nonius Kappa CCD'
_diffrn_measurement_method       '275 2.0 degree images with \f and \w scans'
_diffrn_radiation_monochromator  graphite
_diffrn_radiation_source         'fine-focus sealed tube'
_diffrn_radiation_type           MoK\a
_diffrn_radiation_wavelength     0.71073
_diffrn_reflns_av_R_equivalents  0.0426
_diffrn_reflns_av_unetI/netI     0.0345
_diffrn_reflns_Laue_measured_fraction_full 0.990
_diffrn_reflns_Laue_measured_fraction_max 0.891
_diffrn_reflns_limit_h_max       8
_diffrn_reflns_limit_h_min       -8
_diffrn_reflns_limit_k_max       12
_diffrn_reflns_limit_k_min       -12
_diffrn_reflns_limit_l_max       17
_diffrn_reflns_limit_l_min       -16
_diffrn_reflns_number            9999
_diffrn_reflns_point_group_measured_fraction_full 0.990
_diffrn_reflns_point_group_measured_fraction_max 0.891
_diffrn_reflns_theta_full        25.242
_diffrn_reflns_theta_max         29.654
_diffrn_reflns_theta_min         2.919
_exptl_absorpt_coefficient_mu    2.040
_exptl_absorpt_correction_T_max  0.819
_exptl_absorpt_correction_T_min  0.592
_exptl_absorpt_correction_type   multi-scan
_exptl_absorpt_process_details
;
multi-scan from symmetry-related measurements 
 Sortav (Blessing 1995)
;
_exptl_crystal_colour            'pale yellow'
_exptl_crystal_density_diffrn    1.695
_exptl_crystal_description       'irregular block'
_exptl_crystal_F_000             340
_exptl_crystal_size_max          0.300
_exptl_crystal_size_mid          0.200
_exptl_crystal_size_min          0.150
_refine_diff_density_max         1.865
_refine_diff_density_min         -2.020
_refine_diff_density_rms         0.185
_refine_ls_extinction_method     none
_refine_ls_goodness_of_fit_ref   1.174
_refine_ls_hydrogen_treatment    constr
_refine_ls_matrix_type           full
_refine_ls_number_parameters     149
_refine_ls_number_reflns         3385
_refine_ls_number_restraints     0
_refine_ls_restrained_S_all      1.174
_refine_ls_R_factor_all          0.0467
_refine_ls_R_factor_gt           0.0437
_refine_ls_shift/su_max          0.000
_refine_ls_shift/su_mean         0.000
_refine_ls_structure_factor_coef Fsqd
_refine_ls_weighting_details
'w=1/[\s^2^(Fo^2^)+(0.0236P)^2^+5.5625P] where P=(Fo^2^+2Fc^2^)/3'
_refine_ls_weighting_scheme      calc
_refine_ls_wR_factor_gt          0.1103
_refine_ls_wR_factor_ref         0.1118
_reflns_Friedel_coverage         0.000
_reflns_number_gt                3256
_reflns_number_total             3385
_reflns_threshold_expression     'I > 2\s(I)'
_cod_data_source_file            cm5b03220_si_002.cif
_cod_data_source_block           K13ALJ31
_cod_database_code               4003207
_shelx_shelxl_version_number     2014/7
_shelx_space_group_comment
;
The symmetry employed for this shelxl refinement is uniquely defined
by the following loop, which should always be used as a source of
symmetry information in preference to the above space-group names.
They are only intended as comments.
;
_shelx_estimated_absorpt_t_min   0.580
_shelx_estimated_absorpt_t_max   0.749
_shelx_res_file
;

    K13ALJ31.res created by SHELXL-2014/7


TITL k13alj31
CELL  0.71073   6.1351   8.9483  12.4437   93.009   99.232   94.8946
ZERR  1   0.0001   0.0002   0.0003    0.001    0.001    0.0016
LATT   1
SFAC  C    H    N    S    SN
UNIT 22 34 6 2 2
LIST 4
OMIT     0  -1   1
OMIT    -1   0   1
OMIT     1  -4   1
OMIT    -2  -4   2
OMIT    -1  -2   4
OMIT     0  -5   3
OMIT    -4  -1   5
OMIT    -1   1   0
OMIT     1  -4   5
OMIT     0   5   5
OMIT     5  -2   2
OMIT     1   0   0
OMIT     2  -2   3
OMIT    -2   2   5
OMIT     2  -7   3
OMIT     4  -4   4
FMAP   2
PLAN    5
SIZE     0.15   0.20   0.30
ACTA
BOND   $H
CONF
L.S. 10
TEMP  -123.00
WGHT    0.023600    5.562500
FVAR       1.02674
SN1   5    0.702302    0.015629    0.118045    11.00000    0.01841    0.01635 =
         0.02072    0.00142    0.00337    0.00453
S11   4    0.406994   -0.024164    0.244520    11.00000    0.03123    0.01922 =
         0.02157    0.00036    0.00775   -0.00257
N1    3    0.483869    0.188321    0.411071    11.00000    0.03100    0.02310 =
         0.02096    0.00059    0.00836    0.00237
N2    3    0.480385   -0.166094   -0.009271    11.00000    0.02457    0.01400 =
         0.01941    0.00295    0.00485    0.00340
N12   3    0.701649    0.204682    0.269127    11.00000    0.02360    0.02003 =
         0.02389    0.00021    0.00644    0.00211
C1    1    0.640124    0.277806    0.495549    11.00000    0.03930    0.02782 =
         0.02006   -0.00190    0.00438    0.00297
AFIX 137
H1A   2    0.788799    0.282454    0.475825    11.00000   -1.50000
H1B   2    0.642189    0.231432    0.565278    11.00000   -1.50000
H1C   2    0.594491    0.379725    0.502371    11.00000   -1.50000
AFIX   0
C2    1    0.276678    0.131712    0.444525    11.00000    0.03587    0.03420 =
         0.03019    0.00303    0.01515    0.00541
AFIX 137
H2A   2    0.172409    0.087924    0.380381    11.00000   -1.50000
H2B   2    0.212416    0.214597    0.479006    11.00000   -1.50000
H2C   2    0.306010    0.054582    0.496663    11.00000   -1.50000
AFIX   0
C3    1    0.322432   -0.272551    0.034171    11.00000    0.03785    0.02877 =
         0.02458    0.00771    0.00249   -0.00644
AFIX 137
H3A   2    0.254704   -0.349077   -0.023476    11.00000   -1.50000
H3B   2    0.206410   -0.217626    0.059240    11.00000   -1.50000
H3C   2    0.401902   -0.321233    0.095429    11.00000   -1.50000
AFIX   0
C4    1    0.646168   -0.253237   -0.050638    11.00000    0.03477    0.02296 =
         0.03060   -0.00196    0.00235    0.01216
AFIX 137
H4A   2    0.738425   -0.294027    0.010604    11.00000   -1.50000
H4B   2    0.740033   -0.187648   -0.088764    11.00000   -1.50000
H4C   2    0.570368   -0.336028   -0.101282    11.00000   -1.50000
AFIX   0
C11   1    0.541496    0.141786    0.315154    11.00000    0.02251    0.01835 =
         0.02001    0.00239    0.00333    0.00364
C12   1    0.783845    0.357396    0.280075    11.00000    0.02132    0.02119 =
         0.01928    0.00059    0.00095    0.00280
C13   1    0.653601    0.473965    0.302058    11.00000    0.02189    0.02171 =
         0.02733    0.00047    0.00596    0.00408
AFIX  43
H13   2    0.511489    0.450906    0.321399    11.00000   -1.20000
AFIX   0
C14   1    0.733658    0.623612    0.295387    11.00000    0.03436    0.01992 =
         0.02807    0.00161    0.00168    0.00714
AFIX  43
H14   2    0.644015    0.701689    0.309033    11.00000   -1.20000
AFIX   0
C15   1    0.941191    0.659410    0.269240    11.00000    0.03400    0.02350 =
         0.03428    0.00896   -0.00179   -0.00414
AFIX  43
H15   2    0.993991    0.761385    0.264480    11.00000   -1.20000
AFIX   0
C16   1    1.072876    0.544321    0.249843    11.00000    0.02593    0.03126 =
         0.04101    0.01292    0.00596   -0.00222
AFIX  43
H16   2    1.216841    0.568251    0.232914    11.00000   -1.20000
AFIX   0
C17   1    0.994097    0.394179    0.255191    11.00000    0.02155    0.02811 =
         0.02884    0.00347    0.00663    0.00412
AFIX  43
H17   2    1.084792    0.316651    0.241735    11.00000   -1.20000
AFIX   0
HKLF    4

REM  k13alj31
REM R1 =  0.0437 for    3256 Fo > 4sig(Fo)  and  0.0467 for all    3385 data
REM    149 parameters refined using      0 restraints

END

WGHT      0.0234      5.5655

REM Highest difference peak  1.865,  deepest hole -2.020,  1-sigma level  0.185
Q1    1   0.0263 -0.1773  0.1199  11.00000  0.05    1.86
Q2    1   0.6245 -0.2013 -0.1187  11.00000  0.05    1.86
Q3    1   0.4596  0.0282  0.3556  11.00000  0.05    1.25
Q4    1   0.7256 -0.0326  0.0434  11.00000  0.05    1.16
Q5    1   0.9484 -0.0062 -0.1226  11.00000  0.05    1.08
;
_shelx_res_checksum              43859
_shelx_hkl_file
;
  -8   2   3   26.27    8.50
  -8   2   4  372.84   25.37
  -8   2   5 1100.08   61.75
  -8   2   6  443.71   30.03
  -8   3   0  321.53   20.56
  -8   3   3   62.34   10.77
  -8   3   4  339.65   24.92
  -8   3   5  418.29   27.18
  -8   3   6  281.29   20.72
  -8   3   7   -5.62   13.43
  -8   4   0  551.79   36.64
  -8   4   1  456.17   28.64
  -8   4   2   53.31    8.45
  -8   4   4  147.04   14.75
   8  -4  -4  153.68   12.63
   8  -4  -5  453.94   26.93
  -8   4   5  443.56   30.59
  -8   5   0  547.03   37.88
  -8   5   1  401.21   26.64
  -8   5   2   -8.32    8.32
  -7  -6   2   18.64   11.39
  -7  -6   3   52.86   10.55
  -7  -6   4  321.96   23.22
  -7  -6   5  414.62   30.14
  -7  -5   1   86.22   11.26
  -7  -5   2    3.76    6.21
  -7  -5   3   68.55    9.99
  -7  -5   5  569.48   40.87
  -7  -5   6   41.01    8.55
  -7  -4   1   99.41   13.27
  -7  -4   2  -12.34    5.85
  -7  -4   2    2.19    5.55
  -7  -4   3   21.82    6.74
  -7  -4   3   36.84    9.12
  -7  -4   4  542.84   31.09
  -7  -4   4  721.95   36.62
  -7  -4   5  476.24   30.33
  -7  -4   6   -2.79    8.95
  -7  -4   7  424.55   30.58
  -7  -4   8  466.71   31.42
  -7  -3   1  156.58   12.42
  -7  -3   2   20.11    8.40
  -7  -3   3  103.07   10.92
  -7  -3   3  135.12   11.05
  -7  -3   4  443.76   27.45
  -7  -3   4  587.07   29.94
  -7  -3   5  394.63   22.41
  -7  -3   5  230.10   17.96
  -7  -3   6   -0.74    8.00
  -7  -3   7  456.97   34.54
  -7  -3   7  664.13   33.78
  -7  -3   8  447.56   32.25
  -7  -2   1   99.91    9.67
   7   2  -1   89.62   12.75
  -7  -2   2   32.05    6.15
  -7  -2   2   44.05    7.66
   7   2  -2   29.83    8.73
  -7  -2   3  322.82   20.11
  -7  -2   4  465.74   22.04
  -7  -2   5  565.68   29.04
  -7  -2   5  483.79   25.67
  -7  -2   6   83.88    8.96
  -7  -2   6   55.79    8.78
  -7  -2   7  735.53   32.90
  -7  -2   7  603.61   34.92
  -7  -2   8  803.94   35.89
  -7  -2   8  626.36   40.32
  -7  -2   9  121.74   16.26
  -7  -1   1   62.13    7.71
  -7  -1   2  265.95   16.58
   7   1  -2  285.88   16.88
  -7  -1   3  367.95   21.09
   7   1  -3  406.25   21.00
  -7  -1   4  450.53   25.20
  -7  -1   5  652.20   34.25
  -7  -1   6   63.13   11.77
  -7  -1   7  647.02   35.10
  -7  -1   8  702.13   38.83
  -7  -1   9  304.68   20.12
  -7   0   1   29.53   10.63
  -7   0   2  290.03   17.88
  -7   0   3  480.87   25.10
   7   0  -3  460.87   23.85
  -7   0   4  804.22   37.93
   7   0  -4  775.00   36.54
  -7   0   5  351.43   20.01
  -7   0   6   59.78   16.49
  -7   0   7  748.69   31.28
  -7   0   8 1021.92   58.00
  -7   0   9  228.73   15.62
   7  -1   0  797.77   37.24
   7  -1   0  757.75   35.21
   7  -1  -1   31.56    9.11
   7  -1  -1   17.99    2.72
  -7   1   2  478.75   23.71
  -7   1   3  567.65   28.50
   7  -1  -3  599.07   30.88
   7  -1  -4  508.33   25.40
  -7   1   4  491.93   24.50
  -7   1   5  359.85   19.95
   7  -1  -5  369.22   17.66
  -7   1   6   44.60   11.96
  -7   1   7  812.47   39.93
  -7   1   8 1088.72   59.76
  -7   1   9   43.05   11.61
   7  -2   0  658.53   27.56
   7  -2   0  653.94   28.04
   7  -2  -1   -0.65    3.49
   7  -2  -1    2.26    7.17
   7  -2  -2  223.67   14.10
   7  -2  -2  202.87   11.44
   7  -2  -3  950.24   52.96
   7  -2  -3  962.54   42.59
   7  -2  -4  548.02   37.68
   7  -2  -4  581.67   27.03
  -7   2   4  685.51   32.43
  -7   2   5   76.74    8.25
   7  -2  -5   55.39    8.18
   7  -2  -5   59.71    5.32
  -7   2   6  110.40   10.11
   7  -2  -6  103.03    7.03
   7  -2  -6   92.67    8.80
  -7   2   7  402.63   22.10
   7  -2  -7  341.73   18.47
  -7   2   8  887.11   49.99
   7  -2  -8  730.81   33.34
  -7   2   9  134.65   13.88
   7  -2  -9   81.75    9.15
  -7   2  10   76.16    7.56
  -7   2  11  476.61   30.81
   7  -3   0  529.03   25.59
   7  -3   0  577.30   23.02
  -7   3   1   93.06    8.06
   7  -3  -2  665.19   28.72
   7  -3  -2  693.93   31.92
   7  -3  -3  839.71   40.31
   7  -3  -3  856.64   36.94
   7  -3  -4  146.42   14.09
   7  -3  -4  191.07    9.91
  -7   3   4  190.01   13.39
   7  -3  -5   47.06   12.95
  -7   3   5  117.81   12.29
   7  -3  -5   80.18    9.77
  -7   3   6   76.74    8.24
   7  -3  -6   44.83    7.96
   7  -3  -6   23.93    8.57
  -7   3   7 1140.29   44.56
   7  -3  -7  982.76   46.50
  -7   3   8 1160.68   60.59
   7  -3  -8 1014.89   53.17
   7  -3  -9   37.72    7.26
  -7   3   9   65.56   12.84
  -7   3  10  153.35   13.23
   7  -4   0  412.20   21.33
   7  -4   0  417.21   16.97
   7  -4  -1   54.62   10.56
   7  -4  -1   53.63    8.23
   7  -4  -2  877.69   40.42
   7  -4  -2  915.53   33.00
   7  -4  -3  756.81   29.19
   7  -4  -3  771.80   31.50
  -7   4   4  176.14   12.91
   7  -4  -4  207.25   12.18
   7  -4  -4  188.55   12.97
   7  -4  -5   58.92    8.50
   7  -4  -5   57.61    9.90
  -7   4   5   59.12   10.30
  -7   4   6  196.51   13.40
   7  -4  -6  200.23   12.96
   7  -4  -6  186.64   13.82
  -7   4   7  920.53   40.73
   7  -4  -7  897.54   35.88
  -7   4   8  916.32   46.52
   7  -4  -8  773.91   43.56
   7  -4  -9  149.53   12.79
  -7   4   9  143.11   14.18
  -7   4  10  207.39   15.53
   7  -5   0  567.84   24.84
   7  -5   0  541.75   28.33
   7  -5  -1   67.56   10.71
   7  -5  -1   88.71    8.93
   7  -5  -2 1150.73   49.64
   7  -5  -2 1185.96   50.12
   7  -5  -3  400.15   21.80
   7  -5  -3  412.99   21.40
   7  -5  -4   93.87    9.60
   7  -5  -4   70.27    9.21
  -7   5   4   66.63    8.67
   7  -5  -5   70.41    8.86
   7  -5  -5   83.48   10.15
  -7   5   5   62.68   11.39
  -7   5   6  194.41   16.08
   7  -5  -6  197.62   15.94
   7  -5  -6  174.57   12.68
  -7   5   7  810.14   46.76
   7  -5  -7  824.99   56.37
   7  -5  -7  860.40   47.62
  -7   5   8  529.09   31.68
  -7   5   9   33.95   11.18
   7  -6   0  231.12   14.96
   7  -6   0  180.40   16.70
   7  -6  -1   61.89    7.92
   7  -6  -1   69.67    9.79
   7  -6  -2  501.91   28.07
   7  -6  -2  521.04   35.14
   7  -6  -3  618.67   33.17
   7  -6  -3  557.01   33.28
   7  -6  -4  303.44   21.40
   7  -6  -4  314.96   19.69
   7  -6  -5    7.93    6.29
   7  -6  -5   47.24    9.75
   7  -6  -6  210.60   19.31
   7  -6  -6  223.78   16.06
  -7   7   0  134.82   13.24
  -7   7   1  111.68   13.84
  -7   7   2  728.00   48.12
  -7   7   3  529.79   36.76
  -7   7   4  119.38   15.97
  -6  -8   3   95.42   15.02
  -6  -7   1  286.19   20.52
  -6  -7   2  328.55   24.61
   6   7  -2  353.32   23.97
   6   7  -3  213.93   18.05
  -6  -7   3  249.63   20.12
  -6  -7   4  159.95   14.07
  -6  -7   4  135.03   13.29
  -6  -7   5    7.35    6.50
  -6  -7   6  103.66   12.77
  -6  -6   1  241.82   14.02
   6   6  -1  186.01   12.09
  -6  -6   1  144.43   13.13
  -6  -6   2  451.82   29.37
  -6  -6   2  652.49   29.30
   6   6  -2  626.05   31.29
  -6  -6   3  669.25   28.85
  -6  -6   4   29.14    7.35
  -6  -6   4   17.01    6.29
  -6  -6   5   27.79    8.64
  -6  -6   5   13.74    8.02
  -6  -6   6   80.12   11.62
  -6  -6   7  479.66   27.74
  -6  -6   8  340.47   25.92
  -6  -5   1  336.40   20.97
   6   5  -1  487.50   25.58
  -6  -5   1  467.78   22.05
  -6  -5   2  687.43   31.34
  -6  -5   3  312.41   16.14
  -6  -5   4  119.00   11.65
  -6  -5   4  169.27   11.36
  -6  -5   5    8.58    5.23
  -6  -5   5   19.17    6.74
  -6  -5   6  666.40   29.79
  -6  -5   7  744.36   39.50
  -6  -5   8  133.07   14.67
  -6  -5   9  107.98   12.60
  -6  -4   1  360.94   18.45
  -6  -4   2 1049.87   55.50
  -6  -4   2 1418.57   52.89
  -6  -4   3  650.38   35.97
  -6  -4   4   44.10    9.21
  -6  -4   4   27.03    7.24
  -6  -4   5  108.88    9.36
  -6  -4   5   80.01    8.87
  -6  -4   6  347.64   17.99
  -6  -4   6  218.94   18.33
  -6  -4   7  793.63   39.12
  -6  -4   7 1092.31   42.72
  -6  -4   8  520.96   26.29
  -6  -4   9   51.68    9.06
  -6  -4  10  427.11   28.44
  -6  -3   1  718.83   27.96
   6   3  -1  718.76   29.64
  -6  -3   2 1316.38   51.98
  -6  -3   3  416.64   18.39
  -6  -3   4    7.12    5.18
  -6  -3   4    7.18    4.34
  -6  -3   5   79.10    9.28
  -6  -3   6  732.71   34.34
  -6  -3   7 1168.41   48.98
  -6  -3   7  938.90   45.66
  -6  -3   8  302.01   18.44
  -6  -3   9  103.09    9.44
  -6  -3  10  423.71   21.93
  -6  -3  11  480.48   29.44
  -6  -2   1  400.29   17.93
   6   2  -2 1715.90   68.87
  -6  -2   2 1774.67   71.52
  -6  -2   3  501.83   21.91
  -6  -2   4  195.73   11.43
  -6  -2   4  146.95    9.51
  -6  -2   5  224.40   12.40
  -6  -2   5  272.89   13.84
  -6  -2   6  537.05   24.15
  -6  -2   7 1172.02   53.34
  -6  -2   8  433.50   22.03
  -6  -2   8  319.10   18.12
  -6  -2   9  232.60   15.17
  -6  -2  10  878.22   46.85
  -6  -2  11  612.17   31.22
  -6  -2  12    9.53    7.50
   6   1  -1 1146.79   44.95
  -6  -1   1 1055.63   44.78
   6   1  -2 2002.30   85.75
  -6  -1   2 1659.91  115.83
  -6  -1   3  131.13    8.62
   6   1  -4   15.20    4.32
  -6  -1   4    1.50    3.30
  -6  -1   4   11.56    4.68
  -6  -1   5  203.89   26.37
  -6  -1   5  250.50   13.33
  -6  -1   6  744.23   36.93
  -6  -1   6  938.29   37.39
  -6  -1   7 1153.19   49.99
  -6  -1   7  835.37   42.57
  -6  -1   8   67.54    7.51
  -6  -1   8   38.46    7.34
  -6  -1   9  178.82   13.57
   6   1 -10 1079.20   54.22
  -6  -1  10 1195.32   55.66
  -6  -1  11  494.84   27.90
   6   1 -11  469.72   25.02
  -6  -1  12    9.56    6.66
   6   0  -1 1476.82   60.27
  -6   0   1 1076.68   49.80
  -6   0   2 2232.29   91.31
   6   0  -2 2380.29  112.76
   6   0  -2 3069.93  101.38
   6   0  -3  624.35   29.29
  -6   0   3  635.76   27.21
  -6   0   4   10.69    5.74
   6   0  -4    8.81    4.34
  -6   0   5  543.94   24.91
   6   0  -5  513.09   23.37
  -6   0   6  547.22   23.96
  -6   0   7  422.99   21.44
   6   0  -8  111.38    8.82
  -6   0   8  165.02   11.71
  -6   0   9  235.78   13.07
  -6   0  10 1475.53   87.27
  -6   0  11  378.94   25.81
  -6   0  12    7.60    5.32
  -6   1   0   25.51    3.65
   6  -1   0   46.45    5.83
   6  -1  -1 1671.85   64.12
   6  -1  -1 1701.75   69.48
  -6   1   1 1730.02   81.69
  -6   1   1 1506.00   88.51
  -6   1   2 1985.88  109.99
  -6   1   2 2125.62  104.72
   6  -1  -2 2103.03   78.98
   6  -1  -2 2139.02   72.56
   6  -1  -3  723.47   30.55
  -6   1   3  695.57   33.76
   6  -1  -3  739.54   29.92
  -6   1   4   50.73    4.97
  -6   1   4   69.84    6.95
   6  -1  -4   60.42    7.01
  -6   1   5  781.65   57.11
   6  -1  -5  833.03   33.92
  -6   1   5  869.90   32.93
  -6   1   6  761.98   27.14
  -6   1   7  382.27   19.33
   6  -1  -7  330.13   13.73
  -6   1   8   66.72    7.93
  -6   1   9  323.61   18.32
  -6   1  11  710.66   39.09
  -6   1  12   11.69    5.84
  -6   1  13  192.27   17.07
  -6   2   0   76.71    5.35
   6  -2   0   94.79    7.99
   6  -2   0   78.01    4.83
   6  -2  -1 1423.55   53.63
  -6   2   1 1476.93   54.34
   6  -2  -1 1415.15   55.72
  -6   2   2  987.98   47.88
   6  -2  -2  999.92   38.70
   6  -2  -2  989.92   43.72
   6  -2  -3  362.46   16.78
  -6   2   3  333.49   22.41
   6  -2  -3  369.04   14.20
  -6   2   3  379.63   16.05
   6  -2  -4  306.97   14.15
   6  -2  -4  281.18   14.25
  -6   2   4  273.08   19.92
  -6   2   4  300.53   14.16
   6  -2  -5 1393.88   68.14
  -6   2   5 1588.87   59.56
   6  -2  -5 1487.53   56.20
   6  -2  -6  737.75   30.21
   6  -2  -6  629.61   27.36
  -6   2   6  656.75   30.13
  -6   2   7  340.77   17.01
   6  -2  -7  305.19   15.20
  -6   2   8   72.76    6.68
   6  -2  -8   70.47    7.95
  -6   2   9  377.36   20.33
  -6   2  10 1465.02   60.53
  -6   2  11  419.67   30.49
  -6   2  12   17.50    7.00
  -6   2  13  112.80   10.55
   6  -3   0   13.89    4.19
  -6   3   0    1.97    4.33
   6  -3   0    0.93    7.19
   6  -3  -1  527.85   22.28
   6  -3  -1  526.49   20.36
  -6   3   1  540.20   23.21
   6  -3  -2 2193.01   79.60
  -6   3   2 2233.44   90.95
   6  -3  -2 2223.80   87.41
   6  -3  -3  451.48   17.28
  -6   3   3  429.95   17.67
   6  -3  -4 1110.72   44.83
  -6   3   4 1074.82   43.15
   6  -3  -4 1038.75   42.25
  -6   3   4 1021.04   42.53
   6  -3  -5 1235.29   54.08
   6  -3  -5 1309.73   54.10
  -6   3   5 1289.29   52.98
   6  -3  -6  382.58   17.77
  -6   3   6  394.08   19.47
   6  -3  -6  406.06   18.65
  -6   3   7  523.30   24.31
   6  -3  -7  448.48   20.87
  -6   3   8   10.53    4.71
   6  -3  -8    5.03    3.35
  -6   3   9  344.11   17.56
  -6   3  10  949.08   50.92
  -6   4   0  294.73   15.08
   6  -4   0  280.96   16.34
   6  -4   0  278.10   14.29
   6  -4  -1 1445.50   51.97
   6  -4  -1 1479.49   58.14
  -6   4   1 1450.91   57.45
   6  -4  -2 1459.66   55.77
  -6   4   2 1418.78   56.11
   6  -4  -2 1436.40   52.59
  -6   4   3  165.62    9.71
   6  -4  -3  151.00    9.82
   6  -4  -3  160.80    8.91
   6  -4  -4  688.90   26.84
   6  -4  -4  697.78   29.00
  -6   4   4  698.67   30.20
  -6   4   5  725.73   33.44
   6  -4  -5  735.93   29.93
   6  -4  -5  758.50   32.79
   6  -4  -6  726.52   31.91
   6  -4  -6  786.11   35.34
  -6   4   6  742.27   33.60
  -6   4   7  306.52   16.56
   6  -4  -7  249.53   14.08
   6  -4  -7  243.08   13.08
   6  -4  -8   10.19    5.73
  -6   4   8   10.90    6.62
  -6   4   9  456.72   22.47
  -6   4  10  876.63   40.29
  -6   4  11   87.60   10.22
  -6   4  12   36.42    8.11
   6  -5   0  299.51   15.02
  -6   5   0  297.69   16.61
   6  -5   0  277.91   17.26
   6  -5  -1 1093.09   39.61
   6  -5  -1 1048.52   47.86
  -6   5   1 1105.39   40.67
   6  -5  -2 1193.05   45.25
  -6   5   2 1161.76   48.00
   6  -5  -2 1199.25   49.69
  -6   5   3   44.21    6.13
   6  -5  -3   71.75    7.46
   6  -5  -3   37.33    6.34
   6  -5  -4  528.44   22.75
  -6   5   4  481.58   23.39
  -6   5   4  490.29   24.24
   6  -5  -4  503.66   21.65
   6  -5  -5  891.23   38.74
   6  -5  -5  844.20   36.19
  -6   5   5  861.82   40.33
   6  -5  -6 1305.73   51.28
   6  -5  -6 1240.51   57.42
  -6   5   6 1271.31   58.32
   6  -5  -7   69.67   11.85
   6  -5  -7   54.01   11.88
  -6   5   7   78.26    7.06
   6  -5  -8   68.38    7.03
  -6   5   8   73.71    7.96
  -6   5   9  461.38   22.88
  -6   5  10  492.76   32.33
  -6   6   0  301.69   17.48
   6  -6   0  265.44   15.26
   6  -6   0  297.94   16.15
  -6   6   1  630.50   28.12
   6  -6  -1  605.79   25.95
   6  -6  -1  637.50   27.33
  -6   6   2 1142.42   43.20
   6  -6  -2 1157.81   41.23
   6  -6  -2 1087.41   46.82
  -6   6   3   24.47    6.02
   6  -6  -3   28.88    5.62
   6  -6  -3   22.31    7.71
   6  -6  -4  466.68   21.75
  -6   6   4  504.92   23.09
  -6   6   4  502.34   25.37
   6  -6  -4  481.02   21.46
   6  -6  -5 1365.35   59.03
   6  -6  -5 1337.32   62.69
  -6   6   5 1307.25   65.62
   6  -6  -6  406.52   17.85
   6  -6  -6  393.20   20.45
   6  -6  -7   66.08   10.93
   6  -6  -7   63.14    8.87
  -6   6   8   45.77    6.79
  -6   6   9  559.98   33.73
  -6   7   0  467.92   23.45
   6  -7   0  411.28   22.25
   6  -7   0  495.06   22.00
  -6   7   1  734.21   35.44
   6  -7  -1  765.50   34.79
   6  -7  -1  719.91   32.59
   6  -7  -2  611.52   28.27
   6  -7  -2  625.83   31.48
  -6   7   2  625.89   31.75
   6  -7  -3   17.23    6.24
   6  -7  -3   51.02    9.54
  -6   7   3   33.84   10.07
   6  -7  -4  175.95   11.55
  -6   7   4  167.58   13.45
   6  -7  -4  176.06   13.13
   6  -7  -5 1213.16   55.51
   6  -7  -5 1193.58   55.04
  -6   7   6  265.42   17.00
  -6   7   7   -0.28    6.04
   6  -8   0  347.30   24.22
   6  -8   0  406.32   24.05
   6  -8  -1  737.74   45.19
   6  -8  -1  814.29   42.93
  -6   8   2  223.13   16.24
   6  -8  -2  262.10   17.86
   6  -8  -2  252.64   18.17
   6  -8  -3   26.80    7.76
  -6   8   3   19.81    8.49
   6  -8  -3   38.54    7.55
  -6   8   4  314.93   20.59
   6  -9   0  133.71   14.84
  -6   9   0  155.71   15.33
  -5  -9   2  257.28   19.64
  -5  -9   3   24.51   12.19
  -5  -9   4  157.16   15.19
   5   8  -1 1040.82   44.76
  -5  -8   1  984.82   62.49
  -5  -8   2  807.00   36.52
  -5  -8   3   64.15   10.45
  -5  -8   4  317.13   23.28
  -5  -7   1 1286.44   47.95
   5   7  -1 1231.05   50.72
   5   7  -2  646.02   29.46
  -5  -7   2  636.18   29.97
  -5  -7   3   18.36    8.45
   5   7  -3    7.61    8.15
  -5  -7   4  376.43   23.33
  -5  -7   5  479.76   28.10
  -5  -7   7   34.76    8.37
  -5  -7   8    5.39    7.52
  -5  -7   9  436.62   30.94
  -5  -6   1 1244.67   50.75
   5   6  -1 1271.39   60.45
   5   6  -2  610.53   26.98
  -5  -6   2  607.59   26.42
   5   6  -3   18.22    7.21
  -5  -6   3   15.64    5.48
  -5  -6   4  728.10   31.65
   5   6  -4  755.90   33.17
  -5  -6   5  325.32   17.27
  -5  -6   6  224.68   14.81
  -5  -6   7   63.94    8.74
  -5  -6   8   73.90    8.73
  -5  -6   9  887.84   44.53
  -5  -6  10  660.29   40.39
  -5  -5   1 1563.07   52.56
  -5  -5   1 1132.95   62.74
   5   5  -1 1560.56   69.39
   5   5  -2  921.17   38.71
  -5  -5   2  680.27   38.17
  -5  -5   2  903.75   33.37
   5   5  -3  136.57   26.02
  -5  -5   3  104.35    7.75
  -5  -5   4 1018.84   39.02
  -5  -5   5 1011.00   41.77
  -5  -5   6  132.07   10.89
  -5  -5   7   13.89    4.92
  -5  -5   8   62.78   13.00
  -5  -5   9  606.69   29.62
  -5  -5  10 1017.41   49.31
  -5  -5  11   18.21    5.84
  -5  -5  12  194.55   15.18
   5   4  -1 1030.82   43.31
  -5  -4   1 1046.47   38.98
  -5  -4   2  999.29   37.88
   5   4  -2  972.00   40.55
  -5  -4   3   89.68    9.10
  -5  -4   4 1449.09   49.79
  -5  -4   4 1050.49   52.50
  -5  -4   5 1408.28   55.89
  -5  -4   6  112.69    8.24
  -5  -4   6   87.47    7.95
  -5  -4   7   32.84    8.65
  -5  -4   8  201.62   14.80
  -5  -4   9  871.56   38.29
   5   4 -10  712.04   44.47
  -5  -4  10  611.74   28.69
  -5  -4  11   23.61    8.30
   5   4 -11   10.03    6.20
  -5  -4  12  302.59   22.21
  -5  -4  13  748.45   51.21
   5   3  -1 1950.00   68.73
   5   3  -1 1969.20   79.61
  -5  -3   1 2012.73   73.23
  -5  -3   2  876.29   32.52
  -5  -3   3  162.50   21.19
  -5  -3   3  250.60   20.35
  -5  -3   4 2834.55  107.14
  -5  -3   5 1344.77   48.29
  -5  -3   6  113.09    7.54
  -5  -3   6   81.47    8.52
  -5  -3   7  101.07   10.72
  -5  -3   7   46.94   11.59
  -5  -3   8  192.42   26.16
  -5  -3   9  868.96   34.67
  -5  -3  10  794.84   38.08
   5   3 -11   40.05    4.61
  -5  -3  11   32.24    7.63
   5   3 -12  889.79   46.71
  -5  -3  12  880.13   46.03
   5   3 -13  630.97   42.37
  -5  -3  13  661.76   37.94
  -5  -2   1 1712.45   64.21
  -5  -2   2  476.86   19.56
   5   2  -2  508.07   19.45
  -5  -2   3  780.25   28.99
  -5  -2   4 3726.21  134.64
  -5  -2   5 1006.23   46.34
  -5  -2   5 1291.53   44.78
  -5  -2   6  383.42   17.51
  -5  -2   7   40.37   13.06
  -5  -2   7   12.20    4.11
  -5  -2   8  401.77   34.04
  -5  -2   8  448.44   20.60
   5   2  -8  468.81   30.46
   5   2  -9 1052.74   58.17
  -5  -2   9 1005.91   42.30
   5   2 -10  451.20   22.64
  -5  -2  10  436.68   22.07
   5   2 -11    0.14    5.32
  -5  -2  11   13.46    7.38
   5   2 -12  506.98   22.72
  -5  -2  12  508.63   26.04
  -5  -2  13  592.32   32.67
  -5  -2  14  157.78   13.13
  -5  -1   1  842.86   32.43
   5   1  -1 1015.21   37.62
   5   1  -2  482.95   19.37
  -5  -1   2  360.82   16.55
  -5  -1   3  533.79   20.21
   5   1  -4 2492.18   87.31
  -5  -1   4 1853.07   88.98
  -5  -1   4 2485.71   82.66
  -5  -1   5 2001.01   74.40
   5   1  -6  117.26    5.29
  -5  -1   6  127.48    7.66
  -5  -1   6  108.36    4.38
  -5  -1   6   88.12    5.26
   5   1  -6   89.14    4.48
  -5  -1   6   85.46    7.74
  -5  -1   7  407.26   17.36
  -5  -1   7  371.66   17.51
  -5  -1   7  275.52   12.61
   5   1  -7  284.54   15.53
  -5  -1   7  314.55   15.76
   5   1  -8  543.96   23.32
  -5  -1   8  478.72   30.46
  -5  -1   8  544.75   22.63
  -5  -1   9  571.10   25.70
   5   1  -9  550.14   23.50
  -5  -1   9  565.33   41.70
   5   1 -10  890.05   56.06
  -5  -1  10  957.16   39.55
  -5  -1  11   -2.62    4.95
   5   1 -11   -2.40    3.30
  -5  -1  12  811.85   40.59
   5   1 -12  823.46   46.94
  -5  -1  13  901.82   42.25
   5   1 -13  847.95   48.24
  -5  -1  14   41.88    7.21
   5   0  -1 1411.61   44.07
  -5   0   1 1472.91   58.38
   5   0  -1  806.45   56.21
   5   0  -1 1403.63   43.43
   5   0  -2  520.22   22.05
   5   0  -2  544.87   26.93
  -5   0   2  455.04   38.77
  -5   0   2  487.44   18.12
   5   0  -3  335.25   25.34
   5   0  -3  283.43   11.98
  -5   0   3  300.80   11.87
  -5   0   3  278.11   27.44
  -5   0   3  305.51   12.38
  -5   0   3  305.88   13.25
   5   0  -3  311.98   12.27
  -5   0   4 1684.54   55.30
   5   0  -4 1703.23   56.51
   5   0  -4 1357.99   63.45
  -5   0   4 1334.60   57.22
  -5   0   5 1030.10   45.49
  -5   0   5 1303.01   42.14
   5   0  -5 1224.99   59.60
  -5   0   5  958.47   54.54
   5   0  -5  937.51   41.67
  -5   0   6    8.30    3.61
  -5   0   6    3.71    1.92
  -5   0   6    6.65    4.08
  -5   0   7  951.18   42.78
   5   0  -7  857.84   41.72
  -5   0   7 1057.82   49.59
   5   0  -8  708.39   30.30
  -5   0   8  902.90   30.38
  -5   0   8  932.99   39.62
  -5   0   8  754.81   40.27
  -5   0   8  751.63   32.17
  -5   0   9 1066.18   42.49
  -5   0  10  549.49   24.95
   5   0 -10  519.91   21.84
  -5   0  11   -3.00    3.74
  -5   0  12  663.82   37.24
  -5   0  13  838.50   49.45
  -5   0  14  107.18   11.47
  -5   0  15   25.49    9.91
  -5   1   0 1663.42   77.52
   5  -1   0 1694.21   70.43
  -5   1   0 1811.28   63.02
   5  -1   0 1673.18   58.01
  -5   1   1 1303.85   54.89
   5  -1  -1 1064.49   59.98
   5  -1  -1 1323.51   52.35
  -5   1   1 1333.80   58.22
  -5   1   2  262.65   10.56
   5  -1  -2  277.94   15.02
   5  -1  -2  238.51   13.40
   5  -1  -2  185.06   31.83
  -5   1   2  227.01   11.42
   5  -1  -2  256.48   11.07
  -5   1   3  653.91   28.60
  -5   1   3  777.11   37.25
   5  -1  -3  756.78   36.18
   5  -1  -3  507.68   58.61
   5  -1  -3  639.74   24.14
  -5   1   4 2295.64   81.60
  -5   1   4 2083.35   85.57
   5  -1  -4 2155.14   77.46
   5  -1  -4 2107.09   90.43
   5  -1  -4 2044.09   75.78
  -5   1   4 2060.37   92.44
   5  -1  -5 1961.54   80.20
   5  -1  -5 1715.40   67.05
  -5   1   5 1850.10   72.41
   5  -1  -5 1860.69   65.00
  -5   1   5 1960.99   73.70
  -5   1   5 1697.07   76.30
   5  -1  -6    9.09    3.54
  -5   1   6    4.04    3.28
  -5   1   6   27.04    4.95
   5  -1  -6    6.52    3.47
  -5   1   6   20.00    3.75
  -5   1   7 1212.40   52.17
   5  -1  -7 1026.96   54.33
   5  -1  -7 1001.60   85.01
  -5   1   7 1004.83   59.82
  -5   1   7 1081.80   53.40
   5  -1  -8  602.53   28.34
  -5   1   8  636.70   32.93
  -5   1   8  832.80   30.66
  -5   1   9  824.14   31.61
   5  -1  -9  801.15   36.74
  -5   1  10  270.58   14.28
  -5   1  11    6.69    6.83
  -5   1  12 1028.07   58.39
  -5   1  13  672.51   37.89
  -5   1  14   44.95    6.94
   5  -2   0 1445.88   79.69
   5  -2   0 1385.34   46.42
  -5   2   0 1456.41   55.72
   5  -2   0 1427.79   55.75
  -5   2   0 1441.20   65.14
  -5   2   1   57.35    5.33
   5  -2  -1   45.14    5.42
  -5   2   1   53.55    4.57
   5  -2  -1   64.08    5.18
   5  -2  -1   53.64    4.01
   5  -2  -1   57.84    4.05
   5  -2  -2   60.00    4.25
   5  -2  -2   66.31    4.57
  -5   2   2   64.75    4.31
  -5   2   2   54.34    4.51
   5  -2  -2   52.25    6.57
   5  -2  -2   59.87    5.04
  -5   2   3  411.09   16.38
   5  -2  -3  409.34   19.40
  -5   2   3  422.22   23.76
   5  -2  -3  407.30   17.29
   5  -2  -3  454.49   20.84
   5  -2  -4 4266.88  163.86
  -5   2   4 4367.25  162.10
   5  -2  -4 4510.42  187.77
   5  -2  -4 4176.60  155.76
  -5   2   4 4393.94  165.28
   5  -2  -5 4240.64  160.71
  -5   2   5 4396.34  161.06
   5  -2  -5 4332.96  158.79
  -5   2   5 4234.66  168.68
  -5   2   6  329.41   14.96
  -5   2   6  363.42   17.79
   5  -2  -6  360.56   14.50
   5  -2  -6  342.28   18.51
  -5   2   6  347.20   16.49
   5  -2  -6  339.43   16.98
   5  -2  -7  731.18   32.16
  -5   2   7  768.81   33.97
  -5   2   7  738.30   32.14
   5  -2  -7  709.31   30.08
   5  -2  -8  373.71   17.00
  -5   2   8  400.55   18.40
  -5   2   8  394.72   16.74
  -5   2   9  388.06   22.58
   5  -2  -9  380.39   17.44
  -5   2  10  394.98   18.97
  -5   2  11  140.72   13.45
  -5   2  13  530.93   28.86
  -5   2  14   52.96    9.23
   5  -3   0  615.99   45.34
   5  -3   0  632.71   25.80
  -5   3   0  644.13   26.31
   5  -3   0  613.86   20.78
   5  -3  -1 1143.22   44.58
  -5   3   1 1212.83   46.20
   5  -3  -1 1145.99   38.87
  -5   3   1 1120.20   57.22
   5  -3  -2  104.54   12.98
  -5   3   2   14.28    2.88
  -5   3   3 2041.60   78.93
  -5   3   3 1951.08   82.76
   5  -3  -3 1973.96   72.47
   5  -3  -3 2119.72   74.68
   5  -3  -3 1928.14   69.56
  -5   3   4 2836.66  107.67
   5  -3  -4 2778.65  105.50
   5  -3  -4 2900.61  113.27
   5  -3  -4 2704.64   97.11
  -5   3   4 2731.30  119.01
  -5   3   5  802.49   35.57
   5  -3  -5  791.35   29.93
  -5   3   5  804.84   33.68
   5  -3  -5  816.43   29.70
   5  -3  -5  783.80   34.04
   5  -3  -6   28.91    5.00
   5  -3  -6   21.46    3.67
   5  -3  -6   42.53    5.99
  -5   3   6   16.30    4.62
  -5   3   6    8.84    3.48
   5  -3  -7  351.10   23.84
  -5   3   7  336.33   40.90
   5  -3  -7  313.34   36.24
  -5   3   7  327.17   45.41
  -5   3   8 1951.67   89.64
  -5   3   8 1915.82   98.77
   5  -3  -9  418.77   18.93
  -5   3   9  408.32   20.85
   5  -3 -10   25.27    4.58
  -5   3  10   19.16    5.42
  -5   3  11  219.60   13.73
  -5   3  12  662.23   30.23
  -5   3  13  842.24   53.28
   5  -4   0  995.30   64.82
  -5   4   0 1104.80   41.54
   5  -4   0 1087.33   38.45
   5  -4   0 1104.08   52.85
   5  -4   0 1068.11   35.06
   5  -4  -1   73.02    6.49
  -5   4   1   69.64    5.42
   5  -4  -1   77.67    5.81
   5  -4  -1   74.15    7.08
   5  -4  -2   77.89    7.05
   5  -4  -2   74.86    5.63
   5  -4  -2   76.29    5.94
  -5   4   2   61.67    5.54
   5  -4  -3  260.81   11.59
   5  -4  -3  232.89   10.51
  -5   4   3  218.22   11.30
   5  -4  -3  222.67   11.57
  -5   4   4 3177.79  124.12
   5  -4  -4 3063.13  116.73
   5  -4  -4 3008.99  115.28
   5  -4  -4 3075.92  113.14
   5  -4  -5  827.70   35.35
   5  -4  -5  792.19   41.27
  -5   4   5  868.22   32.22
  -5   4   5  866.85   40.08
   5  -4  -5  860.99   34.11
   5  -4  -6   48.34    4.37
   5  -4  -6   38.76    4.73
   5  -4  -6   51.35    6.25
  -5   4   6   42.60    5.06
  -5   4   6   42.14    4.69
  -5   4   7 1405.35   65.58
   5  -4  -7 1373.22   54.26
  -5   4   7 1374.49   56.85
  -5   4   8 1185.43   54.62
   5  -4  -8 1140.75   45.38
  -5   4   9  222.43   14.48
   5  -4  -9  239.74   13.65
  -5   4  10   30.48    5.99
   5  -4 -10   28.94    5.29
  -5   4  11  131.27   10.21
  -5   4  12  586.12   29.73
  -5   4  13  789.74   45.81
  -5   5   0 1189.98   45.97
   5  -5   0 1214.14   66.71
   5  -5   0 1158.43   42.24
   5  -5   0 1172.39   48.08
   5  -5  -1   97.44    9.08
   5  -5  -1  100.57    6.69
  -5   5   1   94.52    7.70
   5  -5  -1   93.18    5.98
   5  -5  -2   91.63    8.94
  -5   5   2   82.00    6.24
   5  -5  -2   91.09    7.65
   5  -5  -2   72.72    5.97
   5  -5  -3  767.86   31.20
   5  -5  -3  699.12   47.65
  -5   5   3  779.25   31.73
   5  -5  -3  742.95   28.53
  -5   5   4 1988.66   99.57
   5  -5  -4 1973.39  108.34
   5  -5  -4 2013.83   76.01
   5  -5  -4 2083.23   80.42
  -5   5   4 2077.89   81.93
   5  -5  -5  489.43   35.05
  -5   5   5  534.50   26.46
   5  -5  -5  545.94   23.63
  -5   5   5  531.52   23.76
   5  -5  -5  537.84   22.96
   5  -5  -6   -0.27    4.37
  -5   5   6   -0.55    3.98
   5  -5  -6    2.61    3.71
  -5   5   6    2.93    3.20
  -5   5   7 1631.57   74.06
  -5   5   7 1595.27   67.60
   5  -5  -7 1623.61   65.43
   5  -5  -8  894.21   36.79
  -5   5   8  890.74   36.23
   5  -5  -9  124.55    9.40
  -5   5   9  124.15    7.87
   5  -5 -10    6.60    5.19
  -5   5  10    9.69    5.05
  -5   5  11   82.12    9.85
  -5   5  12  633.81   32.35
   5  -6   0 1127.05   46.43
  -5   6   0 1172.77   46.78
   5  -6   0 1158.74   41.85
   5  -6   0 1102.01   61.15
   5  -6  -1   23.33    5.60
  -5   6   1   25.16    4.79
   5  -6  -1   23.30    5.47
   5  -6  -1   30.49    5.06
  -5   6   2  203.63   14.13
   5  -6  -2  205.88   12.54
   5  -6  -2  105.97   15.57
   5  -6  -2  163.15   15.58
   5  -6  -3 1197.98   73.25
  -5   6   3 1168.63   41.89
   5  -6  -3 1160.49   44.40
   5  -6  -3 1271.86   56.59
  -5   6   4 1058.05   45.16
   5  -6  -4 1099.28   46.27
   5  -6  -4 1004.10   39.90
  -5   6   4 1088.91   42.40
   5  -6  -5  594.74   26.52
  -5   6   5  571.56   27.34
  -5   6   5  575.04   25.78
   5  -6  -5  591.58   27.27
  -5   6   6   45.65    5.71
  -5   6   6   75.83    9.11
   5  -6  -6   30.33    5.24
   5  -6  -6   40.30    8.77
   5  -6  -7 1452.64   60.38
   5  -6  -7 1449.60   73.37
  -5   6   7 1440.05   63.27
  -5   6   8  872.00   39.18
  -5   6   9  138.94   10.76
   5  -6  -9  125.22   12.02
   5  -6 -10   14.88    6.80
  -5   6  10   10.77    6.95
  -5   6  11  108.98   11.67
   5  -7   0  643.66   25.48
  -5   7   0  703.42   29.91
   5  -7   0  608.92   27.45
  -5   7   1   -0.40    4.54
   5  -7  -1   10.82    4.41
   5  -7  -1    4.00    4.00
   5  -7  -2  178.11   10.71
   5  -7  -2  152.71   11.05
  -5   7   2  173.57   10.98
   5  -7  -3  670.54   34.87
  -5   7   3  785.23   31.72
   5  -7  -3  705.46   30.21
  -5   7   4  782.15   33.02
   5  -7  -4  791.19   35.58
   5  -7  -4  797.53   34.69
  -5   7   4  778.80   32.80
   5  -7  -5  458.04   22.54
   5  -7  -5  462.79   19.34
  -5   7   5  465.88   23.22
   5  -7  -6  335.16   18.48
   5  -7  -6  362.39   18.22
  -5   7   6  378.85   19.19
  -5   7   7 1513.62   60.88
   5  -7  -7 1534.50   63.80
  -5   7   8  658.37   31.72
   5  -7  -8  675.95   33.84
  -5   7   9  140.03   12.97
   5  -7  -9  138.90   13.25
  -5   7  10   19.73    8.29
   5  -8   0  417.40   20.35
  -5   8   0  443.28   21.45
   5  -8   0  425.42   20.37
   5  -8  -1    5.63    6.03
   5  -8  -1   11.48    6.67
  -5   8   1    6.16    5.76
  -5   8   2  398.10   19.50
   5  -8  -2  362.16   18.83
   5  -8  -2  391.39   18.03
  -5   8   3  554.88   25.02
   5  -8  -3  559.30   25.42
   5  -8  -3  498.14   24.47
   5  -8  -4  646.39   26.89
   5  -8  -4  578.57   34.08
  -5   8   4  648.73   27.97
  -5   8   5  165.29   12.50
   5  -8  -5  152.81   11.81
  -5   8   6  321.46   21.97
   5  -8  -6  357.24   22.13
   5  -8  -7 1042.28   51.96
  -5   8   7 1019.41   54.87
  -5   8   8  478.31   29.76
  -5   8   9  109.57   16.16
   5  -9   0  408.38   22.95
  -5   9   0  461.67   22.70
   5  -9   0  375.16   28.39
   5  -9  -1    4.55    7.22
  -5   9   1   19.47    6.85
   5  -9  -1   10.20    7.25
   5  -9  -2  498.82   26.81
  -5   9   2  492.78   25.87
   5  -9  -3  647.29   32.90
  -5   9   3  619.50   31.27
  -5   9   4  319.24   20.57
   5  -9  -4  377.68   21.27
  -5   9   5   75.21   10.44
   5  -9  -5  100.05   11.40
  -5   9   6   36.91    9.85
  -5   9   7  410.87   30.42
  -5  10   0  289.04   20.25
  -5  10   1  179.96   15.07
  -5  10   2  414.87   30.05
  -5  10   3  268.53   21.91
  -5  10   4  386.70   31.60
  -5  10   5  139.62   16.49
  -4 -10   1  215.71   20.01
  -4 -10   2   18.61   11.08
  -4 -10   3  375.93   26.04
   4   9  -1  181.68   13.85
   4   9  -1  161.15   11.70
   4   9  -2   26.19    9.46
   4   9  -2   25.18    4.85
  -4  -9   3  848.45   37.41
  -4  -9   4 1402.10   58.32
  -4  -9   5  186.08   14.64
   4   8  -1  341.66   22.34
   4   8  -1  317.54   23.38
  -4  -8   2   32.51    6.31
   4   8  -3  681.68   44.70
   4   8  -3  779.47   33.63
   4   8  -4  956.86   41.17
   4   8  -4  909.33   37.51
   4   8  -5  207.99   12.26
   4   8  -5  192.96   10.89
  -4  -8   6   85.35    9.84
   4   7  -1  376.92   19.45
  -4  -7   1  350.65   15.40
   4   7  -1  309.66   17.42
  -4  -7   2   70.16    7.69
   4   7  -2   62.15    3.97
   4   7  -2   73.27    7.28
   4   7  -3  744.87   43.13
   4   7  -3  829.84   36.25
   4   7  -4 1510.84   64.21
   4   7  -4 1406.73   78.44
   4   7  -5   88.58    7.57
   4   7  -5   92.16    6.56
   4   7  -6  311.32   16.92
   4   7  -6  328.05   18.60
  -4  -7   7  746.90   35.97
  -4  -7   8  532.00   21.80
  -4  -7   9  573.91   32.90
  -4  -7  10   44.95    8.04
   4   7 -10   48.35    5.66
   4   7 -11  226.53   14.67
  -4  -7  11  208.18   17.19
   4   6  -1  166.60   12.72
   4   6  -1  148.83   22.69
  -4  -6   1  115.65   17.94
  -4  -6   1   82.21    4.44
   4   6  -2    3.28    4.78
   4   6  -2    3.47    1.11
  -4  -6   2    4.16    3.51
   4   6  -3 1054.02   49.36
  -4  -6   3 1276.41   51.75
   4   6  -3 1257.79   49.78
   4   6  -4 2205.92   97.54
   4   6  -4 2042.07   98.62
   4   6  -4 1808.64   88.58
   4   6  -5  200.96   19.40
   4   6  -5  194.72   15.20
  -4  -6   6  531.68   20.78
  -4  -6   7  867.25   36.39
  -4  -6   8  376.51   22.79
  -4  -6   9  240.07   22.17
   4   6  -9  277.89   16.97
  -4  -6  10   17.36    7.20
   4   6 -10   16.52    3.76
   4   6 -11  327.35   15.19
  -4  -6  11  256.61   16.95
  -4  -6  12  710.17   44.69
   4   6 -12  817.97   51.14
  -4  -6  13  246.74   16.07
  -4  -5   1   38.04    2.23
  -4  -5   1   45.46    4.43
   4   5  -1   46.61   11.79
   4   5  -1   38.03    4.72
   4   5  -1   43.71    2.36
  -4  -5   1   38.63    4.99
   4   5  -2  350.66   15.52
  -4  -5   2  344.90   14.95
  -4  -5   3  973.84   40.89
   4   5  -3  920.39   40.03
  -4  -5   4 1123.49   57.47
   4   5  -4 1028.51   44.30
  -4  -5   6  418.00   21.41
   4   5  -7 2039.52   94.64
  -4  -5   7 1491.19   60.53
  -4  -5   7 1611.10   89.73
  -4  -5   8  412.03   22.18
   4   5  -8  506.80   21.93
  -4  -5   9   28.55    3.87
  -4  -5  10   10.20    5.10
   4   5 -10    8.92    3.59
  -4  -5  11  310.96   18.01
   4   5 -11  372.40   18.28
   4   5 -12  953.52   46.94
  -4  -5  12  903.99   42.26
  -4  -5  13  395.57   26.18
   4   5 -13  412.27   25.66
   4   5 -14   51.26    7.70
  -4  -5  14   63.57    9.74
  -4  -4   1    9.82    4.10
   4   4  -1    7.39    3.29
  -4  -4   1    4.61    3.12
  -4  -4   1    3.14    3.01
  -4  -4   2   12.44    4.06
  -4  -4   2   12.17    2.88
  -4  -4   2    5.14    3.82
   4   4  -2   15.66    4.09
  -4  -4   3 2188.42  105.52
  -4  -4   3 2343.87   76.20
   4   4  -3 2322.24   94.07
  -4  -4   3 2337.33  109.35
  -4  -4   4 3666.25  132.33
   4   4  -4 3430.58  135.11
  -4  -4   5    8.60    3.50
  -4  -4   5   11.52    3.54
  -4  -4   5   26.89    4.44
  -4  -4   6 1899.21   89.43
   4   4  -6 1917.24  104.09
  -4  -4   6 1988.77   89.54
   4   4  -6 2185.21   86.74
   4   4  -7 1179.94   56.52
   4   4  -7  982.71   50.86
  -4  -4   7  930.70   61.38
  -4  -4   7  962.66   39.90
  -4  -4   7 1181.93   57.97
  -4  -4   7  903.72   40.84
  -4  -4   8  398.30   19.37
   4   4  -8  468.61   20.34
  -4  -4   8  454.05   20.20
  -4  -4   8  381.04   19.54
  -4  -4   9  259.89   14.32
   4   4  -9  330.59   14.05
  -4  -4  10   13.97    5.56
  -4  -4  11  504.72   26.50
   4   4 -11  591.85   24.75
  -4  -4  12 1064.19   47.58
   4   4 -12 1160.29   48.46
  -4  -4  13  298.76   17.84
   4   4 -13  287.56   16.64
   4   4 -14   84.70    9.08
  -4  -4  14   81.25   10.28
  -4  -3   1   20.28   16.70
  -4  -3   1   24.71   17.57
  -4  -3   1  121.43   10.32
   4   3  -1   33.98   18.15
  -4  -3   1   26.83    4.37
   4   3  -1   23.16    4.66
  -4  -3   2 1330.19   47.78
  -4  -3   2 1269.13   57.62
   4   3  -2 1308.06   50.74
  -4  -3   2 1292.76   43.12
  -4  -3   3 1954.68   83.25
  -4  -3   3 1992.28   79.62
   4   3  -3 1933.35   71.98
  -4  -3   3 1928.95   65.57
  -4  -3   4 2449.77  117.02
  -4  -3   4 2632.69  107.36
  -4  -3   4 2251.71  135.50
  -4  -3   5  154.38   26.22
  -4  -3   5  122.55   18.88
  -4  -3   5  144.10    7.63
  -4  -3   6  981.11   44.13
   4   3  -6 1227.69   62.31
   4   3  -6 1243.75   53.65
  -4  -3   6 1084.83   52.13
  -4  -3   6 1316.39   44.38
  -4  -3   7 1644.17   73.85
  -4  -3   7 1635.26   90.03
  -4  -3   7 1510.17   62.55
   4   3  -7 1702.84   81.85
  -4  -3   7 1874.82   96.21
   4   3  -8  592.26   31.87
   4   3  -8  712.33   42.54
  -4  -3   8  712.81   34.19
  -4  -3   8  613.46   45.92
  -4  -3   8  624.94   47.93
  -4  -3   8  625.13   41.14
  -4  -3   9    8.09    5.35
   4   3  -9   13.03    2.31
  -4  -3   9    7.90    3.40
  -4  -3   9   24.23    8.27
  -4  -3   9   12.34    5.15
   4   3 -10  221.79   10.71
  -4  -3  10  205.60   12.42
  -4  -3  11  545.70   24.39
   4   3 -11  566.64   26.75
  -4  -3  12 1251.17   49.50
  -4  -3  13  192.97   13.59
   4   3 -14   38.07    6.49
  -4  -3  14   44.49    8.77
   4   3 -15  485.00   31.63
  -4  -3  15  514.78   42.47
  -4  -2   1  227.02   22.02
  -4  -2   1  198.81   10.93
  -4  -2   1  183.82   14.35
   4   2  -1  231.95   19.81
   4   2  -1  176.41   26.57
  -4  -2   2 1732.54   82.81
   4   2  -2 1663.75   59.68
  -4  -2   2 1760.98   63.10
  -4  -2   2 1692.49   60.04
  -4  -2   3 2536.95   83.16
  -4  -2   3 2581.40   92.52
  -4  -2   3 2449.30  115.84
  -4  -2   4 2601.77   84.67
  -4  -2   4 2015.97   95.97
  -4  -2   4 2727.23   89.88
  -4  -2   5  391.42   34.49
  -4  -2   5  316.52   22.57
  -4  -2   6  941.29   36.47
  -4  -2   6  906.29   47.95
  -4  -2   6  794.94   34.35
   4   2  -6 1007.64   51.01
  -4  -2   6  935.09   41.72
   4   2  -6  929.22   45.25
  -4  -2   7 1696.40   79.39
   4   2  -7   89.46   19.15
  -4  -2   7 1494.20   57.96
   4   2  -8  865.42   43.54
  -4  -2   8  845.69   42.46
  -4  -2   8  884.59   46.03
  -4  -2   8  932.94   48.49
   4   2  -8  946.51   55.25
  -4  -2   8  848.52   32.99
  -4  -2   9  250.98   14.85
  -4  -2   9  257.02   15.30
  -4  -2   9  250.94   16.22
   4   2  -9  252.55   15.47
   4   2  -9  261.51   20.77
  -4  -2   9  258.75   17.02
   4   2 -10  239.34   13.22
  -4  -2  10  229.80   16.80
  -4  -2  10  230.78   13.67
  -4  -2  10  221.72   14.07
  -4  -2  11  542.42   36.90
  -4  -2  11  619.07   28.66
   4   2 -11  575.65   29.27
  -4  -2  12 1186.66   57.27
   4   2 -12 1112.64   56.78
   4   2 -13  548.21   30.77
  -4  -2  13  520.61   27.46
  -4  -2  14  271.20   19.95
   4   2 -15  869.52   48.16
  -4  -2  15  853.47   66.58
  -4  -2  16  256.72   23.94
  -4  -1   1  340.05   47.96
  -4  -1   1  396.82   18.53
   4   1  -1  375.78   19.98
   4   1  -1  439.03   17.22
  -4  -1   1  430.81   30.76
  -4  -1   1  402.79   26.92
  -4  -1   2 1380.12   56.28
   4   1  -2 1306.71   49.21
  -4  -1   2 1385.26   65.83
  -4  -1   3 1985.90   87.92
  -4  -1   3 2054.01   78.10
  -4  -1   3 1978.13   67.43
   4   1  -3 1998.03   72.18
  -4  -1   4 2265.42   82.88
  -4  -1   4 1634.42   84.96
  -4  -1   4 1776.34   87.65
  -4  -1   4 2216.12   93.69
  -4  -1   4 2189.10   77.17
  -4  -1   5  311.77  121.37
  -4  -1   5  255.90  101.76
  -4  -1   5  449.16   75.94
  -4  -1   5  438.37  119.63
   4   1  -5  444.84   64.38
   4   1  -5  381.23   44.16
  -4  -1   5  284.31   78.66
  -4  -1   6 1423.50   57.18
   4   1  -6  181.37   37.65
  -4  -1   6 1183.82   54.72
  -4  -1   6 1459.04   54.60
  -4  -1   6 1525.15   49.39
   4   1  -7 3487.03  141.24
  -4  -1   7 2979.66  155.20
  -4  -1   7 2857.68  124.18
  -4  -1   7 3416.60  135.75
  -4  -1   7 3823.69  118.66
  -4  -1   8  835.76   36.10
  -4  -1   8  879.68   37.31
   4   1  -8  848.67   33.26
  -4  -1   8  940.04   50.71
   4   1  -8  936.35   40.60
  -4  -1   8  821.90   35.87
   4   1  -9  135.59   10.80
   4   1  -9  134.42   10.30
  -4  -1   9   95.39    9.08
  -4  -1   9  105.60   12.25
  -4  -1   9   99.62   13.01
  -4  -1   9   80.83    8.03
  -4  -1  10  141.79   13.54
  -4  -1  10  134.79   16.87
   4   1 -10  182.38   12.95
  -4  -1  10  136.31   14.45
  -4  -1  11  792.34   31.51
  -4  -1  11  759.96   33.76
   4   1 -11  769.06   32.14
   4   1 -12  719.92   38.92
  -4  -1  12  647.51   30.74
  -4  -1  13  234.94   20.10
   4   1 -13  299.55   26.14
  -4  -1  14  328.58   17.95
   4   1 -14  303.28   23.14
  -4  -1  15  748.34   55.22
  -4   0   1 1178.38   51.48
  -4   0   1 1486.95   73.65
   4   0  -1 1375.94   46.88
   4   0  -1 1415.13   52.69
   4   0  -2  985.00  102.56
   4   0  -2 2069.71   66.50
  -4   0   2 1702.69   86.16
   4   0  -2 2073.33   70.35
  -4   0   2 2219.14  101.21
  -4   0   2 2108.79   68.44
  -4   0   3  624.57   32.72
  -4   0   3  791.63   27.14
  -4   0   3  826.46   27.47
  -4   0   3  858.40   39.26
  -4   0   4  720.78   46.95
  -4   0   4  921.44   34.84
   4   0  -4 1173.08   55.11
  -4   0   4 1059.92  121.51
  -4   0   5   67.59    9.48
  -4   0   5   60.45   15.80
  -4   0   5   60.73    4.75
  -4   0   5   62.71    3.41
   4   0  -5   56.72    3.02
  -4   0   5   70.89   11.61
  -4   0   5   52.36    3.45
  -4   0   6 2155.81   73.36
  -4   0   6 1748.28   77.39
  -4   0   6 1739.80   92.78
   4   0  -6 1711.73   77.86
  -4   0   6 2207.00   72.40
  -4   0   7 5727.37  232.52
   4   0  -7 5403.01  225.50
  -4   0   7 5822.34  239.30
  -4   0   7 6820.82  229.46
  -4   0   8  417.44   27.44
  -4   0   8  465.01   18.36
  -4   0   8  436.46   19.15
   4   0  -8  435.26   28.90
  -4   0   8  468.47   20.31
   4   0  -8  479.49   20.41
  -4   0   9   10.53    9.04
   4   0  -9   20.71    3.99
  -4   0   9   10.06    4.14
  -4   0  10  180.17   11.39
   4   0 -10  192.53   20.82
   4   0 -10  183.77   13.23
  -4   0  10  178.86   11.34
   4   0 -11  324.58   15.93
  -4   0  11  377.06   17.39
   4   0 -12  591.98   31.08
  -4   0  12  622.36   34.74
  -4   0  13  116.52   19.16
  -4   0  14  460.66   26.88
  -4   0  15  932.51   50.93
   4  -1   0  221.12    8.54
  -4   1   0  214.67   12.05
   4  -1   0  156.87   10.82
  -4   1   0  224.73    9.59
   4  -1   0  219.98    7.57
  -4   1   0  218.64    8.22
   4  -1  -1 2078.63   93.45
   4  -1  -1 1999.34   70.61
  -4   1   1 2104.97   78.72
   4  -1  -1 1976.76   70.38
  -4   1   1 2076.59   74.52
  -4   1   1 2081.69  103.39
   4  -1  -2 1263.58   43.87
  -4   1   2 1163.84   51.35
  -4   1   2 1289.53   50.68
  -4   1   2 1327.32   59.99
   4  -1  -2 1260.13   42.38
  -4   1   2 1359.17   50.38
  -4   1   3 1356.03   52.58
   4  -1  -3 1376.44   54.37
   4  -1  -3 1273.58   44.89
  -4   1   3 1343.86   47.84
   4  -1  -3 1269.90   46.94
  -4   1   3 1212.00   52.43
   4  -1  -4  493.52   19.00
  -4   1   4  528.23   20.54
  -4   1   4  527.78   20.33
   4  -1  -4  502.07   18.84
   4  -1  -4  553.67   19.46
  -4   1   4  505.06   22.92
  -4   1   4  528.16   21.39
  -4   1   5   31.57    4.22
  -4   1   5   37.26    3.69
   4  -1  -5   24.60    2.02
   4  -1  -5   38.05    3.97
   4  -1  -5   30.76    3.01
  -4   1   5   27.57    2.29
   4  -1  -5   19.10    4.54
  -4   1   6 2906.40  103.22
  -4   1   6 3071.30  108.31
   4  -1  -6 3008.91  124.80
  -4   1   6 2719.66  132.60
  -4   1   6 2962.30  105.54
   4  -1  -6 2566.77  105.25
   4  -1  -7 5109.68  212.55
   4  -1  -7 4589.81  202.88
  -4   1   7 5607.79  193.36
  -4   1   7 4853.39  204.09
  -4   1   8   61.84    5.63
   4  -1  -8   80.54    5.60
   4  -1  -8   75.44    5.21
  -4   1   8   75.60    5.83
  -4   1   8   65.82    5.34
   4  -1  -9  149.39    8.10
  -4   1   9  152.39   11.84
  -4   1   9  141.64    9.09
   4  -1  -9  166.55    9.12
   4  -1 -10  457.92   20.46
  -4   1  10  453.23   24.29
   4  -1 -10  519.96   27.19
  -4   1  11  408.83   19.63
   4  -1 -11  367.70   18.33
  -4   1  12  904.24   45.10
   4  -1 -12  867.53   38.85
  -4   1  13   51.47    6.97
  -4   1  14  481.64   27.45
  -4   1  15  673.53   38.93
   4  -2   0    7.67    2.38
   4  -2   0    7.22    2.23
   4  -2   0    6.24    2.92
  -4   2   0    2.36    2.49
  -4   2   0    0.42    8.47
   4  -2   0    6.55    2.62
  -4   2   0    6.61    2.38
   4  -2  -1 1399.21   44.02
  -4   2   1 1469.60   51.71
   4  -2  -1 1252.31   65.46
  -4   2   1 1549.60   55.89
   4  -2  -1 1561.23   55.26
   4  -2  -2  866.06   46.07
   4  -2  -2 1046.77   32.61
   4  -2  -2 1092.65   39.56
  -4   2   2 1044.70   39.00
  -4   2   2 1084.74   38.31
  -4   2   3 3329.68  118.49
   4  -2  -3 3491.29  131.69
   4  -2  -3 3304.04  116.30
  -4   2   3 3313.73  128.63
  -4   2   3 3379.36  120.53
   4  -2  -3 3143.74  111.10
   4  -2  -4  740.59   27.42
  -4   2   4  713.74   27.15
  -4   2   4  751.91   27.25
  -4   2   4  845.69   99.75
   4  -2  -4  728.30   26.69
   4  -2  -4  704.70   26.04
  -4   2   4  729.59   27.03
   4  -2  -5   93.44    5.38
   4  -2  -5   61.21    7.02
   4  -2  -5   91.25    5.75
  -4   2   5  120.11   20.35
  -4   2   5  105.38    6.48
  -4   2   5   93.66    5.88
  -4   2   5   86.48    5.13
  -4   2   6 3216.82  105.03
  -4   2   6 3133.26  127.79
  -4   2   6 3311.81  122.51
   4  -2  -6 3245.90  123.30
   4  -2  -6 3070.20  128.16
  -4   2   6 3245.47  135.46
   4  -2  -7  732.37   33.01
  -4   2   7  780.36   31.38
   4  -2  -7  797.14   28.54
  -4   2   7  789.90   31.96
  -4   2   7  741.76   32.36
  -4   2   7  832.18   30.43
  -4   2   8  206.71   20.79
  -4   2   8  212.04   15.63
   4  -2  -8  206.88    9.87
   4  -2  -8  210.92   14.40
  -4   2   9   31.55    5.10
   4  -2  -9   38.99    4.69
   4  -2  -9   37.88    6.06
  -4   2   9   46.39   14.20
  -4   2  10 1676.87  159.48
   4  -2 -10 1720.74  107.39
   4  -2 -10 1646.32   69.17
  -4   2  10 1663.49   74.28
   4  -2 -11 1287.35   52.80
  -4   2  11 1294.69   60.40
  -4   2  12  234.03   14.57
   4  -2 -12  218.52   12.47
  -4   2  13   -6.00    5.86
   4  -2 -13   -2.09    3.91
  -4   2  14   53.72    9.35
   4  -3   0  211.54  123.84
  -4   3   0  182.48   17.28
   4  -3   0  129.98   12.92
   4  -3   0   71.01    7.17
   4  -3  -1 2696.40  153.35
  -4   3   1 2879.61  114.51
   4  -3  -1 2867.66  109.73
   4  -3  -1 2967.92   92.68
  -4   3   1 3083.16  104.74
  -4   3   2 4525.09  159.34
   4  -3  -2 4058.16  226.12
   4  -3  -2 4479.71  161.83
  -4   3   2 4664.53  165.85
   4  -3  -2 4637.10  158.05
   4  -3  -2 4450.38  140.66
  -4   3   3 1210.69   42.93
   4  -3  -3 1184.90   44.22
   4  -3  -3 1011.47  105.01
  -4   3   3 1111.68   55.10
   4  -3  -3 1104.77   66.65
   4  -3  -4  188.11   59.47
   4  -3  -4  162.46   17.91
   4  -3  -4  305.84   23.13
   4  -3  -4  167.66   12.54
  -4   3   4  211.78   15.07
  -4   3   4  328.76   13.88
  -4   3   4  331.65   17.31
  -4   3   5   35.85    4.09
  -4   3   5   88.41    6.44
   4  -3  -5   45.80   11.88
   4  -3  -5   63.61   14.04
   4  -3  -5   67.92   11.12
  -4   3   6 2071.15   79.08
   4  -3  -6 2124.33   79.20
   4  -3  -6 2013.64   77.05
   4  -3  -6 2138.90   77.29
  -4   3   6 2054.03   74.97
  -4   3   6 2123.95   77.66
  -4   3   6 1954.85   82.95
   4  -3  -7 2951.74  115.32
  -4   3   7 2861.21  132.30
   4  -3  -7 2949.85  103.46
  -4   3   7 3207.70  122.06
  -4   3   7 3130.06  114.86
  -4   3   8  442.07   19.20
   4  -3  -8  497.25   40.32
  -4   3   8  509.30   25.04
   4  -3  -8  449.93   19.60
   4  -3  -9 1161.72   57.66
  -4   3   9 1196.73   52.38
  -4   3   9 1159.11  113.48
   4  -3  -9 1212.53   65.49
  -4   3  10 1081.76   50.78
   4  -3 -10 1117.48   76.07
  -4   3  10 1009.08  104.51
   4  -3 -10 1041.45   44.20
   4  -3 -11  229.17   13.16
  -4   3  11  225.73   12.75
   4  -3 -12  507.23   27.52
  -4   3  12  503.91   22.86
   4  -3 -13   44.96    8.03
  -4   3  13   54.37    8.17
  -4   3  14  253.60   17.79
   4  -4   0  510.17   33.90
  -4   4   0  576.32   29.54
   4  -4   0  524.33   30.19
   4  -4   0  487.26   23.04
  -4   4   0  494.89   29.98
  -4   4   1 2833.85   94.46
   4  -4  -1 2971.55  114.00
  -4   4   1 2785.03  106.52
   4  -4  -1 2770.08   95.34
   4  -4  -1 2755.15   97.35
  -4   4   2 3486.49  125.62
   4  -4  -2 3471.82  120.69
   4  -4  -2 3333.95  115.99
   4  -4  -2 3486.25  124.70
  -4   4   2 3378.32  123.10
   4  -4  -3  957.17   37.71
   4  -4  -3  940.20   35.93
  -4   4   3  968.03   47.51
  -4   4   3 1008.49   36.49
   4  -4  -3 1023.72   50.23
   4  -4  -3 1034.91   34.39
   4  -4  -4  395.33   17.66
  -4   4   4  346.54   23.65
   4  -4  -4  395.36   18.10
  -4   4   4  423.30   17.56
  -4   4   4  385.27   19.73
   4  -4  -4  404.05   18.74
   4  -4  -5  624.05   23.31
  -4   4   5  638.82   24.92
   4  -4  -5  620.32   22.57
  -4   4   5  632.67   24.92
   4  -4  -5  635.07   26.35
   4  -4  -6 1806.03   70.14
   4  -4  -6 1861.22   67.54
  -4   4   6 1906.08   86.55
  -4   4   6 1899.11   75.64
   4  -4  -6 2036.93   68.12
   4  -4  -7 1696.25   63.54
   4  -4  -7 1664.72   83.95
  -4   4   7 1732.94   69.39
   4  -4  -8  654.53   45.28
   4  -4  -8  690.80   29.94
  -4   4   8  550.56   64.21
  -4   4   8  688.82   43.34
  -4   4   9  459.26   54.09
  -4   4   9  610.80   27.14
   4  -4  -9  541.64   35.68
   4  -4  -9  568.36   26.84
   4  -4 -10 1100.67   44.39
  -4   4  10 1127.67   47.69
   4  -4 -11  430.72   20.87
  -4   4  11  421.72   23.48
   4  -4 -12  125.09   10.68
  -4   4  12   97.83   11.64
   4  -4 -13   49.45    8.73
  -4   4  13   38.51   11.22
   4  -5   0  101.84   25.60
  -4   5   0   38.76    4.15
   4  -5   0   44.84    4.57
   4  -5   0   46.77    4.81
   4  -5  -1 2208.27   87.45
   4  -5  -1 2234.76   76.69
  -4   5   1 2303.44   78.58
   4  -5  -1 2221.81   78.30
   4  -5  -2 2057.68   70.25
   4  -5  -2 1998.59   77.16
   4  -5  -2 2015.19   72.23
  -4   5   2 2084.33   73.28
   4  -5  -3  547.42   23.10
  -4   5   3  612.65   23.93
   4  -5  -3  533.06   22.73
   4  -5  -3  459.57   20.14
   4  -5  -4    5.13    2.29
   4  -5  -4    8.97    3.21
  -4   5   4   19.13    5.67
   4  -5  -4    1.24    2.98
  -4   5   4   12.18    3.48
   4  -5  -5  420.71   17.54
   4  -5  -5  464.49   19.87
  -4   5   5  416.42   16.63
  -4   5   5  430.89   18.49
   4  -5  -5  444.11   20.46
  -4   5   6 1389.28   58.24
  -4   5   6 1384.10   56.23
   4  -5  -6 1404.11   53.78
   4  -5  -6 1324.57   69.63
   4  -5  -6 1451.99   55.92
  -4   5   7 1972.97   84.04
   4  -5  -7 1823.18  107.37
   4  -5  -7 1879.93   73.62
   4  -5  -8  199.15   25.79
  -4   5   8  236.74   22.58
   4  -5  -8  260.70   15.41
  -4   5   9 1077.60   48.52
   4  -5  -9 1035.52   44.76
   4  -5 -10  883.73   40.66
  -4   5  10  912.38   38.75
   4  -5 -11  490.88   24.57
  -4   5  11  448.77   22.04
   4  -5 -12   84.03   11.74
  -4   5  12   56.66   12.57
  -4   5  13    7.96   10.19
   4  -5 -13   17.32    9.64
  -4   6   0   27.20    5.49
   4  -6   0   20.10    5.36
   4  -6   0    0.26   11.26
   4  -6   0   11.27    5.44
   4  -6  -1 1999.21   72.71
   4  -6  -1 1849.29  110.20
   4  -6  -1 1975.34   68.72
  -4   6   1 1985.49   70.31
   4  -6  -2 1467.07   90.29
   4  -6  -2 1533.61   55.97
   4  -6  -2 1489.59   55.16
  -4   6   2 1532.94   54.40
   4  -6  -3  199.41   12.07
   4  -6  -3  190.43   11.36
  -4   6   3  189.48   11.10
   4  -6  -3  198.14    9.77
   4  -6  -4   74.70    5.44
   4  -6  -4   72.80    5.92
  -4   6   4   75.70    5.15
   4  -6  -4   66.19    6.22
  -4   6   4   80.87    6.19
   4  -6  -5  299.56   14.72
   4  -6  -5  307.14   13.55
  -4   6   5  293.20   14.99
   4  -6  -5  267.94   16.65
  -4   6   6 1378.97   51.47
   4  -6  -6 1375.73   56.48
   4  -6  -6 1355.85   51.46
  -4   6   7 1827.75   73.68
   4  -6  -7 1806.42   73.68
  -4   6   8   34.43    7.81
   4  -6  -8   26.35    7.25
  -4   6   9  953.14   45.45
   4  -6  -9  924.14   42.92
  -4   6  10  707.84   36.39
   4  -6 -10  678.35   34.41
   4  -6 -11  351.26   19.01
  -4   6  11  350.18   22.10
  -4   6  12   14.11   10.44
   4  -6 -12   28.23   10.87
  -4   6  13    5.08   11.86
   4  -7   0  237.52   11.49
  -4   7   0  267.94   12.93
   4  -7   0  273.29   12.26
  -4   7   1 1108.10   42.85
   4  -7  -1 1022.11   38.30
   4  -7  -1 1097.93   41.64
  -4   7   2 1667.59   60.97
   4  -7  -2 1673.01   60.03
   4  -7  -2 1645.19   59.24
   4  -7  -3  474.66   20.98
  -4   7   3  502.62   22.72
   4  -7  -3  380.94   19.70
   4  -7  -4   92.96    7.56
  -4   7   4   95.60    5.52
  -4   7   4   95.93    7.96
   4  -7  -4   87.08    6.96
   4  -7  -5  869.20   35.51
  -4   7   5  878.87   35.91
   4  -7  -5  811.93   33.70
   4  -7  -6  995.98   41.45
  -4   7   6 1000.71   39.41
   4  -7  -6 1007.28   36.76
   4  -7  -7 1014.03   40.69
  -4   7   7  970.54   39.69
   4  -7  -8   32.80    6.17
  -4   7   8   13.45    5.75
  -4   7   9  240.88   15.17
   4  -7  -9  238.09   14.33
  -4   7  10  997.74   51.75
   4  -7 -10 1003.85   50.20
  -4   7  11  173.67   18.68
  -4   7  12   10.13   11.70
  -4   8   0  107.65    7.94
   4  -8   0  115.03    9.02
   4  -8   0  114.92   23.85
  -4   8   1 1862.68   68.92
   4  -8  -1 1884.13   64.81
   4  -8  -1 1768.05   71.48
   4  -8  -2 2131.37   85.09
   4  -8  -2 2173.25   94.96
  -4   8   2 2133.58   80.70
  -4   8   3   53.51    6.98
   4  -8  -3   52.71    7.11
   4  -8  -3   39.99    6.49
  -4   8   4  248.98   14.22
   4  -8  -4  236.97   14.49
   4  -8  -4  202.23   12.21
  -4   8   5  375.23   19.72
   4  -8  -5  373.75   21.89
  -4   8   6  724.25   31.51
   4  -8  -6  735.51   31.12
  -4   8   7  765.92   32.89
   4  -8  -7  764.91   33.17
  -4   8   8   55.68   12.66
   4  -8  -8   59.21   13.51
   4  -8  -9  410.46   23.69
  -4   8   9  424.16   23.84
  -4   8  10  954.49   72.38
  -4   8  11  144.69   16.10
   4  -9   0  187.13   13.87
  -4   9   0  190.08   14.41
   4  -9   0  157.36   11.71
  -4   9   1 1421.10   53.62
   4  -9  -1 1405.49   58.58
   4  -9  -1 1438.69   57.09
  -4   9   2 1098.79   45.74
   4  -9  -2 1128.47   48.39
   4  -9  -2 1095.10   44.01
   4  -9  -3   88.11    8.60
  -4   9   3   92.81    9.95
  -4   9   4  254.83   15.45
   4  -9  -4  260.94   15.73
  -4   9   5  316.76   20.52
   4  -9  -5  293.74   17.52
   4  -9  -6  483.98   24.13
  -4   9   6  482.36   23.44
  -4   9   7  313.03   20.15
   4  -9  -7  325.48   21.27
  -4   9   8   59.56   13.52
  -4   9   9  885.44   52.21
   4 -10   0   87.75   17.11
   4 -10   0  156.42   15.20
  -4  10   0  155.75   12.12
   4 -10  -1 1432.93   72.73
  -4  10   1 1501.86   65.55
   4 -10  -2  571.06   27.96
  -4  10   2  586.18   27.43
  -4  10   3   21.10    7.39
   4 -10  -3   11.69    6.85
  -4  10   4  101.96   11.23
   4 -10  -4  122.39   11.37
  -4  10   5  278.24   21.59
  -4  10   6  346.31   23.77
  -4  10   7   79.67   12.96
   3  11  -1  271.64   21.25
   3  11  -1  300.10   20.28
   3  11  -2   72.33    8.49
   3  11  -2   77.35   11.98
  -3 -11   3  183.15   14.71
   3  10  -1  244.37   13.43
   3  10  -1  233.73   17.16
   3  10  -2  203.51   14.63
   3  10  -2  205.28   12.01
   3  10  -3  637.05   36.62
   3  10  -3  593.20   30.29
   3  10  -4  161.14   14.03
   3  10  -4  179.70   12.18
  -3 -10   5  106.26    9.86
  -3 -10   6  751.97   40.44
  -3 -10   7  358.85   20.89
   3   9  -1  291.16   16.16
   3   9  -1  233.95   20.48
   3   9  -2  355.89   18.99
   3   9  -2  357.03   16.82
   3   9  -3  813.09   45.67
   3   9  -3  809.17   39.11
   3   9  -4   80.87    7.02
   3   9  -4   92.37    6.45
   3   9  -5  125.67   10.48
   3   9  -5  122.64    7.65
  -3  -9   6  995.28   45.55
  -3  -9   7  388.51   20.07
  -3  -9   8    2.68    5.36
  -3  -9   9  245.02   17.29
  -3  -9  10  336.94   24.03
   3   8  -1  580.84   24.62
   3   8  -1  576.50   26.10
   3   8  -2  847.35   34.50
   3   8  -2  826.29   39.45
   3   8  -3  479.40   18.48
   3   8  -3  441.55   22.69
   3   8  -4  210.15    9.67
   3   8  -4  203.85   11.73
   3   8  -5  275.16   12.08
   3   8  -5  264.51   15.02
   3   8  -6 1775.99   63.56
   3   8  -6 1770.85   68.40
   3   8  -7  844.20   33.03
   3   8  -7  789.64   46.37
  -3  -8   8    2.43    3.24
  -3  -8   9  212.66   13.12
  -3  -8  10  165.01   10.03
  -3  -8  11  286.71   19.00
  -3  -8  12  198.01   15.55
  -3  -7   1  954.96   54.97
   3   7  -1  938.36   36.68
   3   7  -1  945.56   44.96
  -3  -7   1  996.65   43.16
  -3  -7   1  976.93   53.25
   3   7  -2 1575.81   69.73
  -3  -7   2 1533.94   84.24
  -3  -7   2 1651.06   64.66
  -3  -7   2 1603.88   63.97
   3   7  -2 1574.67   56.48
  -3  -7   3  198.12    9.76
   3   7  -3  194.89    8.10
   3   7  -3  186.52   10.71
  -3  -7   3  178.34   11.41
   3   7  -4   89.32    5.39
   3   7  -4   84.30    6.16
  -3  -7   4   84.45    5.51
   3   7  -5  459.61   21.54
  -3  -7   5  415.56   24.27
   3   7  -5  457.90   17.85
  -3  -7   5  458.50   19.00
   3   7  -6 1823.20   83.96
   3   7  -6 1910.05   69.25
  -3  -7   7 1325.69   50.68
  -3  -7   8    4.33    2.84
  -3  -7   9  501.12   22.05
  -3  -7  10  266.08   14.89
  -3  -7  11  233.01   13.79
   3   7 -12  113.60   10.47
  -3  -7  12  109.10   11.81
  -3  -7  13   41.86    7.86
   3   7 -13   46.38    8.96
   3   6  -1 1737.80   70.07
  -3  -6   1 1872.76   80.39
   3   6  -1 1908.54   63.16
  -3  -6   1 1714.69   62.50
   3   6  -1 1697.01   79.34
  -3  -6   1 1876.00   90.86
   3   6  -2 1236.96   45.23
  -3  -6   2 1227.33   45.53
   3   6  -2 1109.09   67.43
  -3  -6   2 1177.33   50.62
  -3  -6   2 1115.49   49.99
   3   6  -2 1134.09   46.11
  -3  -6   2 1121.46   55.78
   3   6  -3  103.24    4.61
   3   6  -3   92.11    5.92
   3   6  -3   95.72    5.41
  -3  -6   3   83.76    4.98
  -3  -6   3   83.23    7.69
  -3  -6   3   84.91    5.01
   3   6  -4   35.58    6.90
  -3  -6   4   34.97    4.34
   3   6  -4   38.04    4.09
   3   6  -4   34.11    3.49
  -3  -6   5  839.57   39.10
   3   6  -5  845.54   52.12
  -3  -6   5  873.73   47.84
   3   6  -5  629.92   31.89
   3   6  -5  759.53   35.66
   3   6  -6 1660.43   83.90
   3   6  -6 1739.23   62.29
   3   6  -6 1747.98   78.29
  -3  -6   6 1654.38   69.30
   3   6  -7 1740.99   67.51
  -3  -6   7 1541.40   60.36
  -3  -6   7 1694.65   69.22
   3   6  -8    6.33    3.23
  -3  -6   8    8.09    3.64
  -3  -6   9 1271.99   49.50
  -3  -6  10  722.56   32.38
  -3  -6  11  242.52   16.91
   3   6 -11  276.03   15.67
   3   6 -12   45.44    4.85
  -3  -6  12   37.28    9.53
   3   6 -13   14.96    7.28
  -3  -6  13   19.86    7.40
  -3  -6  14  558.08   39.32
  -3  -5   1 4145.12  143.95
  -3  -5   1 4409.53  190.78
   3   5  -1 4137.94  189.24
   3   5  -1 4149.72  166.36
   3   5  -1 3958.42  152.91
   3   5  -2  427.07   25.16
  -3  -5   2  407.84   32.60
  -3  -5   2  433.73   27.60
  -3  -5   2  420.59   43.17
   3   5  -2   75.90    9.45
   3   5  -2  430.49   28.88
  -3  -5   2  373.54   37.77
  -3  -5   3   83.50    5.10
  -3  -5   3   76.04    8.46
   3   5  -3   88.20    6.00
  -3  -5   3   70.45    6.37
   3   5  -3   -0.13    1.72
   3   5  -3   88.54    5.35
  -3  -5   3   81.22    6.43
  -3  -5   4  307.24   16.20
   3   5  -4  327.69   13.43
   3   5  -4  130.31   13.27
   3   5  -4  309.37   13.21
  -3  -5   4  309.46   17.59
  -3  -5   4  312.81   13.72
  -3  -5   5 1234.74   57.74
   3   5  -5 1287.52   47.92
   3   5  -5 1305.14   51.35
  -3  -5   5 1373.82   63.32
   3   5  -5 1252.50   53.24
  -3  -5   6 5210.37  246.73
  -3  -5   6 4628.40  222.93
   3   5  -6 5157.63  182.07
   3   5  -7 1154.11   38.71
  -3  -5   7 1159.53   47.86
   3   5  -7  945.34   46.88
   3   5  -8  833.03   33.33
  -3  -5   8  833.22   34.26
  -3  -5   9  463.81   23.01
   3   5  -9  472.94   19.72
  -3  -5   9  459.58   23.41
  -3  -5  10  404.13   22.26
  -3  -5  10  365.50   20.02
   3   5 -10  391.10   17.62
   3   5 -11  782.11   33.09
  -3  -5  11  715.91   32.33
   3   5 -12   84.26    7.44
  -3  -5  12  101.76   10.49
   3   5 -13  242.06   14.07
  -3  -5  13  231.39   17.41
   3   5 -14  831.76   51.25
  -3  -5  14  852.56   46.27
  -3  -5  15  245.07   24.93
   3   5 -15  270.72   19.46
  -3  -4   1 3520.08  184.25
   3   4  -1 2146.37  169.25
  -3  -4   1 3858.03  143.01
  -3  -4   1 3945.51  138.62
  -3  -4   1 3569.40  119.51
   3   4  -1 3910.34  151.32
  -3  -4   2 2258.08   86.19
   3   4  -2 2222.25   90.32
   3   4  -2 2025.34   78.03
  -3  -4   2 2087.19   92.66
  -3  -4   2 2227.29   88.44
  -3  -4   2 2058.34   73.11
   3   4  -2 2445.41  145.30
  -3  -4   3  955.64   67.38
   3   4  -3  696.82   29.08
  -3  -4   3  791.26   30.40
  -3  -4   3  843.99   64.45
   3   4  -3  751.83   27.33
  -3  -4   3  870.88   48.44
  -3  -4   3  708.66   28.85
   3   4  -3  815.01   31.80
  -3  -4   4  392.70   17.59
   3   4  -4  378.06   16.14
  -3  -4   4  362.36   17.05
  -3  -4   4  389.44   15.23
  -3  -4   4  391.32   14.83
   3   4  -5 1270.41   31.81
   3   4  -5 1294.64   41.04
  -3  -4   5 1268.20   67.46
  -3  -4   5 1028.88   61.48
   3   4  -5    0.87    2.02
  -3  -4   5 1130.44   57.24
   3   4  -6 1542.28   89.55
  -3  -4   6 1698.91   63.37
  -3  -4   6 1586.10   69.01
   3   4  -6 1657.98   65.49
  -3  -4   6 1415.32   82.88
  -3  -4   6 1477.75  102.18
   3   4  -6 1698.88   61.52
  -3  -4   7 1247.68   50.13
  -3  -4   7 1177.84   51.12
   3   4  -7 1426.80   54.18
  -3  -4   7 1475.90   58.40
  -3  -4   8   19.24    4.42
   3   4  -8   19.42    2.88
  -3  -4   8   17.71    3.04
  -3  -4   8   10.81    2.96
  -3  -4   8   13.24    2.59
   3   4  -9 1139.29   43.76
  -3  -4   9 1068.25   50.83
  -3  -4   9 1131.04   47.62
   3   4  -9 1104.61   42.73
  -3  -4   9 1067.52   48.73
  -3  -4   9 1193.59   44.32
   3   4 -10 2134.27   87.32
  -3  -4  10 1921.59   91.46
  -3  -4  11    8.60    9.69
   3   4 -11   13.79   12.16
  -3  -4  11    3.62    8.35
   3   4 -12    2.34    3.16
  -3  -4  12    1.38    5.64
  -3  -4  13   44.78    7.36
   3   4 -13   52.92    9.68
  -3  -4  14  631.31   31.72
   3   4 -14  557.90   33.41
   3   4 -15  732.23   51.52
  -3  -4  15  773.72   57.81
  -3  -4  16   -4.22    7.25
   3   3  -1 5312.91  204.35
  -3  -3   1 5849.40  231.29
  -3  -3   1 5431.36  184.13
  -3  -3   1 5510.33  233.97
   3   3  -2 2382.37  102.40
  -3  -3   2 2276.19   93.22
  -3  -3   2 2391.42   85.05
  -3  -3   2 2263.25   76.44
   3   3  -3  542.45   20.67
  -3  -3   3  523.96   24.24
  -3  -3   3  540.98   19.90
  -3  -3   3  513.94   18.55
  -3  -3   4  119.26    7.51
  -3  -3   4  128.09    6.55
   3   3  -4  133.53    5.38
  -3  -3   4  133.42    5.37
  -3  -3   4  131.24    6.70
  -3  -3   4   88.35    4.83
  -3  -3   5  895.72   29.96
  -3  -3   5  883.87   34.93
  -3  -3   5  819.11   34.14
   3   3  -5  863.90   34.77
   3   3  -5  949.32   35.75
  -3  -3   5  624.79   30.07
  -3  -3   5  905.95   36.72
  -3  -3   6 3398.56  124.58
   3   3  -6 3162.23  123.28
  -3  -3   6 2667.61  116.73
  -3  -3   6 2798.74  116.83
  -3  -3   6 3037.08  117.12
  -3  -3   6 3380.84  139.64
   3   3  -6 2610.22  149.93
   3   3  -6 3499.63  117.92
  -3  -3   7  391.23   16.88
   3   3  -7  443.24   19.23
   3   3  -7  377.29   21.00
  -3  -3   7  382.53   16.99
  -3  -3   7  376.69   16.96
  -3  -3   7  442.27   17.37
  -3  -3   7  456.33   19.09
   3   3  -7  490.22   19.51
  -3  -3   8  267.87   12.50
  -3  -3   8  249.42   12.22
   3   3  -8  256.13   12.35
  -3  -3   8  245.74   13.19
  -3  -3   8  250.00   11.91
  -3  -3   9 1809.72   84.95
  -3  -3   9 1817.58   69.41
   3   3  -9 1757.35  100.90
  -3  -3   9 1816.79   85.10
   3   3  -9 1827.12   74.29
  -3  -3  10 1538.32   63.06
  -3  -3  10 1652.37   62.76
   3   3 -10 1626.07   80.65
   3   3 -10 1676.99   69.50
  -3  -3  10 1626.75   65.93
   3   3 -11  110.39    7.54
  -3  -3  11  100.12    8.52
  -3  -3  11  123.31    8.15
  -3  -3  12   29.55    5.53
   3   3 -12   35.50    5.83
  -3  -3  12   28.81    5.82
  -3  -3  13  164.01   11.78
   3   3 -13  157.69   10.82
  -3  -3  14  511.45   27.84
   3   3 -14  521.17   28.98
  -3  -3  15  606.94   35.84
   3   3 -15  569.01   38.78
  -3  -3  16   -6.20    5.94
   3   2  -1 4923.27  204.06
  -3  -2   1 4834.93  213.10
   3   2  -1 4837.23  171.13
  -3  -2   1 5215.21  168.99
   3   2  -2 2117.32   75.02
  -3  -2   2 2186.81   73.60
  -3  -2   2 2178.40   72.98
  -3  -2   2 2093.83   88.44
  -3  -2   3   29.16    3.20
  -3  -2   3   10.72    3.19
  -3  -2   3   15.30    2.31
   3   2  -4  753.49   31.01
  -3  -2   4  789.33   27.47
  -3  -2   4  811.82   25.69
  -3  -2   4  776.45   48.26
  -3  -2   4  640.61   43.33
   3   2  -4  732.61   34.88
  -3  -2   5 1059.57   39.55
  -3  -2   5 1073.68   46.90
  -3  -2   5 1163.84   38.26
  -3  -2   5  886.05   40.88
   3   2  -6 2840.04  114.47
  -3  -2   6 2775.00  108.97
  -3  -2   6 3248.53  110.31
   3   2  -6 3045.13  131.68
  -3  -2   6 2606.29  113.07
   3   2  -7  384.33   16.45
  -3  -2   7  374.20   16.87
  -3  -2   7  344.37   17.80
   3   2  -7  423.28   16.78
  -3  -2   7  349.28   15.73
  -3  -2   7  372.85   17.42
  -3  -2   7  409.16   15.36
   3   2  -8  122.38    6.47
  -3  -2   8  119.28    6.68
  -3  -2   8  119.47    7.77
  -3  -2   8  143.60    7.94
  -3  -2   8  118.64    7.17
  -3  -2   8  121.32    7.18
   3   2  -8  120.94    6.61
   3   2  -9 3747.90  152.40
  -3  -2   9 3874.55  138.63
  -3  -2   9 3898.63  158.94
  -3  -2  10 1307.89   46.92
  -3  -2  10 1291.34   51.13
   3   2 -10 1271.92   50.56
   3   2 -10 1284.46   52.85
  -3  -2  10 1264.19   54.78
  -3  -2  11  137.70   10.90
   3   2 -11  141.82    8.82
   3   2 -11  152.08   13.75
  -3  -2  11  131.25   10.03
  -3  -2  12    0.87    3.35
  -3  -2  12    6.81    4.59
   3   2 -12    2.91    3.35
  -3  -2  13  156.70   12.31
   3   2 -13  158.32   10.73
  -3  -2  13  162.97   11.57
   3   2 -14  625.47   33.84
  -3  -2  14  599.57   31.13
  -3  -2  15  461.27   27.12
   3   2 -15  455.79   31.90
  -3  -2  16   18.74    8.38
   3   1  -1 4153.14  142.81
   3   1  -1 4162.26  145.10
  -3  -1   1 4788.94  158.96
  -3  -1   1 4167.80  151.94
  -3  -1   1 3139.82  194.54
   3   1  -2 5374.74  193.43
  -3  -1   2 3707.51  194.02
  -3  -1   2 5501.79  154.44
  -3  -1   3  849.64   28.61
  -3  -1   3  826.13   31.48
  -3  -1   3  654.28   32.05
  -3  -1   3  846.86   35.00
  -3  -1   3  825.41   26.61
   3   1  -3  856.88   38.17
   3   1  -4 1330.28   69.68
   3   1  -4  842.32   97.15
  -3  -1   4 2014.24   78.69
  -3  -1   4 2178.79   77.85
  -3  -1   4 1350.10   72.89
  -3  -1   4 2133.24   83.11
  -3  -1   4 1680.39   85.13
   3   1  -5 2097.71  134.41
   3   1  -5 1729.03  136.89
  -3  -1   5 2342.12   91.72
  -3  -1   5 1781.83   91.78
  -3  -1   5 2211.76   73.94
  -3  -1   5 2120.92  122.37
   3   1  -6 1313.07   84.79
   3   1  -6 1513.06   86.07
  -3  -1   6 1556.17   80.46
  -3  -1   6 1352.83   61.96
   3   1  -6 1651.70   94.50
  -3  -1   6 1648.04   88.29
  -3  -1   6 1389.74   69.60
  -3  -1   6 1650.28   81.95
  -3  -1   7 1705.62   59.78
   3   1  -7 1696.22   75.86
  -3  -1   7 1511.70   59.59
   3   1  -7 1379.37   66.43
  -3  -1   7 1463.91   67.22
   3   1  -7 1838.41   61.35
   3   1  -8  122.36   11.44
   3   1  -8  120.01   15.88
  -3  -1   8  110.63    8.63
  -3  -1   8  157.17   10.36
  -3  -1   8  135.19   11.35
  -3  -1   8  136.85    9.93
   3   1  -8  142.23    7.94
   3   1  -9 4715.02  206.33
  -3  -1   9 4653.26  181.96
   3   1  -9 4077.11  190.57
  -3  -1   9 4398.84  201.77
  -3  -1   9 4086.12  164.94
   3   1 -10  811.55   37.77
  -3  -1  10  820.48   56.64
  -3  -1  10  863.35   59.74
   3   1 -10  845.62  100.23
  -3  -1  11    6.83    3.13
   3   1 -11    4.29    3.10
   3   1 -11    5.11    3.45
  -3  -1  11    2.96    3.25
   3   1 -12  142.39    9.40
  -3  -1  12  143.42   10.13
  -3  -1  12  148.58    8.88
   3   1 -13  297.48   17.18
  -3  -1  13  330.72   16.47
  -3  -1  13  278.32   17.31
   3   1 -14  999.44   44.92
  -3  -1  14  972.14   45.59
  -3  -1  14  996.10   46.63
  -3  -1  15  781.96   47.06
   3   0  -1 1486.11  232.98
   3   0  -1 7389.73  291.11
   3   0  -1 9953.42  253.61
  -3   0   1 7845.47  317.52
  -3   0   2 1516.93   73.81
   3   0  -2 1749.35   77.07
  -3   0   2 1869.98   61.99
  -3   0   2 1876.07   79.39
   3   0  -2 1815.57   78.06
   3   0  -3  855.79   33.12
   3   0  -3  863.06   26.68
   3   0  -3  674.35   33.79
  -3   0   3  694.22   35.27
  -3   0   3  914.50   27.55
  -3   0   3  937.76   41.82
  -3   0   3  887.57   28.61
   3   0  -4  469.14   32.00
  -3   0   4  496.50   24.26
  -3   0   4  490.57   20.60
   3   0  -4  433.41   46.47
   3   0  -4  563.78   25.27
  -3   0   4  369.68   20.07
   3   0  -5 3081.35  126.20
   3   0  -5 2781.22  113.57
  -3   0   5 3529.40  114.86
  -3   0   5 3630.78  122.90
  -3   0   5 3726.26  133.11
  -3   0   5 3240.57  148.31
   3   0  -6 2451.39  104.55
  -3   0   6 2645.66  115.23
  -3   0   6 2381.02  113.17
  -3   0   6 2892.59   99.97
  -3   0   6 3129.64  100.11
  -3   0   7 1609.73   59.14
   3   0  -7 1651.86   74.62
  -3   0   7 1682.47   54.68
   3   0  -7 1674.06   64.95
   3   0  -7 1408.26   66.65
  -3   0   7 1434.90   58.24
  -3   0   8 1103.37   40.21
   3   0  -8 1114.82   42.74
   3   0  -8  890.62   43.56
   3   0  -8 1134.23   36.78
  -3   0   8 1081.49   36.53
  -3   0   8 1012.16   41.80
   3   0  -9 2403.48   91.24
  -3   0   9 2256.93  131.13
  -3   0   9 2410.22   81.29
   3   0  -9 2494.24   95.16
  -3   0   9 2129.01   88.65
  -3   0   9 2092.12   79.65
   3   0  -9 2078.20   95.47
  -3   0  10  666.91   26.10
  -3   0  10  726.53   42.24
   3   0 -10  730.89   40.08
  -3   0  10  637.65   28.90
   3   0 -10  718.34   43.95
   3   0 -11    9.50    3.80
   3   0 -11   12.93    4.21
  -3   0  11   15.12    4.65
  -3   0  11    7.06    5.19
   3   0 -12  362.53   18.98
   3   0 -12  362.75   27.90
  -3   0  12  363.36   21.58
   3   0 -13  736.76   36.42
  -3   0  13  762.74   37.87
  -3   0  14  991.05   60.07
   3   0 -14 1013.82   49.86
   3  -1   0 1758.62   69.74
  -3   1   0 1771.44   70.38
   3  -1   0 1436.04   75.86
  -3   1   0 1843.55   68.61
   3  -1   0 1805.11   62.61
  -3   1   0 1706.22   74.86
  -3   1   1 7452.43  272.04
   3  -1  -1 7324.09  251.85
   3  -1  -1 7808.51  252.80
  -3   1   1 7672.36  275.60
  -3   1   1 7639.72  258.37
   3  -1  -1 6149.50  341.59
  -3   1   2 1088.85   40.49
   3  -1  -2 1041.20   36.49
   3  -1  -2  992.86   66.08
   3  -1  -2 1160.52   40.54
  -3   1   2 1119.79   41.02
  -3   1   2 1206.07   62.23
   3  -1  -3  467.29   16.38
  -3   1   3  442.47   17.43
   3  -1  -3  439.33   15.42
   3  -1  -3  374.31   19.00
  -3   1   3  439.80   16.86
  -3   1   3  458.15   16.21
  -3   1   3  448.41   14.88
  -3   1   4 3302.14  121.21
  -3   1   4 3459.68  116.56
   3  -1  -4 3405.30  113.29
  -3   1   4 3351.75  121.65
  -3   1   4 3256.61  117.00
   3  -1  -4 2777.51  133.50
   3  -1  -5 3017.66  108.70
   3  -1  -5 2523.26  145.25
  -3   1   5 2679.20  107.62
  -3   1   5 3107.15  112.04
  -3   1   5 3010.44  142.91
   3  -1  -5 2570.30   96.99
  -3   1   5 2983.80  154.64
   3  -1  -6 2145.41   75.32
  -3   1   6 2093.28   86.65
  -3   1   6 2046.23   69.17
   3  -1  -6 2070.20   71.22
   3  -1  -6 1988.57  105.58
  -3   1   6 2437.92   94.47
   3  -1  -7  413.42   22.25
  -3   1   7  430.79   16.76
   3  -1  -7  483.07   19.38
   3  -1  -7  462.81   18.27
   3  -1  -7  431.53   16.76
   3  -1  -8 1228.52   54.41
  -3   1   8 1131.36   44.82
  -3   1   8 1168.16   42.08
  -3   1   8 1216.26   41.50
   3  -1  -8 1256.15   44.54
   3  -1  -8 1094.06   45.20
   3  -1  -9 2176.68  104.09
   3  -1  -9 1904.75   87.21
   3  -1  -9 2163.13   95.24
  -3   1   9 2071.66  120.34
  -3   1   9 1843.12  102.21
   3  -1 -10 1310.39   65.44
  -3   1  10 1411.25   78.41
   3  -1 -10 1506.65   75.17
  -3   1  10 1294.79   72.35
   3  -1 -10 1418.71   81.56
   3  -1 -11  129.29    7.52
  -3   1  11  118.76   11.66
   3  -1 -11  120.16   11.33
  -3   1  11  132.98    9.92
   3  -1 -12  533.71   38.41
  -3   1  12  502.37   24.27
   3  -1 -12  491.90   24.12
  -3   1  13  574.95   28.72
   3  -1 -13  543.85   26.46
  -3   1  14  420.62   25.74
   3  -1 -14  478.27   37.79
  -3   1  15   42.27   11.16
   3  -1 -15  150.37   23.31
   3  -2   0 2343.65   76.37
  -3   2   0 2323.20   78.99
   3  -2   0 2085.09  104.57
   3  -2   0 2233.52   72.90
  -3   2   0 2344.11   88.73
   3  -2  -1 6395.59  231.36
   3  -2  -1 5905.54  213.49
  -3   2   1 6090.02  207.25
  -3   2   1 6269.80  214.64
   3  -2  -1 5984.82  196.71
   3  -2  -1 5660.12  407.39
  -3   2   2  760.89   28.75
  -3   2   2  753.22   27.25
   3  -2  -2  745.83   27.07
   3  -2  -2  677.07   32.08
   3  -2  -2  776.41   26.77
  -3   2   3  703.13   26.52
  -3   2   3  676.01   22.53
  -3   2   3  710.42   26.48
   3  -2  -3  697.43   25.17
   3  -2  -3  682.11   24.38
   3  -2  -3  625.34   29.51
   3  -2  -4 4260.91  153.92
  -3   2   4 4363.90  155.80
  -3   2   4 4434.06  154.93
   3  -2  -4 4425.89  153.44
   3  -2  -4 4521.30  148.33
  -3   2   4 4349.16  170.75
  -3   2   4 4518.70  140.00
   3  -2  -5 1925.11   66.26
  -3   2   5 1856.13   60.79
   3  -2  -5 1887.01   69.94
   3  -2  -5 1823.07   69.40
  -3   2   5 1849.91   65.44
  -3   2   5 1903.35   65.71
  -3   2   5 1835.63   66.02
  -3   2   6  924.46   33.16
  -3   2   6  849.74   33.01
   3  -2  -6  825.03   30.89
  -3   2   6  845.54   29.31
   3  -2  -6  896.94   56.38
   3  -2  -6  775.22   45.65
  -3   2   6  855.44   35.44
   3  -2  -7   77.51    5.29
   3  -2  -7   74.29    9.38
  -3   2   7   73.87    5.69
  -3   2   7   80.65    5.32
  -3   2   7   80.16    5.05
   3  -2  -7   80.02    5.45
  -3   2   8  680.26   25.18
   3  -2  -8  696.04   29.00
   3  -2  -8  667.32   26.80
   3  -2  -8  636.65   35.26
  -3   2   8  674.37   28.97
   3  -2  -9 3486.71  174.49
   3  -2  -9 3492.41  144.32
  -3   2   9 3480.72  134.28
   3  -2 -10 2541.58  110.66
   3  -2 -10 2701.16  103.31
  -3   2  10 2547.59  147.11
  -3   2  11   28.11    6.23
   3  -2 -11   29.69    6.67
   3  -2 -11   31.43    5.96
  -3   2  11   36.37    5.78
   3  -2 -11   25.73    5.22
   3  -2 -12  482.42   22.34
  -3   2  12  520.31   27.46
   3  -2 -13   37.58    6.38
  -3   2  13   47.98    6.94
   3  -2 -14  271.84   16.27
  -3   2  14  277.37   17.79
   3  -2 -15  234.16   15.80
  -3   2  15  206.79   17.58
   3  -3   0 3175.43  107.60
   3  -3   0 2929.18  102.37
   3  -3   0 2930.45  112.48
  -3   3   0 3179.50  108.89
  -3   3   0 3025.37  104.93
   3  -3  -1 6772.14  224.69
   3  -3  -1 6746.33  241.73
   3  -3  -1 7155.72  235.46
  -3   3   1 6924.59  225.72
   3  -3  -2 2943.63   99.33
  -3   3   2 2947.31  108.46
  -3   3   2 3002.10  103.32
   3  -3  -2 2936.73   96.69
   3  -3  -3  787.28   27.30
   3  -3  -3  773.41   27.95
  -3   3   3  774.60   28.20
   3  -3  -3  849.76   30.02
  -3   3   3  781.57   28.99
  -3   3   4 2257.11   71.92
  -3   3   4 2214.37   83.14
   3  -3  -4 2184.66  110.64
  -3   3   4 2329.69   86.04
   3  -3  -4 2250.52   74.48
   3  -3  -4 2311.76   77.75
   3  -3  -5 1288.26   44.35
  -3   3   5 1322.57   47.81
  -3   3   5 1269.20   41.99
  -3   3   5 1229.54   52.57
  -3   3   5 1295.92   48.37
   3  -3  -5 1290.12   43.85
   3  -3  -5 1207.59   59.89
   3  -3  -6  455.25   23.85
   3  -3  -6  496.03   17.20
   3  -3  -6  493.46   18.22
  -3   3   6  508.95   18.68
  -3   3   6  517.60   21.56
  -3   3   6  495.70   19.42
   3  -3  -7    1.76    2.16
  -3   3   7    1.49    2.57
  -3   3   7   -0.63    2.38
   3  -3  -7    3.63    2.75
   3  -3  -7    0.31    3.21
  -3   3   7   21.11    2.61
  -3   3   8 1186.54   48.50
  -3   3   8 1165.69   46.26
   3  -3  -8 1188.47   46.61
   3  -3  -8 1187.64   42.17
  -3   3   9 2344.10   87.66
   3  -3  -9 2368.22   94.83
   3  -3  -9 2269.56   87.31
  -3   3  10 1419.85   99.30
  -3   3  10 1430.95   61.80
   3  -3 -10 1378.31   54.16
   3  -3 -10 1418.22  121.30
  -3   3  11   17.98    5.08
   3  -3 -11   24.15    4.26
   3  -3 -12  404.00   17.62
  -3   3  12  385.72   17.61
  -3   3  13  865.11   43.52
   3  -3 -13  769.98   39.62
   3  -3 -14  161.88   12.29
  -3   3  14  132.14   13.79
  -3   3  15   64.91   10.46
   3  -4   0 5621.64  188.18
   3  -4   0 5901.59  210.37
  -3   4   0 5758.60  189.46
  -3   4   0 5871.58  209.10
  -3   4   1 7369.95  247.29
   3  -4  -1 7212.39  238.82
   3  -4  -1 7480.63  251.29
  -3   4   1 7546.75  257.81
   3  -4  -1 7067.31  253.33
  -3   4   2  937.98   32.89
   3  -4  -2  897.53   30.36
   3  -4  -2  949.55   34.26
   3  -4  -2  894.87   31.64
  -3   4   2  938.45   33.37
   3  -4  -3  755.16   25.99
   3  -4  -3  728.24   26.88
   3  -4  -3  741.75   27.69
  -3   4   3  756.38   26.16
  -3   4   3  763.57   27.69
   3  -4  -4 1855.95   66.85
   3  -4  -4 1845.03   67.47
   3  -4  -4 1938.42   68.05
  -3   4   4 1825.85   63.91
  -3   4   4 1860.83   65.15
  -3   4   4 1884.25   68.71
  -3   4   5 1538.95   50.83
   3  -4  -5 1496.81   48.83
   3  -4  -5 1516.66   60.25
  -3   4   5 1399.62   49.13
  -3   4   5 1479.32   57.54
   3  -4  -5 1484.79   54.79
   3  -4  -6  304.61   56.22
  -3   4   6  378.01   70.82
  -3   4   6  253.47   12.59
   3  -4  -6  257.68   12.19
   3  -4  -7    8.55    2.99
   3  -4  -7    7.58    4.22
  -3   4   7    7.19    2.85
  -3   4   7   12.08    2.28
   3  -4  -8  594.80   29.22
  -3   4   8  678.70   30.57
  -3   4   8  643.76   34.82
   3  -4  -8  627.22   29.86
   3  -4  -9 2633.53  103.71
  -3   4   9 2797.18  109.93
  -3   4   9 2530.44  137.36
   3  -4 -10  982.02   41.90
  -3   4  10 1029.40   39.21
   3  -4 -11  231.16   12.58
  -3   4  11  239.41   14.09
   3  -4 -12  679.63   30.56
  -3   4  12  662.41   29.59
   3  -4 -13  510.28   24.59
  -3   4  13  551.76   29.55
   3  -4 -14  151.09   13.13
  -3   4  14  167.08   16.16
  -3   4  15  211.95   19.61
   3  -5   0 2096.72   86.22
  -3   5   0 2012.72   69.70
   3  -5   0 2075.99   70.13
  -3   5   0 2036.86   77.19
   3  -5  -1 3667.16  120.52
  -3   5   1 3762.38  123.48
  -3   5   1 3566.99  121.02
   3  -5  -1 3638.55  129.42
   3  -5  -1 3521.81  131.33
   3  -5  -2  227.87   11.72
   3  -5  -2  207.57   13.63
  -3   5   2  216.87   11.84
   3  -5  -2  206.75   10.46
  -3   5   2  240.74   11.13
   3  -5  -3 1086.68   39.40
   3  -5  -3 1143.78   40.65
   3  -5  -3 1125.62   41.76
  -3   5   3 1065.57   40.86
  -3   5   3 1108.03   39.28
   3  -5  -4 4359.01  165.54
   3  -5  -4 4594.93  159.19
   3  -5  -4 4702.28  165.44
  -3   5   4 4640.77  157.77
  -3   5   4 4162.17  159.55
  -3   5   4 4429.25  159.45
   3  -5  -5 1747.44   68.92
  -3   5   5 1781.46   63.43
   3  -5  -5 1688.50   73.79
   3  -5  -5 1846.18   81.07
  -3   5   5 1847.54   62.58
   3  -5  -6  373.45   32.65
  -3   5   6  443.54   19.08
   3  -5  -6  402.39   31.91
  -3   5   7    6.83    3.55
   3  -5  -7    7.67    5.07
   3  -5  -7    9.84    3.14
   3  -5  -8  608.54   25.99
  -3   5   8  612.32   25.17
  -3   5   9 2459.42  100.36
   3  -5  -9 2420.95  107.04
  -3   5  10  486.86   22.01
   3  -5 -10  466.33   27.50
   3  -5 -11   43.66    6.38
  -3   5  11   50.31    7.91
   3  -5 -12  705.52   38.11
  -3   5  12  680.65   37.68
  -3   5  13  453.51   25.01
   3  -5 -13  428.68   29.97
  -3   5  14  223.05   19.50
   3  -6   0 1713.38   63.15
   3  -6   0 1599.90   55.62
  -3   6   0 1621.14   54.45
   3  -6  -1 1415.29   51.59
   3  -6  -1 1365.13   48.43
  -3   6   1 1391.11   47.92
   3  -6  -2   40.60    5.43
  -3   6   2   36.36    5.29
   3  -6  -2   27.30    4.80
   3  -6  -2   45.09    4.88
   3  -6  -3 1106.59   40.47
   3  -6  -3 1125.60   41.62
  -3   6   3 1120.56   42.06
   3  -6  -3 1052.37   42.17
   3  -6  -4 3854.92  144.95
   3  -6  -4 4243.45  145.09
  -3   6   4 4135.17  145.86
  -3   6   4 3950.47  152.61
   3  -6  -4 4067.50  151.38
   3  -6  -5 1947.60   77.17
  -3   6   5 1979.06   76.40
   3  -6  -5 1786.14   82.45
   3  -6  -5 1909.46   66.87
  -3   6   6  305.06   29.56
   3  -6  -6  328.52   18.03
  -3   6   7  122.19    8.12
   3  -6  -7  118.38    8.81
   3  -6  -8  747.24   29.44
  -3   6   8  776.78   36.87
  -3   6   9 1067.78   47.08
   3  -6  -9 1165.71   49.21
   3  -6 -10  432.00   20.52
  -3   6  10  435.26   23.86
  -3   6  11   18.47    6.58
   3  -6 -11   19.59    7.28
   3  -6 -12  936.53   53.72
  -3   6  12  923.87   56.77
  -3   6  13  514.08   39.97
  -3   6  14   71.55   12.50
  -3   7   0 1505.32   53.62
   3  -7   0 1489.70   51.88
   3  -7  -1  883.90   33.72
  -3   7   1  889.98   35.04
   3  -7  -2  431.72   19.13
  -3   7   2  434.48   17.61
   3  -7  -2  431.72   17.48
   3  -7  -3 1147.46   44.17
  -3   7   3 1129.16   42.03
   3  -7  -3 1084.29   41.75
   3  -7  -4 3359.66  115.81
   3  -7  -4 3335.55  146.98
  -3   7   4 3369.19  118.59
   3  -7  -5  747.32   29.65
   3  -7  -5  734.05   26.98
  -3   7   5  740.65   33.27
  -3   7   6   26.47    5.05
   3  -7  -6   26.61    4.64
  -3   7   7   62.00    7.45
   3  -7  -7   61.33    6.62
  -3   7   8  511.36   21.59
   3  -7  -8  520.26   22.16
   3  -7  -9 1071.44   50.63
  -3   7   9 1095.05   51.07
   3  -7 -10  410.82   21.39
  -3   7  10  394.27   21.38
   3  -7 -11  329.17   19.88
  -3   7  11  300.27   16.91
  -3   7  12  775.59   51.35
  -3   7  13  364.58   32.83
   3  -8   0 1051.12   38.25
  -3   8   0 1073.32   42.12
  -3   8   1 1090.29   41.10
   3  -8  -1 1107.77   40.98
   3  -8  -2  247.60   12.00
   3  -8  -2  265.91   13.44
  -3   8   2  260.86   12.40
   3  -8  -3 1008.05   38.86
   3  -8  -3 1005.07   46.37
  -3   8   3 1018.36   37.01
   3  -8  -4 1532.21   63.50
  -3   8   4 1545.56   63.36
   3  -8  -4 1611.24   74.77
   3  -8  -5  380.23   18.48
  -3   8   5  391.13   19.70
   3  -8  -6    0.82    4.37
  -3   8   6    4.37    4.65
   3  -8  -7  366.89   18.34
  -3   8   7  337.11   18.32
  -3   8   8  543.07   24.19
   3  -8  -8  595.79   27.69
   3  -8  -9  665.97   31.89
  -3   8   9  614.44   31.15
  -3   8  10  180.30   16.02
   3  -8 -10  217.05   19.00
  -3   8  11   99.47   14.37
  -3   9   0  501.28   22.70
   3  -9   0  457.02   19.36
   3  -9  -1  844.53   33.99
  -3   9   1  876.17   34.40
  -3   9   2   42.67    7.05
   3  -9  -2   32.77    5.20
   3  -9  -2   46.53    6.52
  -3   9   3 1186.73   44.39
   3  -9  -3 1158.73   43.59
   3  -9  -4 1584.18   74.37
  -3   9   4 1612.89   66.90
   3  -9  -5  250.03   13.99
  -3   9   5  253.90   15.33
  -3   9   6   15.31    6.15
   3  -9  -6    9.98    6.70
  -3   9   7  253.17   14.99
   3  -9  -7  253.92   14.99
  -3   9   8  487.96   24.18
   3  -9  -8  479.88   26.26
   3  -9  -9  669.72   39.10
  -3   9   9  718.70   38.43
   3 -10   0  709.26   29.70
  -3  10   0  708.84   30.77
   3 -10  -1  314.96   15.49
  -3  10   1  306.96   15.49
  -3  10   2   78.17    8.78
   3 -10  -2   94.80   11.44
   3 -10  -3  585.42   25.04
  -3  10   3  539.61   26.62
   3 -10  -4  687.75   29.25
  -3  10   4  685.05   29.51
   3 -10  -5  690.69   31.14
  -3  10   5  685.51   31.27
   3 -10  -6   33.06   11.34
  -3  10   6   41.79   11.75
   3 -10  -7  475.37   28.42
  -3  10   7  492.64   30.35
   3 -11   0  246.32   18.31
  -3  11   0  241.38   17.25
  -3  11   1  167.59   16.36
   3 -11  -1  152.57   14.90
  -3  11   2   36.53   11.82
   3 -11  -2   18.60   10.89
  -3  11   3  299.64   20.29
  -3  11   4  828.32   54.91
   2  11  -1  535.40   32.79
   2  11  -1  534.17   30.21
   2  11  -2   15.18    7.59
   2  11  -2   28.91    8.48
   2  11  -3   33.47   10.69
   2  11  -3   -0.71    8.21
  -2 -11   4   81.16    9.85
  -2 -11   5  788.95   40.31
  -2 -11   6  256.58   17.90
   2  10  -1 1031.81   39.24
   2  10  -1  944.20   48.66
  -2 -10   2   50.47    8.07
   2  10  -3  119.14   13.38
   2  10  -3   68.26    9.29
   2  10  -4  316.58   14.96
   2  10  -4  333.16   18.84
  -2 -10   5  445.87   19.39
  -2 -10   6  504.10   23.68
  -2 -10   7   -0.94    4.57
  -2 -10   8  679.15   39.12
  -2 -10   9  802.86   49.36
   2   9  -1 1163.58   42.47
   2   9  -1 1150.91   55.65
   2   9  -2  108.70    9.21
   2   9  -2   77.12   15.02
   2   9  -3  288.59   14.17
   2   9  -3  257.82   19.89
   2   9  -4  718.55   28.94
   2   9  -4  739.75   26.54
   2   9  -5  359.06   14.58
   2   9  -5  309.22   19.05
  -2  -9   7   23.83    4.47
  -2  -9   8  809.66   33.96
  -2  -9   9 1173.47   50.71
  -2  -9  10  222.92   15.98
  -2  -9  11   88.51   10.54
   2   8  -1  954.85   33.75
   2   8  -1  947.87   41.08
  -2  -8   1  986.27   38.58
  -2  -8   1  943.41   43.56
   2   8  -2  317.39   19.70
   2   8  -2  259.42   11.39
  -2  -8   2  324.83   16.86
  -2  -8   2  278.64   21.57
   2   8  -3  407.16   22.77
  -2  -8   3  294.31   15.06
   2   8  -4  960.68   32.15
   2   8  -4  969.19   43.46
  -2  -8   4  942.80   37.43
   2   8  -5  464.09   17.48
  -2  -8   5  448.37   18.77
   2   8  -5  455.29   24.31
   2   8  -6  217.01   13.09
   2   8  -6  224.74   16.28
  -2  -8   6  238.14   14.16
  -2  -8   7   33.97    5.30
  -2  -8   8  801.57   34.14
  -2  -8   9 1415.19   54.45
  -2  -8  10  268.63   15.62
  -2  -8  11  315.61   25.09
  -2  -8  12  254.32   19.20
   2   7  -1 2436.58   82.31
  -2  -7   1 2551.27   97.00
  -2  -7   1 2448.48  115.02
   2   7  -1 2403.46   94.87
   2   7  -1 2481.86   99.55
   2   7  -2  114.72    6.52
  -2  -7   2  103.11    6.62
  -2  -7   2   93.02    7.02
   2   7  -2  107.96    7.48
  -2  -7   2  102.15    7.66
   2   7  -2  123.95    6.37
   2   7  -3 1910.61   85.30
  -2  -7   3 1986.24   74.65
  -2  -7   3 2049.15   83.95
   2   7  -3 1969.57   64.08
   2   7  -3 2023.55   93.52
   2   7  -4  974.40   36.07
   2   7  -4  954.24   44.19
   2   7  -4  936.58   49.05
  -2  -7   4 1002.41   38.40
   2   7  -4  938.33   56.21
   2   7  -5  287.17   13.78
   2   7  -5  314.79   11.55
  -2  -7   5  320.76   14.19
   2   7  -5  295.34   15.69
   2   7  -6  521.61   27.34
  -2  -7   6  554.82   24.45
   2   7  -6  544.84   19.88
   2   7  -6  551.14   27.23
  -2  -7   7   18.61   16.70
   2   7  -7   10.79    2.67
   2   7  -7    7.47    3.12
   2   7  -8 1149.00   41.97
  -2  -7   8 1163.75   48.03
   2   7  -9 2000.93   73.68
  -2  -7   9 1917.60   87.55
  -2  -7  10   26.42    6.37
  -2  -7  11  202.58   15.38
  -2  -7  12  366.95   19.37
  -2  -7  13  324.05   26.91
   2   7 -13  352.82   22.10
  -2  -7  14  150.20   15.37
   2   6  -1 1859.72   83.55
  -2  -6   1 2058.36   87.06
  -2  -6   1 2092.11   80.81
   2   6  -1 2087.88   72.25
   2   6  -2  174.17    9.03
  -2  -6   2  158.68    8.77
  -2  -6   2  175.17    7.98
  -2  -6   2  161.51    9.46
   2   6  -2  161.10    7.25
   2   6  -2  183.19    8.12
   2   6  -3 3328.57  110.79
   2   6  -3 3724.14  153.80
   2   6  -3 3387.82  138.94
  -2  -6   3 3635.07  163.03
  -2  -6   3 3382.59  131.19
   2   6  -3 3536.22  122.08
   2   6  -4 1667.37   62.38
   2   6  -4 1653.32   72.37
  -2  -6   4 1721.56   66.30
  -2  -6   4 1693.07   71.98
   2   6  -4 1711.77   69.65
   2   6  -5 1093.48   42.32
   2   6  -5 1119.42   40.37
   2   6  -5 1044.99   44.40
  -2  -6   5 1153.84   42.22
  -2  -6   5 1074.32   47.77
   2   6  -5 1046.89   46.59
   2   6  -6  832.23   38.85
   2   6  -6  837.19   35.71
  -2  -6   6  859.26   32.88
  -2  -6   6  806.95   40.59
   2   6  -6  819.52   29.24
   2   6  -7    9.70    2.56
   2   6  -7   12.01    4.09
  -2  -6   7    8.62    2.56
   2   6  -8 1811.29   59.98
   2   6  -8 1638.93   87.47
  -2  -6   8 1794.94   70.72
  -2  -6   9 2004.82   84.81
   2   6  -9 2094.51   73.64
   2   6 -10   16.61    3.22
  -2  -6  10    8.17    5.36
  -2  -6  10   16.74    4.15
   2   6 -11   85.01    6.88
  -2  -6  11   68.76    6.73
   2   6 -12  363.61   18.57
  -2  -6  12  356.73   21.61
   2   6 -13  291.71   16.83
  -2  -6  13  289.22   17.22
   2   6 -14  306.89   20.39
  -2  -6  14  302.04   25.22
  -2  -6  15    6.11    6.91
   2   5  -1 2544.65   93.80
   2   5  -1 2484.85  155.10
  -2  -5   1 2642.55   98.38
  -2  -5   1 2744.99  116.90
  -2  -5   1 2766.70  106.83
   2   5  -1 2741.51   97.21
  -2  -5   1 2505.53   94.16
   2   5  -2  355.63   12.86
   2   5  -2  396.06   14.43
  -2  -5   2  360.12   14.62
  -2  -5   2  439.84   48.03
   2   5  -2  387.91   39.71
  -2  -5   2  405.88   14.82
   2   5  -3 3251.26  142.64
  -2  -5   3 3313.22  140.18
   2   5  -3 3229.95  127.74
  -2  -5   3 3357.98  118.96
   2   5  -3 3316.22  120.82
   2   5  -3 3286.89  107.71
   2   5  -4 2515.00   97.64
   2   5  -4 2355.87  102.47
  -2  -5   4 2495.04  101.15
   2   5  -4 2519.95  101.14
   2   5  -4 2430.04   90.72
  -2  -5   4 2470.27   97.71
   2   5  -5 2218.32   76.55
   2   5  -5 2226.84   93.88
   2   5  -5 2105.81   87.29
  -2  -5   5 2208.65   91.94
  -2  -5   5 2355.59   86.74
   2   5  -6   26.70    3.07
   2   5  -6   18.12    4.83
   2   5  -6   28.27    2.91
   2   5  -6   22.19    3.13
  -2  -5   6   20.83    4.27
  -2  -5   6   21.25    3.00
  -2  -5   7  237.64   49.24
  -2  -5   7  195.17    8.91
   2   5  -7  194.22   10.96
   2   5  -7  217.31   16.22
   2   5  -8 1215.37   62.15
   2   5  -8 1284.85   41.90
  -2  -5   8 1334.45   55.70
   2   5  -9 1177.52   43.40
   2   5  -9 1114.35   51.99
  -2  -5   9 1168.76   50.48
  -2  -5  10  435.80   25.20
   2   5 -10  448.21   17.66
  -2  -5  11  313.83   20.21
  -2  -5  11  327.98   20.27
   2   5 -11  316.34   17.41
   2   5 -12 1809.38   80.94
  -2  -5  12 1816.27   88.99
  -2  -5  12 1755.56   99.37
   2   5 -13  163.24   10.03
  -2  -5  13  191.30   12.19
   2   5 -14   20.21    6.97
  -2  -5  14   22.87    6.25
  -2  -5  15   17.38    6.98
   2   4  -1 3095.79  106.97
  -2  -4   1 3180.67  122.61
  -2  -4   1 3387.97  115.06
  -2  -4   1 3819.37  153.31
  -2  -4   1 3598.09  130.82
   2   4  -1 3478.71  114.74
   2   4  -1 3462.29  167.31
   2   4  -2  304.30   40.87
   2   4  -2  367.27  103.03
  -2  -4   2  410.47   52.46
  -2  -4   2  428.61   30.42
  -2  -4   2  435.75   38.47
  -2  -4   2  464.60   51.61
   2   4  -2  419.55   53.45
   2   4  -3 1985.20   79.48
   2   4  -3 2196.27   73.64
   2   4  -3 1981.15   82.42
   2   4  -3 2283.28   96.78
  -2  -4   3 2147.90   85.20
  -2  -4   3 2203.12   82.89
  -2  -4   4 2349.64   87.72
   2   4  -4 2413.41   89.83
   2   4  -4 2227.08   91.59
  -2  -4   4 2346.20   85.48
   2   4  -4 2291.55   79.63
   2   4  -4 2373.04   87.93
   2   4  -5  548.45   21.18
   2   4  -5  483.45   20.38
   2   4  -5  541.12   23.70
   2   4  -5  495.45   21.28
  -2  -4   5  457.80   20.11
  -2  -4   5  544.33   20.26
   2   4  -6  176.31   20.38
   2   4  -6  116.20   33.90
  -2  -4   6  186.36   18.87
   2   4  -6  190.14   12.63
  -2  -4   6  201.58   23.64
   2   4  -7  456.65   65.36
   2   4  -7  358.58   51.13
  -2  -4   7  509.88   55.75
   2   4  -7  479.41   34.58
   2   4  -8 3606.52  135.35
   2   4  -8 3367.75  171.50
  -2  -4   8 3278.04  168.43
  -2  -4   8 3698.93  131.70
   2   4  -9 1640.58   57.68
   2   4  -9 1617.27   70.38
  -2  -4   9 1649.93   59.13
  -2  -4  10  322.78   20.56
   2   4 -10  278.80   24.11
   2   4 -10  312.34   33.39
  -2  -4  10  325.76   28.06
  -2  -4  11  940.00   44.40
   2   4 -11  936.82   39.46
   2   4 -11  909.40   63.29
  -2  -4  11  976.56   43.16
  -2  -4  12  665.32   33.79
   2   4 -12  730.53   30.44
  -2  -4  12  719.68   34.66
   2   4 -13  318.91   18.43
  -2  -4  13  316.02   18.56
  -2  -4  13  322.26   16.65
   2   4 -14  207.91   14.34
  -2  -4  14  198.97   14.92
  -2  -4  15   84.20   12.35
   2   4 -15   73.38   20.60
  -2  -4  16  377.25   33.79
   2   3  -1 2496.05  268.55
  -2  -3   1 6135.01  217.67
  -2  -3   1 5930.31  210.28
  -2  -3   1 5475.67  193.97
  -2  -3   1 5675.68  241.10
   2   3  -1 5697.59  195.77
   2   3  -1 5747.60  248.24
   2   3  -2  140.98    7.71
   2   3  -2   43.33    6.34
   2   3  -2  516.29   44.38
  -2  -3   2  496.97   72.89
  -2  -3   2  534.05   59.84
  -2  -3   2  458.03   70.52
  -2  -3   2  501.04  109.15
  -2  -3   2  443.95  105.96
   2   3  -3 2568.53   90.02
   2   3  -3 2619.96  103.09
   2   3  -3 2531.73   92.66
  -2  -3   3 2672.70   89.53
  -2  -3   3 2409.62   88.52
  -2  -3   3 2317.45   96.43
  -2  -3   3 2516.31   94.73
   2   3  -3 2163.80  107.09
   2   3  -4 4993.10  193.47
   2   3  -4 4441.24  189.32
   2   3  -4 5195.43  213.98
   2   3  -4 4718.12  173.16
  -2  -3   4 4587.16  191.29
  -2  -3   4 4622.18  202.70
  -2  -3   4 5021.57  190.82
   2   3  -5   50.75    3.44
  -2  -3   5   40.78    4.30
  -2  -3   5   48.59    3.01
  -2  -3   5   43.80    3.94
   2   3  -5  112.44    7.15
   2   3  -5   50.81    3.14
   2   3  -6  501.40   37.85
   2   3  -6  505.29   42.43
  -2  -3   6  459.11   64.53
  -2  -3   6  505.01   57.74
  -2  -3   6  546.28   51.65
   2   3  -7 1185.25   44.49
   2   3  -7 1189.32   62.51
   2   3  -7 1375.19   76.97
  -2  -3   7 1130.56   68.99
  -2  -3   7 1231.91   62.55
  -2  -3   7 1176.16   60.70
   2   3  -8 1849.48   92.84
   2   3  -8 2138.87   84.69
  -2  -3   8 1886.66   78.38
  -2  -3   8 1830.74   72.58
  -2  -3   8 1811.91   74.71
   2   3  -8 1998.23   76.13
  -2  -3   8 1950.24   80.70
   2   3  -9 2392.27   98.27
   2   3  -9 2421.85  105.91
  -2  -3   9 2472.87   91.18
  -2  -3   9 2315.85   96.54
  -2  -3   9 2220.28   86.32
  -2  -3   9 2371.30  114.49
  -2  -3  10  464.54   21.14
  -2  -3  10  459.68   21.97
  -2  -3  10  486.64   20.37
   2   3 -10  481.46   35.12
   2   3 -10  480.77   18.91
   2   3 -11 1252.45   49.03
   2   3 -11 1384.81   94.27
  -2  -3  11 1267.79   53.53
  -2  -3  11 1305.00   51.11
   2   3 -12 1101.83   47.47
  -2  -3  12 1051.08   50.53
  -2  -3  12 1106.21   44.21
   2   3 -13  134.32    8.68
  -2  -3  13  131.16   10.50
  -2  -3  13  109.79    9.09
   2   3 -14   20.57    7.47
  -2  -3  14   11.27    7.61
  -2  -3  14   21.50    6.51
   2   3 -15   81.16   14.98
  -2  -3  15   51.22    9.49
  -2  -3  16  301.46   34.29
  -2  -2   1 1373.77   65.50
  -2  -2   1 1446.39   48.87
  -2  -2   1 1511.34   62.01
  -2  -2   1 1356.81   61.22
   2   2  -1 1467.84   59.54
   2   2  -1 1307.49   53.17
   2   2  -1 1413.37   55.00
  -2  -2   1 1505.15   53.06
  -2  -2   2  773.93  183.68
   2   2  -2  467.54   21.69
   2   2  -2  733.26   91.25
  -2  -2   2  579.60   24.86
  -2  -2   2  456.72   20.03
  -2  -2   2  635.51   57.18
  -2  -2   2  554.64   18.73
   2   2  -3 6310.11  248.91
  -2  -2   3 6428.36  215.04
  -2  -2   3 6000.40  222.77
   2   2  -3 6466.44  221.04
   2   2  -3 6188.41  231.44
  -2  -2   3 4358.34  220.98
  -2  -2   3 6303.58  219.24
   2   2  -4 6905.09  340.75
  -2  -2   4 9045.30  346.62
   2   2  -5  271.03    9.67
  -2  -2   5  261.13   10.48
  -2  -2   5  273.68    9.94
   2   2  -5  247.09   12.57
  -2  -2   5  258.88   11.69
   2   2  -6  171.85  105.52
   2   2  -6  124.91   58.08
   2   2  -6   78.50    6.86
  -2  -2   6   68.82   10.72
  -2  -2   6  108.45   66.90
   2   2  -7 1058.23  140.11
   2   2  -7 1062.58  190.43
   2   2  -7 1267.33  207.07
  -2  -2   7  919.14   53.70
  -2  -2   7 1026.76  163.00
  -2  -2   7 1073.39  136.96
  -2  -2   7  972.61  139.61
  -2  -2   8 1020.75   34.77
  -2  -2   8  930.05   37.50
  -2  -2   8  974.08   44.46
   2   2  -8  959.84   46.96
   2   2  -8 1039.70   46.49
   2   2  -8 1190.15   46.99
  -2  -2   8 1076.39   38.41
  -2  -2   9 2867.05  101.78
  -2  -2   9 2664.66   94.56
   2   2  -9 2576.19  113.71
   2   2  -9 2744.61  104.87
   2   2  -9 3088.00  112.45
  -2  -2   9 2860.33  101.75
  -2  -2   9 2575.92  110.88
  -2  -2  10   80.48    6.70
   2   2 -10   88.64   15.64
   2   2 -10  100.40   44.92
  -2  -2  10   81.14   16.00
  -2  -2  10   82.91   13.90
  -2  -2  11 1541.39   71.67
   2   2 -11 1575.96   72.84
   2   2 -11 1551.37   71.20
  -2  -2  11 1606.01   66.75
  -2  -2  11 1528.24   84.60
   2   2 -12 1159.81   69.98
  -2  -2  12 1167.22   52.80
  -2  -2  12 1160.52   49.27
   2   2 -13  228.36   13.28
  -2  -2  13  193.55   13.84
  -2  -2  13  238.29   12.56
   2   2 -14    4.13    4.56
  -2  -2  14    1.00    4.70
  -2  -2  14    7.92    5.64
   2   2 -15   71.66   13.55
  -2  -2  15   51.91   10.16
  -2  -2  15   66.30    9.35
  -2  -2  16  431.88   39.07
  -2  -1   1 1396.15   67.82
   2   1  -1 1841.67   62.72
   2   1  -1 1804.84   68.81
  -2  -1   1 1943.20   60.54
  -2  -1   2  837.94   27.89
  -2  -1   2  868.16   29.35
   2   1  -2  725.09   31.89
   2   1  -2  907.48   39.70
   2   1  -2  817.36   28.70
  -2  -1   2  868.79   40.51
  -2  -1   2  838.58   30.84
  -2  -1   2  660.68   33.99
   2   1  -3   69.79   26.75
  -2  -1   314880.83  439.32
  -2  -1   311204.22  537.54
  -2  -1   4 2954.80  129.61
   2   1  -4 2849.75  152.85
   2   1  -4 3302.78  141.77
   2   1  -4 3895.19  130.49
  -2  -1   4 3342.89  130.00
  -2  -1   4 2887.54  143.82
  -2  -1   4 3854.12  117.56
  -2  -1   5  127.52    5.73
   2   1  -5  117.75    6.28
   2   1  -5  130.44    6.16
  -2  -1   5  119.31    6.48
   2   1  -6    4.23    3.14
   2   1  -6   20.69    4.26
  -2  -1   6    6.75    1.87
   2   1  -7  503.11   34.14
   2   1  -7  637.98   21.37
  -2  -1   7  544.72   21.51
  -2  -1   7  550.63   26.16
  -2  -1   7  520.98   19.94
  -2  -1   8 2928.74  108.84
  -2  -1   8 2785.71  119.23
  -2  -1   8 2813.13  104.44
   2   1  -8 2548.96  121.53
   2   1  -8 3265.23  108.91
   2   1  -9 1557.27   65.81
  -2  -1   9 1784.70   65.67
   2   1  -9 1705.75   76.35
  -2  -1   9 1645.44   60.19
  -2  -1  10  199.45    9.89
   2   1 -10  183.11   12.04
   2   1 -10  201.56   10.28
   2   1 -10  219.92   10.62
  -2  -1  10  185.93   11.00
  -2  -1  11 1407.31   57.05
   2   1 -11 1287.89   51.44
   2   1 -11 1397.20  102.41
  -2  -1  11 1432.48   67.78
   2   1 -12 1054.80   46.37
   2   1 -12 1057.39  113.44
  -2  -1  12 1168.57   50.63
  -2  -1  12 1128.60   46.56
  -2  -1  13  970.01   43.56
   2   1 -13  899.89   41.69
  -2  -1  13  960.64   44.45
   2   1 -14   -3.57    6.13
  -2  -1  14    4.11    3.70
   2   1 -15   55.46    9.46
  -2  -1  15   44.46    9.60
  -2  -1  16  437.51   32.60
   2   0  -1  552.95   15.11
   2   0  -1  100.31   22.05
   2   0  -1  404.03   20.34
  -2   0   1  542.90   19.99
  -2   0   1  562.31   20.92
  -2   0   1  563.56   20.48
  -2   0   1  562.14   23.46
  -2   0   1  493.73  137.86
  -2   0   2  115.60    4.56
   2   0  -2  113.20    5.07
   2   0  -2   58.80    6.11
   2   0  -2  120.49    4.64
  -2   0   2  118.39    4.53
  -2   0   2  114.73    5.09
  -2   0   2  111.71    4.97
  -2   0   2  134.34   89.92
   2   0  -3 5034.03  190.42
  -2   0   3 5403.84  213.78
  -2   0   3 5561.69  183.54
  -2   0   3 4075.30  225.01
   2   0  -4 5788.03  199.87
   2   0  -4 4989.17  219.67
   2   0  -4 4259.81  204.73
  -2   0   4 5747.01  180.47
  -2   0   4 4557.81  229.16
   2   0  -5  511.65   19.61
  -2   0   5  536.69   65.42
  -2   0   5  455.65   22.45
   2   0  -5  432.47   20.55
   2   0  -5  527.02   17.54
  -2   0   5  577.60   69.68
  -2   0   5  450.33   43.56
  -2   0   6 1764.39  176.98
   2   0  -6 1632.64   89.22
   2   0  -6 1850.51   72.32
   2   0  -6 2056.97   81.39
  -2   0   6 1873.36   74.23
  -2   0   6 1704.79   93.05
   2   0  -7 1362.98   59.80
  -2   0   7 1539.56   91.70
  -2   0   7 1575.31   57.98
  -2   0   7 1526.89   71.29
   2   0  -8 1087.07   46.35
   2   0  -8 1233.26   58.02
   2   0  -8 1362.80   60.87
  -2   0   8 1236.40   46.43
  -2   0   8 1210.48   52.67
  -2   0   8 1192.79   48.59
  -2   0   9  944.25   40.48
   2   0  -9  874.28   38.99
   2   0  -9  946.90   42.16
   2   0  -9 1077.22   40.70
  -2   0   9  941.78   40.47
  -2   0   9  957.89   34.65
   2   0 -10    1.70    2.83
   2   0 -10    2.77    2.77
   2   0 -10    2.94    3.78
  -2   0  10    3.65    2.77
  -2   0  11 1388.26   52.76
  -2   0  11 1316.53   52.31
   2   0 -11 1246.20   52.70
   2   0 -11 1284.13   63.90
   2   0 -11 1388.17   56.88
  -2   0  12 3058.41  127.41
   2   0 -12 2681.10  107.47
   2   0 -12 2716.32  175.51
   2   0 -13  500.42   23.93
  -2   0  13  512.25   24.08
   2   0 -14   61.43    8.21
  -2   0  14   42.62    7.93
   2   0 -15   48.82    7.44
  -2   0  15   59.91    8.42
  -2   0  16  187.79   20.17
   2  -1   0 1145.13   39.78
   2  -1   0 1171.71   40.42
   2  -1   0 1104.61   78.41
  -2   1   0 1167.61   42.02
  -2   1   0 1164.19   42.72
   2  -1  -1 1322.55   50.06
   2  -1  -1 1332.91   46.69
   2  -1  -1 1378.69   50.21
  -2   1   1 1359.29   47.02
  -2   1   1 1326.21   47.19
  -2   1   1 1438.01   51.59
   2  -1  -2 2035.85   72.44
   2  -1  -2 2068.59   67.97
  -2   1   2 2062.94   70.20
  -2   1   2 2047.15   79.85
  -2   1   2 2387.10   81.26
   2  -1  -2 2066.36   75.36
   2  -1  -2 2047.35  194.59
   2  -1  -3 9775.24  357.23
  -2   1   310447.14  368.89
  -2   1   310548.56  409.01
  -2   1   310139.18  348.99
   2  -1  -310123.98  337.39
   2  -1  -4 6833.69  265.90
  -2   1   4 7420.22  259.11
   2  -1  -4 7193.96  242.30
  -2   1   4 7092.85  256.35
  -2   1   4 6994.77  270.07
  -2   1   4 7589.01  270.21
   2  -1  -5  213.03   94.29
   2  -1  -5  189.30  128.31
   2  -1  -5  164.25   98.47
  -2   1   5  309.46   56.07
  -2   1   5  355.49   28.57
   2  -1  -5  107.46   52.38
   2  -1  -6  893.16  205.85
   2  -1  -6  888.33  162.75
   2  -1  -6  924.37  161.84
   2  -1  -6  817.10  187.26
  -2   1   6  978.69   67.89
  -2   1   6 1012.69   72.01
  -2   1   6 1003.91  105.84
  -2   1   7 1911.52  147.30
   2  -1  -7 1761.32  128.15
   2  -1  -7 1783.23  134.07
   2  -1  -7 1942.00  187.81
   2  -1  -7 1713.11  191.29
  -2   1   7 1886.15   69.77
  -2   1   7 2022.49  100.09
   2  -1  -8 1444.29   62.43
   2  -1  -8 1454.53   56.49
   2  -1  -8 1624.54   58.11
   2  -1  -8 1693.03   60.17
  -2   1   8 1599.36   59.58
  -2   1   8 1541.18   60.75
  -2   1   8 1641.68   59.69
  -2   1   9  720.95   27.38
   2  -1  -9  676.18   28.84
   2  -1  -9  666.78   26.79
   2  -1  -9  747.48   28.67
   2  -1  -9  637.21   30.72
  -2   1   9  680.56   29.52
   2  -1 -10   54.76   31.07
   2  -1 -10   46.29   16.02
   2  -1 -10   35.97   19.52
  -2   1  10   64.83   15.75
   2  -1 -11  998.34   64.54
   2  -1 -11  983.45   39.06
   2  -1 -11 1144.00   50.00
  -2   1  11 1033.20   42.19
   2  -1 -12 2463.15   97.67
  -2   1  12 2676.74  103.39
  -2   1  13   66.55    8.17
   2  -1 -13   67.37    7.74
  -2   1  14  145.93   19.04
   2  -1 -14  152.19   29.94
   2  -1 -15  346.14   31.18
  -2   1  15  371.93   28.00
  -2   1  16  179.23   17.56
   2  -2   0 1124.05   43.12
  -2   2   0 1081.79   38.72
   2  -2   0 1071.36   37.14
  -2   2   0 1088.11   37.28
   2  -2  -1  108.69    7.82
   2  -2  -1  104.07    7.92
   2  -2  -1  105.96    8.34
  -2   2   1   88.16    8.05
  -2   2   1  121.80    7.82
   2  -2  -2 1075.85   40.71
   2  -2  -2 1020.77   48.23
   2  -2  -2  982.09   46.95
  -2   2   2 1076.74   51.21
  -2   2   2 1059.12   43.37
   2  -2  -3 9795.82  351.01
   2  -2  -310226.45  357.07
  -2   2   310021.68  364.67
  -2   2   310258.33  410.88
   2  -2  -4 7855.52  272.75
   2  -2  -4 8003.78  276.45
   2  -2  -4 8075.41  265.11
   2  -2  -4 7654.77  344.03
  -2   2   4 7882.41  272.91
  -2   2   4 7934.00  280.61
  -2   2   4 8108.49  289.50
  -2   2   4 8251.79  310.97
   2  -2  -5  305.80   28.61
   2  -2  -5  321.96   27.01
   2  -2  -5  311.39   23.18
  -2   2   5  298.96   36.32
  -2   2   5  342.48   21.45
   2  -2  -6 2319.51   84.83
   2  -2  -6 2441.70   88.48
   2  -2  -6 2401.81   85.00
   2  -2  -6 2345.77  100.74
  -2   2   6 2437.60   85.02
  -2   2   6 2417.44  103.48
  -2   2   6 2392.16   81.69
   2  -2  -7 1912.01   71.82
   2  -2  -7 2107.92   76.20
   2  -2  -7 2106.49   81.86
   2  -2  -7 1903.60   78.86
  -2   2   7 2065.23   69.71
  -2   2   7 1965.61   74.96
  -2   2   7 2057.30   71.00
  -2   2   8 1032.89   38.99
   2  -2  -8  944.24   38.14
   2  -2  -8 1007.36   40.30
   2  -2  -8 1049.95   35.68
   2  -2  -8  921.55   40.66
  -2   2   8 1047.70   40.00
  -2   2   9  637.39   22.99
   2  -2  -9  575.65   23.23
  -2   2   9  599.49   25.17
   2  -2  -9  609.70   22.88
   2  -2  -9  650.88   24.53
   2  -2  -9  553.97   25.60
   2  -2 -10  134.21    9.53
   2  -2 -10  117.00   12.35
   2  -2 -10  135.67   11.09
   2  -2 -10   92.64   14.88
  -2   2  10   90.81   15.81
  -2   2  10   74.82   16.03
   2  -2 -11 1590.14   71.60
   2  -2 -11 1696.71  116.27
   2  -2 -11 1704.30   80.17
  -2   2  11 1558.51   73.93
  -2   2  11 1678.03  171.20
   2  -2 -12 1541.59   67.31
   2  -2 -12 1656.69   86.24
  -2   2  12 1573.71   78.94
  -2   2  12 1585.80  117.04
   2  -2 -13   25.40    5.14
  -2   2  13   22.21    6.11
   2  -2 -14  275.01   19.16
  -2   2  14  183.06   14.57
   2  -2 -15  568.86   34.61
  -2   2  15  531.73   36.39
  -2   2  16  324.55   32.46
   2  -3   0 2949.37  106.05
   2  -3   0 3169.00  103.89
  -2   3   0 3104.48  105.46
  -2   3   0 3030.40  111.87
   2  -3  -1 1089.18   37.91
   2  -3  -1 1111.12   40.28
  -2   3   1 1117.68   37.93
  -2   3   1 1116.05   39.60
   2  -3  -2  918.12   32.90
   2  -3  -2  893.74   30.94
   2  -3  -2  923.66   35.87
  -2   3   2  919.52   30.97
  -2   3   2  947.46   37.79
   2  -3  -3 9684.19  322.89
   2  -3  -3 9446.39  336.29
  -2   3   3 9692.16  356.18
  -2   3   3 9712.59  387.76
   2  -3  -4  813.04   29.47
   2  -3  -4  776.66   28.50
   2  -3  -4 1077.43   70.39
  -2   3   4  904.80  113.46
  -2   3   4  782.74   28.51
  -2   3   4  778.04   27.64
   2  -3  -5  354.17   23.39
   2  -3  -5  371.01   51.91
  -2   3   5  310.88   59.59
  -2   3   5  213.61    8.06
   2  -3  -6 2107.76   79.42
   2  -3  -6 2280.29   87.54
   2  -3  -6 2434.57  183.52
  -2   3   6 2218.65  117.39
  -2   3   6 2138.14   72.11
  -2   3   6 2096.38   78.30
   2  -3  -7 2793.49   99.20
   2  -3  -7 2705.46  110.48
   2  -3  -7 2731.17   99.75
   2  -3  -7 2747.22  117.64
  -2   3   7 2689.07   95.94
  -2   3   7 2785.08  103.54
  -2   3   7 2825.32  107.20
   2  -3  -8 1864.20   65.54
   2  -3  -8 1936.13   68.14
   2  -3  -8 1904.56   68.12
   2  -3  -8 1827.20   85.53
  -2   3   8 1874.12   67.73
  -2   3   8 1899.55   68.64
   2  -3  -9  345.25   16.62
   2  -3  -9  388.04   17.64
   2  -3  -9  348.07   14.36
   2  -3  -9  329.42   18.87
  -2   3   9  369.04   16.36
  -2   3   9  338.85   13.75
   2  -3 -10   12.26    5.74
   2  -3 -10   61.17   12.62
   2  -3 -10   11.66    5.57
  -2   3  10   21.81    9.88
  -2   3  10    6.80    3.40
  -2   3  11 1566.92  100.37
   2  -3 -11 1654.42  101.22
  -2   3  11 1502.94  122.07
   2  -3 -12 1164.80   58.50
  -2   3  12 1203.49   48.00
   2  -3 -13   96.21    8.84
  -2   3  13   86.15   10.21
  -2   3  14  278.62   18.52
   2  -3 -15  228.49   17.78
  -2   3  15  219.83   18.05
  -2   3  16  217.19   22.66
   2  -4   0  872.65   30.95
  -2   4   0  925.89   33.98
   2  -4   0  893.10   32.51
  -2   4   0  878.89   31.34
   2  -4  -1    7.72    2.36
  -2   4   1    9.95    2.23
   2  -4  -1   14.98    2.52
  -2   4   1   15.86    3.02
   2  -4  -2  671.02   25.18
   2  -4  -2  653.57   22.75
   2  -4  -2  662.57   24.54
  -2   4   2  678.20   23.38
  -2   4   2  670.08   26.46
   2  -4  -3 2725.72   96.43
   2  -4  -3 2759.04   93.93
   2  -4  -3 2784.72  108.37
  -2   4   3 2779.62   92.11
  -2   4   3 2746.54   98.25
  -2   4   3 2752.75  109.06
   2  -4  -4 2096.27   75.86
   2  -4  -4 2124.13   68.50
   2  -4  -4 2250.57   78.25
  -2   4   4 2141.43   70.10
  -2   4   4 2139.81   73.79
  -2   4   4 2152.83   90.74
   2  -4  -5   24.87    3.86
   2  -4  -5    1.48    8.03
  -2   4   5    7.29    3.46
  -2   4   5   28.06    3.72
   2  -4  -6 4387.91  146.61
  -2   4   6 4322.79  140.18
  -2   4   6 4469.33  153.94
   2  -4  -6 4447.99  155.42
   2  -4  -7 3104.65  176.73
  -2   4   7 2971.99  110.51
   2  -4  -7 3092.30  118.83
   2  -4  -7 3050.07  106.33
  -2   4   7 3171.19  124.79
  -2   4   7 3003.52  133.67
   2  -4  -8  524.77   21.34
   2  -4  -8  533.58   19.64
   2  -4  -8  471.64   30.06
  -2   4   8  522.50   22.29
  -2   4   8  525.69   20.55
   2  -4  -9  234.10   11.94
   2  -4  -9  215.16   14.87
   2  -4  -9  222.90    9.83
  -2   4   9  244.63   10.86
  -2   4   9  234.68   11.39
   2  -4 -10   45.81    4.11
   2  -4 -10   64.02    5.77
  -2   4  10   68.40    6.18
  -2   4  10   60.29    4.25
   2  -4 -11 1388.37   54.01
  -2   4  11 1437.76   59.08
   2  -4 -12 1228.78   50.60
  -2   4  12 1255.12   52.12
   2  -4 -13   73.45    8.42
  -2   4  13   90.13    9.39
   2  -4 -14  183.56   14.65
  -2   4  14  154.35   14.50
  -2   4  15  321.65   26.23
   2  -5   0  125.11    6.26
   2  -5   0  124.23    6.91
  -2   5   0  130.34    7.42
  -2   5   0  135.73    6.66
   2  -5  -1   34.11    3.55
   2  -5  -1   31.86    3.39
  -2   5   1   35.00    3.52
  -2   5   1   25.85    3.28
   2  -5  -2 2962.68   99.71
   2  -5  -2 2987.67  108.53
  -2   5   2 3023.71  110.77
  -2   5   2 3027.08   99.62
   2  -5  -3 3354.04  118.71
   2  -5  -3 3289.68  128.03
   2  -5  -3 3468.11  126.05
  -2   5   3 3246.00  113.55
  -2   5   3 3344.73  123.24
  -2   5   3 3249.68  124.80
   2  -5  -4 2739.62   94.91
   2  -5  -4 2793.57   98.25
   2  -5  -4 2805.41  104.54
  -2   5   4 2772.42   93.72
  -2   5   4 2740.65   94.38
   2  -5  -5   38.79   11.07
   2  -5  -5    9.12    2.96
  -2   5   5    9.00    3.45
  -2   5   5   45.72   11.20
   2  -5  -6 1984.19   76.26
   2  -5  -6 1906.83   67.21
  -2   5   6 1823.46   70.09
  -2   5   6 1994.55   76.92
   2  -5  -7 1628.69   57.99
   2  -5  -7 1474.56   58.89
  -2   5   7 1607.72   57.16
   2  -5  -8  277.01   13.18
  -2   5   8  271.84   12.77
   2  -5  -9    1.92    3.57
  -2   5   9    4.12    3.98
   2  -5 -10  410.25   19.41
  -2   5  10  419.24   28.19
   2  -5 -11  954.77   37.39
  -2   5  11  939.03   43.14
   2  -5 -12 1164.35   45.06
  -2   5  12 1151.48   46.42
   2  -5 -13   76.74    9.29
  -2   5  13   78.13    9.29
  -2   5  14  235.29   19.18
   2  -5 -14  216.25   17.37
  -2   5  15  541.07   42.93
   2  -6   0   32.11    4.43
  -2   6   0   26.68    3.92
  -2   6   0   20.71    3.58
   2  -6   0   52.29    4.39
   2  -6  -1  491.07   18.42
   2  -6  -1  509.78   19.85
  -2   6   1  480.64   20.20
  -2   6   1  487.50   18.55
   2  -6  -2 2501.63   87.46
   2  -6  -2 2152.42   85.88
  -2   6   2 2100.01   81.41
  -2   6   2 2525.12   83.19
   2  -6  -3 2878.62  103.18
   2  -6  -3 2882.42  108.28
   2  -6  -3 3042.97  110.62
  -2   6   3 2867.21  104.72
  -2   6   3 3014.10  102.08
   2  -6  -4 2972.77  107.38
   2  -6  -4 2888.87  109.03
   2  -6  -4 3104.09  118.08
  -2   6   4 2813.98  101.53
  -2   6   4 2965.46   98.32
   2  -6  -5   90.58   40.61
  -2   6   5  236.55   24.73
   2  -6  -5  119.83   40.48
   2  -6  -6 2214.89   85.79
  -2   6   6 2177.93   86.42
  -2   6   7  964.40   39.09
   2  -6  -7  973.92   35.46
   2  -6  -8  106.25    7.57
  -2   6   8   95.96    7.43
  -2   6   9   62.27    7.19
   2  -6  -9   49.57    6.77
   2  -6 -10  144.91   10.98
  -2   6  10  146.17   11.68
   2  -6 -11 1094.01   52.56
  -2   6  11 1153.60   48.75
   2  -6 -12  935.21   45.95
  -2   6  12  945.22   46.64
   2  -6 -13   34.90    8.80
  -2   6  13   23.03    8.10
  -2   6  14  369.43   29.43
   2  -7   0  113.33    7.58
  -2   7   0   95.23    7.71
  -2   7   0  123.56    8.38
  -2   7   1 1278.48   44.33
   2  -7  -1 1277.62   45.77
  -2   7   2  811.77   35.09
   2  -7  -2  838.24   35.76
   2  -7  -3 1918.09   76.24
   2  -7  -3 1832.89   66.80
  -2   7   3 1812.31   62.60
   2  -7  -4 1847.69   70.31
   2  -7  -4 2001.44   80.18
  -2   7   4 1913.53   67.44
   2  -7  -5  440.11   20.18
  -2   7   5  435.86   17.77
   2  -7  -6 2546.48   97.63
  -2   7   6 2544.74  102.43
   2  -7  -7 1334.57   53.45
  -2   7   7 1358.75   51.56
   2  -7  -8  264.95   14.40
  -2   7   8  256.08   13.57
   2  -7  -9   37.88    7.77
  -2   7   9   57.17    7.22
   2  -7 -10  248.03   15.83
  -2   7  10  269.39   15.99
   2  -7 -11  851.71   35.98
  -2   7  11  832.17   35.55
   2  -7 -12  396.25   27.66
  -2   7  12  375.59   24.99
   2  -8   0   54.25    5.58
  -2   8   0   44.96    5.04
   2  -8  -1  196.97   10.83
  -2   8   1  196.30   10.97
   2  -8  -2 1111.44   42.32
  -2   8   2 1132.73   46.77
   2  -8  -3 1388.74   53.18
   2  -8  -3 1472.06   66.03
  -2   8   3 1412.67   50.31
   2  -8  -4  246.65   12.26
   2  -8  -4  228.16   10.35
  -2   8   4  247.66   12.52
   2  -8  -5  594.75   27.74
  -2   8   5  594.85   24.53
   2  -8  -6 1317.69   50.66
  -2   8   6 1319.37   55.35
   2  -8  -7 1908.71   69.18
  -2   8   7 1889.22   71.98
  -2   8   8   98.71    8.58
   2  -8  -8  122.48    9.42
  -2   8   9   19.63    5.99
   2  -8  -9   15.31    6.96
   2  -8 -10  342.53   19.46
  -2   8  10  310.88   23.62
   2  -8 -11  420.84   30.69
  -2   8  11  376.79   27.72
   2  -9   0   25.97    6.76
  -2   9   0   24.38    6.63
   2  -9  -1  493.72   21.70
  -2   9   1  488.15   21.04
   2  -9  -2  565.68   27.33
  -2   9   2  553.81   23.65
   2  -9  -3  973.32   35.71
  -2   9   3 1018.01   42.42
   2  -9  -4   73.83    7.18
  -2   9   4   91.60    8.64
   2  -9  -5  124.89   10.47
  -2   9   5  122.30    9.39
   2  -9  -6  925.43   39.01
  -2   9   6  906.91   43.29
   2  -9  -7 1293.60   49.78
  -2   9   7 1271.02   51.78
   2  -9  -8   41.17   10.92
  -2   9   8   37.44    9.53
   2  -9  -9  180.35   16.77
  -2   9   9  129.76   14.10
  -2   9  10  411.23   28.64
   2 -10   0   22.36    6.35
  -2  10   0   24.34    6.09
   2 -10  -1  690.88   29.11
  -2  10   1  705.43   30.42
   2 -10  -2  493.66   23.37
  -2  10   2  443.48   20.20
  -2  10   3  396.86   20.12
   2 -10  -3  405.12   20.39
   2 -10  -4   77.28   10.10
  -2  10   4   71.42   10.62
  -2  10   5   16.20    8.84
   2 -10  -6 1428.47   68.31
  -2  10   6 1492.49   70.88
  -2  10   7  620.95   34.75
   2 -10  -7  619.92   36.66
  -2  10   8    2.35    7.04
   2 -11   0  105.76   11.63
  -2  11   0  103.65   11.37
   2 -11  -1  530.77   23.92
  -2  11   1  533.91   25.75
   2 -11  -2  733.52   31.31
  -2  11   2  726.85   30.52
   2 -11  -3  146.28   14.65
  -2  11   3  157.72   14.12
  -2  11   4   29.19   10.88
  -2  11   5   84.68   14.05
  -2  11   6  769.24   55.64
  -2  12   0  154.78   16.88
  -2  12   1  469.30   28.59
  -2  12   2  365.70   25.66
   1  11  -1   67.09    8.47
   1  11  -1   46.12    9.46
   1  11  -2  486.79   22.78
   1  11  -2  461.70   28.24
   1  11  -3  932.25   38.08
   1  11  -3  833.52   49.42
  -1 -11   4  194.12   14.09
  -1 -11   5   10.36    5.58
  -1 -11   6  128.81   10.81
   1  10  -1  105.79    9.62
   1  10  -1   64.09    8.71
  -1 -10   1   84.51    8.71
   1  10  -2  749.02   30.45
  -1 -10   2  706.56   39.15
   1  10  -2  778.81   36.57
   1  10  -3 1079.79   37.32
   1  10  -3 1012.78   51.98
  -1 -10   3 1027.80   55.00
   1  10  -4  578.46   22.76
   1  10  -4  518.26   29.46
  -1 -10   5   19.52    7.22
  -1 -10   6  289.92   16.78
  -1 -10   7  311.68   17.29
  -1 -10   8  456.72   27.08
  -1 -10   9  158.49   14.24
   1   9  -1    5.12    3.45
  -1  -9   1    9.33    3.71
   1   9  -2  925.73   32.07
   1   9  -2  900.82   41.47
  -1  -9   2  937.72   37.07
   1   9  -3 1267.55   42.29
   1   9  -3 1175.86   61.77
  -1  -9   3 1246.77   52.51
   1   9  -4  587.67   23.12
   1   9  -4  530.19   31.50
  -1  -9   4  594.33   26.67
   1   9  -5   46.79    5.25
   1   9  -5   64.61    6.46
  -1  -9   5   27.42    5.65
   1   9  -6  564.14   23.69
  -1  -9   6  545.30   26.35
   1   9  -7  470.63   21.52
  -1  -9   7  468.20   24.24
  -1  -9   8  675.09   31.61
  -1  -9   9   90.84    9.44
  -1  -9  11  856.00   51.14
   1   8  -1   22.36    6.28
   1   8  -1   17.62    4.47
  -1  -8   1   20.56    4.47
   1   8  -2  650.39   23.12
   1   8  -2  668.87   28.08
   1   8  -2  576.73   32.26
   1   8  -2  604.88   32.61
  -1  -8   2  656.85   25.69
   1   8  -3 3018.76   97.08
   1   8  -3 2941.78  163.02
   1   8  -3 2866.62  170.77
   1   8  -3 2968.90  129.45
  -1  -8   3 3089.42  113.06
   1   8  -4  683.97   24.86
   1   8  -4  688.95   39.79
   1   8  -4  656.39   55.58
   1   8  -4  698.80   57.99
  -1  -8   4  735.13   34.67
   1   8  -5 1047.56   36.36
   1   8  -5  931.52   62.72
   1   8  -5  989.44   51.47
  -1  -8   5 1049.63   40.22
   1   8  -6  942.13   34.37
   1   8  -6  854.74   57.29
   1   8  -6  929.76   46.52
  -1  -8   6  970.38   38.17
   1   8  -7  378.04   16.19
  -1  -8   7  400.94   27.37
   1   8  -8 1096.89   45.87
  -1  -8   8 1068.40   47.20
   1   8  -9  420.43   19.60
  -1  -8   9  393.27   19.70
   1   8 -10  236.46   12.91
  -1  -8  10  215.24   13.29
  -1  -8  11 1644.92   73.57
  -1  -8  12  157.42   15.03
   1   7  -1   31.77    3.79
   1   7  -1   27.68    3.19
  -1  -7   1   34.31    3.70
  -1  -7   1   33.41    4.42
   1   7  -2 2201.07   92.63
   1   7  -2 2284.74   74.67
   1   7  -2 2276.32   89.29
   1   7  -2 2238.38   80.65
  -1  -7   2 2319.28   84.05
  -1  -7   2 2253.52  102.51
   1   7  -3 3508.75  119.95
   1   7  -3 3753.25  134.82
   1   7  -3 3466.41  149.31
   1   7  -3 3624.94  151.39
  -1  -7   3 3730.67  126.68
   1   7  -4  603.95   22.93
   1   7  -4  621.60   24.11
   1   7  -4  602.60   27.06
   1   7  -4  593.72   32.39
  -1  -7   4  595.70   21.85
   1   7  -5  551.53   19.54
   1   7  -5  568.14   23.97
   1   7  -5  512.14   34.75
   1   7  -5  551.72   25.30
  -1  -7   5  591.08   22.11
   1   7  -6  546.71   19.91
   1   7  -6  519.55   27.56
   1   7  -6  514.37   26.17
  -1  -7   6  552.20   24.64
   1   7  -7 1529.37   55.15
   1   7  -7 1478.25   94.66
   1   7  -7 1512.41   62.78
  -1  -7   7 1600.56   65.83
   1   7  -8  582.75   24.27
   1   7  -8  542.18   35.72
  -1  -7   8  641.23   25.66
   1   7  -9   65.51    6.38
  -1  -7   9   65.51    6.38
   1   7 -10  629.47   26.59
  -1  -7  10  567.30   23.70
   1   7 -11 1141.02   47.42
  -1  -7  11 1047.53   43.01
   1   7 -12  570.31   28.49
  -1  -7  12  546.61   30.18
  -1  -7  13   59.38    8.18
  -1  -7  14  194.60   19.73
   1   6  -1  123.03    6.87
   1   6  -1  128.81    6.14
   1   6  -1  122.49    6.77
  -1  -6   1  122.04    6.77
  -1  -6   1  131.65    6.62
   1   6  -2 2847.90  100.03
   1   6  -2 2827.33  103.79
   1   6  -2 2812.11  125.07
  -1  -6   2 2885.43  106.75
  -1  -6   2 2931.81  112.10
   1   6  -3 6530.62  213.54
   1   6  -3 6165.59  262.08
  -1  -6   3 6563.79  222.94
   1   6  -4 1004.28   38.12
   1   6  -4 1081.19   47.06
   1   6  -4 1105.70   86.42
   1   6  -4 1096.99   72.02
  -1  -6   4 1009.91   42.13
  -1  -6   4 1054.47   52.95
   1   6  -5  533.93   24.95
   1   6  -5  403.07   18.44
   1   6  -5  471.64   51.21
   1   6  -5  385.52   19.56
  -1  -6   5  556.79   21.61
   1   6  -6  842.29   29.36
   1   6  -6  890.89   32.91
   1   6  -6  798.33   35.04
   1   6  -6  807.30   31.47
  -1  -6   6  825.64   31.35
  -1  -6   6  790.40   40.75
   1   6  -7  935.91   50.63
   1   6  -7  953.67   44.86
  -1  -6   7  964.30   50.91
   1   6  -8  213.93   32.51
   1   6  -8  192.32   29.83
  -1  -6   8  224.51   37.73
   1   6  -9    8.69    4.68
   1   6  -9    8.56    5.44
  -1  -6   9   21.67    6.56
  -1  -6   9   14.85    6.29
   1   6 -10  981.53   35.89
   1   6 -10  998.97   46.97
  -1  -6  10  990.22   41.43
   1   6 -11 1238.00   47.68
  -1  -6  11 1211.39   51.19
   1   6 -12 1021.33   43.90
  -1  -6  12  977.85   48.07
   1   6 -13   30.51   12.48
  -1  -6  13   21.97   10.17
  -1  -6  13   11.12   10.05
  -1  -6  14  493.15   29.57
   1   5  -1  947.21   33.83
   1   5  -1  872.55   30.80
   1   5  -1  916.04   32.43
  -1  -5   1  865.41   31.93
  -1  -5   1  969.55   33.23
   1   5  -2 4041.17  137.34
   1   5  -2 3906.92  125.55
   1   5  -2 3835.50  144.14
   1   5  -2 3874.89  167.27
  -1  -5   2 3911.32  134.81
  -1  -5   2 3933.30  135.60
   1   5  -3 4223.36  143.00
   1   5  -3 4181.13  146.97
   1   5  -3 4052.21  157.10
   1   5  -3 3928.94  171.40
  -1  -5   3 4293.24  153.61
  -1  -5   3 4247.46  158.26
   1   5  -4  450.49   16.33
   1   5  -4  479.71   19.22
   1   5  -4  466.45   22.64
   1   5  -4  446.51   19.40
  -1  -5   4  439.13   17.66
  -1  -5   4  437.81   17.90
   1   5  -5  155.90    7.36
   1   5  -5  160.93    9.37
   1   5  -5  163.97    8.45
   1   5  -5  166.17    9.69
  -1  -5   5  145.46    8.43
  -1  -5   5  161.39    8.32
   1   5  -6 3273.20  127.99
   1   5  -6 3434.56  147.45
   1   5  -6 3160.69  154.33
  -1  -5   6 3228.54  120.75
   1   5  -6 3222.98  139.64
   1   5  -7 1418.18   53.75
   1   5  -7 1490.71   65.80
  -1  -5   7 1453.52   68.19
  -1  -5   7 1463.87   53.13
   1   5  -8  192.59   11.46
   1   5  -8  200.53   15.91
  -1  -5   8  186.74    9.74
  -1  -5   9    7.48    3.87
   1   5  -9   12.42    5.74
   1   5  -9    4.78    3.69
   1   5 -10  487.01   18.61
   1   5 -10  451.31   29.37
  -1  -5  10  454.75   22.95
   1   5 -11 1575.01   58.20
   1   5 -11 1635.81   71.83
  -1  -5  11 1534.17   60.00
   1   5 -12  830.07   33.55
  -1  -5  12  787.74   34.43
  -1  -5  12  837.84   42.57
   1   5 -13  117.77   10.56
  -1  -5  13  135.60   10.41
  -1  -5  13  109.70    9.87
  -1  -5  14  393.36   21.22
   1   5 -14  396.31   25.75
  -1  -5  14  347.17   28.29
  -1  -5  15  149.78   17.66
   1   4  -1   30.69    2.18
   1   4  -1   52.42    2.83
   1   4  -1   33.46    2.55
  -1  -4   1   37.14    2.93
  -1  -4   1   57.41    2.83
   1   4  -2 1751.66   77.69
   1   4  -2 1830.96   59.95
   1   4  -2 1930.84   65.86
   1   4  -2 1771.59   62.29
  -1  -4   2 1816.13   60.83
   1   4  -3 5912.63  203.48
   1   4  -3 5833.75  241.95
  -1  -4   3 5891.97  214.87
  -1  -4   3 6133.39  251.54
   1   4  -3 5991.62  222.03
   1   4  -3 6086.25  220.95
   1   4  -4  440.33   15.61
   1   4  -4  474.93   18.92
   1   4  -4  435.83   19.33
   1   4  -4  420.85   17.91
  -1  -4   4  414.97   15.33
  -1  -4   4  442.50   18.00
   1   4  -5 3343.25  113.78
   1   4  -5 3446.29  133.61
   1   4  -5 3475.23  143.70
   1   4  -5 3382.83  141.49
  -1  -4   5 3494.84  132.78
  -1  -4   5 3273.52  122.71
   1   4  -6 6502.60  233.79
   1   4  -6 6554.13  295.80
  -1  -4   6 6721.85  282.41
  -1  -4   6 6865.42  243.88
   1   4  -7 1344.21   52.37
   1   4  -7 1421.11   67.09
  -1  -4   7 1394.24   56.55
  -1  -4   7 1343.64   46.07
   1   4  -8  496.70   22.01
   1   4  -8  491.78   21.25
  -1  -4   8  469.10   20.50
  -1  -4   8  483.44   19.78
   1   4  -9   22.27    4.15
  -1  -4   9   19.30    4.49
   1   4 -10  245.27   11.23
   1   4 -10  239.60   15.59
  -1  -4  10  247.10   12.18
   1   4 -11 1500.22  107.59
  -1  -4  11 1555.10   59.13
   1   4 -11 1550.92   56.55
  -1  -4  12  608.13   27.45
  -1  -4  12  632.61   27.49
   1   4 -12  637.01   27.20
   1   4 -13  267.90   14.80
  -1  -4  13  232.33   16.85
  -1  -4  13  266.51   14.81
  -1  -4  14  679.47   32.26
   1   4 -14  669.93   36.38
  -1  -4  14  658.75   37.33
   1   4 -15  376.44   25.07
  -1  -4  15  375.44   32.62
  -1  -4  15  392.90   23.48
   1   3  -1 1030.83   35.75
   1   3  -1 1082.59   36.34
   1   3  -1 1083.31   37.55
   1   3  -1 1032.67   44.02
  -1  -3   1 1093.04   37.21
  -1  -3   1 1087.95   37.46
  -1  -3   1 1081.61   42.85
   1   3  -2 5348.48  189.01
   1   3  -2 5342.83  195.49
   1   3  -2 5373.88  228.68
   1   3  -2 5019.10  216.15
  -1  -3   2 5429.57  203.33
  -1  -3   2 5454.30  205.79
   1   3  -3 2319.65   79.16
   1   3  -3 2355.44   86.23
   1   3  -3 2381.08   87.48
   1   3  -3 2307.53   95.21
  -1  -3   3 2269.52   84.23
  -1  -3   3 2389.13   88.71
   1   3  -4  472.56   19.48
   1   3  -4  414.26   15.72
   1   3  -4  707.86  364.17
   1   3  -4  412.28   16.66
  -1  -3   4  402.18   14.54
  -1  -3   4  580.06   76.50
   1   3  -5 3091.74  122.10
  -1  -3   5 3019.21  125.76
  -1  -3   5 2950.13  103.74
   1   3  -5 2882.97  119.72
   1   3  -6 5668.49  222.79
  -1  -3   6 5465.68  193.40
   1   3  -6 5472.77  235.80
  -1  -3   6 5569.27  206.52
  -1  -3   7 2441.73  170.11
   1   3  -7 2293.84  158.53
   1   3  -7 2406.74  171.28
   1   3  -8   52.72    6.56
   1   3  -8   46.56    4.51
  -1  -3   8   49.25    4.65
  -1  -3   8   46.01    5.86
   1   3  -9   24.12    6.63
   1   3  -9   29.59    4.09
  -1  -3   9   32.99    4.66
  -1  -3   9   33.27    6.91
  -1  -3   9   39.97    9.51
   1   3 -10  589.21   23.04
  -1  -3  10  630.68   23.27
   1   3 -10  612.64   30.68
  -1  -3  10  556.87   22.59
   1   3 -11 1812.96   90.14
  -1  -3  11 1787.06   86.02
  -1  -3  11 1812.27   68.64
   1   3 -11 1955.11  148.65
   1   3 -12  524.13   56.51
  -1  -3  12  538.53   51.27
  -1  -3  12  486.81   22.08
   1   3 -13  328.87   19.14
  -1  -3  13  323.91   19.28
  -1  -3  13  354.98   16.80
   1   3 -14  590.70   30.61
  -1  -3  14  630.98   39.58
  -1  -3  14  642.69   28.45
   1   3 -15  723.21   39.60
  -1  -3  15  746.10   57.25
  -1  -3  15  732.41   50.40
  -1  -3  16   81.09   14.10
   1   2  -1 1418.01   50.81
   1   2  -1 1410.31   49.83
   1   2  -1 1476.69   55.44
  -1  -2   1 1471.47   55.41
  -1  -2   1 1499.45   54.46
  -1  -2   1 1444.67   57.80
   1   2  -2 4314.65  150.69
   1   2  -2 4008.83  149.86
   1   2  -2 4253.34  151.47
   1   2  -2 4017.45  156.76
  -1  -2   2 4238.22  146.90
  -1  -2   2 4018.82  152.46
  -1  -2   2 3912.50  178.21
   1   2  -3 7796.71  332.87
   1   2  -3 8059.75  316.26
   1   2  -3 7907.05  292.96
  -1  -2   3 7806.62  299.38
  -1  -2   3 7921.38  289.17
   1   2  -4 1626.36  143.08
   1   2  -4 1436.73  122.86
  -1  -2   4 1556.04   95.39
  -1  -2   4 1826.91  124.28
  -1  -2   4 1542.02   90.96
   1   2  -5 3061.45  116.18
   1   2  -5 3076.02  125.62
  -1  -2   5 3070.30  130.66
  -1  -2   5 3082.16  115.01
  -1  -2   5 3085.28  121.77
   1   2  -6 4018.13  155.40
   1   2  -6 3947.78  157.41
  -1  -2   6 3996.84  152.34
  -1  -2   6 4051.21  155.04
  -1  -2   6 4245.77  162.13
   1   2  -7  788.88   31.62
   1   2  -7  801.79   40.88
  -1  -2   7  793.28   35.57
  -1  -2   7  758.56   32.46
  -1  -2   7  793.69   29.39
   1   2  -8   47.41    5.42
   1   2  -8   60.12   10.82
  -1  -2   8   33.46    4.33
  -1  -2   8   48.41    4.10
  -1  -2   8   37.48    3.53
  -1  -2   9  192.73   10.94
  -1  -2   9  171.36    8.15
   1   2  -9  214.08   11.66
   1   2  -9  168.72   10.13
   1   2 -10 1534.81   63.05
   1   2 -10 1688.81   70.03
  -1  -2  10 1597.33   58.43
  -1  -2  10 1559.76   54.26
   1   2 -11 2789.32  184.26
  -1  -2  11 2695.53   99.41
  -1  -2  11 2610.06   89.65
   1   2 -11 2654.38  110.37
  -1  -2  12  339.01   22.13
  -1  -2  12  296.64   15.46
  -1  -2  12  301.98   14.31
   1   2 -12  343.20   45.33
   1   2 -13  121.44   10.74
  -1  -2  13  123.02    9.89
  -1  -2  13  132.66    9.22
   1   2 -14  751.97   36.58
  -1  -2  14  769.18   36.17
   1   2 -15  769.78   46.15
  -1  -2  15  712.37   44.73
  -1  -2  15  801.39   48.32
  -1  -2  16   87.18   11.53
  -1  -1   1 3197.46  128.36
   1   1  -1 3322.30  135.86
  -1  -1   1 3293.09  112.70
  -1  -1   1 2529.66  145.09
   1   1  -2 3688.09  125.38
   1   1  -2 2997.79  152.81
  -1  -1   2 3152.31  154.07
  -1  -1   2 3644.30  130.50
   1   1  -2 3386.36  147.96
  -1  -1   2 3413.63  149.64
  -1  -1   2 3541.05  140.15
   1   1  -3 6433.06  280.12
   1   1  -3 6094.75  310.29
   1   1  -3 6535.39  237.16
  -1  -1   3 5929.28  350.73
  -1  -1   3 6308.37  339.40
  -1  -1   3 6289.76  253.97
   1   1  -4  889.41  154.60
  -1  -1   4  614.87  175.36
  -1  -1   4  662.82  219.40
  -1  -1   4  548.71  170.21
   1   1  -5 1555.70   69.82
   1   1  -5 1589.59   66.80
  -1  -1   5 1662.22   64.91
  -1  -1   5 1603.87   69.52
  -1  -1   5 1631.02   61.68
   1   1  -6 6125.01  269.28
   1   1  -6 6332.40  249.39
  -1  -1   6 6749.05  246.78
  -1  -1   6 6272.15  242.38
   1   1  -7 1367.97   54.52
  -1  -1   7 1312.26   49.36
   1   1  -7 1338.60   52.33
  -1  -1   7 1455.45   56.02
  -1  -1   7 1371.05   51.60
   1   1  -8  313.37   88.79
  -1  -1   8   69.65   38.55
  -1  -1   8  108.55   44.08
  -1  -1   8  141.22   30.96
   1   1  -9 1027.24   42.51
   1   1  -9 1093.35   43.83
  -1  -1   9 1093.08   44.70
  -1  -1   9 1040.35   43.41
  -1  -1   9 1059.34   44.95
  -1  -1  10  929.73   38.76
   1   1 -10  890.10   39.18
   1   1 -10  935.75   34.27
  -1  -1  10  913.66   37.20
   1   1 -11 1593.88   97.45
   1   1 -11 1708.28  124.57
  -1  -1  11 1593.68   87.09
  -1  -1  11 1510.15   92.99
   1   1 -12  680.90   53.45
  -1  -1  12  605.10   45.32
  -1  -1  12  586.20   40.37
   1   1 -13   33.59    6.89
  -1  -1  13   22.83    6.75
  -1  -1  13   28.22    5.42
   1   1 -14 1893.03   83.90
  -1  -1  14 2036.34   84.11
   1   1 -15  429.17   28.30
  -1  -1  15  397.94   28.86
   1   1 -16   22.37    9.17
  -1  -1  16    7.64    7.64
  -1  -1  17   86.32   13.89
   1   0  -1 2583.93  309.82
  -1   0   1  355.41   71.77
  -1   0   1   99.86   33.25
  -1   0   1 1841.50  227.76
   1   0  -2 7486.52  355.03
  -1   0   2 5774.43  381.08
  -1   0   2 8122.66  288.98
  -1   0   2 8474.86  291.10
   1   0  -3 1031.22   41.55
   1   0  -3 1166.16   43.34
  -1   0   3 1020.21   37.17
  -1   0   3  984.51   44.35
  -1   0   3  885.83   52.91
   1   0  -4  577.68   27.63
   1   0  -4  621.20   24.43
   1   0  -4  610.79   43.75
  -1   0   4  636.87   27.15
  -1   0   4  578.16   30.90
  -1   0   4  598.56   27.49
   1   0  -5 3639.30  169.12
   1   0  -5 4079.83  182.70
   1   0  -5 3888.95  209.09
  -1   0   5 4128.75  200.34
  -1   0   5 3879.87  158.55
  -1   0   5 3931.17  200.57
   1   0  -6 6218.93  306.06
   1   0  -6 6804.23  275.49
  -1   0   6 7146.70  296.43
  -1   0   6 6916.85  324.09
   1   0  -7 1448.21  313.60
   1   0  -7 1364.33  201.80
  -1   0   7 1191.14   46.86
  -1   0   7 1182.15   66.02
  -1   0   7 1119.96   58.04
   1   0  -8  176.96  119.36
   1   0  -8  121.36   35.48
  -1   0   8   90.51    5.66
  -1   0   8   96.70   18.22
  -1   0   8   94.64   11.70
   1   0  -9  553.69   31.59
   1   0  -9  578.36   25.30
  -1   0   9  602.43   25.17
  -1   0   9  615.25   25.01
  -1   0   9  615.11   25.20
   1   0 -10 1345.88   60.79
   1   0 -10 1429.70   61.36
  -1   0  10 1480.87   57.94
  -1   0  10 1373.97   58.54
   1   0 -11 1191.78   79.87
  -1   0  11 1301.41   51.66
   1   0 -11 1186.99   50.45
   1   0 -12  466.99  138.68
  -1   0  12  396.66   22.95
  -1   0  13  306.19   16.89
   1   0 -13  280.58   17.16
   1   0 -14 1260.94   60.45
  -1   0  14 1338.67   65.42
   1   0 -15  392.41   25.25
  -1   0  15  378.48   27.77
   1   0 -16   -9.42    8.59
  -1   0  16   -5.96    8.04
  -1   0  17   82.76   15.10
  -1   1   0 6338.51  503.29
   1  -1  -1 1384.28   48.54
   1  -1  -1 1386.90   46.70
   1  -1  -1 1036.57   71.36
  -1   1   1 1121.56   58.67
  -1   1   1  935.55   77.02
  -1   1   1 1381.60   49.25
   1  -1  -2 4398.64  152.94
   1  -1  -2 4325.82  163.94
   1  -1  -2 4282.53  157.51
  -1   1   2 4390.19  155.41
  -1   1   2 4416.60  170.43
  -1   1   2 4471.33  157.13
   1  -1  -3 2745.68  100.27
   1  -1  -3 2845.65  108.05
   1  -1  -3 2863.46  103.84
   1  -1  -3 2663.51  118.05
  -1   1   3 2882.48  102.13
  -1   1   3 2755.81  114.67
  -1   1   3 2817.95  102.71
   1  -1  -4  802.94   30.38
   1  -1  -4  842.56   29.75
   1  -1  -4  736.63   31.35
  -1   1   4  821.31   32.01
  -1   1   4  808.51   29.57
   1  -1  -5 5142.32  202.79
   1  -1  -5 5339.51  195.88
   1  -1  -5 4959.31  203.63
  -1   1   5 5446.86  226.63
  -1   1   5 5297.98  196.51
   1  -1  -6 4817.18  185.58
   1  -1  -6 5217.76  205.98
   1  -1  -6 4858.28  206.68
  -1   1   6 5251.57  171.64
  -1   1   6 5025.17  183.87
   1  -1  -7 1035.17   39.18
   1  -1  -7 1085.63   42.95
  -1   1   7 1116.21   37.65
  -1   1   7 1074.44   38.35
   1  -1  -8  470.17   20.86
   1  -1  -8  503.58   23.46
   1  -1  -8  471.31   19.27
  -1   1   8  508.47   20.65
  -1   1   8  480.51   19.30
   1  -1  -9 1274.11   48.61
   1  -1  -9 1394.85   55.65
   1  -1  -9 1311.16   50.43
  -1   1   9 1431.45   52.57
  -1   1   9 1292.50   50.04
   1  -1 -10  934.20   37.46
  -1   1  10  941.49   33.30
   1  -1 -10  908.28   34.57
   1  -1 -11  778.64   30.14
  -1   1  11  866.39   31.88
   1  -1 -12  549.03   24.25
  -1   1  12  594.09   25.97
   1  -1 -13  503.30   22.97
  -1   1  13  515.85   27.19
   1  -1 -14 1570.55   73.63
  -1   1  14 1635.14   77.30
   1  -1 -15  501.28   29.44
  -1   1  15  522.40   33.76
  -1   1  16   -3.31    9.80
   1  -2   0  662.60   22.61
   1  -2   0  648.47   22.75
  -1   2   0  630.50   21.97
  -1   2   0  658.64   22.22
   1  -2  -1 4273.97  170.28
   1  -2  -1 4238.46  143.69
  -1   2   1 4281.98  146.45
  -1   2   1 4285.83  170.53
   1  -2  -2 1353.64   50.36
   1  -2  -2 1342.06   46.34
   1  -2  -2 1353.78   50.39
  -1   2   2 1339.07   50.04
  -1   2   2 1339.83   49.21
  -1   2   2 1306.30   55.11
   1  -2  -3 3791.43  136.41
   1  -2  -3 3839.21  132.48
   1  -2  -3 3785.75  155.00
  -1   2   3 3841.16  131.73
  -1   2   3 3803.51  136.41
  -1   2   3 3756.54  139.16
   1  -2  -4   42.76    3.45
   1  -2  -4   53.68    5.49
   1  -2  -4   53.35    2.96
  -1   2   4   65.66   36.72
  -1   2   4   49.37    3.71
  -1   2   4   53.10    3.97
   1  -2  -5 5919.46  211.61
   1  -2  -5 6002.65  217.75
   1  -2  -5 6179.54  273.32
   1  -2  -5 6244.12  246.17
  -1   2   5 6139.55  220.24
  -1   2   5 5918.40  210.68
  -1   2   5 5993.71  223.93
   1  -2  -6 3877.46  140.07
   1  -2  -6 4182.80  139.42
   1  -2  -6 4094.12  160.60
  -1   2   6 4300.45  142.11
  -1   2   6 4013.91  140.70
   1  -2  -7  525.13   49.89
   1  -2  -7  477.29   16.89
   1  -2  -7  435.80   17.90
  -1   2   7  495.64   37.86
  -1   2   7  581.81   67.02
   1  -2  -8  194.78   22.97
   1  -2  -8  205.66    9.81
  -1   2   8  196.56   11.31
  -1   2   8  209.41   22.56
   1  -2  -9 1259.69   45.82
   1  -2  -9 1301.72   51.10
   1  -2  -9 1223.45   50.86
  -1   2   9 1335.27   52.61
  -1   2   9 1321.09   46.14
   1  -2 -10 1134.68   46.98
   1  -2 -10 1118.45   51.90
   1  -2 -10 1124.30   45.38
  -1   2  10 1168.74   52.86
   1  -2 -11  868.60   40.31
   1  -2 -11  854.06   52.15
  -1   2  11  932.53   43.97
   1  -2 -12   11.06    4.48
  -1   2  12   14.98    4.76
  -1   2  13  399.19   20.20
   1  -2 -13  425.45   18.96
   1  -2 -14 1156.08   60.04
  -1   2  14 1213.53   55.10
   1  -2 -15  542.49   30.96
  -1   2  15  555.60   38.28
  -1   2  16   13.34   10.59
   1  -3   0  623.69   22.41
   1  -3   0  675.60   22.85
  -1   3   0  647.44   22.82
  -1   3   0  651.90   22.96
   1  -3  -1 9576.33  342.46
   1  -3  -1 9573.68  327.41
  -1   3   1 9527.89  332.41
  -1   3   1 9554.38  354.50
   1  -3  -2 2288.74  106.08
   1  -3  -2 1780.18   70.30
  -1   3   2 2297.80   81.56
  -1   3   2 1715.84   72.28
   1  -3  -3  384.54   31.49
   1  -3  -3  439.88   60.78
  -1   3   3  407.71   24.31
  -1   3   3  451.73   23.23
   1  -3  -4 1135.14   42.60
   1  -3  -4 1142.74   44.90
  -1   3   4 1125.22   38.21
  -1   3   4 1123.20   40.37
   1  -3  -5 2426.42   88.56
   1  -3  -5 2372.44   77.07
   1  -3  -5 2341.25   90.78
  -1   3   5 2363.04   77.31
  -1   3   5 2449.69   92.13
  -1   3   5 2369.57   96.55
   1  -3  -6 5860.71  215.96
   1  -3  -6 6024.31  194.43
   1  -3  -6 5887.54  223.15
  -1   3   6 6067.84  211.00
  -1   3   6 5936.00  216.80
  -1   3   6 5899.58  216.75
   1  -3  -7 2883.08  101.02
   1  -3  -7 2936.69  119.77
   1  -3  -7 2817.24  141.14
  -1   3   7 2944.40  141.77
  -1   3   7 2884.69  108.84
  -1   3   7 2839.27  101.52
   1  -3  -8  850.74   71.47
   1  -3  -8  859.68   77.34
   1  -3  -8  860.61  107.94
  -1   3   8  920.27   51.61
  -1   3   8  945.86   44.75
  -1   3   8  946.91   43.92
   1  -3  -9 1557.80   64.66
   1  -3  -9 1635.54   52.97
   1  -3  -9 1574.88   69.23
  -1   3   9 1611.12   62.37
  -1   3   9 1688.40   68.81
   1  -3 -10  314.76   29.36
   1  -3 -10  286.39   24.69
  -1   3  10  361.95   17.25
   1  -3 -11  280.72   40.23
  -1   3  11  331.99   21.28
   1  -3 -12   41.34   12.90
  -1   3  12   60.20    8.88
   1  -3 -13  415.29   22.01
  -1   3  13  414.18   21.59
   1  -3 -14 1548.43   71.02
  -1   3  14 1617.03   80.82
   1  -3 -15  379.41   26.42
  -1   3  15  405.19   25.47
  -1   3  16    8.65   12.91
   1  -4   0 4796.79  172.39
   1  -4   0 4954.48  164.31
  -1   4   0 4802.00  171.48
  -1   4   0 4790.08  169.28
   1  -4  -1 5433.35  199.87
   1  -4  -1 5788.58  215.90
  -1   4   1 5698.06  212.85
  -1   4   1 5421.09  203.81
   1  -4  -2 1573.22   54.92
   1  -4  -2 1631.09   53.32
  -1   4   2 1570.82   54.64
  -1   4   2 1581.17   54.54
   1  -4  -3  768.99   60.41
   1  -4  -3  326.10   22.25
   1  -4  -3  542.57   62.36
  -1   4   3  451.42   85.50
  -1   4   3  843.37   53.83
   1  -4  -4  794.15   28.47
   1  -4  -4  807.08   29.87
  -1   4   4  787.32   28.02
  -1   4   4  768.08   27.41
   1  -4  -5 3430.22  123.57
   1  -4  -5 3547.75  124.60
  -1   4   5 3536.18  127.68
  -1   4   5 3420.76  119.32
   1  -4  -6 5079.89  204.09
   1  -4  -6 5014.36  179.48
   1  -4  -6 4722.81  177.47
  -1   4   6 4934.38  180.58
   1  -4  -7 1121.66   41.56
   1  -4  -7 1131.19   42.12
   1  -4  -7 1096.17   44.59
  -1   4   7 1122.47   63.30
  -1   4   7 1195.18   61.65
   1  -4  -8  997.74   46.16
   1  -4  -8  955.60   40.82
   1  -4  -8  909.50   55.01
   1  -4  -8  995.39   50.55
  -1   4   8  872.39   94.88
  -1   4   8 1007.46   42.78
  -1   4   8  874.62   51.59
   1  -4  -9  823.14   34.37
   1  -4  -9  816.77   34.07
   1  -4  -9  827.18   47.44
  -1   4   9  846.62   37.92
  -1   4   9  832.32   31.22
   1  -4 -10 1074.92   39.21
   1  -4 -10 1022.77   42.55
   1  -4 -10 1048.89   59.79
  -1   4  10 1059.83   51.77
  -1   4  10  989.20   53.67
   1  -4 -11  231.89   13.45
  -1   4  11  184.42   21.42
   1  -4 -12   23.09    6.08
  -1   4  12    9.40    5.81
   1  -4 -13  437.06   22.95
  -1   4  13  428.77   25.83
   1  -4 -14  715.37   37.94
  -1   4  14  741.93   39.19
  -1   4  15  411.02   26.04
   1  -5   0 5325.12  185.19
   1  -5   0 5413.32  192.24
  -1   5   0 5301.63  179.45
  -1   5   0 5365.61  182.64
   1  -5  -1 4704.97  164.42
   1  -5  -1 4827.31  157.55
  -1   5   1 4822.82  159.26
  -1   5   1 4741.66  163.92
   1  -5  -2  934.01   33.34
   1  -5  -2  946.39   33.01
  -1   5   2  930.90   35.55
  -1   5   2  932.63   32.11
   1  -5  -3   11.10    2.71
   1  -5  -3   10.50    2.33
   1  -5  -3    9.82    1.06
  -1   5   3    7.26    2.33
  -1   5   3   10.85    2.59
  -1   5   4  325.80   24.42
   1  -5  -4  348.68   17.76
  -1   5   4  245.83   11.26
   1  -5  -5 1366.74   50.60
   1  -5  -5 1380.35   46.46
  -1   5   5 1349.83   46.44
  -1   5   5 1340.98   47.55
  -1   5   6 3956.64  129.53
   1  -5  -6 4027.44  136.68
  -1   5   6 3978.52  141.28
   1  -5  -7  270.88   33.73
  -1   5   7   90.93    7.48
  -1   5   7  146.07   49.42
   1  -5  -8 1402.18   56.29
   1  -5  -8 1283.37   53.45
  -1   5   8 1380.27   50.47
   1  -5  -9 2074.97   76.95
   1  -5  -9 1915.87   91.75
  -1   5   9 2040.24   77.88
   1  -5 -10  916.99   40.92
  -1   5  10  930.92   43.12
   1  -5 -11  209.63   24.49
  -1   5  11  155.33   11.78
   1  -5 -12   43.76    9.70
  -1   5  12   40.02    7.07
   1  -5 -13  286.06   18.09
  -1   5  13  270.02   16.43
   1  -5 -14  635.17   37.47
  -1   5  14  665.56   44.52
   1  -6   0 4151.20  153.17
   1  -6   0 4027.76  152.49
  -1   6   0 3953.48  171.21
  -1   6   0 4145.49  151.76
  -1   6   1 5934.52  197.01
  -1   6   1 5494.95  187.67
   1  -6  -1 5870.17  217.93
   1  -6  -1 5542.25  203.12
  -1   6   2  590.45   23.21
   1  -6  -2  576.14   23.02
   1  -6  -2  560.87   23.19
  -1   6   2  568.31   23.66
   1  -6  -3  105.50    6.38
   1  -6  -3  111.98    7.91
  -1   6   3  103.80    6.25
   1  -6  -4   78.87    4.87
   1  -6  -4   76.50    6.04
  -1   6   4   72.81    5.30
  -1   6   4   84.76    5.65
   1  -6  -5  781.02   29.94
  -1   6   5  731.99   28.64
  -1   6   5  767.70   31.24
   1  -6  -6 3244.36  115.49
  -1   6   6 3279.32  119.34
   1  -6  -7   13.69    4.88
  -1   6   7   11.66    5.69
   1  -6  -8 1207.54   52.29
  -1   6   8 1210.28   49.98
   1  -6  -9 2457.51   96.33
  -1   6   9 2468.87  101.25
   1  -6 -10  421.80   22.10
  -1   6  10  424.03   19.77
  -1   6  11  183.79   12.25
   1  -6 -11  181.57   12.25
   1  -6 -12   10.15    5.84
  -1   6  12   -1.11    5.56
   1  -6 -13  291.04   20.13
  -1   6  13  282.69   18.88
   1  -7   0 4553.71  152.92
  -1   7   0 4685.08  183.61
  -1   7   0 4556.38  149.29
  -1   7   0 4391.74  210.42
   1  -7  -1 1348.09   45.80
  -1   7   1 1273.46   50.73
  -1   7   1 1323.60   44.50
  -1   7   1 1294.08   59.52
  -1   7   2  624.24   23.34
   1  -7  -2  611.72   24.76
  -1   7   2  649.94   24.61
   1  -7  -3   70.17    5.35
  -1   7   3  102.41    8.16
  -1   7   3   75.49    5.87
   1  -7  -4  475.68   21.12
  -1   7   4  428.32   23.85
  -1   7   4  474.01   17.85
  -1   7   5 3325.27  129.08
  -1   7   6  709.63   29.22
   1  -7  -6  692.25   27.75
   1  -7  -7   20.23    9.50
  -1   7   7   77.90   32.44
   1  -7  -8  145.84    9.62
  -1   7   8  143.92   10.71
   1  -7  -9 1267.09   51.83
  -1   7   9 1288.20   54.03
   1  -7 -10  486.01   24.59
  -1   7  10  498.92   22.12
  -1   7  11    7.94    6.27
   1  -7 -11   13.37    6.55
  -1   7  12  217.27   15.71
   1  -7 -12  224.40   19.06
   1  -8   0 1961.78   66.67
  -1   8   0 1759.36   81.12
  -1   8   0 1940.85   64.84
  -1   8   0 1839.42   94.65
   1  -8  -1 3383.30  119.05
  -1   8   1 3432.79  113.78
   1  -8  -2  377.37   17.46
  -1   8   2  403.95   15.92
   1  -8  -3  885.09   37.48
  -1   8   3  885.83   32.54
   1  -8  -4  466.40   20.49
  -1   8   4  441.18   18.77
  -1   8   5 1062.02   45.72
   1  -8  -6  872.64   40.03
  -1   8   6  910.79   38.17
   1  -8  -7  570.48   27.62
  -1   8   7  617.66   25.88
   1  -8  -8  818.46   34.20
  -1   8   8  800.87   34.18
  -1   8   9 1229.25   54.29
   1  -8  -9 1213.68   52.23
  -1   8  10  195.26   15.07
   1  -8 -10  142.13   14.49
   1  -8 -11   41.51   12.30
  -1   8  11   48.92   12.02
   1  -9   0 1120.41   41.68
  -1   9   0 1121.31   40.64
   1  -9  -1 1390.22   52.56
  -1   9   1 1376.56   52.94
   1  -9  -2  100.09    9.50
  -1   9   2  101.77    8.46
   1  -9  -3  273.76   14.54
  -1   9   3  299.28   13.89
   1  -9  -4 1124.77   46.59
  -1   9   4 1108.23   41.59
   1  -9  -5  717.05   32.75
  -1   9   5  699.32   31.54
   1  -9  -6  475.76   22.71
  -1   9   6  464.19   22.96
   1  -9  -7  147.20   12.52
  -1   9   7  159.77   11.98
  -1   9   8  686.82   32.63
   1  -9  -8  681.26   31.26
   1  -9  -9 1127.01   52.51
  -1   9   9 1111.44   53.59
  -1   9  10  176.84   18.42
   1 -10   0  959.68   38.34
  -1  10   0  957.56   37.43
   1 -10  -1 1081.16   46.88
  -1  10   1 1053.58   42.21
   1 -10  -2   33.69    6.90
  -1  10   2   14.96    4.94
   1 -10  -3  295.11   15.59
  -1  10   3  291.65   17.41
   1 -10  -4  772.42   38.45
  -1  10   4  776.50   36.61
   1 -10  -5  266.64   17.32
  -1  10   5  288.76   17.46
   1 -10  -6  419.10   23.06
  -1  10   6  385.15   21.44
   1 -10  -7   53.98   13.02
  -1  10   7   50.17   14.51
  -1  10   8  572.20   33.34
  -1  10   9  693.81   43.91
   1 -11   0 1154.45   49.31
  -1  11   0 1136.59   48.40
   1 -11  -1 1110.06   54.54
  -1  11   1 1069.45   51.03
   1 -11  -2   46.97    9.24
  -1  11   2   42.15    6.77
   1 -11  -3  363.64   23.70
  -1  11   3  365.37   20.31
   1 -11  -4  257.89   19.77
  -1  11   4  229.29   16.21
  -1  11   5  121.99   13.42
  -1  11   6  235.24   22.69
  -1  11   7  -14.75    8.93
  -1  12   0  685.34   40.25
  -1  12   1  529.16   30.37
  -1  12   2   30.96   10.28
   0  11  -1  549.94   25.38
   0 -11   1  515.00   26.51
   0  11  -2  583.59   27.06
   0 -11   2  554.57   35.09
   0  11  -3  254.95   14.85
   0 -11   3  226.03   17.07
   0 -11   4   46.45   10.02
   0 -11   5  731.80   38.16
   0 -11   6  795.15   41.90
   0  10  -1  365.32   17.31
   0 -10   1  371.14   18.21
   0 -10   2  750.69   32.66
   0  10  -3  201.09    9.87
   0 -10   3  186.35   11.17
   0  10  -4  234.48   12.97
   0 -10   4  206.23   13.75
   0  10  -5 1179.23   51.11
   0 -10   5 1152.09   57.23
   0  10  -6 1048.35   41.35
   0 -10   6 1068.60   42.30
   0  10  -7   29.32    6.92
   0 -10   7   17.00    6.91
   0 -10   8   88.82   11.29
   0   9  -1  587.86   34.22
   0   9  -1  607.25   22.72
   0  -9   1  603.05   24.13
   0   9  -2  389.52   17.42
   0   9  -2  355.59   22.93
   0  -9   2  401.28   17.81
   0   9  -3  266.89   11.92
   0   9  -3  250.53   18.03
   0  -9   3  248.32   12.84
   0   9  -4  214.18   15.96
   0  -9   4  206.57   13.80
   0   9  -5 2386.12   94.52
   0   9  -5 2182.54   95.59
   0  -9   5 2350.14   99.96
   0   9  -6 1963.93   80.72
   0  -9   6 1919.81   86.65
   0   9  -7    1.79    4.56
   0  -9   7   11.60    5.38
   0   9  -8   97.01   10.27
   0  -9   8  106.71   10.28
   0   9  -9  170.16   11.75
   0  -9   9  162.56   12.29
   0   9 -10  329.43   19.45
   0  -9  10  327.54   22.19
   0   8  -1 1087.87   48.01
   0   8  -1 1126.30   39.24
   0   8  -1 1123.23   45.78
   0  -8   1 1111.39   41.43
   0   8  -2  775.20   29.17
   0   8  -2  782.85   36.28
   0   8  -2  718.94   36.89
   0  -8   2  757.64   31.25
   0   8  -3  297.79   12.25
   0   8  -3  287.80   19.02
   0   8  -3  306.27   19.83
   0  -8   3  286.75   15.56
   0   8  -4  363.21   14.47
   0   8  -4  365.70   20.35
   0   8  -4  321.25   24.70
   0  -8   4  400.20   18.66
   0   8  -5 2958.87   99.39
   0   8  -5 2992.03  148.66
   0   8  -5 2622.74  145.66
   0  -8   5 3025.99  108.88
   0   8  -6 1265.12   42.37
   0   8  -6 1140.71   70.48
   0   8  -6 1256.05   54.66
   0  -8   6 1239.87   48.70
   0   8  -7   31.56    4.67
   0  -8   7   26.35    5.08
   0   8  -8   57.62    7.97
   0  -8   8   52.41    7.97
   0   8  -9  556.83   22.15
   0  -8   9  551.09   23.76
   0   8 -10  458.67   20.87
   0  -8  10  444.16   23.27
   0   8 -11  119.98    9.54
   0  -8  11  105.18    9.66
   0   8 -12   68.06    9.36
   0  -8  12   60.93    8.81
   0   7  -1 1772.28   65.48
   0   7  -1 1801.65   64.33
   0   7  -1 1795.53   72.57
   0  -7   1 1865.53   67.06
   0  -7   1 1739.54   78.57
   0   7  -2 1456.09   56.68
   0   7  -2 1367.68   46.11
   0   7  -2 1464.67   57.95
   0   7  -2 1407.43   59.98
   0  -7   2 1445.91   53.49
   0  -7   2 1381.87   67.84
   0   7  -3  179.34    8.36
   0   7  -3  203.71   10.37
   0   7  -3  178.40    9.28
   0  -7   3  180.64    8.89
   0   7  -4  697.09   39.70
   0   7  -4  447.63   22.55
   0  -7   4  658.35   75.01
   0   7  -5 2976.96  100.17
   0   7  -5 3021.95  131.03
   0  -7   5 3029.03  101.16
   0   7  -6 1165.09   40.07
   0   7  -6 1162.61   59.20
   0  -7   6 1180.20   48.43
   0   7  -7   11.54    3.67
   0   7  -7   17.53    4.92
   0   7  -7   10.48    1.21
   0  -7   7   14.39    3.94
   0   7  -8  960.82   33.77
   0   7  -8  962.27   58.22
   0  -7   8  886.75   32.88
   0   7  -9  765.21   28.18
   0  -7   9  765.65   30.18
   0   7 -10  625.62   24.40
   0  -7  10  604.64   24.50
   0   7 -11  321.39   16.02
   0  -7  11  275.12   14.20
   0   7 -12   -4.76    7.48
   0  -7  12   -1.09    6.26
   0  -7  12   -0.14    9.38
   0   7 -13  446.96   31.13
   0  -7  13  420.81   37.03
   0   6  -1 2519.95  100.02
   0   6  -1 2594.18   85.50
   0   6  -1 2487.55  175.24
   0  -6   1 2589.03   92.47
   0  -6   1 2581.60  100.07
   0   6  -2  592.52   23.43
   0   6  -2  605.61   21.25
   0   6  -2  633.59   24.23
   0   6  -2  585.55   24.35
   0  -6   2  623.65   22.97
   0  -6   2  639.62   24.74
   0   6  -3  274.89   13.76
   0   6  -3  268.06   11.87
   0  -6   3  273.68   19.67
   0  -6   3  266.00   19.05
   0   6  -4 1191.92   43.23
   0   6  -4 1157.71   42.46
   0  -6   4 1129.95   40.30
   0  -6   4 1141.47   49.43
   0   6  -5 2706.93  106.56
   0  -6   5 2675.35  117.97
   0   6  -5 2713.33   92.59
   0  -6   5 2754.08  102.77
   0   6  -6 1498.85   60.27
   0   6  -6 1387.59   48.69
   0   6  -6 1482.52   65.52
   0  -6   6 1350.17   47.60
   0   6  -7    5.76    3.08
   0   6  -7    3.84    3.44
   0  -6   7    8.57    3.08
   0  -6   8 1779.90   80.57
   0   6  -8 1772.20   73.80
   0   6  -8 1801.48   92.93
   0   6  -9 1979.95   73.99
   0   6  -9 2115.16  102.82
   0  -6   9 2108.71   78.76
   0   6 -10  703.62   27.81
   0  -6  10  751.38   31.44
   0   6 -11  184.76   11.72
   0  -6  11  200.96   12.53
   0  -6  12   36.62    8.55
   0   6 -12   17.77    5.97
   0   6 -13  385.34   22.27
   0  -6  13  391.44   22.28
   0   6 -14  838.13   50.88
   0  -6  14  802.04   62.05
   0  -6  15   -4.76    8.30
   0   5  -1 2791.21   97.57
   0   5  -1 2806.81   99.29
   0   5  -1 2722.40  114.87
   0  -5   1 2809.91  108.87
   0  -5   1 2846.81  106.16
   0   5  -2  337.51   16.97
   0   5  -2  354.25   15.97
   0  -5   2  328.98   13.65
   0  -5   2  353.88   13.17
   0   5  -2  337.79   17.74
   0   5  -3  227.82   18.68
   0  -5   3  226.89   12.52
   0  -5   3  258.40   20.38
   0   5  -3  251.02   14.84
   0   5  -4  972.14   44.00
   0  -5   4 1008.96   36.67
   0  -5   4 1022.08   35.61
   0   5  -4  980.43   41.71
   0   5  -5 4535.18  155.97
   0   5  -5 4941.10  215.79
   0  -5   5 4603.63  155.50
   0   5  -5 4791.38  194.73
   0   5  -6 3689.93  127.21
   0   5  -6 4001.74  168.09
   0   5  -6 3748.28  145.06
   0  -5   6 3538.49  127.91
   0  -5   6 3947.78  174.42
   0  -5   6 3722.35  128.29
   0   5  -7  197.32    9.46
   0   5  -7  224.72   10.94
   0  -5   7  210.10   12.25
   0  -5   7  199.05    8.93
   0   5  -8 1998.84   68.70
   0   5  -8 2161.29   89.69
   0  -5   8 2042.77   72.15
   0   5  -9 1103.33   64.32
   0  -5   9 1137.61   42.42
   0   5  -9 1072.29   39.84
   0   5 -10  276.49   14.03
   0  -5  10  273.75   13.76
   0   5 -10  229.15   25.36
   0   5 -11  240.34   10.99
   0  -5  11  240.87   12.61
   0   5 -12  108.51    9.31
   0  -5  12   88.99    9.57
   0   5 -13 1186.24   52.07
   0  -5  13 1185.46   53.96
   0  -5  13 1180.42   61.04
   0   5 -14  907.19   53.02
   0  -5  14  862.44   59.51
   0  -5  15    5.05    9.42
   0   4  -1 2735.69   98.52
   0   4  -1 2654.00   93.63
   0  -4   1 2681.26   96.11
   0  -4   1 2771.88   96.92
   0   4  -2 2212.04   79.43
   0   4  -2 2264.06   78.81
   0  -4   2 2226.73   80.24
   0  -4   2 2247.01   80.19
   0   4  -3  408.08   14.86
   0   4  -3  396.17   15.31
   0  -4   3  395.85   14.73
   0  -4   3  412.21   15.07
   0  -4   4 2811.10  108.91
   0   4  -4 2611.26   92.03
   0   4  -4 2758.45  101.56
   0  -4   4 2575.64   95.02
   0   4  -5 5142.72  190.40
   0   4  -5 5375.48  198.93
   0  -4   5 5348.16  201.51
   0  -4   5 5156.53  181.45
   0   4  -6 1837.73   70.09
   0   4  -6 1890.89   67.69
   0  -4   6 1884.06   71.86
   0  -4   6 1851.66   70.09
   0   4  -7   35.02    3.33
   0   4  -7   40.52    3.99
   0  -4   7   33.89    4.39
   0  -4   7   31.95    3.47
   0   4  -8 1369.19   52.94
   0   4  -8 1450.75   52.94
   0  -4   8 1387.55   55.15
   0  -4   8 1380.11   55.07
   0   4  -9 1571.18  106.01
   0   4  -9 1409.65   69.83
   0  -4   9 1589.64  133.04
   0   4 -10  205.68   18.60
   0   4 -10  186.76   15.22
   0  -4  10  191.89   20.92
   0   4 -11   29.85    5.39
   0  -4  11   26.11    5.81
   0  -4  12  224.34   19.98
   0   4 -12  244.87   28.84
   0  -4  12  219.75   16.95
   0   4 -13 1349.17   56.85
   0  -4  13 1286.19   54.05
   0  -4  13 1272.37   63.60
   0   4 -14  826.72   43.32
   0  -4  14  804.45   44.13
   0   4 -15   70.10   11.00
   0  -4  15   78.76   12.79
   0  -4  16  106.61   15.05
   0   3  -1 4851.92  173.84
   0   3  -1 4946.95  180.56
   0  -3   1 4921.19  184.06
   0  -3   1 5047.41  183.20
   0   3  -2   31.39    2.12
   0   3  -2   57.69    3.51
   0  -3   2   25.96    2.12
   0  -3   2   38.42    2.21
   0   3  -3  856.78   34.05
   0   3  -3  887.20   33.82
   0  -3   3  874.85   34.45
   0  -3   3  866.79   35.49
   0   3  -4 1460.46   58.86
   0   3  -4 1513.95   55.31
   0   3  -4 1529.89   64.11
   0  -3   4 1510.64   55.18
   0  -3   4 1487.47   59.65
   0   3  -5 7504.96  315.78
   0   3  -5 8122.69  287.11
   0  -3   5 8082.74  281.27
   0  -3   5 7591.70  300.98
   0   3  -6 2541.52   99.31
   0   3  -6 2408.50   93.15
   0  -3   6 2518.47   96.53
   0  -3   6 2340.44   93.49
   0  -3   7  129.50    6.94
   0   3  -7  112.35    6.33
   0   3  -7  128.53    6.00
   0  -3   7  134.12    6.61
   0  -3   8 3338.94  124.82
   0   3  -8 3370.84  133.86
   0   3  -8 3586.02  150.18
   0  -3   8 3457.64  162.37
   0  -3   9 1012.93   36.14
   0   3  -9 1061.53   61.46
   0   3  -9 1074.47   43.45
   0   3 -10  347.20   16.32
   0   3 -10  352.21   18.65
   0  -3  10  359.30   15.20
   0  -3  10  348.87   14.43
   0   3 -11   18.80    4.10
   0  -3  11   14.98    3.68
   0  -3  11   25.98    3.87
   0   3 -12  241.52   13.73
   0  -3  12  245.61   13.87
   0  -3  12  237.77   11.30
   0  -3  13 1321.32   59.47
   0   3 -13 1276.05   52.47
   0  -3  13 1283.90   67.53
   0   3 -14  452.51   22.86
   0  -3  14  500.58   26.92
   0   3 -15   50.45    8.73
   0  -3  15   44.49    8.60
   0  -3  16  237.40   25.87
   0   2  -1 7246.66  259.45
   0  -2   1 7141.31  268.69
   0  -2   1 7403.63  271.94
   0   2  -2 3604.29  137.60
   0   2  -2 3660.41  130.84
   0  -2   2 3719.83  142.97
   0  -2   2 3575.22  135.41
   0   2  -3 1075.59   43.67
   0   2  -3 1091.86   42.21
   0  -2   3 1095.76   40.54
   0  -2   3 1072.21   41.21
   0   2  -4 3958.26  183.26
   0   2  -4 4248.51  155.24
   0  -2   4 4207.55  145.97
   0  -2   4 3910.61  163.27
   0   2  -5 3719.39  137.92
   0   2  -5 3810.00  138.09
   0  -2   5 3766.73  129.81
   0  -2   5 3779.72  138.61
   0   2  -6 2463.23  101.34
   0   2  -6 2535.31   98.60
   0  -2   6 2577.88   86.22
   0  -2   6 2476.30  100.33
   0   2  -7  375.47   16.05
   0   2  -7  365.99   15.24
   0  -2   7  389.12   16.23
   0  -2   7  368.91   16.05
   0  -2   7  354.18   15.01
   0   2  -8 3802.88  148.09
   0   2  -8 3842.73  164.24
   0  -2   8 3977.42  151.63
   0  -2   8 3809.28  153.97
   0  -2   8 3601.22  158.76
   0  -2   8 3844.32  141.66
   0   2  -9 2517.98   96.39
   0   2  -9 2598.99   90.18
   0  -2   9 2689.74  102.41
   0  -2   9 2613.71  109.99
   0  -2   9 2562.34  102.80
   0   2 -10  343.23   14.27
   0   2 -10  342.64   18.85
   0  -2  10  348.56   16.44
   0  -2  10  351.14   15.11
   0  -2  10  376.85   13.77
   0   2 -11   -0.58    3.03
   0  -2  11    1.87    3.03
   0  -2  11    5.29    1.29
   0  -2  11    6.27    3.27
   0   2 -12  278.13   14.66
   0  -2  12  312.25   16.25
   0  -2  12  279.58   12.91
   0   2 -13  406.71   20.12
   0  -2  13  434.03   21.41
   0  -2  13  438.97   24.63
   0   2 -14  781.73   37.49
   0  -2  14  782.67   37.50
   0   2 -15   29.99    6.28
   0  -2  15   22.88    7.81
   0  -2  16  572.91   61.10
   0   1  -1 2832.86  303.45
   0  -1   1   73.38   21.68
   0  -1   1   -0.52    0.52
   0   1  -2  343.85   12.85
   0   1  -2  339.28   13.07
   0  -1   2  286.92   13.05
   0  -1   2  241.19   15.60
   0   1  -3 2011.59  271.91
   0   1  -3 1720.80   73.59
   0  -1   3 1758.83   69.14
   0   1  -4 5999.19  324.10
   0   1  -4 6125.72  312.83
   0  -1   4 6131.77  281.82
   0   1  -5  860.07   75.53
   0   1  -5  789.91   29.87
   0  -1   5  800.11   31.47
   0  -1   5  893.30   58.45
   0   1  -6 1361.45   56.78
   0   1  -6 1411.89   50.76
   0  -1   6 1457.78   52.97
   0  -1   6 1406.61   55.01
   0  -1   6 1360.59   52.90
   0   1  -7  313.67   25.43
   0   1  -7  322.13   26.78
   0  -1   7  343.87   18.52
   0  -1   7  331.12   18.13
   0  -1   7  292.14   11.63
   0   1  -8 3800.94  191.75
   0   1  -8 4118.71  230.38
   0  -1   8 4247.87  180.12
   0  -1   8 3902.77  143.79
   0  -1   8 3623.11  151.23
   0   1  -9 3272.13  204.62
   0   1  -9 3191.59  184.28
   0  -1   9 3425.17  164.80
   0  -1   9 3335.44  124.33
   0  -1   9 3316.88  156.14
   0  -1  10  124.96    6.05
   0   1 -10  119.75    6.92
   0  -1  10  118.44    7.22
   0  -1  10  133.01    7.33
   0   1 -10  113.50    8.29
   0  -1  11  195.42   12.27
   0   1 -11  181.41   15.90
   0  -1  11  195.15   10.40
   0  -1  12  335.12   17.96
   0  -1  12  357.74   17.81
   0  -1  12  373.42   21.86
   0   1 -12  321.35   24.14
   0   1 -13  750.67   39.71
   0  -1  13  798.11   39.88
   0   1 -14  924.73   47.26
   0  -1  14  978.52   47.43
   0   1 -15   -5.46    7.70
   0  -1  15   -2.80    8.54
   0  -1  16  627.60   54.88
   0   0   2  653.29   50.09
   0   0   2  307.73   37.94
   0   0  -2  974.58   54.57
   0   0   2 1164.92   46.77
   0   0  -3   61.30    3.18
   0   0  -3   60.34    2.62
   0   0   3   53.30    2.73
   0   0   3   52.16    3.05
   0   0  -3   57.02    3.35
   0   0   3   51.40    2.31
   0   0   4  157.82    7.70
   0   0   4  141.84    7.31
   0   0   4  183.11    6.96
   0   0  -4  149.43    6.55
   0   0  -4  157.98    7.10
   0   0   5 6322.74  265.94
   0   0   5 6286.84  268.71
   0   0  -5 6139.08  293.20
   0   0   5 6048.32  268.25
   0   0  -5 6297.59  261.78
   0   0   6 2376.22   84.95
   0   0   6 2301.21   97.70
   0   0   6 2338.70   93.55
   0   0  -6 2237.74  105.17
   0   0  -6 2354.93   88.20
   0   0  -7 2521.62  106.94
   0   0   7 2738.59   91.40
   0   0   7 2577.88  104.73
   0   0   7 2601.28  113.06
   0   0  -7 2777.50  115.48
   0   0   8 4946.38  178.33
   0   0   8 5277.40  247.15
   0   0  -8 5208.95  229.30
   0   0  -8 4778.90  216.75
   0   0   8 5361.46  186.10
   0   0   9 1441.12   55.45
   0   0   9 1465.26   54.98
   0   0  -9 1447.07   56.44
   0   0  -9 1449.29   61.80
   0   0  10  140.78    8.82
   0   0 -10  138.13    8.52
   0   0 -10  144.16   11.52
   0   0  11  311.03   13.58
   0   0 -11  307.06   14.88
   0   0  12  427.36   18.38
   0   0  12  456.87   20.97
   0   0 -12  436.66   23.40
   0   0  13 1310.75   53.63
   0   0  13 1249.53   64.42
   0   0 -13 1280.58   58.86
   0   0  14  608.63   31.04
   0   0 -14  587.48   30.18
   0   0  15   -0.14    5.03
   0   0 -15    0.70    5.73
   0   0  16  743.44   61.24
   0  -1  -1    8.48    3.47
   0   1   1  917.70   75.15
   0   1   1  601.91   75.97
   0  -1  -1  113.31   21.40
   0  -1  -2 1317.12   53.70
   0   1   2 1317.43   53.71
   0   1   2 1307.72   49.68
   0  -1  -2 1273.84   50.22
   0   1   3 6601.84  266.53
   0   1   3 6478.36  256.96
   0  -1  -3 6346.32  263.63
   0  -1  -3 6624.32  243.39
   0  -1  -4 5546.48  220.36
   0   1   4 5622.86  421.51
   0   1   4 5456.01  352.61
   0  -1  -4 5511.42  255.76
   0  -1  -4 5718.49  300.51
   0   1   5 1873.79   75.56
   0   1   5 1805.34   78.81
   0  -1  -5 1790.15   73.03
   0  -1  -5 1764.50   68.06
   0  -1  -5 1852.21   70.66
   0   1   6  208.18   42.51
   0   1   6  218.32   42.83
   0  -1  -6  294.99   43.86
   0  -1  -6  277.51   66.30
   0  -1  -6  299.60   40.24
   0   1   7  607.04   21.88
   0  -1  -7  613.70   27.80
   0  -1  -7  614.20   22.79
   0   1   7  587.87   23.59
   0  -1  -7  565.28   24.45
   0   1   8 3153.37  123.50
   0   1   8 3166.28  189.81
   0  -1  -8 3158.53  175.27
   0  -1  -8 3388.06  237.65
   0  -1  -8 3246.36  187.93
   0   1   9 3589.66  155.55
   0   1   9 3577.14  138.55
   0  -1  -9 3433.18  148.05
   0  -1  -9 3698.19  212.96
   0   1  10   33.98    4.34
   0  -1 -10   24.87    4.77
   0  -1 -10   21.58    4.86
   0   1  11  364.92   15.74
   0  -1 -11  355.78   17.45
   0   1  12  464.14   22.78
   0   1  13  715.19   34.71
   0  -1 -13  726.95   36.40
   0   1  14  270.88   19.71
   0   1  14  294.81   21.95
   0  -1 -14  350.94   28.71
   0   1  15   19.37    7.94
   0  -1 -15    6.55    8.50
   0   1  16  499.74   46.17
   0   2   0 4233.07  153.91
   0   2   0 4226.28  154.61
   0  -2   0 3861.14  166.17
   0  -2   0 4271.83  153.97
   0  -2  -1  715.23   30.49
   0   2   1  716.59   25.88
   0   2   1  734.60   25.68
   0  -2  -1  733.41   25.55
   0  -2  -1  721.46   26.37
   0  -2  -2 2671.89  101.46
   0   2   2 2666.83  103.38
   0   2   2 2666.82  104.67
   0  -2  -2 2655.61  103.86
   0   2   3 7400.90  259.41
   0   2   3 7194.98  292.78
   0  -2  -3 7270.72  276.99
   0  -2  -3 7447.08  283.82
   0   2   4 5217.19  189.65
   0   2   4 5096.81  179.73
   0  -2  -4 5054.66  184.86
   0  -2  -4 5154.74  193.28
   0   2   5 2820.35  109.68
   0   2   5 2541.45   94.78
   0  -2  -5 2490.90  102.34
   0  -2  -5 2900.23  140.44
   0  -2  -6  178.60    7.19
   0   2   6  171.46    9.14
   0   2   6  163.05    7.32
   0  -2  -6  170.30    8.86
   0  -2  -6  174.54    8.20
   0   2   7  410.56   18.05
   0   2   7  386.84   14.36
   0  -2  -7  375.51   14.64
   0  -2  -7  415.62   20.69
   0  -2  -7  413.04   16.53
   0   2   8 2896.46  108.86
   0   2   8 2782.58   93.97
   0  -2  -8 2635.45  107.88
   0  -2  -8 2780.77  107.67
   0   2   9 3396.70  153.89
   0   2   9 3446.13  125.68
   0  -2  -9 3295.49  155.88
   0  -2  -9 3237.69  130.77
   0  -2  -9 3042.69  117.33
   0   2  10   30.27    4.69
   0  -2 -10   28.99    5.12
   0  -2 -10   24.84    3.11
   0   2  11  583.53   25.36
   0  -2 -11  544.85   23.79
   0   2  12  801.87   32.26
   0  -2 -12  741.72   29.00
   0   2  13  263.97   14.53
   0  -2 -13  238.75   14.23
   0   2  14  452.87   24.40
   0  -2 -14  416.46   22.71
   0   2  15   19.71    8.47
   0  -2 -15   -5.27    8.19
   0   3   0 7097.17  268.02
   0   3   0 7104.65  277.55
   0  -3   0 7157.13  293.02
   0  -3   0 7186.42  245.58
   0   3   1 3574.36  122.95
   0   3   1 3467.08  127.22
   0  -3  -1 3491.37  126.61
   0  -3  -1 3599.51  122.48
   0   3   2 1601.96   61.58
   0   3   2 1505.81   54.84
   0  -3  -2 1508.96   54.85
   0  -3  -2 1607.17   54.81
   0  -3  -2 1521.06   55.43
   0  -3  -2 1481.83   63.53
   0   3   3 7037.61  236.19
   0   3   3 7048.11  247.54
   0  -3  -3 7142.28  249.83
   0  -3  -3 7015.07  231.93
   0   3   4 2522.67   87.22
   0   3   4 2462.62   88.21
   0  -3  -4 2500.23  101.50
   0  -3  -4 2530.23   84.31
   0   3   5 1700.53   66.37
   0   3   5 1758.47   66.92
   0   3   5 1730.64   74.13
   0  -3  -5 1789.53   66.00
   0  -3  -5 1777.62   59.95
   0   3   6   69.78    5.14
   0   3   6   68.99    4.25
   0  -3  -6   66.80    4.66
   0  -3  -6   70.02    5.01
   0   3   7  241.01   11.78
   0   3   7  228.44   11.10
   0  -3  -7  214.33   10.27
   0  -3  -7  237.86   10.85
   0   3   8 4177.13  150.13
   0  -3  -8 3943.71  156.21
   0  -3  -8 4251.85  179.97
   0   3   9  981.80   40.91
   0   3   9  976.52   36.48
   0  -3  -9  982.60   36.62
   0  -3  -9  972.84   40.62
   0   3  10   75.63    7.71
   0  -3 -10   68.92    6.73
   0  -3 -10   69.35    6.36
   0   3  11  672.61   28.77
   0  -3 -11  678.38   30.44
   0  -3 -11  651.40   37.96
   0   3  12 1091.28   46.21
   0  -3 -12 1048.90   41.60
   0   3  13  692.99   31.31
   0  -3 -13  630.18   29.75
   0   3  14  221.56   14.78
   0  -3 -14  225.46   14.92
   0   3  15   16.75    7.89
   0   3  15    5.99    6.71
   0  -3 -15    9.00    6.09
   0   4   0 6002.94  208.22
   0   4   0 5713.58  205.24
   0   4   0 5873.12  216.06
   0  -4   0 5774.75  206.40
   0  -4   0 6052.28  201.09
   0   4   1 4857.51  168.22
   0   4   1 4648.33  165.47
   0  -4  -1 4555.42  169.46
   0  -4  -1 4899.45  164.81
   0   4   2  900.43   30.54
   0   4   2  847.85   31.24
   0  -4  -2  908.33   32.92
   0  -4  -2  926.92   33.13
   0  -4  -3 5822.84  226.90
   0   4   3 5587.78  199.93
   0   4   3 5921.25  233.21
   0  -4  -3 5677.64  204.91
   0   4   4 2200.79  176.46
   0   4   4 2482.67   97.52
   0  -4  -4 2374.04  201.56
   0  -4  -4 2102.39  102.29
   0   4   5  260.21   46.08
   0   4   5  194.29   14.74
   0  -4  -5  198.99   14.47
   0  -4  -5  195.54   28.38
   0   4   6   10.55    3.81
   0   4   6   21.12    3.39
   0  -4  -6   12.86    2.98
   0  -4  -6   16.26    3.18
   0   4   7  287.30   27.95
   0   4   7  249.80   11.40
   0  -4  -7  242.56   11.53
   0  -4  -7  236.97   11.88
   0   4   8 4028.57  190.40
   0   4   8 4327.14  170.12
   0  -4  -8 4207.59  168.28
   0   4   9  890.39   35.69
   0   4   9  911.76   38.18
   0  -4  -9  866.28   33.75
   0  -4  -9  862.28   49.04
   0   4  10   19.30    5.70
   0   4  10   19.75    2.07
   0  -4 -10   22.08    6.25
   0  -4 -10   27.21    4.70
   0   4  11 1298.70   48.45
   0  -4 -11 1193.71   51.70
   0   4  12  535.98   35.74
   0  -4 -12  526.52   26.17
   0  -4 -13  255.22   15.08
   0   4  13  290.41   17.17
   0   4  14   97.29   11.53
   0  -4 -14  106.45   10.98
   0   5   0 6595.36  218.15
   0   5   0 6396.91  223.85
   0   5   0 6554.12  245.78
   0  -5   0 6394.37  227.14
   0  -5   0 6297.01  213.81
   0   5   1 1534.35   53.20
   0   5   1 1523.55   58.93
   0  -5  -1 1546.96   61.22
   0  -5  -1 1561.87   52.12
   0   5   2 2598.67   97.68
   0   5   2 2567.81   88.26
   0  -5  -2 2597.44   97.93
   0   5   3 3516.19  133.49
   0  -5  -3 3583.50  130.33
   0   5   3 3499.30  129.21
   0  -5  -3 3571.79  120.22
   0  -5  -3 3592.11  136.87
   0   5   4 2624.72   95.93
   0   5   4 2586.35   90.20
   0  -5  -4 2619.66  105.79
   0  -5  -4 2611.63  107.65
   0   5   5  354.76   19.35
   0   5   5  401.69   20.31
   0  -5  -5  336.11   50.11
   0  -5  -5  307.29   62.91
   0  -5  -5  288.71   37.72
   0   5   6   55.71    6.10
   0   5   6   49.58    4.05
   0  -5  -6   46.89    5.66
   0  -5  -6   34.07    5.47
   0   5   7 1486.68   53.68
   0   5   7 1476.30   56.30
   0  -5  -7 1510.35   58.89
   0   5   8 2840.70   99.59
   0  -5  -8 2817.15  134.56
   0   5   9 1060.08   47.71
   0  -5  -9 1078.97   49.91
   0   5  10   29.07    4.99
   0  -5 -10   18.41    5.26
   0   5  11  673.03   30.88
   0  -5 -11  676.20   28.40
   0   5  12  415.58   21.11
   0  -5 -12  379.01   33.28
   0   5  13  160.82   13.37
   0  -5 -13  142.19   18.50
   0   5  14    1.11    9.16
   0   6   0 4574.21  152.88
   0   6   0 4550.67  153.51
   0   6   0 4226.86  187.93
   0  -6   0 4724.55  164.18
   0  -6   0 4593.35  179.35
   0   6   1  379.84   16.92
   0   6   1  382.26   15.28
   0  -6  -1  384.85   15.03
   0  -6  -1  402.42   15.57
   0   6   2 1991.86   74.62
   0   6   2 2029.58   70.85
   0  -6  -2 2068.98   74.32
   0  -6  -2 1996.19   84.21
   0   6   3 2469.84   89.67
   0   6   3 2515.55   91.63
   0  -6  -3 2532.52   96.54
   0  -6  -3 2445.65   89.66
   0  -6  -3 2527.78   91.01
   0   6   4 1534.58   76.45
   0   6   4 1538.12   82.25
   0  -6  -4 1536.28   56.15
   0  -6  -4 1539.85   66.08
   0   6   5  274.62   28.26
   0   6   5  322.25   27.28
   0  -6  -5  343.08   15.49
   0   6   6   13.03    4.55
   0   6   6    7.13    4.17
   0  -6  -6    5.65    3.09
   0   6   7 2593.28  109.61
   0  -6  -7 2602.40  106.12
   0   6   8 1352.15   81.17
   0  -6  -8 1465.78   53.08
   0  -6  -8 1150.17   60.17
   0   6   9  633.77   28.43
   0  -6  -9  686.66   28.05
   0   6  10   11.76    7.47
   0  -6 -10   22.14    7.61
   0   6  11  455.64   24.43
   0  -6 -11  431.76   21.11
   0   6  12  748.28   38.78
   0  -6 -12  738.26   36.56
   0   6  13   93.69   12.26
   0  -6 -13  109.69   12.41
   0   7   0 2128.77   77.82
   0   7   0 2174.32   70.65
   0   7   0 1956.91   86.06
   0  -7   0 2170.44   77.15
   0  -7   0 2147.29   84.90
   0   7   1  381.79   15.18
   0   7   1  379.53   14.93
   0  -7  -1  399.11   16.34
   0   7   2  168.41    7.97
   0   7   2  166.23    7.99
   0  -7  -2  156.88    8.50
   0   7   3 3815.31  152.44
   0   7   3 3900.26  133.71
   0  -7  -3 3899.62  144.54
   0  -7  -3 3835.77  135.52
   0   7   4 1300.15   55.85
   0   7   4 1326.90   56.82
   0  -7  -4 1367.23   55.68
   0   7   5   40.52    6.62
   0   7   5   66.76   17.92
   0  -7  -5  100.23   15.41
   0   7   6  591.86   24.88
   0  -7  -6  609.21   27.44
   0   7   7  195.62   14.96
   0  -7  -7  220.60   19.30
   0   7   8  868.35   37.66
   0  -7  -8  901.52   36.33
   0   7   9 1317.31   52.49
   0  -7  -9 1403.99   58.01
   0   7  10  156.07   12.77
   0  -7 -10  154.82   13.33
   0   7  12  356.25   22.83
   0   7  13   19.26   10.88
   0   8   0 1544.87   67.93
   0   8   0 1552.92   59.64
   0  -8   0 1546.24   57.85
   0   8   1  125.42    9.72
   0   8   1  117.98    7.32
   0  -8  -1  130.16    7.58
   0   8   2  904.75   53.45
   0   8   2  944.54   35.72
   0  -8  -2  978.14   35.61
   0  -8  -2  961.05   51.70
   0   8   3 2169.51  119.50
   0   8   3 2131.00   76.68
   0  -8  -3 2149.30   86.75
   0  -8  -3 2282.10   87.18
   0   8   4  563.44   25.82
   0  -8  -4  530.94   28.17
   0   8   5   44.29    5.84
   0  -8  -5   34.62    5.31
   0   8   6  300.60   15.24
   0  -8  -6  273.45   14.57
   0   8   7  514.68   21.08
   0  -8  -7  533.06   25.80
   0   8   8  623.77   27.47
   0  -8  -8  646.68   29.39
   0   8   9  176.90   12.45
   0  -8  -9  186.97   12.46
   0   8  10  124.17   10.56
   0  -8 -10  135.81   12.64
   0   8  11  668.83   41.45
   0   8  12  496.07   32.02
   0   9   0  369.53   22.02
   0   9   0  383.84   17.32
   0  -9   0  396.99   17.45
   0   9   1   22.99    4.50
   0  -9  -1   20.81    4.63
   0   9   2 1197.48   45.37
   0  -9  -2 1202.20   44.48
   0   9   3 2497.41   93.84
   0  -9  -3 2444.43   99.51
   0   9   4 1035.93   46.01
   0  -9  -4 1049.04   45.12
   0   9   5   23.33    6.76
   0  -9  -5   20.02    7.56
   0   9   6  179.97   12.77
   0  -9  -6  189.40   12.38
   0   9   7  152.87   11.68
   0  -9  -7  145.59   11.00
   0   9   8  495.06   29.27
   0  -9  -8  468.75   27.63
   0   9   9  249.27   21.00
   0   9  10  186.80   18.75
   0  10   0  228.15   12.15
   0 -10   0  217.44   14.45
   0  10   1   18.14    5.15
   0 -10  -1   -0.26    5.15
   0  10   2  612.57   27.09
   0 -10  -2  580.93   27.86
   0 -10  -3 1891.97   70.03
   0  10   3 1937.25   74.16
   0  10   4  612.51   27.43
   0  10   5   78.81    8.35
   0 -10  -5   65.58    8.35
   0  10   6  231.83   14.25
   0 -10  -6  218.23   16.38
   0  10   7  192.16   18.97
   0  10   8  445.13   31.93
   0  11   0  333.54   18.36
   0 -11   0  331.07   17.46
   0  11   1   31.82    7.09
   0 -11  -1   31.04    6.96
   0  11   2  259.19   16.70
   0 -11  -2  221.64   17.34
   0  11   3  692.51   39.91
   0 -11  -3  695.11   43.55
   0  11   4  173.76   16.55
   0  11   5   51.50   13.77
   1 -12   1  287.57   19.83
   1 -12   2   15.04    8.97
   1 -11   1   49.48    7.88
  -1  11  -1   54.86    7.62
   1 -11   2   35.09   10.20
  -1  11  -2   19.07    6.76
   1 -11   3  135.71   13.95
  -1  11  -3  141.48   16.23
   1 -11   4  434.53   26.20
  -1  11  -4  482.88   25.46
   1 -11   5  571.30   38.21
  -1  11  -5  618.94   36.53
   1 -11   6    5.80   11.32
   1 -11   7  322.40   24.87
   1 -10   1  121.18   12.51
  -1  10  -1  145.13   11.07
   1 -10   2  405.14   20.45
  -1  10  -2  394.54   18.73
   1 -10   3  647.49   27.05
  -1  10  -3  653.28   27.20
   1 -10   4  767.73   31.85
  -1  10  -4  735.02   31.29
   1 -10   5  716.53   32.18
  -1  10  -5  720.43   29.90
   1 -10   6  163.06   11.56
  -1  10  -6  188.28   12.42
   1 -10   7  551.56   27.06
  -1  10  -7  594.56   27.27
   1 -10   8  931.53   60.53
  -1  10  -8  931.29   48.02
   1 -10   9  138.52   16.46
   1 -10  10   13.19   11.37
   1  -9   1  216.85   12.96
  -1   9  -1  218.44   11.38
   1  -9   2  817.07   31.74
  -1   9  -2  768.76   30.39
   1  -9   3  957.39   36.42
  -1   9  -3  954.63   36.30
   1  -9   4  877.86   34.24
  -1   9  -4  880.78   33.18
   1  -9   5  877.57   34.45
  -1   9  -5  868.66   31.73
   1  -9   6  114.37   11.08
  -1   9  -6  126.80   10.12
   1  -9   7  920.65   35.40
  -1   9  -7  911.27   33.35
   1  -9   8  859.37   36.45
  -1   9  -8  907.71   37.35
   1  -9   9  335.55   17.94
  -1   9  -9  282.57   16.62
  -1   9 -10   79.12   11.71
   1  -9  10   96.91   12.83
   1  -9  11  186.41   19.60
   1  -8   1  164.61   10.73
  -1   8  -1  150.82   16.15
  -1   8  -1  178.00   12.06
  -1   8  -1   71.64   29.55
   1  -8   2  597.98   26.91
  -1   8  -2  572.38   41.32
  -1   8  -2  531.84   53.54
   1  -8   3  587.79   23.33
  -1   8  -3  585.74   21.59
  -1   8  -3  562.05   38.80
   1  -8   4 1205.06   42.82
  -1   8  -4 1230.17   42.97
   1  -8   5  805.30   31.89
  -1   8  -5  790.99   28.22
   1  -8   6  234.78   13.69
  -1   8  -6  224.86   16.14
  -1   8  -7 1054.49   37.38
   1  -8   7 1048.41   38.59
  -1   8  -8 1303.77   51.10
   1  -8   8 1338.00   49.92
   1  -8   9  360.33   20.56
  -1   8  -9  377.66   22.49
   1  -8  10   69.72   16.79
  -1   8 -10   56.11   13.07
   1  -8  11  452.84   28.84
  -1   8 -11  481.03   24.97
   1  -8  12  281.33   23.88
   1  -8  13  282.20   24.19
   1  -7   1  854.81   30.03
  -1   7  -1  832.20   33.18
  -1   7  -1  856.64   29.90
   1  -7   2 2067.94   69.94
  -1   7  -2 2116.75   71.85
  -1   7  -2 2190.85   90.75
   1  -7   3 2013.66   72.00
  -1   7  -3 2011.57   78.45
  -1   7  -3 1994.95   83.81
  -1   7  -4  384.53   14.83
  -1   7  -4  382.36   20.59
   1  -7   4  361.80   15.09
   1  -7   5  191.74    9.46
  -1   7  -5  204.41    9.06
  -1   7  -5  180.52   11.30
   1  -7   6   22.75   21.52
  -1   7  -6   39.23   31.88
   1  -7   7 1322.04   46.85
  -1   7  -7 1313.62   46.98
   1  -7   8 3009.00  105.65
  -1   7  -8 3052.86  100.50
  -1   7  -9  406.96   18.97
   1  -7   9  400.99   17.89
   1  -7  10  126.29   12.42
  -1   7 -10  132.28   12.29
   1  -7  11  400.49   18.17
  -1   7 -11  406.76   18.85
   1  -7  12  158.53   12.51
   1  -7  12  166.44   13.73
  -1   7 -12  183.24   14.02
   1  -7  13  125.64   13.45
   1  -7  13  140.40   16.73
   1  -7  14   45.41   13.41
   1  -6   1  107.70    6.13
   1  -6   1  103.18    6.77
  -1   6  -1  110.30    6.39
  -1   6  -1  116.61    5.47
   1  -6   2 2088.37   71.62
   1  -6   2 2142.34   86.60
  -1   6  -2 2101.40   74.16
  -1   6  -2 2136.99   85.33
  -1   6  -3 1331.89   46.21
  -1   6  -3 1393.42   51.64
   1  -6   3 1328.70   49.03
   1  -6   3 1394.56   53.80
   1  -6   4 2319.89   77.87
   1  -6   4 2335.79  102.69
  -1   6  -4 2394.72   84.22
  -1   6  -4 2377.66  102.36
   1  -6   5  241.35   10.99
   1  -6   5  243.08   12.51
  -1   6  -5  245.40   12.47
  -1   6  -5  273.90   12.43
   1  -6   6   45.75   10.09
  -1   6  -6   48.71   21.53
  -1   6  -6   32.95    4.36
   1  -6   7 2092.40   68.14
  -1   6  -7 2154.03   76.83
  -1   6  -7 2182.26  112.51
   1  -6   8 2240.73   86.81
  -1   6  -8 2292.78   82.73
   1  -6   9  471.56   21.76
  -1   6  -9  481.54   19.77
   1  -6  10  262.28   14.31
  -1   6 -10  266.48   13.78
   1  -6  11  342.02   17.13
  -1   6 -11  368.50   16.89
   1  -6  12  189.30   11.24
  -1   6 -12  176.78   11.91
   1  -6  13  121.59   12.03
  -1   6 -13  154.71   13.14
   1  -6  14   18.14    9.41
   1  -6  15  435.70   39.10
   1  -5   1  253.00   10.57
   1  -5   1  258.09   10.61
  -1   5  -1  248.26    9.47
  -1   5  -1  242.53    9.50
   1  -5   2 2228.98   78.02
   1  -5   2 2294.36   82.22
  -1   5  -2 2215.08   77.75
  -1   5  -2 2294.41   84.00
   1  -5   3 3697.22  132.69
   1  -5   3 3936.29  140.80
  -1   5  -3 3709.83  147.79
  -1   5  -3 3960.92  138.93
   1  -5   4 1331.13   47.36
   1  -5   4 1385.55   55.19
  -1   5  -4 1331.68   46.03
  -1   5  -4 1390.67   61.87
   1  -5   5   97.62   11.46
   1  -5   5   91.62   16.61
  -1   5  -5   92.82    5.61
  -1   5  -5  159.56   17.42
   1  -5   6  231.05   55.18
   1  -5   6  202.12   35.69
   1  -5   6  225.34   43.35
  -1   5  -6  166.84   14.91
  -1   5  -6  251.63   34.39
  -1   5  -6  175.37    6.79
   1  -5   7 2362.14   81.41
  -1   5  -7 2396.84   85.13
  -1   5  -7 2683.03  102.98
   1  -5   8 1916.17   76.96
  -1   5  -8 1946.28   75.79
  -1   5  -8 1962.04   99.28
   1  -5   9  394.56   43.85
  -1   5  -9  381.80   38.60
   1  -5  10  400.96   29.23
  -1   5 -10  408.19   24.38
   1  -5  11 1017.84   43.84
  -1   5 -11 1019.57   38.33
   1  -5  12  630.79   27.03
  -1   5 -12  657.70   27.46
   1  -5  13  157.93   13.71
  -1   5 -13  186.51   12.77
   1  -5  14   12.16    7.38
  -1   5 -14    4.65    6.70
   1  -5  15  139.47   18.29
   1  -4   1  511.26   36.29
   1  -4   1  606.80   36.10
  -1   4  -1  531.72   58.48
  -1   4  -1  521.64   31.37
   1  -4   2 1976.66   70.52
   1  -4   2 2220.70   74.49
  -1   4  -2 1969.79   72.64
  -1   4  -2 2256.52   73.65
   1  -4   3 7481.18  268.59
   1  -4   3 7965.44  317.40
  -1   4  -3 7568.81  258.49
  -1   4  -3 7942.71  310.05
   1  -4   4  345.20   16.70
   1  -4   4  382.38   16.02
  -1   4  -4  358.12   14.21
  -1   4  -4  367.82   15.49
   1  -4   5  327.30   35.81
   1  -4   5  353.00   24.69
  -1   4  -5  307.95   21.39
  -1   4  -5  298.02   22.57
   1  -4   6  713.36   64.81
   1  -4   6  731.37   41.46
  -1   4  -6  652.23   34.70
  -1   4  -6  667.58   39.16
  -1   4  -6  563.58   25.86
   1  -4   7 2075.53   97.66
   1  -4   7 2055.93   71.11
  -1   4  -7 2023.66   74.93
  -1   4  -7 2096.19   95.45
   1  -4   8 3126.70  103.45
  -1   4  -8 3295.22  112.27
  -1   4  -8 3432.37  131.72
   1  -4   9  176.12   10.94
  -1   4  -9  157.60   12.43
   1  -4  10 1225.55   48.40
  -1   4 -10 1241.87   44.33
   1  -4  11 1204.96   48.59
   1  -4  12  502.65   23.45
   1  -4  12  509.45   23.78
  -1   4 -12  518.82   22.50
   1  -4  13  447.08   23.96
  -1   4 -13  449.71   24.10
   1  -4  14   51.02    8.81
  -1   4 -14   31.49   10.18
   1  -4  15  191.71   20.15
   1  -3   1  178.34   18.37
  -1   3  -1  888.61   60.45
   1  -3   2 6542.36  253.79
   1  -3   2 6696.08  244.86
  -1   3  -2 6670.09  238.61
  -1   3  -2 6744.01  265.53
   1  -3   310308.01  370.71
  -1   3  -310265.34  362.51
   1  -3   4 1580.07   57.97
   1  -3   4 1451.19   56.06
  -1   3  -4 1489.43   57.12
  -1   3  -4 1567.97   58.33
  -1   3  -4 1484.06   59.16
   1  -3   5  290.18   30.38
   1  -3   5  228.91   31.91
  -1   3  -5  257.24   22.92
  -1   3  -5  266.74   36.48
  -1   3  -5  232.02   15.85
   1  -3   6 1150.28  113.85
   1  -3   6 1095.55  115.89
  -1   3  -6 1069.58   67.69
  -1   3  -6 1105.67   99.79
   1  -3   7 1587.29   77.32
   1  -3   7 1532.26   70.38
  -1   3  -7 1523.58   52.06
  -1   3  -7 1579.71   72.84
   1  -3   8 2375.77   87.25
   1  -3   8 2222.89   83.23
  -1   3  -8 2248.95   83.81
  -1   3  -8 2419.63   90.20
   1  -3   9  245.24   24.98
  -1   3  -9  283.76   18.31
  -1   3  -9  250.14   24.65
   1  -3  10  898.27   35.64
   1  -3  10  977.13   36.87
  -1   3 -10  918.84   33.98
   1  -3  11 1529.48   63.16
   1  -3  11 1486.36   66.12
  -1   3 -11 1514.90   53.55
   1  -3  12  694.11   32.62
   1  -3  12  711.76   32.08
  -1   3 -12  678.75   29.41
   1  -3  13   10.88    5.72
  -1   3 -13   28.03    9.49
   1  -3  14   86.56   21.92
  -1   3 -14  172.00   35.10
   1  -3  15  195.23   19.45
  -1   3 -15  193.84   17.93
   1  -2   1  107.69    4.64
   1  -2   1   96.69    4.44
  -1   2  -1  100.04    4.51
  -1   2  -1   92.02    4.44
   1  -2   3 9071.19  329.98
   1  -2   3 8645.36  317.82
  -1   2  -3 8708.83  328.73
  -1   2  -3 9106.96  336.39
   1  -2   4 2069.88   70.80
   1  -2   4 2043.35   81.74
  -1   2  -4 2024.90   84.92
  -1   2  -4 2101.02   73.16
  -1   2  -4 2139.04   80.04
   1  -2   5   14.55   20.03
   1  -2   5  142.97  193.78
  -1   2  -5  187.91  179.97
  -1   2  -5   43.93   47.00
  -1   2  -5   22.19    2.78
   1  -2   6  864.50   58.68
   1  -2   6  826.01   53.64
  -1   2  -6  892.09   89.24
  -1   2  -6  979.35  113.10
   1  -2   7 1872.81   79.88
   1  -2   7 1840.69   69.96
   1  -2   7 1739.22   69.45
  -1   2  -7 1823.41   72.77
  -1   2  -7 1862.66   86.25
   1  -2   8 2123.16   87.09
   1  -2   8 2080.83   73.01
   1  -2   8 2120.15   85.90
  -1   2  -8 2094.29   75.72
  -1   2  -8 2172.41   89.42
   1  -2   9  137.04    8.15
   1  -2   9  164.00   20.06
   1  -2   9  158.38    7.91
   1  -2   9  158.93   18.78
  -1   2  -9  163.29   28.80
  -1   2  -9  124.76    8.28
   1  -2  10  904.66   36.12
   1  -2  10  901.84   35.93
   1  -2  10  934.60   39.79
  -1   2 -10  892.34   39.96
   1  -2  11 1664.21   62.02
   1  -2  11 1630.28   89.51
  -1   2 -11 1562.27   62.97
   1  -2  12  565.23   25.09
   1  -2  12  613.04   28.84
  -1   2 -12  529.28   26.49
   1  -2  13   53.43    8.32
   1  -2  14   19.72    6.15
  -1   2 -14   32.86    8.25
   1  -2  15  440.57   31.38
  -1   2 -15  398.38   29.57
   1  -1   1  379.87   14.11
   1  -1   1  396.68   14.22
  -1   1  -1  356.61   14.20
  -1   1  -1  373.97   12.83
   1  -1   3 5325.72  197.82
   1  -1   3 5228.22  208.50
   1  -1   3 5289.39  237.91
  -1   1  -3 5302.36  208.90
  -1   1  -3 5355.52  205.57
  -1   1  -3 5563.90  209.78
   1  -1   4  466.93   17.24
   1  -1   4  448.06   17.01
   1  -1   4  466.80   17.34
  -1   1  -4  473.73   19.98
  -1   1  -4  490.31   19.89
  -1   1  -4  521.76   18.90
   1  -1   5  906.52   34.28
   1  -1   5  875.36   35.08
   1  -1   5  902.79   34.87
  -1   1  -5  870.85   36.09
  -1   1  -5  913.00   34.00
   1  -1   6  276.05   11.30
   1  -1   6  270.11   10.89
   1  -1   6  260.25   10.54
  -1   1  -6  283.19   15.25
  -1   1  -6  277.18   11.58
   1  -1   7 3785.80  141.36
   1  -1   7 3491.20  142.06
   1  -1   7 3693.15  131.76
   1  -1   7 3613.84  165.27
  -1   1  -7 3488.36  147.47
  -1   1  -7 3768.03  144.74
   1  -1   8 5221.94  187.66
   1  -1   8 5071.86  190.36
   1  -1   8 5328.35  220.33
  -1   1  -8 4869.01  197.87
  -1   1  -8 5172.89  227.48
   1  -1   9   36.52    4.96
   1  -1   9   26.61    4.10
   1  -1   9   19.57    2.55
   1  -1   9   37.59    3.11
  -1   1  -9   28.37    3.80
  -1   1  -9   30.72    4.67
   1  -1  10 1428.83   51.94
   1  -1  10 1336.22   54.89
  -1   1 -10 1304.59   49.86
   1  -1  11 1554.69   57.95
   1  -1  11 1486.19   65.28
  -1   1 -11 1413.65   53.00
   1  -1  12  226.29   11.78
   1  -1  12  198.65   13.23
  -1   1 -12  209.23   11.49
   1  -1  13   53.79    8.94
  -1   1 -13   34.06    7.66
   1  -1  14   66.62    8.16
  -1   1 -14   69.70    8.44
   1  -1  15  607.50   35.15
  -1   1 -15  552.86   37.90
   1   0   0 4846.46  335.99
   1   0   0 3639.21  294.97
   1   0   0 5927.96  332.54
  -1   0   0   -0.13    0.39
  -1   0   0   57.03   21.32
  -1   0   0 3028.26  338.87
  -1   0   0 3701.36  310.76
  -1   0   0   10.78    4.56
  -1   0  -1 1535.19   93.98
   1   0   1 2454.02  104.75
   1   0   1 2444.40   97.20
   1   0   1 2381.93  111.18
  -1   0  -1 1163.40  119.21
  -1   0  -1 2509.29   80.03
   1   0   2  786.03   36.72
   1   0   2  819.62   34.12
   1   0   2  884.00   31.62
  -1   0  -2  821.80   36.01
  -1   0  -2  804.14   34.97
  -1   0  -2  936.45   38.36
   1   0   3  737.92   32.55
   1   0   3  735.91   34.53
   1   0   3  781.12   32.05
  -1   0  -3  740.88   34.98
  -1   0  -3  730.72   33.15
   1   0   4 1961.31  150.96
   1   0   4 1956.56  134.46
   1   0   4 2177.66  150.75
  -1   0  -4 1856.21   93.20
  -1   0  -4 1838.84   84.56
   1   0   5 1575.87   68.30
   1   0   5 1800.60  193.53
   1   0   5 1823.80  251.35
  -1   0  -5 1576.06  148.60
  -1   0  -5 1444.83   58.63
   1   0   6 6761.30  320.08
   1   0   6 6382.86  250.69
   1   0   6 6634.04  230.26
  -1   0  -6 5955.58  248.43
  -1   0  -6 6305.22  253.12
   1   0   7 3035.19  110.86
   1   0   7 2887.89  104.90
   1   0   7 2878.57  101.03
  -1   0  -7 2637.70  104.05
  -1   0  -7 2829.44   99.83
   1   0   8  459.73   20.48
   1   0   8  458.78   21.13
   1   0   8  430.75   19.10
  -1   0  -8  407.76   17.28
  -1   0  -8  423.78   18.15
   1   0   9  222.81   12.31
   1   0   9  227.07   21.52
   1   0   9  240.58   19.91
  -1   0  -9  200.26   10.04
  -1   0  -9  196.26   10.57
   1   0  10  268.12   18.00
   1   0  10  275.97   16.97
  -1   0 -10  261.09   11.15
   1   0  11 4294.41  157.61
   1   0  11 4186.97  168.58
  -1   0 -11 3942.90  143.34
   1   0  12  429.92   20.88
   1   0  12  453.09   18.20
  -1   0 -12  405.19   19.01
   1   0  13   33.98    6.54
   1   0  13   57.40    4.85
  -1   0 -13   55.72    7.39
   1   0  14  278.50   17.48
  -1   0 -14  253.54   17.34
   1   0  15  145.26   15.19
  -1   0 -15  114.04   13.37
   1   1   0  262.56   75.19
   1   1   0 2817.02   95.56
   1   1   0 2997.26   89.45
   1   1   0 2892.10  100.02
  -1  -1   0 1372.53  130.18
  -1  -1   0 1766.95  133.48
  -1  -1   0 2414.54  121.65
   1   1   1 1197.52   62.41
   1   1   1 1102.71   65.05
   1   1   1 1063.60   44.27
   1   1   1 1248.31   77.79
  -1  -1  -1 1062.67  138.48
  -1  -1  -1 1182.37  172.94
  -1  -1  -1 1021.13   37.22
  -1  -1  -1 1281.72   99.04
   1   1   2 9598.06  438.86
   1   1   210533.61  403.76
   1   1   210621.75  419.13
  -1  -1  -2 9030.12  428.12
   1   1   3 6734.33  292.21
   1   1   3 6209.10  282.90
   1   1   3 7238.09  274.49
  -1  -1  -3 5837.64  303.65
  -1  -1  -3 6662.34  274.43
   1   1   4  240.65   25.87
   1   1   4  240.11   17.02
   1   1   4  281.00   34.02
  -1  -1  -4  239.85   39.96
  -1  -1  -4  238.39   80.66
   1   1   5 2262.85  124.87
   1   1   5 2260.42   89.87
   1   1   5 2372.55  118.64
  -1  -1  -5 2397.34  296.68
  -1  -1  -5 2473.54  413.74
  -1  -1  -5 2104.51  124.09
   1   1   6  626.96   31.75
   1   1   6  604.14   22.38
   1   1   6  626.09   29.42
  -1  -1  -6  581.53   68.06
  -1  -1  -6  612.45   45.65
   1   1   7 2677.57   97.95
   1   1   7 2507.29   97.45
   1   1   7 2611.32   94.30
  -1  -1  -7 2310.69   96.65
  -1  -1  -7 2434.64   97.40
   1   1   8  911.81   43.80
   1   1   8  891.54   33.42
   1   1   8  913.80   33.82
  -1  -1  -8  839.98   55.55
  -1  -1  -8  901.08   55.01
   1   1   9   61.67   12.74
   1   1   9   76.63    9.07
   1   1   9   69.88    9.97
  -1  -1  -9   67.85   25.01
   1   1  10 2557.78   94.91
   1   1  10 2617.08   96.35
   1   1  11 1906.01   75.46
   1   1  11 1927.83   70.66
  -1  -1 -11 1773.31   74.40
   1   1  12  205.07   14.18
   1   1  12  212.05   11.81
  -1  -1 -12  187.17   12.18
  -1  -1 -13   70.02   35.15
   1   1  13   88.32   14.46
   1   1  13  108.52   22.35
   1   1  14  353.97   19.02
  -1  -1 -14  339.17   20.69
   1   1  15  491.25   27.90
  -1  -1 -15  436.09   26.91
   1   2   0  129.88   24.73
   1   2   0  149.64   15.16
   1   2   0  131.09   32.33
  -1  -2   0  139.10   17.57
  -1  -2   0  152.24    8.69
  -1  -2   0  144.52   10.91
  -1  -2   0  137.03    9.78
   1   2   1 2960.78  126.29
   1   2   1 2806.77  102.92
   1   2   1 2844.81  110.84
   1   2   1 2797.51  142.68
  -1  -2  -1 2759.96  119.40
  -1  -2  -1 3003.34  116.11
  -1  -2  -1 3031.54  109.70
   1   2   2 8457.75  339.27
  -1  -2  -2 8017.66  326.10
  -1  -2  -2 8576.91  336.61
  -1  -2  -2 9073.45  316.05
   1   2   2 7977.62  307.15
   1   2   312636.01  508.00
  -1  -2  -312512.53  508.07
   1   2   4  904.15   79.73
   1   2   4  902.43   46.93
  -1  -2  -4  998.41   42.57
   1   2   5 1442.05  111.03
   1   2   5 1360.19   79.77
  -1  -2  -5 1415.43   71.61
  -1  -2  -5 1562.76   60.64
   1   2   6 1703.13   59.44
   1   2   6 1627.57   60.35
  -1  -2  -6 1590.97   66.39
  -1  -2  -6 1671.25   61.39
   1   2   7  527.48   21.39
   1   2   7  526.92   20.05
  -1  -2  -7  513.84   20.77
  -1  -2  -7  503.94   21.52
  -1  -2  -7  497.06   18.25
   1   2   8  265.78   14.32
   1   2   8  260.32   11.60
  -1  -2  -8  250.67   12.32
  -1  -2  -8  256.40   10.17
   1   2   9   59.64   18.51
   1   2   9  104.91   12.54
  -1  -2  -9  249.62   17.47
   1   2  10 2678.60  116.06
   1   2  10 2834.44  116.40
  -1  -2 -10 2718.28  107.37
   1   2  11 1893.75   73.82
   1   2  11 1976.15   80.11
  -1  -2 -11 1791.89   82.73
   1   2  12  325.87   17.66
   1   2  12  358.10   18.12
  -1  -2 -12  317.45   17.23
   1   2  13  146.10   14.82
   1   2  13  155.12   12.36
  -1  -2 -13  210.66   16.66
   1   2  14  320.38   18.25
   1   2  14  281.82   20.82
  -1  -2 -14  314.87   21.03
   1   2  15  347.91   28.22
  -1  -2 -15  321.48   29.04
   1   3   0   69.24    3.42
   1   3   0   66.68    3.40
  -1  -3   0   69.07    3.53
  -1  -3   0   69.00    3.29
  -1  -3   0   66.93    3.41
  -1  -3   0   67.26    3.36
   1   3   1 1799.45   66.84
   1   3   1 1677.49   64.85
  -1  -3  -1 1732.63   62.61
  -1  -3  -1 1781.55   66.52
  -1  -3  -1 1646.91   61.56
  -1  -3  -1 1719.79   60.53
   1   3   2 3981.70  133.20
   1   3   2 3784.54  145.75
  -1  -3  -2 3950.20  154.28
  -1  -3  -2 3987.66  136.91
  -1  -3  -2 4252.14  147.52
   1   3   3 8695.83  331.05
  -1  -3  -3 8769.03  328.08
  -1  -3  -3 8890.54  310.06
   1   3   3 8838.44  322.29
   1   3   4   28.37   42.30
   1   3   4   31.21    2.62
   1   3   4   19.64    1.41
  -1  -3  -4   25.58    2.34
  -1  -3  -4  152.71   70.37
   1   3   5 1691.70  140.09
   1   3   5 1818.63  278.91
   1   3   5 1629.28  129.79
  -1  -3  -5 1993.33  188.07
  -1  -3  -5 1821.71  172.00
   1   3   6 3509.60  152.00
   1   3   6 3237.25  138.66
   1   3   6 3341.22  131.62
  -1  -3  -6 3333.10  140.39
  -1  -3  -6 3533.82  176.67
   1   3   7  313.36   14.14
   1   3   7  296.20   12.92
   1   3   7  301.32   12.16
  -1  -3  -7  273.60   12.91
  -1  -3  -7  268.53   13.03
   1   3   8  592.30   23.67
   1   3   8  578.51   23.66
  -1  -3  -8  557.24   26.48
  -1  -3  -8  620.81   25.67
   1   3   9   25.80    4.83
   1   3   9   23.84    4.12
  -1  -3  -9   31.22    9.08
  -1  -3  -9   42.87    5.25
   1   3  10 1648.68   82.27
  -1  -3 -10 1728.36   98.84
  -1  -3 -10 1522.63   87.41
   1   3  11 1924.87   75.31
   1   3  11 2038.14   90.48
  -1  -3 -11 1807.72   67.39
   1   3  12  356.71   19.09
   1   3  12  347.11   19.20
  -1  -3 -12  344.18   22.32
   1   3  13  152.05   12.08
   1   3  13  150.91   12.36
  -1  -3 -13  121.87   16.00
   1   3  14  279.48   21.24
   1   3  14  276.07   21.31
  -1  -3 -14  256.99   22.20
   1   3  15  106.67   13.45
   1   4   0  277.58   10.68
   1   4   0  251.71   10.00
  -1  -4   0  256.51   10.13
  -1  -4   0  261.00    9.79
  -1  -4   0  257.94   10.17
   1   4   1  232.89    8.90
   1   4   1  228.03    9.85
  -1  -4  -1  219.69    8.96
  -1  -4  -1  236.52    8.77
  -1  -4  -1  217.65    8.87
  -1  -4  -1  207.58    8.77
   1   4   2 8978.50  324.12
   1   4   2 8427.33  309.01
  -1  -4  -2 8596.95  324.70
  -1  -4  -2 9121.52  337.86
   1   4   3 3041.51  113.40
  -1  -4  -3 3195.35  121.20
  -1  -4  -3 3148.87  113.45
  -1  -4  -3 3433.73  128.65
   1   4   4  542.17   19.70
   1   4   4  539.29   20.35
  -1  -4  -4  565.42   22.64
  -1  -4  -4  553.56   20.32
  -1  -4  -5 2589.84   85.07
   1   4   5 2484.75   88.44
   1   4   5 2431.64   91.60
   1   4   5 2412.57   88.86
  -1  -4  -5 2498.37   91.64
  -1  -4  -6 1870.97   83.38
   1   4   6 1956.54   73.27
   1   4   6 1822.50   76.07
  -1  -4  -6 1931.62   72.59
   1   4   7 1107.31   42.49
   1   4   7 1080.73   43.53
   1   4   7 1099.63   43.77
  -1  -4  -7 1056.86   46.01
   1   4   8  706.84   41.13
   1   4   8  709.29   29.54
   1   4   8  771.69   27.45
  -1  -4  -8  692.80   31.47
   1   4   9  294.18   14.65
   1   4   9  317.58   13.43
   1   4  10  988.31   44.19
   1   4  10 1100.70   40.99
  -1  -4 -10 1000.88   42.67
   1   4  11  980.38   46.69
  -1  -4 -11  929.21   41.78
   1   4  12  175.00   12.50
   1   4  12  202.15   13.09
  -1  -4 -12  174.02   13.20
   1   4  13  141.64   12.59
   1   4  13  155.01   12.18
   1   4  14  449.87   32.94
  -1  -4 -14  348.28   28.56
   1   5   0  306.94   10.93
   1   5   0  278.07   11.30
  -1  -5   0  276.45   11.04
  -1  -5   0  295.80   10.93
   1   5   1 1343.49   48.74
   1   5   1 1234.08   44.79
  -1  -5  -1 1276.87   44.44
  -1  -5  -1 1310.51   45.89
  -1  -5  -1 1280.33   50.10
  -1  -5  -1 1177.72   47.17
   1   5   2 3680.02  135.44
   1   5   2 3492.13  125.54
  -1  -5  -2 3471.62  127.37
  -1  -5  -2 3650.33  119.73
  -1  -5  -2 3486.84  131.20
  -1  -5  -2 3445.22  129.82
   1   5   3 1628.21   56.76
   1   5   3 1594.94   57.90
  -1  -5  -3 1678.89   59.53
  -1  -5  -3 1634.83   57.99
  -1  -5  -3 1786.35   62.83
  -1  -5  -3 1570.74   61.21
   1   5   4   86.53   22.72
   1   5   4   99.06   16.29
  -1  -5  -4   82.66    9.22
  -1  -5  -4   73.44    6.18
   1   5   5 2462.08   89.35
  -1  -5  -5 2529.86  108.60
  -1  -5  -5 2458.88   85.65
   1   5   6 1970.91   75.37
   1   5   6 1908.69   73.33
  -1  -5  -6 1928.02   76.19
   1   5   7  790.43   31.08
   1   5   7  732.55   34.74
  -1  -5  -7  754.51   35.58
   1   5   8   11.74    5.87
   1   5   8   22.17    4.44
  -1  -5  -8   10.67    4.16
   1   5   9  199.16   17.70
  -1  -5  -9  174.80   10.47
   1   5  10  531.72   25.67
  -1  -5 -10  520.06   25.80
   1   5  11  826.39   43.77
  -1  -5 -11  829.36   41.27
   1   5  12  115.59   10.21
   1   5  12   92.47   10.19
  -1  -5 -12   72.87    9.22
   1   5  13  382.26   25.44
   1   5  13  385.15   32.51
  -1  -5 -13  331.67   23.75
   1   5  14  603.42   53.20
   1   6   0   57.00    4.65
  -1  -6   0  181.86   21.15
   1   6   1 1114.73   47.05
  -1  -6  -1 1515.98   94.02
  -1  -6  -1 1151.54   48.56
  -1  -6  -1 1237.23   74.88
   1   6   2 2659.47   92.90
   1   6   2 2478.69   90.04
  -1  -6  -2 2516.63  102.52
  -1  -6  -2 2584.06   98.14
  -1  -6  -2 2553.92  101.53
   1   6   3 1776.80   63.71
  -1  -6  -3 1793.86   66.01
  -1  -6  -3 1697.46   66.59
  -1  -6  -3 1740.96   72.15
  -1  -6  -3 1618.37   67.91
   1   6   4   51.31    8.35
   1   6   4   16.46    3.05
  -1  -6  -4    8.36    2.92
  -1  -6  -4    5.65    5.65
   1   6   5 1865.97   72.91
   1   6   5 1885.48   77.76
  -1  -6  -5 1902.78   87.95
  -1  -6  -5 1769.84   72.21
   1   6   6 2034.64  123.65
   1   6   6 2091.51   78.46
  -1  -6  -6 2162.84   81.21
   1   6   7  303.34   20.87
   1   6   7  314.97   14.88
  -1  -6  -7  349.12   17.76
   1   6   8  117.22   16.42
  -1  -6  -8   79.03   16.56
   1   6   9  136.92   14.43
  -1  -6  -9   58.62   14.28
   1   6  10  310.21   17.04
  -1  -6 -10  292.55   16.76
   1   6  11 1332.94   61.17
  -1  -6 -11 1294.96   69.17
   1   6  12   51.42   10.46
   1   6  12   47.62   11.18
  -1  -6 -12   -0.98   10.73
   1   6  13  563.96   54.75
  -1  -6 -13  479.39   35.75
   1   7   0  509.42   24.19
   1   7   0  527.90   20.43
  -1  -7   0  525.62   23.33
  -1  -7   0  526.63   21.96
   1   7   1 1052.45   44.29
   1   7   1  978.58   37.08
  -1  -7  -1 1009.87   41.03
  -1  -7  -1 1016.38   49.52
   1   7   2 1122.84   48.41
   1   7   2 1088.82   37.92
  -1  -7  -2 1192.89   50.91
  -1  -7  -2 1197.89   47.22
   1   7   3 1246.08   50.37
   1   7   3 1215.23   49.00
  -1  -7  -3 1269.75   57.09
  -1  -7  -3 1325.24   59.58
   1   7   4  201.30   14.64
   1   7   4  198.30   10.23
  -1  -7  -4  214.37   12.88
   1   7   5 2020.91  160.37
   1   7   5 2163.46   89.96
  -1  -7  -5 2217.26   98.13
   1   7   6 1815.91  149.14
   1   7   6 1858.26   72.10
  -1  -7  -6 1932.22   70.42
  -1  -7  -6 1693.66   78.19
   1   7   7  217.93   12.75
  -1  -7  -7  210.99   12.21
   1   7   8   42.08    8.67
  -1  -7  -8   40.57    9.08
   1   7   9  222.72   14.98
  -1  -7  -9  206.70   16.08
   1   7  10  647.72   34.21
  -1  -7 -10  659.54   35.05
   1   7  11  590.43   29.71
  -1  -7 -11  550.80   27.88
   1   7  12   11.56   11.14
   1   8   0  399.73   22.46
   1   8   0  453.77   18.80
  -1  -8   0  470.57   20.21
  -1  -8   0  414.44   18.78
   1   8   1  603.81   42.55
   1   8   1  812.41   47.53
  -1  -8  -1  835.68   38.38
  -1  -8  -1  696.08   54.28
   1   8   2 1541.73  101.59
   1   8   2 1551.15   58.55
  -1  -8  -2 1603.98   66.54
  -1  -8  -2 1605.66   70.47
   1   8   3  477.78   42.16
   1   8   3  518.53   22.18
  -1  -8  -3  506.27   25.29
   1   8   4   60.91    9.95
   1   8   4   99.81   15.72
  -1  -8  -4  125.33   11.11
   1   8   5 1611.76   64.02
  -1  -8  -5 1648.38   68.70
   1   8   6 1260.07   52.84
  -1  -8  -6 1288.41   52.20
   1   8   7   69.47    8.59
  -1  -8  -7   81.88    9.00
   1   8   8  143.53   11.42
  -1  -8  -8  117.74   10.73
   1   8   9  102.54   10.78
  -1  -8  -9  117.32   12.72
   1   8  10  525.75   35.51
   1   8  11  449.40   31.28
   1   9   0  930.97   35.81
  -1  -9   0  936.21   37.84
   1   9   1  820.26   31.19
  -1  -9  -1  823.34   35.40
   1   9   2  830.47   37.75
   1   9   3  391.36   18.88
  -1  -9  -3  394.59   19.14
   1   9   4    4.22    6.33
  -1  -9  -4   17.15    8.84
   1   9   5 1059.84   48.36
  -1  -9  -5 1049.86   45.06
   1   9   6  618.86   30.12
  -1  -9  -6  644.20   35.50
   1   9   7    4.89    7.48
  -1  -9  -7   10.47    8.97
   1   9   8  137.62   14.54
  -1  -9  -8  164.48   14.69
   1  10   0  356.68   16.70
  -1 -10   0  378.30   19.38
   1  10   1  703.36   29.04
  -1 -10  -1  678.04   37.86
   1  10   2  358.10   17.40
  -1 -10  -2  362.83   19.98
   1  10   3  200.27   12.69
  -1 -10  -3  189.36   13.21
   1  10   4   80.66    9.63
  -1 -10  -4   59.06    8.58
   1  10   5  694.42   38.68
   1  10   6  513.20   30.41
   1  11   0  473.58   21.89
   1  11   0  488.11   28.25
   1  11   1  360.67   20.52
   1  11   1  353.59   24.16
   1  11   2   34.32    6.74
   1  11   2   27.07    7.95
   1  11   3   52.62    8.10
   1  12   0  519.77   33.78
   2 -12   1  179.14   17.53
   2 -12   2  530.42   35.73
   2 -12   3  197.18   20.55
   2 -12   4   12.52   11.43
   2 -11   1  279.09   17.35
  -2  11  -1  266.74   16.55
   2 -11   2  771.68   36.80
  -2  11  -2  777.61   35.34
   2 -11   3  467.59   26.61
  -2  11  -3  454.72   25.27
   2 -11   4   -0.14    9.57
  -2  11  -4   16.13   10.12
   2 -11   5  158.19   14.96
   2 -11   6  217.43   18.48
   2 -11   7  422.95   29.19
   2 -10   1  804.33   34.09
  -2  10  -1  791.14   34.35
   2 -10   2 1600.01   64.82
  -2  10  -2 1585.30   61.36
   2 -10   3  655.83   28.44
  -2  10  -3  665.86   29.40
   2 -10   4   19.33    9.60
  -2  10  -4   25.37    9.05
   2 -10   5   84.01    9.69
  -2  10  -5   81.54    8.04
   2 -10   6  189.27   16.07
  -2  10  -6  218.98   19.41
   2 -10   7  521.87   27.25
  -2  10  -7  541.39   26.18
   2 -10   8   31.27    9.54
   2 -10   9  117.96   13.98
   2  -9   1 1142.61   43.74
  -2   9  -1 1160.58   43.89
   2  -9   2 2326.17   89.71
  -2   9  -2 2354.71   83.74
   2  -9   3  835.45   36.81
  -2   9  -3  830.96   32.64
   2  -9   4   27.05    7.55
  -2   9  -4   32.00    7.97
   2  -9   5   79.02    8.99
  -2   9  -5   73.20    8.72
   2  -9   6  602.44   27.12
  -2   9  -6  606.28   27.53
   2  -9   7  727.77   32.75
  -2   9  -7  778.61   33.91
   2  -9   8   40.69    9.34
  -2   9  -8   50.72    9.90
   2  -9   9  209.27   14.77
  -2   9  -9  211.62   14.08
   2  -9  10  571.94   33.45
   2  -9  11  476.75   30.35
   2  -8   1  372.60   17.75
  -2   8  -1  371.43   16.28
   2  -8   2 2602.57   90.45
  -2   8  -2 2596.17   88.73
   2  -8   3 1714.41   65.49
  -2   8  -3 1774.70   60.28
   2  -8   4  405.00   18.11
  -2   8  -4  384.81   16.05
   2  -8   5 1497.09   54.80
  -2   8  -5 1537.21   51.71
   2  -8   6 1144.73   45.09
  -2   8  -6 1144.50   46.18
   2  -8   7  380.48   30.33
  -2   8  -7  338.75   23.70
   2  -8   8  627.40   28.23
  -2   8  -8  626.94   26.06
   2  -8   9   29.15    8.57
  -2   8  -9   36.34    8.71
   2  -8  10 1189.32   55.49
  -2   8 -10 1257.49   55.46
   2  -8  11  685.28   49.35
  -2   8 -11  721.66   42.68
   2  -8  12   31.97   12.87
   2  -7   1 1951.03   66.99
  -2   7  -1 2017.34   67.70
   2  -7   2 4726.60  156.82
  -2   7  -2 4748.49  156.59
   2  -7   3  155.06   10.38
  -2   7  -3  150.01   12.83
   2  -7   4  396.07   18.69
  -2   7  -4  389.76   17.74
   2  -7   5  596.31   26.17
  -2   7  -5  563.03   22.62
   2  -7   6 1860.45   63.25
  -2   7  -6 1824.00   61.07
   2  -7   7 1372.15   47.88
  -2   7  -7 1402.68   47.77
   2  -7   8   66.57    6.44
  -2   7  -8   58.23    6.02
   2  -7   9  453.95   20.58
  -2   7  -9  513.04   21.71
   2  -7  10  680.37   29.80
  -2   7 -10  747.61   31.63
   2  -7  11  464.89   24.09
  -2   7 -11  473.94   23.97
   2  -7  12   39.39    9.20
  -2   7 -12   33.49    8.24
   2  -7  13  152.82   17.89
   2  -6   1 1709.25   58.12
   2  -6   1 1746.31   68.40
  -2   6  -1 1731.25   68.89
  -2   6  -1 1738.01   57.74
   2  -6   2 4369.67  153.32
   2  -6   2 4620.84  165.34
  -2   6  -2 4395.10  172.42
  -2   6  -2 4649.13  170.96
   2  -6   3  747.91   26.94
  -2   6  -3 1040.18   47.30
   2  -6   4  317.32   27.06
   2  -6   4  132.33   10.07
  -2   6  -4  302.78   38.99
  -2   6  -4  143.77    9.04
   2  -6   5 2929.09   97.47
  -2   6  -5 2973.53  101.26
   2  -6   6  868.27   51.85
  -2   6  -6  882.63   45.92
  -2   6  -6  781.58   32.90
   2  -6   7  277.13   15.61
  -2   6  -7  317.58   14.55
  -2   6  -7  288.47   13.94
   2  -6   8   44.28    5.96
  -2   6  -8   62.15    6.10
   2  -6   9  307.61   14.75
   2  -6   9  287.53   14.60
  -2   6  -9  308.84   17.04
   2  -6  10 1746.31   65.64
  -2   6 -10 1797.13   68.52
   2  -6  11  716.82   32.46
  -2   6 -11  754.48   36.01
   2  -6  12   23.35    9.43
  -2   6 -12   33.87   10.79
   2  -6  13  241.22   20.01
  -2   6 -13  291.25   22.63
   2  -5   1 3985.63  143.64
   2  -5   1 4205.02  154.64
  -2   5  -1 4152.91  154.46
  -2   5  -1 4082.76  144.08
   2  -5   2 2863.46  100.70
   2  -5   2 3068.87  116.08
  -2   5  -2 2895.77  104.06
  -2   5  -2 3061.62  118.24
   2  -5   3 1131.41   40.60
   2  -5   3 1234.59   48.29
  -2   5  -3 1115.99   38.98
  -2   5  -3 1202.73   53.25
   2  -5   4  446.75   24.27
   2  -5   4  456.39   20.66
  -2   5  -4  442.87   18.65
  -2   5  -4  452.01   22.20
   2  -5   5 3581.33  137.53
   2  -5   5 3849.21  136.75
  -2   5  -5 3758.18  136.57
  -2   5  -5 3753.43  188.73
   2  -5   6 1516.77   75.05
   2  -5   6 1497.88   79.58
  -2   5  -6 1587.66   83.22
  -2   5  -6 1549.55   70.95
  -2   5  -6 1574.40   64.60
   2  -5   7  476.56   19.85
  -2   5  -7  477.79   22.39
  -2   5  -7  503.26   20.99
   2  -5   8   16.44    4.31
  -2   5  -8   16.44    4.04
   2  -5   9  392.27   17.43
  -2   5  -9  422.89   19.06
   2  -5  10 1562.17   59.23
  -2   5 -10 1508.71   54.35
   2  -5  11  848.11   35.85
  -2   5 -11  868.75   37.36
   2  -5  12   37.43    7.38
  -2   5 -12   34.70    6.15
   2  -5  13  223.44   16.30
  -2   5 -13  232.05   16.58
   2  -5  14  286.25   23.94
   2  -4   1 6254.49  216.66
   2  -4   1 6264.26  216.96
  -2   4  -1 6141.14  214.00
  -2   4  -1 6291.31  233.44
  -2   4  -1 6345.71  225.08
   2  -4   2 3203.77  115.16
   2  -4   2 3461.58  118.41
  -2   4  -2 3297.18  114.28
  -2   4  -2 3426.36  116.95
   2  -4   3 1313.27   47.31
   2  -4   3 1457.75   56.32
  -2   4  -3 1365.11   46.94
  -2   4  -3 1454.37   57.34
   2  -4   4 1294.27   46.47
   2  -4   4 1387.77   49.71
  -2   4  -4 1343.32   47.69
  -2   4  -4 1387.87   60.74
   2  -4   5 3696.51  121.37
  -2   4  -5 3744.78  132.71
  -2   4  -5 3996.96  152.55
  -2   4  -5 4034.74  148.57
   2  -4   6 1987.79   78.48
   2  -4   6 1842.95   66.91
  -2   4  -6 1861.57   70.10
  -2   4  -6 1938.81   79.94
  -2   4  -6 2037.29   75.83
   2  -4   7  438.02   19.80
   2  -4   7  413.58   19.28
  -2   4  -7  404.75   17.01
  -2   4  -7  417.40   19.78
  -2   4  -7  447.68   21.64
   2  -4   8   31.65    5.82
  -2   4  -8   28.94    4.73
   2  -4   9  501.88   20.14
  -2   4  -9  536.71   22.05
   2  -4  10 1594.34   57.37
  -2   4 -10 1606.72   56.84
   2  -4  11  706.38   29.96
  -2   4 -11  713.12   27.51
   2  -4  12   18.00    7.14
  -2   4 -12   -3.02    6.73
   2  -4  13  390.21   21.76
  -2   4 -13  351.09   21.06
   2  -4  14  529.21   31.31
  -2   4 -14  510.56   33.21
   2  -3   1  982.43   33.96
   2  -3   1  984.88   35.76
  -2   3  -1 1002.85   35.03
  -2   3  -1  990.24   35.50
   2  -3   2 6605.19  232.70
   2  -3   2 6991.54  284.87
  -2   3  -2 6804.75  236.89
  -2   3  -2 7043.24  268.18
   2  -3   3 3706.59  135.25
   2  -3   3 4036.66  152.88
   2  -3   3 3782.03  132.03
  -2   3  -3 3839.06  142.39
  -2   3  -3 4091.69  152.40
   2  -3   4 2598.97   95.12
   2  -3   4 2470.25   88.57
  -2   3  -4 2459.53   86.61
  -2   3  -4 2590.09   97.65
  -2   3  -4 2669.29   97.45
   2  -3   5 4581.00  181.42
   2  -3   5 4482.57  165.17
  -2   3  -5 4540.39  175.35
  -2   3  -5 4592.08  176.67
  -2   3  -5 4839.23  172.72
   2  -3   6  584.60   28.68
   2  -3   6  762.54   73.80
  -2   3  -6  701.47   66.68
  -2   3  -6  579.01   29.85
  -2   3  -6  645.88   27.26
   2  -3   7   23.60   18.46
   2  -3   7   42.38   24.18
  -2   3  -7   15.08   15.76
  -2   3  -7   23.07   16.75
  -2   3  -7   21.13    2.61
   2  -3   8  113.57    7.33
   2  -3   8  114.54    9.34
  -2   3  -8  115.64    8.52
   2  -3   9  728.91   27.11
  -2   3  -9  771.77   28.91
   2  -3  10 2997.32  124.90
   2  -3  10 2742.95  135.03
  -2   3 -10 2936.83  117.43
   2  -3  11  481.26   32.70
  -2   3 -11  476.55   28.54
   2  -3  12   14.01    6.80
   2  -3  13  852.09   40.82
  -2   3 -13  806.02   42.04
   2  -3  14  391.22   27.03
  -2   3 -14  365.05   30.18
   2  -2   1 3832.57  139.95
   2  -2   1 4031.76  140.08
  -2   2  -1 3984.69  147.91
  -2   2  -1 4064.12  143.94
   2  -2   2 8963.25  340.46
   2  -2   2 8722.28  327.18
  -2   2  -2 8801.05  311.65
  -2   2  -2 8748.56  323.44
   2  -2   3 1043.88   56.06
   2  -2   3 1125.84   56.76
  -2   2  -3 1105.03   57.93
  -2   2  -3  963.41   43.69
  -2   2  -3 1155.66   47.63
   2  -2   4 2842.96   99.50
  -2   2  -4 2878.51  101.61
  -2   2  -4 2851.76  108.53
   2  -2   5 3032.79  121.93
   2  -2   5 2996.24  113.98
  -2   2  -5 3022.94  116.95
  -2   2  -5 3060.87  123.82
  -2   2  -5 3410.35  113.84
   2  -2   6 1648.53   74.22
   2  -2   6 1611.60   61.55
  -2   2  -6 1640.88   64.02
  -2   2  -6 1665.96   72.80
  -2   2  -6 1826.29   73.09
   2  -2   7   90.42    7.84
   2  -2   7   85.04    6.55
  -2   2  -7   72.10    8.50
  -2   2  -7   62.64    7.03
   2  -2   8  194.04    9.95
   2  -2   8  194.63    9.57
   2  -2   8  175.06    8.02
  -2   2  -8  194.75   12.37
  -2   2  -8  173.30   11.29
   2  -2   9 1177.73   41.84
   2  -2   9 1174.23   54.23
  -2   2  -9 1171.58   49.54
   2  -2  10 2084.42   75.91
   2  -2  10 2413.08  139.77
  -2   2 -10 2128.26   90.09
   2  -2  11  450.91   20.07
  -2   2 -11  471.99   28.35
   2  -2  12   90.69    8.84
  -2   2 -12   76.11    7.16
   2  -2  13 1177.50   60.84
  -2   2 -13 1112.85   50.26
   2  -2  14  421.09   23.60
  -2   2 -14  416.47   22.77
   2  -2  15  230.71   23.78
   2  -1   1 3543.43  131.91
   2  -1   1 3504.30  121.09
   2  -1   1 3294.81  174.86
  -2   1  -1 3594.37  133.32
  -2   1  -1 3585.13  130.05
  -2   1  -1 3796.46  156.20
   2  -1   2 4236.55  151.49
   2  -1   2 4311.63  151.74
  -2   1  -2 4394.29  160.99
  -2   1  -2 4377.86  161.10
  -2   1  -2 5042.84  202.44
   2  -1   3  470.56  179.60
   2  -1   3  478.42  204.28
  -2   1  -3  512.43  208.93
  -2   1  -3  476.76  176.89
  -2   1  -3  320.09   69.29
   2  -1   4 3306.01  123.43
   2  -1   4 3260.65  110.83
   2  -1   4 3227.92  124.96
  -2   1  -4 3374.22  145.60
  -2   1  -4 3364.49  123.27
  -2   1  -4 3597.51  120.81
   2  -1   5 4087.27  150.68
   2  -1   5 4030.57  140.12
   2  -1   5 4254.91  159.26
  -2   1  -5 4075.89  152.11
  -2   1  -5 4084.99  168.30
   2  -1   6 4402.65  167.18
  -2   1  -6 4465.58  172.33
  -2   1  -6 4529.15  188.15
   2  -1   7  141.13   31.85
   2  -1   7  134.85   34.68
   2  -1   7  177.73   29.58
  -2   1  -7  175.67   34.83
  -2   1  -7  173.00   41.40
   2  -1   8  320.12   18.13
   2  -1   8  316.94   16.71
   2  -1   8  346.85   21.27
  -2   1  -8  355.56   17.30
  -2   1  -8  333.19   25.69
   2  -1   9 1418.96   76.79
   2  -1   9 1389.20   58.69
   2  -1   9 1391.19   62.69
  -2   1  -9 1372.87   52.82
   2  -1  10  142.22   14.18
   2  -1  10  181.56   23.89
  -2   1 -10  230.63   20.19
   2  -1  11  558.38   71.06
   2  -1  11  610.02   47.99
  -2   1 -11  648.13   86.00
   2  -1  12   27.15    5.09
   2  -1  12   29.89    4.56
  -2   1 -12   29.12    5.51
   2  -1  13 1545.69   71.96
  -2   1 -13 1457.40   73.46
   2  -1  14 1114.07   60.68
  -2   1 -14 1016.55   59.94
   2  -1  15   17.22    7.17
   2   0   0 3587.39  121.58
   2   0   0 3278.95  130.65
   2   0   0 3554.29  129.17
   2   0   0 2574.09  136.40
  -2   0   0 3490.69  128.48
  -2   0   0 3692.58  119.59
  -2   0   0 2742.80  138.07
   2   0   1 3735.35  155.20
   2   0   1 4035.34  146.74
   2   0   1 4116.10  147.45
   2   0   1 3908.29  158.86
  -2   0  -1 4145.89  166.56
  -2   0  -1 3788.28  167.96
  -2   0  -1 3975.10  145.49
   2   0   2 2275.06   82.23
   2   0   2 2490.17   92.35
   2   0   2 2354.77   89.71
  -2   0  -2 2366.66   89.45
  -2   0  -2 2234.17   96.67
  -2   0  -2 2517.96   84.21
   2   0   3   96.97    4.71
   2   0   3  102.59    5.21
  -2   0  -3  151.65  131.90
  -2   0  -3   97.60    9.39
  -2   0  -3  115.07    5.81
   2   0   4 1965.55   82.70
   2   0   4 2000.15   81.19
   2   0   4 2081.85   71.53
  -2   0  -4 2086.79   82.49
  -2   0  -4 1908.86   85.04
   2   0   5 9271.98  325.65
  -2   0  -5 8958.07  389.15
   2   0   6 2065.97   81.00
   2   0   6 1978.85   72.82
   2   0   6 1947.46   68.44
  -2   0  -6 2030.42  100.69
  -2   0  -6 1915.42   84.87
   2   0   7   20.36    3.35
   2   0   7   22.99    4.69
   2   0   7   21.45    2.96
  -2   0  -7   12.80    3.35
   2   0   8  186.65    9.56
   2   0   8  169.63    8.93
   2   0   8  172.47    8.90
  -2   0  -8  193.26   25.85
  -2   0  -8  168.36   11.00
   2   0   9  475.38   31.41
   2   0   9  461.01   18.39
   2   0   9  431.84   17.65
  -2   0  -9  422.61   20.11
   2   0  10 1104.56   42.78
   2   0  10 1061.47   44.59
  -2   0 -10 1089.87   58.01
   2   0  11  612.76   26.32
   2   0  11  591.01   31.20
  -2   0 -11  589.77   53.90
   2   0  12  825.15   40.75
   2   0  12  835.14   40.06
  -2   0 -12  794.36   39.18
   2   0  13 1112.27   55.49
  -2   0 -13 1080.29   55.61
   2   0  14  302.18   22.20
  -2   0 -14  281.63   22.47
   2   0  15   65.57   12.57
   2   1   0  242.25   98.91
   2   1   0 5124.70  175.19
   2   1   0 5326.16  138.65
   2   1   0 5220.62  149.30
  -2  -1   0 5207.92  209.54
  -2  -1   0 4529.63  222.98
  -2  -1   0 5685.74  187.99
  -2  -1   0 5377.69  196.26
   2   1   1 1230.38   58.78
   2   1   1 1428.33   49.16
   2   1   1 1349.12   51.92
  -2  -1  -1 1253.73   55.54
  -2  -1  -1 1085.07   56.55
  -2  -1  -1 1534.43   47.95
  -2  -1  -1 1421.88   53.50
   2   1   2 1638.19   55.81
   2   1   2 1520.06   57.63
   2   1   3   46.15    3.17
   2   1   3   48.58    3.14
   2   1   3   64.29    3.76
   2   1   3   60.81    4.09
  -2  -1  -3   50.66    2.99
  -2  -1  -3   49.91    3.17
  -2  -1  -3   67.63    3.89
  -2  -1  -3   47.91    2.29
   2   1   4 1083.46   51.78
   2   1   4 1050.58   45.20
   2   1   4 1155.89   44.06
  -2  -1  -4  999.57   46.05
  -2  -1  -4 1023.44   38.83
   2   1   5 6904.12  288.65
   2   1   5 6674.05  274.03
   2   1   5 7225.32  287.39
  -2  -1  -5 6318.33  266.93
  -2  -1  -5 6297.95  273.20
   2   1   6  949.58   36.76
   2   1   6  913.57   36.60
   2   1   6  937.14   34.58
  -2  -1  -6  846.01   34.21
  -2  -1  -6  890.11   37.18
   2   1   7  113.84    7.53
   2   1   7  111.68    7.09
   2   1   7  101.96    5.66
  -2  -1  -7  109.32    6.20
  -2  -1  -7  101.92    7.52
   2   1   8 2133.06   83.28
   2   1   8 1981.61   73.33
   2   1   8 2004.46   77.90
  -2  -1  -8 1807.66   70.78
   2   1   9  780.57   46.66
   2   1   9  747.36   28.80
   2   1   9  735.20   27.87
  -2  -1  -9  729.71   28.79
   2   1  10 1105.63   42.66
   2   1  10 1051.43   43.23
   2   1  11  487.23   24.29
   2   1  11  470.37   19.62
  -2  -1 -11  463.55   22.28
   2   1  12  125.32    9.82
   2   1  12  128.50    9.37
  -2  -1 -12  129.57   10.81
   2   1  13 1119.29   57.19
   2   1  13 1083.09   73.66
  -2  -1 -13 1063.32   57.02
   2   1  14  671.61   42.62
  -2  -1 -14  582.93   39.95
   2   1  15    9.53   11.05
   2   2   0   90.73   58.69
   2   2   0 3221.37  121.17
   2   2   0 3846.61   90.99
   2   2   0 3779.42  110.50
  -2  -2   0 3191.64  167.27
  -2  -2   0 4066.25  146.23
  -2  -2   0 4221.83  164.26
  -2  -2   0 3929.85  156.93
   2   2   1 3208.45  121.17
   2   2   1 3119.27  253.39
   2   2   1 3352.09  121.28
   2   2   1 3633.60  262.00
  -2  -2  -1 3125.59  399.30
  -2  -2  -1 3339.52  122.11
  -2  -2  -1 3610.57  121.23
  -2  -2  -1 3771.91  308.62
   2   2   2 1306.79  414.89
   2   2   2  997.50  205.27
   2   2   2  712.63   27.80
   2   2   2  799.92   66.45
  -2  -2  -2 1198.32  416.14
  -2  -2  -2  743.14   97.11
  -2  -2  -2  781.32   27.44
   2   2   3  258.22   15.31
   2   2   3  237.96   12.11
   2   2   3  281.71    9.61
   2   2   3  255.25   12.35
  -2  -2  -3  226.84   12.12
  -2  -2  -3  259.70   11.53
   2   2   4 2098.32   80.84
   2   2   4 1934.20   86.32
   2   2   4 2178.62   72.61
   2   2   4 2044.82   84.67
  -2  -2  -4 1797.20   88.94
  -2  -2  -4 2055.58   77.37
   2   2   5 3648.48  150.69
   2   2   5 3365.40  127.37
  -2  -2  -5 3144.97  143.29
  -2  -2  -5 3499.25  137.24
   2   2   6  653.96   31.33
   2   2   6  727.87   37.16
   2   2   6  662.98   28.08
  -2  -2  -6  617.69   45.52
  -2  -2  -6  571.66   24.27
   2   2   6  604.82   32.07
   2   2   7  721.91   63.60
   2   2   7  737.34   64.54
  -2  -2  -7  678.90   72.36
  -2  -2  -7  572.35   27.42
   2   2   8 1661.86  108.20
   2   2   8 1628.32   63.98
   2   2   8 1662.77   61.73
  -2  -2  -8 1540.42   62.79
   2   2   9 1059.15   95.25
   2   2   9 1123.69   49.06
   2   2   9 1095.52   42.56
  -2  -2  -9 1017.07   42.68
   2   2  10 1345.06   54.27
   2   2  10 1341.84   51.83
  -2  -2 -10 1282.89   55.68
   2   2  11  195.37   12.30
   2   2  11  204.23   11.97
  -2  -2 -11  178.37   10.44
   2   2  12  263.59   15.05
   2   2  12  229.49   13.40
  -2  -2 -12  267.95   15.90
   2   2  13  746.85   39.59
   2   2  13  724.16   52.71
  -2  -2 -13  693.52   36.91
   2   2  14  501.98   37.11
  -2  -2 -14  454.98   40.57
   2   2  15    0.97    8.00
   2   3   0 5348.05  182.57
   2   3   0 4917.92  201.73
   2   3   0 4980.28  205.57
  -2  -3   0 5092.22  210.55
  -2  -3   0 5529.19  222.38
  -2  -3   0 5236.15  194.69
   2   3   1 1980.58   78.86
   2   3   1 1808.30   71.86
   2   3   1 1902.40   67.79
   2   3   1 1882.43   77.11
  -2  -3  -1 1738.12   70.78
  -2  -3  -1 1988.22   84.09
  -2  -3  -1 1993.07   83.29
   2   3   2 1468.02   58.23
   2   3   2 1380.37   59.23
   2   3   2 1390.79   52.71
   2   3   2 1408.37   64.63
  -2  -3  -2 1389.03  119.40
  -2  -3  -2 1448.85  130.04
  -2  -3  -2 1546.51   89.39
   2   3   3  200.07    7.95
   2   3   3  170.85    7.55
   2   3   3  197.82    8.10
   2   3   3  179.77    8.22
  -2  -3  -3  166.50    9.25
  -2  -3  -3  201.22    7.94
   2   3   4 3721.88  143.54
   2   3   4 3723.39  123.00
   2   3   4 3506.90  150.31
  -2  -3  -4 3167.85  135.42
  -2  -3  -4 3653.27  122.90
   2   3   5 3664.24  145.73
   2   3   5 4266.35  138.44
   2   3   5 3916.79  142.57
  -2  -3  -5 3574.33  173.65
  -2  -3  -5 4027.52  150.85
   2   3   6  685.85   33.17
   2   3   6  568.00   24.41
   2   3   6  695.84   23.95
   2   3   6  575.57   24.02
  -2  -3  -6  602.67   51.85
  -2  -3  -6  592.56   53.12
   2   3   7  691.87   32.07
   2   3   7  619.22   25.29
   2   3   7  744.79   24.86
   2   3   7  657.97   29.83
  -2  -3  -7  678.44   71.25
   2   3   8  563.12   30.47
   2   3   8  543.20   23.07
   2   3   8  639.61   22.85
   2   3   8  567.76   23.87
  -2  -3  -8  533.37   26.79
  -2  -3  -8  572.32   23.57
   2   3   9  872.48   80.68
   2   3   9  983.95   38.71
   2   3   9 1062.41   38.91
   2   3   9 1041.15   40.37
  -2  -3  -9 1026.43   44.29
  -2  -3  -9  919.18   40.58
   2   3  10  780.93   32.66
   2   3  10  849.04   38.98
   2   3  10  780.51   33.55
  -2  -3 -10  771.16   57.81
   2   3  11    2.27    3.97
   2   3  11    7.73    3.53
   2   3  11   19.02    6.57
  -2  -3 -11    5.81    4.68
   2   3  12  348.72   20.07
   2   3  12  371.51   19.75
  -2  -3 -12  347.98   18.24
   2   3  13  667.13   38.75
   2   3  13  649.98   42.65
  -2  -3 -13  639.20   43.62
   2   3  14  464.68   32.97
  -2  -3 -14  470.91   37.99
   2   3  15   26.19   15.99
   2   4   0 5744.23  186.90
   2   4   0 4939.86  221.97
  -2  -4   0 5543.10  213.72
  -2  -4   0 5565.71  186.34
  -2  -4   0 5792.76  234.52
  -2  -4   0 5164.20  186.13
   2   4   1 2371.57   88.35
   2   4   1 2282.38   80.29
   2   4   1 2144.00  107.74
  -2  -4  -1 2374.64   96.36
  -2  -4  -1 2447.60   81.97
  -2  -4  -1 2497.87   90.31
  -2  -4  -1 2202.27   78.46
   2   4   2  496.75   56.42
   2   4   2  514.61   56.23
   2   4   2  466.30   72.29
  -2  -4  -2  556.78   21.85
  -2  -4  -2  588.67   23.74
  -2  -4  -2  485.63   18.96
   2   4   3  624.40   21.17
   2   4   3  562.38   22.60
   2   4   3  584.56   22.35
   2   4   3  577.43   25.70
  -2  -4  -3  583.77   24.81
  -2  -4  -3  635.08   23.65
   2   4   4 1523.42   52.51
   2   4   4 1350.36   53.85
   2   4   4 1415.61   49.85
   2   4   4 1394.38   56.12
  -2  -4  -4 1529.22   52.74
   2   4   5 3014.03  109.83
   2   4   5 2584.31  102.90
   2   4   5 2901.66  100.69
   2   4   5 2775.57  109.05
  -2  -4  -5 2616.18  121.52
  -2  -4  -5 2991.82  115.63
   2   4   6 1380.13  105.65
   2   4   6 1332.47   77.04
   2   4   6 1403.74   87.15
   2   4   6 1315.69   98.21
  -2  -4  -6 1469.43   63.73
   2   4   7  124.79   24.10
   2   4   7  134.65   27.47
   2   4   7  132.15   25.91
  -2  -4  -7  271.79   24.39
   2   4   8 1559.73  138.06
   2   4   8 1570.49   65.29
   2   4   8 1566.56   62.26
   2   4   8 1709.03   73.78
  -2  -4  -8 1570.61   68.68
   2   4   9  741.02   38.95
   2   4   9  793.63   38.29
   2   4   9  778.31   38.80
  -2  -4  -9  753.44   35.86
   2   4  10   57.10    9.19
   2   4  10   53.14   12.17
  -2  -4 -10  109.97   10.75
   2   4  11   17.75    6.06
   2   4  11   12.98    6.91
  -2  -4 -11   30.86    8.74
   2   4  12   61.02    8.28
   2   4  12   44.64    7.82
  -2  -4 -12   51.05    8.42
   2   4  13 1167.74   76.13
  -2  -4 -13 1133.89   84.84
   2   4  14  481.10   32.03
  -2  -4 -14  482.19   38.61
   2   5   0 3171.23  115.23
   2   5   0 2870.90  118.85
  -2  -5   0 3075.05  122.06
  -2  -5   0 3183.71  117.77
  -2  -5   0 3128.53  118.92
  -2  -5   0 2864.60  107.06
   2   5   1  551.44   21.12
   2   5   1  569.76   50.50
   2   5   1  534.30  112.38
  -2  -5  -1  517.95   23.95
  -2  -5  -1  547.04   20.50
  -2  -5  -1  553.31   22.80
  -2  -5  -1  507.10   19.09
   2   5   2    6.81    1.98
   2   5   2   12.81    3.34
   2   5   2    5.40    8.85
  -2  -5  -2   45.40   17.49
  -2  -5  -2  120.16   25.48
   2   5   3  198.07    8.33
   2   5   3  206.80   50.83
   2   5   3  173.05   43.83
  -2  -5  -3  296.47   47.46
  -2  -5  -3  184.13    9.43
  -2  -5  -3  208.45    9.07
   2   5   4 1723.21   61.15
   2   5   4 1560.71   61.85
   2   5   4 1636.06   66.83
  -2  -5  -4 1633.89   70.89
  -2  -5  -4 1742.64   63.12
   2   5   5 3054.37  102.51
   2   5   5 2892.39  120.04
   2   5   5 2856.53  119.17
  -2  -5  -5 2986.51  119.42
   2   5   6  287.43   17.60
   2   5   6  285.55   23.44
   2   5   6  291.16   15.53
  -2  -5  -6  324.60   39.32
   2   5   7  463.10   29.94
   2   5   7  458.80   25.00
   2   5   7  472.01   16.94
   2   5   7  458.15   23.59
  -2  -5  -7  453.94   41.20
   2   5   8 1313.96  102.63
   2   5   8 1269.47   51.57
   2   5   8 1332.75   65.09
   2   5   8 1396.61   59.62
  -2  -5  -8 1307.80   61.64
   2   5   9  638.14   30.35
   2   5   9  644.36   28.20
  -2  -5  -9  612.24   28.95
   2   5  10   93.63    8.15
   2   5  10   67.53    8.76
  -2  -5 -10   88.58   22.47
   2   5  11   -8.69    7.15
   2   5  11    4.68    7.52
  -2  -5 -11    5.18    7.57
   2   5  12  155.90   12.46
   2   5  12  161.57   14.19
  -2  -5 -12  127.55   12.73
   2   5  13  941.20   71.02
  -2  -5 -13  852.15   61.08
   2   6   0 2079.36   77.43
   2   6   0 1964.47   65.30
   2   6   0 1977.34   86.09
  -2  -6   0 2027.30   78.97
  -2  -6   0 2024.82   81.78
  -2  -6   0 2053.25   84.12
  -2  -6   0 1936.09   75.27
   2   6   1  590.71   23.16
   2   6   1  574.54   22.51
   2   6   1  549.83   26.90
  -2  -6  -1  585.30   23.05
  -2  -6  -1  569.08   20.92
  -2  -6  -1  560.10   26.23
  -2  -6  -1  575.03   21.55
   2   6   2  201.40    8.74
   2   6   2  201.08    8.77
   2   6   2  188.42   10.75
  -2  -6  -2  206.18   11.15
  -2  -6  -2  208.50   11.46
  -2  -6  -2  208.21    9.87
  -2  -6  -2  209.11    9.75
   2   6   3  324.41   12.69
   2   6   3  312.24   13.09
  -2  -6  -3  295.44   15.09
  -2  -6  -3  317.04   15.25
  -2  -6  -3  340.73   13.15
  -2  -6  -3  305.77   12.75
   2   6   4 1345.32   56.50
   2   6   4 1290.32   48.04
   2   6   4 1251.52   53.70
  -2  -6  -4 1341.03   54.28
  -2  -6  -4 1293.11   44.83
   2   6   5 1587.14   87.73
   2   6   5 1584.37   59.43
   2   6   5 1534.68   68.55
  -2  -6  -5 1604.74   75.11
   2   6   6  526.55   29.30
   2   6   6  492.53   23.73
   2   6   6  521.33   24.16
  -2  -6  -6  500.48   23.46
   2   6   7  608.96   47.79
   2   6   7  567.61   24.18
  -2  -6  -7  592.94   36.21
   2   6   8 1379.18   60.03
  -2  -6  -8 1357.27   55.32
   2   6   9  391.91   21.04
   2   6   9  384.34   21.31
  -2  -6  -9  334.46   18.65
   2   6  10   -0.14    7.12
  -2  -6 -10  -10.89    7.96
   2   6  11    5.02    6.14
  -2  -6 -11    9.35    7.26
   2   6  12  302.63   23.18
   2   7   0 2467.19   91.86
   2   7   0 2306.54   78.26
   2   7   0 2334.79  121.42
  -2  -7   0 2348.21   99.05
  -2  -7   0 2420.68  105.02
   2   7   1  245.26   10.19
   2   7   1  209.11   10.55
   2   7   1  224.31   25.30
  -2  -7  -1  214.76   11.34
  -2  -7  -1  216.35   12.72
   2   7   2   24.21    3.85
   2   7   2   18.43    3.16
   2   7   2   15.22    5.73
  -2  -7  -2   16.99    3.29
  -2  -7  -2   13.38    2.04
  -2  -7  -2   15.66    3.19
   2   7   3  177.58   11.52
   2   7   3  187.67   10.04
   2   7   3  181.15   14.03
  -2  -7  -3  162.65    9.37
  -2  -7  -3  183.89   10.18
  -2  -7  -3  174.88    9.94
   2   7   4 1386.76   98.02
   2   7   4 1365.51   51.18
   2   7   4 1339.60   60.83
  -2  -7  -4 1471.68   61.43
  -2  -7  -4 1331.68   56.93
   2   7   5 1325.84   53.55
   2   7   5 1222.08   56.33
  -2  -7  -5 1347.77   50.60
  -2  -7  -5 1198.72   43.92
   2   7   6  215.97   39.67
   2   7   6  144.57   14.71
  -2  -7  -6  158.23   18.00
  -2  -7  -6  148.19    8.40
   2   7   7  402.01   18.62
   2   7   7  425.42   21.81
  -2  -7  -7  404.27   19.31
   2   7   8  733.25   34.34
   2   7   8  803.07   40.92
  -2  -7  -8  748.42   41.65
   2   7   9  269.30   17.02
   2   7   9  278.14   20.19
  -2  -7  -9  223.45   16.86
   2   7  10   -0.56    8.07
   2   7  10   -5.02   10.46
  -2  -7 -10  -13.08    9.74
   2   8   0 2718.71   93.28
   2   8   0 2697.08  117.08
  -2  -8   0 2863.99  109.94
  -2  -8   0 2904.49  116.98
   2   8   1  534.48   23.35
   2   8   1  546.48   28.78
  -2  -8  -1  487.67   24.11
  -2  -8  -1  534.49   27.92
   2   8   2   78.80    5.53
   2   8   2   56.50    9.00
  -2  -8  -2   63.58    7.36
   2   8   3  666.75   26.66
   2   8   3  627.81   31.34
  -2  -8  -3  707.81   28.54
   2   8   4  284.79   14.32
   2   8   4  260.10   15.43
  -2  -8  -4  265.12   14.31
   2   8   5  571.05   23.93
   2   8   5  565.05   32.07
  -2  -8  -5  555.59   28.37
   2   8   6  246.04   14.68
   2   8   6  194.09   18.45
  -2  -8  -6  165.74   21.88
   2   8   7  426.32   24.05
   2   8   7  438.46   27.79
  -2  -8  -7  409.62   26.36
   2   8   8 1185.35   46.12
   2   8   8 1204.01   67.49
   2   8   9  206.75   15.84
   2   9   0 1536.90   57.25
   2   9   0 1503.53   69.90
   2   9   1  146.17   10.41
   2   9   1  123.46   14.28
   2   9   2  119.13    8.94
   2   9   2  109.31   10.86
   2   9   3  333.91   20.85
   2   9   4  298.56   14.69
   2   9   4  271.88   17.50
   2   9   5  463.36   22.32
   2   9   5  372.54   24.63
   2   9   6   64.80   12.94
   2   9   6   35.43   10.50
   2   9   7  533.07   29.64
   2  10   0  926.88   39.42
   2  10   0  933.74   49.17
   2  10   1   75.92    7.29
   2  10   1   80.96   11.62
   2  10   2  346.12   18.71
   2  10   2  321.94   20.65
   2  10   3  395.77   21.04
   2  10   4  187.27   13.94
   2  10   4  193.70   20.01
   2  10   5  299.73   21.91
   2  11   0  872.32   46.46
   2  11   0  806.73   49.53
   2  11   1   62.25    7.82
   2  11   1   47.86   11.46
   2  11   2  349.99   22.00
   3 -11   1  581.67   35.31
  -3  11  -1  600.85   35.05
   3 -11   2  375.66   26.74
  -3  11  -2  374.72   24.73
   3 -11   3   81.53   11.20
   3 -11   4  647.65   40.36
   3 -10   1  573.10   26.66
  -3  10  -1  563.54   25.18
   3 -10   2  161.84   13.05
  -3  10  -2  167.71   13.59
   3 -10   3   41.83    7.66
  -3  10  -3   40.75    7.93
   3 -10   4  689.38   32.20
  -3  10  -4  693.10   35.08
   3 -10   5  909.90   43.30
  -3  10  -5  926.20   43.34
   3 -10   6   16.20   10.19
  -3  10  -6    6.56   10.89
   3 -10   7   86.83   13.49
   3  -9   1  917.61   36.35
  -3   9  -1  948.61   38.12
   3  -9   2  328.29   16.93
  -3   9  -2  325.07   15.17
   3  -9   3   62.03   10.14
  -3   9  -3   51.08   11.78
   3  -9   4 1533.37   55.95
  -3   9  -4 1531.17   54.47
   3  -9   5  852.01   33.74
  -3   9  -5  816.76   35.07
   3  -9   6   40.39    7.66
  -3   9  -6   45.68    8.08
   3  -9   7  205.93   12.80
  -3   9  -7  229.66   14.34
   3  -9   8  442.03   26.82
  -3   9  -8  445.91   26.96
   3  -9   9  278.65   21.16
   3  -8   1  907.19   35.01
  -3   8  -1  884.62   33.13
   3  -8   2  486.90   20.25
  -3   8  -2  503.28   21.34
   3  -8   3  220.64   11.69
  -3   8  -3  226.43   11.84
   3  -8   4 2777.97   98.22
  -3   8  -4 2777.15   96.99
   3  -8   5  667.74   26.12
  -3   8  -5  682.49   27.22
   3  -8   6   79.13    9.30
  -3   8  -6   93.40    9.30
   3  -8   7   46.92    8.47
  -3   8  -7   28.73    8.05
   3  -8   8  219.26   14.38
  -3   8  -8  244.03   14.95
   3  -8   9  652.11   34.35
  -3   8  -9  650.06   35.05
   3  -8  10  124.27   14.78
  -3   8 -10  150.71   13.68
   3  -7   1  581.81   22.65
  -3   7  -1  567.57   21.04
   3  -7   2  134.18    8.18
  -3   7  -2  123.05    8.04
   3  -7   3  987.92   61.01
  -3   7  -3 1048.59   57.21
   3  -7   4 1880.92   62.95
  -3   7  -4 1910.62   65.15
   3  -7   5 1919.38   64.36
  -3   7  -5 1956.28   67.11
   3  -7   6  238.57   13.40
  -3   7  -6  225.81   12.57
   3  -7   7  752.84   28.75
  -3   7  -7  732.51   28.47
   3  -7   8  631.46   27.20
  -3   7  -8  646.79   28.58
   3  -7   9  164.96   12.99
  -3   7  -9  174.62   13.27
   3  -7  10  193.08   13.70
  -3   7 -10  229.64   15.23
   3  -7  11    6.07    7.87
  -3   7 -11    7.18    8.14
   3  -6   1  382.88   15.44
   3  -6   1  368.83   16.91
  -3   6  -1  401.52   16.39
   3  -6   2   29.18    6.38
   3  -6   2  105.05    9.46
  -3   6  -2   29.32    4.62
   3  -6   3 1463.01   52.82
   3  -6   3 1522.27   59.89
  -3   6  -3 1423.74   49.41
   3  -6   4 2191.73   72.43
  -3   6  -4 2305.45   79.66
   3  -6   5 2040.88   67.91
  -3   6  -5 2063.68   68.88
  -3   6  -5 2203.99  119.80
   3  -6   6   25.37    6.27
  -3   6  -6   39.96    6.96
  -3   6  -6   28.86    3.92
   3  -6   7  896.86   35.03
  -3   6  -7  918.60   35.05
   3  -6   8  950.66   37.67
  -3   6  -8 1012.97   41.92
   3  -6   9  774.23   30.85
  -3   6  -9  856.99   34.29
   3  -6  10   96.12    9.46
   3  -6  10  125.83    9.60
  -3   6 -10  121.59   10.29
   3  -6  11   65.66   12.07
  -3   6 -11   23.03   10.14
   3  -6  12  478.62   30.01
  -3   6 -12  469.73   33.83
   3  -5   1  751.03   28.15
   3  -5   1  777.54   30.44
  -3   5  -1  790.58   29.77
  -3   5  -1  797.92   34.44
   3  -5   2   93.34    9.21
   3  -5   2  117.48    8.45
  -3   5  -2   88.06   10.83
  -3   5  -2   84.80    9.87
   3  -5   3 1052.08   41.94
   3  -5   3 1194.57   50.95
  -3   5  -3 1056.82   51.38
  -3   5  -3 1082.72   51.69
   3  -5   4 2834.30   99.16
   3  -5   4 3006.51  113.54
  -3   5  -4 2852.78  101.46
   3  -5   5 2274.75   78.53
   3  -5   5 2296.78  116.30
  -3   5  -5 2316.40   86.34
  -3   5  -5 2456.95   89.83
   3  -5   6   17.30    5.00
  -3   5  -6    5.69    3.05
   3  -5   7 1118.91   40.11
   3  -5   7 1144.65   44.15
  -3   5  -7 1216.87   43.12
  -3   5  -7 1278.68   70.83
   3  -5   8 1101.33   49.09
  -3   5  -8 1106.97   41.54
   3  -5   9  554.59   23.81
  -3   5  -9  569.59   23.41
   3  -5  10   23.73    7.78
  -3   5 -10   46.11    8.05
   3  -5  11   62.03   10.25
  -3   5 -11   66.95   10.94
   3  -5  12  814.95   38.34
  -3   5 -12  804.18   39.29
   3  -5  13  468.68   30.01
   3  -4   1  354.75   13.23
   3  -4   1  348.85   13.79
  -3   4  -1  359.58   13.36
  -3   4  -1  356.45   14.19
   3  -4   2   62.83    4.58
   3  -4   2   60.67    4.88
  -3   4  -2   69.96    4.85
  -3   4  -2   71.56    5.41
   3  -4   3  130.29   10.76
   3  -4   3  182.89   15.83
  -3   4  -3  136.48    8.35
  -3   4  -3  169.06   20.67
   3  -4   4 2528.08   97.57
   3  -4   4 2655.02  109.70
  -3   4  -4 2596.63  100.01
  -3   4  -4 2603.53  116.33
  -3   4  -4 2650.95  121.23
   3  -4   5 3140.83  110.31
   3  -4   5 3449.90  135.03
   3  -4   5 3244.91  107.98
  -3   4  -5 3319.76  112.02
  -3   4  -5 3443.15  149.33
   3  -4   6  116.52    8.48
   3  -4   6  127.06    7.95
  -3   4  -6  131.24    7.95
  -3   4  -6  125.83    6.64
   3  -4   7 1841.67   63.79
  -3   4  -7 1915.84   67.85
  -3   4  -7 2057.09   79.56
   3  -4   8 1394.42  101.14
  -3   4  -8 1439.10   99.40
  -3   4  -8 1531.51   79.23
   3  -4   9  125.62    9.68
  -3   4  -9  151.49   13.08
   3  -4  10   89.84    7.79
  -3   4 -10  110.46    9.03
   3  -4  11   63.47    8.90
  -3   4 -11   56.35   10.13
   3  -4  12  867.49   43.01
  -3   4 -12  892.11   41.79
   3  -4  13  528.74   42.43
  -3   4 -13  549.37   36.84
   3  -3   1  266.51   10.48
   3  -3   1  277.67   11.64
  -3   3  -1  270.39   10.48
  -3   3  -1  289.30   10.74
   3  -3   2   10.95    2.27
   3  -3   2   10.59    3.14
  -3   3  -2   12.82    2.54
  -3   3  -2   10.45    3.14
   3  -3   3 1702.02   61.79
   3  -3   3 1797.91   69.52
  -3   3  -3 1730.23   62.73
  -3   3  -3 1794.25   74.64
  -3   3  -3 1788.88   71.88
   3  -3   4 4832.46  201.82
   3  -3   4 4738.56  158.08
  -3   3  -4 4849.00  172.78
  -3   3  -4 4984.89  200.67
  -3   3  -4 4893.28  210.34
   3  -3   5  845.49   32.91
   3  -3   5  812.22   29.08
  -3   3  -5  829.22   30.55
  -3   3  -5  838.68   33.29
  -3   3  -5  859.86   36.11
   3  -3   6  351.78   15.73
   3  -3   6  347.33   15.00
  -3   3  -6  331.22   14.46
  -3   3  -6  383.98   16.27
   3  -3   7  959.48   33.04
  -3   3  -7 1001.50   37.09
  -3   3  -7 1078.51   43.86
   3  -3   8 2388.73   82.83
   3  -3   9  651.31   26.72
  -3   3  -9  670.09   26.73
   3  -3  10   61.13    6.46
  -3   3 -10   57.97    6.74
   3  -3  11  319.26   17.25
  -3   3 -11  331.22   17.11
   3  -3  12  304.92   19.69
  -3   3 -12  281.01   18.72
   3  -3  13  471.23   29.12
   3  -3  14   30.29    8.32
   3  -2   1   -0.53    1.99
   3  -2   1   10.27    2.34
   3  -2   1   11.87    5.07
  -3   2  -1    3.19    1.46
  -3   2  -1    3.64    2.08
  -3   2  -1   11.24    3.29
   3  -2   2  847.52   30.23
   3  -2   2  906.84   38.33
  -3   2  -2  899.71   33.15
  -3   2  -2  868.96   32.89
  -3   2  -2  891.03   33.73
   3  -2   3 1774.68   64.95
   3  -2   3 1766.55   60.27
  -3   2  -3 1832.21   68.04
  -3   2  -3 1818.05   66.28
  -3   2  -3 1831.04   69.64
   3  -2   4 3739.55  147.78
   3  -2   4 3685.81  127.04
  -3   2  -4 3737.05  141.17
  -3   2  -4 3804.53  176.47
  -3   2  -4 3805.81  160.99
   3  -2   5 1166.89   47.39
   3  -2   5 1218.34   41.07
  -3   2  -5 1250.15   43.75
  -3   2  -5 1151.14   53.46
  -3   2  -5 1223.89   55.99
   3  -2   6   16.37    5.23
   3  -2   6   18.87    5.16
  -3   2  -6   12.35    4.16
  -3   2  -6   21.33    2.74
   3  -2   7 2518.51  120.51
   3  -2   7 2544.37   93.82
   3  -2   7 2563.71  115.86
  -3   2  -7 2622.68  104.89
  -3   2  -7 2928.75  108.68
   3  -2   8 1935.63  105.37
   3  -2   8 2059.92   88.19
  -3   2  -8 2101.81   80.93
   3  -2   9  303.94   15.43
  -3   2  -9  318.20   15.16
   3  -2  10    4.02    4.02
  -3   2 -10    8.88    4.30
   3  -2  11  215.07   13.89
  -3   2 -11  239.86   13.48
   3  -2  12  356.48   20.79
  -3   2 -12  356.32   21.61
   3  -2  13  676.23   38.22
  -3   2 -13  597.23   47.12
   3  -2  14   21.88   10.12
   3  -1   1  114.82    5.16
  -3   1  -1  124.45    5.82
  -3   1  -1  161.16    7.35
  -3   1  -1  163.42    9.96
   3  -1   2 1184.61   55.99
   3  -1   2  985.54   39.27
   3  -1   2 1256.29   47.30
  -3   1  -2 1036.31   40.34
  -3   1  -2 1152.76   43.23
  -3   1  -2 1267.84   78.71
   3  -1   3 2980.77  117.32
  -3   1  -3 3636.63  148.69
  -3   1  -3 3384.01  142.84
  -3   1  -3 3429.12  129.70
   3  -1   4 2788.79  127.93
   3  -1   4 2710.29  107.39
  -3   1  -4 2808.56  110.10
  -3   1  -4 2734.11  120.49
  -3   1  -4 3223.86  124.28
   3  -1   5  729.92   32.27
   3  -1   5  716.01   28.08
   3  -1   5  724.52   27.70
  -3   1  -5  723.99   29.71
  -3   1  -5  717.75   29.52
  -3   1  -5  798.34   29.26
   3  -1   6   54.81   17.44
   3  -1   6   67.04   17.87
   3  -1   6   74.87   17.88
  -3   1  -6   28.53   15.79
  -3   1  -6   28.19   14.79
  -3   1  -6   92.80   22.85
   3  -1   7 2194.35   84.85
   3  -1   7 2333.86   85.14
   3  -1   7 2261.47   91.76
  -3   1  -7 2333.42  121.41
   3  -1   8 1549.06   82.70
   3  -1   8 1658.54   63.60
   3  -1   8 1651.42   65.31
  -3   1  -8 1629.27   77.68
   3  -1   9   77.78    7.31
   3  -1   9   88.33    7.42
  -3   1  -9   78.19    7.59
   3  -1  10  367.05   20.93
   3  -1  11  256.93   16.80
   3  -1  11  289.67   18.84
  -3   1 -11  244.19   19.03
   3  -1  12  924.58   46.73
  -3   1 -12  842.06   41.71
   3  -1  13 1118.73   65.10
  -3   1 -13 1080.48   76.53
   3  -1  14   12.48   10.15
   3   0   0 5701.67  178.06
   3   0   0 5446.75  205.83
   3   0   0 4349.69  200.92
  -3   0   0 5570.01  206.81
  -3   0   0 5686.71  200.39
  -3   0   0 4617.21  206.20
   3   0   1  279.64   12.50
   3   0   1  301.16   11.07
   3   0   1  291.09   13.51
   3   0   1  290.72   13.04
  -3   0  -1  313.87   12.76
  -3   0  -1  282.53   12.81
  -3   0  -1  295.89   11.83
  -3   0  -1  259.37   13.56
   3   0   2 2100.19   90.30
   3   0   2 2479.36   88.81
   3   0   2 2342.10   83.53
  -3   0  -2 2443.73   94.88
  -3   0  -2 2126.94   96.34
  -3   0  -2 2519.29   87.21
   3   0   3 1610.27   70.94
   3   0   3 1797.97   75.47
   3   0   3 1874.86   64.41
   3   0   3 1875.64   70.56
  -3   0  -3 1848.36   76.01
  -3   0  -3 1730.44   77.30
   3   0   4 1208.27   48.22
   3   0   4 1351.36   50.54
   3   0   4 1357.86   47.72
   3   0   4 1340.63   53.36
  -3   0  -4 1365.70   54.12
  -3   0  -4 1233.86   57.86
  -3   0  -4 1508.76   63.92
   3   0   5 2063.66   80.55
   3   0   5 2183.55   80.81
   3   0   5 2231.95   77.27
  -3   0  -5 2079.30   88.14
   3   0   6  159.33   10.21
   3   0   6  177.76   12.50
   3   0   6  195.06    9.84
  -3   0  -6  193.59   13.64
  -3   0  -6  181.82   11.68
   3   0   7 3015.26  155.52
   3   0   7 3034.21  115.75
   3   0   7 3005.84  114.58
  -3   0  -7 3019.99  115.29
   3   0   8 1598.12  110.33
   3   0   8 1576.87   58.68
   3   0   8 1579.74   64.29
  -3   0  -8 1536.72   63.61
   3   0   9    5.55    4.27
   3   0   9    5.25    4.69
   3   0   9    9.49    3.26
  -3   0  -9    7.24    4.69
   3   0  10  253.66   14.46
   3   0  10  233.09   12.18
  -3   0 -10  258.71   14.88
   3   0  11  438.64   21.44
   3   0  11  473.70   22.06
  -3   0 -11  466.13   23.69
   3   0  12  816.75   40.77
   3   0  12  804.48   48.19
  -3   0 -12  867.59   46.06
   3   0  13  631.50   39.30
  -3   0 -13  581.52   42.19
   3   0  14   14.29    7.97
   3   1   0  764.01  190.05
   3   1   0 1341.34   51.89
   3   1   0 1320.01   45.74
   3   1   0 1634.58  181.32
  -3  -1   0 1378.92   54.38
  -3  -1   0 1503.37  232.18
  -3  -1   0 1398.81   48.34
  -3  -1   0 1648.00  215.46
  -3  -1   0 1318.28  217.47
   3   1   1   47.89   19.46
   3   1   1   36.09    2.14
   3   1   1   50.19   14.95
   3   1   1   41.49   12.49
  -3  -1  -1   34.06    2.14
  -3  -1  -1   67.32   27.66
  -3  -1  -1   40.01    3.09
  -3  -1  -1   29.88    3.26
  -3  -1  -1   48.51   21.75
   3   1   2 1535.92   89.13
   3   1   2 1777.45   94.33
   3   1   2 1922.25   73.42
   3   1   2 1914.43   94.90
  -3  -1  -2 1921.25  106.44
  -3  -1  -2 2085.14   98.50
  -3  -1  -2 1457.95   67.08
   3   1   3 2521.84  118.30
   3   1   3 2719.21  127.02
   3   1   3 3003.59  112.57
   3   1   3 2836.87  113.11
  -3  -1  -3 2778.54  113.94
  -3  -1  -3 2432.71  115.85
  -3  -1  -3 3157.05  105.04
  -3  -1  -3 2522.83  102.54
   3   1   4 1753.11   76.59
   3   1   4 1780.81   86.99
   3   1   4 1972.01   62.93
   3   1   4 1904.07   79.72
  -3  -1  -4 1880.71   88.12
  -3  -1  -4 1665.84   85.08
   3   1   5  482.43   28.04
   3   1   5  464.54   63.67
   3   1   5  561.96   49.67
   3   1   5  478.87   61.18
  -3  -1  -5  485.75   62.93
   3   1   6  471.40   20.29
   3   1   6  440.82   17.27
   3   1   6  478.28   18.29
   3   1   6  425.63   17.32
  -3  -1  -6  441.00   23.17
  -3  -1  -6  451.18   18.37
   3   1   7 2459.25  110.68
   3   1   7 2493.84  178.88
   3   1   7 2721.74  187.86
   3   1   7 2506.55  147.59
  -3  -1  -7 2618.00  192.83
   3   1   8 1989.36  145.69
   3   1   8 1929.99   75.77
   3   1   8 1998.84   78.26
  -3  -1  -8 1882.82   81.03
   3   1   9   96.51   12.25
   3   1   9  103.03    7.73
   3   1   9  103.01    7.66
  -3  -1  -9   98.15    8.87
   3   1  10   84.92    7.68
   3   1  10   85.92    7.63
  -3  -1 -10   88.46    8.24
   3   1  11  274.98   13.86
   3   1  11  249.10   14.41
  -3  -1 -11  259.14   14.84
   3   1  12  495.46   27.63
   3   1  12  516.38   29.42
  -3  -1 -12  522.94   36.43
   3   1  13  164.98   16.53
   3   1  13  167.62   12.38
   3   1  14    5.91   10.18
   3   2   0 2610.61  123.23
   3   2   0 2628.81  107.53
   3   2   0 2684.96   91.36
  -3  -2   0 2689.34  103.61
  -3  -2   0 2758.66   97.60
  -3  -2   0 2817.22  122.33
   3   2   1  385.21   16.86
   3   2   1  438.89   15.72
   3   2   1  425.98   18.22
  -3  -2  -1  408.02   16.95
  -3  -2  -1  451.15   16.57
  -3  -2  -1  445.98   19.60
   3   2   2 3090.61  119.91
   3   2   2 2758.68  130.73
   3   2   2 3266.58  119.20
   3   2   2 3075.96  105.75
  -3  -2  -2 2996.19  127.40
  -3  -2  -2 3315.62  122.24
   3   2   3 1044.10   44.04
   3   2   3 1189.98   38.61
   3   2   3 1076.13   39.16
  -3  -2  -3  964.54   41.67
  -3  -2  -3 1010.88   42.14
  -3  -2  -3  926.28   38.44
   3   2   4 1283.26   59.41
   3   2   4 1189.15   50.92
   3   2   4 1469.26   48.46
   3   2   4 1337.65   50.16
  -3  -2  -4 1165.55   53.67
  -3  -2  -4 1262.31   56.48
  -3  -2  -4 1199.48   51.24
   3   2   5  247.33   12.98
   3   2   5  246.40   11.85
   3   2   5  272.02   10.37
   3   2   5  243.53   11.35
  -3  -2  -5  224.79   11.55
  -3  -2  -5  226.59   12.54
   3   2   6  469.50   22.93
   3   2   6  523.12   19.70
   3   2   6  454.80   19.74
  -3  -2  -6  413.85   19.39
  -3  -2  -6  428.64   22.61
   3   2   7 3241.07  177.75
   3   2   7 3246.41  127.74
   3   2   7 3559.69  113.07
  -3  -2  -7 3126.83  138.34
   3   2   8 1420.77  127.69
   3   2   8 1436.78   59.95
   3   2   8 1551.27   57.31
   3   2   8 1408.41   54.36
  -3  -2  -8 1318.57   56.18
   3   2   9   63.34   11.01
   3   2   9   68.34    5.87
   3   2   9   87.20    6.77
   3   2   9   69.35    5.80
  -3  -2  -9   78.76    7.44
   3   2  10  141.43   10.10
   3   2  10  138.99    9.74
   3   2  10  138.64   10.18
  -3  -2 -10  125.37   10.09
   3   2  11  312.37   18.08
   3   2  11  281.25   20.37
   3   2  11  334.26   19.33
  -3  -2 -11  304.87   17.24
   3   2  12  476.63   27.76
   3   2  12  444.27   34.94
   3   2  12  445.79   36.80
  -3  -2 -12  457.38   32.77
   3   2  13   48.26    8.46
  -3  -2 -13   34.67    9.15
   3   2  14   -1.10   11.96
   3   3   0 2324.53  202.71
   3   3   0 3866.72  131.83
   3   3   0 3895.29  133.17
  -3  -3   0 4224.26  147.29
  -3  -3   0 4231.97  155.41
  -3  -3   0 4073.32  181.46
   3   3   1  332.19   11.88
   3   3   1  252.18   13.06
   3   3   1  318.10   11.05
   3   3   1  293.78   13.13
  -3  -3  -1  245.52   13.79
  -3  -3  -1  353.28   11.63
   3   3   2 1772.39   69.41
   3   3   2 1322.28   66.25
   3   3   2 1757.67   69.26
   3   3   2 1661.70   70.64
  -3  -3  -2 1285.19   75.28
  -3  -3  -2 1743.08   63.50
  -3  -3  -2 1889.58   60.73
   3   3   3 1629.38   63.61
   3   3   3 1440.78   95.96
   3   3   3 1583.74   58.73
  -3  -3  -3 1247.57   61.02
   3   3   4  433.46   22.32
   3   3   4  372.16   17.23
   3   3   4  438.74   14.78
   3   3   4  417.90   18.18
  -3  -3  -4  368.88   17.38
   3   3   5   20.97    3.43
   3   3   5   17.11    3.19
   3   3   5   16.46    2.61
   3   3   5   11.50    3.23
  -3  -3  -5   11.02    2.61
  -3  -3  -5   12.73    3.70
   3   3   6  474.16   22.45
   3   3   6  478.21   28.82
   3   3   6  554.22   46.64
   3   3   6  472.02   21.22
  -3  -3  -6  405.08   20.72
   3   3   7 1683.38  114.81
   3   3   7 1648.99   68.81
   3   3   7 1784.23   65.95
   3   3   7 1741.98   69.97
  -3  -3  -7 1557.02   72.21
   3   3   8 1326.72   96.47
   3   3   8 1358.24   58.67
   3   3   8 1431.43   52.48
   3   3   8 1387.27   54.46
  -3  -3  -8 1326.96   59.08
   3   3   9   55.81    6.84
   3   3   9   53.56    4.70
   3   3   9   50.47    6.21
  -3  -3  -9   42.56    6.55
   3   3  10  681.04   40.02
   3   3  10  632.55   30.99
  -3  -3 -10  632.58   32.08
   3   3  11  924.12   48.37
   3   3  11  882.96   47.20
  -3  -3 -11  862.19   47.22
   3   3  12  159.62   13.13
   3   3  12  168.88   15.33
  -3  -3 -12  147.47   13.97
   3   3  13   83.36   13.34
  -3  -3 -13   95.10   14.13
   3   4   0  944.59   77.80
   3   4   0 1509.57   57.90
   3   4   0 1696.24   56.67
  -3  -4   0 1899.91   71.69
  -3  -4   0 1942.92   70.82
  -3  -4   0 1741.20   63.62
   3   4   1  238.53    9.30
   3   4   1  217.69   11.50
   3   4   1  232.55   16.73
  -3  -4  -1  202.94   15.60
  -3  -4  -1  249.74   10.77
   3   4   2 1731.36   72.90
   3   4   2 1393.97   63.80
   3   4   2 1503.49   53.40
   3   4   2 1584.87   62.32
  -3  -4  -2 1417.07   77.17
  -3  -4  -2 1681.78   67.18
  -3  -4  -2 1811.18   66.98
   3   4   3 2134.20   88.56
   3   4   3 1760.76   82.65
   3   4   3 2032.61  102.25
  -3  -4  -3 1675.15   80.67
  -3  -4  -3 2090.19   89.87
   3   4   4  126.50   19.01
   3   4   4  135.19   16.46
   3   4   4  179.10   21.22
   3   4   4  145.95   24.78
  -3  -4  -4  137.38   36.07
  -3  -4  -4  110.37    7.79
   3   4   5   25.80    3.63
   3   4   5   28.75    3.29
   3   4   5   21.91    4.10
  -3  -4  -5   18.60    3.43
   3   4   6  475.34   37.99
   3   4   6  427.81   22.65
   3   4   6  494.31   26.07
   3   4   6  428.91   23.89
  -3  -4  -6  414.32   35.76
   3   4   7 1514.78  127.08
   3   4   7 1515.10   64.35
   3   4   7 1602.16   76.78
   3   4   7 1520.96   73.14
  -3  -4  -7 1456.17   76.67
   3   4   8 1142.56   50.26
   3   4   8 1177.13   58.19
   3   4   8 1113.24   47.02
  -3  -4  -8 1049.08   46.41
   3   4   9   27.02    5.94
   3   4   9   15.85    3.80
   3   4   9   10.11    4.85
  -3  -4  -9   22.35    5.94
   3   4  10  610.59   30.11
   3   4  10  633.09   26.60
  -3  -4 -10  581.13   27.85
   3   4  11  578.73   30.49
   3   4  11  563.87   33.56
  -3  -4 -11  531.94   29.07
   3   4  12  159.12   19.25
   3   4  13  204.76   19.39
   3   5   0  657.03   24.74
   3   5   0  541.08   22.83
   3   5   0  593.94   26.06
  -3  -5   0  551.34   28.53
  -3  -5   0  624.73   25.11
  -3  -5   0  594.95   25.13
  -3  -5   0  613.32   23.09
   3   5   1 1415.37   52.00
   3   5   1 1238.31   51.68
  -3  -5  -1 1189.37   61.60
  -3  -5  -1 1354.07   60.19
  -3  -5  -1 1365.35   63.70
  -3  -5  -1 1233.89   42.23
   3   5   2 3632.46  148.99
   3   5   2 3152.02  131.55
   3   5   2 3496.45  135.37
  -3  -5  -2 3250.81  155.59
  -3  -5  -2 3811.06  152.69
  -3  -5  -2 3651.71  118.45
   3   5   3 1790.20   62.99
   3   5   3 1400.08   69.81
   3   5   3 1620.10   68.12
  -3  -5  -3 1745.41   73.52
   3   5   4  383.86   18.11
   3   5   4  363.82   17.40
   3   5   4  356.78   18.36
  -3  -5  -4  344.89   23.70
   3   5   5  110.44    9.65
   3   5   5   97.87    7.07
   3   5   5   96.38    6.92
   3   5   5   96.71    8.13
  -3  -5  -5   96.64   13.83
   3   5   6  322.27   16.31
   3   5   6  362.99   14.86
   3   5   6  354.19   18.25
   3   5   7 1111.15   51.66
   3   5   7 1168.22   42.72
   3   5   7 1105.69   48.61
  -3  -5  -7 1067.45   50.52
   3   5   8  855.28   40.08
  -3  -5  -8  838.71   39.53
   3   5   9   10.12    6.18
   3   5   9    5.98    5.43
  -3  -5  -9    0.56    6.32
   3   5  10  705.94   35.46
   3   5  10  755.63   40.24
  -3  -5 -10  630.54   44.76
   3   5  11  395.58   30.86
   3   5  11  436.49   30.61
   3   6   0   24.62    3.03
   3   6   0   19.80    2.68
   3   6   0   22.02    4.69
  -3  -6   0   23.30    3.08
  -3  -6   0   13.89    2.27
  -3  -6   0   20.98    3.39
  -3  -6   0   20.93    3.21
   3   6   1  498.56   19.58
   3   6   1  426.29   18.17
   3   6   1  439.64   20.86
  -3  -6  -1  466.24   22.11
  -3  -6  -1  481.87   18.70
  -3  -6  -1  495.64   22.87
  -3  -6  -1  459.36   18.85
   3   6   2 3094.91  131.37
   3   6   2 2666.63  118.02
   3   6   2 2952.41  111.16
  -3  -6  -2 2929.25  145.05
  -3  -6  -2 3341.00  122.41
  -3  -6  -2 3074.86  106.78
   3   6   3 1309.38   62.27
   3   6   3 1193.27   71.29
   3   6   3 1165.78   73.86
  -3  -6  -3 1269.12   52.67
  -3  -6  -3 1295.77   59.39
  -3  -6  -3 1215.08   40.60
   3   6   4  319.68   44.91
   3   6   4  295.96   43.97
  -3  -6  -4  380.34   30.50
  -3  -6  -4  371.70   14.07
   3   6   5    8.65    3.21
   3   6   5   15.75    5.58
  -3  -6  -5    8.65    2.79
   3   6   6  282.22   16.29
   3   6   6  296.92   25.70
  -3  -6  -6  316.70   22.44
   3   6   7  872.51   46.69
   3   6   7  941.90   43.27
  -3  -6  -7  837.39   43.34
   3   6   8  416.92   22.63
   3   6   8  460.22   24.34
   3   6   9   36.73    6.71
   3   6   9   44.64   10.61
   3   6  10  487.47   30.90
   3   6  10  477.99   32.63
   3   7   0  267.66   11.37
   3   7   0  266.68   14.22
  -3  -7   0  264.85   15.47
  -3  -7   0  266.03   16.02
  -3  -7   0  281.56   11.95
   3   7   1  147.50    7.97
   3   7   1  165.52   10.39
  -3  -7  -1  155.10    8.65
  -3  -7  -1  150.97   10.32
  -3  -7  -1  173.18    9.13
   3   7   2 1464.53   57.20
   3   7   2 1458.06   64.64
  -3  -7  -2 1447.77   67.17
  -3  -7  -2 1509.17   80.53
  -3  -7  -2 1532.80   53.04
   3   7   3  805.03   33.57
   3   7   3  788.96   36.46
  -3  -7  -3  776.01   43.35
  -3  -7  -3  931.82   46.41
   3   7   4    5.10    3.44
   3   7   4    6.91    4.89
  -3  -7  -4    9.23    3.44
  -3  -7  -4   33.73   10.49
   3   7   5  275.85   14.34
   3   7   5  309.36   17.59
  -3  -7  -5  303.84   14.51
   3   7   6  237.82   13.39
   3   7   6  257.83   16.34
   3   7   7  434.03   22.80
   3   7   7  397.31   23.52
   3   7   8  536.56   27.03
   3   7   8  573.27   32.00
   3   7   9   24.87    5.98
   3   8   0  538.99   22.67
   3   8   0  503.42   25.65
   3   8   1  352.64   15.37
   3   8   1  329.60   16.93
   3   8   2 1317.37   58.54
   3   8   2 1240.08   63.67
  -3  -8  -2 1283.24   66.37
   3   8   3  342.30   17.94
   3   8   3  332.70   17.40
  -3  -8  -3  356.39   18.34
   3   8   4   16.84    4.11
   3   8   4   17.52    6.03
   3   8   5  136.14   10.62
   3   8   5  154.02   12.62
   3   8   6  259.38   14.44
   3   8   6  237.36   17.99
   3   8   7  692.48   40.61
   3   8   8  228.45   18.19
   3   9   0  142.09    9.02
   3   9   0  129.44   10.59
   3   9   1  319.22   15.97
   3   9   1  307.42   17.02
   3   9   2 1401.15   50.04
   3   9   2 1318.55   70.07
   3   9   3  553.90   24.62
   3   9   3  524.74   29.00
   3   9   4   23.84    6.81
   3   9   4    7.71    7.00
   3   9   6  131.01   13.35
   3  10   0   56.16    7.01
   3  10   0   46.12    9.94
   3  10   1  288.49   16.46
   3  10   1  268.69   20.57
   3  10   2  952.55   48.10
   3  10   2  901.39   52.61
   3  10   3  388.06   22.14
   3  10   4   31.63    9.78
   3  11   0   23.80    7.54
   3  11   1  440.25   30.72
   4 -10   1  193.23   13.95
  -4  10  -1  175.66   12.46
   4 -10   2  164.67   13.37
  -4  10  -2  153.40   15.13
   4 -10   3  356.61   25.47
  -4  10  -3  379.30   25.21
   4 -10   4  670.33   37.31
  -4  10  -4  673.77   40.89
   4 -10   5   60.98   10.17
   4  -9   1  149.45   13.41
  -4   9  -1  132.56   13.41
   4  -9   2  553.03   25.90
  -4   9  -2  518.22   23.45
   4  -9   3  510.84   24.05
  -4   9  -3  543.32   23.39
   4  -9   4  459.83   20.91
  -4   9  -4  462.96   22.15
   4  -9   5   33.66    8.35
  -4   9  -5   20.58    7.23
   4  -9   6  481.59   29.78
  -4   9  -6  494.42   30.90
   4  -9   7  832.95   43.13
   4  -8   1  281.90   15.87
  -4   8  -1  300.46   18.04
   4  -8   2  391.12   18.21
  -4   8  -2  401.80   18.35
   4  -8   3  636.05   26.40
  -4   8  -3  671.15   26.97
   4  -8   4  471.54   21.81
  -4   8  -4  466.27   22.36
   4  -8   5   73.81   10.27
  -4   8  -5   50.64    9.72
   4  -8   6  577.27   27.89
  -4   8  -6  597.28   27.35
   4  -8   7  868.94   36.34
  -4   8  -7  912.99   35.96
   4  -8   8  419.08   26.26
  -4   8  -8  399.20   24.16
   4  -8   9   73.09   14.99
   4  -7   1  631.69   25.40
  -4   7  -1  601.74   34.29
   4  -7   2 1673.62   60.32
  -4   7  -2 1756.09   62.26
   4  -7   3 1187.53   44.30
  -4   7  -3 1234.63   45.95
   4  -7   4  215.09   15.04
  -4   7  -4  197.73   12.98
   4  -7   5   25.70   13.26
  -4   7  -5   14.64   12.85
   4  -7   6  327.20   16.56
  -4   7  -6  353.91   17.95
   4  -7   7 1371.19   54.51
  -4   7  -7 1384.23   56.45
   4  -7   8  254.19   15.05
  -4   7  -8  269.35   16.44
   4  -7   9  123.78   11.41
  -4   7  -9  120.17   12.52
   4  -7  10  255.85   22.55
   4  -6   1 1591.31   54.21
   4  -6   1 1585.59  105.94
  -4   6  -1 1633.32   57.85
   4  -6   2 2351.90   80.44
   4  -6   2 2306.12  169.18
  -4   6  -2 2447.39   81.56
   4  -6   3 1071.75   36.61
  -4   6  -3 1107.12   39.62
   4  -6   4  497.09   19.45
  -4   6  -4  498.18   20.68
  -4   6  -4  505.17   43.89
   4  -6   5   13.60   17.86
  -4   6  -5   12.23   16.49
  -4   6  -5    5.10    3.86
   4  -6   6  678.28   27.69
  -4   6  -6  709.98   26.75
   4  -6   7 1904.70   71.16
  -4   6  -7 1935.85   70.10
   4  -6   8  107.58   10.48
  -4   6  -8  102.49   10.34
   4  -6   9   82.70   10.76
  -4   6  -9   57.07   10.48
   4  -6  10  412.58   21.19
  -4   6 -10  410.95   24.35
   4  -6  11  225.47   19.47
   4  -5   1 1534.30   53.39
   4  -5   1 1544.85   74.56
  -4   5  -1 1557.03   52.59
   4  -5   2 2664.69   88.66
   4  -5   2 2689.58  125.35
  -4   5  -2 2821.03   94.11
   4  -5   3  532.43   19.71
   4  -5   3  529.90   29.49
  -4   5  -3  563.58   21.34
  -4   5  -3  555.95   32.65
   4  -5   4   39.93    5.18
   4  -5   4  102.49   19.74
  -4   5  -4   31.89    4.64
  -4   5  -4   37.84    5.93
   4  -5   5   43.37    6.96
  -4   5  -5   39.42    7.37
  -4   5  -5   72.93   23.83
   4  -5   6 1213.39   43.36
  -4   5  -6 1236.44   47.03
  -4   5  -6 1197.73   88.40
   4  -5   7 2317.52   84.82
  -4   5  -7 2397.38   92.06
   4  -5   8  243.61   19.32
  -4   5  -8  245.41   17.68
   4  -5   9  144.47   12.48
   4  -5   9  164.19   13.30
  -4   5  -9  146.82   12.75
   4  -5  10  665.38   32.07
  -4   5 -10  703.54   34.96
   4  -5  11  193.96   15.38
  -4   5 -11  218.24   18.12
   4  -5  12  200.01   17.83
   4  -4   1 1677.85   57.69
   4  -4   1 1804.53   62.74
   4  -4   1 1619.69   62.86
  -4   4  -1 1743.61   59.45
  -4   4  -1 1782.64   62.19
   4  -4   2 1519.40   50.66
   4  -4   2 1591.76   62.48
  -4   4  -2 1608.48   54.99
  -4   4  -2 1665.16   76.76
   4  -4   3  402.37   16.04
   4  -4   3  399.44   18.61
  -4   4  -3  415.13   18.20
  -4   4  -3  409.80   19.97
   4  -4   4  181.33   12.75
   4  -4   4  193.80   11.82
  -4   4  -4  180.00   16.26
  -4   4  -4  161.28   14.65
   4  -4   5  461.69   19.88
   4  -4   5  427.28   25.56
  -4   4  -5  449.28   24.73
  -4   4  -5  399.44   35.97
   4  -4   6 2688.92   91.68
   4  -4   6 2647.34  178.37
  -4   4  -6 2886.72  107.80
   4  -4   7 1430.20   55.67
  -4   4  -7 1380.48   50.25
  -4   4  -7 1504.20   61.88
   4  -4   8  282.75   14.08
  -4   4  -8  259.22   17.87
   4  -4   9  150.17   10.93
  -4   4  -9  127.00   11.47
   4  -4  10  530.27   27.55
  -4   4 -10  576.87   28.25
   4  -4  11  673.69   30.07
  -4   4 -11  669.07   30.35
   4  -4  12   87.90   13.25
   4  -4  13   82.55   14.04
   4  -3   1 2579.21   85.55
   4  -3   1 2678.16  108.20
   4  -3   1 2595.87   98.30
  -4   3  -1 2645.27   95.01
  -4   3  -1 2694.84  112.87
  -4   3  -1 2971.87  129.06
   4  -3   2 2237.82   76.07
   4  -3   2 2298.34   84.89
  -4   3  -2 2361.84   78.67
  -4   3  -2 2418.02  106.60
  -4   3  -2 2458.31  112.04
   4  -3   3  838.50   29.63
   4  -3   3  864.63   32.99
  -4   3  -3  863.58   30.44
  -4   3  -3  850.04   33.48
  -4   3  -3  876.50   42.67
   4  -3   4  117.71   28.63
   4  -3   4  152.09   28.16
   4  -3   4   52.56   29.46
  -4   3  -4  128.07   28.63
  -4   3  -4   81.34   32.72
   4  -3   5  707.37   67.83
   4  -3   5  675.70   53.26
  -4   3  -5  652.48   53.13
  -4   3  -5  662.34   73.63
   4  -3   6 1370.23   48.21
   4  -3   6 1288.75   78.72
  -4   3  -6 1385.75   50.37
  -4   3  -6 1448.85   60.41
   4  -3   7 1300.77   67.19
   4  -3   7 1354.69   52.93
   4  -3   7 1292.66   84.31
  -4   3  -7 1430.81   54.06
  -4   3  -7 1389.27   98.76
   4  -3   8  473.20   26.33
  -4   3  -8  459.08   22.39
  -4   3  -8  535.23   30.21
   4  -3   9  398.62   19.98
  -4   3  -9  432.03   21.08
   4  -3  10 1029.25   46.37
  -4   3 -10 1078.12   41.78
   4  -3  11  268.34   17.11
  -4   3 -11  315.71   18.35
   4  -3  12   -0.41    6.00
  -4   3 -12    2.59    7.36
   4  -3  13   21.89   12.91
   4  -2   1 3412.90  116.44
   4  -2   1 3586.46  151.06
   4  -2   1 3643.67  177.57
  -4   2  -1 3650.14  129.39
  -4   2  -1 3638.87  128.41
  -4   2  -1 3612.72  163.23
   4  -2   2 4669.85  155.01
   4  -2   2 4782.16  201.60
   4  -2   2 4810.10  175.70
  -4   2  -2 4969.29  172.79
  -4   2  -2 4784.03  208.53
  -4   2  -2 4980.59  208.38
   4  -2   3 1080.94   35.94
   4  -2   3 1030.55   47.10
   4  -2   3 1025.29   39.42
  -4   2  -3 1139.38   42.73
  -4   2  -3 1058.81   51.10
  -4   2  -3 1139.43   42.04
   4  -2   4   16.92    3.09
   4  -2   4    9.76    2.41
   4  -2   4    9.65    2.22
  -4   2  -4    8.56    2.81
  -4   2  -4    5.64    3.09
  -4   2  -4   14.66    6.02
   4  -2   5  600.29   24.63
   4  -2   5  613.00   23.01
  -4   2  -5  606.86   24.48
  -4   2  -5  623.61   26.27
   4  -2   6  741.53   37.92
   4  -2   6  789.15   29.00
   4  -2   6  721.23   32.60
  -4   2  -6  843.61   34.39
  -4   2  -6  848.92   37.42
   4  -2   7 1059.44   75.06
   4  -2   7 1178.06   42.70
  -4   2  -7 1196.03   50.53
  -4   2  -7 1316.73   64.04
   4  -2   8   95.12   10.37
   4  -2   8  136.14   20.20
  -4   2  -8  124.41   23.20
   4  -2   9  388.09   19.36
  -4   2  -9  400.12   26.86
   4  -2  10 1305.21   54.77
  -4   2 -10 1309.14   56.41
   4  -2  11  365.55   20.85
   4  -2  12    6.27    8.32
  -4   2 -12   -2.32    7.91
   4  -2  13   19.56    7.61
   4  -1   1 4044.66  129.22
   4  -1   1 3827.54  156.87
   4  -1   1 3926.79  136.02
  -4   1  -1 4259.23  150.77
  -4   1  -1 3801.88  160.53
  -4   1  -1 4046.85  171.43
   4  -1   2 4072.21  137.86
   4  -1   2 3926.46  154.23
   4  -1   2 4024.90  136.74
   4  -1   2 3327.23  165.59
  -4   1  -2 3991.20  156.85
  -4   1  -2 4088.86  208.81
   4  -1   3  646.18   30.24
   4  -1   3  676.92   24.92
   4  -1   3  682.13   24.74
  -4   1  -3  709.56   25.34
  -4   1  -3  637.16   28.06
  -4   1  -3  671.62   29.32
   4  -1   4  367.62   17.43
   4  -1   4  372.46   14.95
   4  -1   4  389.25   16.94
  -4   1  -4  402.18   15.90
  -4   1  -4  361.01   18.56
  -4   1  -4  389.48   18.12
   4  -1   5  406.90   20.76
   4  -1   5  467.54   17.13
   4  -1   5  463.22   19.44
  -4   1  -5  492.76   21.03
  -4   1  -5  565.89   22.26
   4  -1   6  768.39   36.51
   4  -1   6  864.74   32.04
  -4   1  -6  875.98   36.37
  -4   1  -6  900.69   43.29
   4  -1   7 1365.98   91.41
   4  -1   7 1573.27   60.71
  -4   1  -7 1554.15   66.82
  -4   1  -7 1712.32  102.04
   4  -1   8  108.17   10.37
   4  -1   8  128.69    7.57
  -4   1  -8  125.80    8.94
   4  -1   9 1047.43   41.91
  -4   1  -9 1045.58   42.59
   4  -1  10 1370.41   57.62
  -4   1 -10 1398.07   62.96
   4  -1  11  265.31   15.68
  -4   1 -11  239.24   18.68
   4  -1  12   28.00    9.02
  -4   1 -12   39.74    9.56
   4  -1  13    0.41   10.19
   4   0   0  729.63   24.12
   4   0   0  698.05   29.37
  -4   0   0  793.75   26.75
  -4   0   0  642.76   26.36
   4   0   1 3344.03  121.12
   4   0   1 3327.36  116.16
  -4   0  -1 3239.15  153.71
  -4   0  -1 3041.89  148.14
  -4   0  -1 3418.44  162.00
   4   0   2 2292.66  103.43
   4   0   2 2589.40   88.86
   4   0   2 2598.15   91.44
  -4   0  -2 2639.39   89.55
  -4   0  -2 2276.77  103.23
  -4   0  -2 2728.55  108.19
   4   0   3  456.52   53.12
   4   0   3  527.21   53.59
   4   0   3  537.35   41.08
   4   0   3  443.52   18.81
  -4   0  -3  538.52   54.12
  -4   0  -3  420.48   20.63
  -4   0  -3  558.52   55.93
   4   0   4  226.20   16.11
   4   0   4  530.07  179.39
   4   0   4  255.18   85.16
  -4   0  -4  228.32   43.11
  -4   0  -4  233.39   58.80
  -4   0  -4  216.57   11.29
   4   0   5  758.36   34.69
   4   0   5  820.31   36.35
   4   0   5  872.03   30.24
   4   0   5  818.95   36.51
  -4   0  -5  869.20   38.00
  -4   0  -5  900.09   34.94
   4   0   6 1728.90   99.98
   4   0   6 1856.71   75.25
   4   0   6 1953.36   64.00
   4   0   6 1888.85   75.72
  -4   0  -6 1877.35   83.74
  -4   0  -6 2108.98  110.30
   4   0   7  582.56   25.14
   4   0   7  625.68   24.62
   4   0   7  587.96   24.69
  -4   0  -7  581.52   26.79
   4   0   8   12.35    6.32
   4   0   8   10.11    4.71
   4   0   8   15.31    5.81
   4   0   8    5.75    3.45
  -4   0  -8    5.82    3.60
   4   0   9  646.08   33.75
   4   0   9  671.49   30.63
   4   0   9  640.87   29.35
  -4   0  -9  642.81   30.02
   4   0  10  993.68   45.63
   4   0  10  983.52   52.63
   4   0  10  982.63   51.36
  -4   0 -10  937.23   46.42
   4   0  11  572.56   30.08
   4   0  11  541.51   36.58
   4   0  11  573.87   32.62
  -4   0 -11  526.83   35.55
   4   0  12    1.64    6.29
   4   0  12   -3.10    4.90
  -4   0 -12   -9.85    6.29
   4   0  13   89.96   12.52
   4   1   0  267.19   12.23
   4   1   0  403.10   17.03
  -4  -1   0  326.34   22.66
  -4  -1   0  334.93   62.48
  -4  -1   0  358.50   39.52
  -4  -1   0  390.30   31.69
   4   1   1 2012.60   97.13
   4   1   1 2537.71   90.02
   4   1   1 2491.57   79.19
   4   1   1 2484.27   87.93
  -4  -1  -1 2685.30   93.51
  -4  -1  -1 2542.14  137.24
  -4  -1  -1 1843.76  117.58
   4   1   2 4726.72  261.34
   4   1   2 5626.64  224.28
   4   1   2 5796.46  192.41
   4   1   2 5753.81  209.00
  -4  -1  -2 5808.31  267.66
   4   1   3  180.94   17.86
   4   1   3  201.82   16.03
   4   1   3  236.53   11.18
   4   1   3  234.44   17.24
  -4  -1  -3  175.45   26.31
  -4  -1  -3  175.64   35.23
  -4  -1  -3  222.26   26.37
   4   1   4  741.42   43.90
   4   1   4  819.95   47.16
   4   1   4  902.02   41.20
   4   1   4  884.54   51.96
  -4  -1  -4  861.13   89.45
  -4  -1  -4  797.09  121.07
  -4  -1  -4  861.62   66.71
   4   1   5  871.76   35.43
   4   1   5  920.26   31.34
   4   1   5  841.78   36.16
  -4  -1  -5  799.75   39.46
   4   1   6  577.29   33.14
   4   1   6  570.44   23.96
   4   1   6  663.69   22.98
   4   1   6  607.93   26.06
  -4  -1  -6  567.03   29.23
   4   1   7  742.91   70.65
   4   1   7  848.77   32.87
   4   1   7  867.32   30.59
   4   1   7  815.00   35.34
  -4  -1  -7  826.29   36.32
   4   1   8   82.35    9.50
   4   1   8   75.43    8.30
   4   1   8   57.88    9.70
  -4  -1  -8   52.88   12.14
   4   1   9  916.86   40.54
   4   1   9  949.01   40.71
   4   1   9  895.86   43.87
  -4  -1  -9  871.69   40.65
   4   1  10 1115.34   52.17
   4   1  10 1088.82   65.58
   4   1  10 1053.56   47.16
  -4  -1 -10 1014.51   59.86
   4   1  11  162.49   12.01
   4   1  11  165.42   11.82
   4   1  11  136.67   13.54
  -4  -1 -11  143.71   14.76
   4   1  12   32.87    9.31
   4   1  12   46.53   10.65
   4   1  12   34.09    8.07
  -4  -1 -12   40.25   12.73
   4   2   0  262.92   25.34
   4   2   0  350.45   46.88
   4   2   0  352.88   35.96
   4   2   0  374.13   30.88
  -4  -2   0  353.37   35.65
  -4  -2   0  351.71   21.28
  -4  -2   0  383.33   22.31
  -4  -2   0  404.94   37.07
  -4  -2   0  363.81   20.45
   4   2   1  184.84   79.93
   4   2   1 2487.28   99.16
   4   2   1 2544.50   75.44
   4   2   1 2386.57   86.42
  -4  -2  -1 2698.66  107.55
  -4  -2  -1 2529.46  104.26
  -4  -2  -1 2787.79  100.51
  -4  -2  -1 2075.68  105.14
   4   2   2 3416.51  141.56
   4   2   2 3470.43  143.95
   4   2   2 3453.40  115.70
   4   2   2 3511.14  139.47
  -4  -2  -2 3270.45  133.69
  -4  -2  -2 2807.43  141.42
   4   2   3   79.50   21.59
   4   2   3  101.35   16.13
   4   2   3  118.05   13.87
   4   2   3  116.88   10.89
  -4  -2  -3  105.72   12.23
  -4  -2  -3  131.10   13.87
  -4  -2  -3  123.91   13.66
  -4  -2  -3  127.13    7.86
   4   2   4  484.48   44.88
   4   2   4  495.90   39.06
   4   2   4  526.94   29.88
   4   2   4  501.92   31.02
  -4  -2  -4  526.54   39.66
  -4  -2  -4  531.75   24.41
   4   2   5 1552.98   79.76
   4   2   5 1496.18   70.82
   4   2   5 1700.53   54.86
   4   2   5 1610.37   60.35
  -4  -2  -5 1573.91   81.34
   4   2   6  642.68   55.66
   4   2   6  616.74   29.70
   4   2   6  749.25   26.88
   4   2   6  653.56   29.30
   4   2   7  406.70   23.13
   4   2   7  472.54   20.67
   4   2   7  428.58   19.89
  -4  -2  -7  414.58   23.27
   4   2   8   22.01    6.59
   4   2   8   23.17    8.04
   4   2   8   31.62    7.60
   4   2   9  454.89   28.25
   4   2   9  471.49   26.68
   4   2   9  431.40   24.44
  -4  -2  -9  499.97   29.65
   4   2  10 1031.66   52.77
   4   2  10 1018.83   59.71
   4   2  10  998.33   48.65
  -4  -2 -10  967.58   60.76
   4   2  11  293.67   20.58
   4   2  11  266.24   24.70
   4   2  11  279.43   21.25
   4   2  12   65.93   13.52
   4   3   0   51.46    2.68
   4   3   0   52.91    2.66
   4   3   0   69.37   32.70
   4   3   0   56.47   26.86
  -4  -3   0   47.69    2.30
  -4  -3   0   44.57    4.87
  -4  -3   0   69.74   22.65
   4   3   1 1548.74  145.76
   4   3   1 2697.67  112.28
   4   3   1 2888.88  116.60
   4   3   1 2815.72  118.64
  -4  -3  -1 2864.21  105.58
  -4  -3  -1 3046.51  111.99
  -4  -3  -1 2211.93  147.21
   4   3   2 1226.76   57.05
   4   3   2 1107.10   47.99
   4   3   2 1162.27   38.93
   4   3   2 1154.19   47.32
  -4  -3  -2  942.76   44.57
   4   3   3   48.38    3.96
   4   3   3   41.99   12.91
   4   3   3   55.23   13.55
   4   3   3   50.13   19.39
  -4  -3  -3   45.80   19.00
  -4  -3  -3   41.06    3.56
  -4  -3  -3   57.81   25.41
   4   3   4  985.90   58.05
   4   3   4  912.23   48.17
   4   3   4 1016.33   37.44
   4   3   4 1013.65   60.06
  -4  -3  -4  966.33   42.41
   4   3   5 1748.85   91.32
   4   3   5 1703.50   66.81
   4   3   5 1872.49   60.00
   4   3   5 1780.90   69.19
  -4  -3  -5 1689.00   69.61
  -4  -3  -5 1659.11   76.78
   4   3   6  747.10   33.55
   4   3   6  877.94   31.30
   4   3   6  805.53   32.42
  -4  -3  -6  739.16   32.27
   4   3   7  232.12   11.46
   4   3   7  265.07   12.13
   4   3   7  231.23   14.58
  -4  -3  -7  236.73   16.24
   4   3   8   -0.28    3.23
   4   3   8    2.38    3.18
   4   3   8   -3.55    6.70
  -4  -3  -8    5.19    8.41
   4   3   9  447.88   23.10
   4   3   9  457.91   23.44
   4   3   9  421.14   21.88
  -4  -3  -9  421.41   35.75
   4   3  10  994.92   51.49
   4   3  10  987.74   55.67
   4   3  10  959.80   59.05
   4   3  11  248.69   19.04
   4   3  11  202.09   22.99
   4   3  12  103.53   13.47
   4   4   0   24.25    1.79
   4   4   0   18.64    1.70
   4   4   0   22.83    8.11
  -4  -4   0   16.92    1.55
  -4  -4   0   21.71    1.66
  -4  -4   0   18.17    4.85
  -4  -4   0   21.34    3.74
   4   4   1  598.40  112.43
   4   4   1 2595.33  133.68
   4   4   1 3030.19   99.81
   4   4   1 2937.44  107.24
  -4  -4  -1 3210.46  121.93
  -4  -4  -1 3361.73  143.69
   4   4   2 2395.10   99.32
   4   4   2 1949.40   98.14
   4   4   2 2258.32   75.74
   4   4   2 2219.54   83.93
  -4  -4  -2 1919.72   96.67
  -4  -4  -2 2399.54   88.04
  -4  -4  -2 2557.69  100.01
   4   4   3    3.40    2.39
   4   4   3    5.66    2.57
   4   4   3   -0.28    4.84
  -4  -4  -3   -1.57    1.57
  -4  -4  -3    0.63    2.77
   4   4   4 1985.67   96.71
   4   4   4 1763.95   75.72
   4   4   4 1963.59   65.96
   4   4   4 1885.89   83.67
  -4  -4  -4 1644.15   79.04
   4   4   5  598.13   24.83
   4   4   5  684.22   24.09
   4   4   5  634.06   27.29
  -4  -4  -5  585.84   23.70
   4   4   6  336.50   15.76
   4   4   6  326.63   13.51
   4   4   6  285.51   16.12
  -4  -4  -6  290.42   15.87
   4   4   7  275.10   13.98
   4   4   7  295.79   14.96
   4   4   7  253.59   15.23
  -4  -4  -7  261.70   13.83
   4   4   8   11.47    4.20
   4   4   8   14.99    4.56
   4   4   8   13.61    5.58
   4   4   9  739.28   40.08
   4   4   9  713.41   30.16
   4   4  10  921.05   39.11
   4   4  10  812.18   66.31
   4   4  11   60.89   10.47
   4   5   0 2200.26   94.33
   4   5   0 1982.57   88.06
  -4  -5   0 1513.30   96.91
  -4  -5   0 2128.39   95.98
  -4  -5   0 2201.40   89.25
  -4  -5   0 2025.39   66.60
   4   5   1  797.67  100.16
   4   5   1 1440.15   77.24
   4   5   1 1760.13   66.91
  -4  -5  -1 1410.99   80.50
  -4  -5  -1 1993.70   84.66
  -4  -5  -1 2065.82   82.17
  -4  -5  -1 1898.72   62.39
   4   5   2  708.90   32.58
   4   5   2  593.14   28.16
   4   5   2  636.48   29.50
  -4  -5  -2  521.36   31.66
  -4  -5  -2  671.65   34.19
  -4  -5  -2  734.73   30.02
   4   5   3  181.95   18.73
   4   5   3  192.76   32.12
  -4  -5  -3  159.30   10.10
  -4  -5  -3  179.25   10.58
   4   5   4  221.60   11.93
   4   5   4  286.02   16.47
   4   5   4  222.34   13.72
  -4  -5  -4  197.18   10.93
   4   5   5  973.76   45.39
   4   5   5 1070.57   43.26
   4   5   5 1003.40   41.92
   4   5   6  339.76   14.71
   4   5   6  332.75   17.04
   4   5   6  330.45   17.25
   4   5   7   28.11    5.88
   4   5   7   33.00    5.33
   4   5   7   14.76    5.88
   4   5   8  157.59   11.31
   4   5   8  139.46   11.99
   4   5   9  301.40   20.84
   4   5   9  280.72   18.72
   4   5  10  911.41   58.75
   4   5  10  834.84   72.05
   4   6   0  592.22   39.65
  -4  -6   0  654.20   39.79
  -4  -6   0  647.88   43.86
   4   6   1  790.07   46.79
   4   6   1  976.22   43.01
  -4  -6  -1  994.93   44.45
  -4  -6  -1  997.22   47.39
  -4  -6  -1  981.64   38.74
   4   6   2 1259.60   58.28
   4   6   2 1465.04   62.11
  -4  -6  -2 1745.07   69.58
  -4  -6  -2 1555.92   58.42
   4   6   3   42.62    6.59
   4   6   3   59.78   12.90
  -4  -6  -3   30.01    9.14
   4   6   4  808.32   31.05
   4   6   4  848.60   38.08
   4   6   5  671.23   28.66
   4   6   5  665.55   33.88
   4   6   6  135.67    9.93
   4   6   6  145.13   12.95
   4   6   7   27.80    6.67
   4   6   7   21.87    8.61
   4   6   8   65.49   11.22
   4   6   8   73.26   13.33
   4   6   9  409.02   29.19
   4   7   0  413.65   22.66
   4   7   0  459.77   26.87
  -4  -7   0  449.03   20.02
   4   7   1  357.82   17.06
   4   7   1  398.40   20.55
  -4  -7  -1  417.61   18.13
   4   7   2  541.10   28.80
   4   7   2  619.99   29.15
  -4  -7  -2  619.86   25.24
   4   7   3   39.44    7.09
   4   7   3   40.84    9.17
  -4  -7  -3   42.85    6.25
   4   7   4 1038.95   47.03
   4   7   4 1170.89   50.12
  -4  -7  -4 1209.57   45.73
   4   7   5  891.52   46.58
   4   7   5  986.48   46.81
  -4  -7  -5  969.59   57.07
   4   7   6  144.74   10.29
   4   7   6  124.81   12.53
   4   7   7    7.19    6.63
   4   7   8   23.28    8.82
   4   8   0  263.87   20.60
   4   8   0  315.70   23.23
  -4  -8   0  323.26   17.82
   4   8   1  251.93   13.71
   4   8   1  250.12   14.26
  -4  -8  -1  287.77   15.17
   4   8   2  310.61   15.16
   4   8   2  341.75   20.14
  -4  -8  -2  305.44   15.43
   4   8   3   20.26    5.24
   4   8   3   31.24   10.28
   4   8   4  613.58   29.43
   4   8   4  681.27   37.52
   4   8   5  843.07   50.96
   4   8   6   72.01    8.69
   4   9   0   82.97    6.96
   4   9   0  102.39   11.92
   4   9   1  314.84   22.37
   4   9   1  396.65   25.94
   4   9   2  280.58   16.96
   4   9   2  291.74   21.87
   4   9   3   50.14    6.45
   4   9   4  394.56   25.00
   5 -10   1  667.89   55.13
  -5  10  -1  804.28   51.17
   5 -10   2  180.08   19.11
  -5  10  -2  222.70   19.79
   5 -10   3   -1.78   12.49
   5  -9   1  867.14   38.49
   5  -9   1  762.61   52.30
  -5   9  -1  849.94   44.82
   5  -9   2  405.84   21.75
   5  -9   2  338.46   26.10
  -5   9  -2  409.84   24.33
   5  -9   3    1.78    7.00
  -5   9  -3    1.92    7.28
   5  -9   4  195.70   17.32
   5  -9   5  424.96   36.00
   5  -9   6  455.49   32.86
   5  -8   1 1147.96   47.56
   5  -8   1 1024.25   49.46
  -5   8  -1 1139.56   48.10
   5  -8   2  483.30   23.52
   5  -8   2  466.98   23.88
  -5   8  -2  492.22   22.71
   5  -8   3    8.10    6.04
  -5   8  -3   13.72    6.59
   5  -8   4  714.27   31.42
  -5   8  -4  724.76   31.15
   5  -8   5  784.75   41.06
  -5   8  -5  788.47   38.16
   5  -8   6  292.16   22.12
   5  -8   7   78.91   13.74
   5  -8   8    9.98   12.93
   5  -7   1 2073.14   80.20
   5  -7   1 1990.15   81.67
  -5   7  -1 2162.61   82.53
   5  -7   2  725.44   28.58
   5  -7   2  631.35   28.04
  -5   7  -2  683.76   29.52
   5  -7   3  108.81    9.06
  -5   7  -3  109.75    9.60
   5  -7   4  563.24   24.00
  -5   7  -4  558.11   25.23
   5  -7   5  410.19   20.89
  -5   7  -5  411.42   22.27
   5  -7   6  384.63   21.37
  -5   7  -6  383.36   21.65
   5  -7   7   76.46   11.45
  -5   7  -7  112.45   13.68
   5  -7   8  281.26   27.71
   5  -7   9  962.30   59.24
   5  -6   1 1739.64   61.66
   5  -6   1 1713.44   68.57
  -5   6  -1 1758.13   64.35
   5  -6   2 1145.30   39.76
   5  -6   2  978.23   46.86
  -5   6  -2 1200.14   44.24
   5  -6   3   62.35   10.26
  -5   6  -3   53.60    9.57
   5  -6   4  730.08   28.92
  -5   6  -4  716.44   28.64
   5  -6   5  590.20   34.36
  -5   6  -5  600.12   33.26
   5  -6   6  126.30   15.11
  -5   6  -6  114.41   15.52
   5  -6   7   27.47    6.66
  -5   6  -7   11.38    6.38
   5  -6   8  295.55   18.66
  -5   6  -8  311.00   21.03
   5  -6   9  704.60   55.68
   5  -6  10  513.95   43.82
   5  -5   1 1943.31   68.52
   5  -5   1 1911.62  129.47
   5  -5   1 1871.20   71.41
  -5   5  -1 1994.11   71.48
   5  -5   2  653.54   25.72
   5  -5   2  617.90   44.21
   5  -5   2  594.36   27.20
  -5   5  -2  683.72   26.00
   5  -5   3  310.14   15.73
   5  -5   3  305.98   18.59
   5  -5   3  271.03   14.45
  -5   5  -3  315.99   16.14
   5  -5   4 1260.10   44.73
  -5   5  -4 1259.79   48.13
   5  -5   5  812.69   35.11
  -5   5  -5  843.80   37.46
   5  -5   6  515.85   23.00
  -5   5  -6  521.56   24.78
   5  -5   7   11.44    5.52
  -5   5  -7   13.93    6.21
   5  -5   8  306.13   18.13
  -5   5  -8  316.79   20.75
   5  -5   9  574.51   28.55
  -5   5  -9  585.89   38.60
   5  -5  10  235.70   23.47
   5  -4   1 2306.20   76.60
   5  -4   1 2424.89  116.33
   5  -4   1 2463.77  112.08
  -5   4  -1 2478.60   88.77
   5  -4   2  207.63    9.62
   5  -4   2  220.51   13.36
   5  -4   2  175.66    9.95
   5  -4   2  168.65   12.32
  -5   4  -2  192.37   11.09
   5  -4   3  909.28   32.00
   5  -4   3  844.82   53.19
   5  -4   3  825.87   31.27
   5  -4   3  821.60   39.25
  -5   4  -3  927.58   34.97
   5  -4   4 1519.47   61.87
   5  -4   4 1369.31  120.18
   5  -4   4 1380.89   57.27
   5  -4   4 1311.68   81.67
  -5   4  -4 1581.84   66.11
   5  -4   5 1300.83   51.35
  -5   4  -5 1341.18   50.03
   5  -4   6  580.36   23.31
  -5   4  -6  602.47   26.04
   5  -4   7   -3.56    4.25
  -5   4  -7    1.51    5.21
   5  -4   8  195.91   13.33
   5  -4   9  571.60   28.51
   5  -4   9  572.01   28.78
  -5   4  -9  524.36   35.33
   5  -4  10  319.42   21.97
  -5   4 -10  343.44   29.51
   5  -4  11  -10.40    8.21
   5  -3   1 1123.47   48.52
   5  -3   1 1191.18   52.94
   5  -3   1 1107.69   51.99
   5  -3   1  902.23   65.69
  -5   3  -1 1239.34   53.74
   5  -3   2  753.72   27.61
   5  -3   2  790.31   32.56
   5  -3   2  775.36   29.14
   5  -3   2  668.85   40.85
  -5   3  -2  798.88   33.78
   5  -3   3  311.85   12.38
   5  -3   3  301.50   17.48
   5  -3   3  283.68   13.43
   5  -3   3  260.91   16.27
  -5   3  -3  305.12   14.93
   5  -3   4 2376.60   83.73
   5  -3   4 2220.29  147.17
   5  -3   4 2269.17   88.46
  -5   3  -4 2530.48   95.40
   5  -3   5 1767.88   68.08
   5  -3   5 1588.75  103.05
   5  -3   5 1616.06   67.34
  -5   3  -5 1833.49   76.50
   5  -3   6    6.81    7.08
   5  -3   6   14.08    6.40
  -5   3  -6    8.58    6.26
   5  -3   7   58.60    7.23
  -5   3  -7   49.62    8.45
   5  -3   8  210.19   12.45
  -5   3  -8  227.82   14.09
   5  -3   9  883.77   43.85
  -5   3  -9  874.31   46.84
   5  -3  10  643.82   39.51
  -5   3 -10  617.83   42.50
   5  -2   1 4025.17  135.08
   5  -2   1 3866.79  148.37
   5  -2   1 3755.05  135.98
   5  -2   1 3162.66  180.50
  -5   2  -1 3962.69  139.40
   5  -2   2  500.76   28.22
   5  -2   2  470.71   25.81
   5  -2   2  455.56   25.81
  -5   2  -2  501.78   39.46
  -5   2  -2  428.53   22.27
   5  -2   3  863.66   30.26
   5  -2   3  822.41   40.75
   5  -2   3  826.99   30.52
   5  -2   3  771.57   37.79
  -5   2  -3  940.63   37.92
   5  -2   4 1317.68   49.51
   5  -2   4 1249.81   68.06
   5  -2   4 1310.12   46.78
   5  -2   4 1137.98   55.97
  -5   2  -4 1355.38   55.71
   5  -2   5  690.95   35.79
   5  -2   5  757.62   32.40
   5  -2   5  698.73   28.30
  -5   2  -5  755.84   31.19
   5  -2   6   53.14    5.97
   5  -2   6   52.09    7.41
  -5   2  -6   42.30    5.97
   5  -2   7  129.55    7.76
   5  -2   7   93.49    8.14
  -5   2  -7  105.66    8.71
   5  -2   8  757.81   34.16
   5  -2   8  712.73   35.99
  -5   2  -8  796.34   38.79
   5  -2   9 1020.31   47.41
   5  -2   9  961.99   57.85
  -5   2  -9 1015.06   52.56
   5  -2  10  521.23   29.17
   5  -2  10  426.69   34.48
  -5   2 -10  483.73   33.77
   5  -2  11   27.55    7.21
   5  -1   1 1707.50   58.77
   5  -1   1 1661.42   78.31
   5  -1   1 1866.43   72.68
   5  -1   1 1488.06   96.36
  -5   1  -1 1846.28   68.56
  -5   1  -1 1697.64   96.47
   5  -1   2  171.26   18.84
   5  -1   2  212.09   35.28
   5  -1   2  161.14   24.65
  -5   1  -2  146.05    9.90
  -5   1  -2  162.59   25.96
   5  -1   3  267.00   11.06
   5  -1   3  241.00   12.64
   5  -1   3  261.20   12.08
  -5   1  -3  287.67   13.20
   5  -1   4 2462.19  120.65
   5  -1   4 2925.61   99.79
   5  -1   4 2857.84  111.12
  -5   1  -4 3029.99  112.26
   5  -1   5  679.79   42.03
   5  -1   5  798.41   37.96
   5  -1   5  743.76   28.96
  -5   1  -5  806.99   34.61
   5  -1   6    9.88   10.01
   5  -1   6   12.25    9.35
  -5   1  -6   19.35   10.69
   5  -1   7  168.45   10.88
   5  -1   7  155.77   12.60
  -5   1  -7  146.88   11.68
   5  -1   8  517.23   22.79
   5  -1   8  495.71   27.01
  -5   1  -8  483.69   23.32
   5  -1   9  713.12   46.95
   5  -1   9  702.48   46.38
  -5   1  -9  728.33   59.97
   5  -1  10  188.48   16.97
   5  -1  10  189.40   18.62
   5  -1  11   28.04   10.54
   5   0   0 2100.81   70.58
   5   0   0 1260.20   85.59
   5   0   0 2097.21   66.26
  -5   0   0 2247.07   83.64
   5   0   1  858.51   30.76
   5   0   1  751.08   35.73
   5   0   1  871.04   30.57
  -5   0  -1  835.03   37.82
   5   0   2  143.40    6.55
   5   0   2  128.20    8.15
   5   0   2  137.95   20.30
  -5   0  -2  155.39    8.28
   5   0   3  348.46   18.83
   5   0   3  438.12   16.97
   5   0   3  433.40   17.71
  -5   0  -3  466.51   18.58
   5   0   4 2637.73  142.95
   5   0   4 3118.04  117.88
   5   0   4 3066.68  100.50
  -5   0  -4 3287.83  135.05
   5   0   5  770.95   29.63
   5   0   5  799.58   31.93
  -5   0  -5  784.26   34.59
   5   0   6   -3.25    3.52
   5   0   6   -0.27    3.46
  -5   0  -6    0.00    3.12
   5   0   7  338.05   15.01
   5   0   7  327.58   16.16
  -5   0  -7  318.21   16.89
   5   0   8  262.62   14.58
   5   0   8  303.43   16.20
   5   0   8  261.31   15.98
  -5   0  -8  255.41   15.26
   5   0   9  587.13   27.68
   5   0   9  598.51   33.17
   5   0   9  557.09   35.09
   5   0  10  239.48   14.80
   5   0  10  210.71   17.66
   5   0  11   57.36   12.44
   5   1   0 1722.83   61.60
   5   1   0 1461.34   79.14
  -5  -1   0 1746.03   78.45
  -5  -1   0 1388.64   85.53
  -5  -1   0 1436.51   57.11
   5   1   1  311.95   13.39
   5   1   1  313.70   13.91
  -5  -1  -1  235.54   11.91
  -5  -1  -1  266.38   12.95
   5   1   2  136.50    8.92
   5   1   2  153.34    6.68
   5   1   2  144.64    8.83
  -5  -1  -2  142.19    7.60
   5   1   3  992.06   58.79
   5   1   3 1211.12   46.88
   5   1   3 1148.92   41.73
   5   1   3 1155.68   46.19
  -5  -1  -3 1233.41   53.26
   5   1   4 1802.76   65.28
   5   1   4 1853.53   78.28
   5   1   4 1786.18   70.17
  -5  -1  -4 1859.33   77.74
   5   1   5  708.05   27.19
   5   1   5  633.87   27.33
  -5  -1  -5  658.72   28.85
   5   1   6    3.40    2.58
   5   1   6    2.27    5.60
   5   1   6   -2.85    4.42
  -5  -1  -6    2.31    2.99
   5   1   7  458.66   23.49
   5   1   7  504.83   23.92
   5   1   7  480.59   24.96
   5   1   8  621.64   32.49
   5   1   8  671.81   31.40
   5   1   8  646.70   34.58
   5   1   9  454.90   21.69
   5   1   9  428.84   28.10
   5   1   9  380.33   25.25
   5   1  10   86.49   10.02
   5   1  10   81.39   10.44
   5   1  10   74.19   10.46
   5   1  11   55.68   10.38
   5   2   0  696.21   53.33
   5   2   0  667.25   87.20
  -5  -2   0  433.33   86.81
   5   2   1  175.48    8.20
   5   2   1  175.21    9.95
   5   2   1  216.12   12.19
   5   2   1  232.19   30.54
  -5  -2  -1  188.84    9.38
  -5  -2  -1  161.87    7.81
  -5  -2  -1  146.45   12.65
   5   2   2   39.29    6.76
   5   2   2   81.75    6.00
   5   2   2   92.08    6.38
   5   2   2   89.42    8.71
  -5  -2  -2   77.89    4.80
  -5  -2  -2   62.58    4.41
  -5  -2  -2   62.37    5.71
   5   2   3 1246.37   78.20
   5   2   3 1290.59   49.94
   5   2   3 1292.41   46.11
   5   2   3 1245.81   52.07
  -5  -2  -3 1330.13   61.30
  -5  -2  -3 1118.44   79.69
  -5  -2  -3 1176.74   62.45
   5   2   4 1968.80   83.09
   5   2   4 2077.41   83.31
   5   2   4 1965.55   78.44
   5   2   5  713.16   41.78
   5   2   5  782.82   33.28
   5   2   5  683.00   40.46
   5   2   6   71.92    9.15
   5   2   6   64.29    8.49
   5   2   6   73.99    9.24
   5   2   7  442.30   25.73
   5   2   7  492.61   23.17
   5   2   7  454.97   23.51
   5   2   8  377.19   18.60
   5   2   8  413.26   23.52
   5   2   8  365.22   19.95
   5   2   9  307.82   19.60
   5   2   9  317.36   23.04
   5   2   9  306.74   24.17
   5   2  10   50.29    9.60
   5   2  10   42.86    9.79
   5   2  10   26.29    8.16
   5   3   0  433.97   20.14
   5   3   0  441.76   23.36
  -5  -3   0  376.56   59.34
   5   3   1  436.18   21.47
   5   3   1  424.10   18.48
   5   3   1  421.01   19.52
  -5  -3  -1  429.24   19.75
  -5  -3  -1  386.55   22.34
  -5  -3  -1  325.49   33.62
   5   3   2    3.57    2.17
   5   3   2   10.18    2.01
   5   3   2    4.39    4.39
   5   3   2    8.33    4.44
  -5  -3  -2    6.83    1.87
  -5  -3  -2    4.58    2.29
   5   3   3  999.02   43.36
   5   3   3 1010.36   37.29
   5   3   3  972.55   39.91
  -5  -3  -3  945.98   43.48
  -5  -3  -3  900.07   37.51
   5   3   4 2214.98   90.38
   5   3   4 2228.30   82.59
   5   3   4 2228.18   87.65
  -5  -3  -4 2085.83  111.82
   5   3   5  672.32   33.54
   5   3   5  689.58   28.56
   5   3   5  698.83   31.23
   5   3   6  181.99   12.35
   5   3   6  215.52   11.46
   5   3   6  190.99   13.38
   5   3   7  315.58   17.01
   5   3   7  318.25   16.93
   5   3   7  288.60   16.93
   5   3   8  214.15   13.66
   5   3   8  238.56   13.64
   5   3   8  171.36   13.70
   5   3   9  276.43   17.01
   5   3   9  291.27   19.70
   5   3   9  244.40   20.48
   5   3  10   23.35    9.04
   5   3  10    4.08    7.75
   5   4   0  955.71   44.58
  -5  -4   0  995.91   39.64
   5   4   1  574.65   32.73
   5   4   1  570.93   34.41
   5   4   1  514.94   31.07
   5   4   1  584.47   34.29
  -5  -4  -1  508.50   34.21
   5   4   2  285.37   18.24
   5   4   2  299.16   12.97
   5   4   2  283.67   13.43
  -5  -4  -2  294.30   14.08
   5   4   3  882.00   37.63
   5   4   3  924.18   35.40
  -5  -4  -3  691.25   38.13
   5   4   4  497.29   27.72
   5   4   4  568.48   23.33
   5   4   4  497.09   25.48
  -5  -4  -4  451.12   27.80
   5   4   5  400.48   22.75
   5   4   5  427.04   22.93
   5   4   5  407.05   26.45
   5   4   6   10.00    7.92
   5   4   6    8.85   10.62
   5   4   7  517.35   30.85
   5   4   7  549.14   27.54
   5   4   7  559.63   29.44
   5   4   8  903.03   52.04
   5   4   8  861.72   49.38
   5   4   9   19.49    9.61
   5   5   0  486.99   28.09
  -5  -5   0  539.71   23.76
   5   5   1    1.49    1.22
  -5  -5  -1   62.80    9.70
   5   5   2   12.37    2.34
   5   5   2   16.43    4.66
  -5  -5  -2   17.87    4.22
  -5  -5  -2   18.40    5.03
   5   5   3  164.26   11.78
  -5  -5  -3  139.83    8.53
   5   5   4 1184.20   52.99
   5   5   4 1285.29   54.74
   5   5   4 1226.42   55.15
   5   5   5  221.44   11.47
   5   5   5  263.11   13.26
   5   5   5  237.30   15.66
   5   5   6  500.53   26.84
   5   5   6  532.33   30.82
   5   5   6  513.05   30.14
   5   5   7  731.52   42.04
   5   5   7  688.13   38.02
   5   5   8  248.99   21.75
   5   6   0  415.73   21.74
  -5  -6   0  410.71   18.62
   5   6   1   -9.97    5.74
  -5  -6  -1   10.98    6.49
   5   6   2  148.80    9.44
   5   6   2  156.94   10.82
  -5  -6  -2  147.80   10.08
   5   6   3  241.54   16.53
  -5  -6  -3  230.13   13.66
   5   6   4  594.78   33.20
   5   6   4  656.33   33.60
  -5  -6  -4  636.91   33.29
   5   6   5   95.88    8.24
   5   6   5   86.51    9.48
   5   6   6  103.24    9.84
   5   6   7  705.89   48.27
   5   6   8  220.30   16.27
   5   7   0  238.55   16.44
  -5  -7   0  256.38   14.13
   5   7   1   25.09    8.05
  -5  -7  -1   15.82    6.71
   5   7   2   94.76   11.32
  -5  -7  -2   91.37    8.43
   5   7   3  272.63   14.01
   5   7   3  290.09   19.10
  -5  -7  -3  272.39   19.40
   5   7   4  550.01   31.46
  -5  -7  -4  645.17   37.09
   5   7   5   70.21    9.28
   5   7   6   98.41   11.70
   5   8   0   41.66   11.98
  -5  -8   0   24.82    6.53
   5   8   1   81.78   12.94
  -5  -8  -1  111.23   13.10
   6  -9   1  127.53   15.25
  -6   9  -1  149.62   14.05
   6  -8   1  161.21   12.95
   6  -8   1  123.00   12.84
  -6   8  -1  146.82   15.37
   6  -8   2   52.79    9.55
  -6   8  -2   57.92    9.50
   6  -8   3  417.09   37.32
  -6   8  -3  514.36   41.08
   6  -8   4  653.22   50.12
   6  -7   1   81.82   10.49
   6  -7   1   73.86    9.91
  -6   7  -1   81.83   10.89
   6  -7   2  179.28   18.43
   6  -7   2  138.46   16.50
  -6   7  -2  163.59   16.40
   6  -7   3  674.42   31.68
   6  -7   3  563.29   34.51
  -6   7  -3  622.73   37.79
   6  -7   4  660.14   37.01
   6  -7   4  573.44   39.89
  -6   7  -4  647.87   44.55
   6  -6   1   73.14    9.11
   6  -6   1   70.24    7.01
  -6   6  -1   83.73    9.25
   6  -6   2  250.78   15.03
   6  -6   2  247.05   16.21
  -6   6  -2  272.15   16.39
   6  -6   3 1072.56   45.48
   6  -6   3  968.36   44.55
  -6   6  -3 1038.37   56.73
   6  -6   4  783.89   30.03
   6  -6   4  668.38   35.40
  -6   6  -4  774.64   33.57
   6  -6   5    5.67    5.95
   6  -6   5    8.07    8.95
  -6   6  -5    1.38    7.05
   6  -6   6  269.40   18.12
   6  -5   1   37.78    5.21
   6  -5   1   23.29    7.68
  -6   5  -1   24.17    6.41
   6  -5   2  288.96   15.00
   6  -5   2  258.18   17.43
  -6   5  -2  288.44   18.50
   6  -5   3 1201.83   50.85
   6  -5   3 1070.94   50.89
  -6   5  -3 1242.26   55.46
   6  -5   4  853.63   38.58
   6  -5   4  862.69   39.43
  -6   5  -4  927.85   45.30
   6  -5   5    6.34    5.52
   6  -5   5    0.00    5.20
  -6   5  -5    4.41    6.07
   6  -5   6  201.43   15.82
   6  -5   6  152.65   15.74
   6  -5   7  646.61   34.46
   6  -4   1  116.63    7.60
   6  -4   1  110.93   13.02
  -6   4  -1  112.25    8.26
   6  -4   2  361.98   18.74
   6  -4   2  282.21   16.73
  -6   4  -2  341.79   19.93
   6  -4   3  918.65   40.08
   6  -4   3  910.84   38.25
  -6   4  -3  952.74   40.50
   6  -4   4  869.41   35.78
   6  -4   4  777.71   35.77
  -6   4  -4  901.87   41.23
   6  -4   5  124.90    9.23
   6  -4   5  106.73   10.29
   6  -4   6  473.15   24.68
   6  -4   6  387.84   22.10
   6  -4   7  999.23   38.92
   6  -4   7  783.59   50.39
   6  -3   1    0.53    2.78
   6  -3   1   -3.99    4.39
  -6   3  -1   -0.93    3.31
   6  -3   2  328.16   14.80
   6  -3   2  329.34   18.14
  -6   3  -2  337.49   15.60
   6  -3   3 2846.94   92.47
   6  -3   3 2582.70  105.49
  -6   3  -3 2994.96  110.78
   6  -3   4  531.35   21.69
   6  -3   4  521.83   24.08
   6  -3   5   43.39    7.40
   6  -3   5   22.81    7.52
   6  -3   6  577.03   27.63
   6  -3   6  523.65   30.32
   6  -3   7  330.35   17.27
   6  -3   7  294.23   19.85
   6  -3   8  357.19   21.10
   6  -3   8  317.90   25.80
   6  -2   1  278.52   12.58
   6  -2   1  287.73   27.31
  -6   2  -1  277.64   12.84
   6  -2   2 1052.54   41.65
   6  -2   2 1016.07   44.39
   6  -2   2  827.27   54.98
  -6   2  -2 1054.88   42.96
   6  -2   3  530.19   22.26
   6  -2   3  522.55   23.55
   6  -2   4  460.75   19.83
   6  -2   4  432.20   19.85
   6  -2   5   58.48    8.73
   6  -2   5   45.08    7.74
   6  -2   6 1194.22   52.18
   6  -2   6 1152.43   60.88
   6  -2   7 1215.76   45.85
   6  -2   7 1118.26   71.64
   6  -2   8  163.16   12.05
   6  -2   8  134.12   13.44
   6  -1   1  118.66   11.81
   6  -1   1  130.56    9.84
   6  -1   2  853.46   34.82
   6  -1   2  829.82   34.70
   6  -1   3  537.02   20.60
   6  -1   3  514.26   22.26
   6  -1   4  486.94   20.32
   6  -1   4  484.32   23.40
   6  -1   5  105.77    8.84
   6  -1   5  102.18    9.93
   6  -1   6 1013.02   49.79
   6  -1   6  983.35   46.07
   6  -1   7  810.70   34.26
   6  -1   7  807.64   39.58
   6  -1   8  170.30   12.80
   6  -1   8  159.28   13.79
   6  -1   9   27.78    9.89
   6  -1   9   28.42   10.93
   6   0   0   44.63    3.09
   6   0   0   54.81    5.79
  -6   0   0   30.62    4.18
   6   0   1  402.75   16.54
   6   0   1  385.33   17.23
   6   0   2  575.09   24.43
   6   0   2  548.66   23.44
   6   0   3  525.09   23.08
   6   0   3  500.50   21.65
   6   0   4  444.67   17.42
   6   0   4  410.14   19.52
   6   0   5  128.39    9.22
   6   0   5  112.41    9.84
   6   0   6 1091.96   41.43
   6   0   6  965.28   52.63
   6   0   7  744.20   36.47
   6   0   7  745.85   36.84
   6   0   8  114.48   11.23
   6   0   8  101.66   10.91
   6   0   9   48.81    7.55
   6   0   9   42.39   11.35
   6   1   0   10.63    1.38
   6   1   0   10.50    1.11
   6   1   0   11.74    4.30
   6   1   1 1363.03   59.99
  -6  -1  -1 1096.57   62.23
   6   1   2  536.14   20.80
   6   1   2  514.95   22.71
   6   1   3  556.64   27.71
   6   1   3  563.03   28.09
   6   1   4  448.61   20.59
   6   1   4  404.96   22.32
   6   1   5   46.53    4.73
   6   1   5   43.71    6.63
   6   1   6  931.75   42.77
   6   1   6  915.48   44.71
   6   1   7  841.56   42.01
   6   1   7  798.02   40.52
   6   1   8   24.36    7.00
   6   1   9   65.20    8.06
   6   1   9   78.45   11.31
   6   2   0  221.41   13.37
   6   2   1  609.42   27.37
  -6  -2  -1  551.17   26.87
   6   2   2  744.22   28.60
   6   2   2  700.29   31.66
   6   2   3  935.42   41.43
   6   2   3  876.36   37.86
   6   2   4  156.72    9.70
   6   2   4  146.41   10.52
   6   2   4  133.37   10.06
   6   2   5  159.21    9.45
   6   2   5  158.35   10.69
   6   2   5  126.27   12.44
   6   2   6  562.83   27.86
   6   2   6  528.42   27.56
   6   2   6  456.98   27.82
   6   2   7  601.50   29.84
   6   2   7  602.01   28.82
   6   2   7  530.94   38.86
   6   2   8    5.90    6.70
   6   2   8    5.89    7.15
   6   3   0   61.67    6.99
  -6  -3   0   45.98    5.03
   6   3   1  630.60   29.21
   6   3   1  652.30   33.11
  -6  -3  -1  525.53   26.51
   6   3   2  757.87   36.53
   6   3   2  679.62   35.91
  -6  -3  -2  642.44   27.95
   6   3   3  363.23   21.71
   6   3   3  359.73   20.44
   6   3   3  322.94   18.21
   6   3   4    2.41    2.95
   6   3   4   -7.42    5.99
   6   3   4   -5.85    5.71
   6   3   5  124.67    7.82
   6   3   5  115.29   10.58
   6   3   5   91.31    9.88
   6   3   6  456.98   26.14
   6   3   6  479.87   26.26
   6   3   6  442.52   25.15
   6   3   7  465.58   26.75
   6   3   8   30.03    6.54
   6   4   0   16.33    7.75
  -6  -4   0   19.93    7.02
   6   4   1  662.03   29.33
   6   4   1  680.63   30.92
  -6  -4  -1  685.63   32.80
   6   4   2  660.59   32.94
   6   4   2  685.16   36.93
   6   4   3  109.98   10.52
   6   4   3   85.79   11.73
   6   4   4    7.64    3.35
   6   4   4   16.35    7.14
   6   4   4   14.99    8.66
   6   4   5   43.86    7.92
   6   4   5   43.12    8.71
   6   4   5   11.51    8.63
   6   4   6  775.52   46.09
   6   4   6  751.16   47.25
   6   4   7  575.12   34.83
   6   4   7  567.15   43.03
   6   5   0   44.68    7.70
  -6  -5   0   43.83    7.89
   6   5   1 1046.93   52.62
  -6  -5  -1 1072.19   45.43
  -6  -5  -1  857.15   55.65
   6   5   2  561.28   31.51
  -6  -5  -2  599.04   29.87
   6   5   3   42.19    7.79
   6   5   4   14.13    5.36
   6   5   5  115.42   14.53
   6   6   0  109.30   11.77
  -6  -6   0  119.47    9.84
  -6  -6   0   81.19    8.98
   6   6   1  613.13   33.48
  -6  -6  -1  647.67   42.41
   6   6   2  370.82   24.85
   6   6   3   44.27    7.69
   6   6   4   11.75    8.04
   6   7   0   72.93   11.99
   6   7   1  651.08   53.53
   6   7   2  148.13   14.10
   7  -6   1  618.04   35.55
   7  -6   1  554.51   34.77
   7  -6   2  582.69   34.35
   7  -5   1  726.37   27.55
   7  -5   1  648.66   33.29
   7  -5   2  273.70   18.91
   7  -5   3   77.91   11.60
   7  -5   4   28.73   11.98
   7  -4   1  845.49   37.28
   7  -4   1  810.15   40.29
   7  -4   2  230.15   13.33
   7  -4   2  209.49   15.37
   7  -4   3  140.90   10.64
   7  -4   3  138.36   13.39
   7  -4   4  123.10   12.11
   7  -4   5  550.25   33.73
   7  -3   1 1088.19   51.38
   7  -3   1 1059.85   48.77
   7  -3   2  473.99   19.45
   7  -3   2  434.39   21.62
   7  -3   3   98.65   14.48
   7  -3   3   39.35   13.95
   7  -3   4  331.74   27.31
   7  -3   4  245.94   24.37
   7  -3   5  160.40   12.75
   7  -3   6  335.82   24.71
   7  -2   1 1079.27   52.75
   7  -2   1 1122.80   44.65
   7  -2   2  385.89   22.73
   7  -2   2  388.13   18.44
   7  -2   3    6.95    5.88
   7  -2   3    7.40    6.34
   7  -2   4  153.23   11.39
   7  -2   4  124.53   12.52
   7  -2   5  371.69   22.62
   7  -2   6  599.29   40.64
   7  -1   1  965.48   38.86
   7  -1   1  939.77   43.41
   7  -1   2  125.99    8.01
   7  -1   2  121.54   11.14
   7  -1   3  121.82    8.54
   7  -1   3  104.37   12.05
   7  -1   4  236.19   14.49
   7  -1   4  231.35   17.61
   7  -1   5  459.55   28.03
   7  -1   5  413.57   29.18
   7  -1   6  634.67   39.16
   7  -1   7   40.36    9.72
   7   0   0  517.92   25.60
   7   0   1 1152.67   50.05
   7   0   1 1248.27   50.64
   7   0   2   94.94    6.39
   7   0   2  117.54   13.86
   7   0   3  183.78   11.31
   7   0   3  201.60   16.67
   7   0   4  327.40   19.59
   7   0   4  314.63   18.70
   7   0   5  365.57   20.74
   7   0   5  366.65   26.58
   7   0   6  394.11   25.99
   7   1   0 1276.69   57.97
   7   1   1  968.78   40.91
   7   1   2  101.39   11.29
   7   1   3   71.34   10.39
   7   1   4  162.01   14.36
   7   1   5  516.73   31.39
   7   1   5  484.90   31.81
   7   1   6  143.74   12.37
   7   2   0  904.98   40.47
   7   2   1  912.26   40.92
   7   2   2  278.52   21.81
   7   2   3  117.41   14.64
   7   2   4  367.18   24.52
   7   2   5  222.15   18.36
   7   3   0  698.06   36.49
  -7  -3   0  718.84   31.19
   7   3   1  536.54   27.76
   7   3   2   43.15    8.71
   7   3   3  148.54   13.80
   7   3   4  517.49   33.54
   7   4   0  235.72   18.01
   7   4   1  645.39   42.72
   7   4   2   48.73   11.47
   7   4   3  404.39   28.98
   7   4   4  486.44   34.86
   8  -4   2   32.38   10.84
   8  -3   1  120.16   12.25
   8  -3   1  120.16   12.25
;
_shelx_hkl_checksum              42458
loop_
_space_group_symop_operation_xyz
'x, y, z'
'-x, -y, -z'
loop_
_atom_site_label
_atom_site_type_symbol
_atom_site_fract_x
_atom_site_fract_y
_atom_site_fract_z
_atom_site_U_iso_or_equiv
_atom_site_adp_type
_atom_site_occupancy
_atom_site_site_symmetry_order
_atom_site_calc_flag
_atom_site_refinement_flags_posn
_atom_site_refinement_flags_adp
Sn1 Sn 0.70230(5) 0.01563(4) 0.11804(3) 0.01831(11) Uani 1 1 d . .
S11 S 0.4070(2) -0.02416(14) 0.24452(10) 0.0240(3) Uani 1 1 d . .
N1 N 0.4839(8) 0.1883(5) 0.4111(4) 0.0246(9) Uani 1 1 d . .
N2 N 0.4804(7) -0.1661(4) -0.0093(3) 0.0190(8) Uani 1 1 d . .
N12 N 0.7016(7) 0.2047(5) 0.2691(4) 0.0223(8) Uani 1 1 d . .
C1 C 0.6401(10) 0.2778(6) 0.4955(4) 0.0293(11) Uani 1 1 d . .
H1A H 0.7888 0.2825 0.4758 0.044 Uiso 1 1 calc R U
H1B H 0.6422 0.2314 0.5653 0.044 Uiso 1 1 calc R U
H1C H 0.5945 0.3797 0.5024 0.044 Uiso 1 1 calc R U
C2 C 0.2767(10) 0.1317(7) 0.4445(5) 0.0322(12) Uani 1 1 d . .
H2A H 0.1724 0.0879 0.3804 0.048 Uiso 1 1 calc R U
H2B H 0.2124 0.2146 0.4790 0.048 Uiso 1 1 calc R U
H2C H 0.3060 0.0546 0.4967 0.048 Uiso 1 1 calc R U
C3 C 0.3224(10) -0.2726(7) 0.0342(5) 0.0310(12) Uani 1 1 d . .
H3A H 0.2547 -0.3491 -0.0235 0.047 Uiso 1 1 calc R U
H3B H 0.2064 -0.2176 0.0592 0.047 Uiso 1 1 calc R U
H3C H 0.4019 -0.3212 0.0954 0.047 Uiso 1 1 calc R U
C4 C 0.6462(10) -0.2532(6) -0.0506(5) 0.0294(11) Uani 1 1 d . .
H4A H 0.7384 -0.2940 0.0106 0.044 Uiso 1 1 calc R U
H4B H 0.7400 -0.1876 -0.0888 0.044 Uiso 1 1 calc R U
H4C H 0.5704 -0.3360 -0.1013 0.044 Uiso 1 1 calc R U
C11 C 0.5415(8) 0.1418(5) 0.3152(4) 0.0202(9) Uani 1 1 d . .
C12 C 0.7838(8) 0.3574(6) 0.2801(4) 0.0208(9) Uani 1 1 d . .
C13 C 0.6536(9) 0.4740(6) 0.3021(4) 0.0234(10) Uani 1 1 d . .
H13 H 0.5115 0.4509 0.3214 0.028 Uiso 1 1 calc R U
C14 C 0.7337(10) 0.6236(6) 0.2954(4) 0.0276(11) Uani 1 1 d . .
H14 H 0.6440 0.7017 0.3090 0.033 Uiso 1 1 calc R U
C15 C 0.9412(10) 0.6594(6) 0.2692(5) 0.0316(12) Uani 1 1 d . .
H15 H 0.9940 0.7614 0.2645 0.038 Uiso 1 1 calc R U
C16 C 1.0729(10) 0.5443(7) 0.2498(5) 0.0326(12) Uani 1 1 d . .
H16 H 1.2168 0.5683 0.2329 0.039 Uiso 1 1 calc R U
C17 C 0.9941(9) 0.3942(6) 0.2552(4) 0.0257(10) Uani 1 1 d . .
H17 H 1.0848 0.3167 0.2417 0.031 Uiso 1 1 calc R U
loop_
_atom_site_aniso_label
_atom_site_aniso_U_11
_atom_site_aniso_U_22
_atom_site_aniso_U_33
_atom_site_aniso_U_23
_atom_site_aniso_U_13
_atom_site_aniso_U_12
Sn1 0.01841(17) 0.01635(16) 0.02072(17) 0.00142(11) 0.00337(11) 0.00453(11)
S11 0.0312(7) 0.0192(5) 0.0216(6) 0.0004(4) 0.0078(5) -0.0026(5)
N1 0.031(2) 0.023(2) 0.021(2) 0.0006(16) 0.0084(17) 0.0024(17)
N2 0.025(2) 0.0140(17) 0.0194(19) 0.0030(14) 0.0049(15) 0.0034(15)
N12 0.024(2) 0.0200(19) 0.024(2) 0.0002(16) 0.0064(16) 0.0021(16)
C1 0.039(3) 0.028(3) 0.020(2) -0.002(2) 0.004(2) 0.003(2)
C2 0.036(3) 0.034(3) 0.030(3) 0.003(2) 0.015(2) 0.005(2)
C3 0.038(3) 0.029(3) 0.025(3) 0.008(2) 0.002(2) -0.006(2)
C4 0.035(3) 0.023(2) 0.031(3) -0.002(2) 0.002(2) 0.012(2)
C11 0.023(2) 0.018(2) 0.020(2) 0.0024(17) 0.0033(18) 0.0036(17)
C12 0.021(2) 0.021(2) 0.019(2) 0.0006(17) 0.0009(18) 0.0028(18)
C13 0.022(2) 0.022(2) 0.027(2) 0.0005(19) 0.0060(19) 0.0041(18)
C14 0.034(3) 0.020(2) 0.028(3) 0.0016(19) 0.002(2) 0.007(2)
C15 0.034(3) 0.023(2) 0.034(3) 0.009(2) -0.002(2) -0.004(2)
C16 0.026(3) 0.031(3) 0.041(3) 0.013(2) 0.006(2) -0.002(2)
C17 0.022(2) 0.028(3) 0.029(3) 0.003(2) 0.007(2) 0.0041(19)
loop_
_atom_type_symbol
_atom_type_description
_atom_type_scat_dispersion_real
_atom_type_scat_dispersion_imag
_atom_type_scat_source
C C 0.0033 0.0016 'International Tables Vol C Tables 4.2.6.8 and 6.1.1.4'
H H 0.0000 0.0000 'International Tables Vol C Tables 4.2.6.8 and 6.1.1.4'
N N 0.0061 0.0033 'International Tables Vol C Tables 4.2.6.8 and 6.1.1.4'
S S 0.1246 0.1234 'International Tables Vol C Tables 4.2.6.8 and 6.1.1.4'
Sn Sn -0.6537 1.4246 'International Tables Vol C Tables 4.2.6.8 and 6.1.1.4'
loop_
_geom_angle_atom_site_label_1
_geom_angle_atom_site_label_2
_geom_angle_atom_site_label_3
_geom_angle
_geom_angle_site_symmetry_1
_geom_angle_site_symmetry_3
N2 Sn1 N2 80.15(15) 2_655 .
N2 Sn1 N12 87.63(15) 2_655 .
N2 Sn1 N12 145.24(14) . .
N2 Sn1 S11 96.53(11) 2_655 .
N2 Sn1 S11 87.71(10) . .
N12 Sn1 S11 61.35(11) . .
C11 S11 Sn1 84.40(17) . .
C11 N1 C1 121.9(5) . .
C11 N1 C2 122.3(5) . .
C1 N1 C2 115.0(4) . .
C4 N2 C3 108.0(4) . .
C4 N2 Sn1 119.0(3) . 2_655
C3 N2 Sn1 110.1(3) . 2_655
C4 N2 Sn1 103.0(3) . .
C3 N2 Sn1 117.0(3) . .
Sn1 N2 Sn1 99.85(15) 2_655 .
C11 N12 C12 126.8(4) . .
C11 N12 Sn1 100.2(3) . .
C12 N12 Sn1 129.3(3) . .
N1 C1 H1A 109.5 . .
N1 C1 H1B 109.5 . .
H1A C1 H1B 109.5 . .
N1 C1 H1C 109.5 . .
H1A C1 H1C 109.5 . .
H1B C1 H1C 109.5 . .
N1 C2 H2A 109.5 . .
N1 C2 H2B 109.5 . .
H2A C2 H2B 109.5 . .
N1 C2 H2C 109.5 . .
H2A C2 H2C 109.5 . .
H2B C2 H2C 109.5 . .
N2 C3 H3A 109.5 . .
N2 C3 H3B 109.5 . .
H3A C3 H3B 109.5 . .
N2 C3 H3C 109.5 . .
H3A C3 H3C 109.5 . .
H3B C3 H3C 109.5 . .
N2 C4 H4A 109.5 . .
N2 C4 H4B 109.5 . .
H4A C4 H4B 109.5 . .
N2 C4 H4C 109.5 . .
H4A C4 H4C 109.5 . .
H4B C4 H4C 109.5 . .
N12 C11 N1 126.5(5) . .
N12 C11 S11 113.9(4) . .
N1 C11 S11 119.5(4) . .
C17 C12 N12 117.7(5) . .
C17 C12 C13 119.0(5) . .
N12 C12 C13 122.9(5) . .
C14 C13 C12 119.9(5) . .
C14 C13 H13 120.0 . .
C12 C13 H13 120.0 . .
C15 C14 C13 120.9(5) . .
C15 C14 H14 119.6 . .
C13 C14 H14 119.6 . .
C14 C15 C16 119.4(5) . .
C14 C15 H15 120.3 . .
C16 C15 H15 120.3 . .
C15 C16 C17 120.4(5) . .
C15 C16 H16 119.8 . .
C17 C16 H16 119.8 . .
C12 C17 C16 120.5(5) . .
C12 C17 H17 119.8 . .
C16 C17 H17 119.8 . .
loop_
_geom_bond_atom_site_label_1
_geom_bond_atom_site_label_2
_geom_bond_distance
_geom_bond_site_symmetry_2
Sn1 N2 2.205(4) 2_655
Sn1 N2 2.381(4) .
Sn1 N12 2.463(4) .
Sn1 S11 2.5980(13) .
S11 C11 1.755(5) .
N1 C11 1.353(6) .
N1 C1 1.457(7) .
N1 C2 1.459(7) .
N2 C4 1.473(7) .
N2 C3 1.484(7) .
N2 Sn1 2.205(4) 2_655
N12 C11 1.315(7) .
N12 C12 1.408(6) .
C1 H1A 0.9800 .
C1 H1B 0.9800 .
C1 H1C 0.9800 .
C2 H2A 0.9800 .
C2 H2B 0.9800 .
C2 H2C 0.9800 .
C3 H3A 0.9800 .
C3 H3B 0.9800 .
C3 H3C 0.9800 .
C4 H4A 0.9800 .
C4 H4B 0.9800 .
C4 H4C 0.9800 .
C12 C17 1.391(7) .
C12 C13 1.408(7) .
C13 C14 1.398(7) .
C13 H13 0.9500 .
C14 C15 1.380(9) .
C14 H14 0.9500 .
C15 C16 1.396(9) .
C15 H15 0.9500 .
C16 C17 1.397(8) .
C16 H16 0.9500 .
C17 H17 0.9500 .
loop_
_geom_torsion_atom_site_label_1
_geom_torsion_atom_site_label_2
_geom_torsion_atom_site_label_3
_geom_torsion_atom_site_label_4
_geom_torsion
C12 N12 C11 N1 -28.5(8)
Sn1 N12 C11 N1 171.8(4)
C12 N12 C11 S11 155.3(4)
Sn1 N12 C11 S11 -4.4(4)
C1 N1 C11 N12 -24.0(8)
C2 N1 C11 N12 166.7(5)
C1 N1 C11 S11 152.0(4)
C2 N1 C11 S11 -17.2(7)
Sn1 S11 C11 N12 4.1(4)
Sn1 S11 C11 N1 -172.4(4)
C11 N12 C12 C17 159.8(5)
Sn1 N12 C12 C17 -46.4(6)
C11 N12 C12 C13 -28.0(8)
Sn1 N12 C12 C13 125.8(5)
C17 C12 C13 C14 1.9(8)
N12 C12 C13 C14 -170.2(5)
C12 C13 C14 C15 -1.1(8)
C13 C14 C15 C16 -0.4(9)
C14 C15 C16 C17 1.0(9)
N12 C12 C17 C16 171.2(5)
C13 C12 C17 C16 -1.3(8)
C15 C16 C17 C12 -0.1(9)
