#------------------------------------------------------------------------------
#$Date: 2021-02-27 01:26:45 +0200 (Sat, 27 Feb 2021) $
#$Revision: 262280 $
#$URL: file:///home/coder/svn-repositories/cod/cif/4/00/38/4003877.cif $
#------------------------------------------------------------------------------
#
# This file is available in the Crystallography Open Database (COD),
# http://www.crystallography.net/
#
# All data on this site have been placed in the public domain by the
# contributors.
#
data_4003877
loop_
_publ_author_name
'Chica, Daniel G.'
'Spanopoulos, Ioannis'
'Hao, Shiqiang'
'Wolverton, Chris'
'Kanatzidis, Mercouri G.'
_publ_section_title
;
 Sn4&#x2212;\dB12Se12[Qx], Q = Se, Te, a B12 Cluster Tunnel Framework
 Hosting Neutral Chalcogen Chains
;
_journal_name_full               'Chemistry of Materials'
_journal_paper_doi               10.1021/acs.chemmater.0c04503
_journal_year                    2021
_chemical_formula_moiety         'B12 Se12 Sn3.874, Te3.527'
_chemical_formula_sum            'B12 Se12 Sn3.88 Te3.53'
_chemical_formula_weight         1986.95
_space_group_crystal_system      hexagonal
_space_group_IT_number           182
_space_group_name_Hall           'P 6c 2c'
_space_group_name_H-M_alt        'P 63 2 2'
_audit_creation_date             2021-01-25
_audit_creation_method
;
Olex2 1.3
(compiled 2020.11.12 svn.r5f609507 for OlexSys, GUI svn.r6226)
;
_cell_angle_alpha                90
_cell_angle_beta                 90
_cell_angle_gamma                120
_cell_formula_units_Z            2
_cell_length_a                   13.6603(6)
_cell_length_b                   13.6603(6)
_cell_length_c                   9.7630(5)
_cell_measurement_reflns_used    5565
_cell_measurement_temperature    300(2)
_cell_measurement_theta_max      67.48
_cell_measurement_theta_min      3.74
_cell_volume                     1577.74(13)
_computing_molecular_graphics    'Olex2 1.3 (Dolomanov et al., 2009)'
_computing_publication_material  'Olex2 1.3 (Dolomanov et al., 2009)'
_computing_structure_refinement  'SHELXL 2018/3 (Sheldrick, 2015)'
_computing_structure_solution    'XT (Sheldrick, 2015)'
_diffrn_ambient_temperature      299.93
_diffrn_measured_fraction_theta_full 0.998
_diffrn_measured_fraction_theta_max 0.997
_diffrn_measurement_device_type  'Bruker APEX-II CCD'
_diffrn_measurement_method       '\f and \w scans'
_diffrn_radiation_type           CuK\a
_diffrn_radiation_wavelength     1.54178
_diffrn_reflns_av_R_equivalents  0.0355
_diffrn_reflns_av_unetI/netI     0.0272
_diffrn_reflns_Laue_measured_fraction_full 0.998
_diffrn_reflns_Laue_measured_fraction_max 0.997
_diffrn_reflns_limit_h_max       16
_diffrn_reflns_limit_h_min       -14
_diffrn_reflns_limit_k_max       15
_diffrn_reflns_limit_k_min       -12
_diffrn_reflns_limit_l_max       11
_diffrn_reflns_limit_l_min       -10
_diffrn_reflns_number            8739
_diffrn_reflns_point_group_measured_fraction_full 0.988
_diffrn_reflns_point_group_measured_fraction_max 0.985
_diffrn_reflns_theta_full        67.679
_diffrn_reflns_theta_max         68.168
_diffrn_reflns_theta_min         3.736
_diffrn_standards_number         0
_exptl_absorpt_coefficient_mu    65.155
_exptl_absorpt_correction_T_max  0.7531
_exptl_absorpt_correction_T_min  0.3290
_exptl_absorpt_correction_type   multi-scan
_exptl_crystal_colour            black
_exptl_crystal_density_diffrn    4.182
_exptl_crystal_description       rod
_exptl_crystal_F_000             1690
_exptl_crystal_size_max          0.099
_exptl_crystal_size_mid          0.019
_exptl_crystal_size_min          0.015
_refine_diff_density_max         0.506
_refine_diff_density_min         -0.434
_refine_diff_density_rms         0.114
_refine_ls_abs_structure_details
;
 Refined as an inversion twin.
;
_refine_ls_abs_structure_Flack   0.948(15)
_refine_ls_extinction_method     none
_refine_ls_goodness_of_fit_ref   1.153
_refine_ls_hydrogen_treatment    undef
_refine_ls_matrix_type           full
_refine_ls_number_parameters     95
_refine_ls_number_reflns         962
_refine_ls_number_restraints     0
_refine_ls_restrained_S_all      1.153
_refine_ls_R_factor_all          0.0230
_refine_ls_R_factor_gt           0.0215
_refine_ls_shift/su_max          0.000
_refine_ls_shift/su_mean         0.000
_refine_ls_structure_factor_coef Fsqd
_refine_ls_weighting_details
'w=1/[\s^2^(Fo^2^)+(0.0158P)^2^+4.5573P] where P=(Fo^2^+2Fc^2^)/3'
_refine_ls_weighting_scheme      calc
_refine_ls_wR_factor_gt          0.0505
_refine_ls_wR_factor_ref         0.0508
_reflns_Friedel_coverage         0.554
_reflns_Friedel_fraction_full    0.969
_reflns_Friedel_fraction_max     0.963
_reflns_number_gt                921
_reflns_number_total             962
_reflns_threshold_expression     'I > 2\s(I)'
_cod_data_source_file            cm0c04503_si_003.cif
_cod_data_source_block           Sn3,9B12Se12(Te3,5)
_cod_original_cell_volume        1577.74(16)
_cod_database_code               4003877
_shelx_shelxl_version_number     2018/3
_shelx_space_group_comment
;
The symmetry employed for this shelxl refinement is uniquely defined
by the following loop, which should always be used as a source of
symmetry information in preference to the above space-group names.
They are only intended as comments.
;
_olex2_refinement_description
;
1. Twinned data refinement
 Scales: 0.052(15)
 0.948(15)
2. Uiso/Uaniso restraints and constraints
Uiso(Te1) = Uiso(Te2) = Uiso(Te3) = Uiso(Te4) = Uiso(Te5) = Uiso(Te6) =
Uiso(Te7) = Uiso(Te8) = Uiso(Te9) = Uiso(Te10) = Uiso(Te11) = Uiso(Te12) =
Uiso(Te13) = Uiso(Te14)
;
_shelx_res_file
;
TITL dgc3095_p6322_a.res in P6(3)22
    dgc3095_p6322.res
    created by SHELXL-2018/3 at 22:50:00 on 25-Jan-2021
REM Old TITL dgc3095_P6322 in P6(3)22
REM SHELXT solution in P6(3)22
REM R1 0.181, Rweak 0.024, Alpha 0.004, Orientation as input
REM Flack x = 0.128 ( 0.012 ) from Parsons' quotients
REM Formula found by SHELXT: B18 Se12 Sn3 Te
CELL 1.54178 13.6603 13.6603 9.763 90 90 120
ZERR 2 0.0006 0.0006 0.0005 0 0 0
LATT -1
SYMM -Y,+X-Y,+Z
SYMM +Y-X,-X,+Z
SYMM -X,-Y,0.5+Z
SYMM +Y,-X+Y,0.5+Z
SYMM -Y+X,+X,0.5+Z
SYMM +Y,+X,-Z
SYMM -Y+X,-Y,-Z
SYMM -X,-X+Y,-Z
SYMM -Y,-X,0.5-Z
SYMM +Y-X,+Y,0.5-Z
SYMM +X,+X-Y,0.5-Z
SFAC B Se Sn Te
UNIT 24 24 7.75 7.05
EADP Te1 Te2 Te3 Te4 Te5 Te6 Te7 Te8 Te9 Te10 Te11 Te12 Te13 Te14

L.S. 99
PLAN  4
TEMP 26.78
CONF
list 4
MORE -1
fmap 2 53
acta
TWIN -1 0 0 0 -1 0 0 0 -1 2
REM <olex2.extras>
REM <HklSrc "%.\\dgc3095_P6322.hkl">
REM </olex2.extras>

WGHT    0.015800    4.557300
BASF   0.94823
FVAR       0.25222
SN1   3    0.525704    0.000000    0.000000    10.50000    0.03168    0.01942 =
         0.02285    0.00531    0.00266    0.00971
SN2   3    0.333333    0.666667    0.750000     0.14573    0.03034    0.03034 =
         0.02032    0.00000    0.00000    0.01517
SE1   2    0.498133    0.167954    0.049435    11.00000    0.02712    0.02282 =
         0.01850    0.00351    0.00633    0.01037
SE2   2    0.068148    0.398008    0.311040    11.00000    0.02300    0.02256 =
         0.02539   -0.00186    0.00468    0.00444
B1    1    0.211621    0.542934    0.281243    11.00000    0.02283    0.01577 =
         0.01170    0.00031    0.00133    0.00939
B2    1    0.257597    0.591838    0.110972    11.00000    0.01553    0.02026 =
         0.01142   -0.00497   -0.00555    0.00902
TE1   4    0.082720    0.174543    0.062542     0.09281    0.09600
TE2   4    0.188861    0.082788    0.022940     0.08179    0.09600
TE3   4    0.872631    0.000000    0.000000     0.02868    0.09600
TE4   4    0.162384    0.000000    0.000000     0.02251    0.09600
TE5   4    0.071669    0.132479    0.151253     0.05440    0.09600
TE6   4    0.180854    0.056487    0.210957     0.02584    0.09600
TE7   4    0.107134    0.093923    0.193034     0.03107    0.09600
TE8   4    0.142503    0.126652    0.077966     0.04028    0.09600
TE9   4    0.174213    0.055202    0.125518     0.09661    0.09600
TE10  4    0.064787    0.129575    0.250000     0.02641    0.09600
TE11  4    0.142740    0.002426    0.076353     0.03606    0.09600
TE12  4    0.095329    0.000000    0.000000     0.00553    0.09600
TE13  4    0.094722    0.044457    0.110120     0.01963    0.09600
TE14  4    0.114481    0.037934    0.197907     0.02613    0.09600
HKLF 4




REM  dgc3095_p6322_a.res in P6(3)22
REM wR2 = 0.0508, GooF = S = 1.153, Restrained GooF = 1.153 for all data
REM R1 = 0.0215 for 921 Fo > 4sig(Fo) and 0.0230 for all 962 data
REM 95 parameters refined using 0 restraints

END

WGHT      0.0158      4.5573

REM Highest difference peak  0.506,  deepest hole -0.434,  1-sigma level  0.114
Q1    1   0.4159  0.0804  0.0430  11.00000  0.05    0.51
Q2    1   0.5458  0.0983  0.0333  11.00000  0.05    0.49
Q3    1  -0.0130  0.4091  0.3170  11.00000  0.05    0.43
Q4    1   0.3824  0.7648  0.7500  10.50000  0.05    0.43
;
_shelx_res_checksum              99830
_shelx_hkl_file
;
   1   0   0  740.43   46.40
   1  -1   0  729.43   46.80
   2  -1   0  564.64   38.00
   1   1   0  604.74   38.30
   1   1   0  575.44   37.40
   1  -2   0  615.84   38.50
   2   0   0 6928.81  422.56
   2   0   0 6647.44  421.86
   2  -2   0 6781.32  422.66
   3  -1   0  195.48   15.00
   2  -3   0  197.48   15.90
   1   2   0  186.88   14.60
   3  -2   0  186.68   15.30
   3  -1   0  187.38   14.60
   1  -3   0  189.98   15.40
   2   1   0  175.28   13.20
   2   1   0  199.98   15.80
   3   0   0  140.19   10.60
   3  -3   0  122.29   13.40
   3   0   0  146.09   12.70
   0  -3   0  117.39   11.60
   2   2   0  251.67   18.80
   2   2   0  262.47   21.40
   4  -2   0  299.47   20.60
  -2   4   0  287.57   20.60
  -2  -2   0  245.08   18.50
   2  -4   0  285.37   22.10
   4  -1   0 3297.07  201.18
  -1  -3   0 3203.38  200.08
   4  -3   0 3144.69  202.98
   4  -3   0 3285.27  201.28
   4  -1   0 3190.98  200.18
   3  -4   0 3122.19  201.48
   3   1   0 2950.90  199.28
   3   1   0 3309.77  201.58
   1  -4   0 3262.47  201.18
   4  -4   0  178.78   16.30
   0  -4   0  176.68   14.80
   4   0   0  162.18   13.00
   4   0   0  150.68   16.20
  -2  -3   0   36.40    6.10
   5  -2   0   26.40    7.80
   5  -2   0   41.50    7.30
  -3  -2   0   44.20    6.40
   5  -3   0   37.80    8.30
   3  -5   0   43.10    9.20
   5  -3   0   38.60    7.70
   5  -3   0   41.00    6.50
   2  -5   0   41.90    9.60
  -3   5   0   37.10    8.20
   3   2   0   53.89    9.60
   3   2   0   35.80    5.40
   5  -1   0   15.30    5.10
  -1  -4   0   13.60    5.30
   1  -5   0   25.30    7.40
   4   1   0   12.30    7.70
   5  -1   0   19.70    7.50
   5  -4   0   14.70   12.00
  -4   5   0    6.70    7.80
   4  -5   0   18.20    7.90
   5  -4   0   31.10    7.80
   4   1   0   13.20    4.10
   5   0   0 2618.24  164.98
   5  -5   0 2595.44  168.48
   5   0   0 2540.35  162.48
   0  -5   0 2494.75  164.08
   5  -5   0 2688.03  165.28
   3  -6   0 1452.15   94.29
   6  -3   0 1394.86   92.59
   6  -3   0 1445.96   93.39
  -4   6   0 2596.14  162.78
   2  -6   0 2571.24  164.68
   6  -2   0 2522.95  162.38
   6  -4   0 2561.24  163.38
   6  -4   0 2590.64  161.58
   4  -6   0 2560.14  164.58
   6  -4   0 2504.25  162.18
   4   2   0 2610.14  164.38
  -4   6   0 2497.35  160.88
   6  -2   0 2657.53  164.08
  -5   6   0 1225.78   76.39
   6  -5   0 1208.38   81.09
   5   1   0 1124.59   75.69
  -5   6   0 1161.08   79.39
   6  -5   0 1192.68   79.19
   5  -6   0 1253.27   80.09
   6  -1   0 1162.08   76.79
   5   1   0 1272.47   80.29
   6  -1   0 1243.68   79.69
   1  -6   0 1125.69   79.29
  -6   6   0 9202.78  541.65
   6   0   0 8112.39  541.15
   6  -6   0 8740.73  546.85
   6  -6   0 8567.04  544.75
   6   0   0 8832.42  544.95
   4  -7   0  221.28   22.80
   7  -3   0  230.58   19.40
   3  -7   0  221.08   22.70
   7  -4   0  238.98   20.20
  -3   7   0  212.38   16.40
   7  -2   0  113.29   15.70
   2   5   0  121.29   13.90
   7  -5   0  125.79   15.50
   7  -5   0  125.49   13.20
   5   2   0  132.09   16.60
   2  -7   0  142.89   17.40
  -5   7   0  124.69   12.10
   5  -7   0  142.89   17.70
   7  -2   0  121.29   13.00
   7  -5   0   96.99   13.80
  -5   7   0  127.59   14.90
   7  -1   0 1262.17   84.59
  -6   7   0 1284.77   87.89
   6   1   0 1317.17   88.89
   7  -6   0 1337.77   88.19
   7  -1   0 1349.66   88.59
   6  -7   0 1305.27   88.89
   7  -6   0 1336.77   88.79
  -6   7   0 1351.06   84.59
   7  -7   0 1793.12  121.09
   7  -7   0 1781.82  119.19
  -7   7   0 1819.92  115.29
   7   0   0 1834.52  119.89
   4  -8   0 4089.39  263.27
   8  -4   0 4002.40  262.37
   8  -4   0 4272.07  261.17
   8  -3   0  115.79   13.60
   8  -5   0   98.99   15.00
   5  -8   0  115.59   17.10
   3  -8   0   88.59   15.60
   8  -5   0  124.89   15.20
  -5   8   0  118.19   11.90
   8  -3   0  102.59   15.40
   8  -6   0  853.01   58.09
  -6   8   0  807.62   53.59
   6  -8   0  828.62   59.79
   8  -2   0  783.22   58.69
  -6   8   0  837.92   56.19
   6   2   0  826.62   59.59
   8  -2   0  789.42   54.49
   7   1   0  856.31   59.99
  -7   8   0  790.12   58.19
   8  -7   0  796.12   58.19
   8  -7   0  819.52   57.59
  -1   8   0  799.12   53.69
   1   7   0  813.42   53.19
   8  -1   0  780.22   59.09
   8  -7   0  828.92   58.49
   7  -8   0  809.52   59.39
  -7   8   0  822.32   53.99
  -8   7   0  813.22   54.59
   8  -8   0  134.99   20.50
   8   0   0  107.99   18.30
   8  -8   0  115.09   17.80
   0   8   0  110.69   13.50
  -8   8   0  126.49   15.20
   9  -5   0  223.98   21.50
   9  -5   0  206.78   23.70
   9  -4   0  182.68   22.90
   4  -9   0  175.68   23.50
  -4   9   0  233.68   25.70
   5  -9   0  183.68   24.20
   9  -4   0  228.68   21.00
   9  -3   0 1275.27   86.79
   9  -6   0 1240.28   85.19
   6  -9   0 1232.88   87.79
  -3   9   0 1193.58   81.79
   9  -3   0 1240.18   82.59
  -6   9   0 1294.87   84.39
   9  -6   0 1346.67   86.99
   2   7   0  473.15   33.90
   7  -9   0  460.05   39.20
  -7   9   0  416.76   31.50
   2   7   0  462.75   32.20
   9  -7   0  472.75   37.30
  -2   9   0  402.56   32.10
   9  -2   0  429.16   38.40
   7   2   0  435.86   38.90
   7   2   0  458.15   31.40
   7   2   0  437.46   35.00
   7   2   0  435.46   30.00
   9  -1   0   54.19    9.20
  -8   9   0   54.59   10.00
   8  -9   0   37.50   13.70
   9  -8   0   38.00   13.00
   1   8   0   30.60   11.20
   8   1   0   47.30   12.20
  -1   9   0   39.30    8.70
   9  -1   0   56.79   12.50
   1   8   0   43.80    8.50
  -8   9   0   55.99   14.80
   9  -1   0   62.59   15.90
   8   1   0   51.39    7.20
   8   1   0   55.99   16.10
  -9   8   0   45.60   10.70
   8   1   0   50.69    8.60
  -1   9   0   42.60   10.10
  -9   9   0   38.00   16.00
   9   0   0   39.10    8.60
   0   9   0   33.30    8.70
   9   0   0   42.60   15.00
   9   0   0   49.10   12.60
   9  -9   0   36.70   13.60
  -9   9   0   40.90   10.10
   0   9   0   37.40    8.80
   9   0   0   40.50    7.50
   9  -9   0   33.20   13.60
   5 -10   0  817.72   61.19
   5   5   0  792.42   49.80
  10  -5   0  758.12   54.89
   5   5   0  806.82   50.99
  10  -5   0  741.03   58.19
  -5  10   0  708.03   53.19
   5   5   0  736.13   53.79
  10  -6   0  215.68   23.30
   4   6   0  204.78   22.30
   6   4   0  220.28   17.80
   4   6   0  222.98   18.00
   6 -10   0  244.58   28.40
  -4  10   0  178.48   21.10
   6   4   0  219.38   22.80
  10  -4   0  198.78   20.90
  10  -4   0  199.78   25.50
  10  -6   0  226.68   26.80
   4   6   0  219.68   16.90
   6   4   0  214.78   16.50
  10  -3   0  440.46   40.60
   7   3   0  477.25   33.10
  -3  10   0  475.95   35.10
   7   3   0  450.15   37.00
  10  -7   0  463.05   41.60
   7 -10   0  464.25   42.70
   7   3   0  496.55   31.80
   3   7   0  446.76   36.20
  10  -7   0  483.45   39.00
   3   7   0  470.45   32.30
   3   7   0  491.05   33.50
  -2  10   0   71.19   11.30
   2   8   0   79.99   13.40
  10  -2   0   87.19   13.30
   2   8   0   81.79    9.50
  -8  10   0   78.79   14.90
   8   2   0   84.99   11.70
   8   2   0   84.49   14.60
  10  -8   0   71.89   16.80
   2   8   0   77.29   11.80
  10  -8   0   82.29   16.10
  10  -2   0   77.09   18.20
   8 -10   0  100.59   19.20
 -10   8   0   87.99   13.50
   8   2   0   81.39    8.80
   9 -10   0   42.90   16.70
   9   1   0   20.90   15.20
   9   1   0   44.50    7.10
   9 -10   0   33.50   14.30
  10  -1   0   29.60   15.10
  10  -1   0   48.90   12.90
   1   9   0   36.10    8.50
  10  -9   0   29.40   13.70
  -9  10   0   46.70   10.10
   1   9   0   32.40    7.80
   9   1   0   37.10    8.30
  -1  10   0   37.80    9.60
  10  -1   0   34.90    8.70
 -10   9   0   46.80   11.40
  -1  10   0   38.90    9.90
   9   1   0   32.80   12.40
 -10  10   0  192.18   23.30
 -10  10   0  184.08   20.70
  10   0   0  195.28   18.40
  10   0   0  197.48   16.70
  10   0   0  209.18   23.60
   0  10   0  175.58   18.40
  10 -10   0  243.78   37.30
  11  -6   0  263.27   30.90
  -5  11   0  261.77   25.50
   6   5   0  259.17   20.80
   6   5   0  265.77   20.10
   5   6   0  278.37   26.30
  11  -5   0  297.17   32.00
   6   5   0  273.97   21.70
  11  -6   0  272.07   27.20
   5   6   0  287.47   21.70
   5   6   0  276.47   20.20
   6   5   0  264.77   26.30
   7   4   0 2962.30  173.68
  11  -7   0 2698.33  177.78
  -4  11   0 2698.53  174.18
   7   4   0 2807.72  171.48
   7   4   0 2765.02  175.58
  11  -7   0 2582.64  180.08
   4   7   0 2851.81  173.18
   7   4   0 2821.82  173.08
  11  -4   0 2400.36  179.38
   4   7   0 2717.43  171.58
   4   7   0 2670.83  174.78
   7 -11   0 2648.33  181.58
   8   3   0  209.08   17.10
   8   3   0  234.68   19.40
   8 -11   0  202.18   28.60
  11  -3   0  197.38   29.40
  11  -8   0  234.78   35.00
 -11   8   0  242.18   24.40
  -3  11   0  236.58   22.30
  11  -8   0  198.68   25.60
   3   8   0  226.48   19.20
  11  -3   0  249.58   25.20
   3   8   0  205.48   17.90
   3   8   0  225.58   23.60
   8   3   0  233.78   24.80
  -2  11   0  219.18   22.20
   9 -11   0  193.28   27.70
  11  -2   0  211.08   20.50
   9   2   0  226.88   17.50
   9   2   0  231.68   25.00
 -11   9   0  222.08   23.60
   2   9   0  211.78   18.30
   9   2   0  222.28   19.40
   2   9   0  214.28   19.50
  -2  11   0  229.88   21.80
  11  -1   0  173.68   16.50
   1  10   0  178.78   17.10
  11  -1   0  185.68   18.50
  10   1   0  183.38   17.70
  10   1   0  179.18   22.50
  11  -1   0  173.68   22.00
 -11  10   0  181.38   21.40
 -11  10   0  170.08   24.20
  -1  11   0  173.38   18.60
   1  10   0  182.38   17.90
  10   1   0  188.78   15.80
   0  11   0  283.07   24.80
  11   0   0  314.67   22.60
   0  11   0  310.57   24.00
  11   0   0  273.87   27.40
  11   0   0  303.67   24.80
   6   6   0 1380.96   85.99
   6   6   0 1346.77   88.89
  -6  12   0 1245.98   87.89
   6   6   0 1297.57   83.99
   6   6   0 1344.87   84.09
   7   5   0  979.10   63.39
 -12   7   0 1023.10   66.89
   5   7   0  953.20   61.49
   7   5   0  985.10   66.99
   5   7   0  972.70   66.39
   5   7   0  993.80   63.59
   5   7   0  897.41   61.29
   7   5   0  990.80   61.39
   7   5   0  918.91   61.39
  -5  12   0  902.01   65.29
   8   4   0   44.00    8.70
   8   4   0   39.90   12.70
   4   8   0   41.80    6.40
   4   8   0   41.10   11.90
   8   4   0   49.60    6.90
  -4  12   0   35.90   11.00
   4   8   0   43.20    7.00
   8   4   0   42.80    6.50
   4   8   0   45.00    8.70
 -12   8   0   46.30   13.10
   9   3   0  367.16   25.30
   3   9   0  358.26   27.50
  12  -3   0  353.86   29.20
   9   3   0  361.36   32.00
 -12   9   0  379.46   31.70
   3   9   0  349.57   25.60
  -3  12   0  375.06   29.90
   3   9   0  354.16   30.90
   3   9   0  393.36   26.10
   9   3   0  363.56   25.70
   9   3   0  358.76   27.60
  12  -2   0  126.89   15.90
  -2  12   0  103.69   16.20
  10   2   0  126.99   11.80
  10   2   0  121.99   13.00
   2  10   0  118.59   14.00
  10   2   0  122.69   14.50
  12  -2   0  125.89   14.20
 -12  10   0  113.09   16.40
  10   2   0  113.99   16.40
   2  10   0  129.39   13.60
  11   1   0 1152.88   70.69
 -12  11   0 1070.29   73.29
  12  -1   0 1145.39   71.09
  -1  12   0 1035.60   73.29
  11   1   0 1110.69   70.19
  12  -1   0 1077.39   73.39
  -1  12   0 1115.69   71.79
  11   1   0 1141.79   73.09
   1  11   0 1082.29   72.79
  11   1   0 1095.19   74.69
  12  -1   0 1044.40   74.19
   1  11   0 1131.09   71.09
   0  12   0 2890.51  187.48
   0  12   0 2932.61  189.48
  12   0   0 3001.20  186.88
  12   0   0 3070.29  189.58
  12   0   0 2987.10  190.08
  12   0   0 3035.00  187.08
 -13   7   0   -4.30   11.30
  -6  13   0    3.30   10.60
   6   7   0    0.80    6.10
   6   7   0   -1.60   10.80
   7   6   0    2.40    6.20
   7   6   0    0.00   10.70
  -5  13   0    7.80   10.40
   5   8   0    2.20   10.30
   8   5   0    0.60   11.10
   8   5   0    3.40    6.50
 -13   8   0    2.00   11.50
   5   8   0    3.20    6.20
   4   9   0  219.18   16.10
   9   4   0  214.98   18.80
   9   4   0  211.58   24.50
  -4  13   0  226.98   23.30
   4   9   0  215.78   16.30
   4   9   0  208.28   22.90
   4   9   0  213.78   18.70
 -13   9   0  218.98   23.80
  10   3   0   13.00   11.20
   3  10   0   17.80    7.60
  13  -3   0   22.40   10.70
  10   3   0   18.70    7.70
   3  10   0   18.50    5.00
  13  -3   0   18.10    8.90
   3  10   0   17.70    5.70
 -13  10   0   12.20   11.00
  13  -2   0  260.37   20.40
  11   2   0  263.27   21.80
  11   2   0  272.27   26.00
  -2  13   0  257.87   23.40
  -2  13   0  263.27   21.60
  13  -2   0  261.27   22.90
   2  11   0  266.27   19.00
   2  11   0  265.77   21.70
   2  11   0  263.37   19.40
   1  12   0  265.97   22.50
  13  -1   0  285.67   21.10
  13  -1   0  288.17   23.40
  -1  13   0  275.57   21.80
  12   1   0  289.17   25.70
   1  12   0  288.67   20.50
  12   1   0  288.97   22.80
  13  -1   0  284.27   20.50
  -1  13   0  274.77   23.30
   1  12   0  281.47   20.10
   0  13   0  184.18   13.80
   0  13   0  171.28   16.50
   0  13   0  205.68   14.40
  13   0   0  119.19   20.60
  -7  14   0  139.19   17.00
   7   7   0  152.58   20.30
   7   7   0  124.99   13.30
 -14   7   0  123.79   17.20
   6   8   0    5.40   10.50
   8   6   0    8.50    6.50
 -14   6   0    0.60   11.40
  -6  14   0   14.20   11.00
 -14   8   0   -1.90   11.30
   8   6   0    8.80   10.70
   6   8   0    6.90    6.20
   5   9   0    1.10    9.70
   9   5   0    6.60    6.20
  -5  14   0    4.40   10.50
   5   9   0    8.80    6.20
   9   5   0    1.10   10.40
  14  -4   0   31.30    8.90
  10   4   0   19.20   10.80
   4  10   0   28.50    7.30
  14  -4   0   28.70    9.20
   4  10   0   29.60   10.70
  10   4   0   27.10    7.30
   3  11   0  109.09   12.30
  -3  14   0  108.59   15.40
  14  -3   0   94.39   14.00
  14  -3   0  103.99   12.10
  11   3   0  101.59   14.30
  11   3   0  110.49   12.20
  -3  14   0  114.29   14.50
  14  -2   0   14.80    4.90
   2  12   0   12.00    6.60
  12   2   0   18.30    9.30
  14  -2   0    7.30    5.00
  12   2   0   12.80    6.30
  14  -2   0    5.80    7.00
  -2  14   0   18.40    7.90
  -2  14   0   22.40    6.90
  -1  14   0   51.69    8.50
   1  13   0   52.79    8.00
  14  -1   0   52.99    8.50
  13   1   0   50.29    7.60
  13   1   0   59.39    9.80
   8   7   0   13.50    5.40
   8   7   0   16.40   10.30
   7   8   0   14.90    5.60
  -7  15   0   14.20   10.30
   7   8   0   12.20   10.00
   6   9   0    9.40    5.30
   6   9   0    9.30    9.80
   9   6   0   10.80    5.30
   9   6   0   15.90   10.30
  10   5   0   10.30    5.10
   5  10   0    7.60    5.20
  15  -5   0    8.70    6.10
  10   5   0   -0.20    9.20
   5  10   0    1.00    8.90
   4  11   0    1.80    4.80
  -4  15   0   -1.40    6.20
  11   4   0   -2.90    8.50
  11   4   0    3.10    4.60
  15  -4   0    0.10    5.10
  15  -4   0    6.30    7.00
  12   3   0   28.00    8.70
   3  12   0   33.10    5.70
  15  -3   0   26.50    7.40
  -3  15   0   34.50    5.80
  -3  15   0   33.90    7.60
  -3  15   0   26.30    5.80
   2  13   0  193.48   14.00
   8   8   0    2.40    8.60
   9   7   0   89.09   11.70
   7   9   0   79.59   11.30
  10   6   0    1.70    8.20
  11   5   0    2.10    9.20
   0   0   1    1.20    1.70
   1   0   1    8.20    2.20
   1   0   1    7.60    3.20
   0  -1   1   10.80    2.90
   1  -1   1    9.70    3.30
   1   0  -1    6.50    2.70
   0   1  -1   14.00    3.30
   1  -1  -1   10.00    3.30
  -1   1  -1    9.20    3.40
   0   1   1    8.60    3.30
   2  -1   1  144.69   11.50
   1  -2   1  147.29   12.40
   1  -2  -1  148.19   12.20
   2  -1  -1  161.68   12.30
   1   1  -1  151.78   11.60
  -1  -1   1  141.69   11.60
   1   1   1  140.79   12.60
  -1   2  -1  164.28   13.20
   2  -2  -1  993.50   62.69
   2   0  -1 1034.70   62.29
   0   2  -1  947.71   62.59
   2   0   1 1010.70   62.79
   2   0  -1  995.90   61.89
   2  -2   1  954.40   62.79
   2  -2   1  887.41   63.09
   0  -2   1  964.10   62.29
   2  -3   1  548.15   41.60
   1   2   1  573.64   41.70
   3  -1   1  586.64   41.50
   2   1  -1  597.64   41.10
   1  -3  -1  562.04   41.40
   2   1  -1  560.74   40.70
  -2   3   1  578.34   40.40
  -1  -2   1  593.84   40.90
  -1   3  -1  542.25   42.20
   3  -2  -1  574.24   41.60
   3  -1   1  605.64   40.30
   2  -3  -1  688.93   42.00
   1  -3   1  744.43   42.00
   3  -2   1  676.03   41.30
   1   2  -1  694.63   41.30
   1  -3   1  571.74   41.70
   3  -1  -1  736.63   41.00
  -2  -1   1  700.63   41.20
   2   1   1  727.63   42.20
   3  -3   1   24.20    6.80
   3  -3  -1   31.50    7.10
   3   0  -1   30.70    5.80
   0  -3   1   28.20    6.20
   3   0  -1   24.80    5.50
   3   0   1   18.00    6.40
   0   3  -1   24.50    6.90
   2   2  -1 7138.09  447.06
   4  -2   1 7220.58  447.06
   2   2   1 7221.68  448.16
   2  -4  -1 7359.36  448.16
   4  -2  -1 7189.28  447.66
  -2  -2   1 6880.51  446.96
   2  -4   1 6902.11  448.06
  -2   4  -1 7452.85  448.76
   3  -4   1 2709.53  155.68
   4  -3  -1 2517.05  154.78
   3   1  -1 2560.04  153.68
  -3   4   1 2580.34  153.78
  -1   4  -1 2557.84  153.58
  -1   4  -1 2476.05  155.48
   4  -1   1 2586.04  154.98
   4  -1   1 2691.53  153.08
   3   1  -1 2601.84  154.38
  -1  -3   1 2536.65  153.98
   1  -4  -1 2487.15  154.58
   4  -1  -1 2363.56  153.88
   1  -4   1 2430.66  154.68
   4  -3   1 2269.97  154.18
   3   1   1 2276.37  154.78
   4  -1  -1 2332.97  152.98
   4  -3   1 2289.57  153.28
   3  -4  -1 2105.79  154.58
   1   3  -1 2154.38  153.88
   4  -3   1 2338.87  152.98
   4  -1  -1 2387.56  153.98
   4   0  -1 1702.63  103.49
   4   0  -1 1620.84  102.79
   4  -4  -1 1676.63  104.29
  -4   4   1 1599.14  104.09
   0   4  -1 1504.05  103.79
   0  -4   1 1703.83  103.59
   4  -4   1 1596.04  103.99
   0  -4  -1 1511.35  103.09
   4  -4   1 1535.75  105.69
  -4   0   1 1633.84  101.99
   4   0   1 1676.83  104.39
   2  -5  -1 1517.45  104.99
  -2   5  -1 1594.94  103.99
   5  -2   1 1550.44  103.29
  -2  -3   1 1487.45  103.49
   3   2  -1 1370.46  102.49
   5  -2   1 1546.15  104.79
   3  -5   1 1499.45  105.59
   5  -3  -1 1554.44  104.59
   3   2  -1 1569.54  104.69
   3   2  -1 1438.36  103.09
  -3  -2   1 1603.34  103.59
   3  -5  -1 1704.73  105.69
   5  -2  -1 1647.44  104.19
  -3   5  -1 1733.43  105.19
   2  -5   1 1827.22  105.79
   3   2   1 1705.43  105.49
   5  -3   1 1760.42  104.19
   5  -2  -1 1808.62  104.59
   5  -2  -1 1843.52  104.59
   2   3  -1 1671.43  103.79
   5  -2  -1 1743.63  102.99
  -1  -4   1 1541.35   97.89
  -4   5   1 1513.55   97.89
   4   1  -1 1559.94   98.49
   4   1  -1 1468.65   96.99
   4  -5   1 1549.34   99.29
   1  -5  -1 1481.95   98.59
   5  -4  -1 1485.25   98.69
   4  -5   1 1366.56  103.19
   5  -1   1 1475.15   96.09
   5  -1   1 1521.55   99.09
   5  -4   1 1582.24   97.79
   1   4  -1 1477.95   98.19
   4  -5  -1 1568.94   99.59
   5  -4   1 1578.44   98.59
   4   1   1 1602.24   99.59
   5  -1  -1 1570.14   98.29
   5  -4   1 1598.24   96.99
  -4   5  -1 1537.85   96.39
   1  -5   1 1511.65   98.69
   5  -1  -1 1438.06   97.49
   5   0   1  972.10   65.09
   5  -5   1  951.00   67.29
   0  -5   1  980.00   64.29
   5  -5   1  960.30   64.79
  -5   5  -1  992.50   62.19
   0   5  -1  928.01   61.29
   5   0  -1  948.11   62.89
  -5   5   1  913.41   64.99
  -5   0   1 1039.60   65.19
   5   0  -1  996.50   64.39
   5  -5  -1  935.31   64.99
  -3   6  -1  363.26   27.90
   3   3  -1  339.77   24.40
   3  -6   1  375.86   30.10
   6  -3   1  338.57   26.20
   6  -3   1  381.56   28.50
   6  -3  -1  364.96   27.40
   3  -6  -1  351.46   29.10
   3   3   1  347.07   29.10
   6  -3  -1  325.37   26.80
   3   3  -1  351.06   25.80
   6  -3  -1  378.56   27.90
  -3  -3   1  366.36   26.40
   6  -3  -1  346.77   25.60
  -3   6  -1  350.06   24.40
   4   2  -1 1094.69   69.69
   2  -6  -1 1049.30   69.99
  -2   6  -1 1019.40   65.89
   6  -2   1 1004.00   66.89
   6  -2   1 1081.59   69.99
   6  -4  -1 1012.60   69.19
  -2  -4   1  997.00   67.79
   6  -4  -1 1091.39   72.39
   4   2  -1  986.90   67.09
   4  -6   1 1028.80   70.09
   6  -2  -1 1060.09   68.39
  -4   6  -1 1012.20   66.29
  -4  -2   1 1034.40   69.19
  -4   6  -1  996.70   69.59
   4   2   1 1024.50   69.99
   6  -4   1 1071.69   68.59
   2  -6   1 1090.29   70.29
   6  -2  -1 1068.39   68.99
   2   4  -1  960.10   67.99
   2   4  -1 1015.30   65.99
   4  -6  -1 1081.79   70.49
   5  -6   1 2715.83  166.98
   6  -5  -1 2716.23  169.98
  -1   6  -1 2776.42  162.98
   5  -6   1 2783.62  170.88
   5   1  -1 2887.21  166.58
  -1  -5   1 2796.52  165.78
  -5   6   1 2799.72  165.28
   6  -1   1 2542.95  162.78
   5   1  -1 2645.64  164.18
  -5   6   1 2713.73  163.08
   6  -5  -1 2824.12  166.88
  -6   1   1 2740.43  164.28
   6  -1   1 2788.02  167.08
   6  -5   1 2316.37  165.68
   6  -1  -1 2283.17  164.38
   6  -5   1 2531.65  163.88
   1   5  -1 2349.56  162.78
   5   1   1 2403.66  166.78
   1  -6   1 2446.16  166.28
   6  -1  -1 2446.06  165.78
   6  -5   1 2430.86  164.48
   5  -6  -1 2464.25  166.88
  -5   6  -1 2446.56  163.38
   6  -6   1   17.80   12.10
   6  -6  -1   14.60    8.30
   0  -6   1   20.70    8.60
   6   0   1   17.70    9.00
  -6   6  -1   22.60    6.90
  -6   6   1   18.00    9.90
   0   6  -1   20.30    5.20
   6  -6   1   19.60    8.20
   6   0  -1   25.30    9.00
   6   0  -1   18.30    6.30
   4  -7   1 1635.94  103.59
  -3   7  -1 1702.03   98.59
   4   3  -1 1550.74   99.59
   3  -7  -1 1676.73  103.59
   7  -4  -1 1711.43   99.09
   7  -3   1 1659.73  102.99
   7  -4  -1 1703.23  102.09
   7  -3   1 1666.63  100.19
   3   4  -1 1343.57   99.59
   4   3   1 1478.15  102.99
   7  -4   1 1488.35  100.79
   4  -7  -1 1420.86  102.79
   3  -7   1 1523.35  103.69
   3   4  -1 1470.75   98.39
  -4   7  -1 1506.95   98.49
   7  -3  -1 1492.75  101.59
  -4   7  -1 1523.95  100.79
   7  -4   1 1418.66  101.99
   7  -3  -1 1503.55  101.19
   7  -5  -1  505.05   37.30
   5   2  -1  460.05   33.90
   7  -2   1  511.95   38.20
   5   2  -1  518.25   38.10
   7  -5  -1  513.55   40.30
  -2   7  -1  496.65   32.80
   5  -7   1  516.45   38.40
   7  -2   1  463.05   33.30
  -5   7  -1  483.95   33.50
   2   5  -1  481.35   33.00
   5  -7  -1  491.05   38.90
   5   2   1  497.35   38.30
   2  -7   1  488.55   38.70
   7  -2  -1  484.05   36.70
  -5   7  -1  487.25   38.00
   7  -5   1  518.05   36.50
   7  -2  -1  465.55   35.30
   6   1  -1 1223.88   81.99
  -6   7   1 1326.37   83.89
  -6   7   1 1313.37   81.39
  -1   7  -1 1281.97   80.89
   7  -6  -1 1344.97   89.29
  -7   6  -1 1282.27   82.19
   6  -7   1 1288.67   85.99
   7  -6  -1 1244.18   85.49
   6   1  -1 1249.57   85.19
   7  -1   1 1345.57   86.49
   6  -7   1 1342.37   89.59
   1   6  -1 1193.68   80.89
   1  -7   1 1273.57   85.79
   6   1   1 1289.47   86.59
   6  -7  -1 1204.98   85.99
   7  -1  -1 1233.78   84.89
   7  -6   1 1263.67   84.89
   7  -1  -1 1219.28   82.89
  -6   7  -1 1238.38   81.79
  -7   7  -1  304.57   23.00
   7   0   1  288.47   27.70
   7  -7   1  318.47   27.10
   7  -7  -1  269.07   26.80
   7  -7   1  312.67   28.80
   7   0  -1  277.17   26.60
  -7   7   1  281.17   27.30
   0   7  -1  281.37   21.20
   7   0  -1  256.27   22.00
  -7   7   1  294.67   22.20
  -4   8  -1 1599.84  101.29
   4  -8  -1 1529.95  106.59
   8  -4  -1 1536.45  104.99
   8  -4   1 1607.14  103.49
   4  -8   1 1573.24  106.89
   8  -4  -1 1663.33  104.89
   8  -4   1 1613.04  106.39
   8  -3   1  719.13   48.30
   5  -8   1  666.53   48.60
   8  -5  -1  686.33   46.10
   8  -3   1  672.13   43.30
   8  -5  -1  624.04   46.00
  -3   8  -1  640.04   41.70
   8  -3  -1  589.24   46.10
   8  -5   1  645.24   47.30
  -5   8  -1  594.04   44.40
   5   3   1  626.74   48.10
   3   5  -1  581.14   41.90
   5  -8  -1  612.14   48.50
   8  -5   1  676.83   45.50
   8  -3  -1  635.94   45.00
  -5   8  -1  576.64   42.00
   3  -8   1  596.14   48.20
   8  -6  -1  567.44   44.30
  -2   8  -1  533.25   39.00
   8  -6  -1  595.94   44.60
   6  -8   1  596.24   45.80
   8  -2   1  609.34   45.70
   8  -6  -1  628.24   44.80
  -6   8  -1  591.74   40.10
   2   6  -1  561.54   39.40
   8  -6   1  663.23   44.10
   8  -2  -1  583.74   44.20
   6  -8  -1  578.64   46.00
   8  -2  -1  616.84   42.10
   2  -8   1  583.64   46.50
  -6   8  -1  600.94   44.90
   6   2   1  609.24   46.20
   7  -8   1   94.29   18.60
   8  -7  -1   92.59   16.00
  -7   8   1   91.79   13.90
   8  -7  -1  110.19   19.20
  -1   8  -1   99.59   12.90
  -7   8   1   90.49   11.10
   8  -1   1   83.79   15.90
  -8   7  -1   89.69   12.60
  -1   8  -1   94.39   12.00
   7   1  -1   77.19   15.20
   7  -8   1   95.59   16.30
   1   7   1   96.79   10.90
   8  -7   1  117.39   15.80
   8  -1  -1  131.39   17.20
  -7   8  -1  118.69   14.10
   1   7  -1  116.59   11.60
   7  -8  -1  131.39   18.70
   8  -1  -1  109.49   12.70
   7   1   1  120.19   17.50
  -1   8   1  118.59   12.80
   8   0   1  619.74   46.00
   8  -8   1  726.23   49.70
  -8   8  -1  736.63   48.00
   8  -8   1  723.03   52.09
   0   8  -1  680.83   46.80
  -8   8   1  717.53   51.49
   0   8   1  694.93   45.70
  -8   8   1  686.33   47.10
   8  -8  -1  647.14   52.09
   8  -8   1  692.93   48.30
   8   0   1  745.03   54.39
   8   0  -1  626.24   51.19
   9  -5  -1  720.03   55.49
   9  -4   1  779.12   52.79
   4   5   1  779.02   49.40
  -4   9  -1  755.02   50.49
  -5   9   1  699.13   53.09
   9  -4   1  814.42   57.59
   5  -9   1  822.82   58.69
   9  -5  -1  819.12   55.39
   9  -5   1  846.42   57.79
   9  -5   1  827.92   54.09
   9  -4  -1  756.02   54.29
  -5   9  -1  784.42   50.99
   4  -9   1  732.33   57.59
   9  -4  -1  713.03   55.49
  -4   9   1  691.93   51.99
   5  -9  -1  769.32   58.19
   5   4   1  773.12   49.20
   3   6   1 1019.90   68.29
   3   6   1  973.70   64.39
   9  -6  -1  951.40   70.59
  -3   9  -1  911.91   67.09
   6  -9   1 1097.29   73.89
   9  -3   1 1068.79   72.59
   9  -6  -1 1022.30   70.89
   6   3  -1 1015.50   72.49
   9  -3  -1 1031.20   68.99
   6   3   1 1047.00   66.99
   3  -9   1  893.41   72.39
  -6   9  -1 1052.89   66.29
   9  -6   1 1062.59   70.19
   9  -6   1 1067.99   72.49
   6  -9  -1  999.60   73.09
  -3   9   1 1002.70   66.79
   9  -3  -1  967.40   70.89
   3   6  -1 1017.30   66.19
   6   3   1 1038.40   63.99
   9  -2   1  543.05   43.10
  -9   7  -1  557.64   38.10
   7   2  -1  553.84   41.20
   2   7   1  551.24   40.00
   9  -7  -1  545.35   41.60
  -2   9  -1  513.65   36.70
   2   7   1  580.94   35.40
   7   2  -1  557.44   37.50
   2   7   1  519.75   34.20
   7   2  -1  542.05   39.20
   7  -9   1  569.24   43.80
   7   2   1  477.75   43.00
   7   2   1  469.65   39.90
  -2   9   1  454.65   35.80
   7   2   1  482.65   33.40
   9  -2  -1  437.86   37.20
   7   2   1  502.85   34.60
   9  -7   1  479.65   39.90
  -7   9  -1  499.45   41.40
   7  -9  -1  492.25   43.70
  -7   9  -1  474.15   36.30
   9  -2  -1  413.26   40.30
   1   8   1  149.88   14.40
   1   8   1  141.39   14.80
   8   1  -1  144.29   15.30
   9  -1   1  140.09   13.60
  -1   9  -1  128.49   16.40
   9  -8  -1  139.69   21.00
   8  -9   1  135.69   21.50
   9  -1   1  147.09   21.50
   1   8   1  142.39   19.10
  -9   8  -1  161.98   18.70
   1   8   1  142.29   14.30
   8   1  -1  144.29   18.00
   9  -8  -1  120.59   19.90
   9  -1   1  146.29   15.10
   8   1  -1  136.89   20.80
   8  -9   1  140.39   20.70
   9  -1  -1  177.18   18.60
  -1   9   1  153.28   16.70
  -8   9  -1  166.38   22.40
  -1   9   1  168.68   15.70
   8   1   1  165.78   22.50
   9  -8   1  157.68   20.80
   8   1   1  157.68   22.00
   8  -9  -1  169.98   23.30
   1   8  -1  146.09   15.80
   9  -1  -1  151.98   21.20
  -8   9  -1  166.88   17.60
   8   1   1  164.48   14.40
   8   1   1  167.98   12.80
  -9   8   1  158.68   22.50
  -9   8   1  152.18   17.80
   9  -9  -1   38.90   15.10
   9   0   1   48.30    8.70
   0   9   1   48.90    8.60
   9   0   1   42.00   14.90
  -9   9   1   55.29   13.70
   9   0  -1   47.70   12.70
   0   9  -1   45.90    9.60
  -9   9   1   51.39   10.60
   9   0   1   63.79   13.70
   0   9   1   46.20    8.40
   9   0   1   52.29    7.10
   9  -9   1   48.50   15.00
   0   9   1   47.80    9.30
  -9   9  -1   42.20   10.80
   9  -9  -1   64.39   18.70
   9   0  -1   54.19    9.80
   5   5   1 2237.18  140.99
  10  -5  -1 2249.57  147.09
   5   5  -1 2328.67  143.59
  10  -5   1 2269.97  150.18
   5   5  -1 2217.78  145.19
   5   5  -1 2279.07  142.19
   5   5   1 2417.06  142.29
   5 -10   1 2212.38  150.78
  -5  10   1 2080.59  144.09
  10  -5  -1 2128.89  148.59
  10  -5   1 2289.67  145.69
   5   5   1 2244.68  140.99
   5   5   1 2249.38  145.39
   5   5  -1 2297.67  144.39
   4   6   1  519.65   34.00
  -4  10  -1  524.05   38.90
   6 -10   1  546.55   46.20
   6   4  -1  574.54   37.10
   4   6   1  523.55   34.30
   4   6   1  564.34   35.40
  10  -4   1  514.15   44.40
   4   6   1  513.55   39.60
   6   4  -1  537.65   35.30
   6   4  -1  543.75   38.80
  10  -6  -1  500.95   42.90
  10  -6  -1  584.64   42.50
  -6  10   1  490.15   39.30
   6   4  -1  541.35   39.60
   6 -10  -1  536.75   46.10
   6   4   1  495.85   34.00
   6   4   1  515.95   40.10
   6   4   1  533.45   35.20
   4   6  -1  486.55   38.20
   6   4   1  516.05   33.90
   4   6  -1  523.45   37.00
  10  -4  -1  507.95   40.30
  10  -6   1  506.15   40.70
   4   6  -1  506.55   38.70
   4   6  -1  488.45   39.00
  10  -6   1  500.05   44.10
  -4  10   1  489.45   38.00
  -6  10  -1  518.85   36.80
   3   7   1 1784.02  118.59
   7 -10   1 1858.91  128.49
  10  -3   1 1804.12  121.69
   3   7   1 1930.81  120.09
   3   7   1 1816.22  118.89
  -3  10  -1 1714.53  121.39
 -10   7  -1 1808.92  122.29
  10  -7  -1 1779.22  126.29
  10  -7  -1 1866.31  126.19
   7   3  -1 1844.82  119.99
  10  -3   1 1765.22  127.49
   7   3  -1 1833.02  120.89
   7   3  -1 1746.33  122.59
   3   7   1 1791.82  122.39
  10  -7   1 1986.20  125.49
   3   7  -1 2062.29  122.69
   3   7  -1 1975.80  121.29
  10  -3  -1 1958.20  123.29
   7   3   1 1935.31  123.49
   7   3   1 2067.69  119.99
  -7  10  -1 1947.11  120.99
  -3  10   1 1934.11  121.29
   7   3   1 1995.70  118.49
   3   7  -1 1895.51  122.09
  10  -7   1 2056.69  128.99
   7 -10  -1 1947.71  129.19
   7   3   1 1945.21  118.79
   8   2  -1  964.20   68.69
   8   2  -1 1019.10   66.69
 -10   8  -1 1043.10   68.49
   2   8   1 1010.60   68.39
   8 -10   1 1067.29   74.79
  -2  10  -1  951.50   66.99
   2   8   1 1030.10   65.79
   2   8   1  963.90   65.89
  10  -8  -1 1104.29   73.19
   8 -10   1 1082.19   75.09
  10  -2   1 1010.30   74.39
  10  -8  -1 1005.60   72.89
  10  -2   1 1000.30   67.09
   2   8   1 1013.50   64.79
   8   2   1  955.40   69.29
  10  -8   1  977.20   71.79
   8   2   1 1059.49   64.09
 -10   8   1  957.60   67.49
  -2  10   1  996.70   68.09
  10  -2  -1  962.90   69.09
   8   2   1  977.80   64.49
   8   2   1 1033.80   65.79
  -8  10  -1 1006.50   67.19
  -8  10  -1 1076.49   69.09
   8 -10  -1  958.80   74.59
   8   2   1 1033.30   74.99
  10  -8   1 1061.69   74.69
  -2  10   1  996.50   66.49
   2   8  -1  982.60   66.99
 -10   9  -1 1051.79   73.29
  -1  10  -1 1042.10   72.09
  10  -1   1 1064.89   70.09
   9 -10   1 1039.50   78.89
   9   1  -1  988.50   73.69
  10  -1   1  997.30   79.79
  10  -9  -1 1042.10   78.39
   1   9   1 1023.00   73.79
  10  -1   1 1022.20   71.79
   1   9   1 1043.10   71.29
   1   9   1 1069.59   70.29
   9   1  -1 1047.00   71.99
  -9  10  -1 1206.18   77.79
   9 -10  -1 1164.98   80.79
  -1  10   1 1151.98   71.39
  -9  10  -1 1101.89   72.59
 -10   9   1 1086.49   72.49
 -10   9   1 1116.49   77.39
  -1  10   1 1109.09   71.19
   9   1   1 1091.29   69.89
   9   1   1 1133.89   71.39
   9   1   1 1112.69   80.89
  10  -9   1 1133.49   78.39
  -1  10   1 1107.29   72.69
   9   1   1 1140.79   74.59
   1   9  -1 1075.19   72.49
   9   1   1 1185.28   69.49
  10  -1  -1 1108.09   72.59
  10  -1  -1 1131.09   74.39
  10   0   1   78.49   10.10
  10 -10  -1   91.39   16.60
   0  10  -1   64.89   11.60
   0  10   1   67.39   10.90
  10   0  -1   71.49   11.60
  10   0  -1   90.09   15.10
 -10  10  -1   74.79   13.20
 -10  10  -1   63.19   19.90
   0  10   1   72.89   10.10
  10   0   1   84.59   12.70
  10   0   1   81.49   14.60
   6   5  -1  394.26   35.80
  11  -6  -1  394.76   37.20
   6   5  -1  414.26   31.30
   6   5  -1  417.66   32.70
  11  -5   1  388.16   40.30
   5   6   1  413.26   36.00
  -6  11   1  388.96   35.30
   6   5  -1  408.86   35.00
   6 -11   1  418.56   42.20
   5   6   1  418.76   31.20
   5   6  -1  502.35   36.40
   5   6  -1  495.15   35.20
  -5  11   1  473.45   35.40
   5   6  -1  512.05   33.50
  11  -5  -1  488.45   37.80
  11  -6   1  505.55   42.90
   6   5   1  538.25   31.70
   5   6  -1  483.35   31.60
   6   5   1  473.55   36.90
 -11   7  -1  461.15   36.50
   7 -11   1  510.75   44.50
  11  -4   1  473.45   43.10
   4   7   1  469.55   31.80
  11  -7  -1  380.46   38.30
  11  -4   1  446.16   34.50
   4   7   1  464.55   30.30
   4   7   1  435.56   36.20
   7   4  -1  445.26   36.50
  -4  11  -1  444.56   35.30
   7   4  -1  446.16   33.00
   4   7   1  447.86   29.70
   7   4  -1  439.26   31.40
   4   7  -1  464.85   31.90
   4   7  -1  466.35   35.10
   7   4   1  441.56   37.10
   4   7  -1  444.66   35.50
   7   4   1  472.35   31.60
  11  -7   1  442.36   37.80
   4   7  -1  459.35   33.40
  -4  11   1  472.45   34.90
  11  -7   1  457.65   42.00
 -11   8  -1  255.57   25.10
   8   3  -1  212.58   24.60
   8 -11   1  222.78   29.40
   8   3  -1  220.28   18.20
   3   8   1  216.88   24.30
  11  -3   1  216.38   21.20
   8   3  -1  229.28   20.00
  -3  11  -1  220.88   22.80
   3   8   1  230.68   18.90
   3   8   1  238.68   17.70
   3   8   1  219.78   16.70
  11  -8  -1  220.78   27.40
   8 -11  -1  339.47   34.20
  11  -8   1  344.37   28.10
 -11   9  -1  158.48   18.70
   2   9   1  148.59   13.30
  -2  11  -1  139.19   19.20
   9   2  -1  141.79   16.40
   9 -11   1  128.79   19.20
   2   9   1  154.18   15.60
   9   2  -1  134.49   15.20
   2   9   1  152.58   14.90
  11  -2   1  150.58   15.10
   9   2  -1  137.89   18.70
  11  -2   1  147.39   17.20
   2   9   1  145.39   20.70
 -11   9   1  178.28   20.20
  -2  11   1  179.48   18.40
   9   2   1  180.08   13.70
  -9  11  -1  173.88   18.50
   9   2   1  188.08   15.90
   2   9  -1  167.18   16.80
  11  -2  -1  192.18   21.60
  -2  11   1  178.18   18.80
 -11   9   1  147.99   24.30
   9   2   1  175.38   12.80
   2   9  -1  143.39   18.30
   9   2   1  175.18   22.10
   1  10   1  515.65   36.90
  11  -1   1  525.35   37.80
  10   1  -1  529.35   41.10
   1  10   1  479.15   35.20
  10   1  -1  569.34   36.30
 -11  10  -1  546.75   39.80
  10   1  -1  509.85   37.70
   1  10   1  551.84   35.80
  11  -1   1  535.55   35.30
  10   1   1  536.65   37.20
  11  -1  -1  504.35   40.20
  11  -1  -1  471.35   37.90
  10   1   1  502.35   34.80
  10   1   1  559.54   34.50
  10   1   1  496.25   40.50
  -1  11   1  501.25   37.90
 -10  11  -1  533.55   39.20
  -1  11   1  527.95   37.50
  10 -11  -1  569.94   44.70
   1  10  -1  473.95   37.80
  -1  11   1  519.65   36.70
  11   0  -1  218.08   21.40
   0  11  -1  236.48   22.00
   0  11   1  235.48   20.60
  11   0  -1  230.68   25.00
  11   0   1  235.98   18.90
   0  11   1  244.58   19.80
 -11  11  -1  220.88   23.90
  11   0   1  265.47   18.10
  11   0   1  231.18   25.10
  11   0   1  233.98   20.80
  11   0  -1  242.58   20.00
   6   6  -1  497.65   34.50
  -6  12   1  477.55   38.60
 -12   6  -1  548.55   40.30
   6   6   1  511.25   34.70
   6   6  -1  497.75   36.20
   6   6  -1  505.65   39.30
   6   6   1  492.35   40.20
 -12   7  -1  531.45   41.20
   7   5  -1  493.85   35.30
   7   5  -1  521.85   40.70
   7   5  -1  498.95   36.90
  -7  12   1  469.95   39.90
   5   7   1  534.05   40.70
   5   7   1  529.75   35.70
  -5  12  -1  449.26   39.00
   7   5   1  556.54   35.70
  -5  12   1  505.55   38.90
   5   7  -1  527.95   35.50
   5   7  -1  532.35   39.90
   7   5   1  550.74   41.30
   5   7  -1  522.55   37.10
   8   4  -1  130.29   17.00
   4   8   1  144.39   20.40
  12  -4   1  119.99   15.20
  -4  12  -1  120.89   15.10
   8   4  -1  129.19   13.70
 -12   8  -1  162.08   18.00
   8   4   1   92.19   12.10
   4   8  -1   88.09   10.50
 -12   8   1   86.69   14.90
   8   4   1   75.99   15.50
   4   8  -1   73.89   11.60
   4   8  -1   75.79   14.10
  -4  12   1   98.39   13.80
 -12   8   1   53.29   18.10
 -12   9  -1  301.47   27.40
   3   9   1  300.97   26.90
   3   9   1  290.67   21.60
   9   3  -1  281.67   21.00
   9   3  -1  281.57   22.80
  12  -3   1  261.97   23.70
  -3  12  -1  257.87   25.60
   9 -12   1  274.87   28.80
  12  -3   1  299.27   21.80
   9   3  -1  276.37   27.70
   9   3   1  259.47   27.60
 -12   9   1  248.28   25.60
   3   9  -1  261.17   21.40
  -3  12   1  271.47   24.50
 -12   9   1  190.18   29.00
   9   3   1  268.27   21.50
  -3  12   1  261.87   24.80
   3   9  -1  246.88   22.70
   2  10   1  236.58   16.00
  10   2  -1  221.18   24.00
  12  -2   1  217.18   17.30
 -12  10  -1  240.48   24.00
  10   2  -1  216.48   17.20
  10   2  -1  217.98   19.30
  12  -2   1  199.08   19.80
   2  10   1  223.88   18.00
   2  10   1  218.28   15.20
   2  10   1  210.38   23.20
  10   2   1  169.38   23.50
  12  -2  -1  171.88   26.80
   2  10  -1  166.78   18.70
   2  10  -1  180.88   18.30
  -2  12   1  169.18   19.80
 -12  10   1  160.78   22.20
  -2  12   1  189.58   20.80
  -2  12   1  187.78   19.40
  10   2   1  183.28   17.90
 -12  11  -1  227.88   23.60
  12  -1   1  237.98   18.80
  11   1  -1  217.18   21.00
  11   1  -1  209.98   24.40
  12  -1   1  209.08   20.70
  11   1  -1  220.98   19.00
   1  11   1  215.98   20.00
   1  11   1  218.98   18.00
   1  11   1  219.68   17.30
  12  -1   1  217.68   17.80
  12  -1  -1  254.97   21.80
  12  -1  -1  254.37   24.30
   1  11  -1  266.97   20.40
  11   1   1  243.78   25.20
  -1  12   1  256.17   20.00
  12  -1  -1  271.77   22.10
  11   1   1  247.98   20.30
  -1  12   1  247.38   21.10
   1  11  -1  245.18   21.10
  12   0   1    4.30   10.10
 -12  12  -1    8.90   12.10
   0  12  -1    4.10    7.70
   0  12  -1    3.10    7.50
  12   0  -1    5.40   10.10
  12   0  -1    5.60    8.10
   0  12   1    3.50    5.00
  12   0   1    8.00    7.50
  12   0  -1    4.20    6.10
   0  12   1    3.00    7.40
   0  12   1    3.40    6.10
   6   7   1  571.04   40.80
  -7  13   1  578.74   45.20
   7   6  -1  585.84   45.40
   7   6  -1  556.74   40.50
   7   6  -1  527.25   42.00
   7   6  -1  588.84   40.50
 -13   7  -1  628.44   46.70
   6   7   1  615.14   46.00
   6   7  -1  609.14   40.80
  -6  13   1  676.03   45.30
   6   7  -1  629.14   40.70
   7   6   1  654.73   41.20
   6   7  -1  622.44   42.70
 -13   6  -1  700.73   47.00
   6   7  -1  647.04   45.50
   7   6   1  644.84   46.40
  -5  13  -1   69.09   13.20
   8   5  -1   68.89   13.60
   8   5  -1   69.09   10.20
   5   8   1   72.69   10.00
 -13   8  -1   68.49   14.40
   8   5  -1   57.89    7.70
   5   8   1   67.09   13.50
   8   5  -1   61.99    8.00
   5   8  -1   43.70    7.70
   5   8  -1   51.19   12.20
 -13   5  -1   55.99   14.60
   5   8  -1   51.79    9.60
   5   8  -1   54.09    9.60
   8   5   1   46.50    8.00
   8   5   1   52.19   13.30
  -5  13   1   47.10   12.10
 -13   8   1   33.60   12.50
  13  -4   1  408.76   35.80
   4   9   1  413.66   34.70
   9   4  -1  407.26   29.10
  13  -4   1  381.16   32.30
  -4  13  -1  468.05   34.60
   9   4  -1  406.46   31.30
   9   4  -1  432.56   35.10
 -13   9  -1  437.26   35.30
   4   9   1  412.26   29.80
   9   4  -1  410.76   29.40
   9   4   1  429.66   29.90
   4   9  -1  419.86   31.40
   9   4   1  427.36   35.30
 -13   9   1  429.26   34.10
   4   9  -1  414.56   33.50
   4   9  -1  433.96   29.60
  -4  13   1  497.85   33.90
  10   3  -1  407.96   30.60
   3  10   1  389.96   33.10
   3  10   1  417.06   29.30
 -13  10  -1  367.46   33.10
  10   3  -1  399.86   33.70
  13  -3   1  381.56   31.20
  13  -3   1  396.46   28.80
  10   3  -1  398.06   28.60
  10   3  -1  409.46   28.30
  -3  13   1  483.55   32.50
   3  10  -1  400.36   28.70
  10   3   1  419.96   29.30
 -13  10   1  405.76   32.80
  -3  13   1  423.06   31.50
  10   3   1  416.76   34.00
  -3  13   1  418.46   31.90
   3  10  -1  411.46   30.60
  11   2  -1   29.10    8.80
  13  -2   1   28.90    6.20
  13  -2   1   29.00    8.90
   2  11   1   32.10    7.70
  11   2  -1   28.00   11.30
  11   2  -1   30.70    6.80
  11   2  -1   30.90    6.40
 -13  11  -1   21.90   14.50
  13  -2   1   39.50    6.80
  13  -2  -1   31.20   11.80
   2  11  -1   33.30    8.90
  -2  13   1   31.50    9.40
  11   2   1   36.70   11.60
  11   2   1   24.70    7.20
   2  11  -1   30.40    7.50
  13  -2  -1   27.80    9.10
  -2  13   1   29.50    8.30
  13  -1   1  466.05   31.90
   1  12   1  464.35   31.10
  12   1  -1  484.95   34.60
  -1  13  -1  452.05   31.40
  12   1  -1  469.95   29.60
  12   1  -1  458.45   30.00
  -1  13  -1  447.46   32.70
  12   1  -1  479.25   32.60
  13  -1  -1  408.46   30.20
  13  -1  -1  425.06   32.60
   1  12  -1  402.26   30.30
  12   1   1  441.16   34.10
  -1  13   1  426.66   29.70
  -1  13   1  425.36   32.00
  -1  13   1  402.56   29.20
   1  12  -1  408.16   32.20
  12   1   1  399.26   30.70
  13  -1  -1  442.76   33.80
  13   0  -1  223.88   20.70
  13   0  -1  207.18   15.90
   0  13  -1  205.08   18.60
  13   0   1  200.68   17.20
  13   0  -1  211.58   18.60
   0  13   1  210.68   17.40
   0  13  -1  207.58   17.00
  13   0  -1  211.98   16.20
   7   7  -1  186.98   21.20
   7   7   1  166.48   22.40
  -7  14   1  214.58   23.30
   7   7  -1  168.48   16.90
 -14   7   1  183.18   22.60
 -14   7  -1  215.28   23.00
   8   6  -1  148.09   15.60
  -8  14   1  148.79   17.90
   6   8   1  155.08   21.00
  -6  14  -1  166.28   22.40
   8   6  -1  141.49   20.40
 -14   8  -1  156.58   20.10
   8   6   1  156.08   21.80
  -6  14   1  164.68   21.20
 -14   6  -1  166.78   21.00
 -14   8   1  142.69   23.40
   6   8  -1  157.88   19.40
   6   8  -1  161.38   15.70
   5   9   1  275.07   23.40
  14  -5   1  257.67   20.10
   9   5   1  157.08   22.10
   5   9  -1  145.69   20.30
  -5  14   1  186.68   21.80
   5   9  -1  177.68   14.80
   5   9  -1  166.38   16.90
  10   4  -1  339.47   26.60
  10   4  -1  350.16   30.20
  14  -4   1  350.36   25.40
  14  -4   1  339.47   27.90
   4  10   1  334.47   24.90
   4  10   1  345.27   29.70
   4  10  -1  368.06   24.30
  -4  14   1  345.77   31.70
  -4  14   1  339.67   28.60
   4  10  -1  377.36   24.20
  10   4   1  377.86   30.70
  -4  14   1  420.56   28.90
   4  10  -1  360.06   26.90
  14  -3   1  114.19   13.20
   3  11  -1   70.19    8.70
  -3  14   1   70.99   11.20
  -3  14   1   70.09    9.40
   3  11  -1   69.69    8.90
  14  -3  -1   74.59    9.50
  11   3   1   83.49   13.10
   3  11  -1   61.09    9.90
  11   3   1   69.99    8.90
  -2  14  -1  186.88   16.10
  14  -2   1  174.78   16.40
   2  12   1  181.78   14.50
  12   2  -1  177.28   16.20
  12   2  -1  208.28   19.80
  -2  14   1  177.88   13.70
  12   2   1  150.18   13.80
  -2  14   1  185.48   14.20
   2  12  -1  162.98   15.90
  14  -2  -1  189.28   15.10
  12   2   1  199.78   19.40
  14  -2  -1  165.18   16.60
  -2  14   1  183.88   16.80
  13   1  -1   95.09   11.30
  14  -1   1   96.59   10.70
  13   1  -1   96.19   14.10
  -1  14  -1   79.89   10.40
   1  13   1   93.09    9.50
  -1  14  -1  102.29   10.70
  -1  14  -1   94.89   12.00
  14  -1  -1   82.69   11.30
   1  13  -1   81.79   11.00
  -1  14   1   81.39   10.40
   0  14   1    4.50    4.30
   0  14  -1    0.90    6.10
  14   0  -1    2.30    5.10
   8   7  -1  223.38   22.10
   7   8   1  223.08   23.20
   8   7  -1  222.98   17.80
  -8  15   1  238.98   23.70
   7   8  -1  198.08   21.60
   8   7   1  220.18   23.20
  -7  15   1  234.48   23.00
   7   8  -1  201.48   17.50
   9   6  -1    8.80    6.30
  15  -6   1   10.40    6.10
   9   6  -1    6.20    9.30
   6   9   1    7.20   10.00
   6   9  -1    2.50    5.80
  -6  15   1   11.30    9.30
   9   6   1   16.60   10.10
   6   9  -1   10.20    8.70
  15  -5   1  122.69   12.20
   5  10   1  120.29   17.30
  15  -5   1  106.29   14.20
  10   5  -1  115.39   17.20
  10   5  -1  122.29   12.60
  10   5   1  163.38   18.10
   5  10  -1  145.99   12.90
  -5  15   1  165.08   14.60
  11   4  -1  248.88   18.70
  15  -4   1  253.17   20.20
  11   4  -1  282.77   22.20
   4  11  -1  224.18   18.50
  -4  15   1  229.38   20.20
  15  -4  -1  246.28   18.90
  11   4   1  253.67   22.30
  -4  15   1  235.78   18.60
  -3  15  -1   28.90    6.50
  12   3  -1   24.50    6.00
  12   3  -1   27.90    8.50
  15  -3   1   23.30    6.70
  15  -3  -1   20.00    7.00
  12   3   1   21.10    8.60
   3  12  -1   25.70    6.20
  -3  15   1   21.00    6.70
  15  -3  -1   24.90    6.10
  15  -3  -1   27.40    4.90
  15  -2   1   26.00    5.20
  13   2  -1   29.10    5.20
  -2  15   1   25.20    6.80
   2  13  -1   20.50    5.80
   8   8   1  713.53   48.00
   8   8  -1  700.63   47.70
   7   9   1  593.04   39.80
   9   7  -1  579.54   39.60
   9   7   1  560.24   39.80
   7   9  -1  552.34   43.70
  10   6  -1  139.09   14.70
  16  -6   1  116.89   11.00
  11   5  -1  239.18   22.80
   0   0  -2 4822.92  292.87
   0   0   2 4879.91  292.77
   0   0   2 4476.75  291.97
   0   0   2 4605.14  292.57
   0  -1   2  196.98   14.40
  -1   1   2  169.98   13.80
   1  -1   2  194.58   14.20
   0   1  -2  176.48   14.20
   0   1   2  188.98   13.10
   0  -1   2  178.48   13.70
   1  -1  -2  182.78   14.50
  -1   0   2  184.28   14.20
  -1   0   2  168.58   13.50
   1   0   2  177.78   13.10
   1   0   2  173.28   13.70
   0   1   2  182.08   13.70
   1   0   2  179.38   13.80
   0   1   2  171.58   13.50
   1   0  -2  186.08   14.40
  -1   1   2  175.18   14.10
  -1   1  -2  197.48   14.30
   1  -1   2  179.28   14.00
   2  -1   2   50.89    6.90
  -2   1  -2   69.89    7.80
  -2   1   2   63.79    7.60
   2  -1  -2   60.99    8.30
   1  -2   2   61.89    7.80
  -1  -1   2   66.09    7.00
   1  -2  -2   60.39    7.50
  -1   2  -2   65.49    8.20
   2  -1   2   53.49    7.50
   1   1   2   65.09    7.10
   1   1   2   72.09    8.30
   1  -2   2   54.89    7.70
   2  -1   2   46.00    7.50
  -1   2   2   54.79    7.30
  -1  -1   2   65.99    7.90
   1   1  -2   66.59    8.00
  -2   2   2 3919.71  253.97
   0  -2   2 4433.56  254.37
   2  -2   2 4090.09  254.17
  -2   0   2 4305.17  254.47
   2  -2   2 4003.70  253.07
   2   0   2 4027.10  254.37
   2  -2  -2 3800.92  254.17
   2  -2   2 3980.90  254.07
  -2   2   2 4033.50  253.47
   0   2   2 3859.21  253.27
   2   0   2 3900.51  253.37
   0   2   2 4073.59  252.57
  -2   2  -2 3988.40  254.57
   2  -2   2 4013.90  253.07
   0  -2   2 4222.18  253.67
   0   2  -2 4120.49  254.47
   2   0  -2 4315.57  254.37
  -2   0   2 3998.60  253.47
   2   1  -2 3012.70  198.68
   3  -2  -2 3214.78  199.18
   3  -1   2 3123.19  199.08
  -1  -2   2 3062.59  197.68
  -3   2  -2 2836.02  199.08
   3  -1   2 2961.10  197.48
  -1  -2   2 3138.49  198.78
   1  -3  -2 2679.73  198.28
   3  -1   2 2997.80  198.48
  -3   1   2 3057.59  198.28
  -1   3  -2 3003.50  199.38
   1   2   2 3033.00  198.98
   2  -3   2 3084.49  199.08
   2  -3   2 3156.28  198.98
  -2   3   2 3051.89  198.78
   2  -3   2 2794.52  199.98
   3  -2   2 3319.27  199.18
  -2  -1   2 3293.97  197.68
  -2   3  -2 3374.36  199.98
   2   1   2 3304.67  199.28
  -1   3   2 3357.36  198.28
   3  -1  -2 3377.46  197.48
  -3   2   2 3390.96  199.08
   1   2  -2 3402.36  199.08
   2  -3  -2 3223.18  199.08
  -2  -1   2 3523.15  198.98
   3  -2   2 3237.78  198.58
   3  -1  -2 3422.86  199.28
  -3   1  -2 3029.40  198.58
   1  -3   2 3413.56  198.68
  -3   3   2 8857.61  540.25
  -3   0   2 8958.80  539.85
   3  -3   2 8287.37  539.45
   0  -3   2 8977.10  540.05
  -3   3   2 8092.79  540.55
   3  -3  -2 8795.12  541.25
   3   0   2 8612.14  541.15
   3  -3   2 8866.21  541.25
   3   0  -2 8290.27  539.45
  -3   3  -2 8377.16  541.75
   3  -3   2 8753.22  539.85
   0   3  -2 8707.13  540.95
   0   3  -2 8658.93  541.15
   0  -3   2 9086.79  540.95
   3   0   2 8358.96  539.85
   3  -3   2 8736.63  541.45
   0   3   2 8716.83  539.55
   3   0  -2 8953.50  540.85
  -2   4   2  382.86   28.70
   4  -2   2  399.76   27.20
   2  -4   2  386.96   29.60
  -2  -2   2  386.16   28.10
   2   2   2  401.46   29.30
   4  -2  -2  400.76   26.70
   2  -4   2  422.66   29.40
   2   2  -2  359.96   27.90
   2  -4  -2  350.56   28.90
  -2  -2   2  390.56   26.40
   4  -2   2  406.66   28.90
   4  -2  -2  408.16   28.80
  -2   4  -2  406.26   30.70
  -4   2   2  395.16   28.90
   2   2  -2  362.96   29.20
   1  -4  -2  211.18   17.20
   3  -4  -2  155.38   16.90
   3   1   2  152.58   13.80
   1  -4   2  155.78   16.10
   3   1   2  167.78   16.80
  -3  -1   2  163.58   12.90
   1  -4   2  186.38   16.30
   4  -1  -2  184.48   15.90
   1   3  -2  186.28   16.10
   4  -1  -2  162.48   13.70
  -3  -1   2  175.28   15.40
   4  -3   2  164.28   15.30
  -1   4   2  156.08   14.40
  -4   3   2  155.48   17.00
  -4   4   2 6054.39  371.56
   4  -4   2 5843.12  371.06
   4  -4   2 5862.81  370.66
   4   0   2 5979.80  372.86
   4  -4  -2 5921.31  372.86
   4   0  -2 5996.00  370.76
   0  -4   2 5793.22  371.16
   0   4  -2 5848.61  369.96
   4   0  -2 5853.31  371.06
   0   4   2 5777.52  370.16
  -4   0   2 5917.81  370.66
  -4   4  -2 5817.92  370.26
   0   4  -2 5986.80  372.66
   0  -4   2 6299.57  372.36
   4   0  -2 5871.11  371.86
   4  -4   2 6232.98  372.56
   3   2  -2   55.79    8.80
   2   3   2   65.19   11.00
  -5   2   2   62.69   10.00
   5  -2   2   64.29    7.70
   3  -5   2   68.79   11.80
   3   2  -2   58.09    7.60
   2  -5  -2   67.19   11.90
  -2   5  -2   66.99    8.40
  -2   5  -2   63.89   11.70
   3  -5   2   70.49   18.80
   5  -3  -2   69.79   10.70
   5  -2   2   57.09   10.50
  -2  -3   2   57.39    8.70
  -2   5  -2   76.19   12.70
  -2   5   2   42.60    9.30
   3   2   2   50.39   10.20
   5  -2  -2   57.89    8.40
   2   3  -2   56.09    9.40
   5  -2  -2   60.49   10.40
   2  -5   2   65.99   11.40
  -3  -2   2   58.79    8.90
   5  -3   2   59.19    8.80
   3  -5  -2   64.19   11.60
  -3  -2   2   63.59    9.10
  -3   5  -2   71.99    7.90
   2   3  -2   51.19    6.70
   4   1  -2  646.34   43.90
  -1   5  -2  628.64   41.80
  -1  -4   2  629.54   43.30
  -1  -4   2  684.03   44.50
  -1   5  -2  650.13   46.10
   4   1  -2  644.84   43.90
   4  -5   2  702.63   46.30
   4   1  -2  645.34   41.90
   4  -5   2  666.63   48.70
   5  -4  -2  683.43   45.70
  -5   1   2  682.23   43.40
   5  -1   2  667.83   45.80
  -5   4  -2  655.33   42.70
  -4  -1   2  591.84   41.80
   4   1   2  636.74   45.70
   1  -5   2  635.54   45.10
  -4  -1   2  643.94   44.40
   5  -1  -2  624.44   44.20
   5  -4   2  632.04   44.30
  -1   5   2  630.44   42.80
  -4   5  -2  636.54   42.20
  -5   4   2  627.14   45.40
   4  -5  -2  627.94   46.10
   1   4  -2  628.04   41.80
   5  -1  -2  645.64   43.30
   1   4  -2  636.94   44.80
   5  -1  -2  610.64   43.20
   5  -5  -2  302.07   25.70
   5  -5   2  315.27   24.50
   5   0  -2  284.27   22.80
  -5   5   2  286.57   24.40
   0   5  -2  277.97   25.20
  -5   5  -2  290.97   21.30
   0  -5   2  305.07   24.00
   5   0   2  270.87   24.80
   0   5  -2  276.37   20.50
   5  -5   2  281.87   23.80
   5   0  -2  276.37   22.90
   5  -5   2  306.47   22.40
  -5   0   2  291.57   21.20
   6  -3  -2 1832.02  114.99
   3  -6  -2 1814.92  118.09
  -6   3   2 1784.42  116.69
   6  -3   2 1777.72  116.79
  -3   6  -2 1810.92  113.19
   6  -3  -2 1868.61  116.39
  -3   6  -2 1839.82  116.69
   3   3   2 1776.32  117.09
   3  -6   2 1821.12  117.49
   3   3  -2 1741.93  112.99
   6  -3   2 1746.33  114.19
  -3  -3   2 1744.13  115.49
   3   3  -2 1722.83  115.19
  -2  -4   2 1752.12  115.19
  -6   4  -2 1637.24  113.39
  -6   2   2 1791.12  115.09
   6  -4  -2 1715.13  115.89
   6  -2   2 1710.23  116.59
   4   2  -2 1712.03  112.89
  -2   6  -2 1713.93  114.49
   4   2  -2 1558.94  114.29
  -2   6  -2 1733.93  112.69
   4  -6   2 1646.74  116.89
   4  -6   2 1580.84  128.49
   6  -2   2 1621.14  112.69
   6  -2  -2 1830.32  114.89
   6  -2  -2 1857.71  114.79
  -4  -2   2 1876.71  115.39
   6  -2  -2 1994.90  113.89
  -4   6  -2 1874.21  113.09
   2   4  -2 1928.41  112.89
   6  -4   2 1862.81  115.09
   4   2   2 1789.52  116.79
   2  -6   2 1972.80  117.19
   2   4  -2 1805.62  115.49
   6  -2  -2 1811.22  115.59
   4  -6  -2 1919.51  117.99
  -2   6   2 1894.01  114.99
   6  -5  -2 2642.64  167.28
  -1  -5   2 2538.15  166.08
  -6   5  -2 2527.05  163.88
   5  -6   2 2508.25  166.98
  -1   6  -2 2649.03  163.28
   5   1  -2 2505.25  164.98
   5  -6   2 2685.43  168.38
   5   1  -2 2506.25  165.58
  -6   1   2 2682.73  164.68
   6  -1   2 2455.15  166.88
  -6   5   2 2552.94  166.78
   1   5  -2 2676.83  163.28
  -5   6  -2 2587.84  163.68
   1  -6   2 2678.53  167.08
  -5  -1   2 2677.93  166.28
   6  -5   2 2672.93  166.28
   6  -1  -2 2575.14  165.68
   5  -6  -2 2659.33  167.98
   5   1   2 2640.14  167.88
   1   5  -2 2611.14  166.78
   6  -1  -2 2524.85  165.28
  -6   6   2 6511.95  405.76
   6   0  -2 6506.75  406.06
   6   0  -2 6108.39  405.96
   6   0   2 6508.55  408.26
   0   6  -2 6356.26  403.56
   6  -6  -2 6591.34  408.56
  -6   6  -2 6426.06  404.36
   6  -6   2 6540.65  404.76
   0  -6   2 6284.87  407.16
   6  -6   2 6892.41  404.46
   6  -6   2 6449.65  407.36
   7  -4  -2  876.91   60.49
   7  -3   2  842.62   58.59
  -7   3   2  916.21   61.99
   4  -7   2  836.52   63.29
  -3   7  -2  858.61   59.89
   7  -3   2  896.11   62.89
   7  -4  -2  839.72   64.09
   4   3  -2  850.21   58.19
  -3   7  -2  844.82   57.89
   7  -4  -2  866.61   61.39
   4   3  -2  864.11   60.19
   7  -4   2  924.31   62.99
  -4   7  -2  930.61   62.69
   4  -7  -2  951.40   64.59
   3  -7   2  927.71   63.99
   7  -3  -2  932.51   61.49
   3   4  -2  888.41   57.99
   7  -3  -2  934.81   60.69
   4   3   2  927.31   63.39
   3   4  -2  970.60   61.19
   7  -4   2  943.91   60.09
  -3   7   2  895.51   61.29
  -4   7  -2  913.11   58.29
  -2   7  -2   62.79    8.30
   7  -5  -2   42.80    9.80
  -7   5  -2   56.49    9.40
  -7   2   2   61.29   10.70
  -2  -5   2   54.29   12.60
   5  -7   2   68.69   13.20
   7  -5  -2   58.89   18.00
   5   2  -2   63.49   10.60
   5  -7   2   74.99   20.40
   7  -2   2   73.39   13.80
   5   2   2   72.79   13.30
   7  -5   2   92.49   12.40
   5  -7  -2   85.19   15.80
   2  -7   2  111.59   15.50
  -5   7  -2   93.09   11.40
   2   5  -2   94.59   10.30
   2   5  -2  101.09   13.80
   7  -2  -2   83.69   12.10
   7  -6  -2  464.05   35.20
  -7   6  -2  428.06   30.80
   7  -1   2  441.46   35.60
   6  -7   2  478.55   36.60
   6   1  -2  439.26   31.70
  -1  -6   2  429.56   35.80
   6  -7   2  462.15   35.10
  -1   7  -2  421.06   29.30
  -6   7  -2  407.26   30.20
   6  -7  -2  398.86   36.00
   7  -1  -2  447.76   32.40
   6   1   2  424.56   35.90
   1   6  -2  380.66   29.10
   7  -6   2  416.86   33.30
  -7   6   2  373.56   34.40
   1  -7   2  408.16   34.50
   0   7  -2  196.18   17.10
  -7   7  -2  220.18   19.40
   7  -7  -2  216.88   24.80
   7   0  -2  230.98   20.10
  -7   7   2  207.18   21.20
   0  -7   2  165.68   23.70
  -7   7   2  205.88   22.90
   7  -7   2  205.08   22.20
   7   0   2  190.48   23.10
   0   7   2  221.98   17.30
   4  -8   2 1268.47   87.89
  -4   8  -2 1246.18   81.49
   8  -4   2 1255.17   82.79
   4   4  -2 1270.67   83.89
  -4   8  -2 1226.28   82.69
   8  -4  -2 1339.57   85.79
  -8   4   2 1252.97   86.49
   4   4  -2 1275.17   81.69
   8  -4   2 1276.57   86.79
   8  -5  -2  817.22   62.39
   5  -8   2  912.61   64.69
   5   3  -2  809.52   60.29
   8  -3   2  872.81   64.39
  -3   8  -2  794.62   58.29
  -8   3   2  837.02   61.79
  -8   5  -2  837.42   60.09
   8  -5  -2  830.52   62.99
   8  -5  -2  852.61   60.99
   3   5  -2  927.11   58.79
   8  -5   2  974.60   64.99
   3   5  -2  981.40   62.19
   5  -8  -2  959.40   66.59
   3  -8   2  884.11   65.59
  -5   8  -2  957.80   63.59
   8  -3  -2  954.20   62.59
  -5   8  -2  968.60   59.19
   5   3   2  990.20   65.49
   8  -5   2  984.90   61.69
   2   6   2  770.32   53.89
   8  -6  -2  749.33   63.19
  -2   8  -2  720.23   55.29
   6  -8   2  733.03   60.79
   6  -8   2  782.52   64.09
   8  -2   2  757.72   61.09
   8  -6  -2  793.92   60.19
  -8   6  -2  769.62   56.99
   6   2  -2  718.63   57.09
   8  -6   2 1028.20   60.39
   2  -8   2 1004.40   63.59
   8  -2  -2  977.50   59.49
   6   2   2 1079.79   63.99
   6  -8  -2  920.11   63.79
   2   6  -2  999.20   56.19
  -2   8   2  938.61   56.39
   1   7   2 1499.75  101.49
   7  -8   2 1613.54  105.59
   8  -1   2 1561.24  106.19
  -1   8  -2 1541.65  100.79
   7  -8   2 1685.43  103.49
   7  -8   2 1584.24  102.79
  -1   8  -2 1553.34   99.69
   8  -7  -2 1572.44  105.69
   1   7   2 1568.34   98.49
  -8   7  -2 1667.03  101.39
   7   1  -2 1549.94  101.59
   7   1   2 1544.85  106.29
  -8   7   2 1598.64  104.29
   1   7  -2 1519.45   99.79
   7  -8  -2 1525.25  106.99
   7   1   2 1530.05   97.79
  -1   8   2 1490.85   99.29
  -7   8  -2 1608.54  100.79
   8  -1  -2 1489.55  102.29
   8  -7   2 1512.65  103.99
   0   8  -2 1501.35   95.09
   8   0   2 1496.25   96.79
  -8   8  -2 1499.45   96.29
   8   0   2 1476.75  102.39
   8   0  -2 1367.56   96.79
   8   0   2 1491.15   93.29
   8  -8  -2 1541.25  102.49
   0   8   2 1484.05   94.89
   8   0   2 1562.14   94.99
   8  -8   2 1506.35  100.69
   0   8   2 1495.35   95.39
   0   8   2 1487.35   94.19
   0   8   2 1317.17   99.79
   9  -5  -2  188.48   21.30
   5  -9   2  163.98   23.30
   5   4  -2  165.08   18.40
  -9   4   2  168.58   21.20
   5   4  -2  166.48   20.50
   9  -4   2  151.88   21.90
   4   5   2  167.58   13.10
  -5   9   2  150.28   20.90
  -4   9  -2  175.28   16.50
   4   5   2  138.39   20.70
   4  -9   2  194.88   24.10
  -9   5   2  170.48   22.70
  -4   9   2  180.58   19.70
   9  -5   2  209.58   23.90
   4   5  -2  156.98   18.60
   9  -4  -2  184.48   20.70
   5   4   2  180.08   21.90
  -5   9  -2  191.88   16.90
   9  -5   2  217.18   18.60
  -9   6  -2  250.97   23.50
  -3   9  -2  248.78   21.10
  -6   9   2  249.18   26.90
   6   3  -2  245.18   25.20
   3   6   2  271.47   18.90
   9  -3   2  257.07   28.60
   3   6   2  240.48   25.40
   9  -6  -2  267.27   26.40
   6   3  -2  271.27   23.30
   6  -9   2  280.37   29.50
   6  -9  -2  279.47   31.50
   6   3   2  256.17   28.80
  -6   9  -2  272.87   28.00
   6   3   2  270.67   18.70
  -3   9   2  260.87   22.70
   9  -6   2  271.87   24.80
   6   3   2  258.97   27.90
   3   6  -2  290.47   21.80
   9  -3  -2  261.17   24.30
  -6   9  -2  279.37   22.10
   3   6  -2  245.98   23.10
   3  -9   2  241.08   29.70
   9  -6   2  267.57   28.50
   7   2  -2  147.29   19.70
  -2   9  -2  138.99   17.50
   2   7   2  156.28   11.30
   9  -7  -2  162.88   21.70
   2   7   2  153.68   13.90
   7  -9   2  145.59   21.70
   2   7   2  162.38   13.40
   9  -2   2  163.28   22.00
   7   2  -2  161.68   17.80
  -2   9  -2  157.88   15.50
   9  -2   2  166.68   15.80
   9  -7  -2  175.68   22.50
  -9   7  -2  155.98   18.40
   9  -2   2  153.18   13.60
   7   2  -2  192.78   21.90
   2   7   2  161.78   19.70
   7  -9   2  169.78   23.10
   7   2   2  142.99   12.60
   9  -7   2  118.49   17.50
  -7   9  -2  131.99   21.10
   9  -2  -2  137.59   17.50
  -2   9   2  121.49   17.00
  -2   9   2  146.19   18.30
   9  -7   2  107.19   19.60
   7   2   2  113.89   20.30
   2   7  -2  144.29   15.40
  -7   9  -2  137.59   17.30
   2   7  -2  133.99   16.90
  -2   9   2  126.69   15.80
   7   2   2  150.28   20.40
   7  -9  -2  127.89   22.10
   1   8   2  469.95   33.40
   9  -1   2  483.85   33.80
  -1   9  -2  449.06   35.60
   1   8   2  463.05   38.50
   9  -1   2  491.95   35.90
   8   1  -2  477.25   39.60
   9  -8  -2  457.65   42.00
   1   8   2  490.45   34.90
   1   8   2  489.35   35.20
   8  -9   2  484.75   42.70
   1   8   2  489.15   34.10
  -9   8  -2  460.75   37.60
   9  -1   2  460.95   43.40
   9  -8  -2  515.75   47.00
  -8   9  -2  532.35   37.50
   8   1   2  521.25   41.80
   9  -8   2  532.25   41.60
  -1   9   2  539.15   37.00
   8   1   2  575.14   35.10
   8   1   2  554.94   34.20
   9  -1  -2  494.25   38.00
  -1   9   2  552.24   35.40
   8   1   2  551.34   32.90
   1   8  -2  516.65   36.00
  -1   9   2  524.65   36.40
   8   1   2  544.15   44.60
   8  -9  -2  479.85   45.30
  -9   8   2  549.35   41.20
   9  -9  -2   36.60   14.90
   9  -9   2   33.40   13.60
   0   9   2   35.40    7.40
   9   0   2   43.30    8.40
   9   0   2   40.40   14.20
   9   0   2   38.80    7.80
  -9   9  -2   45.20   11.10
   9   0  -2   77.29   14.00
   0   9   2   28.40   10.70
   9   0   2   36.30   14.50
   9   0   2   37.80    5.60
   0   9   2   39.30    8.30
   0   9  -2   38.60    8.80
   0   9   2   32.90    8.50
  -5  10  -2   65.19   10.10
   5 -10   2   52.69   16.40
 -10   5   2   43.80   14.80
  -5  10   2   52.29   12.10
   5   5  -2   62.79   12.40
 -10   5  -2   66.89   12.80
   5   5   2   60.39    7.90
   5   5  -2   69.09   10.70
  10  -5  -2   58.59   13.40
   5   5  -2   75.69   12.40
   5   5   2   62.59   13.70
  10  -5   2   70.69   17.20
   6 -10   2  332.47   35.30
 -10   6  -2  377.66   29.80
  -4  10  -2  326.17   26.60
  -6  10   2  279.57   32.70
   4   6   2  355.96   24.10
   4   6   2  337.37   31.00
   6   4  -2  331.57   29.80
  -6  10   2  312.27   30.10
   6   4  -2  351.36   27.40
  10  -4   2  341.87   27.70
  10  -6  -2  337.77   31.90
   6   4  -2  352.06   28.80
  10  -4   2  335.17   34.50
  -4  10   2  358.46   28.50
   4   6  -2  358.16   27.70
  10  -4  -2  339.27   30.60
   6   4   2  351.86   31.90
  10  -6   2  331.17   34.50
   4   6  -2  355.46   29.50
   4   6  -2  361.06   29.10
  10  -6   2  397.36   30.30
   4 -10   2  312.57   35.30
 -10   6   2  322.67   35.70
   6   4   2  376.76   24.20
  -6  10  -2  350.36   27.10
 -10   7  -2   75.39   13.70
  -3  10  -2   84.99   13.80
   7   3  -2   75.19   12.70
  -3  10  -2   77.69   11.30
   7 -10   2   78.99   20.50
   7   3  -2   84.89   14.50
   7   3  -2   76.89   11.70
   3   7   2   76.49   14.30
  10  -3   2   98.49   19.40
  10  -7  -2   80.39   16.80
   3   7   2   76.09    9.70
   7 -10   2  107.89   19.60
  10  -3   2   89.39   12.50
  -7  10  -2  104.49   13.00
  10  -7   2   99.09   19.80
  -3  10   2   96.39   14.20
   3   7  -2  108.79   12.60
   3   7  -2  107.39   14.60
  10  -7   2   92.79   15.60
   3   7  -2   96.29   13.20
  -3  10   2  128.19   16.50
   7 -10  -2  120.19   23.10
  10  -3  -2   86.89   15.30
   3   7  -2  112.09   14.10
 -10   7   2   72.29   20.20
  -3  10   2   96.09   12.50
   7   3   2  103.69   10.20
   7   3   2  109.39   17.10
   8 -10   2   38.00   12.80
 -10   8  -2   64.89   13.00
   2   8   2   77.19   10.00
  10  -2   2   60.49   10.40
  10  -8  -2   51.69   15.20
  10  -2   2   59.49    8.00
   8 -10   2   66.99   13.60
   8   2  -2   72.19   10.80
  10  -2   2   42.80   15.30
   2   8   2   72.49   13.40
   8   2  -2   78.29   14.20
   8 -10   2   58.79   16.60
  -2  10  -2   74.39   12.70
   2   8  -2   62.09   11.90
  -2  10   2   70.19   12.00
  -2  10   2   74.19   11.70
   8   2   2   68.69   15.30
   8   2   2   79.79   10.10
 -10   8   2   64.49   17.60
  10  -8   2   62.89   14.30
 -10   8   2   53.59   19.40
  -8  10  -2   66.79   11.50
  10  -8   2   62.79   16.70
  -8  10  -2   90.29   18.50
   8   2   2   66.09   17.40
   2   8  -2   68.09   10.60
  -2  10   2   73.19   10.30
  -9  10   2 1267.47   80.09
  10  -1   2 1114.89   68.49
   1   9   2 1083.29   67.39
   9   1  -2 1041.30   70.99
  10  -9  -2 1167.38   73.59
 -10   9  -2 1104.19   69.99
   1   9   2 1021.10   65.09
  10  -1   2 1061.29   65.69
   1   9   2 1098.29   66.09
   9 -10   2 1054.39   75.09
   1   9   2 1004.80   69.49
  10  -9  -2 1050.59   75.99
  10  -9   2  892.31   72.59
  -1  10   2  960.60   67.19
  -1  10   2  966.00   68.29
  -1  10   2 1000.10   66.99
   9   1   2 1009.90   71.39
   9   1   2  968.80   67.09
 -10   9   2 1010.60   78.29
  10  -1  -2  945.21   70.59
   9 -10  -2  982.50   76.69
  -9  10  -2  916.41   77.09
  -9  10  -2  948.91   69.09
  10 -10  -2  307.87   35.90
   0  10   2  267.27   21.00
  10   0   2  298.67   21.20
  10   0   2  289.87   20.20
   0  10   2  310.97   22.80
  10   0  -2  284.47   28.40
   0  10   2  284.97   23.60
   0  10   2  284.07   22.50
  10   0   2  269.97   28.50
 -10  10  -2  280.67   27.20
 -10  10   2  298.67   35.20
  10   0   2  290.67   23.60
  -6  11   2  132.19   16.80
   6   5  -2  144.89   19.70
 -11   6  -2  167.18   18.90
  -5  11  -2  130.39   16.20
   5   6   2  152.38   12.30
   6   5  -2  136.59   16.50
   5   6   2  164.88   21.90
   6   5  -2  140.59   16.10
   6 -11   2  133.19   22.80
  11  -6  -2  130.99   19.10
   5   6  -2  122.69   15.90
 -11   6   2  107.89   20.20
   5   6  -2  133.79   16.50
   6   5   2  129.09   18.20
  -6  11  -2  117.99   15.90
   5   6  -2  127.69   19.30
  11  -5  -2  143.29   19.10
  -5  11   2  135.19   19.10
   5 -11   2  116.79   23.20
 -11   5  -2  146.59   18.30
   7   4  -2  467.45   37.40
   7 -11   2  459.45   43.90
  11  -7  -2  460.85   42.20
  11  -4   2  439.86   35.40
  -7  11   2  471.25   42.80
 -11   7  -2  507.95   38.00
   7   4  -2  471.55   34.90
   4   7   2  495.05   32.00
  -7  11   2  433.96   37.40
   4   7   2  466.45   38.00
   7   4  -2  481.55   36.50
 -11   7   2  472.35   44.10
   7   4   2  484.95   39.30
   7   4   2  475.85   32.00
  -7  11  -2  446.86   34.70
   4   7  -2  478.05   36.40
  11  -4  -2  438.66   38.30
   4   7  -2  466.35   36.60
  -4  11   2  469.45   35.70
   4   7  -2  479.05   35.10
  -4  11   2  499.35   39.40
  -3  11  -2  358.86   32.00
   8   3  -2  392.86   30.00
   3   8   2  440.06   27.70
   8   3  -2  394.46   33.00
  -8  11   2  446.66   39.70
   3   8   2  377.06   33.10
  11  -3   2  403.06   30.50
   8 -11   2  433.06   35.60
  11  -3   2  392.26   27.80
 -11   8  -2  442.56   33.70
  11  -3  -2  376.16   33.60
  -3  11   2  380.76   30.30
 -11   8   2  339.07   40.30
  -8  11  -2  370.46   30.80
   3   8  -2  378.36   30.40
   8   3   2  383.36   27.50
 -11   8   2  333.37   38.40
   8   3   2  383.96   34.80
  -3  11   2  376.86   31.40
   3   8  -2  355.36   31.40
   9   2  -2  577.94   39.30
   2   9   2  617.54   37.10
  11  -2   2  590.74   39.20
   9   2  -2  585.34   41.80
   2   9   2  559.44   41.20
  -9  11   2  590.74   48.70
  11  -2   2  611.94   36.20
 -11   9  -2  634.64   42.10
   9   2   2  496.35   36.90
  -9  11  -2  487.35   39.40
  -2  11   2  493.35   39.20
  11  -2  -2  446.56   41.00
 -11   9   2  493.75   48.40
  -2  11   2  509.55   38.30
   9   2   2  496.85   42.50
   2   9  -2  431.16   38.40
  -2  11   2  490.95   38.00
  10   1  -2  204.98   20.10
 -10  11   2  198.28   28.30
  11  -1   2  226.98   17.40
  11  -1   2  208.78   19.40
 -11  10  -2  236.58   23.70
   1  10   2  230.68   24.40
  10   1  -2  210.48   24.20
  11  -1   2  244.88   16.20
   1  10   2  227.88   18.20
  10   1   2  187.08   24.90
  -1  11   2  209.38   19.20
 -10  11  -2  167.68   23.20
 -11  10   2  134.29   25.40
  11  -1  -2  192.78   23.70
  -1  11   2  197.88   19.80
  -1  11   2  193.08   19.00
  10 -11  -2  137.39   31.10
  10   1   2  196.98   18.50
 -10  11  -2  182.68   21.70
  11   0  -2  387.56   33.00
   0  11   2  388.26   28.90
   0  11   2  355.66   26.00
   0  11   2  413.86   27.10
  11   0   2  387.26   29.00
 -11  11  -2  404.16   32.50
   6   6   2 1654.33  106.69
   6   6  -2 1462.25  103.29
   6   6  -2 1644.64  105.69
   6   6  -2 1543.45  104.19
   6   6  -2 1666.03  104.89
  -6  12   2 1540.55  104.59
 -12   6  -2 1730.23  106.69
   7   5  -2  519.95   40.40
  12  -5   2  441.46   38.10
  -7  12   2  485.95   39.90
   7   5  -2  475.45   36.30
 -12   7  -2  550.94   41.00
   7   5  -2  434.56   37.00
   5   7   2  528.65   40.90
  -5  12   2  561.34   38.90
 -12   7   2  463.05   43.50
   7   5   2  572.84   42.10
 -12   5  -2  609.94   41.60
   5   7  -2  500.65   37.60
   5   7  -2  561.34   39.20
   5   7  -2  550.24   39.50
  -8  12   2  241.18   30.00
 -12   8  -2  276.27   27.70
  12  -4   2  238.98   23.50
   8   4  -2  246.48   22.70
  12  -4   2  273.97   21.40
   8   4  -2  252.27   22.30
  -4  12  -2  222.88   26.40
   8   4  -2  263.97   27.00
   4   8   2  280.67   27.90
   8 -12   2  272.37   30.20
   4   8   2  284.47   20.00
 -12   8   2  253.67   30.90
 -12   8   2  282.67   25.60
 -12   4  -2  302.47   28.00
   8   4   2  293.67   28.80
  -8  12  -2  275.77   23.70
   4   8  -2  286.87   25.40
   4   8  -2  260.47   23.10
  -4  12   2  266.77   25.20
   4   8  -2  262.87   25.20
  -4  12   2  289.57   24.70
   3   9   2  682.63   44.60
   3   9   2  682.53   49.50
   9   3  -2  626.04   46.90
  12  -3   2  630.24   47.20
 -12   9  -2  698.83   49.70
   9   3  -2  684.33   49.90
   9   3  -2  634.94   46.00
  12  -3   2  674.33   44.60
 -12   9   2  664.53   54.09
  -3  12   2  686.23   48.20
   3   9  -2  618.04   47.00
   9   3   2  705.53   44.80
   9   3   2  673.43   50.19
  -3  12   2  741.63   46.90
  -3  12   2  699.63   47.10
  -9  12  -2  651.03   47.00
 -12  10  -2  332.17   25.90
  12  -2   2  277.47   19.40
  12  -2   2  271.77   22.00
   2  10   2  279.57   25.70
  10   2  -2  265.67   22.20
  10   2  -2  288.47   24.50
  12  -2   2  271.87   18.50
   2  10   2  267.47   19.60
  10   2  -2  269.97   26.10
  -2  12   2  199.08   21.60
  -2  12   2  219.48   21.80
 -10  12  -2  206.18   23.00
   2  10  -2  187.38   21.50
  12  -2  -2  191.38   24.30
  -2  12   2  218.68   20.90
  10   2   2  220.88   19.40
  10   2   2  212.98   26.10
  11   1  -2  119.19   16.50
  11   1  -2  111.29   15.30
 -12  11  -2  125.39   16.50
   1  11   2  129.59   13.30
  12  -1   2  111.09   14.30
  -1  12   2  131.79   14.70
  -1  12   2  118.39   12.90
 -11  12  -2  123.69   15.40
  11   1   2  116.49   13.00
  12  -1  -2  124.69   16.50
  11   1   2  125.29   16.70
  -1  12   2  112.99   11.30
  12   0  -2  150.58   19.00
  12   0   2  166.58   15.40
   0  12   2  157.88   15.50
  12   0  -2  166.28   21.40
  12   0  -2  156.28   17.40
   7   6  -2   60.79   13.30
  -7  13   2   70.29   13.80
   7   6  -2   63.99   11.20
   7   6  -2   68.69    9.50
   6   7   2   76.59   14.70
 -13   7  -2   69.99   15.40
   7   6   2  115.29   16.20
  -6  13   2  122.49   14.80
   6   7  -2  113.59   14.60
   6   7  -2  109.49   12.50
  -8  13   2   24.40   12.00
   5   8   2   34.80   12.80
   8   5  -2   29.40   11.60
  13  -5   2   29.80    9.80
 -13   8  -2   43.00   13.20
   8   5  -2   28.30    8.80
   8   5  -2   30.10    7.30
 -13   8   2   31.20   11.30
   5   8  -2   39.30    9.30
   5   8  -2   27.30    7.70
   8   5   2   34.50   13.00
 -13   5  -2   26.70   13.10
  -5  13   2   37.20   11.10
   5   8  -2   36.70   10.80
  13  -4   2  215.28   17.40
   9   4  -2  219.48   18.20
  13  -4   2  186.28   20.20
   4   9   2  218.28   24.10
   9   4  -2  212.98   23.80
   9   4  -2  237.88   20.00
 -13   9  -2  239.88   24.70
   4   9  -2  186.08   17.90
   4   9  -2  191.58   19.40
 -13   4  -2  207.28   24.40
  -4  13   2  204.88   21.60
   9   4   2  202.48   24.70
  -4  13   2  210.88   21.60
   3  10   2  368.36   26.10
  13  -3   2  401.36   26.80
 -13  10  -2  395.06   31.50
  10   3  -2  375.96   27.20
  10   3  -2  394.96   32.30
   3  10   2  363.96   31.90
  13  -3   2  368.26   26.00
  13  -3   2  392.16   29.60
  10   3  -2  392.76   29.30
  -3  13   2  370.46   29.60
 -13   3  -2  352.06   31.80
  -3  13   2  422.66   29.70
  10   3   2  375.96   32.60
  -3  13   2  361.56   27.90
   3  10  -2  342.97   27.20
   3  10  -2  353.96   29.10
  11   2  -2  372.46   26.60
  11   2  -2  362.96   28.50
   2  11   2  332.17   36.30
   2  11   2  364.86   25.90
  11   2  -2  395.66   31.50
  13  -2   2  331.97   27.90
  -2  13   2  374.26   28.10
  -2  13   2  380.66   25.30
  11   2   2  384.16   31.50
   2  11  -2  367.16   28.70
  -2  13   2  383.56   26.00
   2  11  -2  374.76   27.20
  13  -2  -2  368.06   30.60
  13  -1   2  265.67   21.20
   1  12   2  283.07   20.00
  12   1  -2  293.47   25.10
  12   1  -2  257.57   22.40
  12   1  -2  286.07   20.40
   1  12  -2  241.58   22.20
  13  -1  -2  237.88   21.00
  -1  13   2  277.07   21.40
   1  12  -2  264.77   21.70
  13  -1  -2  267.67   23.90
   0  13  -2   22.30    9.00
  13   0  -2   15.10    7.40
  13   0  -2   24.30    9.10
   0  13   2   21.30    6.00
  13   0  -2   23.60    5.90
   0  13  -2   24.70    6.80
  13   0   2   14.80    5.30
   7   7   2  463.25   35.90
   7   7  -2  451.35   31.00
   7   7  -2  429.76   33.70
   7   7  -2  410.46   29.60
  -7  14   2  448.36   34.50
   7   7  -2  412.46   31.60
   6   8   2   74.49   14.40
   8   6  -2   65.39   12.80
   8   6  -2   66.19    8.60
   8   6  -2   63.59    8.70
  -8  14   2   78.79   13.50
  14  -6   2   59.79   11.70
   8   6  -2   79.49   11.30
   6   8  -2   83.59   12.60
   6   8  -2  103.39   13.00
   6   8  -2  111.49   14.10
   6   8  -2   83.79   10.80
  -6  14   2  120.09   13.90
   8   6   2  109.09   15.10
   9   5  -2   61.29    8.10
   5   9   2   51.29   13.00
   9   5  -2   61.69    7.80
  14  -5   2   63.09   11.30
  14  -5   2   57.89    8.40
   9   5  -2   56.79   12.50
   9   5  -2   52.79   10.10
  -9  14   2   57.59   14.00
   5   9  -2   85.69   10.60
   5   9  -2   96.29   12.50
  -5  14   2   89.49   12.00
   9   5   2   94.89   14.50
   5   9  -2   66.39   11.70
  10   4  -2  224.58   17.40
  14  -4   2  204.18   20.30
  14  -4   2  210.58   16.90
   4  10   2  239.48   23.90
  10   4  -2  235.68   19.90
  10   4  -2  254.67   23.40
  10   4   2  250.17   24.10
  -4  14   2  257.27   21.20
  -4  14   2  236.98   19.40
  -4  14   2  224.68   20.60
   4  10  -2  221.98   19.80
   4  10  -2  226.48   17.90
  11   3  -2   34.10    8.80
   3  11   2   34.50   10.90
  11   3  -2   34.60   10.80
  14  -3   2   36.40    8.90
  11   3  -2   34.10    6.40
  11   3  -2   30.50    6.40
   3  11  -2   63.39    7.50
   3  11  -2   55.49    9.30
  11   3   2   70.59   12.30
  -3  14   2   55.79    7.00
  -3  14   2   51.29    6.20
  -3  14   2   51.39    9.20
   3  11  -2   38.70    8.70
  12   2  -2   99.29    9.40
  12   2  -2   84.19   11.80
  12   2  -2   95.29   12.50
  12   2  -2  103.69    9.60
  14  -2   2   86.39   11.00
   2  12  -2   66.09    8.30
  12   2   2   81.89   12.20
  14  -2  -2   89.59   11.10
  -2  14   2   76.49   10.80
   2  12  -2   78.19   10.30
   2  12  -2   71.39   10.50
  -1  14  -2   25.20    5.90
  13   1  -2   10.60    7.90
  13   1  -2   21.80    6.90
  14  -1  -2   12.70    6.60
   1  13  -2   12.60    4.70
   1  13  -2   22.50    4.80
   1  13  -2   21.40    7.00
  14  -1  -2   14.10    5.10
  14  -1  -2   19.60    5.10
  -1  14   2   16.40    5.40
   8   7  -2  448.76   31.50
  -8  15   2  484.65   34.40
   8   7  -2  476.55   33.60
   7   8   2  460.25   34.50
  15  -7   2  424.76   30.50
   7   8  -2  426.26   33.00
  -7  15   2  480.75   33.70
   7   8  -2  389.56   31.00
   8   7   2  444.66   34.50
  15  -6   2   22.30    7.90
   6   9   2   30.40   10.90
  -9  15   2   25.50   10.30
   9   6  -2   23.00    9.40
   9   6  -2   26.90    7.30
  15  -6   2   25.70    5.80
   9   6   2   18.00   10.40
   6   9  -2   14.60    6.60
  -6  15   2   26.40    8.80
  -6  15   2   15.80    7.80
   6   9  -2   19.90    8.50
  10   5  -2   71.79   10.40
   5  10   2   76.49   12.10
  15  -5   2   72.69    7.80
  10   5  -2   71.59   11.20
  15  -5   2   62.49   10.00
  15  -5   2   68.59    8.00
   5  10  -2   63.19    9.10
  10   5   2   72.79   12.20
  -5  15   2   65.59   10.20
  -5  15   2   71.39    8.30
   4  11   2  495.75   36.90
  11   4  -2  540.35   37.00
  11   4  -2  503.25   35.30
  15  -4   2  462.05   35.40
  11   4   2  594.94   37.60
   4  11  -2  525.95   35.40
  -4  15   2  520.85   35.60
  12   3  -2  484.05   32.90
  12   3  -2  437.06   31.30
  -3  15   2  438.96   31.10
  12   3   2  532.05   38.90
   3  12  -2  442.16   31.40
   8   8   2  371.46   26.20
   8   8  -2  310.57   23.00
   9   7  -2   12.60   10.00
   9   7  -2    9.50    4.80
   7   9   2    4.60    9.80
   7   9  -2    1.10    4.80
   9   7   2    9.20    8.20
  10   6  -2   68.09   14.00
  10   6  -2   43.20    7.00
  10   6   2   73.89   13.10
   6  10  -2   57.99    7.90
   0   0   3   -1.20    4.10
   0   0   3    5.40    4.80
   0   0  -3    7.60    4.50
   0   0   3    1.60    3.20
   1  -1   3  929.01   58.69
   0  -1  -3  874.41   58.49
   0  -1   3  874.31   57.29
  -1   0   3  888.81   58.49
   1   0   3  904.71   58.49
   0  -1   3  958.80   59.09
  -1   1   3  896.91   58.59
  -1   0   3  902.81   58.49
  -1   0  -3  859.41   58.29
  -1   0   3  964.30   59.29
   0  -1   3  955.40   58.69
   1  -1   3  889.61   58.19
   0   1   3  896.21   58.09
  -1   1  -3  874.71   58.89
   0   1   3  924.51   57.99
   1   0   3  896.81   58.49
   0   1  -3  886.01   59.09
  -1   0   3  888.11   58.99
   0  -1   3  913.31   58.59
   1  -1  -3  903.61   59.09
   0  -1   3  913.71   58.89
  -1   1   3  955.60   58.79
   0   1   3  894.51   58.39
   1  -1   3  898.81   58.59
   1   0  -3  885.91   59.29
   1   0   3  897.11   57.89
  -2   1  -3 3005.90  194.98
   1  -2  -3 2995.40  194.98
  -1  -1   3 3118.69  195.88
   1   1   3 3106.39  195.08
  -2   1   3 3117.49  194.68
   1  -2   3 3199.98  194.78
   2  -1   3 3058.39  195.08
   2  -1  -3 3085.89  195.58
  -1   2  -3 3152.58  195.78
  -1  -1   3 3183.68  194.68
  -1   2   3 3076.39  194.78
   1  -2   3 3068.99  194.88
   1  -2   3 3131.49  194.88
  -1  -1  -3 2843.02  194.58
   2  -1   3 3112.09  194.58
  -2   1   3 3036.60  195.18
  -1  -1   3 3379.56  195.68
   1   1   3 3050.89  194.38
  -2   1   3 3075.79  195.38
  -1   2   3 3128.99  194.48
   1  -2   3 3106.79  195.28
   2  -1   3 3102.29  194.88
  -2   1   3 3103.69  194.88
   1   1  -3 3191.18  195.68
   0  -2   3  804.62   50.99
  -2   0   3  771.82   50.69
  -2   2  -3  767.42   51.79
   2  -2   3  786.22   51.49
   2  -2   3  792.22   51.29
   2   0  -3  822.32   52.19
   2   0   3  744.23   51.39
   2   0   3  773.92   50.69
  -2   0   3  811.42   51.79
  -2   2   3  763.82   51.19
   0   2   3  776.02   49.40
  -2   0  -3  725.23   50.29
   0  -2   3  841.82   51.79
   0  -2  -3  732.23   50.39
   0   2   3  760.12   50.59
   2   0   3  740.93   49.50
   0  -2   3  767.92   52.69
   2  -2  -3  795.12   51.89
   0   2  -3  787.92   51.99
  -2   0   3  780.42   52.59
   2  -3   3 2443.06  144.39
   1  -3  -3 2204.38  143.69
  -1  -2   3 2448.26  143.39
   2  -3   3 2527.95  144.79
   1   2   3 2401.16  142.99
  -1  -2   3 2545.45  144.69
  -3   1   3 2435.16  144.69
   3  -1   3 2421.56  144.69
  -2   3   3 2400.76  144.09
   1   2   3 2439.26  144.49
   3  -1   3 2350.36  142.59
   2  -3   3 2415.86  143.69
  -1   3  -3 2516.25  145.29
   2   1  -3 2419.46  144.69
   3  -2  -3 2455.25  144.89
   2  -3   3 2368.36  143.39
  -1   3  -3 2313.27  142.29
   3  -1   3 2427.76  143.89
  -3   2  -3 2336.67  144.69
  -3   1   3 2429.06  144.89
  -3   1   3 2420.46  143.79
  -3   2   3 2176.08  144.59
  -3   2   3 2161.58  143.89
   2   1   3 2068.09  142.79
   2  -3  -3 2097.89  144.19
  -3   2   3 2166.58  143.59
  -2   3  -3 2203.28  144.99
   3  -2   3 2076.19  143.59
   3  -2   3 2101.49  143.99
   1   2  -3 2179.28  144.39
   3  -1  -3 2105.19  144.39
   2   1   3 2130.99  144.29
  -2  -1   3 2227.18  144.39
  -2  -1   3 2151.98  143.09
   3  -2   3 2125.79  143.89
  -2   3  -3 2228.28  142.69
   1  -3   3 2169.88  144.19
   1   2  -3 2056.89  142.09
   1  -3   3 2230.28  143.79
  -1   3   3 2157.98  143.39
  -1   3   3 2114.79  142.49
  -3   1  -3 2059.79  143.59
   1  -3   3 1977.20  144.59
   3   0  -3    4.20    5.80
   3   0   3    0.80    6.40
   3  -3  -3    5.60    6.80
  -3   0   3    3.00    5.50
  -3   3   3   -3.80    6.10
   0   3  -3   -1.20    6.00
   0   3  -3   -3.00    7.70
  -3   3  -3    4.30    7.10
   3   0  -3    2.10    3.70
   0  -3   3   -4.30    5.20
  -3   3  -3    5.10    4.70
   3  -3   3    1.70    5.90
   3   0   3    6.00    5.20
   0  -3   3   -0.30    5.00
  -3   0   3    4.40    4.50
   0   3  -3    3.20    4.20
   3  -3   3    5.00    7.00
   0   3   3    0.90    4.50
   2  -4   3  430.26   35.30
   2   2  -3  452.25   29.80
   4  -2   3  440.26   30.80
   2  -4  -3  422.56   32.70
   2  -4   3  473.75   33.00
  -4   2  -3  429.16   30.70
  -2   4  -3  464.65   34.50
  -4   2   3  441.66   33.50
  -2   4  -3  462.05   30.20
   2  -4   3  496.15   33.30
  -2  -2   3  443.06   32.50
   4  -2   3  435.16   33.00
   4  -2  -3  484.05   33.40
   2   2  -3  465.25   32.70
   2   2   3  432.06   33.00
   2   2   3  405.96   30.00
  -4   2   3  443.66   32.30
  -2  -2   3  458.65   30.80
  -2   4   3  421.16   32.20
   4  -2   3  454.15   33.10
   3   1  -3 1929.11  122.09
   4  -1   3 1923.21  122.59
   3   1  -3 1863.11  119.49
   4  -3  -3 1961.00  122.69
  -3   4   3 1904.61  122.39
  -1   4  -3 1901.01  122.99
  -4   1   3 1927.91  121.19
   3  -4   3 1861.61  122.29
   3  -4   3 1996.50  122.99
  -4   3  -3 1850.51  119.99
  -1  -3   3 2019.20  122.19
   3  -4   3 1931.51  121.29
   1   3   3 1842.02  119.89
  -1   4  -3 2067.09  125.49
   3  -4   3 1933.41  120.89
  -1   4  -3 1964.90  119.69
  -1  -3   3 1963.00  120.69
   4  -1   3 1887.91  121.59
  -4   3   3 1856.71  122.69
  -3  -1   3 1837.92  121.89
   4  -1  -3 1940.41  122.39
  -4   3   3 1870.01  122.39
   4  -3   3 1907.11  122.89
   1   3  -3 1890.51  119.59
   1  -4   3 1980.20  122.39
   3   1   3 1842.92  122.49
  -4   3   3 1794.02  121.19
  -1   4   3 1912.61  120.89
   1   3  -3 1904.11  122.39
  -3   4  -3 1877.11  119.79
   3   1   3 1792.42  120.09
   1  -4   3 1943.81  121.69
  -3   4  -3 1926.51  123.69
   3  -4  -3 1806.62  122.49
   4  -3   3 1762.12  121.19
  -1   4   3 1863.01  119.29
  -3  -1   3 1894.61  120.39
   4   0   3   48.60   10.20
  -4   0   3   71.29    8.70
   0   4   3   53.99    7.70
   0  -4   3   61.99    9.30
   4   0  -3   61.39    7.20
   0   4  -3   56.09   10.50
   0   4  -3   59.19    7.40
   4  -4  -3   54.79   11.00
   4   0  -3   53.69    9.70
  -4   4  -3   66.19    8.10
   4  -4   3   72.19   13.00
  -4   4   3   53.29   11.70
   0  -4   3   60.29    9.50
  -4   0   3   47.60    9.80
   4  -4   3   52.89   10.30
   4   0   3   54.19    9.10
  -3   5   3 1921.31  120.59
  -5   2   3 1997.50  119.89
  -2  -3   3 1895.41  120.09
   3  -5   3 1820.92  121.79
   5  -3  -3 1900.61  120.79
   2   3   3 1939.91  121.09
   3   2  -3 1845.42  119.09
   3  -5   3 1984.50  121.79
   3  -5   3 1791.52  120.59
  -2   5  -3 1914.11  121.99
   5  -2   3 1846.92  117.29
  -5   3  -3 1829.92  117.99
   3   2  -3 1857.01  117.29
   3   2  -3 1871.41  119.99
   5  -2   3 1870.51  120.79
  -2  -3   3 1935.31  118.09
  -2   5  -3 1911.61  117.39
   2   3  -3 1741.93  119.89
   3  -5  -3 1860.41  121.69
   2   3  -3 1839.32  117.19
  -3   5  -3 1827.92  122.19
   5  -2  -3 1819.62  120.29
  -5   3   3 1864.41  120.39
  -3  -2   3 1891.71  120.29
   2   3  -3 1707.93  119.49
  -5   2  -3 1715.23  117.89
   3   2   3 1760.22  120.49
   2  -5   3 1916.91  120.69
  -3   5  -3 1819.52  117.39
   5  -3   3 1753.12  118.49
  -2   5   3 1874.61  119.39
   5  -3   3 1854.81  120.59
   2  -5   3 1962.10  121.09
  -5   3   3 1927.11  120.79
  -3  -2   3 1896.11  117.99
  -1  -4   3 1615.74  101.29
   5  -1   3 1517.95  103.39
  -1   5  -3 1536.55   99.79
   4   1  -3 1559.54  101.29
   4  -5   3 1577.94  100.89
  -1   5  -3 1588.14  104.39
   4  -5   3 1599.24  101.89
   4  -5   3 1582.74  103.89
  -5   1   3 1573.64  101.49
   4   1  -3 1536.55  102.49
  -5   4  -3 1583.94  100.59
  -4   5   3 1612.64  105.09
   4   1  -3 1526.35   99.89
   5  -4  -3 1598.64  103.79
  -1  -4   3 1500.35  102.49
  -1   5  -3 1594.54  103.19
   4  -5  -3 1646.64  104.69
  -5   4   3 1620.74  102.49
   1  -5   3 1694.13  103.19
   1  -5   3 1584.04  103.19
  -5   4   3 1659.83  105.49
   1   4  -3 1641.74   99.99
   4   1   3 1547.15  103.79
  -4  -1   3 1620.74  100.79
  -4   5  -3 1538.95  100.09
  -5   4   3 1538.05  103.79
   5  -4   3 1528.55  102.19
   1   4  -3 1515.65  102.99
   5  -1  -3 1518.75  102.79
  -4  -1   3 1566.54  102.89
  -1   5   3 1595.44  101.09
  -5   5   3  208.88   26.20
   0   5  -3  215.68   22.10
   0  -5   3  186.78   19.90
   0  -5   3  225.18   20.90
   5  -5  -3  225.88   22.60
   5   0  -3  225.68   20.60
  -5   0   3  232.88   18.10
   5   0   3  231.68   22.50
  -5   5  -3  201.68   18.00
   0   5  -3  224.18   17.10
   5   0  -3  232.78   20.00
   5  -5   3  225.38   20.80
  -5   0   3  256.77   21.40
  -3   6  -3 2624.54  167.68
   6  -3  -3 2619.94  170.98
   3   3  -3 2794.62  170.78
  -3  -3   3 2515.15  170.48
  -3   6   3 2644.64  170.58
  -6   3   3 2789.32  171.38
  -6   3  -3 2540.85  168.38
   3   3  -3 2618.14  167.48
   3   3   3 2735.73  171.98
   3  -6   3 2752.02  171.88
   6  -3   3 2795.22  171.88
   6  -3   3 2607.74  168.18
  -2   6  -3  347.97   30.40
  -2  -4   3  349.77   28.60
   4  -6   3  347.67   31.00
  -4   6   3  371.86   33.00
   4  -6   3  335.87   33.20
  -6   4  -3  327.47   27.20
   6  -4  -3  357.16   30.00
   4   2  -3  339.37   25.50
   6  -2   3  341.27   30.70
  -2   6  -3  362.26   32.40
  -2   6  -3  352.06   25.80
   4   2  -3  364.96   28.80
  -6   2   3  365.56   28.50
   4  -6  -3  405.26   34.10
  -2   6   3  366.06   28.10
   4   2   3  393.86   31.20
   6  -4   3  385.56   28.10
  -4   6  -3  367.86   26.10
   6  -2  -3  396.36   29.90
   2  -6   3  370.46   30.40
   2   4  -3  375.36   29.40
  -4  -2   3  401.56   29.60
   2   4  -3  390.16   25.90
  -6   4   3  357.86   30.50
   6  -4   3  403.76   30.80
  -6   4   3  431.76   33.80
  -6   1   3 2251.77  134.19
   5  -6   3 2247.48  133.99
   5  -6   3 2255.37  136.89
   5  -6   3 2300.67  133.29
  -1  -5   3 2164.88  135.89
  -5   6   3 1961.70  139.59
   5   1  -3 2177.38  135.39
   6  -5  -3 2252.57  137.59
  -1   6  -3 2253.07  137.89
  -6   5  -3 2233.18  133.39
  -1   6  -3 2243.98  132.49
   6  -1   3 2312.47  137.79
   6  -5   3 2038.00  135.09
  -5   6  -3 1889.21  132.49
   6  -1  -3 2011.00  135.59
   1   5  -3 1939.41  132.19
   5  -6  -3 1954.00  137.69
  -6   5   3 2000.10  134.69
  -5  -1   3 1877.71  135.39
   5   1   3 2074.29  137.19
   1  -6   3 1917.01  135.99
  -6   5   3 1894.71  139.79
  -6   5   3 1928.31  137.79
   1   5  -3 1990.60  136.19
   6   0  -3   -6.00    6.50
  -6   6   3    1.20   15.00
  -6   6  -3   -0.40    6.00
   6   0   3    9.70    9.20
   0  -6   3    3.50    7.30
   0   6  -3    8.60    9.70
   6  -6  -3    0.10    8.80
   6  -6   3   -2.20    7.20
   0   6  -3   -2.40    5.10
  -6   0   3   -0.20    7.40
  -3   7  -3  597.54   40.50
  -7   3   3  585.44   44.60
   4  -7   3  509.05   52.19
  -3  -4   3  533.05   43.40
  -7   4  -3  570.04   42.10
   4   3  -3  629.74   43.80
   7  -4  -3  576.84   44.60
  -4   7   3  604.24   46.30
  -3   7  -3  565.24   44.70
   7  -3   3  630.84   46.30
   4   3  -3  591.44   40.50
   4  -7   3  591.44   46.70
   7  -3  -3  638.84   44.70
  -4   7  -3  638.04   41.00
  -3   7   3  551.24   43.50
   4   3   3  642.94   46.60
  -4  -3   3  579.14   43.90
   7  -4   3  653.33   46.40
   7  -3  -3  588.64   47.30
   3   4  -3  634.94   44.20
   3  -7   3  579.84   45.70
  -7   4   3  697.63   47.60
   3   4  -3  599.44   40.40
   7  -4   3  627.94   41.90
  -7   3  -3  603.44   42.40
   7  -2   3  490.65   37.00
  -7   2   3  440.56   33.20
  -7   5  -3  450.35   32.80
   7  -5  -3  393.16   35.20
   5  -7   3  474.65   36.50
   5  -7   3  395.86   37.20
   5   2  -3  459.55   34.00
  -5   7   3  432.86   40.40
  -2  -5   3  401.66   34.20
  -2   7  -3  428.06   30.80
   7  -2  -3  451.35   34.80
  -5  -2   3  411.56   34.40
  -5   7  -3  440.36   31.50
   5  -7  -3  429.66   39.80
   2   5  -3  422.56   30.70
   7  -5   3  458.85   36.40
  -7   5   3  452.65   36.80
   7  -5   3  442.26   33.50
   2   5  -3  486.65   36.00
   2  -7   3  449.26   36.30
  -7   5   3  460.35   41.30
   5   2   3  475.85   37.40
  -6   7   3  383.76   37.80
  -6   7  -3  282.97   23.20
   6  -7  -3  289.97   31.00
  -7   6   3  303.37   28.80
  -7   6   3  302.27   25.80
  -6  -1   3  258.37   25.70
   1   6  -3  282.27   27.80
   6   1   3  309.37   29.30
   7  -6   3  293.87   25.60
   1  -7   3  265.57   27.10
  -7   6   3  268.67   35.70
   1   6  -3  296.67   22.30
   7  -1  -3  281.87   25.90
  -1   7   3  268.37   22.70
   7  -7  -3 1220.28   85.89
   0   7  -3 1308.97   79.19
   7   0   3 1258.17   77.09
   7  -7   3 1305.17   83.89
   0   7   3 1168.28   77.59
  -7   0   3 1203.08   83.69
  -7   7   3  985.60   90.29
   7   0   3 1228.28   85.49
   7   0  -3 1204.58   82.09
   0  -7   3 1167.18   83.89
  -7   7  -3 1216.98   79.79
   8  -4  -3  584.84   41.60
  -4   8  -3  581.24   44.40
   4   4  -3  586.14   43.20
  -8   4   3  584.54   45.60
  -4   8  -3  592.14   39.90
  -8   4  -3  551.74   41.60
   8  -4  -3  604.44   44.70
  -4   8   3  573.04   44.20
   4  -8   3  589.74   47.10
   4   4  -3  588.84   39.80
   8  -4  -3  584.84   44.40
   8  -4   3  527.25   45.50
  -4   8   3  549.74   43.50
   5  -8   3  402.36   36.40
   5  -8   3  409.16   30.90
  -8   3   3  396.46   27.70
  -5   8   3  401.36   33.70
   8  -5  -3  421.56   37.20
   3   5  -3  265.97   22.40
   8  -5   3  241.98   28.10
  -5   8  -3  268.17   23.20
  -5   8  -3  273.17   30.40
   8  -3  -3  301.07   27.00
   8  -5   3  276.37   23.90
   5   3   3  266.87   28.90
  -3   8   3  267.97   26.20
   3   5  -3  274.77   27.10
  -8   5   3  289.77   32.40
   3  -8   3  248.28   29.80
  -8   3  -3  242.08   25.20
   8  -2   3  505.95   44.80
   2   6   3  558.24   37.40
  -6   8   3  516.75   49.70
   8  -6  -3  563.94   44.50
   6   2  -3  501.65   41.10
   6  -8   3  523.25   44.10
  -2   8  -3  522.25   38.50
   6  -8   3  586.94   43.30
  -6   8   3  461.75   45.20
   6   2  -3  485.05   41.00
  -8   6  -3  527.25   40.40
   2   6   3  542.95   37.10
   2   6   3  625.74   45.80
   6  -8   3  491.05   43.50
  -2   8   3  610.94   39.40
   6  -8  -3  595.64   49.10
  -6   8  -3  587.64   39.50
   8  -6   3  573.44   45.20
  -8   6   3  542.85   51.39
   6   2   3  554.04   45.40
   8  -2  -3  629.54   43.30
   2  -8   3  580.64   45.40
   2   6  -3  592.24   44.00
  -8   6   3  628.54   45.20
   8  -6   3  572.74   41.70
   2   6  -3  626.04   39.10
   1   7   3  603.64   39.30
  -8   1   3  593.84   47.90
   8  -1   3  676.83   43.20
   7  -8   3  629.84   48.10
   8  -1   3  633.24   40.10
   1   7   3  622.14   41.40
  -7   8   3  511.25   55.79
   7   1  -3  610.74   45.30
   8  -1   3  635.54   49.60
  -8   7  -3  601.54   43.50
   7   1  -3  597.14   43.20
   1   7   3  601.84   44.50
   8  -7  -3  591.04   49.10
  -1   8  -3  623.14   42.40
   1   7   3  628.74   40.20
   1   7  -3  570.74   42.70
   1  -8   3  587.34   48.40
   8  -1  -3  644.74   46.20
  -1   8   3  614.94   45.30
  -1   8   3  665.93   44.70
  -8   7   3  592.64   57.59
   7   1   3  666.53   41.60
  -7   8  -3  641.34   43.50
   7  -8  -3  642.64   51.69
  -1   8   3  604.84   41.30
   1   7  -3  640.44   42.40
   8  -7   3  619.64   46.30
   8  -1  -3  564.64   42.60
   7   1   3  469.85   57.99
  -1   8   3  537.55   43.50
   7   1   3  637.54   49.50
   8   0   3   17.10    3.70
   0   8   3   15.50   10.10
   8   0   3   16.80    5.80
   8   0  -3    9.00    7.70
   0   8   3   11.70    7.70
   8  -8  -3   23.80   14.50
   8  -8   3   13.70   11.20
   0   8   3   11.30    4.50
   8   0   3   16.00    7.10
  -8   8   3   15.70   19.60
  -8   8  -3   12.70    8.70
   0   8   3   16.60    7.80
   0   8  -3   12.80    7.80
   0   8   3   12.50    5.60
   8   0  -3   18.70    9.70
   0   8  -3   16.30    8.30
   8   0   3   14.40   13.10
   5  -9   3  780.52   57.99
   5   4  -3  776.22   53.29
  -5   9   3  795.62   54.19
   5   4  -3  770.82   51.59
  -9   5  -3  767.92   52.99
  -9   4   3  728.13   55.09
  -4   9  -3  784.22   50.69
   5   4  -3  741.03   53.79
   9  -4   3  789.02   52.59
   9  -4   3  741.73   57.79
   9  -5  -3  780.32   55.99
  -5   9   3  806.72   56.69
   4   5   3  785.72   54.79
   9  -5   3  698.23   57.39
   4   5  -3  701.33   52.39
   4   5  -3  708.23   54.29
  -4   9   3  741.63   56.69
   4   5  -3  711.13   51.19
  -9   4  -3  683.33   52.39
  -5   9  -3  747.33   50.79
   5   4   3  690.03   55.49
   4  -9   3  719.83   58.29
  -4   9   3  718.83   52.39
  -9   5   3  712.83   57.29
  -5   9  -3  770.12   53.49
   9  -4  -3  730.13   54.99
   4   5  -3  738.33   50.69
  -3   9  -3  205.58   19.00
   6   3  -3  194.78   21.20
   9  -3   3  193.98   25.60
   6  -9   3  225.18   26.50
   9  -6  -3  246.48   26.90
   9  -3   3  199.58   17.00
   6   3  -3  208.98   20.30
   9  -3   3  218.58   20.30
  -9   6  -3  219.18   21.80
  -6   9   3  188.18   26.00
   3   6   3  223.48   24.10
  -6   9   3  212.18   27.80
   9  -6  -3  203.88   24.60
   6  -9   3  213.48   27.00
   6   3   3  188.98   28.60
   3   6  -3  207.48   19.00
  -9   3  -3  178.18   22.60
  -6   9  -3  211.18   20.00
   9  -6   3  192.38   25.50
  -3   9   3  199.38   24.70
   3   6  -3  197.68   19.80
   3   6  -3  214.78   23.90
  -9   6   3  194.18   26.30
   9  -6   3  194.98   21.10
  -3   9   3  207.58   20.50
   3  -9   3  167.58   26.10
   9  -3  -3  217.08   22.60
  -9   6   3  187.08   28.80
   3   6  -3  191.68   21.10
   6   3   3  211.08   26.10
  -6   9  -3  206.88   26.00
  -9   7  -3  555.24   41.20
   2   7   3  552.44   42.50
   9  -7  -3  554.54   50.99
   7  -9   3  545.55   46.00
   2   7   3  576.54   37.30
   9  -7  -3  521.25   45.80
  -7   9   3  559.34   51.59
   7   2  -3  534.55   42.10
  -7   9   3  536.25   47.90
   9  -2   3  562.94   47.40
   9  -2   3  590.64   40.60
  -2   9  -3  555.74   39.40
   7   2  -3  550.74   40.50
  -9   2   3  457.65   45.10
   9  -2   3  577.94   37.50
   2  -9   3  539.95   47.60
   7  -9  -3  581.84   50.89
  -7   9  -3  553.94   40.20
   7   2   3  589.44   48.30
  -2   9   3  567.84   39.00
   2   7  -3  533.45   40.00
  -9   7   3  600.34   54.29
  -2   9   3  577.64   41.90
   7   2   3  549.15   46.90
   2   7  -3  550.54   39.40
  -9   7   3  591.34   44.30
   9  -7   3  552.24   47.00
  -2   9   3  546.25   41.70
   9  -2  -3  625.04   44.30
   9  -7   3  586.94   43.20
  -8   9   3  291.47   36.60
   9  -1   3  341.57   22.40
   9  -1   3  334.57   19.80
  -1   9  -3  313.67   25.50
   1   8   3  329.97   26.60
  -9   8  -3  354.16   26.10
   8  -9   3  363.86   31.40
   9  -8  -3  323.07   31.90
  -1   9  -3  332.37   23.90
   8   1  -3  297.47   26.40
   9  -1   3  392.76   34.70
   8   1  -3  341.27   24.60
   8   1   3  226.48   31.90
  -1   9   3  239.48   23.10
  -1   9   3  238.98   25.30
  -9   8   3  221.98   35.80
  -1   9   3  261.07   24.20
  -1   9   3  261.17   24.10
   9  -8   3  203.68   26.20
   8   1   3  231.08   30.30
   8  -9  -3  230.68   31.60
   1   8  -3  217.58   23.40
   9  -8   3  252.17   30.70
   8   1   3  271.57   22.30
   9  -1  -3  265.17   26.50
  -8   9  -3  244.38   24.80
  -1   9   3  235.48   21.50
   1   8  -3  231.78   22.80
   0   9  -3    6.40    8.70
   0   9   3   16.90    7.30
   0   9   3    3.80    6.60
   0   9   3   11.40    4.60
   0   9   3   19.60   11.00
   9   0   3   10.20    7.30
   9  -9   3    3.80   10.80
   0   9   3   12.50    5.80
  -9   9   3   -5.30   17.30
   9   0   3   15.50   14.20
   9  -9  -3   27.30   15.50
   0   9  -3   10.60    8.10
  -9   9  -3    5.20    9.90
   5 -10   3    5.40   12.10
   5   5  -3   13.10   10.30
  -5  10  -3   14.90    8.30
  10  -5  -3    2.10    9.70
  10  -5   3   15.10    9.30
 -10   5   3    5.40   12.90
  10  -5   3   17.00   13.20
  -5  10   3   21.00   11.10
 -10   5  -3    9.50   11.20
   5   5   3    8.10   12.20
   5   5  -3   12.90    9.30
 -10   6  -3   78.49   14.40
  10  -4   3   66.59   12.50
  -4  10  -3   66.69   11.30
   6   4  -3   72.19   12.50
   6 -10   3   88.69   21.70
  10  -4   3   53.09   16.60
   4   6   3   63.79   14.60
   6   4  -3   70.49   13.90
  -6  10   3   68.09   17.10
  10  -6  -3   71.19   15.20
  -6  10   3   75.49   14.80
   6 -10   3   71.89   17.10
  -6  10  -3   95.79   12.60
 -10   4  -3   93.29   15.50
  10  -6   3   78.49   18.10
  -4  10   3  108.29   16.70
   4   6  -3   83.49   13.20
  -4  10   3   83.39   12.70
   4 -10   3   75.69   18.20
   6   4   3   96.79   17.60
  10  -4  -3   82.49   14.90
 -10   6   3   80.49   19.60
   4   6  -3   77.49   12.70
   7   3  -3 1137.39   74.99
  -7  10   3 1081.19   82.09
  10  -3   3 1144.19   75.39
  10  -3   3 1091.49   72.19
   7   3  -3 1065.39   76.39
  10  -3   3 1071.69   81.89
 -10   7  -3 1135.79   75.99
  -3  10  -3 1031.30   73.69
   7 -10   3 1140.39   81.59
   7 -10   3 1114.39   76.39
  -7  10   3 1044.90   76.99
   3   7   3 1100.79   76.69
  10  -7  -3 1057.09   79.99
  -3  10   3 1176.68   73.99
 -10   3  -3 1150.08   76.69
   3   7  -3 1113.39   74.19
   7   3   3 1191.68   79.49
   3   7  -3 1126.79   74.89
   3 -10   3 1079.19   83.09
  10  -3  -3 1145.09   78.79
  10  -7   3 1071.59   76.79
  -3  10   3 1199.18   76.59
  -7  10  -3 1183.48   78.49
 -10   7   3 1084.89   83.69
 -10   7   3 1139.09   79.79
  10  -7   3 1161.98   82.49
  -7  10  -3 1165.48   74.79
   2   8   3 1769.02  121.59
  10  -8  -3 1939.91  124.29
   8   2  -3 1870.11  122.59
  10  -8  -3 1922.61  127.79
  -2  10  -3 1775.82  119.79
  10  -2   3 1836.32  117.69
   8   2  -3 1883.91  120.79
 -10   8  -3 1923.51  121.69
   2   8   3 1894.31  118.19
  10  -2   3 2017.80  121.29
   8 -10   3 1774.52  126.49
  -8  10   3 1882.31  129.79
  10  -8   3 1760.72  123.49
  10  -2  -3 1726.23  122.99
   2   8  -3 1746.53  119.69
 -10   8   3 1917.81  131.69
 -10   2  -3 1829.92  122.09
  -8  10  -3 1943.31  121.09
   8   2   3 1852.81  124.19
  -2  10   3 1920.81  119.89
  -2  10   3 2006.80  121.59
  -2  10   3 1900.21  119.09
  -2  10   3 1874.21  120.89
   2   8  -3 1779.12  120.29
  -8  10  -3 1894.81  126.69
  10  -1   3 2407.76  145.49
  10  -1   3 2541.75  149.29
   1   9   3 2471.85  147.39
  -1  10  -3 2168.88  147.99
   1   9   3 2221.08  149.69
 -10   9  -3 2360.26  149.69
  10  -1   3 2329.47  145.99
  10  -9  -3 2373.66  154.88
   9   1  -3 2425.76  151.28
  -1  10   3 2254.57  146.29
  -1  10   3 2375.76  146.89
  -9  10  -3 2300.67  149.29
   9   1   3 2289.97  151.68
   9   1   3 2407.96  147.79
  -1  10   3 2436.36  148.69
   1   9  -3 2020.70  148.09
  -1  10   3 2384.06  146.99
   1   9  -3 2061.19  147.89
   0  10   3   47.10    9.00
 -10  10   3   59.79   20.30
 -10  10  -3   46.20   12.70
   0  10   3   36.60   12.10
  10   0  -3   49.10   13.50
   0  10  -3   32.40    9.60
  10   0   3   40.00    9.90
  -5  11  -3   90.79   13.50
  -6  11   3  101.09   15.40
   6   5  -3   96.69   15.20
   5   6   3  104.49   17.30
  11  -5   3   90.49   14.40
 -11   6  -3  102.69   16.80
   6   5  -3   99.79   15.00
 -11   5  -3  172.98   19.20
   6   5   3  157.78   19.50
 -11   6   3  103.89   19.70
  -5  11   3  166.58   18.90
  -6  11  -3  147.59   16.60
  -4  11  -3  119.09   14.90
   7 -11   3  128.49   19.90
 -11   7  -3  159.38   19.10
  -7  11   3  115.19   21.90
  11  -4   3  135.69   14.40
   7   4  -3  120.59   16.40
  -7  11   3  150.08   18.70
   7   4  -3  147.79   20.70
   4   7   3  139.59   19.00
  11  -4   3  137.19   17.90
 -11   4  -3  169.08   20.00
   7   4   3  169.68   21.20
  -7  11  -3  144.99   18.30
  -4  11   3  154.78   20.70
   4   7  -3  140.29   19.20
  -4  11   3  155.28   19.50
 -11   7   3  152.18   24.80
  -4  11   3  158.18   18.70
 -11   7   3  109.09   22.90
   4   7  -3  148.59   19.60
  -3  11  -3  112.29   14.00
   3   8   3  117.99   17.20
  -8  11   3   68.79   19.60
  11  -3   3  116.09   12.40
   8   3  -3  126.29   17.40
   8   3  -3  127.99   16.00
  11  -3   3  114.19   16.60
  -8  11   3   94.89   17.20
 -11   8  -3  134.59   17.40
  -3  11   3  131.39   16.80
   8   3   3  135.89   19.80
  -3  11   3  144.89   15.50
  -8  11  -3  130.69   15.50
   3   8  -3  121.29   15.30
 -11   3  -3  126.99   18.40
 -11   8   3  122.49   23.70
  -3  11   3  109.09   17.10
  11  -2   3  426.46   31.40
   2   9   3  428.06   34.50
  11  -2   3  419.76   26.90
  11  -2   3  414.26   28.00
   9   2  -3  421.56   34.70
 -11   9  -3  435.46   33.80
   2   9   3  409.56   27.60
  -9  11  -3  386.16   32.20
   9   2   3  353.56   35.40
  -2  11   3  388.36   29.30
   2   9  -3  354.26   31.40
  11  -2  -3  380.66   34.20
 -11   9   3  309.57   39.10
   2   9  -3  338.37   30.10
  -2  11   3  374.76   30.50
  -2  11   3  396.56   29.80
  -9  11  -3  373.86   34.80
   1  10   3  564.74   38.90
   1  10   3  561.34   43.50
 -11  10  -3  595.34   43.70
  11  -1   3  600.34   41.20
  10   1  -3  542.65   44.10
  11  -1  -3  549.15   44.10
  -1  11   3  571.54   40.60
  -1  11   3  577.34   38.80
  -1  11   3  588.44   38.40
  -1  11   3  567.94   37.70
  10   1   3  562.64   44.70
  10   1   3  606.34   39.60
 -10  11  -3  566.84   42.70
   0  11   3  270.97   21.50
 -11  11  -3  282.87   26.10
  11   0   3  276.67   22.30
  11   0  -3  274.07   27.00
   6   6   3  283.67   30.50
 -12   6  -3  303.77   29.50
   6   6  -3  281.37   26.90
   6   6  -3  325.27   27.50
  -6  12  -3  275.67   24.50
  -6  12   3  274.77   26.80
   7   5  -3  362.66   31.80
  12  -5   3  331.37   29.90
  -7  12   3  375.26   32.00
   5   7   3  393.16   34.00
   7 -12   3  342.37   33.30
   7   5  -3  386.56   30.80
  12  -5   3  350.26   29.90
 -12   7  -3  386.06   32.90
  -5  12  -3  360.46   29.00
  12  -4   3   16.50    9.30
  -8  12   3   22.40   12.30
   4   8   3   30.30   13.00
 -12   8  -3   36.60   12.90
   8   4  -3   24.30   11.90
  12  -4   3   25.90    6.80
   8   4   3   48.80   14.50
  -4  12   3   53.89   11.80
  -4  12   3   44.90   11.40
   4   8  -3   42.70   11.70
 -12   4  -3   39.50   14.00
  -8  12  -3   47.60   11.20
  -4  12   3   42.20   10.10
 -12   9  -3 1193.98   76.89
  12  -3   3 1139.59   72.79
   3   9   3 1164.78   77.29
   9   3  -3 1166.98   77.39
  12  -3   3 1103.69   75.69
  12  -3   3 1109.49   72.09
  -3  12   3 1156.58   73.79
  -3  12   3 1123.29   75.69
  12  -3  -3 1091.69   76.69
   3   9  -3 1132.59   75.59
 -12   3  -3 1086.29   76.79
  -9  12  -3 1117.39   75.39
   9   3   3 1126.79   77.99
  -3  12   3 1140.39   74.09
   2  10   3  212.68   16.80
   2  10   3  222.78   24.90
 -12  10  -3  253.27   25.00
  12  -2   3  213.88   20.50
  10   2  -3  217.98   24.60
  -2  12   3  234.68   20.70
  -2  12   3  214.68   18.20
  -2  12   3  226.58   19.40
 -10  12  -3  218.68   22.20
  -2  12   3  244.88   17.50
  12  -2  -3  222.78   24.30
  10   2   3  204.38   26.00
  11   1  -3  191.18   22.20
   1  11   3  159.98   14.40
  12  -1   3  167.98   16.30
 -12  11  -3  166.28   20.60
   0  12   3   -4.50    5.60
  12   0  -3   -3.20   10.00
  -7  13   3  142.69   17.00
   6   7   3  130.69   18.70
 -13   7  -3  158.78   19.30
   7   6  -3  117.69   16.10
  13  -6   3  122.69   17.40
   7   6  -3  115.59   16.60
   6   7  -3  159.88   18.90
   6   7  -3  161.58   17.10
 -13   6  -3  193.28   22.30
   7   6   3  188.58   23.80
  -6  13   3  209.98   20.70
   6   7  -3  154.68   18.80
  -8  13   3  148.79   20.60
   8   5  -3  130.59   16.30
  13  -5   3  120.89   16.80
   5   8   3  131.49   17.70
 -13   8  -3  148.49   18.20
  13  -5   3  127.29   13.50
   8   5  -3  143.79   20.10
 -13   5  -3  154.48   18.50
   5   8  -3  122.19   15.90
   5   8  -3  134.09   17.70
  -5  13   3  156.48   18.90
   8   5   3  167.28   23.20
  -5  13   3  151.18   18.10
   5   8  -3  123.49   15.30
  13  -4   3  293.67   26.70
   9   4  -3  343.37   29.80
  13  -4   3  325.37   23.80
  13  -4   3  312.37   23.10
   9   4  -3  314.67   26.80
   4   9   3  324.07   30.30
 -13   9  -3  316.97   29.10
  -9  13   3  365.26   30.10
 -13   4  -3  314.37   32.40
  -4  13   3  338.07   25.60
   4   9  -3  311.07   26.90
   9   4   3  365.56   31.30
  -9  13  -3  307.77   32.70
  -4  13   3  365.16   27.70
  -4  13   3  356.06   26.80
  10   3  -3  811.52   57.59
  13  -3   3  840.02   57.19
  10   3  -3  911.01   59.59
   3  10   3  791.82   58.69
  -3  13   3  832.42   54.89
  -3  13   3  867.21   55.79
  -3  13   3  850.71   57.29
  -3  13   3  862.81   54.59
  13  -3  -3  829.92   61.39
  10   3   3  867.21   59.69
   2  11   3  102.09   15.00
  11   2  -3  107.09   15.30
  11   2  -3   69.69   14.50
  13  -2   3  109.99   12.90
  11   2   3  110.69   15.30
  -2  13   3  103.89   12.80
  13  -2  -3  113.09   14.50
  13  -1   3   21.60    5.80
  12   1  -3   26.20   10.40
  12   1  -3   26.60    7.10
  13  -1  -3    2.20    9.40
  13   0  -3    1.00    5.60
  13   0  -3    7.90    8.20
   7   7  -3  216.68   21.40
  -7  14   3  227.68   22.40
   7   7   3  213.48   24.20
   7   7  -3  208.18   19.30
   7   7  -3  204.58   17.70
  14  -6   3   61.29   11.30
   6   8   3   73.39   14.10
   8   6  -3   56.69   11.90
  -8  14   3   70.69   12.40
  14  -6   3   62.29    8.20
   8   6  -3   61.49   10.60
   8   6  -3   62.59    8.80
   6   8  -3   69.79   11.10
   8   6   3   91.79   14.60
   6   8  -3   66.39    8.80
  -6  14   3   86.19   11.80
   6   8  -3   68.69   10.80
  14  -5   3  689.13   50.79
  14  -5   3  702.93   47.70
   9   5  -3  702.83   50.49
   9   5  -3  690.43   48.50
   5   9   3  720.73   52.39
   9   5  -3  720.03   51.59
  -9  14   3  729.53   51.79
  -5  14   3  780.12   49.20
   5   9  -3  750.02   48.70
   5   9  -3  749.33   50.69
   9   5   3  807.82   53.09
  -5  14   3  830.32   50.19
  -5  14   3  783.22   51.29
  10   4  -3    0.20    7.10
  10   4  -3    5.50    5.80
   4  10   3   -1.20   10.40
  14  -4   3   10.10    7.50
  10   4  -3    3.90    9.20
   4  10  -3    8.90    6.30
   4  10  -3    0.00    7.20
  -4  14   3    1.90    5.70
  -4  14   3    4.90    5.10
  -4  14   3    3.50    7.70
  10   4   3   10.20   10.80
  11   3  -3  171.98   16.00
  11   3  -3  198.08   14.60
  11   3  -3  201.98   19.10
  14  -3   3  188.08   15.30
   3  11  -3  132.59   14.40
  -3  14   3  150.88   14.90
  11   3   3  161.08   19.30
   3  11  -3  132.79   15.90
  12   2  -3  101.99   14.30
  12   2  -3   98.59   10.20
  12   2  -3   93.89   11.80
  -2  14   3   74.79    9.60
   2  12  -3   88.39   10.60
   2  12  -3   70.59   11.80
  13   1  -3   57.49    9.30
  13   1  -3   56.79    6.10
   8   7  -3   21.50    7.00
  -8  15   3   12.90    8.70
   8   7  -3   23.00    8.30
  15  -7   3    8.60    7.30
   8   7  -3   17.20    4.70
   8   7  -3   12.20    4.80
   7   8   3   14.80   10.60
  15  -7   3   18.20    5.30
  -7  15   3    9.60    7.20
   7   8  -3   12.60    7.90
   7   8  -3    9.90    6.60
  -7  15   3    2.00    7.70
   7   8  -3    7.70    4.70
   7   8  -3    7.00    4.60
   8   7   3   12.40   10.10
  15  -8   3    1.30    5.30
  -9  15   3   17.40    9.10
   9   6  -3   22.60    5.00
   9   6  -3   25.20    4.80
   9   6  -3   16.60    8.40
   6   9   3   27.30   10.50
  15  -6   3   26.70    4.30
   9   6  -3   21.40    7.20
  15  -6   3   24.10    7.80
   6   9  -3   24.20    5.00
   6   9  -3   16.00    6.70
   9   6   3   29.80   10.50
  -6  15   3   29.70    7.70
   6   9  -3   19.30    5.10
  -6  15   3   14.80    7.70
  -6  15   3   27.80    6.50
  10   5  -3  118.39   15.20
   5  10   3  116.19   14.30
  15  -5   3  113.09   12.70
  10   5  -3  110.09   12.60
  -5  15   3  125.39   12.90
   5  10  -3  127.69   10.70
   5  10  -3  122.99   12.50
  10   5   3  139.29   17.20
  15  -4   3   20.20    5.40
  11   4  -3   26.80    8.20
  11   4  -3   25.00    6.80
  -4  15   3   26.80    6.40
  11   4   3   28.90    9.60
   4  11  -3   23.80    6.70
  12   3  -3   80.19   13.70
  -3  15   3   67.59    9.50
   0   0  -4 9999.00  610.14
   0   0   4 9567.84  609.44
   0   0   4 9768.32  609.54
   1  -1   4 1070.29   74.49
   1  -1   4 1114.89   75.39
   0  -1   4 1214.98   75.69
  -1   0  -4 1166.88   75.69
   0   1   4 1172.08   75.59
   1  -1  -4 1232.38   76.59
  -1   0   4 1174.68   75.69
   0   1  -4 1221.18   76.69
   0   1   4 1157.98   74.79
   0  -1  -4 1209.18   75.99
   0  -1   4 1131.99   75.79
   1   0   4 1126.59   75.39
   1   0   4 1176.88   74.89
  -1   1   4 1151.58   75.69
  -1   1   4 1151.08   75.59
   1  -1   4 1149.98   75.59
  -1   1  -4 1252.47   76.49
   1   0  -4 1189.58   76.69
   1   0   4 1101.19   74.89
  -1   0   4 1189.98   76.19
  -1  -1   4   32.90    6.80
   1   1   4   26.40    4.40
  -1   2  -4   25.60    7.50
   1   1   4   30.40    6.60
   2  -1   4   25.00    6.70
   1  -2   4   32.20    7.20
  -1  -1   4   28.00    6.90
   1  -2   4   25.20    6.70
  -1   2   4   32.70    7.00
  -1  -1   4   25.40    8.30
   1   1  -4   18.40    7.40
  -1  -1   4   26.40    7.80
   2  -1   4   23.20    6.50
   1   1  -4   25.30    4.90
  -2   1   4   29.60    6.80
   1  -2   4   22.50    5.70
   1  -2  -4   20.30    6.90
  -2   1  -4   18.70    6.70
  -1   2   4   25.90    6.40
   2  -1  -4   24.30    7.50
  -2   1   4   32.30    7.40
   2  -1   4   28.00    6.10
  -1   2  -4   31.30    5.40
   1   1   4   23.30    6.60
   2  -2   4 1999.90  134.59
   0   2   4 2048.79  133.09
   2  -2   4 2232.98  135.29
  -2   2   4 2171.28  135.19
  -2   0   4 2194.58  134.89
   0  -2   4 2068.79  135.39
   2   0   4 2101.39  133.19
   2   0  -4 1999.90  132.89
  -2   2  -4 2126.59  135.79
  -2   0   4 2166.98  135.79
   0  -2   4 2222.38  134.99
   0   2  -4 2127.89  136.09
   2   0   4 2026.20  134.99
   0  -2   4 2109.09  135.19
   2   0   4 2087.59  134.59
  -2   0   4 2146.19  134.99
  -2   2  -4 2091.89  133.19
  -2   0   4 2083.69  135.39
   0   2  -4 2104.09  133.09
  -2   2   4 2116.29  135.09
   0   2   4 2207.18  134.79
   0  -2   4 2123.69  134.89
   2   0  -4 2236.58  136.49
   2  -2   4 2165.58  135.09
   2  -2  -4 2090.19  135.69
  -2   3   4  336.57   25.80
   2   1  -4  352.76   27.50
   1   2   4  358.16   26.70
  -3   1   4  354.86   28.50
  -3   2  -4  341.07   27.30
   3  -1   4  334.77   26.80
  -3   1   4  367.66   27.40
   3  -1   4  363.66   24.40
   1   2   4  379.46   25.70
  -1  -2   4  371.16   27.10
  -3   2  -4  348.67   24.30
   2  -3   4  406.76   27.40
   3  -2  -4  387.26   28.10
   2   1  -4  374.16   24.10
  -3   1   4  378.06   27.40
   3  -1   4  381.36   26.70
  -1   3  -4  364.76   24.20
  -1   3  -4  376.46   28.20
  -3   1   4  374.66   26.30
   2  -3   4  380.66   27.10
  -1  -2   4  381.56   29.50
  -1  -2   4  399.16   26.30
  -2   3   4  391.36   27.00
   3  -2   4  311.77   25.80
   1  -3   4  353.46   26.70
  -2  -1   4  325.57   28.30
  -2  -1   4  338.67   27.10
   2   1   4  322.07   26.90
  -2  -1   4  340.17   25.80
  -1   3   4  342.27   24.50
   1  -3   4  345.57   26.70
   2  -3  -4  297.87   26.60
   3  -1  -4  336.37   27.50
   3  -1  -4  313.97   23.60
  -2   3  -4  345.87   27.90
  -2   3  -4  315.97   24.10
   3  -2   4  316.67   26.50
  -3   2   4  315.87   26.90
   1  -3   4  349.47   27.60
   1   2  -4  347.87   24.00
   1  -3   4  352.06   27.50
   2   1   4  340.17   25.60
   1   2  -4  300.37   27.00
   3  -2   4  350.36   26.80
  -1   3   4  328.47   26.00
  -3   2   4  351.36   26.60
  -3   0   4   74.39    9.70
  -3   0   4   54.19    9.60
   0  -3   4   58.79   12.10
  -3   3  -4   63.89   11.60
   0  -3   4   71.59   10.20
   3   0   4   59.49    9.50
  -3   3  -4   63.59    8.00
  -3   3   4   54.79   10.20
   3   0   4   61.99   10.60
   3  -3   4   68.39   10.30
   0   3  -4   68.69   11.70
   3   0  -4   62.59    7.30
   0   3   4   60.39    9.00
  -3   0   4   49.60   10.80
   3  -3   4   70.59   11.30
   3   0  -4   89.89   12.40
   3  -3   4   60.09   10.10
   0  -3   4   56.69    9.70
   0   3  -4   69.99    8.20
  -3   3   4   57.89   10.10
   3  -3  -4   54.79   10.90
   4  -2  -4 2106.29  133.29
   2  -4   4 2117.39  131.79
   2   2   4 2002.70  130.59
   4  -2   4 2032.30  130.39
   2   2  -4 2126.29  133.29
  -4   2  -4 1941.51  129.89
  -2  -2   4 2149.78  131.19
   4  -2   4 2062.99  132.39
  -4   2   4 1977.20  133.19
  -4   2   4 2140.59  131.89
   2  -4   4 2189.48  132.69
  -2   4   4 2010.50  130.59
   2   2  -4 2049.89  129.69
  -2   4  -4 2113.89  133.99
   4  -2   4 2019.80  132.79
  -2  -2   4 2037.20  132.69
  -2   4   4 2139.29  132.09
   2  -4   4 2057.89  131.19
  -2   4  -4 1992.00  129.69
  -4   2   4 1999.20  132.89
  -4   2   4 2089.69  132.09
   2   2   4 2051.49  132.79
   2  -4   4 1961.00  132.59
  -4   1   4 2020.40  116.99
  -3   4   4 2162.18  118.59
  -1   4  -4 1920.71  114.79
  -4   1   4 1907.71  117.99
   1   3   4 1929.21  115.89
  -1  -3   4 2102.39  116.79
  -1  -3   4 2003.00  118.19
  -1   4  -4 1984.20  119.19
   3  -4   4 1981.40  118.29
   3  -4   4 2188.38  118.99
   3   1  -4 1979.90  114.89
   4  -1   4 1979.70  117.39
   4  -1   4 1951.50  118.49
  -3   4   4 1949.80  117.69
  -4   3  -4 1905.81  115.19
   4  -3  -4 1983.10  118.79
  -4   3  -4 1999.50  119.19
   3   1  -4 2042.70  118.69
  -4   1   4 1932.11  118.59
   4  -3   4 1704.03  117.79
  -4   3   4 1707.93  117.59
   3   1   4 1683.93  117.99
   4  -3   4 1645.44  117.49
   4  -1  -4 1701.63  118.09
   1  -4   4 1551.64  117.19
  -3  -1   4 1598.14  117.59
   1  -4   4 1595.74  118.49
   1  -4   4 1748.13  116.99
  -3   4  -4 1715.73  119.09
   1   3  -4 1708.23  117.99
   4  -3   4 1640.74  116.49
  -3   4  -4 1599.64  114.79
   1   3  -4 1669.83  114.59
  -3  -1   4 1655.93  115.99
  -1   4   4 1658.23  116.09
  -4   1  -4 1529.85  114.69
   3   1   4 1650.23  115.79
   3  -4  -4 1589.24  117.99
  -4   4   4 1311.57   85.39
  -4   0   4 1275.67   84.89
   4   0  -4 1230.48   81.19
   4   0  -4 1323.17   85.29
   0   4   4 1293.87   82.49
   0  -4   4 1275.07   84.49
   4  -4  -4 1201.58   85.39
   4  -4   4 1273.87   84.69
  -4   4  -4 1253.47   81.69
  -4   4  -4 1217.48   85.99
   4  -4   4 1342.77   85.79
   0  -4   4 1389.76   83.79
   0   4  -4 1271.67   81.29
   0   4  -4 1237.28   85.09
   4   0   4 1284.57   85.29
   4   0   4 1210.68   82.99
  -4   0   4 1276.57   82.89
  -5   2   4 3741.53  243.68
   3  -5   4 3546.35  243.68
  -2   5  -4 3654.23  240.48
  -5   2   4 3565.04  244.48
  -2   5  -4 3569.44  245.08
   3  -5   4 3638.34  241.98
   3  -5   4 3832.82  244.48
  -3   5   4 3702.33  243.48
   3  -5   4 3889.01  241.78
   3   2  -4 3694.53  240.38
   3   2  -4 3843.52  244.08
  -2  -3   4 3669.23  241.68
   5  -2   4 3726.43  244.28
  -2  -3   4 3703.63  243.68
  -5   2   4 3597.24  242.68
  -5   3  -4 3534.45  240.88
   5  -3  -4 3518.05  243.88
  -3   5   4 3715.23  242.38
   5  -2   4 3612.04  243.68
   2   3  -4 4015.90  244.48
   2  -5   4 3907.01  244.18
   3   2   4 4088.99  244.68
  -2   5   4 3868.01  240.58
   5  -3   4 3959.40  244.88
  -3   5  -4 3988.90  245.98
   5  -3   4 4012.20  244.48
  -2   5   4 3966.30  242.78
  -5   2  -4 3872.51  241.28
  -5   3   4 4076.39  242.68
   2  -5   4 3798.72  244.68
  -5   3   4 4131.89  244.28
  -5   3   4 3865.11  245.28
   2  -5   4 4326.67  244.58
   5  -3   4 3946.91  241.68
   5  -2  -4 3931.61  244.38
  -3  -2   4 4061.69  244.38
   2   3  -4 4130.19  240.68
  -3   5  -4 3954.30  240.68
  -3  -2   4 4135.39  241.98
   4  -5   4   14.80    8.90
   5  -1   4    7.10    9.00
   5  -1   4   44.50   10.80
   5  -4  -4   20.20    9.70
  -1   5  -4   14.80    9.20
   4   1  -4   18.10    8.10
  -5   4  -4   16.40    6.60
  -4   5   4   22.80   10.40
   4  -5   4    6.70   10.40
  -5   1   4   -1.20    7.30
  -1   5  -4   17.20    5.50
  -1   5  -4   28.00   13.70
  -5   1   4   25.30    7.60
  -1  -4   4   15.00    7.20
  -1  -4   4   23.50    8.00
   4   1  -4   14.70    5.40
   1  -5   4   24.30    9.30
   5  -1  -4   11.10    8.10
   1  -5   4   14.30    7.70
   4   1   4    9.60    9.60
   1   4  -4   12.60    5.10
  -4   5  -4   15.80    6.10
  -1   5   4   10.70    6.60
  -5   4   4   -5.30    9.10
  -4  -1   4   12.10    8.20
  -4  -1   4    8.20    6.10
   1   4  -4   22.80    9.50
   5  -4   4   18.50    7.70
  -5   1  -4   15.90    9.00
  -4   5  -4   15.20   10.20
   5  -4   4   -7.30    7.50
   4  -5  -4   16.00   10.30
   0  -5   4  305.47   26.40
  -5   5  -4  313.87   24.00
  -5   0   4  313.67   27.50
   5  -5   4  298.47   26.30
   5  -5  -4  288.97   29.30
   0   5  -4  314.17   23.00
  -5   0   4  314.97   24.40
   0   5  -4  335.67   28.60
   5   0  -4  330.77   27.50
   5   0   4  318.07   28.70
  -5   5   4  294.07   31.30
   0  -5   4  303.67   26.40
  -6   3  -4  115.79   13.80
  -3  -3   4  125.99   16.00
   3  -6   4  103.09   17.70
  -3   6  -4  113.19   12.40
   3  -6   4   87.89   14.50
  -3   6   4  121.79   13.00
  -3   6  -4  129.79   19.00
   3   3  -4   96.39   14.30
   6  -3  -4  111.59   15.50
  -6   3   4  115.29   15.70
   6  -3   4  113.09   16.50
  -6   3   4  115.19   16.10
  -3   6   4  122.29   15.80
   3   3  -4  117.09   12.10
  -2   6  -4 1220.58   77.79
   4   2  -4 1234.28   71.19
   6  -4  -4 1199.78   76.39
  -6   4  -4 1187.48   72.29
   4  -6   4 1250.17   76.89
  -2   6  -4 1203.38   70.99
   4  -6   4 1222.38   72.69
   4   2  -4 1184.78   75.39
   4  -6   4 1193.78   71.59
  -2   6  -4 1112.09   76.79
  -6   2   4 1265.47   77.49
  -4   6   4 1216.98   76.79
  -6   2   4 1243.88   74.19
   6  -2   4 1187.28   76.39
  -2  -4   4 1150.88   74.89
   6  -4   4 1041.40   75.49
  -4  -2   4  955.00   74.39
   2  -6   4  983.60   75.49
   4   2   4 1040.80   75.79
  -6   4   4  972.00   75.79
   2   4  -4 1012.80   74.69
  -6   4   4  989.60   75.79
   2   4  -4 1002.30   70.69
   2  -6   4  980.90   74.89
  -2   6   4  948.31   72.49
  -6   2  -4  900.41   72.19
  -4   6  -4 1032.50   71.09
  -6   4   4 1002.00   73.49
   6  -4   4  981.70   71.99
   6  -2  -4 1001.30   74.69
   5  -6   4 2605.54  153.78
  -6   1   4 2459.65  150.98
  -1   6  -4 2712.93  156.08
   6  -5  -4 2411.86  154.88
   6  -1   4 2609.94  154.78
  -1  -5   4 2249.07  152.78
  -5   6   4 2531.95  156.78
  -6   1   4 2439.46  154.08
  -6   5  -4 2444.36  149.79
  -1   6  -4 2585.74  149.19
   5   1  -4 2699.13  153.78
   1   5  -4 2249.77  153.48
   1  -6   4 2184.38  152.78
   5   1   4 2317.27  154.28
  -5  -1   4 2065.59  152.58
   6  -5   4 2305.87  151.58
   6  -5   4 2254.67  153.48
  -5   6  -4 2105.59  148.99
   6  -1  -4 2349.26  153.58
   6  -1  -4 2255.77  152.08
   5  -6  -4 2070.59  154.78
   1  -6   4 2167.28  152.98
   1   5  -4 2336.77  148.99
  -6   5   4 2152.08  155.68
   6   0   4 3713.63  228.98
  -6   0   4 3431.26  227.58
   6  -6  -4 3361.46  229.18
   0   6   4 3295.57  222.28
   6  -6   4 3705.23  226.98
  -6   6   4 3130.19  230.98
   0   6  -4 3746.73  223.08
   6   0  -4 3763.02  227.48
  -6   6  -4 3590.84  223.58
   0  -6   4 3510.15  227.48
   0   6  -4 3667.93  229.08
  -4   7   4 1017.30   69.79
   4   3  -4 1089.79   66.19
  -3   7  -4 1098.89   66.19
   4  -7   4 1110.99   71.59
   7  -3   4 1107.19   72.49
   4   3  -4 1102.39   70.79
  -4   7   4 1186.68   72.29
  -3   7  -4 1127.69   71.89
  -3  -4   4 1020.40   70.19
   4  -7   4 1108.09   72.79
  -7   4  -4 1066.79   67.99
  -7   3   4 1051.69   70.19
   7  -4  -4 1110.19   71.69
  -4   7  -4  934.81   65.89
  -7   3  -4  904.41   67.89
   3  -7   4  994.70   71.39
  -7   4   4  976.90   71.29
  -7   4   4 1019.30   70.89
   4   3   4  925.41   71.49
   7  -3  -4  989.10   70.69
  -3   7   4  937.61   68.69
   3   4  -4  931.81   65.69
  -4  -3   4  854.41   69.39
   3   4  -4 1021.90   70.39
  -3   7   4  827.82   68.39
   3  -7   4  886.61   76.19
   7  -4   4  951.30   71.29
  -7   2   4  195.38   24.80
  -5   7   4  216.48   27.20
   7  -2   4  213.68   24.60
  -5   7   4  176.38   25.80
  -7   2   4  155.38   19.80
   5   2  -4  221.18   22.10
   7  -5  -4  211.48   24.90
  -2   7  -4  204.88   18.10
  -2  -5   4  166.08   21.80
  -7   5  -4  208.08   20.90
   5  -7   4  183.18   23.10
   7  -2  -4  238.38   21.90
  -5   7  -4  225.18   19.10
  -7   5   4  204.48   27.60
  -2   7   4  207.08   22.40
  -5  -2   4  229.78   23.20
   2   5  -4  222.68   18.10
   2  -7   4  193.78   22.50
  -7   5   4  222.28   22.20
  -7   2  -4  195.58   22.90
   7  -5   4  212.48   19.90
  -7   5   4  221.68   25.60
   7  -2  -4  225.08   23.60
   2   5  -4  224.18   23.70
   5   2   4  204.58   24.00
   7  -5   4  227.08   24.70
   1   6   4  746.83   55.19
  -7   1   4  687.33   57.49
  -1   7  -4  725.93   59.49
  -1   7  -4  762.12   52.59
  -6   7   4  724.43   63.49
  -1  -6   4  700.63   56.99
  -6   7   4  620.44   57.09
  -7   6  -4  703.43   53.29
   7  -6  -4  692.53   59.39
   7  -1   4  797.42   59.19
   6  -7   4  771.92   57.19
   6   1  -4  746.63   56.39
   7  -1   4  729.43   50.59
   7  -6   4  897.31   56.49
   1   6  -4  858.41   59.59
  -6  -1   4  867.11   58.49
  -1   7   4  672.93   56.29
   1   6  -4  825.22   52.99
   7  -1  -4  970.50   58.79
  -7   6   4  827.82   65.89
   1   6  -4  903.61   53.19
   6   1   4  848.12   59.49
   7  -6   4  840.52   59.09
  -6   7  -4  847.12   53.39
   6  -7  -4  843.82   62.89
  -1   7   4  786.32   52.29
  -1   7   4  867.21   53.39
   1  -7   4  895.81   59.09
  -7   0   4   89.99   16.30
   0   7   4  105.79   14.80
  -7   7  -4   87.49   12.50
   0   7  -4  110.69   19.00
   0   7   4   83.89   14.50
   0   7   4   87.39    9.80
   7   0   4  100.49   18.50
   0   7  -4   92.99   11.60
   7   0   4   58.69   12.70
   0  -7   4   77.09   15.40
  -7   7   4   78.39   24.80
   7   0  -4  112.09   16.00
   7  -7  -4   87.29   20.20
   0   7   4   95.09   10.30
   7   0  -4   95.59   11.90
   7  -7   4  117.09   16.60
   0   7   4   89.59   11.40
   8  -4  -4  836.12   59.39
   4   4  -4  797.22   57.99
  -4   8   4  808.12   58.09
  -8   4   4  780.52   59.09
  -4   8  -4  841.22   59.49
   8  -4   4  806.32   60.59
  -4   8   4  730.83   57.49
   4   4   4  759.32   59.99
  -8   4  -4  770.22   56.29
  -4  -4   4  772.72   58.19
   4  -8   4  763.82   60.49
  -4   8  -4  788.52   53.79
   4   4  -4  801.32   53.59
   4   4  -4  778.42   53.79
   8  -4   4  876.31   57.39
   4  -8   4  907.71   65.59
   5   3  -4  502.85   42.60
   5  -8   4  468.45   39.70
   5  -8   4  527.35   44.50
  -5   8   4  559.04   46.70
   3   5   4  510.75   43.30
  -8   3   4  514.95   46.00
   8  -3   4  524.45   45.10
   8  -5  -4  489.85   43.70
  -8   3   4  444.86   41.40
   5  -8   4  557.04   42.80
  -3   8  -4  490.45   38.40
   8  -3   4  458.95   37.50
  -8   5  -4  490.35   40.90
   5   3  -4  494.25   39.00
   8  -3   4  540.05   42.40
  -3  -5   4  446.76   42.70
   3   5  -4  626.24   39.00
  -8   5   4  683.53   45.70
   8  -5   4  657.53   47.20
  -8   5   4  752.52   50.09
   5   3   4  499.55   48.00
  -8   3  -4  589.94   42.90
   8  -3  -4  705.63   45.70
   3   5  -4  624.34   44.80
  -3   8   4  640.74   42.40
   3  -8   4  616.04   46.20
   3   5  -4  636.04   39.50
  -5   8  -4  654.83   39.60
  -3   8   4  510.45   46.50
  -5  -3   4  625.44   44.60
   6  -8   4  684.63   48.80
   8  -6  -4  679.33   49.70
   6   2  -4  658.53   43.00
  -6   8   4  668.93   53.99
  -2  -6   4  638.84   48.00
   2   6   4  686.63   46.20
  -2   8  -4  686.93   42.60
  -8   2   4  629.24   49.60
  -8   6  -4  671.03   44.50
   8  -2   4  668.23   50.09
   6   2  -4  747.13   47.70
   8  -2   4  703.93   46.60
   8  -2   4  662.83   40.40
  -6   8   4  564.64   48.80
  -6  -2   4  479.45   46.70
   2  -8   4  509.05   47.50
   2   6  -4  551.64   42.10
   8  -2  -4  586.14   47.50
   2   6  -4  529.95   42.40
   6   2   4  535.15   49.00
  -8   6   4  532.05   54.29
  -6   8  -4  529.25   42.50
  -2   8   4  547.75   42.80
   8  -6   4  538.35   44.10
   2   6  -4  522.45   47.60
   8  -6   4  565.14   48.70
  -8   1   4    0.80   10.40
  -8   7  -4   16.00    9.60
   8  -1   4    3.30   10.20
   1   7   4   13.80   10.90
   8  -7  -4   26.00   14.50
  -7   8   4   -7.60   18.00
  -1  -7   4    4.40   11.00
   1   7   4   19.10    7.30
   8  -1   4   39.40   14.00
   7   1  -4   15.00    8.10
  -1   8  -4   12.20    7.70
   8  -1   4    7.40    5.00
   7   1  -4    8.70    9.40
   7  -8   4    7.10   10.30
   8  -1   4   10.70    4.60
  -1   8   4   22.20   11.10
   7   1   4    9.50   12.10
  -1   8   4   15.30    7.60
  -7   8  -4   18.60    8.60
   1   7  -4   17.80    8.60
   8  -7   4   17.40   12.20
  -1   8   4   17.10   11.50
   8  -7   4   24.60   10.20
   1   7  -4   12.40    7.60
  -7  -1   4   14.20   11.50
   1   7  -4   13.60   12.60
  -1   8   4   15.20    7.10
   8  -1  -4   16.30   10.30
  -8   7   4  -14.40   18.60
   8  -1  -4   17.70    7.70
   1  -8   4   28.80   13.10
   7  -8  -4   12.00   17.40
   7   1   4   11.10   16.90
   8  -8   4  125.19   18.90
   0  -8   4  105.69   19.20
   0   8  -4  124.89   14.30
   0   8   4  111.39   10.10
   8  -8   4  117.99   20.50
   8   0  -4  117.69   17.50
   8  -8  -4  107.49   23.20
   8   0   4  128.29   21.30
   0   8   4  119.89   11.20
  -8   8  -4  119.09   15.50
   0   8  -4  119.69   14.10
  -8   8   4  112.39   28.20
  -8   0   4  119.99   21.80
   0   8   4  126.99   15.50
   8   0  -4  112.29   13.70
   8   0   4  113.89   17.40
   0   8   4  109.69   15.80
  -9   4   4  802.32   58.89
   5  -9   4  871.91   60.79
   9  -4   4  919.41   57.79
   5   4  -4  868.21   58.99
  -5   9   4  832.32   57.79
   9  -5  -4  826.92   60.09
   9  -5  -4  792.22   55.49
  -9   5  -4  848.22   56.99
   9  -5  -4  919.01   59.09
  -5   9   4  785.52   59.39
   5   4  -4  826.62   54.59
   9  -4   4  783.02   61.29
   4   5   4  829.12   59.59
   5  -9   4  837.72   60.89
  -4   9  -4  788.12   53.79
  -9   4  -4  744.73   57.09
   4   5  -4  742.53   53.99
   4   5  -4  780.32   58.89
   9  -5   4  750.82   61.19
  -4   9   4  801.42   56.29
  -9   5   4  755.02   60.59
  -5   9  -4  751.32   53.89
  -9   5   4  744.73   60.79
   4  -9   4  723.93   60.89
  -4   9   4  702.53   60.79
   9  -4  -4  820.12   59.39
   4   5  -4  762.72   55.69
   4   5  -4  738.83   53.79
   9  -5   4  792.52   57.19
   5   4   4  686.33   60.29
  -5   9  -4  747.73   58.79
  -6   9   4    5.70   13.70
  -3   9  -4    6.50    7.70
   9  -3   4   -2.30   11.70
  -9   3   4    6.40   13.40
   6  -9   4    6.80   11.30
   9  -6  -4    4.40   18.10
   9  -3   4    7.30    5.80
   9  -6  -4   12.20   11.20
  -6   9   4   11.90   15.70
   6   3  -4   -1.00    8.00
  -9   6  -4   14.90   11.10
   6   3  -4   15.80   10.60
   9  -3   4    7.70   10.50
   3   6   4    7.70   12.30
   3   6  -4   11.80    8.40
   6   3   4    5.70   16.70
  -9   6   4   27.30   18.10
   3   6  -4    3.80    7.70
   9  -6   4   14.10   12.80
   9  -3  -4   10.10   10.30
  -9   3  -4    7.00   12.80
  -9   6   4    6.20   11.60
  -3   9   4    5.50   13.60
  -3   9   4   15.10    9.50
   3  -9   4    8.00   13.00
  -6   9  -4   16.50    8.80
   3   6  -4   -0.60   11.60
  -3   9   4   -3.10   12.50
   9  -2   4 1413.16  103.19
   7   2  -4 1436.76   95.89
   9  -2   4 1553.54   93.19
   9  -2   4 1394.76   93.99
   9  -2   4 1561.34   98.59
   2   7   4 1493.45   98.19
  -7   9   4 1407.56  100.09
  -9   2   4 1450.95  102.79
  -7   9   4 1475.95  106.39
  -9   7  -4 1507.85   97.09
   9  -7  -4 1415.86  102.59
  -2   9  -4 1454.35   95.49
   7  -9   4 1542.05  101.99
   7   2  -4 1511.55   99.69
   7   2   4 1226.98  101.39
  -2   9   4 1422.06   95.39
   9  -2  -4 1568.64  100.99
   9  -7   4 1472.35   98.29
   9  -7   4 1503.15  103.79
   7   2   4 1437.96  103.29
   2  -9   4 1401.76  103.19
  -7   9  -4 1585.84   96.69
   2   7  -4 1449.15   95.49
   2   7  -4 1465.75   95.89
  -2   9   4 1486.75   94.59
  -9   7   4 1375.26  108.49
  -2   9   4 1573.34   98.59
  -1   9  -4  102.59   14.40
  -1   9  -4  101.89   13.90
   8   1  -4  106.99   14.30
  -9   8  -4   99.79   15.60
   9  -8  -4  130.19   23.30
   8   1  -4  105.09   17.70
  -8   9   4  126.79   28.30
   8  -9   4  101.79   18.60
   1   8   4  106.39   16.70
   9  -1   4  116.99   18.30
   1   8   4  111.79   12.90
   1  -9   4  130.29   22.20
   1   8  -4  130.89   16.50
  -1   9   4  136.99   12.00
  -1   9   4  135.09   14.00
   8   1   4  163.78   23.30
   9  -8   4  129.99   30.90
  -1   9   4  171.68   17.60
   1   8  -4  128.19   14.90
   9  -8   4  138.79   19.00
  -9   8   4  111.39   29.40
  -8   9  -4  160.88   18.70
   9  -1  -4  136.39   19.00
  -1   9   4  140.29   13.80
   8  -9  -4  116.29   34.70
   0   9   4  255.97   26.80
  -9   9   4  254.47   37.30
   0   9  -4  244.88   23.10
   0   9  -4  234.58   23.50
   9   0   4  271.67   23.30
   0   9   4  267.87   21.40
  -9   9  -4  259.47   25.10
  -5  10  -4   14.50    9.10
  -5  10   4   19.80   11.90
  10  -5   4   11.80   10.90
   5 -10   4   14.30   13.30
   5 -10   4   18.00   17.40
  10  -5  -4   17.30   11.00
   5   5  -4   18.90   10.90
   5   5   4   14.60   15.10
 -10   5  -4   20.70   13.60
   5   5  -4   15.60    9.50
 -10   5   4   28.20   14.70
   6   4  -4  145.49   20.70
  10  -4   4  181.38   21.00
  10  -4   4  148.29   14.80
   4   6   4  137.19   20.20
   6   4  -4  154.18   18.90
  -4  10  -4  140.59   17.20
   6 -10   4  198.68   27.90
 -10   4   4  146.59   25.70
 -10   6  -4  185.68   20.10
  -6  10   4  189.28   24.10
  -6  10   4  158.38   20.00
  10  -6  -4  171.18   26.80
   4 -10   4  113.99   23.30
 -10   4  -4  143.59   20.40
 -10   6   4  126.99   23.30
  -4  10   4  145.19   20.60
  -6  10  -4  138.39   16.60
   4   6  -4  120.59   16.10
 -10   6   4  155.58   22.30
   4   6  -4  108.59   16.50
  10  -4  -4  181.48   24.60
  -4  10   4  129.09   16.30
   6   4   4  134.09   23.00
   7   3  -4  914.41   67.49
  -3  10  -4  883.71   66.59
  -7  10   4  889.81   74.79
  -7  10   4  860.71   69.89
  10  -3   4  970.30   69.29
  10  -3   4  907.01   64.29
 -10   7  -4  887.51   68.29
   3   7   4  844.02   69.29
   7   3  -4  882.11   69.09
  -7  10  -4 1140.49   73.89
   3   7  -4 1100.59   67.39
 -10   3  -4 1054.79   70.59
  -3  10   4 1105.39   66.59
 -10   7   4  980.70   77.79
  -3  10   4 1162.98   70.09
  -7  10  -4 1116.19   67.99
   7   3   4 1092.29   74.39
  -3  10   4 1087.59   67.89
   3   7  -4 1099.89   67.99
  10  -8  -4  262.07   31.90
 -10   8  -4  256.27   26.10
  10  -2   4  252.27   18.20
  -8  10   4  233.98   29.90
  10  -2   4  272.47   25.50
  -2  10  -4  248.18   23.30
  -8  10   4  242.68   32.60
   8   2  -4  241.88   23.70
  -2  10  -4  217.88   22.70
  10  -2   4  211.38   18.60
   2   8   4  221.78   26.40
  -8  10  -4  267.07   24.80
   2   8  -4  264.47   23.80
  -2  10   4  291.87   24.60
  -2  10   4  269.77   23.40
   2   8  -4  250.17   22.80
  -2  10   4  272.07   21.30
 -10   8   4  248.48   36.90
   8   2   4  259.57   32.30
  -2  10   4  266.27   22.10
   1   9   4  224.18   19.70
   1   9   4  225.58   26.50
  -1  10  -4  208.98   23.00
 -10   9  -4  237.98   25.90
  -9  10   4  169.58   31.00
  10  -1   4  240.58   23.90
  -1  10  -4  214.38   23.20
   1   9  -4  277.97   24.40
  -1  10   4  304.77   19.60
 -10   9   4  245.28   34.80
   9   1   4  263.87   30.80
  -1  10   4  266.57   18.40
  -1  10   4  293.97   22.50
  -1  10   4  299.07   20.10
   1   9  -4  257.27   23.20
  -9  10  -4  299.77   26.10
  10   0   4   49.80    9.50
 -10  10  -4   50.99   13.10
   0  10  -4   49.30   11.10
   0  10  -4   39.90   10.60
  10   0  -4   45.50   14.10
   0  10   4   52.59    8.70
   6   5  -4  141.49   20.50
   6   5  -4  168.48   20.20
 -11   6  -4  169.88   20.20
  -5  11  -4  141.09   17.80
   5   6   4  157.18   21.70
  11  -5   4  155.48   16.10
  11  -5   4  141.19   19.80
  -6  11   4  132.79   17.50
 -11   6   4   71.39   21.00
  -5  11   4  152.98   19.40
   5   6  -4  136.99   19.40
  11  -6   4  128.99   19.40
  -6  11  -4  154.78   18.80
 -11   6   4  146.49   23.20
   5 -11   4  142.29   25.40
 -11   5  -4  174.78   21.00
   6   5   4  141.99   22.00
   5   6  -4  158.98   20.10
  -5  11   4  145.99   20.00
   4   7   4  390.36   34.10
 -11   7  -4  384.76   32.50
  11  -4   4  354.16   25.70
  11  -4   4  364.96   30.80
   7   4  -4  384.56   31.80
   7   4  -4  393.46   30.40
  -7  11   4  360.56   32.20
  -4  11  -4  344.67   29.00
  -4  11   4  326.97   28.90
   7   4   4  335.07   36.10
  -4  11   4  332.37   30.70
  -7  11  -4  335.97   29.20
   4   7  -4  367.26   30.40
 -11   4  -4  325.07   32.70
  -4  11   4  353.86   30.80
 -11   7   4  268.57   35.60
   3   8   4  272.37   27.30
  11  -3   4  242.08   18.80
 -11   8  -4  260.17   25.50
  -8  11   4  269.37   27.90
  -3  11  -4  270.77   23.30
   8   3  -4  257.47   24.00
   8   3  -4  258.57   26.50
  11  -3   4  284.47   24.40
  11  -3   4  269.87   18.10
  -3  11   4  213.88   22.20
  -3  11   4  192.48   22.20
  -3  11   4  216.48   23.20
  -8  11  -4  194.88   23.30
   3   8  -4  215.98   23.50
  -3  11   4  214.68   21.00
   8   3   4  202.68   29.80
 -11   9  -4  199.78   22.70
  11  -2   4  185.08   19.30
   2   9   4  178.68   23.10
   9   2  -4  166.78   23.10
  -2  11  -4  174.28   18.70
   9   2   4  165.98   22.00
   2   9  -4  151.78   18.50
  -2  11   4  150.98   17.40
  -2  11   4  150.28   15.40
  -2  11   4  157.18   14.00
  -2  11   4  150.38   15.40
   2   9  -4  163.08   20.00
  -9  11  -4  166.08   20.20
  -1  11  -4    5.10    9.00
   1  10   4    6.90    5.00
 -11  10  -4    6.30   11.30
  11  -1   4    8.50    7.90
  10   1  -4    8.50   11.30
  -1  11   4    5.00    7.00
   1  10  -4    7.00    9.20
  11  -1  -4    2.80   11.20
 -10  11  -4   12.80   10.60
   1  10  -4   -4.50    8.50
  11   0  -4   37.80   12.70
 -11  11  -4   36.60   11.70
   0  11   4   29.60    6.70
  -6  12  -4  656.43   46.60
  -6  12   4  655.73   47.30
   6   6   4  658.43   50.89
   6   6  -4  672.73   47.70
   6   6  -4  661.73   48.00
 -12   6  -4  679.13   49.20
  12  -6   4  643.74   48.40
  12  -5   4  611.14   43.10
   7   5  -4  639.04   42.60
  12  -5   4  605.44   38.50
   7   5  -4  605.94   42.90
  -5  12  -4  605.34   41.20
   5   7   4  632.14   45.70
 -12   7  -4  661.63   44.20
  -7  12   4  609.94   42.80
  -5  12   4  535.05   43.00
  -5  12   4  540.45   40.80
  -7  12  -4  497.95   41.00
 -12   5  -4  494.15   43.40
   5   7  -4  540.05   42.30
   5   7  -4  520.65   41.50
  -5  12   4  484.15   41.90
   7   5   4  510.05   45.60
  -4  12  -4   21.40   10.00
   4   8   4   15.80   12.40
   8   4  -4   18.60   10.90
  -8  12   4   32.00   12.30
   8   4  -4   14.70   10.20
  12  -4   4   19.60    6.10
 -12   8  -4   27.20   12.20
  12  -4   4   13.00    5.40
  12  -4   4   14.20   10.10
  -4  12   4   19.70   10.10
  -4  12   4    8.70    8.70
  -8  12  -4   23.60    9.90
   4   8  -4   15.90   10.60
  -4  12   4   14.80    9.10
   8   4   4    2.40   13.60
  -3  12  -4  102.79   13.80
  -9  12   4  125.39   16.70
  12  -3   4  116.19   16.30
   3   9   4  114.59   16.80
 -12   9  -4  109.39   16.40
   9   3  -4   97.29   15.40
  -3  12   4  102.99   13.10
  -9  12  -4  111.09   14.60
   9   3   4  114.79   18.00
   3   9  -4   95.39   14.30
  12  -3  -4  104.19   16.10
  -3  12   4  106.09   14.90
  -3  12   4  102.69   14.30
  -3  12   4   96.89   11.80
  10   2  -4  258.27   25.70
  12  -2   4  259.87   21.60
 -12  10  -4  225.18   24.50
   2  10   4  228.38   26.30
  -2  12   4  268.57   21.50
 -10  12  -4  235.48   23.70
  10   2   4  254.67   26.60
  12  -2  -4  262.77   26.20
   2  10  -4  252.37   23.50
  11   1  -4  218.88   24.30
  -1  12   4  242.98   18.90
  12  -1  -4  253.17   24.60
  12   0  -4  229.38   23.30
   7   6  -4  142.49   18.90
  13  -6   4  163.98   18.40
  13  -6   4  141.89   13.60
   7   6  -4  146.79   18.70
   6   7   4  161.38   23.50
  -7  13   4  150.38   19.60
   7   6   4  139.99   19.00
   6   7  -4  112.99   17.30
  -6  13   4  143.79   18.80
  13  -7   4  138.09   18.60
   6   7  -4  117.89   15.50
  -6  13   4  125.29   20.10
   5   8   4   43.00   13.50
   8   5  -4   52.99   11.90
  13  -5   4   39.50    6.90
  -8  13   4   61.99   12.40
  13  -5   4   50.99   11.40
  13  -5   4   45.90    6.70
  -5  13   4   38.10    9.30
  -5  13   4   38.20    9.80
   8   5   4   44.40   14.10
  -5  13   4   46.30   11.10
   5   8  -4   33.50   10.70
  13  -4   4  467.85   34.10
   4   9   4  504.75   37.00
   9   4  -4  489.95   36.10
  -9  13   4  526.25   36.50
  -4  13   4  443.06   33.80
   9   4   4  452.65   37.40
  -4  13   4  448.96   32.50
  -4  13   4  446.76   31.40
  -4  13   4  430.16   30.70
   4   9  -4  389.66   33.70
   3  10   4   41.70   12.90
  10   3  -4   47.90   12.00
  13  -3   4   51.89    9.20
  10   3   4   51.39   13.30
   3  10  -4   39.60   10.40
  13  -3  -4   53.99   11.30
  -3  13   4   42.00    9.20
  11   2  -4  246.28   24.10
  -2  13   4  252.37   19.50
  13  -2  -4  269.57   23.60
  12   1  -4  242.58   23.70
  13  -1  -4  302.07   23.70
  13   0  -4  100.29   13.40
   7   7   4    4.70   11.10
  14  -7   4   -0.70    5.20
   7   7  -4    2.70    8.10
  -7  14   4    5.80    8.40
  14  -7   4    4.20    7.60
  14  -6   4  135.49   11.50
   6   8   4  138.89   20.50
  14  -6   4  131.49   15.20
   8   6  -4  132.99   17.00
   8   6  -4  116.69   15.10
  -8  14   4  147.89   18.00
  14  -6   4  156.18   12.30
  -6  14   4  116.19   14.20
  14  -8   4  101.39   15.10
  -6  14   4  132.79   15.70
  -6  14   4  141.39   16.30
   8   6   4  136.49   17.00
  14  -5   4 1024.20   63.99
   9   5  -4 1087.59   65.09
   5   9   4 1115.59   66.29
  -9  14   4 1094.59   64.69
   9   5  -4  948.41   62.99
   9   5   4  880.91   65.29
  -5  14   4  919.51   61.79
  -5  14   4  878.91   61.49
  -5  14   4  919.71   62.49
  -5  14   4  852.41   63.69
 -10  14   4   15.90    9.10
  10   4  -4   13.90    8.80
  10   4  -4   18.90    6.60
  14  -4   4   19.80    6.60
  -4  14   4    4.60    6.70
  10   4   4    5.30    9.90
  11   3  -4  235.58   22.90
  11   3  -4  226.68   20.30
   3  11  -4  309.37   22.90
  -3  14   4  326.57   20.20
  12   2  -4  138.69   15.30
   7   8   4  126.29   16.90
   8   7  -4  118.89   10.20
   8   7  -4  100.69   14.30
  -8  15   4  108.89   13.10
   8   7  -4   86.29   13.50
  15  -8   4  109.59    9.70
  -7  15   4   92.79   12.00
  -7  15   4   92.79   16.30
   7   8  -4  107.19   10.30
  -7  15   4  134.79   11.40
   8   7   4  135.09   16.00
   7   8  -4   71.69   13.40
   9   6  -4   94.09   13.10
   9   6  -4   89.19    9.40
  15  -6   4   81.69   10.70
   6   9  -4   95.49    9.90
   9   6   4  107.59   15.00
  -6  15   4   94.19   11.10
  15  -5   4   43.20    6.80
  10   5  -4   42.00    9.00
  10   5   4   93.49   15.00
  -5  15   4   69.99    9.00
   0   0   5    1.90    5.50
   0   0  -5   -2.20    6.10
   0   0   5    2.10    6.00
  -1   1  -5 3130.39  199.88
  -1   0   5 3204.38  198.98
   1   0   5 3144.69  197.88
   0  -1   5 3139.69  199.18
   0  -1   5 3158.88  198.88
   1  -1   5 3109.39  198.68
   1   0  -5 3022.50  196.28
   1   0   5 3120.09  198.78
   0   1  -5 3241.78  200.28
  -1   0   5 3140.29  199.18
   0   1   5 3124.29  198.78
   0   1   5 3196.78  197.88
  -1   1   5 3082.69  198.68
  -1   1   5 3168.18  198.98
  -1   1  -5 3027.50  196.38
   1   0  -5 3150.28  200.08
   0   1  -5 3115.99  196.48
   1  -1  -5 3182.68  199.98
   1  -1   5 3220.18  198.98
   1   1  -5 2898.81  185.98
   1   1  -5 2896.21  182.18
  -1   2  -5 2804.62  182.08
  -1  -1   5 2855.01  185.08
  -1  -1   5 2867.91  184.28
   1  -2   5 2831.52  184.28
  -1   2   5 2910.71  184.58
  -2   1   5 2955.70  185.18
  -2   1   5 2969.60  184.78
   2  -1  -5 2962.10  186.18
   1   1   5 2839.72  184.08
  -1   2  -5 3055.39  186.28
   1  -2   5 3057.09  185.08
  -1   2   5 2964.80  183.58
   2  -1   5 2794.52  184.28
   2  -1   5 2823.12  183.48
   2  -2   5   39.40    9.10
   0  -2   5   39.70    9.00
  -2   2  -5   55.69    7.10
  -2   0   5   49.30    9.40
   2   0   5   51.39    9.10
   2   0  -5   45.30    6.30
   2   0  -5   36.10    9.80
   2  -2   5   54.09    9.30
  -2   2   5   48.30    9.10
   0   2   5   49.99    9.20
  -2   0   5   46.20    9.80
   2  -2  -5   57.19   10.90
   0  -2   5   37.10    8.70
  -2   2  -5   52.69   10.40
   0   2  -5   53.29   10.60
   0   2   5   40.60    6.50
   0   2  -5   46.20    6.80
  -2   2   5   52.19    9.40
   2   1  -5  806.22   53.99
   3  -1   5  776.12   51.99
   3  -1   5  773.92   52.39
  -3   1   5  832.82   53.49
  -1  -2   5  801.42   51.99
  -1  -2   5  834.52   52.79
  -1  -2   5  847.02   51.99
  -3   2  -5  781.02   49.30
  -3   1   5  791.82   51.99
  -2   3   5  835.52   51.49
   3  -2  -5  825.82   53.99
  -2   3   5  787.42   52.19
   2  -3   5  866.11   52.89
   1   2   5  803.32   51.49
   2  -3   5  813.82   52.59
  -1   3  -5  817.62   54.19
  -1   3  -5  799.12   49.40
  -1  -2   5  816.42   52.89
   2   1  -5  832.52   49.40
  -2  -1   5  681.03   52.49
  -1   3   5  681.83   51.29
   1   2  -5  704.73   53.29
   3  -1  -5  656.23   48.60
  -2   3  -5  690.03   49.10
   1  -3   5  755.52   52.59
   1  -3   5  727.33   52.09
   2   1   5  672.73   50.89
  -2  -1   5  690.33   51.69
   3  -2   5  731.13   51.19
  -3   2   5  726.63   52.59
   3  -2   5  652.13   51.49
  -1   3   5  677.63   49.20
  -2  -1   5  725.93   52.59
  -2   3  -5  693.73   53.29
  -2  -1   5  719.73   51.29
  -3   2   5  672.33   51.59
   1   2  -5  709.53   49.20
   3  -1  -5  689.33   53.49
   3  -3   5   25.20    8.90
  -3   3  -5   27.00    6.10
  -3   3   5   27.90    8.50
   0   3  -5   21.10    5.60
   3  -3  -5   14.80    8.70
  -3   0   5   15.40    8.60
   0  -3   5   25.30    9.50
  -3   3  -5   26.60   10.20
   3   0   5   20.30    8.70
   0   3   5   22.10    7.90
   0  -3   5   22.50    7.80
   0  -3   5   21.10    9.20
   0  -3   5   19.10    8.00
  -3   0   5   19.80   10.00
   3   0   5   10.30    7.30
   0   3  -5   13.60    9.00
  -3   3   5   30.30    8.80
  -3   0   5   41.20    9.60
   3   0  -5   10.10    8.50
   3  -3   5   28.50    8.70
  -3   0   5   30.50    8.20
   3   0  -5   26.10    5.60
   4  -2   5  153.68   17.00
  -4   2   5  104.99   14.80
   2  -4   5  108.79   14.80
  -2   4   5  132.19   13.40
   2  -4   5  135.69   16.40
  -2   4  -5  137.19   18.10
   4  -2  -5  139.49   17.90
   2   2  -5  142.39   17.60
  -2  -2   5  126.49   14.50
  -2  -2   5  111.69   15.00
  -2  -2   5  107.79   17.10
   2   2  -5  139.99   12.60
   4  -2   5  121.19   15.50
  -4   2  -5  132.99   13.30
   2   2   5  131.29   14.20
  -2   4  -5  129.29   12.30
  -2   4   5  110.49   14.60
  -4   2   5  131.59   17.00
  -4   1   5  440.36   31.10
  -4   3  -5  443.36   29.10
   4  -1   5  438.66   32.90
  -4   1   5  453.05   33.60
  -1  -3   5  418.86   34.60
  -4   1   5  439.46   31.80
  -1   4  -5  442.86   34.40
   4  -1   5  456.05   32.10
  -4   1   5  436.96   33.90
   4  -3  -5  431.16   33.70
  -3   4   5  448.16   32.70
  -1  -3   5  455.65   32.70
   3   1  -5  454.15   28.40
   1   3   5  423.66   30.30
   3   1  -5  472.55   33.90
   3  -4   5  429.96   32.80
  -1   4  -5  440.56   28.50
   3  -4   5  431.56   32.30
  -1  -3   5  449.06   31.20
  -3   4   5  439.16   31.20
   1   3  -5  377.46   32.80
   1   3  -5  395.56   28.50
  -3  -1   5  369.36   30.40
   4  -3   5  374.26   32.10
   1  -4   5  360.46   31.70
   4  -3   5  338.37   31.60
   1  -4   5  381.16   30.90
   3   1   5  363.66   32.00
  -4   3   5  354.76   31.60
   4  -3   5  362.46   30.30
   4  -1  -5  380.96   33.50
   1  -4   5  361.86   31.20
   3   1   5  357.46   30.10
  -3  -1   5  346.47   32.50
  -3  -1   5  393.16   32.40
  -4   3   5  363.96   32.30
  -1   4   5  364.36   30.50
   1  -4   5  367.26   31.00
  -3   4  -5  377.96   33.90
  -3   4  -5  346.97   28.20
  -4   0   5  688.33   51.09
   0   4  -5  784.62   52.89
   4   0  -5  804.72   52.79
   4  -4   5  761.22   51.39
   0  -4   5  699.73   53.09
   0  -4   5  673.13   49.80
  -4   0   5  716.53   51.99
   0  -4   5  700.53   50.99
   4  -4   5  726.73   54.19
  -4   0   5  680.13   49.40
  -4   4   5  715.23   51.49
  -4   4  -5  731.03   47.90
   0   4  -5  732.33   47.30
  -4   4   5  687.23   51.49
  -4   4  -5  670.53   52.69
   4  -4  -5  673.13   51.99
   4  -4   5  728.53   51.99
   0   4   5  678.23   49.00
   4   0   5  664.93   49.40
   4   0  -5  698.53   47.00
   4   0   5  717.43   51.99
  -5   2   5  174.58   21.10
  -2   5  -5  175.08   22.20
   3   2  -5  179.58   20.60
   3  -5   5  170.78   20.80
  -2  -3   5  195.28   21.60
   5  -3  -5  160.68   20.50
  -2   5  -5  166.28   15.60
  -5   3  -5  183.88   17.80
  -5   2   5  189.08   19.70
   5  -2   5  191.48   21.00
  -5   2   5  180.48   19.60
  -3   5   5  177.58   24.60
  -2  -3   5  191.48   18.80
   3   2  -5  167.78   15.50
  -3   5   5  165.38   17.20
   5  -2   5  158.88   20.30
   3  -5   5  186.48   21.10
  -3   5   5  177.48   20.30
  -5   2   5  172.28   21.20
   2   3  -5  222.68   23.10
   2  -5   5  190.38   21.10
  -2   5   5  194.48   18.00
  -2   5   5  218.58   19.90
   5  -2  -5  195.88   22.20
  -5   3   5  186.18   21.90
   5  -3   5  176.58   21.40
  -5   3   5  197.38   21.20
  -3  -2   5  186.38   18.80
   5  -3   5  205.08   21.60
   2   3  -5  186.88   16.00
  -3   5  -5  185.88   16.10
  -3   5  -5  174.58   22.60
  -5   2  -5  179.08   18.10
   2  -5   5  187.28   18.40
   2  -5   5  175.18   19.40
   3   2   5  200.48   21.30
   2  -5   5  202.08   20.30
  -3  -2   5  165.28   19.50
   5  -4  -5   25.50   10.70
  -1   5  -5   30.10    6.90
   5  -1   5   32.60   10.40
   1   4   5   31.70    6.30
  -5   1   5   30.70   10.50
  -4   5   5   33.80   11.70
   4  -5   5   11.90   11.40
  -1  -4   5   29.40    9.00
  -1  -4   5   33.40    9.80
  -5   4  -5   29.40    8.00
  -1   5  -5   23.60   11.20
  -5   1   5   23.80   10.90
  -5   1   5   34.00    9.00
   4  -5   5   27.60   10.60
   4   1  -5   22.00    6.30
   4   1  -5   42.70   11.40
  -4   5   5   33.20   10.30
   5  -1   5   36.50   11.70
   1  -5   5   12.90   12.70
   5  -4   5   40.50   11.60
  -5   4   5   15.60   10.60
  -1   5   5   11.40    7.10
   1  -5   5    8.20    8.20
  -5   4   5   13.50   10.50
   1   4  -5   30.30   10.50
   5  -4   5   17.00   11.70
  -1   5   5   16.80    8.10
   4   1   5   18.60    4.60
  -4   5  -5    3.60   10.50
  -4  -1   5   20.30    8.00
   1   4  -5   15.60    6.30
   1  -5   5   17.80    9.60
   4   1   5   16.40    9.70
  -4  -1   5   17.00    9.10
   5  -4   5   13.00    7.90
  -4   5  -5   26.00    7.30
   5  -1  -5   13.90    9.60
   0  -5   5 1431.76  114.59
   0  -5   5 1562.64  103.29
  -5   0   5 1622.64  105.49
   0   5   5 1527.95   99.49
  -5   0   5 1539.65  102.29
   0   5  -5 1610.54  100.19
   5  -5   5 1513.35  103.29
   5  -5  -5 1411.36  105.69
  -5   5  -5 1537.85  100.59
  -5   5   5 1580.04  106.19
   5  -5   5 1482.25  104.39
   0  -5   5 1657.83  105.29
  -5   5   5 1655.93  106.99
   5   0   5 1604.24  105.89
   0   5  -5 1732.73  106.89
  -5   5   5 1409.96  108.79
   5   0  -5 1693.53  105.59
   3  -6   5  172.08   22.30
  -3   6   5  155.78   19.50
   3   3  -5  137.39   19.50
   3  -6   5  159.78   21.00
  -6   3   5  150.38   19.40
  -6   3   5  180.08   22.90
  -3  -3   5  159.08   20.60
   3   3  -5  167.98   20.50
   6  -3   5  133.69   20.00
  -6   3  -5  143.69   18.30
  -3  -3   5  161.58   20.40
  -3   6  -5  150.38   15.50
  -3   6   5  180.78   19.90
   6  -3  -5  173.68   21.30
   3   3  -5  161.98   15.00
  -6   3   5  174.68   20.30
  -6   3   5  173.48   20.10
  -3   6  -5  191.28   24.40
   4   2  -5  127.39   14.30
   6  -2   5  110.09   18.90
   4  -6   5   98.49   18.40
   4   2  -5  117.39   18.00
  -4   6   5  151.58   20.50
  -6   2   5  138.89   17.80
   6  -4  -5  136.29   20.80
  -6   2   5  138.69   20.10
  -6   4  -5  126.59   15.80
  -2  -4   5  136.49   19.30
  -4   6   5  124.69   16.40
  -2   6  -5  114.99   14.60
   2   4   5  141.99   12.90
   4   2  -5  137.79   19.00
  -6   2   5  143.19   19.60
  -4   6   5  129.19   16.80
  -2   6  -5  135.09   21.00
  -6   2   5  126.49   15.70
  -6   4   5  173.08   23.30
   2   4  -5  194.58   22.00
   4   2   5  167.38   13.10
   2  -6   5  184.98   21.30
   2  -6   5  172.98   21.80
  -2   6   5  168.18   17.90
  -6   4   5  156.78   21.30
  -4  -2   5  162.58   20.50
  -4  -2   5  157.08   18.80
   6  -4   5  159.68   21.10
   6  -2  -5  210.88   23.30
  -2   6   5  162.48   18.10
   4   2   5  177.08   21.50
   2   4  -5  163.28   15.10
  -4   6  -5  181.68   15.90
   2  -6   5  197.28   24.10
  -6   1   5 1092.79   66.99
  -6   1   5 1176.58   71.09
  -5   6   5 1236.58   73.59
  -6   5  -5 1156.98   65.79
  -1  -5   5 1177.38   70.09
   6  -1   5 1197.38   71.89
  -5   6   5 1110.89   67.49
  -1   6  -5 1229.38   73.39
   6  -1   5 1066.59   63.09
   6  -5  -5 1082.49   71.79
  -5   6   5 1105.79   70.59
   5  -6   5 1186.98   69.59
   1   5   5 1163.48   67.49
   1   5  -5  896.21   63.79
   6  -5   5  807.72   68.59
   1  -6   5  841.32   68.39
  -5  -1   5  889.61   68.79
   6  -5   5  842.22   65.69
   5   1   5  987.00   62.49
  -5   6  -5  844.92   64.09
   5   1   5  853.61   69.19
  -6   5   5  829.92   70.79
   6  -1  -5  856.01   68.69
  -5  -1   5  886.11   66.69
   1  -6   5  811.12   73.79
  -1   6   5  809.92   64.39
  -1   6   5  906.71   65.29
  -6   5   5  810.72   71.69
  -1   6   5  865.01   62.39
   1   5  -5  862.11   69.19
  -5  -1   5  826.22   66.19
   1  -6   5  928.41   68.69
   0   6  -5   11.60   10.80
  -6   0   5    8.70    9.50
  -6   6   5   -5.10   14.10
   6   0  -5    4.50    6.70
   0   6  -5    8.30    6.70
   0  -6   5   -6.60    7.50
   0   6   5   14.40    8.90
   6  -6  -5    0.50   13.30
  -6   6  -5   10.90    8.30
  -6   6   5    6.90   13.80
   6   0   5   11.80   12.30
  -6   6   5   14.90   11.90
   6  -6   5    1.10    8.20
   6   0   5    5.70    3.30
   6   0   5   10.20    4.40
  -6   0   5    6.00    7.50
  -6   0   5   13.20    6.90
   0   6   5    6.00    4.20
   6  -6   5    6.10   11.40
   6   0  -5    9.10    9.90
   6   0   5    4.90    6.10
   0   6   5   11.20    7.00
   0   6   5    6.20    8.70
   4   3  -5  364.46   26.10
  -3  -4   5  370.26   31.40
  -3  -4   5  352.36   24.10
  -7   3   5  362.26   34.50
   7  -3   5  324.47   25.80
  -4   7   5  401.06   32.80
  -4   7   5  360.96   31.00
  -3   7  -5  355.26   25.40
   7  -3   5  366.86   33.10
   4   3  -5  386.76   25.80
  -7   3   5  375.56   30.70
   7  -3   5  321.67   31.40
   4  -7   5  357.46   32.50
   7  -4  -5  390.26   32.70
   4   3  -5  380.86   31.90
  -4   7   5  320.07   33.60
  -7   4  -5  353.86   29.00
  -7   3   5  400.86   32.60
   3   4   5  348.97   33.40
   7  -4   5  338.07   32.70
  -7   4   5  330.17   32.00
   3   4  -5  304.17   25.70
   3  -7   5  321.77   32.50
  -4   7  -5  308.77   25.70
  -4  -3   5  320.37   30.70
   3   4  -5  344.57   31.40
  -3   7   5  252.97   29.40
   7  -3  -5  339.87   32.10
  -7   3  -5  278.37   28.80
  -3   7   5  311.27   31.90
   3  -7   5  245.28   27.90
  -7   4   5  277.77   34.00
   7  -4   5  295.47   30.10
  -4  -3   5  297.17   23.70
   3  -7   5  301.07   30.80
   4   3   5  240.18   32.10
   3   4  -5  310.57   25.00
  -3   7   5  280.07   28.60
  -7   5  -5  376.36   32.10
   7  -2   5  338.67   34.40
  -7   2   5  388.66   32.80
  -2  -5   5  367.86   34.70
   5   2  -5  373.66   29.80
   7  -2   5  398.66   37.00
   7  -5  -5  400.86   37.50
   2   5   5  389.76   34.70
  -5   7   5  379.26   35.10
   5   2  -5  458.95   36.20
  -2   7  -5  380.06   29.30
  -7   2   5  387.16   37.40
  -5   7   5  349.87   33.10
  -7   2   5  392.16   36.60
   7  -2   5  393.16   28.40
  -5   7   5  435.16   38.80
  -2   7  -5  388.16   38.40
   2   5  -5  420.46   29.90
   7  -2  -5  447.76   37.20
   2   5  -5  440.36   30.00
  -5  -2   5  423.66   28.70
  -5  -2   5  397.76   35.40
   7  -5   5  403.96   37.50
  -2   7   5  410.46   35.30
   2   5  -5  418.26   36.40
  -7   5   5  444.76   40.30
  -2   7   5  362.16   32.70
   2  -7   5  449.66   36.00
   2  -7   5  430.16   45.40
  -2   7   5  415.96   30.00
   5   2   5  406.86   37.40
  -5   7  -5  425.76   30.20
   5   2   5  288.97   39.30
  -7   5   5  417.66   42.90
   6  -7   5 1848.62  121.69
   7  -1   5 1896.31  112.59
   6  -7   5 1996.10  120.19
  -6   7   5 1747.53  124.99
   1   6   5 1668.63  115.29
   1   6   5 1895.41  117.49
  -6   7   5 1718.33  118.39
  -7   6  -5 1857.61  116.09
   7  -1   5 1817.92  112.29
   6   1  -5 1780.32  114.79
  -1  -6   5 1868.81  120.99
  -7   1   5 1899.51  121.69
  -1   7  -5 1861.81  114.89
   7  -1   5 1879.01  122.39
  -7   1   5 1680.83  119.29
   7  -1   5 1842.32  112.39
   7  -6  -5 1958.90  123.99
   7  -1   5 1721.53  116.69
  -6   7   5 1742.53  122.49
   6   1  -5 1979.40  120.99
  -1   7  -5 1989.40  123.79
   6   1   5 1778.62  121.39
  -6   7  -5 1748.33  115.39
  -1   7   5 1605.54  114.49
   6   1   5 1963.10  113.19
  -6  -1   5 1689.53  113.79
   1   6  -5 1724.73  114.69
  -1   7   5 1508.75  117.09
   7  -6   5 1770.42  117.39
   7  -1  -5 1769.52  120.29
  -1   7   5 1830.72  113.09
   1   6  -5 1721.33  114.79
   1   6  -5 1906.41  122.49
  -7   6   5 1603.34  125.19
  -6  -1   5 1726.73  120.79
   1  -7   5 1665.63  120.19
  -7   6   5 1535.45  126.09
   7  -6   5 1686.73  121.09
   0   7   5 2007.70  123.89
   7  -7   5 2029.10  130.99
   7   0   5 2007.20  134.29
   7  -7   5 1994.20  134.19
  -7   0   5 1889.01  133.39
   0  -7   5 1857.31  132.39
  -7   7  -5 1964.70  127.79
   7   0   5 2088.99  126.59
   7   0  -5 1910.71  126.69
   7  -7  -5 1951.70  136.99
   7   0  -5 2122.19  132.89
  -7   7   5 1663.03  137.29
   0   7  -5 2014.30  134.79
   0   7  -5 2058.69  127.19
   8  -4  -5   10.90   11.20
   4   4  -5    1.80    7.10
  -8   4   5    1.60   11.40
   4   4   5   -2.20   16.60
  -8   4   5   -3.10   12.30
  -4   8  -5    1.70    6.90
   8  -4   5   -5.00   12.20
   4  -8   5    6.30   11.70
  -4   8   5   -1.90   15.70
   8  -4   5    8.40   12.40
  -4   8   5  -19.50    9.80
   4   4  -5    3.00   10.20
  -8   4  -5   -1.90   11.80
  -8   4   5    0.50   12.70
  -4  -4   5    9.30   10.60
  -4   8   5    8.10   13.50
   4   4  -5    8.50    7.40
   8  -5  -5 1051.59   70.39
  -8   3   5  982.80   68.09
   5   3  -5 1135.19   69.59
  -8   5  -5 1042.60   65.49
   5   3  -5  981.10   62.69
   8  -3   5  991.60   61.19
  -5   8   5 1089.59   70.69
  -8   3   5  992.80   66.79
   5  -8   5  964.50   68.39
  -3   8  -5 1015.80   62.49
   8  -3   5 1011.40   70.19
   3   5   5  993.20   67.99
  -3  -5   5  995.00   68.89
  -8   3   5 1085.29   72.59
  -5   8   5  902.81   67.19
   8  -3   5  741.63   66.69
   3   5  -5  866.71   62.29
   8  -5   5  917.51   66.69
  -5  -3   5  899.31   68.19
   8  -5   5  803.02   68.69
   8  -3  -5  959.80   69.29
   8  -3  -5  878.61   63.79
   3  -8   5  853.91   68.59
  -8   5   5  835.02   75.09
  -5   8  -5  897.91   62.49
  -8   5   5  903.21   71.09
   3  -8   5  912.11   71.99
   3   5  -5  892.41   62.19
  -8   3  -5  686.83   74.09
  -3   8   5  832.62   64.59
   3   5  -5  872.81   67.99
   6   2  -5   46.20    9.90
  -6   8   5   18.10   13.60
  -6   8   5   33.40   16.70
  -2   8  -5   46.90   10.40
   8  -6  -5   37.70   15.00
   6  -8   5   42.60   13.90
  -8   6  -5   45.50   12.90
   6   2  -5   51.49   14.50
  -2  -6   5   20.80   13.40
   8  -2   5   53.99    7.90
   2   6   5   61.39   16.00
   8  -2   5   34.00   14.60
   8  -2   5   50.39    8.30
  -6   8   5   10.30   16.50
   8  -2   5   24.50   14.90
  -8   2   5   36.50   14.50
   2  -8   5   68.79   35.90
  -6  -2   5   65.49   15.50
  -6   8  -5   90.49   12.10
   6   2   5   89.69   18.90
   2  -8   5   84.29   16.50
  -2   8   5   91.59   12.90
   2   6  -5   91.59   18.30
   2   6  -5   93.29   11.70
  -2   8   5   68.79   17.90
   8  -6   5   99.99   19.60
  -8   6   5   79.79   25.00
   6   2   5   42.20   20.50
   8  -2  -5   95.69   16.90
  -6  -2   5   77.99   10.20
  -8   6   5   76.59   22.30
   2   6  -5   83.89   11.80
   7  -8   5  187.88   23.00
   8  -1   5  161.48   24.90
  -7   8   5  142.89   29.80
  -8   7  -5  205.28   22.00
  -7   8   5  156.38   24.80
   7  -8   5  154.78   25.30
  -7   8   5  158.48   27.60
  -1  -7   5  170.28   24.10
   1   7   5  171.98   19.20
   7   1  -5  242.98   25.60
   1   7   5  198.18   24.80
  -1   8  -5  194.38   19.40
   7   1  -5  189.08   18.90
   8  -1   5  158.08   21.30
  -8   1   5  126.89   21.80
   8  -7  -5  193.38   28.40
   1  -8   5  167.98   23.00
   8  -1  -5  181.28   23.40
   7   1   5  150.38   24.90
   1   7  -5  186.28   26.40
  -1   8   5  192.78   15.20
  -8   7   5  112.59   31.30
  -1   8   5  162.18   24.50
   8  -7   5  138.39   24.50
   1   7  -5  187.58   19.70
   1   7  -5  191.78   18.80
  -8   7   5  106.39   30.10
   7   1   5  175.28   25.50
  -1   8   5  187.18   17.30
  -7   8  -5  191.68   20.90
  -1   8   5  199.38   15.50
  -7  -1   5  170.58   25.50
   8  -7   5  188.48   21.10
   0   8  -5  110.99   14.20
   0   8  -5  100.19   13.90
  -8   8  -5  143.09   16.80
   8   0  -5  105.29   13.40
  -8   8   5   99.49   28.40
   0   8   5  107.99   14.60
   8   0   5  118.39   13.80
  -8   8   5   61.89   28.10
   0  -8   5  102.79   21.80
  -8   0   5  107.89   22.10
   8  -8   5   99.09   17.80
  -9   4   5  270.87   29.40
  -5   9   5  240.68   28.10
  -5   9   5  229.68   26.00
   9  -4   5  238.58   18.60
  -9   5  -5  238.48   25.90
  -4   9  -5  232.38   20.80
  -9   4   5  235.88   32.30
   5  -9   5  238.18   26.90
   5   4  -5  234.48   21.10
  -9   4   5  256.07   26.70
   5   4  -5  286.17   27.40
   9  -4   5  227.38   18.70
   9  -5  -5  289.97   29.80
   9  -4   5  259.07   28.10
   4   5   5  211.58   30.80
  -4  -5   5  138.49   28.00
   9  -5  -5  231.28   26.90
   4   5  -5  183.38   20.00
   5   4   5  138.49   26.90
   9  -5   5  184.78   25.50
  -4   9   5  180.78   25.00
   4  -9   5  161.58   26.40
  -9   5   5  166.28   25.70
  -9   4  -5  141.49   22.40
  -9   5   5  143.09   29.40
   4   5  -5  165.08   19.80
   9  -4  -5  178.98   25.30
  -5   9  -5  167.18   19.50
  -4   9   5  146.89   25.70
   4   5  -5  147.09   23.90
   6   3  -5 1525.25  101.09
   9  -6  -5 1490.45  105.79
   9  -6  -5 1478.65  108.19
   9  -3   5 1187.18   98.59
   6  -9   5 1548.65  109.79
  -9   3   5 1460.45  104.89
   6   3  -5 1464.55   95.19
  -9   6  -5 1516.85   97.49
  -3  -6   5 1366.56  107.69
   3   6   5 1456.95   99.09
  -6   9   5 1372.16   98.79
  -3   9  -5 1526.15   95.29
   9  -3   5 1421.56   92.59
  -6   9   5 1416.06  102.49
  -6   9  -5 1518.05   95.49
   3   6  -5 1438.86   95.19
   9  -3  -5 1498.95  110.69
   3   6  -5 1546.75   95.19
   3  -9   5 1484.25  106.89
  -9   6   5 1501.55  105.89
  -9   6   5 1498.85  121.89
  -3   9   5 1579.54   95.59
   3  -9   5 1511.85  107.99
   3   6  -5 1468.55  102.59
  -3   9   5 1365.76   94.99
  -3   9   5 1339.17   99.89
   7   2  -5  103.89   14.10
   2   7   5  122.19   18.30
   9  -2   5  104.29   10.90
   9  -2   5  119.99   11.00
  -9   7  -5  129.79   17.70
   9  -2   5   93.19   17.40
  -7   9   5   86.79   19.80
  -7   9   5  109.69   24.70
  -2   9  -5  107.09   14.30
  -2   9   5  108.69   18.30
  -9   7   5   44.40   24.80
  -2   9   5  122.19   15.30
  -7   9  -5  119.49   15.30
  -2   9   5  117.59   14.30
   7   2   5   76.59   21.90
   2   7  -5  117.29   14.20
   2   7  -5   94.99   13.90
  -1   9  -5  580.54   39.70
  -1   9  -5  595.54   39.70
   1   8   5  594.14   36.50
  -9   8  -5  595.64   41.40
   8   1  -5  567.94   39.10
   1   8   5  607.04   43.70
   9  -1   5  647.54   40.40
  -8   9   5  507.55   50.19
  -8   9   5  571.74   54.59
  -1   9   5  474.95   39.20
  -9   8   5  359.16   52.79
   1   8  -5  434.26   38.60
   1   8  -5  454.55   39.20
  -1   9   5  474.25   34.90
  -8   9  -5  449.95   39.80
  -9   9  -5   56.69   13.20
   0   9  -5   50.89   11.50
  -9   9   5   34.00   21.90
   0   9  -5   52.89   11.50
   0   9   5   51.49    9.00
  -5  10   5 2458.75  172.48
 -10   5   5 2422.16  172.58
 -10   5  -5 2552.04  169.78
  10  -5   5 2683.73  169.08
   5   5  -5 2796.92  168.48
   5   5   5 2587.94  172.78
   5   5  -5 2666.73  169.08
  10  -5   5 2627.84  171.58
  -5  10   5 2697.43  168.68
  -5  10  -5 2711.23  167.88
   6   4  -5  159.28   20.00
  10  -4   5  156.18   23.90
   6   4  -5  157.48   23.00
  -6  10   5  157.38   20.60
 -10   4   5  165.68   26.40
  10  -4   5  148.59   15.40
   4   6   5  173.08   23.70
  -4  10  -5  146.09   17.70
 -10   6  -5  166.88   21.20
 -10   6   5  127.39   24.60
  -4  10   5  183.98   20.50
   4   6  -5  198.08   20.90
  10  -6   5  170.18   22.60
   6   4   5  168.88   25.90
  -4  10   5  188.68   20.40
  -4  10   5  173.68   24.80
  -6  10  -5  177.48   19.30
  -7  10   5  564.44   49.30
  10  -3   5  565.14   48.60
  10  -3   5  629.64   42.10
   3   7   5  587.84   49.80
  -3  10  -5  576.44   45.40
  -7  10   5  506.85   52.69
   7   3  -5  587.74   45.90
 -10   7  -5  558.94   47.50
  10  -3   5  549.65   42.30
   3 -10   5  716.93   61.79
   3   7  -5  746.43   46.40
  -3  10   5  719.53   48.60
   3   7  -5  730.83   46.60
 -10   7   5  610.84   57.29
  -7  10  -5  739.43   54.39
   7   3   5  636.74   54.29
  -3  10   5  715.03   44.90
  -7  10  -5  710.33   46.50
  -3  10   5  701.43   44.50
  10  -8  -5  200.88   30.50
  -8  10   5  178.48   23.80
   8   2  -5  178.18   19.70
   2   8   5  206.58   26.70
  10  -2   5  189.08   21.40
  -2  10  -5  196.48   20.80
  -2  10  -5  185.98   20.50
 -10   8  -5  180.78   23.00
   8   2   5  185.38   25.50
  -2  10   5  192.68   20.40
  -2  10   5  194.28   16.20
   2   8  -5  196.38   21.30
  -2  10   5  176.58   14.90
   2   8  -5  173.18   19.80
  -2  10   5  191.98   16.80
  -8  10  -5  190.68   21.60
  -1  10   5   70.59   10.40
   1   9  -5   65.69   12.20
   1   9  -5   71.09   12.40
  -9  10  -5   82.49   13.70
   0  10  -5   57.19   11.40
   0  10   5   58.89    8.10
   0  10  -5   55.89   11.20
 -10  10  -5   64.39   13.30
  -5  11  -5  678.83   49.60
  11  -5   5  679.33   47.00
   6   5  -5  701.13   50.39
  11  -5   5  654.03   51.99
 -11   6  -5  628.04   51.69
   6   5  -5  648.74   50.59
  -6  11   5  679.73   50.49
   5   6   5  642.84   54.19
  -5  11   5  756.62   49.50
   5   6  -5  755.52   50.49
  11  -6   5  735.23   52.69
  -5  11   5  728.13   52.79
  -6  11  -5  747.13   49.70
   6   5   5  750.02   55.89
   5   6  -5  791.92   50.89
 -11   5  -5  688.53   51.89
   7   4  -5   15.30   11.10
  -7  11   5   18.10   12.40
 -11   7  -5   25.20   12.80
  11  -4   5    7.30   10.80
   4   7   5    6.50   13.80
  -4  11  -5   17.00   10.20
  11  -4   5    5.80    5.60
  11  -4   5   14.00    6.70
   7   4  -5   16.90    9.80
  -7  11  -5   14.70   10.10
   4   7  -5   15.00   10.20
  -4  11   5   20.20   11.50
  -4  11   5   28.50    9.30
  -4  11   5   22.40    9.90
   7   4   5   26.30   16.80
  -3  11  -5  162.28   19.70
 -11   8  -5  174.68   23.10
   8   3  -5  176.58   23.40
  -3  11  -5  185.88   20.40
  11  -3   5  211.18   21.40
   8   3  -5  178.28   20.60
  -8  11   5  195.08   25.20
   3   8   5  178.98   22.60
   3   8  -5  196.88   21.40
  -3  11   5  201.88   17.30
  -3  11   5  196.58   17.90
  -3  11   5  198.58   20.70
   8   3   5  196.38   29.30
  -3  11   5  196.68   19.90
  -8  11  -5  201.58   21.10
  -3  11   5  187.88   15.70
  -9  11   5  155.18   19.10
 -11   9  -5  140.29   17.10
  11  -2   5  132.69   14.60
  -2  11  -5  103.99   13.70
   9   2  -5  123.69   17.30
  -2  11  -5  124.39   14.70
   2   9  -5   93.79   14.30
   2   9  -5   98.59   14.20
   9   2   5  100.39   17.80
  -9  11  -5   94.09   15.00
  -2  11   5   92.39   13.90
 -11  10  -5   99.49   14.40
  -1  11  -5   66.39   14.70
  10   1  -5   78.99   14.90
  -1  11  -5   61.69   11.30
  -1  11   5   63.49    9.00
   1  10  -5   51.99   13.30
  11  -1  -5   94.39   15.60
   1  10  -5   70.29   12.20
 -10  11  -5   61.39   12.80
   0  11  -5  806.42   57.69
  11   0  -5  919.11   60.59
  -6  12  -5  793.92   55.39
  12  -6   5  775.72   52.89
   6   6  -5  781.02   55.69
  -6  12   5  832.52   55.19
  12  -6   5  819.22   57.29
  -6  12   5  814.52   57.59
   6   6  -5  859.31   56.09
   6   6   5  869.91   59.89
 -12   6  -5  757.32   56.39
  -6  12   5  754.42   56.69
  12  -5   5 1082.69   76.49
  -5  12  -5 1028.40   78.89
  12  -5   5 1124.29   80.69
   5   7   5 1097.09   82.09
   7   5  -5 1067.69   79.89
 -12   7  -5 1058.89   80.49
   7   5  -5 1147.79   79.79
  -7  12   5 1103.99   79.59
  12  -7   5 1307.37   82.09
   7   5   5 1335.97   83.69
  -5  12   5 1263.77   80.69
  -5  12   5 1328.07   81.29
  -5  12   5 1325.37   78.69
  -5  12   5 1393.76   78.89
   5   7  -5 1347.27   80.49
  -7  12  -5 1247.08   79.59
  -4  12  -5  154.08   22.10
   8   4  -5  201.18   20.70
   4   8   5  173.88   25.70
 -12   8  -5  168.98   21.30
  -8  12   5  190.28   22.80
   8   4  -5  178.88   21.30
  12  -4   5  185.28   20.30
  -4  12   5  196.98   15.90
  -4  12   5  191.98   18.20
   4   8  -5  202.48   21.30
  -4  12   5  211.68   17.40
   8   4   5  193.98   26.90
  -4  12   5  205.38   19.60
  -8  12  -5  191.88   21.40
   9   3  -5   81.29   14.40
  -9  12   5   91.99   15.00
  12  -3   5   93.19   13.50
   3   9  -5   81.69   13.40
  -3  12   5   92.39   13.20
  12  -3  -5  107.59   15.80
   9   3   5   97.79   17.00
  10   2  -5   42.50   11.90
  12  -2   5   43.50    7.00
  12  -2  -5   27.80   11.90
   2  10  -5   26.60   10.10
  -2  12   5   37.50    7.70
  11   1  -5  911.31   55.09
   1  11  -5  687.23   52.69
  12  -1  -5  761.42   54.49
  12   0  -5    7.50    9.10
   7   6  -5  280.97   25.90
  13  -6   5  280.57   26.10
  -7  13   5  317.77   26.20
  13  -6   5  279.57   21.70
   6   7   5  305.77   29.70
  13  -6   5  278.47   22.30
   7   6  -5  289.47   25.80
  -6  13   5  351.66   25.00
   7   6   5  339.37   30.50
   6   7  -5  325.77   26.40
  -6  13   5  317.37   26.10
  -6  13   5  355.26   25.20
  13  -7   5  329.77   26.70
  13  -7   5  325.87   22.70
   5   8   5   45.30   13.80
  13  -5   5   23.00    9.00
   8   5  -5   34.70   10.20
  -8  13   5   45.40   10.90
   5   8  -5   24.90   10.00
  -5  13   5   28.00    9.30
  -5  13   5   28.90    7.20
   8   5   5   22.00   13.10
  -5  13   5   27.20    6.10
  -5  13   5   31.70    8.20
   9   4  -5   83.89   13.50
  13  -4   5   85.59   12.70
  -9  13   5   81.39   13.60
  13  -4  -5  121.99   17.30
   9   4   5  114.69   15.90
   4   9  -5  101.79   13.10
  -4  13   5  109.89   13.20
  10   3  -5   56.99   11.30
 -10  13   5   62.49   11.20
  10   3   5   29.40   13.00
  13  -3  -5   30.30   10.00
  -3  13   5   22.10    7.10
   3  10  -5   26.80    9.20
  11   2  -5   48.80   10.60
   2  11  -5   45.20    9.80
  13  -2  -5   53.59   10.40
  12   1  -5  549.15   37.20
  13  -1  -5  498.45   36.70
  -7  14   5  174.28   17.40
  14  -7   5  195.58   13.80
  -7  14   5  193.48   17.50
  -7  14   5  197.98   16.50
   7   7   5  225.68   22.70
  14  -7   5  167.38   17.50
  -8  14   5  108.09   14.50
  -8  14   5  104.09   15.20
  14  -6   5  108.39   13.50
   8   6  -5  107.79   14.70
  14  -8   5  108.99   14.10
  -6  14   5  126.89   13.80
  -6  14   5  125.89   11.20
   8   6   5  144.69   19.90
  14  -8   5  136.09   11.30
  -6  14   5  135.49   13.60
  -6  14   5  123.49   10.50
   9   5  -5   38.20    9.00
  14  -5   5   31.80    7.00
  -9  14   5   46.20    9.00
  10   4  -5    7.20    7.60
  -4  14   5    5.90    5.30
  11   3  -5  176.48   16.50
   0   0   6 2365.96  147.79
   0   0   6 2231.88  148.09
   1   0   6   12.60    6.40
  -1   1   6   17.40    7.40
   1   0  -6   20.40    9.10
  -1   1   6   27.10    8.70
  -1   0   6   22.30    7.80
   1  -1   6   21.20    8.00
   0   1  -6   26.60    9.80
   1  -1   6   15.80    8.00
   0   1   6   16.30    6.50
  -1   0   6   19.70    8.00
   1   0   6   14.30    8.20
   0  -1   6   10.20    7.50
   0   1   6   27.30    8.30
   0  -1   6   17.50    7.90
  -1  -1   6 2397.86  153.58
   1   1  -6 2372.56  149.69
   2  -1   6 2415.56  151.38
   1   1  -6 2310.67  154.78
  -1   2   6 2377.16  152.98
  -2   1   6 2399.46  153.28
   1   1   6 2358.36  149.59
   2  -1  -6 2283.07  154.38
  -1   2   6 2380.06  151.28
   2  -1   6 2445.46  150.68
   1  -2   6 2462.95  153.28
   2  -1   6 2390.36  152.98
  -1   2  -6 2264.67  154.68
  -1   2  -6 2322.77  149.69
   1  -2   6 2321.47  152.88
   1   1   6 2355.46  152.68
  -2   1   6 2348.36  152.98
  -1  -1   6 2291.57  152.68
  -1   2   6 2520.65  150.88
   2   0   6 2940.31  183.18
   0   2   6 2888.61  183.28
  -2   2   6 2893.81  183.78
   2  -2   6 2935.71  183.18
   0  -2   6 2758.22  182.98
  -2   0   6 2900.01  184.28
  -2   2   6 2966.10  183.08
   0  -2   6 2935.91  184.18
   2  -2   6 2943.71  183.68
   0   2   6 2888.51  180.08
   0   2  -6 2888.71  185.78
   2   0  -6 2629.44  184.78
   0   2  -6 2847.92  180.28
  -2   0   6 2797.42  183.28
  -2   2  -6 2736.63  180.08
   2   0   6 2881.01  180.08
   2   1  -6 2405.06  153.08
   1   2   6 2316.97  146.59
  -1   3  -6 2182.88  147.19
   2  -3   6 2264.77  150.48
  -2   3   6 2220.08  148.69
   2  -3   6 2344.17  150.98
   3  -1   6 2276.37  150.18
   1   2   6 2433.86  150.18
  -2   3   6 2278.67  150.68
   3  -1   6 2265.77  147.09
  -2   3   6 2240.48  147.39
   3  -2  -6 2033.00  151.68
   2   1  -6 2219.88  147.09
  -1  -2   6 2204.38  149.99
  -3   1   6 2193.58  150.28
  -1   3  -6 2098.99  152.08
  -3   1   6 2384.76  151.88
  -1  -2   6 2336.17  151.58
  -2  -1   6 2335.87  150.18
  -2   3  -6 2286.07  147.29
   3  -1  -6 2237.18  152.28
   2   1   6 2427.06  149.99
  -2  -1   6 2384.86  151.68
   2   1   6 2480.75  146.69
  -1   3   6 2443.86  147.19
   1   2  -6 2379.36  147.39
  -1   3   6 2600.34  150.98
   3  -2   6 2334.57  149.19
   1  -3   6 2404.76  150.78
  -3   2   6 2400.16  151.38
   3  -2   6 2410.86  147.69
  -3   2   6 2387.36  151.08
   3  -2   6 2423.86  150.88
  -2   3  -6 2316.57  152.88
   1   2  -6 2415.96  153.18
   1  -3   6 2476.95  151.58
   0  -3   6   11.60    8.20
   3   0   6    7.20    8.30
  -3   3  -6   15.70    6.20
   0   3  -6    8.80    5.70
   3  -3   6   11.70    7.60
   3   0   6   16.50    5.50
   0   3   6    6.50    8.70
   3   0  -6   12.10   10.00
  -3   0   6    9.10    8.30
  -3   3   6    8.50    7.00
  -3   3   6   12.60    9.00
  -3   0   6    6.40    7.50
   0  -3   6   11.20    8.30
   3   0  -6   11.20    5.60
   3  -3   6   13.10    8.60
   3  -3   6    6.10    8.60
   0   3   6   11.50    5.40
   0   3  -6   -7.90    8.60
  -3   3   6   17.80    8.70
  -2   4   6  433.86   31.40
   2   2   6  458.35   29.60
   2   2  -6  406.86   30.60
  -4   2   6  426.46   35.90
  -4   2   6  499.95   32.80
   4  -2   6  423.86   35.20
  -2   4  -6  402.86   30.50
   2   2  -6  433.46   37.30
   4  -2  -6  406.56   37.00
  -2   4   6  473.75   35.60
  -4   2   6  428.56   34.90
   2  -4   6  428.26   35.20
   2  -4   6  384.86   34.50
  -2   4  -6  404.66   37.50
  -2  -2   6  433.76   35.40
   2   2   6  454.55   33.50
  -2  -2   6  442.76   34.20
   2   2   6  410.56   28.70
  -2  -2   6  526.65   35.10
  -3   4   6  837.62   55.79
   1   3   6  833.62   51.49
   1   3   6  867.21   52.29
  -1   4  -6  844.02   60.39
   3   1  -6  835.42   53.19
   4  -3  -6  775.02   59.29
  -4   1   6  874.51   52.59
  -1  -3   6  896.21   53.09
  -4   3  -6  788.32   53.49
   3  -4   6  779.42   54.69
   3  -4   6  891.11   57.99
  -3   4   6  827.72   54.19
   4  -1   6  827.52   52.79
  -4   1   6  854.21   57.09
  -1  -3   6  859.31   56.79
  -4   1   6  875.91   59.39
  -3   4   6  877.51   58.09
  -1   4  -6  846.82   53.49
   4  -1   6  865.71   57.49
   3   1  -6  797.92   59.29
  -1  -3   6  909.61   58.79
   1   3   6  933.31   56.69
   3  -4   6  850.81   58.09
   4  -3   6  735.53   54.99
   1  -4   6  724.23   56.49
   4  -3   6  730.63   57.19
  -3  -1   6  747.33   57.69
   3   1   6  781.42   51.99
  -1   4   6  759.62   52.89
  -3  -1   6  753.32   55.89
  -3  -1   6  750.32   52.29
   1   3  -6  725.13   52.99
   4  -1  -6  793.22   59.29
   3   1   6  739.43   51.39
  -3   4  -6  701.93   52.99
  -4   3   6  764.42   57.99
  -1   4   6  823.42   56.79
  -4   3   6  715.73   56.99
   3   1   6  808.12   55.99
   1   3  -6  785.22   59.49
  -3   4  -6  717.63   59.99
   1  -4   6  750.82   57.59
  -4   3   6  688.43   53.89
   3   1   6  841.72   52.89
   0   4  -6  565.14   45.50
  -4   4  -6  548.55   39.20
  -4   0   6  560.64   38.00
   4  -4   6  560.04   42.70
   4   0   6  573.54   37.70
   0   4   6  576.94   38.20
   0   4   6  563.84   37.20
  -4   0   6  569.14   44.40
  -4   0   6  543.65   41.90
   0   4  -6  558.34   38.90
   0  -4   6  580.54   44.00
   0   4   6  576.74   38.50
  -4   4   6  520.05   40.20
   4   0   6  523.05   37.20
   4   0   6  566.74   42.40
   4  -4   6  515.55   43.80
  -4   4   6  525.45   39.10
  -4   4   6  572.14   43.50
   0   4   6  596.14   42.20
   0  -4   6  548.05   42.60
   4   0  -6  572.84   44.80
   4   0   6  619.34   38.90
  -4   4   6  568.44   44.10
  -5   2   6   57.29   12.90
   2   3   6   65.49    8.30
  -2   5  -6   54.59    9.30
  -2  -3   6   48.20   12.00
   3  -5   6   74.39   14.90
  -2  -3   6   64.69   12.70
  -2  -3   6   77.19    8.70
  -5   2   6   62.39   14.80
  -3   5   6   63.19   13.60
  -2  -3   6   79.59   16.50
   3   2  -6   66.79   10.00
   3  -5   6   46.80   13.80
   5  -2   6   82.19   12.70
   5  -2   6   60.99   10.40
   5  -3  -6   62.59   15.60
  -3   5   6   50.99   10.90
  -5   3  -6   71.09   14.20
   2   3   6   56.49    6.50
   2   3   6   58.89    7.40
   5  -2   6   38.70   13.80
  -5   2   6   67.59    9.10
   3   2  -6   65.19    9.70
  -2   5  -6   80.19   17.70
   3   2  -6   76.59   15.70
   2   3   6   59.29    7.60
  -3   5  -6   53.19   16.00
  -5   3   6   77.09   14.50
  -3  -2   6   75.39   16.50
   3   2   6   68.39    7.70
   2  -5   6   71.79   14.40
   5  -3   6   42.70   13.60
   5  -3   6   76.39   13.70
  -3   5  -6   65.99    9.90
  -2   5   6   85.99   14.90
  -2   5   6   66.69   11.10
  -3  -2   6   58.09   13.30
   2  -5   6   65.49   13.90
   2   3  -6   64.89   15.10
  -2   5   6   76.29   11.30
   3   2   6   68.29    8.80
   3   2   6   67.09    8.10
  -5   3   6   71.49    9.60
  -3  -2   6   73.29    8.80
   2   3  -6   62.19    9.60
   3   2   6   77.49    8.60
  -5   3   6   96.79   16.80
   5  -2  -6   90.99   17.00
  -3  -2   6   52.99   11.70
   1   4   6  418.56   26.50
   1   4   6  424.46   28.10
  -1   5  -6  394.56   29.30
  -1  -4   6  419.16   34.60
  -5   1   6  432.06   36.30
  -5   1   6  414.66   28.60
   1   4   6  411.16   28.10
   5  -4  -6  368.46   36.20
  -1  -4   6  388.36   32.70
  -4   5   6  387.66   32.50
   1   4   6  377.86   27.30
  -5   1   6  419.26   33.10
   4  -5   6  349.77   35.60
  -4   5   6  406.36   31.80
   4   1  -6  417.56   29.30
   4   1  -6  374.06   29.20
   4   1  -6  468.15   36.90
   5  -1   6  371.16   34.20
  -4   5   6  453.05   36.30
  -1   5  -6  434.46   37.70
   5  -1   6  472.45   31.10
  -5   4  -6  401.26   30.60
   4  -5   6  413.26   34.80
  -1  -4   6  426.86   36.80
  -1  -4   6  409.06   28.10
   5  -1   6  388.66   28.70
   1  -5   6  388.96   34.20
   1   4  -6  373.16   29.20
  -5   4   6  351.66   31.50
  -5   4   6  387.66   35.80
   4   1   6  371.76   27.00
  -1   5   6  415.26   30.10
  -4  -1   6  345.67   31.50
  -4  -1   6  386.26   35.20
   5  -4   6  400.56   36.50
  -4  -1   6  365.16   34.30
  -1   5   6  402.16   32.60
  -4  -1   6  397.76   28.40
  -5   4   6  415.96   35.90
   5  -1  -6  369.06   35.10
  -1   5   6  397.26   29.70
   4   1   6  405.56   27.70
  -5   4   6  365.86   28.60
   4   1   6  388.46   26.20
   1  -5   6  360.86   33.70
  -4   5  -6  374.56   29.80
  -1   5   6  369.86   27.50
   4   1   6  406.26   27.10
   1   4  -6  359.46   35.20
   5   0   6    2.70    6.90
   0   5  -6    9.00    7.00
   5   0   6    8.00    3.90
  -5   5  -6    3.40    8.00
  -5   0   6    5.90    9.70
  -5   5   6    8.70   11.70
   0   5   6   11.10    7.90
   0   5   6   12.50    6.80
   5   0   6   12.70    5.40
  -5   0   6   17.80    6.90
   0  -5   6   19.70   10.90
   5   0   6   14.20    6.20
   0   5   6    7.10    6.90
   0  -5   6    0.80   13.70
  -5   5   6    2.30   11.00
  -5   0   6    1.30    8.30
   0   5  -6    5.50   11.50
   5   0  -6   -1.10    9.90
   0   5   6    6.80    4.70
  -5   0   6   11.50   12.10
   5  -5   6   16.50    9.20
  -5   5   6    4.30    9.60
   0  -5   6   -0.70    9.30
   3  -6   6  486.85   40.90
  -3   6  -6  498.15   35.60
  -3   6   6  472.05   37.30
   3   3  -6  496.85   35.20
  -3   6   6  516.95   39.00
  -3   6   6  439.06   39.30
   3   3  -6  477.85   35.20
  -6   3   6  446.56   43.00
  -3  -3   6  494.85   33.70
  -3   6  -6  490.05   44.70
   6  -3  -6  526.65   44.10
   3   3  -6  540.75   42.90
   6  -3   6  523.35   40.50
  -3  -3   6  445.26   38.60
  -3  -3   6  488.95   40.60
  -6   3   6  453.35   34.70
   3   3   6  501.35   32.60
  -3  -3   6  458.25   44.40
   3  -6   6  512.75   42.70
  -6   3   6  457.05   39.90
  -6   2   6 1520.45  104.59
   6  -4  -6 1470.55  112.19
   2   4   6 1634.54  103.79
  -4   6   6 1491.85  106.79
   4   2  -6 1617.74  105.49
  -6   4  -6 1557.74  106.89
  -2  -4   6 1472.85  112.59
   4   2  -6 1661.23  112.09
   6  -2   6 1669.73  108.19
  -2  -4   6 1518.55  103.79
  -4   6   6 1558.44  110.59
   4   2  -6 1407.56  104.89
  -2  -4   6 1488.65  110.39
  -6   2   6 1486.55  112.09
  -2  -4   6 1478.95  113.29
  -6   2   6 1533.15  109.09
  -2   6  -6 1554.14  113.29
  -2   6  -6 1516.25  105.19
   4  -6   6 1595.14  111.09
  -2   6   6 1648.44  104.39
  -4  -2   6 1665.63  111.99
   2   4  -6 1672.53  105.59
  -2   6   6 1725.93  106.29
   2  -6   6 1748.93  111.49
  -6   4   6 1585.24  104.79
  -4  -2   6 1683.33  108.49
  -2   6   6 1878.81  108.19
   2   4  -6 1806.22  105.89
   2  -6   6 1733.23  112.09
  -6   4   6 1801.12  112.79
   2   4  -6 1946.31  113.99
  -4   6  -6 1638.54  105.59
   4   2   6 1817.92  103.69
  -2   6   6 1721.83  108.99
  -4  -2   6 1679.03  104.19
   6  -4   6 1697.73  110.19
  -6   4   6 1738.23  114.39
   6  -2  -6 1721.23  112.49
  -4  -2   6 1621.14  111.19
   5   1  -6  703.03   53.69
  -6   1   6  644.14   46.00
   5   1  -6  593.14   46.20
   6  -5  -6  627.04   54.79
  -5   6   6  614.74   54.09
  -5   6   6  615.64   49.60
   6  -1   6  596.44   45.30
  -1  -5   6  582.64   58.29
  -1  -5   6  638.74   52.29
  -1  -5   6  612.14   44.80
  -6   1   6  633.54   53.49
  -6   1   6  621.54   49.70
  -6   5  -6  662.53   48.60
  -6   1   6  633.74   50.09
  -5   6   6  651.03   50.89
   6  -1   6  615.94   44.00
   5  -6   6  658.13   50.99
   6  -1   6  705.93   47.80
   1   5   6  697.83   45.90
  -1   6  -6  615.54   54.79
  -1   6  -6  641.74   46.60
  -6   5   6  706.43   55.89
   6  -1  -6  788.92   54.19
   1  -6   6  765.92   53.19
   1  -6   6  701.13   53.39
  -1   6   6  704.43   47.80
  -5   6  -6  736.73   47.80
   1   5  -6  773.62   55.69
  -6   5   6  682.63   55.89
  -5  -1   6  703.63   45.70
  -1   6   6  787.62   49.20
   1   5  -6  751.52   47.10
  -1   6   6  716.33   44.60
  -5  -1   6  666.43   50.19
  -5  -1   6  764.42   53.79
   5   1   6  746.13   44.80
  -5  -1   6  726.53   53.89
   0   6   6   38.30   10.40
   0  -6   6   43.00   13.30
  -6   0   6   47.90   14.20
   0   6  -6   35.10   14.80
   0  -6   6   38.40   22.30
  -6   6   6   42.20   14.00
   0   6  -6   52.29   10.10
   0   6   6   52.59   11.30
  -6   0   6   64.69   16.80
   0   6   6   32.80    8.10
   0   6   6   42.80    5.80
  -6   6  -6   49.70   11.60
   6   0   6   36.90    7.80
  -6   6   6   24.40   15.20
  -6   6   6   31.10   16.80
  -6   0   6   47.30    9.10
  -6   0   6   37.90   16.70
   6  -6   6   27.50   11.70
   0  -6   6   40.10    7.60
   6   0  -6   50.19   14.60
  -3   7  -6  420.76   32.00
   4   3  -6  385.86   31.40
  -3  -4   6  415.86   29.90
  -7   4  -6  425.36   35.70
  -3  -4   6  405.26   37.70
   7  -3   6  366.06   37.80
  -4   7   6  434.66   36.70
   7  -4  -6  473.05   41.40
   4   3  -6  460.65   39.50
   4  -7   6  418.26   38.90
   4   3  -6  474.45   32.50
  -7   3   6  428.56   42.00
  -4   7   6  412.36   39.40
  -7   3   6  424.66   36.80
   3   4   6  381.86   41.80
  -4   7   6  453.25   38.90
   7  -3   6  382.86   31.90
  -4  -3   6  427.46   30.20
  -4   7  -6  440.86   32.40
  -3   7   6  410.56   36.00
   3   4  -6  457.95   32.20
  -7   4   6  455.45   43.80
   3   4  -6  489.35   40.00
   3   4  -6  435.16   32.10
  -4  -3   6  459.45   38.60
  -3   7   6  430.86   36.10
  -3   7   6  452.95   38.50
   4   3   6  353.96   42.70
   3  -7   6  430.76   38.70
  -7   4   6  446.16   39.50
   7  -4   6  388.26   38.80
   7  -3  -6  499.95   41.50
   7  -2   6  400.46   28.70
  -2   7  -6  448.96   41.40
   5   2  -6  355.56   29.90
  -7   2   6  443.16   39.70
   7  -2   6  425.76   34.60
  -5   7   6  423.16   36.10
   5   2  -6  433.66   37.70
   7  -5  -6  384.86   39.50
  -5   7   6  392.36   40.30
   2   5   6  437.16   29.20
  -2  -5   6  386.86   35.90
  -7   2   6  395.06   34.70
   5  -7   6  393.96   35.50
  -7   5  -6  386.86   34.20
  -2   7  -6  442.76   30.90
  -2  -5   6  397.06   28.10
  -2   7   6  325.17   33.30
   2   5  -6  409.36   38.30
  -5  -2   6  385.86   28.90
  -7   5   6  330.47   43.70
  -2   7   6  380.96   35.60
   2  -7   6  422.76   37.10
  -2   7   6  389.16   28.70
  -7   5   6  421.66   43.30
  -5  -2   6  310.27   35.30
   2   5  -6  398.76   30.40
   7  -2  -6  441.26   38.10
   5   2   6  308.77   40.90
   2   5  -6  387.96   30.40
  -5   7  -6  403.06   31.10
   7  -1   6  128.69   12.30
  -7   6  -6  145.59   17.90
   7  -1   6  128.99   11.50
  -1  -6   6  125.99   32.90
  -7   1   6  125.29   14.10
  -1   7  -6  129.69   16.10
   1   6   6  119.59   17.60
   6   1  -6  112.59   15.20
   7  -6  -6  141.19   26.90
  -7   1   6  136.29   21.00
  -1  -6   6  159.38   22.30
   6   1  -6  139.99   21.60
  -7   1   6  132.69   21.10
   7  -1   6  129.19   10.30
   6  -7   6  140.49   19.20
  -1   7  -6  152.48   24.30
  -6   7   6  119.99   19.80
  -1  -6   6  135.79   12.90
  -6   7   6  102.39   23.00
   7  -1   6  130.09   16.30
  -1   7   6   98.09   17.60
   6   1   6   89.69   10.60
  -7   6   6  123.39   25.90
   1  -7   6  113.09   24.00
   1   6  -6  110.99   14.00
  -6  -1   6   89.29   18.00
   7  -1  -6  105.49   19.20
   1  -7   6   91.79   18.00
   1   6  -6  118.39   15.70
   1   6  -6  113.19   21.80
  -1   7   6  106.29   11.40
  -7   6   6   88.49   23.20
  -1   7   6   98.29   14.70
  -1   7   6  108.69   12.40
  -6   7  -6  118.89   15.70
  -6  -1   6  105.59   12.80
   7   0   6    3.80    6.00
   0   7  -6    8.70    8.50
  -7   7  -6   10.20   10.50
   0  -7   6    2.40   26.50
  -7   7   6   -4.90   14.90
   0   7   6   21.90   12.60
   0  -7   6   14.90    6.40
   7  -7   6   30.00   12.30
  -7   7   6   21.70   27.90
  -7   7   6    6.90   18.00
   7   0  -6    0.50    8.10
  -7   0   6    0.40   16.80
  -4  -4   6 1401.76   90.99
  -4  -4   6 1567.44  113.39
   8  -4   6 1399.36   91.99
  -4   8  -6 1515.05   93.19
   8  -4   6 1171.28   98.29
  -4   8   6 1355.66   95.89
   4   4  -6 1597.14   93.49
  -8   4   6 1559.44   99.69
  -4   8   6 1282.97   99.49
   4   4  -6 1461.05   92.99
  -4   8   6 1455.55   97.79
  -3   8  -6  775.32   55.59
  -8   3   6  823.72   60.49
   3   5   6  784.22   64.09
  -5   8   6  682.43   59.99
  -5   8   6  791.82   62.59
  -8   5  -6  703.93   58.49
   8  -3   6  772.82   53.69
   5   3  -6  748.83   55.39
  -5   8  -6  878.71   56.19
   3   5  -6  930.41   56.09
  -5  -3   6  873.41   54.29
   3   5  -6  877.21   56.09
  -8   5   6  899.31   65.99
   8  -5   6  852.11   63.39
  -3   8   6  735.03   62.09
  -3   8   6  838.62   58.59
  -3   8   6  846.32   55.69
   8  -2   6  774.82   50.79
  -6   8   6  640.44   58.89
  -8   6  -6  760.62   57.09
   8  -2   6  716.73   50.39
  -2   8  -6  777.22   53.89
   8  -2   6  745.53   56.59
   6   2  -6  723.03   53.39
  -6   8   6  705.83   62.59
  -2   8   6  859.01   51.59
  -6   8  -6  845.12   54.89
   2   6  -6  859.71   54.59
   2   6  -6  867.71   54.19
  -6  -2   6  813.62   52.79
  -2   8   6  859.51   54.59
  -2   8   6  677.63   59.09
  -8   6   6  838.02   67.59
   1   7   6  189.78   21.30
  -8   7  -6  242.68   25.00
  -7   8   6  140.69   28.00
  -1   8  -6  206.08   20.60
  -8   1   6  236.98   29.10
   7   1  -6  200.28   20.00
   8  -1   6  236.08   19.90
  -7   8   6  199.18   26.40
   1  -8   6  161.98   18.80
   1   7  -6  189.48   19.90
  -1   8   6  203.28   15.10
   1  -8   6  189.08   32.90
   1   7  -6  195.48   21.00
  -7   8  -6  207.08   22.30
  -1   8   6  191.38   17.60
  -1   8   6  171.48   23.30
  -1   8   6  184.38   15.30
  -8   7   6  163.58   32.00
   0  -8   6   99.09   36.00
   8   0  -6  115.99   14.30
   0   8  -6  132.19   15.90
   8   0   6  130.49   12.50
  -8   8  -6  133.49   17.30
  -8   8   6  147.79   31.00
   0   8   6  119.89   18.30
   0   8  -6  123.19   15.70
  -5   9   6  102.89   23.90
  -5   9   6  121.69   19.50
  -9   4   6  148.49   20.90
   9  -5  -6  137.59   25.20
   5   4  -6  138.59   17.70
   4   5   6  114.39   25.60
  -9   5  -6  132.69   20.90
   9  -4   6  127.99   14.50
   9  -4   6  124.79   14.90
  -4   9  -6  144.89   17.90
   9  -4   6   89.89   20.60
  -4   9   6  118.39   22.80
  -5   9  -6  154.08   18.20
   4   5  -6  147.89   18.00
  -4   9   6  169.78   18.60
  -9   5   6  150.68   23.90
   5   4   6  104.89   25.70
   9  -5   6  132.39   22.60
  -4   9   6  155.38   18.60
   9  -3   6  286.57   33.50
  -6   9   6  324.77   37.00
  -9   6  -6  400.96   34.80
  -6   9   6  322.67   36.00
   6   3  -6  353.96   29.20
   9  -3   6  340.77   25.80
  -3   9  -6  382.86   29.70
   9  -3   6  379.56   25.90
  -3   9   6  394.16   28.70
  -9   6   6  363.46   41.60
   3   6  -6  409.76   29.80
  -6   9  -6  373.46   30.00
  -3   9   6  392.76   30.20
  -3   9   6  294.87   35.30
   3   6  -6  394.76   30.20
   9  -2   6  249.78   24.30
  -9   2   6  201.38   27.80
   7   2  -6  223.48   22.20
  -2   9  -6  228.28   23.00
  -9   7  -6  230.68   27.50
  -7   9   6  154.28   31.10
  -7   9   6  195.28   27.00
   2   7  -6  245.98   22.70
  -7   9  -6  274.57   24.30
  -2   9   6  254.57   20.30
  -2   9   6  250.07   18.60
   2   7  -6  267.47   23.80
   7   2   6  181.68   28.40
  -9   7   6  236.08   49.99
  -2   9   6  265.77   18.60
  -2   9   6  237.48   27.10
  -8   9   6  562.74   52.29
  -1   9  -6  628.64   46.50
   8   1  -6  608.84   45.50
  -9   8  -6  668.83   48.40
   9  -1   6  635.04   44.20
  -1   9  -6  618.24   46.00
   1   8  -6  669.53   46.10
   1   8  -6  695.03   46.80
  -8   9  -6  715.83   47.80
  -1   9   6  676.63   46.20
   0   9  -6   14.10    9.60
  -9   9  -6   29.10   11.90
   0   9   6   10.30    6.40
   0   9  -6   22.30   10.10
  -5  10  -6  891.31   59.29
   5   5   6  756.12   67.49
  10  -5   6  823.82   64.49
  -5  10   6  936.71   60.49
  -5  10   6  838.02   65.09
   5   5  -6  868.61   59.29
   5   5  -6  907.41   60.69
  10  -5   6  831.92   56.69
   6   4  -6  214.48   22.60
   4   6   6  212.78   28.80
  -4  10  -6  206.98   22.10
  10  -4   6  187.08   27.00
 -10   6  -6  203.38   27.10
  10  -4   6  176.58   19.60
  -6  10   6  200.78   26.40
  10  -4   6  214.68   18.20
   6   4  -6  229.18   25.70
  10  -6   6  270.67   29.40
  -4  10   6  290.57   23.20
  -4  10   6  257.17   23.00
   4   6  -6  264.47   23.40
  -4  10   6  250.57   28.60
   6   4   6  228.48   30.60
  -6  10  -6  276.67   23.20
  -7  10   6  279.67   30.90
   7   3  -6  263.37   25.70
  10  -3   6  253.87   27.40
  -3  10  -6  255.47   25.40
 -10   7  -6  267.27   29.70
  -3  10   6  290.47   23.40
   7   3   6  243.78   37.30
  -3  10   6  305.97   28.40
  -3  10   6  298.37   21.90
   3   7  -6  314.57   25.80
  -7  10  -6  348.17   26.90
   3   7  -6  336.67   26.90
  -3  10   6  317.77   22.50
 -10   8  -6   20.30   12.00
  -2  10  -6   20.60    9.80
  10  -2   6   19.10    8.30
  -8  10   6   24.30   14.90
  -2  10  -6   19.50    9.90
   8   2  -6    8.00    8.40
   2   8  -6    8.80    9.70
  -8  10  -6   14.60   10.30
   8   2   6    2.90   17.40
   2   8  -6   15.30    9.60
  -2  10   6   21.40    9.90
  -1  10  -6  914.61   58.49
  -1  10  -6  902.11   58.69
 -10   9  -6  944.11   60.09
  -9  10   6  935.91   62.89
   1   9  -6  782.82   57.99
  -1  10   6  799.72   56.09
   1   9  -6  783.82   58.39
  -9  10  -6  820.22   58.99
   0  10  -6  191.58   20.30
  -5  11  -6   59.39   11.60
  -6  11   6   67.19   15.70
   6   5  -6   67.89   12.10
   6   5  -6   56.49   12.30
  11  -5   6   56.29    7.80
  -6  11   6   63.39   12.60
  11  -5   6   68.69   15.00
  -5  11   6   37.50   13.80
   5   6  -6   55.49   11.80
   6   5   6   58.29   20.00
  -5  11   6   48.70   10.60
  -6  11  -6   60.69   11.80
  11  -6   6   44.80   14.70
  11  -6   6   49.90    8.40
  -5  11   6   43.60   11.30
  -4  11  -6  221.58   21.90
  -4  11  -6  216.78   22.40
 -11   7  -6  232.68   26.00
   7   4  -6  228.58   24.10
  -7  11   6  242.68   25.30
   7   4  -6  233.38   22.60
  11  -4   6  235.08   24.40
  -7  11  -6  232.78   22.60
  11  -7   6  222.78   35.20
   7   4   6  230.28   33.20
  -4  11   6  235.78   18.70
  -4  11   6  260.67   23.80
   4   7  -6  257.67   23.30
  -4  11   6  236.58   20.80
  -4  11   6  232.58   19.60
  -3  11  -6  390.66   31.40
   8   3  -6  389.16   31.60
  -8  11   6  437.96   35.70
  -3  11  -6  371.26   33.80
   8   3  -6  438.56   34.50
  11  -3   6  440.86   31.50
  -3  11   6  411.26   31.40
  -3  11   6  401.46   31.00
   3   8  -6  422.86   32.70
  -8  11  -6  418.86   33.70
  -9  11   6  627.74   44.70
  -2  11  -6  587.34   41.10
   9   2  -6  672.43   44.40
  11  -2   6  615.64   38.70
  -2  11   6  497.65   39.00
   2   9  -6  484.15   41.30
  -1  11  -6  153.58   17.80
  10   1  -6  159.98   21.00
  11  -1  -6  163.98   21.90
   1  10  -6  128.49   17.70
   0  11  -6   66.79   11.00
  11   0  -6   73.59   13.10
  12  -6   6  148.79   14.80
  12  -6   6  161.98   14.10
  -6  12   6  173.98   18.70
  -6  12   6  161.88   18.90
  -6  12   6  192.38   19.00
  12  -6   6  145.89   19.70
  -6  12   6  169.68   19.60
   6   6  -6  176.98   21.80
   6   6  -6  190.28   19.30
   7   5  -6   55.59   11.20
   7   5  -6   52.39   11.50
  -7  12   6   61.09   11.70
  12  -5   6   50.29   11.70
  -5  12  -6   41.90   10.00
  12  -7   6   67.59    8.80
  -5  12   6   70.99    8.20
  -5  12   6   85.49    9.30
  -5  12   6   72.99   11.90
   5   7  -6   75.49   12.70
  -5  12   6   77.69   12.70
  -5  12   6   71.29   10.00
  12  -7   6   68.79   13.50
  12  -4   6   21.30    8.40
  -4  12  -6   20.50    8.70
  -8  12   6   20.90   10.50
   8   4  -6   11.30    9.50
   4   8  -6   28.60   10.20
  -4  12   6   30.80    9.00
  -9  12   6  210.18   22.20
  -3  12  -6  185.28   18.40
   9   3  -6  215.88   21.10
  12  -3   6  165.38   15.70
   3   9  -6  221.68   20.50
  12  -3  -6  220.38   23.00
  -3  12   6  206.08   16.90
  -2  12  -6  291.17   24.00
 -10  12   6  311.17   26.50
  10   2  -6  330.57   26.20
   2  10  -6  272.87   24.80
  12  -2  -6  294.37   26.60
  11   1  -6   70.69   11.60
  12  -1  -6   76.19   12.00
   1  11  -6   65.79   10.20
  12   0  -6   15.80    7.90
  -7  13   6  139.09   18.10
  13  -6   6  166.88   17.80
   7   6  -6  167.48   17.90
  -7  13   6  179.78   17.40
  -7  13   6  192.38   18.20
  -6  13   6  216.68   15.70
  -6  13   6  199.38   14.70
  -6  13   6  200.38   18.10
  13  -7   6  185.28   14.40
  -6  13   6  223.98   17.30
  13  -7   6  194.18   18.90
  13  -7   6  208.38   14.50
   6   7  -6  208.58   19.00
   8   5  -6  145.79   16.70
  13  -5   6  129.59   14.30
  -8  13   6  162.88   17.40
  13  -5  -6  178.98   24.30
  13  -8   6  157.78   13.10
   5   8  -6  151.58   16.80
  -5  13   6  150.78   14.50
  13  -8   6  134.39   16.30
  -9  13   6  196.58   18.10
  13  -4   6  151.78   12.70
   9   4  -6  194.18   17.60
  -4  13   6  152.48   14.10
  13  -9   6  138.19   14.00
   4   9  -6  135.79   16.50
  13  -4  -6  166.78   17.60
  10   3  -6  382.46   28.50
  13  -3  -6  376.56   28.10
   3  10  -6  360.16   27.50
  11   2  -6    4.40    7.40
  14  -7   6  120.79   12.50
  14  -6   6   74.69    8.70
  -6  14   6   95.39   13.90
   0   0   7    6.30    5.70
   0   0   7    7.70    8.70
   0   0   7   -5.00    6.80
   0   0   7    0.30    6.30
   1  -1   7   86.39   11.20
   1   0   7   83.59    9.70
  -1   0   7   95.99   13.20
  -1   1   7   84.29   11.10
  -1   1   7   89.19    9.80
  -1   0   7   90.99    9.90
   1   0   7   80.09   10.70
   0   1   7  101.89    9.80
   1   0   7   68.09   12.90
   0  -1   7   88.19    9.90
   1   0   7   80.39   11.50
   0  -1   7   90.19   14.40
  -1   0   7   83.49   13.80
  -1   0   7   94.19   14.60
   0  -1   7   80.29   13.70
   0  -1   7   85.29   11.60
   1  -1   7   85.79   13.10
   0   1   7   77.69   10.60
  -1   1   7   76.89   14.20
   1  -1   7   97.19   15.30
   0   1   7   80.69   12.50
  -1   1   7   61.19   12.10
   1   1  -7   -4.70    9.50
   2  -1   7    4.40    6.50
   1   1   7    5.70    6.00
   1  -2   7    3.90    8.30
  -1  -1   7   -8.40    7.90
  -1  -1   7    9.00    6.10
   1  -2   7    5.00    7.40
   1   1   7   21.20    9.70
  -1   2   7  -11.80    7.70
  -1   2   7    0.80    6.40
   2  -1   7   -0.40    6.70
  -2   1   7   -1.00    5.80
  -1  -1   7    0.90    8.30
  -1   2   7   -2.00    5.60
  -2   1   7   -0.80    8.60
   2  -1   7   -3.80    8.10
  -2   1   7    3.80    6.90
  -1  -1   7    5.40    7.20
   1   1   7   12.30    6.60
  -1   2   7    2.60    6.30
   1  -2   7    4.40    9.10
  -2   1   7   10.00    8.60
   0  -2   7   22.60   10.70
   2  -2   7   28.90    8.50
  -2   2   7   34.70   11.30
  -2   2   7   30.00    8.30
  -2   2   7   27.40    9.50
   2   0   7   32.80    8.00
   0  -2   7   29.20    7.00
  -2   0   7   32.70    6.90
   2  -2   7   24.30   10.20
   0  -2   7   23.50   10.30
   2  -2   7   38.10   11.10
   0   2   7   29.60    7.60
   0  -2   7   20.90    8.30
  -2   0   7   25.00    8.30
  -2   0   7   24.70   10.40
   0   2   7   31.00    7.60
   2   0  -7   23.70   12.10
   0   2   7   25.90   10.40
   2   0   7   27.90    7.20
   2   0   7   32.30   11.40
  -2   2   7   30.10    7.20
   0   2  -7   13.00   11.60
  -2   0   7   41.20   11.40
  -3   1   7  180.58   20.40
   1   2   7  206.28   17.70
  -1   3  -7  201.98   31.60
  -2   3   7  227.38   24.70
   3  -1   7  213.28   19.40
  -3   1   7  201.88   17.80
  -3   1   7  205.78   23.50
  -2   3   7  189.48   18.90
   1   2   7  210.08   18.00
   3  -1   7  203.68   18.50
  -1   3  -7  200.68   18.20
  -1  -2   7  206.98   22.90
   2  -3   7  193.88   22.40
  -3   1   7  220.88   24.60
   2  -3   7  184.58   20.30
   1   2   7  222.08   22.90
  -1  -2   7  212.18   17.50
  -1  -2   7  218.88   23.40
   2  -3   7  192.88   23.30
  -2   3   7  202.88   17.40
   3  -1   7  205.98   23.50
   2   1  -7  228.48   26.70
   1   2   7  185.18   16.30
  -2  -1   7  207.58   24.10
   1   2  -7  190.58   17.80
   3  -1  -7  194.78   25.00
   3  -2   7  215.68   19.70
   1   2  -7  269.97   29.50
  -1   3   7  218.58   18.70
   1  -3   7  221.28   22.90
  -3   2   7  209.48   22.70
   2   1   7  223.18   17.80
  -2  -1   7  235.58   24.20
  -1   3   7  225.28   23.80
   1  -3   7  216.38   23.60
  -2   3  -7  198.78   18.30
  -3   2   7  209.78   17.70
   1  -3   7  207.18   20.70
  -3   2   7  194.88   19.50
   3  -2   7  214.88   20.50
   2   1   7  222.58   23.20
   2   1   7  199.38   16.50
  -3   2   7  236.88   24.20
   3  -2   7  228.28   24.90
  -2  -1   7  229.28   17.40
   2   1   7  214.48   18.10
  -1   3   7  216.18   19.00
   0   3  -7   -9.40   10.20
  -3   0   7    2.90    8.60
   3   0   7   -1.00    5.90
   3  -3   7   -3.40    7.90
   3  -3   7   -0.30   10.10
   0   3   7    3.00    5.00
   3   0   7    5.00    5.90
   0  -3   7    1.60    5.70
  -3   3   7    2.20   10.10
   0   3   7   -0.60    6.30
   0   3   7   12.40    9.80
  -3   3   7   -0.50    6.40
   0   3   7   -0.40    5.80
   3   0   7  -11.20    9.30
   0  -3   7   -0.50    9.00
   3   0   7    2.50    5.30
  -3   0   7   10.20    9.70
  -3   3   7   -2.80    7.30
   0   3  -7    0.00    6.20
   0  -3   7    0.50    8.70
   3   0  -7    0.90   11.60
  -3   3   7    9.60    9.00
  -3   0   7    4.20    6.10
  -2   4   7  651.73   45.00
   2  -4   7  640.54   49.20
  -2  -2   7  653.93   48.20
  -2   4   7  609.14   48.90
   4  -2   7  658.13   44.90
  -2   4  -7  639.44   44.60
   2  -4   7  642.84   49.40
   4  -2  -7  580.64   51.09
  -4   2   7  666.33   43.80
   2   2   7  640.74   42.10
  -2   4   7  666.63   46.10
  -2  -2   7  635.84   49.80
   2   2  -7  625.94   51.89
   2   2   7  675.43   43.90
  -4   2   7  637.64   49.20
   2   2   7  638.04   43.00
   2   2   7  620.04   47.90
   2   2  -7  604.44   43.90
   4  -2   7  653.33   49.80
  -2  -2   7  633.74   43.20
  -4   2   7  677.63   50.49
   2  -4   7  608.64   46.10
   4  -2   7  673.23   46.40
  -1   4  -7 1215.28   83.09
   4  -1   7 1155.08   72.69
   4  -1   7 1276.27   74.99
  -3   4   7 1170.58   79.59
   4  -1   7 1193.08   73.19
  -1  -3   7 1224.08   78.49
   3   1  -7 1206.98   73.69
  -1  -3   7 1218.08   72.79
   3  -4   7 1178.68   79.59
  -1  -3   7 1183.08   79.59
  -3   4   7 1190.88   73.49
   1   3   7 1232.18   72.69
   4  -1   7 1178.78   78.89
   1   3   7 1210.78   71.69
   3   1  -7 1251.97   82.39
  -4   1   7 1231.98   78.69
  -4   1   7 1187.38   80.09
   3  -4   7 1232.68   79.19
   1   3   7 1280.27   73.59
  -3   4   7 1221.58   74.89
   3  -4   7 1175.58   75.79
   1   3   7 1158.28   77.19
  -4   1   7 1232.88   73.09
  -1   4  -7 1224.68   74.09
   1   3  -7 1028.20   73.49
  -1   4   7  998.80   73.19
  -3  -1   7 1069.69   72.59
  -1   4   7 1096.19   74.29
  -3   4  -7  973.40   73.39
   3   1   7 1093.99   73.19
  -3  -1   7  974.10   78.29
  -1   4   7 1002.80   77.19
   4  -3   7 1040.10   74.69
   4  -3   7 1007.60   78.49
  -4   3   7 1004.70   74.49
   1  -4   7 1024.00   77.79
  -3  -1   7 1046.40   77.09
   1  -4   7 1112.19   78.89
  -4   3   7  949.51   77.49
   3   1   7 1041.00   72.09
  -4   3   7 1058.79   78.79
  -1   4   7 1061.49   72.49
   3   1   7 1065.09   71.79
   4  -1  -7  955.10   79.69
  -4   3   7  996.50   72.69
   3   1   7  998.60   76.69
   1   3  -7  968.20   80.09
   0   4   7 1494.75   96.19
   4  -4   7 1471.15  102.89
   0   4  -7 1529.95  105.69
  -4   0   7 1456.85  100.49
  -4   4  -7 1461.55   97.39
   0   4   7 1587.74   97.19
  -4   0   7 1562.24  103.59
   4   0   7 1431.76   95.29
   0   4  -7 1565.04   97.19
   0  -4   7 1444.56  102.49
   0  -4   7 1521.95   95.89
   0   4   7 1505.15   94.99
   4   0   7 1498.85   95.59
   4   0   7 1562.44   96.89
   0  -4   7 1566.34  101.69
  -4   4   7 1439.36   95.99
  -4   4   7 1484.95  103.19
  -4   4   7 1466.15  101.49
  -4   0   7 1518.05   95.99
   4  -4   7 1477.05   98.89
   4   0   7 1430.36  100.99
   4   0  -7 1394.26  103.79
  -4   4   7 1462.45   98.19
   0   4   7 1512.85  100.39
   2   3   7  359.66   25.00
   2   3   7  329.67   25.10
   3   2  -7  306.77   35.10
   5  -2   7  355.76   28.40
  -2   5  -7  370.16   39.10
  -2  -3   7  352.96   26.80
   3   2  -7  354.46   28.10
   5  -2   7  335.07   28.30
  -3   5   7  389.46   35.20
   3  -5   7  363.26   34.00
   3   2  -7  317.77   28.00
   3  -5   7  317.67   35.00
  -3   5   7  347.57   31.00
   2   3   7  349.87   26.70
  -2  -3   7  323.27   33.40
  -5   2   7  349.77   33.40
   5  -2   7  357.56   30.30
  -5   2   7  329.57   35.10
   2   3   7  338.77   26.30
  -2  -3   7  312.37   32.20
  -2   5  -7  357.06   28.70
   5  -2   7  376.66   37.30
  -5   2   7  339.57   27.90
  -3   5   7  369.26   30.80
   5  -3  -7  322.57   36.90
   3   2   7  405.86   26.00
   5  -3   7  426.16   30.90
  -2   5   7  354.76   33.70
  -3  -2   7  397.26   32.50
   5  -2  -7  411.06   37.30
  -2   5   7  399.36   30.20
   3   2   7  401.96   25.40
  -5   3   7  394.36   36.50
  -3  -2   7  412.86   27.60
  -5   3   7  412.16   35.70
   5  -3   7  375.56   36.30
   2   3  -7  380.26   36.60
   5  -3   7  406.96   32.70
   2   3  -7  354.36   28.20
   2  -5   7  397.56   35.30
   2   3  -7  403.56   28.50
  -3  -2   7  369.46   34.20
   3   2   7  400.16   25.10
  -5   3   7  403.86   28.20
  -2   5   7  408.76   30.70
  -3   5  -7  406.96   29.30
   2  -5   7  430.06   35.10
   5  -1   7  103.19   19.40
   4   1  -7  161.38   23.20
   1   4   7  133.39   11.10
  -1   5  -7  129.29   15.70
   4   1  -7  120.79   16.30
   4  -5   7  128.29   17.50
   4  -5   7  120.79   18.80
   4  -5   7  118.49   21.60
   5  -1   7  121.19   15.30
  -5   1   7  130.79   13.70
  -1  -4   7  131.79   13.60
  -4   5   7  122.99   21.30
  -1  -4   7  115.29   19.00
   5  -1   7  123.89   13.90
   1   4   7  136.39   13.90
   5  -1   7  141.59   15.40
  -4   5   7  120.39   16.40
  -1   5  -7  127.19   22.90
  -5   1   7  142.69   21.60
  -5   1   7  133.59   18.70
   1   4   7  121.59   14.50
  -1  -4   7  118.69   18.60
   1   4   7  121.29   13.00
   1  -5   7  110.29   19.50
   5  -4   7  104.39   16.60
  -1   5   7  111.79   17.90
  -1   5   7  126.49   16.10
   1   4  -7  118.59   21.80
  -5   4   7  116.29   16.60
   4   1   7  127.09   12.40
  -4   5  -7  122.99   15.40
   5  -1  -7  110.19   20.10
  -5   4   7  112.49   20.00
   4   1   7  121.19   12.70
  -5   4   7  104.19   13.00
   4   1   7  119.49   12.80
   1  -5   7  117.19   19.20
  -1   5   7  145.79   13.50
  -4  -1   7  108.99   19.70
  -5   4   7  123.79   21.60
  -1   5   7  102.19   14.00
  -4  -1   7  105.59   17.10
   1   4  -7  114.09   13.90
  -4  -1   7  108.69   12.40
   5  -4   7  111.19   21.40
   4   1   7  122.49   10.90
   0   5   7  188.68   14.60
   5  -5   7  151.08   21.00
   0   5  -7  189.18   18.60
   0   5  -7  199.68   27.60
  -5   0   7  163.18   24.10
   5   0   7  186.08   16.70
   0   5   7  179.48   19.20
   5   0   7  195.58   15.70
  -5   0   7  213.08   23.40
  -5   5   7  160.18   25.80
   0  -5   7  181.08   16.50
   0   5   7  189.18   18.50
   0   5   7  158.68   17.10
   0  -5   7  189.98   24.60
   0  -5   7  162.98   22.20
   5   0   7  183.28   14.10
   5   0   7  158.68   17.10
   5   0  -7  166.98   25.00
  -5   5  -7  193.68   20.40
  -5   5   7  175.28   22.90
  -5   0   7  191.58   18.00
  -3   6   7  577.64   44.30
   3  -6   7  515.95   47.40
   3  -6   7  540.25   46.40
   3   3   7  561.14   37.60
   3   3  -7  607.64   48.80
  -6   3   7  556.04   39.60
  -3  -3   7  560.44   46.50
   6  -3   7  544.05   41.10
   6  -3   7  513.85   42.30
  -3   6   7  572.34   46.20
   3   3  -7  540.15   39.90
  -3   6   7  565.54   42.50
  -3   6  -7  566.54   51.79
  -6   3   7  555.34   50.09
  -3  -3   7  564.44   38.50
   6  -3   7  577.64   44.70
   3   3  -7  577.84   40.00
  -3   6  -7  574.94   40.60
  -6   3   7  518.05   46.00
   6  -3  -7  496.75   48.30
  -2  -4   7    6.40    6.50
  -4   6   7   13.00   11.70
   4  -6   7    5.90   11.20
   6  -2   7   -0.30    8.40
   6  -2   7    2.70    7.40
  -2   6  -7   -4.80    7.60
   2   4   7    1.60    5.80
   4   2  -7    9.20   15.60
  -2   6  -7    9.70   15.10
   6  -2   7    2.50    9.20
  -6   2   7   11.20   18.30
  -6   2   7    4.10   10.70
  -6   2   7   18.10    8.50
  -2  -4   7   13.10   18.50
  -4   6   7   18.40   14.30
   4   2  -7    1.50    7.20
   4   2   7   12.20    5.40
  -2   6   7   -4.00   12.70
  -4  -2   7    1.70    6.70
   2   4  -7   -9.20   16.60
  -2   6   7   12.90    6.80
   2   4  -7    9.70    7.90
   2   4  -7    9.40    7.50
   2  -6   7   41.90   15.60
   6  -4   7    5.80   11.50
  -4   6  -7   11.40    9.00
   6  -4   7    5.60   12.50
   6  -2  -7    9.90   13.40
  -6   4   7   24.00   15.90
  -6   4   7    9.00   13.90
   2  -6   7   -4.40   18.40
  -2   6   7    7.00   10.70
  -2   6   7    4.80   10.70
   6  -1   7 1353.06   82.59
  -6   5  -7 1376.16   87.39
   6  -1   7 1482.25   85.99
  -1   6  -7 1535.95   86.39
  -6   1   7 1476.55   85.39
   6  -1   7 1489.75   83.79
  -5   6   7 1392.46   88.59
   1   5   7 1506.15   85.69
  -6   1   7 1325.17   89.99
   6  -1   7 1355.96   83.79
  -1  -5   7 1396.46   83.99
   5   1  -7 1352.66   85.39
  -5   6   7 1423.46   95.39
   5  -6   7 1246.38   88.69
   1  -6   7 1151.78   83.69
  -1   6   7 1200.38   87.19
   1  -6   7 1146.19   91.59
  -1   6   7 1193.08   83.09
  -5   6  -7 1136.49   85.99
   1   5  -7 1138.29   85.19
  -5  -1   7 1164.88   84.29
   5   1   7 1140.59   83.39
  -6   5   7 1078.49   92.99
  -1   6   7 1092.29   85.49
   0   6  -7   22.80    9.20
   0  -6   7   12.30    6.60
  -6   6  -7   17.80   11.50
   0   6   7   17.60    4.40
  -6   6   7   16.10   13.70
  -6   0   7   13.80    8.50
   0   6   7   16.20   11.00
  -6   6   7   11.80   15.50
   6   0   7   16.20    6.40
  -3   7  -7 1610.34   92.19
   4   3  -7 1434.66   91.19
  -4   7   7 1376.96   97.49
  -3  -4   7 1479.75   89.69
  -4   7   7 1423.56   94.29
  -4   7   7 1490.05   98.39
   7  -3   7 1437.56   91.29
  -7   3   7 1477.85   97.69
   7  -3   7 1430.26   95.89
   7  -3   7 1444.26   90.69
  -7   4   7 1321.27   98.79
  -3   7   7 1313.77   90.49
  -3   7   7 1274.07   93.19
   3   4  -7 1409.56   91.39
  -4  -3   7 1278.47   89.49
  -3   7   7 1231.08   95.79
  -4   7  -7 1358.16   91.59
   3   4  -7 1336.77   91.29
  -2  -5   7  387.76   29.00
   2   5   7  430.56   30.80
  -5   7   7  351.46   40.70
   7  -2   7  419.96   29.70
   7  -2   7  424.16   29.30
   7  -2   7  420.66   33.40
  -7   2   7  430.56   36.70
  -5   7   7  415.96   37.10
  -2   7  -7  439.36   32.00
   7  -2   7  378.06   27.80
   5   2  -7  372.36   30.90
   2   5  -7  399.16   31.60
  -5   7  -7  430.96   33.30
   2   5  -7  410.56   31.40
  -5  -2   7  388.56   30.00
  -2   7   7  417.76   29.20
  -2   7   7  343.27   34.30
  -2   7   7  377.96   37.00
  -7   5   7  470.05   46.00
  -6   7   7  314.67   36.30
   6  -7   7  274.57   29.40
  -7   6  -7  345.17   28.50
  -6   7   7  347.87   32.40
  -7   6   7  200.38   32.00
   1  -7   7  207.48   19.50
  -6  -1   7  237.28   21.50
   6   1   7  237.28   18.40
  -1   7   7  219.78   19.50
  -1   7   7  214.28   27.60
  -1   7   7  251.67   18.10
  -6   7  -7  259.07   24.80
  -1   7   7  222.68   23.40
   1   6  -7  236.78   23.00
   1   6  -7  245.08   22.50
  -7   7  -7  125.19   17.60
   0   7  -7  115.39   14.40
   0   7  -7  117.59   14.80
   0   7   7   90.89   17.50
   0  -7   7   89.89   11.00
  -7   7   7  122.39   21.60
   7   0   7   96.99   11.30
  -4   8   7  455.25   41.00
  -4   8   7  454.55   39.50
   8  -4   7  502.35   33.30
  -4  -4   7  448.76   32.20
   4   4  -7  465.15   34.20
  -4   8  -7  495.65   35.20
  -4   8   7  391.06   42.70
   8  -4   7  342.87   40.40
   8  -3   7 1029.30   64.79
   5   3  -7 1008.70   65.89
   8  -3   7  936.81   69.49
  -5   8   7  911.91   70.09
   8  -3   7 1102.69   63.79
  -3   8  -7 1124.19   66.69
  -3  -5   7  980.60   63.79
   8  -3   7  973.60   65.29
   3   5  -7  912.81   65.59
  -3   8   7  995.80   64.49
  -5  -3   7  860.61   64.09
  -3   8   7  864.11   67.29
   3   5  -7  973.70   65.99
  -5   8  -7  950.40   66.29
  -2   8  -7   11.50    9.40
  -8   6  -7   27.70   15.90
  -2  -6   7   19.00    7.40
   6   2  -7   14.90    8.70
   8  -2   7   18.20    6.30
   8  -2   7   17.90    9.60
  -6   8   7   26.80   16.30
   2   6  -7   31.40   10.20
  -2   8   7   47.10    7.10
  -2   8   7   36.80   10.30
  -6   8  -7   45.10   12.40
  -2   8   7   27.20    7.50
   2  -8   7   29.50    7.40
  -2   8   7   23.00   16.00
   2   6  -7   38.80   10.20
  -6  -2   7   28.10    9.20
   7  -8   7  593.74   49.10
  -1   8  -7  641.44   44.60
   7   1  -7  626.04   44.10
  -1   8  -7  645.74   44.90
   8  -1   7  636.54   42.40
  -7   8   7  582.94   51.49
  -8   7  -7  620.04   47.60
   1  -8   7  568.74   41.70
  -1   8   7  527.85   47.30
  -7   8  -7  698.13   46.50
   1   7  -7  665.03   45.10
   1   7  -7  640.94   44.30
   0   8  -7  830.62   55.49
  -8   8  -7  774.92   56.49
   0   8  -7  817.62   54.79
   0   8   7  800.22   53.89
  -8   8   7  722.23   61.19
  -5   9   7  147.29   26.20
   9  -4   7  133.29   21.60
   9  -4   7  192.58   16.10
   9  -4   7  182.18   18.80
  -4   9  -7  189.08   19.30
  -5   9   7  195.28   25.60
   9  -4   7  185.28   15.70
   5   4  -7  206.68   19.50
  -4   9   7  147.09   18.50
  -5  -4   7  142.49   19.80
   9  -5   7  143.99   16.80
  -5   9  -7  157.28   19.40
  -4   9   7  102.39   23.10
  -4   9   7  152.78   18.90
   4   5  -7  138.09   19.00
   9  -3   7    8.70    6.40
   9  -3   7    3.00   10.50
  -6   9   7    7.60   14.80
   6   3  -7   17.60    9.20
  -3   9  -7    8.00    9.20
   9  -6   7   29.30   16.00
  -3   9   7   13.60   15.30
  -3   9   7   33.90    9.60
  -3   9   7   37.70    7.40
  -3   9   7   28.80    7.50
  -6   9  -7   29.70   11.10
   3   6  -7   29.10   10.10
   3   6  -7   34.40   10.10
  -9   7  -7  194.48   25.50
   7   2  -7  225.68   20.70
   9  -2   7  215.58   18.90
  -2   9  -7  227.78   21.70
  -2   9  -7  212.08   20.80
  -7   9   7  238.58   30.50
   2   7  -7  199.18   20.80
  -2   9   7  191.88   24.70
  -7   9  -7  190.18   22.50
   2  -9   7  186.48   17.30
   2   7  -7  191.78   20.60
  -1   9  -7  383.26   29.70
  -9   8  -7  379.46   32.70
   8   1  -7  392.96   28.90
  -1   9  -7  421.36   30.90
  -8   9   7  385.76   38.20
   9  -1   7  353.26   25.70
  -8   9  -7  363.56   31.30
   1   8  -7  355.16   29.40
   1   8  -7  358.06   30.20
  -1   9   7  375.06   28.60
   9  -9   7   11.20   12.50
   0   9  -7   -2.10    8.90
  -5  10   7   30.20   11.10
  10  -5   7   19.70    9.60
  -5  10  -7   26.80   10.00
  -5  10   7   26.60   10.10
   5   5  -7   23.00    9.70
  10  -5   7   16.20    6.30
  10  -5   7   21.50   13.90
  -5  10   7   21.50   15.60
  -6  10   7   15.80   12.10
  10  -4   7   20.30    4.80
   6   4  -7   16.20   11.10
   6   4  -7   18.10    9.30
  -6  10   7   18.80   26.30
  10  -4   7   20.40    4.50
  10  -4   7   15.20    6.70
  10  -4   7   15.90   11.60
  -4  10  -7   17.70    9.70
  10  -6   7    8.40    7.20
   4   6  -7    5.80    9.50
  -4  10   7    5.60    8.30
  10  -6   7   15.80   14.00
  -6  10  -7    3.10    9.60
  -4  10   7    6.00    7.10
  -4  10   7   10.10    7.50
  -4  10   7    7.30   13.40
  -3  10  -7  384.36   31.00
  -3  10  -7  377.66   34.40
  -7  10   7  389.26   35.00
   7   3  -7  398.06   30.60
  10  -3   7  368.56   29.90
  -7  10  -7  494.95   36.40
   8   2  -7   39.70    9.30
  10  -2   7   28.80    6.30
  -8  10   7   36.10   14.80
  -2  10  -7   27.50   10.30
   2   8  -7   41.50   10.70
  -2  10   7   46.10    9.50
  -9  10   7  217.48   27.30
  -1  10  -7  240.48   22.20
   1   9  -7  247.78   22.50
   0  10  -7    3.50    8.80
  10   0  -7    8.30   11.20
  10 -10   7    3.50    9.60
  -6  11   7  103.69   13.80
   6   5  -7   89.79   14.10
  11  -5   7   80.69   14.90
  11  -5   7   97.89   12.80
  -6  11   7  104.89   13.90
  -6  11   7  114.29   17.50
   6   5  -7   92.49   13.80
  11  -6   7  144.49   12.50
  -5  11   7  142.89   15.80
  11  -6   7  141.09   20.00
  -5  11   7  158.48   14.30
   5   6  -7  152.28   17.50
  11  -6   7  118.39   14.80
  -5  11   7  157.58   18.60
  11  -6   7  137.89   16.30
  -5  11   7  145.49   13.70
   7   4  -7   18.00    8.50
  11  -4   7   11.50    8.00
   7   4  -7    5.10    9.30
  -4  11  -7    4.70    8.70
  -7  11   7   15.20   10.70
  11  -7   7   13.50    6.60
  11  -7   7   24.40   11.80
  -4  11   7   19.80    9.70
   4   7  -7   15.90    9.30
  11  -3   7  583.24   45.80
  -3  11  -7  660.13   48.20
  -8  11   7  704.43   49.99
   8   3  -7  706.43   49.70
   3   8  -7  769.92   49.00
  -3  11   7  749.73   47.30
  -3  11   7  759.62   47.40
  -2  11  -7   46.00    9.80
   9   2  -7   45.10   11.70
  -9  11   7   52.69   12.80
  -2  11   7   51.99    7.10
   2   9  -7   61.19   11.00
  11  -9   7   42.70   11.40
 -10  11   7   84.59   14.00
  -1  11  -7   68.99   10.70
  10   1  -7   96.29   13.20
  11  -1  -7   84.19   13.20
  11 -10   7   46.70   10.70
   1  10  -7   60.09   10.60
   0  11  -7   49.10    9.30
  11   0  -7   66.29   11.00
  -6  12  -7   17.90    7.90
  -6  12   7   14.30    5.40
  -6  12   7   18.90    7.30
   6   6  -7   22.30    8.40
  12  -6   7   18.00    8.30
  -6  12   7   15.00    8.90
  -6  12   7   24.60    6.60
  -6  12   7   11.50    8.60
  12  -5   7  169.38   17.10
  -7  12   7  189.48   19.70
  -5  12  -7  161.08   18.20
  -7  12   7  204.38   19.10
  -7  12   7  161.48   18.90
   7   5  -7  183.48   19.20
   7   5  -7  197.18   18.60
  -7  12   7  189.98   18.60
  -5  12   7  227.18   18.40
  12  -7   7  246.78   15.30
  12  -7   7  218.58   20.10
  12  -7   7  230.48   15.30
  -8  12   7  312.47   23.50
   8   4  -7  288.17   23.50
  -4  12  -7  284.57   22.10
  12  -4   7  260.67   19.40
  12  -8   7  277.87   22.70
  12  -8   7  277.57   20.00
   4   8  -7  279.27   23.40
  -4  12   7  257.47   20.60
  12  -8   7  227.28   22.90
  -9  12   7  475.45   33.30
  -3  12  -7  406.86   30.70
   9   3  -7  456.85   32.30
  12  -9   7  419.76   31.60
   3   9  -7  436.96   31.90
  12  -9   7  389.96   31.20
  12  -3  -7  453.05   32.90
  10   2  -7   80.49   10.60
  12  -2  -7   49.20   10.10
   2  10  -7   38.90    9.00
  13  -6   7  201.08   16.40
  13  -7   7  231.18   17.40
  -5  13   7  198.08   15.30
   5   8  -7  171.48   16.50
   0   0   8 1039.90   68.19
   0   0   8 1043.00   74.19
   0   0   8 1058.89   69.79
   1   0   8    4.20    7.50
   1  -1   8    4.60    7.70
   0   1   8    2.10    7.20
  -1   1   8    3.20    6.50
   1  -1   8   12.70   10.90
   1   0   8    5.60    6.30
   0   1   8    5.90    7.70
   1   0   8    0.70    7.40
  -1   1   8   10.40   11.10
  -1   0   8    5.10    6.40
   0   1   8    7.30   10.10
   0   1   8    5.60    6.10
   0  -1   8    6.70    9.70
   0  -1   8    3.40    7.80
   0  -1   8   13.10    6.60
  -1   0   8   16.30   10.70
   1   0   8    6.10   10.60
  -1   1   8    5.20    7.50
   1  -1   8   12.90    6.90
  -1   0   8   -2.40    7.30
   1   1   8  134.49   15.10
  -2   1   8  133.49   13.20
  -1  -1   8  133.39   19.00
   1   1   8  128.19   19.50
   2  -1   8  125.39   16.40
  -1   2   8  131.59   19.40
  -1   2   8  107.69   15.40
  -2   1   8  157.78   20.40
   1  -2   8  118.99   12.90
   2  -1   8  124.49   12.70
  -1  -1   8  123.79   16.30
  -1  -1   8   94.99   17.80
   1  -2   8  110.69   14.70
  -2   1   8  107.09   14.40
  -1   2   8  136.19   12.90
  -1  -1   8  122.09   12.80
   1  -2   8  125.09   18.80
   2  -1   8  128.09   19.60
   1   1   8  128.49   15.00
  -1   2   8  118.59   16.40
   2  -1   8  124.29   15.80
  -2   0   8  443.26   30.90
   0  -2   8  421.06   36.50
   0   2   8  428.06   36.80
   2   0   8  464.55   37.20
   2  -2   8  426.16   30.90
   2  -2   8  433.06   32.80
  -2   0   8  392.46   32.30
  -2   2   8  463.45   38.10
  -2   0   8  438.76   37.10
   0  -2   8  420.36   30.60
   0   2   8  434.26   31.50
   0  -2   8  409.56   32.90
   2   0   8  415.66   29.90
  -2   0   8  371.16   36.00
   2   0   8  432.86   31.50
   2  -2   8  441.56   37.50
   0  -2   8  392.66   36.20
  -2   2   8  422.26   32.30
   0   2   8  420.56   32.10
   2   0   8  444.36   32.50
  -2   2   8  408.96   30.40
  -2   3   8  827.12   57.89
   1   2   8  873.61   58.39
   1   2   8  802.02   57.19
   3  -1   8  824.12   57.69
   3  -1   8  826.12   64.49
   3  -1   8  822.22   58.79
   2  -3   8  806.02   60.39
   1   2   8  873.91   59.19
  -1  -2   8  844.22   70.99
   1   2   8  840.72   63.89
  -3   1   8  802.72   63.99
   3  -1   8  902.41   60.69
   2  -3   8  812.72   64.49
  -3   1   8  742.63   64.39
  -2   3   8  901.51   65.09
  -2   3   8  833.12   59.59
  -1  -2   8  862.91   64.09
  -3   1   8  862.81   58.29
  -1  -2   8  851.81   58.09
  -3   2   8  884.61   60.09
   2   1   8  900.21   57.59
  -1   3   8  908.51   60.49
  -1   3   8  941.51   59.69
   1  -3   8  840.82   64.19
  -2  -1   8  944.51   58.39
   2   1   8  940.61   59.59
  -1   3   8  925.31   64.79
   1  -3   8  946.31   58.69
   3  -2   8  900.91   65.29
  -3   2   8  893.81   58.39
   1  -3   8  848.12   60.49
   2   1   8  956.00   58.49
  -3   2   8  864.11   64.69
   2   1   8  991.30   65.09
  -2  -1   8  853.91   69.59
   3  -2   8  948.91   60.29
   3  -2   8  939.71   61.89
   1  -3   8  909.71   64.79
  -2  -1   8  919.91   63.89
   0   3   8   44.20    9.80
  -3   3   8   55.09   15.70
   3   0   8   38.90    9.30
  -3   3   8   40.00   11.10
   0   3   8   43.30    7.50
   3   0   8   46.80    9.20
   0  -3   8   59.69   14.90
  -3   0   8   32.80   12.70
   3   0   8   49.70    8.50
  -3   0   8   45.30    8.80
   3  -3   8   49.90   15.70
   0  -3   8   58.69    9.20
   3   0   8   44.80   14.90
   0   3   8   49.50    9.70
   3  -3   8   46.70   11.70
   0   3   8   47.30   14.30
  -3   3   8   46.90    9.00
   2   2  -8 4168.08  290.67
   2   2   8 4819.82  289.27
  -2   4   8 4666.13  293.27
   4  -2   8 4522.95  296.97
  -4   2   8 4721.03  290.57
  -4   2   8 4631.14  296.87
   2   2   8 4702.93  290.97
  -2  -2   8 4731.13  290.27
   2  -4   8 4559.84  296.97
  -2   4   8 4638.94  296.37
  -2  -2   8 4655.43  295.97
   2  -4   8 4393.86  292.67
   4  -2   8 4583.94  291.37
   2   2   8 4811.32  289.87
   4  -2   8 4752.42  293.47
  -2   4   8 4648.33  291.67
  -4   1   8  386.66   33.00
   1   3   8  394.36   26.60
   3  -4   8  354.26   30.30
  -1   4  -8  363.36   27.60
  -3   4   8  381.86   36.90
   4  -1   8  384.66   27.90
   1   3   8  379.16   24.00
   1   3   8  382.96   26.10
  -1  -3   8  387.16   33.10
  -3   4   8  366.26   29.40
  -4   1   8  364.96   26.60
   4  -1   8  380.76   26.10
   3  -4   8  355.16   35.70
   4  -1   8  353.46   34.70
   4  -1   8  378.26   26.40
  -1  -3   8  393.16   25.90
  -1   4   8  286.57   27.30
  -3  -1   8  275.37   25.30
   3   1   8  286.77   24.80
  -4   3   8  267.37   28.60
   4  -3   8  253.57   28.00
   1  -4   8  304.37   33.50
  -3  -1   8  308.97   30.70
   1  -4   8  294.47   25.70
  -4   3   8  280.27   33.90
  -4   3   8  284.37   25.80
   3   1   8  314.97   26.00
   3   1   8  301.07   25.60
  -1   4   8  297.37   32.10
   4  -3   8  323.97   34.90
   3   1   8  290.27   24.20
  -1   4   8  290.67   24.70
  -1   4   8  301.57   27.30
   4   0   8 1448.46   92.59
   0   4   8 1517.05   93.79
  -4   0   8 1487.35   93.49
   4   0   8 1481.75   92.69
   0   4   8 1407.16   91.79
   0  -4   8 1516.95   93.09
   0  -4   8 1495.05   99.89
  -4   4   8 1438.66  101.69
   4  -4   8 1403.56  101.59
  -4   4   8 1319.67   93.09
   4   0   8 1476.15   94.09
   0   4  -8 1447.46   94.29
   4  -4   8 1394.26   96.39
   0   4   8 1484.85   94.89
  -4   4   8 1338.57   95.49
  -4   0   8 1400.46   98.69
   5  -2   8  571.24   52.29
   5  -2   8  606.94   45.80
   5  -2   8  629.64   43.80
   2   3   8  624.44   42.00
  -5   2   8  642.34   43.70
  -5   2   8  553.84   49.40
  -2  -3   8  614.14   42.60
   2   3   8  620.94   42.90
   3  -5   8  541.95   46.80
  -2  -3   8  608.54   49.20
   3   2  -8  534.65   43.20
   5  -2   8  620.64   44.30
   2   3   8  644.14   40.60
  -2   5  -8  600.14   44.30
  -3   5   8  560.94   47.10
   3  -5   8  683.93   53.09
   2   3   8  566.04   40.60
  -3   5   8  549.74   50.39
  -3   5   8  591.54   46.00
  -5   3   8  658.53   43.90
  -2   5   8  647.54   50.19
   2   3  -8  597.94   43.60
   5  -3   8  651.93   47.90
   3   2   8  603.94   40.20
   3   2   8  661.83   41.50
  -3  -2   8  646.14   42.90
  -2   5   8  661.83   46.70
   3   2   8  660.63   42.60
  -2   5   8  621.84   42.80
   2  -5   8  593.84   50.99
   5  -3   8  649.54   45.50
  -5   3   8  658.03   52.19
  -3  -2   8  603.74   49.00
  -3   5  -8  643.64   44.80
   5  -3   8  590.14   52.39
  -2   5   8  646.34   45.70
   2   3  -8  632.94   43.70
   3   2   8  693.03   41.00
  -1   5  -8   76.89   12.40
   1   4   8   76.29   11.00
   1   4   8   78.79   11.40
  -5   1   8   81.69   12.10
   5  -1   8   66.39   10.00
  -4   5   8   67.09   14.50
   5  -1   8   66.89   11.50
  -1  -4   8   65.19   17.60
  -4   5   8   64.39   19.40
   1   4   8   63.69    8.70
   4  -5   8   65.99   15.60
  -1  -4   8   80.69   10.40
  -5   1   8   67.29   16.20
   4  -5   8   69.09   19.00
   5  -1   8   70.99   11.50
   1   4   8   84.99    9.40
   1  -5   8   64.49   10.20
   4   1   8   66.29    8.30
   1  -5   8   94.59   19.00
  -1   5   8   78.69    9.50
  -4  -1   8   75.49   11.00
   4   1   8   79.79   11.30
   4   1   8   73.69    8.80
  -4  -1   8  110.19   17.60
   1   4  -8   56.39   11.10
   4   1   8   67.09    9.30
  -5   4   8  103.59   21.60
   5  -4   8   69.69   15.00
   1   4  -8   70.09   11.40
  -1   5   8   84.09   13.20
  -1   5   8   81.89   13.50
  -5   4   8   68.99   14.60
   5  -5   8   29.00   14.30
   0   5   8   16.60    8.10
   5   0   8   19.60    6.30
   5   0   8   15.70    7.10
   0   5   8   22.20    5.40
   0   5   8   21.30    9.70
  -5   5   8   15.80   13.10
   0   5  -8   22.20    8.90
   0   5   8   24.50    9.90
  -5   5   8    8.00   16.20
  -5   0   8   12.00    8.80
   5   0   8   18.70    7.00
   0  -5   8   23.70    7.50
   0  -5   8   -0.40   21.50
   5   0   8   26.00    4.70
  -5   0   8   15.60   16.70
  -3   6   8   78.49   15.00
   6  -3   8   67.99   12.30
   6  -3   8   61.89   13.20
   3   3   8   83.99   11.00
   3   3  -8   65.59   11.10
   6  -3   8   67.79   14.80
  -3   6  -8   82.79   13.30
  -3  -3   8   63.49   10.00
  -3   6   8   96.29   17.80
   6  -2   8  161.18   17.50
  -2   6  -8  164.98   18.00
   6  -2   8  161.88   16.20
  -4   6   8  167.78   20.00
   4  -6   8  154.78   20.50
   6  -2   8  162.18   18.40
   4   2  -8  139.49   16.40
  -2  -4   8  148.99   15.00
  -6   2   8  162.68   15.90
   2   4   8  160.18   15.20
   2  -6   8  110.99   13.90
   2   4  -8  102.49   14.60
  -2   6   8  136.69   14.80
   6  -4   8   96.39   17.20
  -2   6   8  135.19   19.70
   4   2   8  114.89   12.90
  -2   6   8  121.89   17.20
   2   4  -8  119.99   16.10
   6  -4   8  103.59   19.90
  -4   6  -8  127.69   16.70
  -4  -2   8  126.19   14.00
   6  -1   8  175.88   13.40
  -1  -5   8  172.18   16.40
   1   5   8  173.28   19.30
   6  -1   8  197.78   15.30
  -6   1   8  195.78   19.80
  -5   6   8  205.18   26.30
   5  -6   8  166.18   23.30
   6  -1   8  174.38   17.50
   6  -1   8  181.38   15.50
  -1   6  -8  200.98   19.30
  -1   6   8  152.38   21.60
   5   1   8  171.68   15.20
  -1   6   8  168.88   14.50
  -1   6   8  184.38   23.50
  -5   6  -8  167.68   21.00
  -6   5   8  177.38   22.90
  -1   6   8  137.59   16.10
   1   5  -8  163.28   18.60
   6  -5   8  151.28   22.60
   1   5  -8  171.18   18.60
  -5  -1   8  173.78   18.40
   1  -6   8  164.48   16.60
   0   6   8   51.29   13.80
   0   6  -8   50.89   10.60
   6  -6   8   30.40   16.70
   0  -6   8   43.80    8.20
   0   6  -8   39.10   10.20
  -6   6   8   48.40   16.30
   6   0   8   34.00    7.40
  -6   0   8   35.70   10.10
   7  -3   8  204.98   17.60
  -3  -4   8  189.98   16.50
   7  -3   8  185.88   22.20
  -4   7   8  210.58   26.50
  -4   7   8  188.68   26.50
  -3   7  -8  226.38   20.30
   4   3  -8  192.18   18.50
   7  -3   8  185.08   18.30
   3   4  -8  136.69   17.70
  -3   7   8  154.98   18.10
   7  -4   8  148.19   19.20
  -3   7   8  127.09   19.60
   7  -4   8  137.59   18.40
  -4  -3   8  162.78   17.00
  -4   7  -8  151.08   19.50
   7  -4   8  114.59   21.50
  -3   7   8  121.29   22.70
   2   5   8   64.39   12.00
  -2   7  -8   57.69   11.90
   7  -2   8   66.09   11.70
  -5   7   8   69.89   17.60
   7  -2   8   71.29    8.60
   7  -2   8   71.99    9.20
   7  -2   8   73.69    8.40
  -2  -5   8   69.39    9.90
   5   2  -8   74.69   11.50
  -2   7   8   66.29   17.70
   7  -5   8   59.49   18.40
  -5  -2   8   84.39   11.50
   2   5  -8   82.49   12.50
  -2   7   8   64.39   13.70
  -2   7   8   83.09   11.80
   7  -5   8   67.59   16.90
  -5   7  -8   74.89   14.10
   2  -7   8   68.79   10.10
   2   5  -8   87.49   12.60
  -2   7   8   82.69    9.00
  -1   7  -8    4.00    8.60
  -1   7  -8   13.20    8.80
  -6   7   8   -0.70   15.40
   7  -1   8    6.30    6.20
  -1  -6   8    1.20    6.50
   1   6   8    1.60   11.30
   6  -7   8  -10.80   14.30
   7  -6   8    2.80   15.60
   1   6  -8    7.50    8.50
   1   6  -8   11.70    8.80
  -7   6   8   35.40   16.50
   6   1   8    9.60    4.60
  -6  -1   8   -1.40    8.50
  -1   7   8   18.70   14.40
  -6   7  -8   24.70   12.00
   1  -7   8   13.20    6.90
   0  -7   8  332.37   24.10
   0   7  -8  376.16   27.60
   7   0   8  302.47   22.60
   0   7  -8  338.77   26.40
  -7   7   8  349.17   36.60
   7  -7   8  257.87   35.80
   0   7   8  279.07   29.20
  -4   8   8  128.79   14.40
   8  -4   8   97.59   18.20
   4   4  -8  101.59   13.50
  -4   8   8   99.69   17.20
  -4   8   8  101.79   23.00
  -4  -4   8  109.69   12.50
   8  -4   8  106.79   13.90
  -4   8  -8  119.29   15.50
   8  -4   8  100.29   11.70
   5   3  -8  281.77   25.50
   8  -3   8  292.97   22.20
   8  -3   8  307.27   23.80
   8  -3   8  304.77   21.70
  -3   8  -8  307.57   26.60
  -5   8   8  245.18   34.70
   8  -3   8  280.17   27.40
  -3  -5   8  272.17   24.10
  -5   8   8  267.07   32.70
   8  -3   8  309.67   22.30
  -5   8  -8  350.66   27.90
  -5  -3   8  360.66   25.40
  -3   8   8  357.96   23.70
   8  -5   8  353.26   30.50
  -3   8   8  272.87   34.50
   3   5  -8  342.77   26.40
  -3   8   8  342.77   28.50
  -3   8   8  366.76   25.90
   8  -5   8  332.17   25.50
   3  -8   8  313.97   24.30
   8  -2   8   93.99   12.90
   6   2  -8  122.09   15.00
  -6   8   8  109.69   19.60
  -2   8  -8  106.49   13.80
  -2  -6   8   96.69   10.60
  -6  -2   8   79.09   11.90
   2   6  -8   74.49   12.60
  -2   8   8   79.69   18.50
   8  -6   8   54.49   17.50
   2   6  -8   86.09   12.80
  -6   8  -8   70.09   14.20
   2  -8   8   73.59   10.30
   8  -1   8  406.26   28.30
  -7   8   8  409.26   39.50
   7  -8   8  411.76   38.90
  -1  -7   8  389.86   29.00
  -1   8  -8  419.86   32.10
   1  -8   8  399.56   28.80
  -1   8   8  401.16   33.70
   1   7  -8  424.56   31.80
   0   8  -8  490.25   34.80
   8  -8   8  447.96   41.00
  -8   8   8  422.46   41.60
   9  -4   8  150.58   14.90
  -5   9   8  171.48   22.30
   9  -4   8  156.48   12.10
   9  -4   8  149.88   12.30
  -5   9   8  166.08   19.60
   9  -4   8  127.99   19.60
   5   4  -8  149.69   17.00
  -4  -5   8  132.99   16.70
  -5   9   8  149.09   24.70
  -4   9   8  149.39   15.60
  -5  -4   8  133.59   14.40
   9  -5   8  142.59   18.40
  -4   9   8  136.39   22.30
  -4   9   8  135.99   15.80
   4  -9   8  155.38   15.30
   9  -5   8  102.39   19.30
   9  -5   8  144.39   14.60
  -4   9   8  153.78   17.00
   9  -5   8  139.19   14.70
   4   5  -8  139.89   17.60
  -6   9   8  557.04   42.20
   6   3  -8  544.95   37.70
   9  -3   8  546.05   37.60
   9  -6   8  475.25   40.50
   9  -6   8  505.45   36.50
   3   6  -8  530.85   38.20
  -3   9   8  483.45   41.90
   3  -9   8  516.05   35.70
   9  -2   8  206.08   17.10
  -7   9   8  231.38   28.20
  -2   9  -8  226.78   21.30
   2  -9   8  207.08   17.40
   2   7  -8  218.78   20.90
   9  -7   8  196.38   26.70
  -2   9   8  217.88   21.40
   8  -9   8  270.77   29.60
  -8   9   8  265.37   31.50
  -1   9  -8  264.37   24.90
   1   8  -8  346.37   25.30
   9  -8   8  312.87   31.00
  -9   9   8  710.63   52.29
   9  -9   8  701.83   51.59
   0   9  -8  703.63   48.40
  -5  10   8   35.70    9.20
   5   5  -8   29.70    9.10
  -5  10   8   30.90    7.40
   5 -10   8   19.00    7.00
  -5  10   8   30.60    7.90
  10  -5   8   26.90    6.80
  -5  10   8   27.00   13.60
  10  -5   8   32.00   11.00
  -6  10   8   43.40   15.60
  10  -4   8   41.40    9.30
   6   4  -8   45.50   12.90
   6   4  -8   39.40    9.60
  -4  10  -8   44.30   10.50
  -6  10   8   63.19   11.60
  -6  10   8   54.29   11.90
  10  -6   8   69.89   14.10
  10  -6   8   60.79   10.60
  10  -6   8   44.70   10.10
   4 -10   8   56.39    8.00
   4   6  -8   63.49   10.60
  -4  10   8   74.29   13.50
  10  -6   8   56.19    7.40
   7   3  -8  255.97   23.90
  -3  10  -8  266.47   25.30
   7   3  -8  278.47   26.60
  10  -3   8  252.27   22.20
  -7  10   8  291.07   28.00
  10  -7   8  341.37   23.40
  10  -7   8  368.26   27.70
  -3  10   8  376.06   25.10
   3   7  -8  377.86   26.10
   3 -10   8  329.67   27.00
  10  -7   8  333.17   29.30
  -8  10   8 1032.70   68.19
   8   2  -8 1012.10   67.79
  -2  10  -8  944.71   66.29
   2   8  -8 1006.10   66.59
  10  -8   8 1039.80   68.49
   9   1  -8  433.76   31.60
  -9  10   8  401.96   32.60
  -1  10  -8  403.46   29.60
   1   9  -8  378.96   29.70
  10  -9   8  350.96   31.30
  10   0  -8    4.40    8.70
   0  10  -8    7.40    7.50
   6 -11   8   16.80    5.90
  -6  11   8   35.60   10.20
  -6  11   8   28.20    6.20
  -6  11   8   21.90    5.70
  -5  11  -8   18.80    8.40
  -6  11   8   21.20    7.30
  11  -5   8   19.10    6.90
   6   5  -8   30.90    8.00
   5 -11   8   28.90    5.60
  -5  11   8   21.70    8.70
  11  -6   8   22.40    8.40
   5   6  -8   19.80    7.90
  11  -4   8  187.58   14.80
  -7  11   8  208.38   18.40
  -4  11  -8  197.98   18.30
  -7  11   8  201.68   20.00
  -7  11   8  234.88   18.80
   7   4  -8  194.28   17.00
   7 -11   8  200.58   15.70
   7   4  -8  204.08   18.90
  -4  11   8  197.08   16.60
  11  -7   8  176.28   16.60
  -4  11   8  183.08   16.30
  11  -7   8  165.48   18.90
  11  -7   8  193.68   14.40
  11  -7   8  164.18   14.10
   4   7  -8  181.78   17.90
  -8  11   8  170.18   17.70
   8   3  -8  150.38   15.40
  -3  11  -8  141.29   14.70
  11  -8   8  108.79   11.50
  11  -8   8  106.69   14.60
  11  -8   8   69.69   17.90
   3   8  -8  109.69   14.40
  -2  11  -8   49.10    8.70
   9   2  -8   59.09    9.90
  11  -2  -8   39.40   10.00
   2   9  -8   36.00    8.30
  12  -6   8    9.20    5.50
   0   0   9    3.20    8.00
   0   0   9    2.60    7.00
   0   0   9   13.30   11.90
  -1   0   9  575.04   38.90
  -1   1   9  600.84   49.99
  -1   0   9  551.44   40.60
   1   0   9  545.95   50.19
   0   1   9  538.85   49.20
   1   0   9  518.45   40.60
   0   1   9  542.55   38.30
   1  -1   9  540.75   40.30
  -1   1   9  540.45   40.30
  -1   1   9  572.84   38.50
   1   0   9  569.44   40.10
  -1   0   9  578.14   56.09
   0  -1   9  466.05   55.89
   1  -1   9  576.44   38.70
   0   1   9  543.45   39.80
   1  -1   9  567.44   49.40
   1   0   9  572.04   38.30
   0   1   9  540.85   40.90
   0  -1   9  528.05   40.60
   0  -1   9  589.44   38.90
  -1  -1   9   74.29   13.10
  -1   2   9   84.39   17.90
   2  -1   9   84.19   13.40
   1  -2   9   84.29   13.80
  -2   1   9   83.39   11.20
   1   1   9   83.19   12.50
  -1   2   9   86.99   11.00
   1   1   9   89.09   12.00
   2  -1   9   79.59   12.50
  -2   1   9   76.89   13.00
  -1   2   9   77.59   12.50
   1  -2   9   77.89   11.50
   2  -1   9   90.89   11.20
   1   1   9   93.29   11.30
  -1  -1   9   89.59   11.60
   0   2   9    3.30    8.40
   2   0   9    7.10    7.80
   2   0   9   16.10    8.20
  -2   0   9    4.40    7.70
   0  -2   9   14.10    9.40
   0   2   9    7.80    7.10
  -2   2   9   12.30    9.40
   2   0   9   12.10    7.70
  -2   0   9    1.90    8.50
  -2   2   9   13.60    7.80
   0   2   9   15.70    8.70
   0  -2   9   20.40    8.10
   2  -2   9   24.30    8.30
   2  -2   9   11.90    9.50
   3  -1   9  261.87   19.10
   3  -1   9  244.38   20.60
   2  -3   9  256.07   23.80
  -2   3   9  231.68   22.70
   1   2   9  233.58   20.30
  -3   1   9  240.58   20.20
   1   2   9  252.37   20.00
   2  -3   9  260.47   20.70
  -3   1   9  205.88   21.80
   3  -1   9  237.98   20.70
   3  -1   9  247.78   22.00
   1   2   9  253.97   18.50
  -1  -2   9  256.07   19.80
   3  -2   9  166.28   19.20
   2   1   9  174.88   18.70
   2   1   9  162.88   19.00
   1  -3   9  178.88   22.40
   1  -3   9  193.48   19.60
   3  -2   9  161.28   21.10
   3  -2   9  194.78   22.60
   2   1   9  179.68   18.40
  -3   2   9  177.88   22.60
  -1   3   9  190.08   21.10
  -2  -1   9  207.28   19.40
  -3   2   9  172.48   19.50
  -1   3   9  171.38   21.20
  -3   3   9   -5.10    9.90
  -3   3   9    6.40    8.00
  -3   0   9   -8.60    7.40
   3   0   9    4.50    7.30
   3   0   9   -2.40    6.80
   0  -3   9   11.10    7.80
   3   0   9   -1.10    7.10
   3  -3   9    7.10   10.50
   3  -3   9    2.00    8.40
   0   3   9    1.00    6.10
   0   3   9    1.30    8.00
   0   3   9    2.00    8.20
   4  -2   9 1104.29   72.29
   2   2   9 1074.29   69.49
  -2  -2   9 1088.19   70.99
  -4   2   9 1107.89   71.49
   4  -2   9 1053.09   71.99
  -2   4   9 1048.70   74.49
   2   2   9  996.70   69.19
   2   2   9 1121.99   69.59
   2   2   9 1036.50   71.49
   4  -2   9 1038.10   74.19
   2  -4   9 1081.79   74.39
  -4   2   9 1158.78   74.49
   2   2   9 1083.79   70.39
   2  -4   9 1134.99   71.79
  -2   4   9 1118.99   73.19
   4  -2   9 1088.79   70.89
  -1  -3   9  124.19   15.50
   4  -1   9  138.19   17.30
  -3   4   9  146.99   19.20
  -4   1   9  123.09   16.10
   1   3   9  141.99   15.30
   4  -1   9  144.69   18.70
   1   3   9  137.69   17.80
   3  -4   9  125.49   17.00
   4  -1   9  141.59   18.50
   1   3   9  134.69   16.00
   3  -4   9  138.19   19.90
   1   3   9  147.59   17.80
   3   1   9  196.78   17.40
  -1   4   9  216.88   20.80
   4  -3   9  219.28   22.20
   3   1   9  193.58   14.50
  -4   3   9  222.98   23.70
   4  -3   9  216.88   19.20
  -1   4   9  215.38   16.60
   3   1   9  193.68   16.40
  -3  -1   9  207.48   18.20
  -4   3   9  216.98   19.10
   3   1   9  207.88   16.60
  -1   4   9  222.58   21.30
   1   3  -9  198.28   18.60
   1  -4   9  209.28   18.20
   4   0   9 1148.09   73.09
   0   4   9 1149.58   74.69
   0   4   9 1125.29   72.39
  -4   0   9 1198.28   74.69
   4   0   9 1133.99   72.19
  -4   4   9 1156.98   77.59
   4  -4   9 1169.28   78.19
   4   0   9 1098.79   74.69
   4   0   9 1088.39   73.49
   4  -4   9 1186.38   75.59
   0  -4   9 1119.29   73.99
   0   4   9 1166.18   76.29
   0   4   9 1070.79   73.19
   0   4  -9 1067.19   74.69
   2   3   9  407.76   29.00
  -3   5   9  465.05   33.90
   3  -5   9  448.56   30.60
  -2  -3   9  440.46   28.60
   3  -5   9  440.66   35.00
  -3   5   9  426.46   35.90
   5  -2   9  401.76   30.80
   5  -2   9  448.46   32.20
  -5   2   9  428.96   30.00
   5  -2   9  436.96   29.50
   2   3  -9  339.27   29.10
  -3  -2   9  330.17   28.30
  -2   5   9  334.47   33.40
  -2   5   9  309.07   27.40
   2  -5   9  355.16   29.30
   5  -3   9  339.97   33.30
   5  -3   9  307.07   28.80
  -2   5   9  360.56   32.00
   5  -3   9  308.37   31.20
  -5   3   9  376.66   33.60
   3   2   9  326.17   27.80
   5  -3   9  345.27   30.70
  -4   5   9   -2.80   12.40
   5  -1   9    6.60    7.90
   5  -1   9   -2.30    7.40
   4  -5   9    8.60   13.40
  -5   1   9   -2.50    8.50
   5  -1   9   12.40    5.10
   4  -5   9    4.60   10.40
  -1  -4   9    5.50    7.20
   1   4   9    0.60    8.40
   5  -1   9    0.40    6.30
  -1   5   9    2.60   10.00
  -4  -1   9    3.80    8.10
   1  -5   9    4.70    7.80
   4   1   9    1.20    6.20
  -1   5   9   16.40   11.60
   5  -4   9    2.80   10.20
  -1   5   9   -5.20    8.90
  -1   5   9    3.10    5.50
   1   4  -9    1.40    7.80
   5  -4   9    2.50   11.90
  -5   4   9    9.50   12.60
  -5   5   9  137.19   19.70
   0   5   9  143.59   20.10
   5  -5   9  121.29   20.60
   5   0   9  118.89   13.70
  -5   0   9  136.49   14.80
   0   5  -9  134.49   16.80
   0  -5   9  153.58   15.50
   6  -3   9  336.77   33.50
   6  -3   9  364.16   32.50
   3  -6   9  348.57   28.80
   3   3   9  348.17   26.90
   3   3  -9  376.06   28.50
  -3   6   9  391.26   33.80
  -3   6   9  368.36   36.10
  -3  -3   9  381.46   27.90
  -3   6   9  378.66   28.10
   6  -3   9  368.96   29.10
   6  -3   9  350.86   29.00
   6  -2   9    7.30    6.60
  -2  -4   9    5.00    7.20
   6  -2   9    5.30    8.60
  -4   6   9    1.20   17.00
   4  -6   9   19.80   14.10
   2   4   9    2.50    8.30
   6  -2   9    9.00    4.70
  -4   6   9    9.90   13.50
   6  -2   9   -0.70    6.60
   4  -6   9    1.20   10.10
  -2   6   9   17.60   10.30
   6  -4   9    7.30   10.70
  -2   6   9   16.50   11.80
   4   2   9    9.30    6.30
   6  -4   9   12.50   10.10
   2   4  -9   11.70    8.10
  -2   6   9   10.60   13.80
   2  -6   9   23.50    8.30
  -6   4   9   12.40   15.70
  -2   6   9   11.90    6.20
  -4  -2   9    6.80    8.10
   6  -4   9   17.80   13.90
   1   5   9  293.77   27.60
  -1   6  -9  291.47   26.00
  -1  -5   9  256.17   24.00
  -5   6   9  296.17   32.80
   5  -6   9  253.57   33.80
   6  -1   9  304.27   24.70
  -6   5   9  354.76   33.30
   1  -6   9  361.06   24.80
  -1   6   9  337.07   31.70
  -5  -1   9  369.06   26.10
   5   1   9  316.47   23.10
   6  -5   9  305.77   32.70
   1   5  -9  369.66   26.60
  -6   6   9    5.10   14.90
   6   0   9    3.50    5.30
   0   6   9    3.10   12.30
   0  -6   9   -2.50    6.70
   6  -6   9    3.50   15.40
   0   6  -9   -0.70    8.30
  -4   7   9  222.08   32.90
  -4   7   9  245.98   23.30
  -3  -4   9  232.18   21.30
   7  -3   9  239.18   19.50
   4  -7   9  184.28   22.60
   4   3  -9  214.88   21.80
   7  -3   9  233.78   24.50
   7  -3   9  229.88   20.70
   7  -3   9  234.68   18.60
  -4   7   9  225.08   28.90
  -3   7   9  262.67   26.60
  -3   7   9  252.07   31.60
   7  -4   9  290.37   22.80
   7  -4   9  257.27   28.10
   7  -4   9  304.17   23.90
  -3   7   9  306.37   20.40
   7  -4   9  295.27   21.80
  -3   7   9  343.97   25.50
  -4  -3   9  305.37   22.40
   3   4  -9  306.07   22.90
   3  -7   9  268.47   22.40
  -5   7   9  296.27   32.10
  -2   7  -9  328.67   25.00
   7  -2   9  312.77   24.00
   5  -7   9  254.07   31.60
  -2  -5   9  308.57   22.90
   5  -7   9  261.67   26.40
   7  -5   9  203.88   30.60
  -5  -2   9  301.17   24.00
   7  -5   9  299.57   24.70
   2  -7   9  268.17   22.90
  -2   7   9  253.67   31.10
   7  -5   9  309.07   29.10
   2   5  -9  314.47   24.60
  -6   7   9  214.88   28.80
  -1   7  -9  248.38   20.00
  -1  -6   9  213.28   17.10
   7  -1   9  189.68   15.60
   6  -7   9  154.38   24.00
   7  -6   9  118.99   21.70
   1   6  -9  193.98   19.00
  -1   7   9  151.38   21.10
   1  -7   9  179.48   16.80
  -7   6   9  189.78   24.30
  -7   7   9  738.93   58.19
   0  -7   9  723.43   50.79
   0   7  -9  850.31   53.09
  -4   8   9  833.92   52.59
   8  -4   9  833.32   52.89
   4  -8   9  810.62   53.89
  -4  -4   9  740.53   53.29
   4   4  -9  802.42   54.19
   8  -4   9  779.92   56.79
   8  -4   9  841.52   51.39
   8  -4   9  865.51   51.59
  -4   8   9  666.43   60.09
   5  -8   9  535.65   35.90
  -3  -5   9  474.05   34.00
   8  -3   9  516.25   35.70
  -5   8   9  498.75   36.10
  -3   8  -9  513.45   35.90
  -5   8   9  394.46   42.80
  -5   8   9  539.35   39.80
   8  -5   9  508.45   33.80
   3  -8   9  486.85   34.20
  -3   8   9  396.16   40.50
   8  -5   9  493.65   36.10
  -5  -3   9  453.75   34.50
   3   5  -9  506.05   35.50
   6  -8   9   23.60   13.90
   8  -2   9   20.40    6.00
   6  -8   9   14.20   10.30
  -2  -6   9   27.20    7.30
  -6   8   9   20.70   14.10
  -2   8  -9   23.10    9.10
   8  -6   9    9.70   13.50
   8  -6   9   18.30    7.40
   8  -6   9    1.00   10.90
   2  -8   9   11.70    6.60
  -2   8   9   11.00   12.20
   2   6  -9    9.30    7.90
  -7   8   9  482.75   39.20
  -1  -7   9  432.56   31.40
   7  -8   9  459.25   39.50
  -1   8  -9  510.85   34.10
   1   7  -9  488.35   33.50
  -8   7   9  447.06   40.00
   1  -8   9  439.66   31.50
   8  -7   9  398.56   37.80
   8  -8   9  320.47   29.90
  -8   8   9  298.57   31.10
   0   8  -9  312.97   24.60
   9  -4   9   20.30    8.20
  -4   9  -9   21.70    8.60
  -5   9   9   11.20    6.70
  -5   9   9   22.30    9.30
   5  -9   9   20.30    7.70
   5   4  -9   17.20    7.60
  -5   9   9   25.50    6.80
  -5   9   9   15.70   14.10
   4   5  -9   39.30    8.40
   9  -5   9   42.70   11.10
   4  -9   9   33.10    7.40
  -4   9   9   52.79   13.60
   9  -5   9   35.10    6.70
  -6   9   9   47.90   15.90
   6  -9   9   57.89    9.80
  -3   9  -9   45.30    9.90
   9  -3   9   45.30    7.30
  -6   9   9   61.09   12.10
  -6   9   9   57.89   10.40
  -3   9   9   56.29   11.40
   9  -6   9   61.39   13.50
   3   6  -9   54.19    9.40
   9  -6   9   49.30    6.70
   9  -6   9   61.39    9.80
   9  -6   9   49.00    7.00
   3  -9   9   47.50    7.60
  -7   9   9  129.19   16.50
   7  -9   9  129.19   14.20
  -2   9  -9  113.09   15.60
   7   2  -9  128.59   17.40
   9  -7   9  159.38   18.10
   2   7  -9  155.68   15.60
   2  -9   9  149.09   13.00
   9  -7   9  144.59   13.60
   9  -7   9  143.79   13.70
  -1   9  -9  318.97   24.90
   8  -9   9  367.76   25.70
   9  -8   9  364.66   32.60
   1   8  -9  295.67   24.90
   0   9  -9    5.40    6.40
   9  -9   9   16.20    7.00
   9   0  -9    6.80    9.20
  -5  10   9   14.40    8.30
  -5  10  -9    4.40    6.90
  10  -5   9   12.00    6.50
   5   5  -9   14.70    6.50
   5 -10   9    3.80    5.40
  10  -4   9   14.20    4.80
  -4  10  -9   12.10    7.50
   6 -10   9   11.10    5.80
  -6  10   9   20.80    9.80
  -4  10   9    0.50    6.50
  10  -6   9    5.50    7.40
   4   6  -9   10.30    6.70
   4 -10   9    4.30    8.40
   7 -10   9  109.49   11.50
  -3  10  -9  100.39   12.70
   3   7  -9   81.79   10.50
   8 -10   9  202.38   21.20
   0   0  10   92.59   11.30
   0   0  10   93.19   13.70
  -1   0  10    8.60    8.00
   0   1  10   20.20    9.70
   1   0  10   -1.10    8.80
  -1   0  10    6.20    9.40
  -1   1  10    3.40    7.60
   1   0  10    6.20    7.10
  -1   1  10   13.10   10.00
   0  -1  10   16.20    8.10
   1  -1  10   -0.60    9.10
   0   1  10    5.50    7.40
   1   0  10    5.60    8.60
   0  -1  10   -3.20    8.90
   1  -1  10    3.70    7.60
   0   1  10   -0.80    9.00
   1  -2  10  803.12   54.59
   2  -1  10  735.53   54.39
  -1   2  10  756.42   53.49
   2  -1  10  726.03   51.29
   1   1  10  799.82   52.49
  -2   1  10  763.02   54.19
  -1  -1  10  771.32   51.69
  -2   1  10  757.72   51.69
   1   1  10  749.92   51.29
   1   1  10  785.42   53.89
  -1   2  10  769.02   55.59
  -1  -1  10  807.22   54.39
   1  -2  10  755.92   51.89
   2  -1  10  759.12   52.89
   2  -2  10  945.81   62.69
   0  -2  10  913.11   60.59
   2   0  10  906.31   62.29
  -2   0  10  918.61   60.49
   0   2  10  922.51   62.79
   0   2  10  901.41   59.89
  -2   0  10  918.61   62.79
   2  -2  10  886.01   60.39
   2   0  10  906.21   60.59
   2   0  10  875.11   60.09
  -2   2  10  834.62   59.89
   0   2  10  940.51   61.39
  -2   2  10  919.31   62.69
   0  -2  10  926.31   63.09
  -1  -2  10  130.69   17.50
   1   2  10  119.19   13.50
   1   2  10  129.19   16.10
   1   2  10  113.79   16.20
   1   2  10  126.69   14.30
   3  -1  10  124.89   16.90
  -2   3  10  148.39   16.90
  -1  -2  10  124.99   13.70
   3  -1  10  119.29   16.00
  -3   1  10  134.89   17.30
  -3   1  10  123.09   13.80
   2  -3  10  131.79   17.60
   3  -1  10  143.09   17.10
   2  -3  10  117.49   14.40
  -3   2  10  114.99   13.80
   2   1  10  109.69   12.20
   1  -3  10  115.09   17.20
   1  -3  10  108.19   13.80
  -1   3  10  129.49   15.50
   2   1  10  121.39   15.10
  -3   2  10  110.49   16.60
   3  -2  10  103.19   14.90
  -1   3  10  117.39   16.80
  -1   3  10  122.19   14.60
   2   1  10  129.29   13.80
   3  -2  10   95.69   12.80
  -2  -1  10  114.49   18.10
   3  -2  10  132.79   19.20
   2   1  10  116.39   14.30
   3  -2  10  123.39   16.90
  -2  -1  10  107.79   13.50
   2   1  10  119.19   15.60
   0  -3  10  106.99   16.60
   3  -3  10  122.69   14.60
   3   0  10  119.39   15.60
   3   0  10  109.89   11.90
   0   3  10  140.29   13.80
   3   0  10  132.49   16.00
   0   3  10  118.59   15.20
   3  -3  10  116.39   16.70
   3   0  10  134.09   14.80
  -3   3  10  136.59   17.30
   0  -3  10  120.39   14.10
   0   3  10  132.89   17.70
   0   3  10  123.79   14.50
  -3   0  10  125.69   14.30
  -2   4  10  486.85   40.80
   4  -2  10  477.25   37.40
  -2  -2  10  510.05   36.80
   4  -2  10  491.85   38.00
   4  -2  10  530.55   37.20
   2   2  10  528.55   37.30
  -2   4  10  508.85   36.10
  -2   4  10  539.55   39.50
   2  -4  10  528.05   41.50
   2  -4  10  517.85   37.60
  -4   2  10  510.55   36.90
  -4   2  10  536.45   40.70
   4  -2  10  495.55   39.20
   4  -1  10  202.68   17.80
  -1  -3  10  195.58   18.70
   3  -4  10  209.08   25.60
   3  -4  10  182.48   19.20
   4  -1  10  209.68   15.70
  -3   4  10  208.88   24.10
  -1   4 -10  213.08   19.80
   4  -1  10  187.78   19.50
   4  -1  10  189.48   19.40
   1   3  10  211.58   20.20
  -4   1  10  201.38   19.80
   4  -3  10  189.98   22.10
  -4   3  10  211.98   24.70
  -1   4  10  183.38   19.40
   4  -3  10  179.98   19.50
  -1   4  10  197.48   22.90
   4  -3  10  187.88   22.20
  -1   4  10  184.08   21.60
   4  -3  10  170.78   23.20
   3   1  10  196.38   18.50
  -1   4  10  196.08   16.70
  -3  -1  10  197.08   19.40
   1  -4  10  196.58   25.00
   1  -4  10  189.58   19.30
  -4   4  10  178.48   23.90
   4   0  10  159.48   16.50
   4  -4  10  159.58   17.70
  -4   0  10  179.08   18.40
   4  -4  10  155.38   20.40
   0  -4  10  157.18   16.10
   0   4  10  166.68   20.40
   0   4 -10  173.38   17.80
  -3   5  10  100.39   19.00
  -2   5 -10  123.89   16.50
   5  -2  10  123.09   16.60
   5  -2  10  119.39   11.60
   3  -5  10  116.89   15.20
  -2  -3  10  120.59   13.40
   5  -2  10  121.99   14.00
  -3   5  10  131.59   15.40
   2   3  10  118.49   15.60
   5  -2  10  117.49   14.10
   3  -5  10   84.49   18.20
  -3   5  10  124.59   17.40
   5  -3  10  116.89   17.30
  -5   3  10  125.79   18.10
  -2   5  10  126.99   13.20
  -3  -2  10  126.09   13.80
   5  -3  10  125.09   14.40
  -2   5  10  128.29   14.50
  -2   5  10  121.49   19.10
   5  -3  10  118.69   13.10
  -2   5  10  111.39   16.30
   3   2  10  124.59   14.30
   2  -5  10  121.19   14.50
   5  -3  10  126.39   16.80
  -1   5 -10  319.47   24.90
  -1  -4  10  315.27   23.80
   4  -5  10  247.58   31.00
  -4   5  10  293.07   29.80
   5  -1  10  289.27   23.70
   4  -5  10  271.27   26.80
   1   4  10  311.97   26.30
   1   4 -10  315.17   24.30
   4   1  10  308.27   22.90
  -5   4  10  317.77   30.30
   5  -4  10  237.38   25.30
   1  -5  10  287.07   24.20
   5  -4  10  302.37   28.00
  -4  -1  10  301.77   24.50
  -1   5  10  279.57   28.80
   5  -4  10  285.57   26.30
   5  -5  10  141.29   19.90
  -5   5  10  139.19   19.20
   0   5  10  139.89   20.10
   0  -5  10  113.49   13.30
   5   0  10  134.19   13.60
   5  -5  10   99.19   15.90
   0   5 -10  160.28   16.70
   6  -3  10   70.99    9.90
  -3   6  10   93.89    9.60
  -3   6  10   90.19   12.10
   6  -3  10   87.09   10.70
   3  -6  10   86.99   12.70
   6  -3  10   87.19    9.20
  -3   6  10   75.09   14.10
   6  -3  10   76.79   13.20
  -3  -3  10   83.39   11.50
  -3   6  10   66.99   17.60
  -4   6  10  482.95   44.30
   6  -2  10  565.64   37.50
  -2  -4  10  603.04   37.10
   4  -6  10  495.75   39.10
  -4   6  10  568.44   41.90
  -4   6  10  538.15   37.10
  -2   6 -10  594.34   38.20
   4  -6  10  450.75   43.10
  -2   6  10  474.25   42.30
   6  -4  10  475.55   37.10
   2  -6  10  471.55   37.10
   6  -4  10  529.75   38.00
   6  -4  10  531.65   36.50
  -4  -2  10  536.05   37.30
  -6   4  10  512.85   42.40
   5  -6  10  160.08   19.00
  -1   6 -10  223.58   18.70
   6  -1  10  203.08   15.90
   5  -6  10  142.29   22.30
  -1  -5  10  192.28   17.30
  -5   6  10  217.58   25.90
  -6   5  10  164.38   21.60
   1  -6  10  176.78   17.50
   6  -5  10  184.18   22.80
   6  -5  10  150.68   17.70
   1   5 -10  192.58   17.80
  -1   6  10  148.49   22.50
   6  -5  10  192.68   18.70
  -6   6  10  548.65   43.30
   0  -6  10  524.85   37.30
   0   6 -10  568.04   38.40
  -4   7  10  104.79   13.20
  -4   7  10  107.29   11.70
  -3  -4  10  105.69   11.50
   4  -7  10   94.39   12.80
   7  -3  10  103.89   13.40
  -4   7  10   80.89   18.10
  -4   7  10  106.09   13.70
  -3   7 -10  112.99   14.60
  -3   7  10   93.29   17.60
   7  -4  10  111.29   16.50
  -4  -3  10   95.79   11.70
   3  -7  10   97.89   12.00
   7  -4  10   98.19   11.90
  -5   7  10  294.37   22.40
  -2  -5  10  271.27   21.60
  -5   7  10  294.67   27.20
   5  -7  10  252.57   36.30
   5  -7  10  280.37   24.70
  -2   7 -10  304.27   23.10
  -5   7  10  204.48   29.50
   7  -2  10  301.57   20.70
   2  -7  10  262.27   21.90
   7  -5  10  292.17   23.40
  -2   7  10  255.77   26.20
   7  -5  10  200.88   26.00
   7  -5  10  262.07   22.30
   2   5 -10  292.87   22.20
   7  -5  10  299.57   20.80
   7  -5  10  281.27   20.40
  -1  -6  10   60.39    8.40
   6  -7  10   43.50   18.70
  -1   7 -10   59.09    9.30
  -6   7  10   69.19   14.00
   6  -7  10   49.99   11.50
   7  -6  10   57.79    8.30
   7  -6  10   47.40   11.90
   1   6 -10   56.19    9.30
   1  -7  10   51.29    8.10
   7  -6  10   48.40   10.30
   0  -7  10   22.20    7.10
   7  -7  10   28.00    9.30
   0   7 -10   24.30    7.60
  -4   8 -10  994.40   65.59
  -4   8  10  943.01   67.99
   8  -4  10  983.10   65.49
   4  -8  10 1095.09   65.09
   8  -3  10  135.29   12.50
   5  -8  10  162.78   15.80
  -3  -5  10  153.98   17.70
  -3   8 -10  164.48   16.00
  -5   8  10  142.99   21.30
   8  -5  10  145.79   16.80
  -3   8  10  157.08   17.00
   3  -8  10  157.28   14.30
  -2   8 -10  390.16   28.70
   6  -8  10  408.96   29.40
   0   0  11   -1.30    9.60
   0   0  11   -2.70    8.70
   0   0  11    6.50    7.90
   1  -1  11  246.38   22.60
  -1   1  11  270.47   25.70
   1   0  11  260.67   25.20
   1   0  11  298.97   24.70
  -1   0  11  287.87   26.30
   0  -1  11  288.67   23.10
   1   0  11  270.87   22.80
   0   1  11  249.48   25.20
   0   1  11  260.07   22.30
   0   1  11  278.57   24.90
  -1   0  11  265.17   23.00
   1  -1  11  272.97   23.60
  -1   1  11  260.37   22.80
  -1   1  11  312.87   29.20
   0  -1  11  301.87   26.70
   1  -1  11  291.27   25.80
  -1  -1  11  792.72   54.29
   1  -2  11  735.23   51.49
   1   1  11  799.22   51.59
  -1   2  11  701.13   54.09
   2  -1  11  753.32   51.59
  -2   1  11  782.22   53.89
   1   1  11  795.72   50.29
   1   1  11  749.42   49.80
  -1  -1  11  777.12   51.69
  -2   1  11  716.63   50.99
  -1   2  11  794.12   53.09
  -1   2  11  768.62   50.89
   1  -2  11  739.63   53.79
   2  -1  11  787.12   52.19
   2  -1  11  748.73   53.99
   1   1  11  764.32   53.19
   0   2  11   31.80   10.20
   0   2  11   32.80    8.00
   0   2  11   38.40    7.50
   2  -2  11   36.20   10.30
   2   0  11   36.00    8.70
  -2   0  11   33.00    9.60
   0  -2  11   26.10   11.70
   0   2  11   30.80   11.00
  -2   0  11   38.20   12.10
   2   0  11   33.60    9.00
  -2   2  11   39.10   11.90
  -2   2  11   34.20   12.90
   2   0  11   31.30   10.40
   2  -2  11   33.20   11.40
   0  -2  11   51.39   10.50
   2   0  11   42.10    7.20
   2  -2  11   37.80    9.40
  -3   1  11  282.37   28.00
   3  -1  11  287.67   22.40
  -1  -2  11  310.87   33.20
   2  -3  11  264.77   25.40
   1   2  11  291.17   25.50
   3  -1  11  268.57   25.50
   2  -3  11  266.67   28.30
  -1  -2  11  324.77   25.20
  -2   3  11  262.47   28.00
   3  -1  11  300.07   23.80
   3  -1  11  294.67   21.30
  -2   3  11  298.17   27.30
  -2   3  11  285.77   23.80
  -1   3  11  306.17   27.70
   1  -3  11  311.07   25.50
  -1   3  11  295.97   23.40
  -2  -1  11  319.97   32.80
   3  -2  11  292.77   25.00
  -1   3  11  331.87   26.10
  -3   2  11  322.37   28.40
   3  -2  11  321.37   25.40
  -1   3  11  344.37   22.20
   3  -2  11  296.27   27.30
  -2  -1  11  329.37   25.10
   1  -3  11  310.77   29.00
   2   1  11  326.57   25.10
   3  -3  11   -5.00    8.90
  -3   3  11   -1.00    9.00
   0   3  11    1.20    9.70
   3  -3  11    8.30   10.00
  -3   3  11    0.00   10.90
   0  -3  11   -3.60    8.70
   3   0  11    1.80    7.90
  -3   0  11   -1.90    8.10
   3  -3  11   11.00    8.90
  -2   4  11  196.78   24.40
  -2  -2  11  229.58   20.50
  -2   4  11  195.08   22.50
   4  -2  11  207.18   21.20
  -2   4  11  241.58   17.40
  -2   4  11  204.78   19.10
   4  -2  11  249.38   18.80
   2  -4  11  198.58   21.40
   4  -1  11   58.99    9.80
   1   3  11   49.60   11.00
  -1  -3  11   52.99   10.30
  -3   4  11   67.69    9.60
   3  -4  11   39.40   14.60
   3  -4  11   59.49   11.60
  -3   4  11   52.39   12.50
  -3   4  11   43.60   14.30
   4  -3  11   40.60   15.00
   4  -3  11   28.40   11.60
  -4   3  11   48.50   16.60
  -3  -1  11   41.80    9.70
   1  -4  11   24.60    9.80
  -1   4  11   28.50   11.90
   3   1  11   28.40    8.50
   4  -3  11   32.20    9.60
   4  -3  11   26.10    8.30
   0  -4  11  136.59   14.00
   4  -4  11  110.59   14.10
   0   4  11  126.89   17.80
   3  -5  11    2.20    9.60
  -2  -3  11    6.80    7.90
  -3   5  11   11.40   21.40
   5  -2  11    5.70    7.30
  -3  -2  11   25.00    8.40
   2  -5  11    7.50    9.10
  -2   5  11   22.90   12.20
   5  -3  11   25.10    9.60
   4  -5  11  -23.90   10.00
  -1  -4  11   -0.20    7.70
   5  -1  11    4.00    6.30
  -1   5  11    8.20   10.60
   1  -5  11   14.40    8.30
   0  -5  11   70.79   13.30

_computing_structure_solution     'SHELXT 2014/4 (Sheldrick, 2014)'
;
_shelx_hkl_checksum              21162
_olex2_submission_special_instructions 'No special instructions were received'
loop_
_space_group_symop_operation_xyz
'x, y, z'
'-y, x-y, z'
'-x+y, -x, z'
'-x, -y, z+1/2'
'y, -x+y, z+1/2'
'x-y, x, z+1/2'
'y, x, -z'
'x-y, -y, -z'
'-x, -x+y, -z'
'-y, -x, -z+1/2'
'-x+y, y, -z+1/2'
'x, x-y, -z+1/2'
loop_
_atom_site_label
_atom_site_type_symbol
_atom_site_fract_x
_atom_site_fract_y
_atom_site_fract_z
_atom_site_U_iso_or_equiv
_atom_site_adp_type
_atom_site_occupancy
_atom_site_site_symmetry_order
_atom_site_calc_flag
_atom_site_refinement_flags_posn
_atom_site_refinement_flags_adp
_atom_site_refinement_flags_occupancy
_atom_site_disorder_assembly
_atom_site_disorder_group
Sn1 Sn 0.52570(5) 0.000000 0.000000 0.0260(2) Uani 1 2 d S T P . .
Sn2 Sn 0.333333 0.666667 0.750000 0.0270(6) Uani 0.874(6) 6 d S T . . .
Se1 Se 0.49813(7) 0.16795(7) 0.04943(8) 0.0238(2) Uani 1 1 d . . . . .
Se2 Se 0.06815(7) 0.39801(7) 0.31104(9) 0.0267(2) Uani 1 1 d . . . . .
B1 B 0.2116(7) 0.5429(7) 0.2812(7) 0.0169(17) Uani 1 1 d . . . . .
B2 B 0.2576(7) 0.5918(7) 0.1110(8) 0.0157(16) Uani 1 1 d . . . . .
Te1 Te 0.0827(16) 0.1745(13) 0.063(2) 0.096(5) Uiso 0.093(2) 1 d . . . . .
Te2 Te 0.1889(15) 0.0828(17) 0.023(2) 0.096(2) Uiso 0.082(3) 1 d . . . . .
Te3 Te 0.873(3) 0.000000 0.000000 0.096(2) Uiso 0.057(5) 2 d S . . . .
Te4 Te 0.162(4) 0.000000 0.000000 0.096(2) Uiso 0.045(6) 2 d S . . . .
Te5 Te 0.072(3) 0.132(2) 0.151(3) 0.096(2) Uiso 0.054(3) 1 d . . . . .
Te6 Te 0.181(6) 0.056(5) 0.211(7) 0.096(2) Uiso 0.026(4) 1 d . . . . .
Te7 Te 0.107(4) 0.094(6) 0.193(6) 0.096(2) Uiso 0.031(3) 1 d . . . . .
Te8 Te 0.143(3) 0.127(3) 0.078(4) 0.096(2) Uiso 0.040(3) 1 d . . . . .
Te9 Te 0.1742(17) 0.0552(19) 0.126(2) 0.096(2) Uiso 0.097(4) 1 d . . . . .
Te10 Te 0.0648(17) 0.130(3) 0.250000 0.096(2) Uiso 0.053(4) 2 d S . . . .
Te11 Te 0.143(4) 0.002(6) 0.076(6) 0.096(2) Uiso 0.036(4) 1 d . . . . .
Te12 Te 0.095(15) 0.000000 0.000000 0.096(2) Uiso 0.011(4) 2 d S . . . .
Te13 Te 0.095(6) 0.044(7) 0.110(9) 0.096(2) Uiso 0.020(3) 1 d . . . . .
Te14 Te 0.114(6) 0.038(6) 0.198(7) 0.096(2) Uiso 0.026(5) 1 d . . . . .
loop_
_atom_site_aniso_label
_atom_site_aniso_U_11
_atom_site_aniso_U_22
_atom_site_aniso_U_33
_atom_site_aniso_U_23
_atom_site_aniso_U_13
_atom_site_aniso_U_12
Sn1 0.0317(3) 0.0194(4) 0.0229(4) 0.0053(4) 0.00266(18) 0.00971(19)
Sn2 0.0303(7) 0.0303(7) 0.0203(8) 0.000 0.000 0.0152(3)
Se1 0.0271(5) 0.0228(5) 0.0185(3) 0.0035(3) 0.0063(4) 0.0104(4)
Se2 0.0230(5) 0.0226(5) 0.0254(4) -0.0019(4) 0.0047(4) 0.0044(3)
B1 0.023(5) 0.016(5) 0.012(3) 0.000(3) 0.001(3) 0.009(3)
B2 0.016(4) 0.020(5) 0.011(3) -0.005(3) -0.006(3) 0.009(3)
loop_
_atom_type_symbol
_atom_type_description
_atom_type_scat_dispersion_real
_atom_type_scat_dispersion_imag
_atom_type_scat_source
B B 0.0090 0.0039 'International Tables Vol C Tables 4.2.6.8 and 6.1.1.4'
Se Se -0.7943 1.1372 'International Tables Vol C Tables 4.2.6.8 and 6.1.1.4'
Sn Sn 0.0259 5.4591 'International Tables Vol C Tables 4.2.6.8 and 6.1.1.4'
Te Te -0.1759 6.3531 'International Tables Vol C Tables 4.2.6.8 and 6.1.1.4'
loop_
_geom_angle_atom_site_label_1
_geom_angle_atom_site_label_2
_geom_angle_atom_site_label_3
_geom_angle
_geom_angle_site_symmetry_1
_geom_angle_site_symmetry_3
_geom_angle_publ_flag
Se1 Sn1 Se1 106.61(5) . 8 ?
Se2 Sn1 Se1 104.31(2) 10_655 8 ?
Se2 Sn1 Se1 117.98(3) 10_655 . ?
Se2 Sn1 Se1 104.31(2) 6_654 . ?
Se2 Sn1 Se1 117.98(3) 6_654 8 ?
Se2 Sn1 Se2 106.35(5) 10_655 6_654 ?
Se1 Sn2 Se1 96.91(4) 7_556 6 ?
Se1 Sn2 Se1 82.16(2) 5_565 6 ?
Se1 Sn2 Se1 178.58(4) 5_565 9_666 ?
Se1 Sn2 Se1 98.80(3) 5_565 7_556 ?
Se1 Sn2 Se1 178.58(4) 4_665 7_556 ?
Se1 Sn2 Se1 82.16(2) 7_556 9_666 ?
Se1 Sn2 Se1 96.91(4) 4_665 9_666 ?
Se1 Sn2 Se1 96.91(4) 8_566 5_565 ?
Se1 Sn2 Se1 178.58(4) 8_566 6 ?
Se1 Sn2 Se1 98.80(3) 8_566 4_665 ?
Se1 Sn2 Se1 82.16(2) 4_665 6 ?
Se1 Sn2 Se1 82.16(2) 5_565 4_665 ?
Se1 Sn2 Se1 98.80(3) 9_666 6 ?
Se1 Sn2 Se1 82.16(2) 8_566 7_556 ?
Se1 Sn2 Se1 82.16(2) 8_566 9_666 ?
Sn1 Se1 Sn2 113.41(4) . 4_664 ?
B2 Se1 Sn1 93.7(3) 7 . ?
B2 Se1 Sn2 92.0(2) 7 4_664 ?
B1 Se2 Sn1 94.6(2) . 5_565 ?
B1 B1 Se2 120.5(3) 11 . ?
B1 B1 Se2 121.5(3) 12_565 . ?
B1 B1 B1 108.9(5) 11 12_565 ?
B1 B1 B2 60.4(5) 11 11 ?
B1 B1 B2 108.2(5) 11 12_565 ?
B1 B1 B2 61.3(5) 11 . ?
B2 B1 Se2 119.7(5) . . ?
B2 B1 Se2 123.4(5) 12_565 . ?
B2 B1 Se2 123.7(5) 11 . ?
B2 B1 B1 58.9(5) 12_565 12_565 ?
B2 B1 B1 106.5(5) 11 12_565 ?
B2 B1 B1 60.1(5) . 12_565 ?
B2 B1 B2 108.5(6) . 11 ?
B2 B1 B2 59.2(5) 11 12_565 ?
B2 B1 B2 107.5(5) . 12_565 ?
B1 B2 Se1 120.0(5) . 7 ?
B1 B2 Se1 119.7(5) 11 7 ?
B1 B2 Se1 123.2(5) 12_565 7 ?
B1 B2 B1 58.3(6) . 11 ?
B1 B2 B1 107.3(6) 11 12_565 ?
B1 B2 B1 61.0(6) . 12_565 ?
B2 B2 Se1 121.7(4) 2_665 7 ?
B2 B2 Se1 123.8(4) 3_565 7 ?
B2 B2 B1 60.6(6) 2_665 11 ?
B2 B2 B1 60.2(6) 3_565 12_565 ?
B2 B2 B1 109.0(4) 3_565 . ?
B2 B2 B1 108.0(5) 2_665 12_565 ?
B2 B2 B1 107.6(4) 2_665 . ?
B2 B2 B1 108.3(5) 3_565 11 ?
B2 B2 B2 60.000(1) 2_665 3_565 ?
Te2 Te1 Te3 72.3(19) 7 3_665 ?
Te2 Te1 Te4 55.9(19) 7 2 ?
Te2 Te1 Te5 162(3) 7 . ?
Te2 Te1 Te7 147(3) 7 . ?
Te2 Te1 Te8 108(3) 7 . ?
Te2 Te1 Te8 45(2) 7 7 ?
Te2 Te1 Te9 109(3) 7 2 ?
Te2 Te1 Te11 96(4) 7 2 ?
Te2 Te1 Te11 36(3) 7 7 ?
Te2 Te1 Te12 68(4) 7 2 ?
Te2 Te1 Te13 111(4) 7 2 ?
Te3 Te1 Te7 75(2) 3_665 . ?
Te3 Te1 Te8 27.7(15) 3_665 7 ?
Te3 Te1 Te8 36.3(19) 3_665 . ?
Te3 Te1 Te9 130(2) 3_665 2 ?
Te3 Te1 Te11 84(2) 3_665 7 ?
Te3 Te1 Te12 77(7) 3_665 2 ?
Te3 Te1 Te13 98(3) 3_665 2 ?
Te4 Te1 Te3 110(2) 2 3_665 ?
Te4 Te1 Te7 135(3) 2 . ?
Te4 Te1 Te8 89(2) 2 7 ?
Te4 Te1 Te8 140(3) 2 . ?
Te4 Te1 Te9 52.8(11) 2 2 ?
Te4 Te1 Te11 27(2) 2 7 ?
Te4 Te1 Te12 43(8) 2 2 ?
Te4 Te1 Te13 67(3) 2 2 ?
Te5 Te1 Te3 96(2) . 3_665 ?
Te5 Te1 Te4 119(3) . 2 ?
Te5 Te1 Te7 22(3) . . ?
Te5 Te1 Te8 64(3) . . ?
Te5 Te1 Te8 122(3) . 7 ?
Te5 Te1 Te9 68(2) . 2 ?
Te5 Te1 Te11 131(4) . 7 ?
Te5 Te1 Te11 79(4) . 2 ?
Te5 Te1 Te12 96(6) . 2 ?
Te5 Te1 Te13 56(3) . 2 ?
Te8 Te1 Te7 103(3) 7 . ?
Te8 Te1 Te7 42(3) . . ?
Te8 Te1 Te8 63(3) . 7 ?
Te8 Te1 Te9 124(2) . 2 ?
Te8 Te1 Te9 129.4(19) 7 2 ?
Te8 Te1 Te11 62(3) 7 7 ?
Te8 Te1 Te11 118(3) . 7 ?
Te8 Te1 Te13 106(3) 7 2 ?
Te8 Te1 Te13 93(3) . 2 ?
Te9 Te1 Te7 89(2) 2 . ?
Te9 Te1 Te13 34(2) 2 2 ?
Te11 Te1 Te3 125(3) 2 3_665 ?
Te11 Te1 Te4 41(3) 2 2 ?
Te11 Te1 Te7 98(4) 2 . ?
Te11 Te1 Te7 135(3) 7 . ?
Te11 Te1 Te8 128(3) 2 . ?
Te11 Te1 Te8 118(4) 2 7 ?
Te11 Te1 Te9 13(3) 2 2 ?
Te11 Te1 Te9 75(3) 7 2 ?
Te11 Te1 Te11 62(6) 2 7 ?
Te11 Te1 Te12 49(5) 2 2 ?
Te11 Te1 Te13 35(3) 2 2 ?
Te11 Te1 Te13 76(4) 7 2 ?
Te12 Te1 Te7 100(7) 2 . ?
Te12 Te1 Te8 70(4) 2 7 ?
Te12 Te1 Te8 98(9) 2 . ?
Te12 Te1 Te9 59(4) 2 2 ?
Te12 Te1 Te11 36(6) 2 7 ?
Te12 Te1 Te13 44(3) 2 2 ?
Te13 Te1 Te7 68(3) 2 . ?
Te1 Te2 Te3 68.1(19) 7 3_665 ?
Te1 Te2 Te4 80(2) 7 . ?
Te1 Te2 Te5 9.9(16) 7 7 ?
Te1 Te2 Te6 165(3) 7 . ?
Te1 Te2 Te8 105(3) 7 . ?
Te1 Te2 Te8 45(2) 7 7 ?
Te1 Te2 Te9 157(3) 7 . ?
Te1 Te2 Te11 117(4) 7 . ?
Te1 Te2 Te11 47(3) 7 8 ?
Te1 Te2 Te12 72(2) 7 . ?
Te1 Te2 Te13 115(4) 7 . ?
Te3 Te2 Te5 62.0(14) 3_665 7 ?
Te3 Te2 Te6 106(2) 3_665 . ?
Te3 Te2 Te8 24.6(13) 3_665 7 ?
Te3 Te2 Te11 97(2) 3_665 8 ?
Te3 Te2 Te13 66(4) 3_665 . ?
Te4 Te2 Te3 122(4) . 3_665 ?
Te4 Te2 Te5 79(2) . 7 ?
Te4 Te2 Te6 93(2) . . ?
Te4 Te2 Te8 114(3) . 7 ?
Te4 Te2 Te8 132(4) . . ?
Te4 Te2 Te9 85(2) . . ?
Te4 Te2 Te11 34(2) . 8 ?
Te4 Te2 Te11 44(4) . . ?
Te4 Te2 Te12 47(7) . . ?
Te4 Te2 Te13 88(4) . . ?
Te5 Te2 Te6 156(3) 7 . ?
Te8 Te2 Te3 37(2) . 3_665 ?
Te8 Te2 Te5 40.2(16) 7 7 ?
Te8 Te2 Te5 99(3) . 7 ?
Te8 Te2 Te6 70(3) . . ?
Te8 Te2 Te6 131(3) 7 . ?
Te8 Te2 Te8 61(3) . 7 ?
Te8 Te2 Te11 125(3) . 8 ?
Te8 Te2 Te12 89(8) . . ?
Te8 Te2 Te13 46(3) . . ?
Te9 Te2 Te3 106.5(19) . 3_665 ?
Te9 Te2 Te5 148(2) . 7 ?
Te9 Te2 Te6 9(3) . . ?
Te9 Te2 Te8 72(3) . . ?
Te9 Te2 Te8 131(2) . 7 ?
Te9 Te2 Te11 43(3) . . ?
Te9 Te2 Te11 116(3) . 8 ?
Te9 Te2 Te12 85.4(19) . . ?
Te9 Te2 Te13 47(4) . . ?
Te11 Te2 Te3 112(3) . 3_665 ?
Te11 Te2 Te5 111(4) . 7 ?
Te11 Te2 Te5 45(2) 8 7 ?
Te11 Te2 Te6 52(5) . . ?
Te11 Te2 Te6 124(3) 8 . ?
Te11 Te2 Te8 125(3) . 7 ?
Te11 Te2 Te8 82(3) 8 7 ?
Te11 Te2 Te8 96(4) . . ?
Te11 Te2 Te11 72(5) . 8 ?
Te11 Te2 Te12 49(4) . . ?
Te11 Te2 Te13 51(4) . . ?
Te11 Te2 Te13 98(4) 8 . ?
Te12 Te2 Te3 77(8) . 3_665 ?
Te12 Te2 Te5 63.7(18) . 7 ?
Te12 Te2 Te6 94(2) . . ?
Te12 Te2 Te8 79(6) . 7 ?
Te12 Te2 Te11 43(5) . 8 ?
Te12 Te2 Te13 55(5) . . ?
Te13 Te2 Te5 105(4) . 7 ?
Te13 Te2 Te6 52(4) . . ?
Te13 Te2 Te8 87(4) . 7 ?
Te1 Te3 Te1 178(4) 9_655 2_655 ?
Te1 Te3 Te2 39.6(9) 9_655 2_655 ?
Te1 Te3 Te2 140.1(11) 9_655 9_655 ?
Te1 Te3 Te2 39.6(9) 2_655 9_655 ?
Te1 Te3 Te2 140.1(11) 2_655 2_655 ?
Te1 Te3 Te5 143.8(15) 2_655 9_655 ?
Te1 Te3 Te5 143.8(15) 9_655 2_655 ?
Te1 Te3 Te5 36.7(13) 9_655 9_655 ?
Te1 Te3 Te5 36.7(13) 2_655 2_655 ?
Te1 Te3 Te12 52(6) 2_655 3_655 ?
Te1 Te3 Te12 130(6) 2_655 2_655 ?
Te1 Te3 Te12 130(6) 9_655 3_655 ?
Te1 Te3 Te12 52(6) 9_655 2_655 ?
Te1 Te3 Te13 91(3) 2_655 9_655 ?
Te1 Te3 Te13 90(3) 2_655 2_655 ?
Te1 Te3 Te13 90(3) 9_655 9_655 ?
Te1 Te3 Te13 91(3) 9_655 2_655 ?
Te2 Te3 Te2 170(4) 9_655 2_655 ?
Te2 Te3 Te5 75.7(15) 9_655 2_655 ?
Te2 Te3 Te5 106.5(15) 2_655 2_655 ?
Te2 Te3 Te5 75.7(15) 2_655 9_655 ?
Te2 Te3 Te5 106.5(15) 9_655 9_655 ?
Te2 Te3 Te12 140(7) 9_655 2_655 ?
Te2 Te3 Te12 140(7) 2_655 3_655 ?
Te2 Te3 Te12 50(7) 9_655 3_655 ?
Te2 Te3 Te12 50(7) 2_655 2_655 ?
Te2 Te3 Te13 61(3) 2_655 2_655 ?
Te2 Te3 Te13 61(3) 9_655 9_655 ?
Te2 Te3 Te13 125(3) 9_655 2_655 ?
Te2 Te3 Te13 125(3) 2_655 9_655 ?
Te5 Te3 Te5 156(3) 2_655 9_655 ?
Te8 Te3 Te1 105(3) 9_655 2_655 ?
Te8 Te3 Te1 105(3) 2_655 9_655 ?
Te8 Te3 Te1 75(3) 9_655 9_655 ?
Te8 Te3 Te1 75(3) 2_655 2_655 ?
Te8 Te3 Te2 66(3) 9_655 9_655 ?
Te8 Te3 Te2 66(3) 2_655 2_655 ?
Te8 Te3 Te2 113(3) 9_655 2_655 ?
Te8 Te3 Te2 113(3) 2_655 9_655 ?
Te8 Te3 Te5 44(3) 9_655 9_655 ?
Te8 Te3 Te5 140(3) 9_655 2_655 ?
Te8 Te3 Te5 140(3) 2_655 9_655 ?
Te8 Te3 Te5 44(3) 2_655 2_655 ?
Te8 Te3 Te8 166(9) 9_655 2_655 ?
Te8 Te3 Te12 85(4) 9_655 3_655 ?
Te8 Te3 Te12 105(4) 2_655 3_655 ?
Te8 Te3 Te12 105(4) 9_655 2_655 ?
Te8 Te3 Te12 85(4) 2_655 2_655 ?
Te8 Te3 Te13 42(4) 9_655 9_655 ?
Te8 Te3 Te13 151(6) 9_655 2_655 ?
Te8 Te3 Te13 42(4) 2_655 2_655 ?
Te8 Te3 Te13 151(6) 2_655 9_655 ?
Te12 Te3 Te5 100(4) 2_655 2_655 ?
Te12 Te3 Te5 100(4) 3_655 9_655 ?
Te12 Te3 Te5 63.2(18) 2_655 9_655 ?
Te12 Te3 Te5 63.2(18) 3_655 2_655 ?
Te12 Te3 Te12 92(10) 2_655 3_655 ?
Te13 Te3 Te5 54(3) 2_655 2_655 ?
Te13 Te3 Te5 111(4) 2_655 9_655 ?
Te13 Te3 Te5 111(4) 9_655 2_655 ?
Te13 Te3 Te5 54(3) 9_655 9_655 ?
Te13 Te3 Te12 85(6) 2_655 3_655 ?
Te13 Te3 Te12 85(6) 9_655 2_655 ?
Te13 Te3 Te12 48(3) 2_655 2_655 ?
Te13 Te3 Te12 48(3) 9_655 3_655 ?
Te13 Te3 Te13 115(7) 2_655 9_655 ?
Te1 Te4 Te1 142(5) 3 7 ?
Te1 Te4 Te5 126(3) 3 7 ?
Te1 Te4 Te5 27.2(13) 7 7 ?
Te1 Te4 Te9 83.5(16) 7 8 ?
Te1 Te4 Te9 90.8(16) 7 . ?
Te1 Te4 Te9 90.8(16) 3 8 ?
Te1 Te4 Te9 83.5(16) 3 . ?
Te1 Te4 Te13 80(4) 3 8 ?
Te1 Te4 Te13 80(4) 7 . ?
Te1 Te4 Te13 72(3) 7 8 ?
Te1 Te4 Te13 72(3) 3 . ?
Te2 Te4 Te1 126(3) . 3 ?
Te2 Te4 Te1 43.8(13) . 7 ?
Te2 Te4 Te1 43.8(13) 8 3 ?
Te2 Te4 Te1 126(3) 8 7 ?
Te2 Te4 Te2 157(6) 8 . ?
Te2 Te4 Te5 69.8(19) . 7 ?
Te2 Te4 Te5 99(2) 8 7 ?
Te2 Te4 Te9 48.3(13) 8 8 ?
Te2 Te4 Te9 127(2) . 8 ?
Te2 Te4 Te9 127(2) 8 . ?
Te2 Te4 Te9 48.3(13) . . ?
Te2 Te4 Te13 55(3) . . ?
Te2 Te4 Te13 107(4) 8 . ?
Te2 Te4 Te13 55(3) 8 8 ?
Te2 Te4 Te13 107(4) . 8 ?
Te9 Te4 Te5 113(2) . 7 ?
Te9 Te4 Te5 57.6(15) 8 7 ?
Te9 Te4 Te9 162(4) 8 . ?
Te9 Te4 Te13 125(5) 8 . ?
Te9 Te4 Te13 37(3) . . ?
Te9 Te4 Te13 125(5) . 8 ?
Te9 Te4 Te13 37(3) 8 8 ?
Te11 Te4 Te1 109(5) . 7 ?
Te11 Te4 Te1 109(5) 8 3 ?
Te11 Te4 Te1 56(5) . 3 ?
Te11 Te4 Te1 56(5) 8 7 ?
Te11 Te4 Te2 100(6) . 8 ?
Te11 Te4 Te2 72(5) 8 8 ?
Te11 Te4 Te2 72(5) . . ?
Te11 Te4 Te2 100(6) 8 . ?
Te11 Te4 Te5 122(5) . 7 ?
Te11 Te4 Te5 30(6) 8 7 ?
Te11 Te4 Te9 141(7) 8 . ?
Te11 Te4 Te9 141(7) . 8 ?
Te11 Te4 Te9 28(5) . . ?
Te11 Te4 Te9 28(5) 8 8 ?
Te11 Te4 Te11 138(10) 8 . ?
Te11 Te4 Te12 69(5) 8 . ?
Te11 Te4 Te12 69(5) . . ?
Te11 Te4 Te13 110(7) . 8 ?
Te11 Te4 Te13 110(7) 8 . ?
Te11 Te4 Te13 32(5) 8 8 ?
Te11 Te4 Te13 32(5) . . ?
Te12 Te4 Te1 71(2) . 7 ?
Te12 Te4 Te1 71(2) . 3 ?
Te12 Te4 Te2 79(3) . . ?
Te12 Te4 Te2 79(3) . 8 ?
Te12 Te4 Te5 62.2(16) . 7 ?
Te12 Te4 Te9 81(2) . . ?
Te12 Te4 Te9 81(2) . 8 ?
Te12 Te4 Te13 44(3) . 8 ?
Te12 Te4 Te13 44(3) . . ?
Te13 Te4 Te5 91(4) . 7 ?
Te13 Te4 Te5 47(3) 8 7 ?
Te13 Te4 Te13 89(6) 8 . ?
Te1 Te5 Te3 47.6(16) . 3_665 ?
Te1 Te5 Te8 69(3) . . ?
Te1 Te5 Te9 78(2) . 2 ?
Te1 Te5 Te11 51(4) . 2 ?
Te1 Te5 Te12 48(5) . 2 ?
Te1 Te5 Te13 90(4) . 2 ?
Te1 Te5 Te13 102(4) . . ?
Te1 Te5 Te14 130(3) . . ?
Te1 Te5 Te14 114(4) . 2 ?
Te3 Te5 Te12 55(2) 3_665 2 ?
Te3 Te5 Te14 83(2) 3_665 . ?
Te7 Te5 Te1 134(5) . . ?
Te7 Te5 Te3 89(4) . 3_665 ?
Te7 Te5 Te8 66(4) . . ?
Te7 Te5 Te9 141(4) . 2 ?
Te7 Te5 Te10 68(4) . . ?
Te7 Te5 Te11 155(5) . 2 ?
Te7 Te5 Te12 125(8) . 2 ?
Te7 Te5 Te13 44(5) . . ?
Te7 Te5 Te13 110(5) . 2 ?
Te7 Te5 Te14 14(4) . . ?
Te7 Te5 Te14 105(4) . 2 ?
Te8 Te5 Te3 26(2) . 3_665 ?
Te8 Te5 Te9 135(3) . 2 ?
Te8 Te5 Te11 110(4) . 2 ?
Te8 Te5 Te12 80(4) . 2 ?
Te8 Te5 Te13 112(4) . 2 ?
Te8 Te5 Te13 44(3) . . ?
Te8 Te5 Te14 62(3) . . ?
Te8 Te5 Te14 146(4) . 2 ?
Te9 Te5 Te3 109(2) 2 3_665 ?
Te9 Te5 Te12 55(4) 2 2 ?
Te9 Te5 Te14 133(3) 2 . ?
Te10 Te5 Te1 150(5) . . ?
Te10 Te5 Te3 156(3) . 3_665 ?
Te10 Te5 Te8 130(4) . . ?
Te10 Te5 Te9 94(3) . 2 ?
Te10 Te5 Te11 120(5) . 2 ?
Te10 Te5 Te12 145(3) . 2 ?
Te10 Te5 Te13 107(5) . . ?
Te10 Te5 Te13 101(4) . 2 ?
Te10 Te5 Te14 66(3) . 2 ?
Te10 Te5 Te14 77(4) . . ?
Te11 Te5 Te3 84(4) 2 3_665 ?
Te11 Te5 Te9 27(3) 2 2 ?
Te11 Te5 Te12 35(6) 2 2 ?
Te11 Te5 Te13 47(4) 2 2 ?
Te11 Te5 Te13 115(4) 2 . ?
Te11 Te5 Te14 141(3) 2 . ?
Te11 Te5 Te14 64(5) 2 2 ?
Te12 Te5 Te14 111(7) 2 . ?
Te13 Te5 Te3 94(4) 2 3_665 ?
Te13 Te5 Te3 55(4) . 3_665 ?
Te13 Te5 Te9 121(4) . 2 ?
Te13 Te5 Te9 38(3) 2 2 ?
Te13 Te5 Te12 45(4) 2 2 ?
Te13 Te5 Te12 81(7) . 2 ?
Te13 Te5 Te13 84(6) . 2 ?
Te13 Te5 Te14 32(3) . . ?
Te13 Te5 Te14 98(4) 2 . ?
Te14 Te5 Te3 131(4) 2 3_665 ?
Te14 Te5 Te9 37(3) 2 2 ?
Te14 Te5 Te12 79(3) 2 2 ?
Te14 Te5 Te13 37(4) 2 2 ?
Te14 Te5 Te13 105(5) 2 . ?
Te14 Te5 Te14 100(5) 2 . ?
Te5 Te6 Te8 85(3) 3 . ?
Te5 Te6 Te9 120(4) 3 12 ?
Te6 Te6 Te5 127(2) 12 3 ?
Te6 Te6 Te7 66(6) 12 12 ?
Te6 Te6 Te7 60(4) 12 . ?
Te6 Te6 Te8 86(6) 12 . ?
Te6 Te6 Te9 21(5) 12 12 ?
Te6 Te6 Te10 105(4) 12 3 ?
Te6 Te6 Te11 145(8) 12 . ?
Te6 Te6 Te13 102(6) 12 . ?
Te6 Te6 Te14 36(3) 12 12 ?
Te7 Te6 Te5 81(4) . 3 ?
Te7 Te6 Te5 70(4) 12 3 ?
Te7 Te6 Te7 73(6) 12 . ?
Te7 Te6 Te8 41(3) . . ?
Te7 Te6 Te8 113(5) 12 . ?
Te7 Te6 Te9 51(4) 12 12 ?
Te7 Te6 Te9 74(3) . 12 ?
Te7 Te6 Te10 40(4) 12 3 ?
Te7 Te6 Te10 84(4) . 3 ?
Te7 Te6 Te11 86(5) . . ?
Te7 Te6 Te11 115(6) 12 . ?
Te7 Te6 Te13 42(4) . . ?
Te7 Te6 Te13 92(6) 12 . ?
Te7 Te6 Te14 35(3) 12 12 ?
Te7 Te6 Te14 48(4) . 12 ?
Te9 Te6 Te5 68(5) . 3 ?
Te9 Te6 Te6 127(10) . 12 ?
Te9 Te6 Te7 132(8) . 12 ?
Te9 Te6 Te7 78(6) . . ?
Te9 Te6 Te8 106(3) 12 . ?
Te9 Te6 Te8 42(4) . . ?
Te9 Te6 Te9 148(6) . 12 ?
Te9 Te6 Te10 100(6) . 3 ?
Te9 Te6 Te11 25(3) . . ?
Te9 Te6 Te13 43(5) . . ?
Te9 Te6 Te14 124(7) . 12 ?
Te10 Te6 Te5 32.2(16) 3 3 ?
Te10 Te6 Te8 108(4) 3 . ?
Te10 Te6 Te9 91(3) 3 12 ?
Te11 Te6 Te5 45(3) . 3 ?
Te11 Te6 Te8 61(4) . . ?
Te11 Te6 Te9 158(5) . 12 ?
Te11 Te6 Te10 77(4) . 3 ?
Te11 Te6 Te13 44(4) . . ?
Te13 Te6 Te5 52(4) . 3 ?
Te13 Te6 Te8 34(3) . . ?
Te13 Te6 Te9 114(5) . 12 ?
Te13 Te6 Te10 75(5) . 3 ?
Te14 Te6 Te5 92(4) 12 3 ?
Te14 Te6 Te5 47(6) . 3 ?
Te14 Te6 Te6 85(6) . 12 ?
Te14 Te6 Te7 35(5) . . ?
Te14 Te6 Te7 59(7) . 12 ?
Te14 Te6 Te8 88(4) 12 . ?
Te14 Te6 Te8 59(7) . . ?
Te14 Te6 Te9 33(3) 12 12 ?
Te14 Te6 Te9 75(8) . . ?
Te14 Te6 Te9 89(7) . 12 ?
Te14 Te6 Te10 51(7) . 3 ?
Te14 Te6 Te10 70(4) 12 3 ?
Te14 Te6 Te11 125(5) 12 . ?
Te14 Te6 Te11 69(7) . . ?
Te14 Te6 Te13 84(5) 12 . ?
Te14 Te6 Te13 34(6) . . ?
Te14 Te6 Te14 55(8) . 12 ?
Te1 Te7 Te5 102(4) . 11 ?
Te5 Te7 Te1 23(3) . . ?
Te5 Te7 Te5 82(5) . 11 ?
Te5 Te7 Te6 131(7) . 12 ?
Te5 Te7 Te6 159(7) . . ?
Te5 Te7 Te7 149(6) . 12 ?
Te5 Te7 Te8 68(5) . . ?
Te5 Te7 Te9 127(6) . . ?
Te5 Te7 Te10 56(5) . . ?
Te5 Te7 Te13 94(8) . . ?
Te5 Te7 Te14 130(9) . 12 ?
Te6 Te7 Te1 136(5) . . ?
Te6 Te7 Te1 132(5) 12 . ?
Te6 Te7 Te5 68(4) 12 11 ?
Te6 Te7 Te5 116(5) . 11 ?
Te6 Te7 Te6 54(5) 12 . ?
Te6 Te7 Te7 52(4) . 12 ?
Te6 Te7 Te7 55(4) 12 12 ?
Te6 Te7 Te9 85(5) 12 . ?
Te6 Te7 Te9 35(3) . . ?
Te7 Te7 Te1 170.9(17) 12 . ?
Te7 Te7 Te5 75(4) 12 11 ?
Te8 Te7 Te1 45(3) . . ?
Te8 Te7 Te5 143(6) . 11 ?
Te8 Te7 Te6 117(6) . 12 ?
Te8 Te7 Te6 91(5) . . ?
Te8 Te7 Te7 141(8) . 12 ?
Te8 Te7 Te9 60(3) . . ?
Te9 Te7 Te1 104(3) . . ?
Te9 Te7 Te5 151(5) . 11 ?
Te9 Te7 Te7 81(6) . 12 ?
Te10 Te7 Te1 78(5) . . ?
Te10 Te7 Te5 25.5(19) . 11 ?
Te10 Te7 Te6 141(6) . . ?
Te10 Te7 Te6 89(4) . 12 ?
Te10 Te7 Te7 98(5) . 12 ?
Te10 Te7 Te8 121(8) . . ?
Te10 Te7 Te9 174(5) . . ?
Te10 Te7 Te14 74(5) . 12 ?
Te13 Te7 Te1 80(6) . . ?
Te13 Te7 Te5 153(6) . 11 ?
Te13 Te7 Te6 130(9) . 12 ?
Te13 Te7 Te6 76(7) . . ?
Te13 Te7 Te7 99(9) . 12 ?
Te13 Te7 Te8 54(5) . . ?
Te13 Te7 Te9 46(5) . . ?
Te13 Te7 Te10 140(8) . . ?
Te13 Te7 Te14 129(10) . 12 ?
Te14 Te7 Te1 150(9) 12 . ?
Te14 Te7 Te1 138(9) . . ?
Te14 Te7 Te5 49(5) 12 11 ?
Te14 Te7 Te5 116(9) . 11 ?
Te14 Te7 Te5 149(10) . . ?
Te14 Te7 Te6 39(4) 12 12 ?
Te14 Te7 Te6 80(8) . 12 ?
Te14 Te7 Te6 68(7) 12 . ?
Te14 Te7 Te6 35(6) . . ?
Te14 Te7 Te7 30(5) 12 12 ?
Te14 Te7 Te7 42(7) . 12 ?
Te14 Te7 Te8 101(9) . . ?
Te14 Te7 Te8 155(8) 12 . ?
Te14 Te7 Te9 103(9) 12 . ?
Te14 Te7 Te9 44(6) . . ?
Te14 Te7 Te10 137(10) . . ?
Te14 Te7 Te13 59(7) . . ?
Te14 Te7 Te14 71(10) . 12 ?
Te1 Te8 Te1 116(3) . 7 ?
Te1 Te8 Te8 69(3) . 7 ?
Te1 Te8 Te9 159(4) . . ?
Te1 Te8 Te11 146(3) . . ?
Te1 Te8 Te11 60(2) 7 . ?
Te1 Te8 Te12 117(7) . . ?
Te1 Te8 Te12 44(4) 7 . ?
Te1 Te8 Te14 120(4) . . ?
Te2 Te8 Te1 30.3(14) . 7 ?
Te2 Te8 Te1 146(4) . . ?
Te2 Te8 Te5 157(4) . . ?
Te2 Te8 Te7 116(5) . . ?
Te2 Te8 Te8 77(3) . 7 ?
Te2 Te8 Te9 49(2) . . ?
Te2 Te8 Te11 40(2) . . ?
Te2 Te8 Te12 47(7) . . ?
Te2 Te8 Te14 86(4) . . ?
Te3 Te8 Te1 47(2) 3_665 7 ?
Te3 Te8 Te1 69(3) 3_665 . ?
Te3 Te8 Te2 77(3) 3_665 . ?
Te3 Te8 Te5 110(4) 3_665 . ?
Te3 Te8 Te7 147(6) 3_665 . ?
Te3 Te8 Te8 7(5) 3_665 7 ?
Te3 Te8 Te9 122(4) 3_665 . ?
Te3 Te8 Te11 98(4) 3_665 . ?
Te3 Te8 Te12 67(4) 3_665 . ?
Te3 Te8 Te13 106(7) 3_665 . ?
Te3 Te8 Te14 139(6) 3_665 . ?
Te5 Te8 Te1 150(3) . 7 ?
Te5 Te8 Te1 47(2) . . ?
Te5 Te8 Te8 113(4) . 7 ?
Te5 Te8 Te9 113(4) . . ?
Te5 Te8 Te11 117(4) . . ?
Te5 Te8 Te12 115(6) . . ?
Te5 Te8 Te14 74(4) . . ?
Te7 Te8 Te1 93(5) . . ?
Te7 Te8 Te1 140(5) . 7 ?
Te7 Te8 Te5 46(4) . . ?
Te7 Te8 Te8 153(4) . 7 ?
Te7 Te8 Te9 68(5) . . ?
Te7 Te8 Te11 81(5) . . ?
Te7 Te8 Te12 99(4) . . ?
Te7 Te8 Te14 31(4) . . ?
Te8 Te8 Te1 47(2) 7 7 ?
Te8 Te8 Te11 101(4) 7 . ?
Te8 Te8 Te12 72(3) 7 . ?
Te8 Te8 Te14 145(3) 7 . ?
Te9 Te8 Te1 77(2) . 7 ?
Te9 Te8 Te8 124(4) . 7 ?
Te9 Te8 Te11 27(2) . . ?
Te9 Te8 Te12 60(5) . . ?
Te9 Te8 Te14 39(3) . . ?
Te12 Te8 Te11 33(5) . . ?
Te13 Te8 Te1 90(6) . 7 ?
Te13 Te8 Te1 112(6) . . ?
Te13 Te8 Te2 78(5) . . ?
Te13 Te8 Te5 79(5) . . ?
Te13 Te8 Te7 53(6) . . ?
Te13 Te8 Te8 113(6) . 7 ?
Te13 Te8 Te9 50(5) . . ?
Te13 Te8 Te11 39(5) . . ?
Te13 Te8 Te12 46(5) . . ?
Te13 Te8 Te14 33(5) . . ?
Te14 Te8 Te1 110(4) . 7 ?
Te14 Te8 Te11 51(3) . . ?
Te14 Te8 Te12 74(3) . . ?
Te1 Te9 Te6 134(3) 3 12 ?
Te2 Te9 Te1 87(2) . 3 ?
Te2 Te9 Te4 46.6(14) . . ?
Te2 Te9 Te5 115(2) . 3 ?
Te2 Te9 Te6 134(2) . 12 ?
Te2 Te9 Te7 110(3) . . ?
Te2 Te9 Te8 59(2) . . ?
Te2 Te9 Te12 52(3) . . ?
Te4 Te9 Te1 43.8(13) . 3 ?
Te4 Te9 Te5 77(2) . 3 ?
Te4 Te9 Te6 177(3) . 12 ?
Te4 Te9 Te7 133(4) . . ?
Te4 Te9 Te12 36(6) . . ?
Te5 Te9 Te1 34.2(11) 3 3 ?
Te5 Te9 Te6 101(3) 3 12 ?
Te6 Te9 Te1 112(5) . 3 ?
Te6 Te9 Te2 160(6) . . ?
Te6 Te9 Te4 149(5) . . ?
Te6 Te9 Te5 85(5) . 3 ?
Te6 Te9 Te6 31(6) . 12 ?
Te6 Te9 Te7 67(5) . . ?
Te6 Te9 Te8 114(5) . . ?
Te6 Te9 Te12 147(7) . . ?
Te6 Te9 Te13 104(7) . . ?
Te6 Te9 Te14 52(5) . . ?
Te7 Te9 Te1 112(2) . 3 ?
Te7 Te9 Te5 83(3) . 3 ?
Te7 Te9 Te6 44(3) . 12 ?
Te7 Te9 Te12 97(7) . . ?
Te8 Te9 Te1 113(2) . 3 ?
Te8 Te9 Te4 96(3) . . ?
Te8 Te9 Te5 110(2) . 3 ?
Te8 Te9 Te6 83(3) . 12 ?
Te8 Te9 Te7 52(3) . . ?
Te8 Te9 Te12 71(5) . . ?
Te11 Te9 Te1 17(4) . 3 ?
Te11 Te9 Te2 71(4) . . ?
Te11 Te9 Te4 28(4) . . ?
Te11 Te9 Te5 49(4) . 3 ?
Te11 Te9 Te6 129(7) . . ?
Te11 Te9 Te6 150(5) . 12 ?
Te11 Te9 Te7 117(4) . . ?
Te11 Te9 Te8 103(4) . . ?
Te11 Te9 Te12 32(5) . . ?
Te11 Te9 Te13 74(5) . . ?
Te11 Te9 Te14 102(6) . . ?
Te12 Te9 Te1 44(3) . 3 ?
Te12 Te9 Te5 64(2) . 3 ?
Te12 Te9 Te6 141(7) . 12 ?
Te13 Te9 Te1 74(5) . 3 ?
Te13 Te9 Te2 85(5) . . ?
Te13 Te9 Te4 88(5) . . ?
Te13 Te9 Te5 61(5) . 3 ?
Te13 Te9 Te6 89(5) . 12 ?
Te13 Te9 Te7 45(5) . . ?
Te13 Te9 Te8 49(5) . . ?
Te13 Te9 Te12 53(7) . . ?
Te14 Te9 Te1 89(4) . 3 ?
Te14 Te9 Te2 137(5) . . ?
Te14 Te9 Te4 128(5) . . ?
Te14 Te9 Te5 55(4) . 3 ?
Te14 Te9 Te6 49(4) . 12 ?
Te14 Te9 Te7 34(4) . . ?
Te14 Te9 Te8 84(5) . . ?
Te14 Te9 Te12 99(7) . . ?
Te14 Te9 Te13 53(6) . . ?
Te1 Te10 Te1 148(2) . 11 ?
Te5 Te10 Te1 161(4) 11 . ?
Te5 Te10 Te1 161(4) . 11 ?
Te5 Te10 Te1 15(2) 11 11 ?
Te5 Te10 Te1 15(2) . . ?
Te5 Te10 Te5 176(6) 11 . ?
Te5 Te10 Te6 99(3) 11 2 ?
Te5 Te10 Te6 99(3) . 12 ?
Te5 Te10 Te6 81(3) 11 12 ?
Te5 Te10 Te6 81(3) . 2 ?
Te5 Te10 Te7 56(3) . . ?
Te5 Te10 Te7 56(3) 11 11 ?
Te5 Te10 Te7 126(4) . 11 ?
Te5 Te10 Te7 126(4) 11 . ?
Te5 Te10 Te14 110(4) . 12 ?
Te5 Te10 Te14 72(3) 11 12 ?
Te5 Te10 Te14 72(3) . 2 ?
Te5 Te10 Te14 111(4) 11 . ?
Te5 Te10 Te14 110(4) 11 2 ?
Te5 Te10 Te14 71(3) . . ?
Te5 Te10 Te14 71(3) 11 11 ?
Te5 Te10 Te14 111(4) . 11 ?
Te6 Te10 Te1 76(2) 12 11 ?
Te6 Te10 Te1 105(2) 12 . ?
Te6 Te10 Te1 105(2) 2 11 ?
Te6 Te10 Te1 76(2) 2 . ?
Te6 Te10 Te6 176(5) 2 12 ?
Te6 Te10 Te14 48(3) 12 . ?
Te6 Te10 Te14 129(4) 2 . ?
Te6 Te10 Te14 48(3) 2 11 ?
Te6 Te10 Te14 129(4) 12 11 ?
Te7 Te10 Te1 125(3) 11 . ?
Te7 Te10 Te1 125(3) . 11 ?
Te7 Te10 Te1 69(4) 11 11 ?
Te7 Te10 Te1 69(4) . . ?
Te7 Te10 Te6 128(4) . 2 ?
Te7 Te10 Te6 50(4) 11 2 ?
Te7 Te10 Te6 128(4) 11 12 ?
Te7 Te10 Te6 50(4) . 12 ?
Te7 Te10 Te7 134(7) 11 . ?
Te7 Te10 Te14 18(4) 11 11 ?
Te7 Te10 Te14 103(4) 11 12 ?
Te7 Te10 Te14 118(5) . 11 ?
Te7 Te10 Te14 18(4) . . ?
Te7 Te10 Te14 103(4) . 2 ?
Te7 Te10 Te14 54(4) . 12 ?
Te7 Te10 Te14 54(4) 11 2 ?
Te7 Te10 Te14 118(5) 11 . ?
Te14 Te10 Te1 122(3) 12 . ?
Te14 Te10 Te1 85(2) . . ?
Te14 Te10 Te1 85(2) 11 11 ?
Te14 Te10 Te1 75(3) 2 . ?
Te14 Te10 Te1 115(3) . 11 ?
Te14 Te10 Te1 75(3) 12 11 ?
Te14 Te10 Te1 115(3) 11 . ?
Te14 Te10 Te1 122(3) 2 11 ?
Te14 Te10 Te6 29(3) 2 2 ?
Te14 Te10 Te6 147(5) 12 2 ?
Te14 Te10 Te6 147(5) 2 12 ?
Te14 Te10 Te6 29(3) 12 12 ?
Te14 Te10 Te14 100(6) 12 11 ?
Te14 Te10 Te14 123(7) 12 2 ?
Te14 Te10 Te14 105(5) . 11 ?
Te14 Te10 Te14 40(5) 2 11 ?
Te14 Te10 Te14 40(5) 12 . ?
Te14 Te10 Te14 100(6) 2 . ?
Te1 Te11 Te1 117(6) 3 7 ?
Te1 Te11 Te2 37(3) 3 8 ?
Te1 Te11 Te2 144(7) 3 . ?
Te1 Te11 Te5 50(3) 3 3 ?
Te1 Te11 Te6 124(5) 3 . ?
Te1 Te11 Te11 80(7) 3 8 ?
Te1 Te11 Te13 113(6) 3 . ?
Te1 Te11 Te14 111(5) 3 . ?
Te2 Te11 Te1 27.5(18) . 7 ?
Te2 Te11 Te1 81(3) 8 7 ?
Te2 Te11 Te2 107(5) . 8 ?
Te2 Te11 Te5 154(5) . 3 ?
Te2 Te11 Te6 92(6) . . ?
Te2 Te11 Te6 158(5) 8 . ?
Te2 Te11 Te11 44(4) 8 8 ?
Te2 Te11 Te11 64(4) . 8 ?
Te2 Te11 Te13 79(6) . . ?
Te2 Te11 Te14 100(6) . . ?
Te2 Te11 Te14 146(5) 8 . ?
Te4 Te11 Te1 83(7) . 3 ?
Te4 Te11 Te1 44(3) . 7 ?
Te4 Te11 Te2 46(4) . 8 ?
Te4 Te11 Te2 64(4) . . ?
Te4 Te11 Te5 132(9) . 3 ?
Te4 Te11 Te6 144(8) . . ?
Te4 Te11 Te11 21(5) . 8 ?
Te4 Te11 Te12 61(10) . . ?
Te4 Te11 Te13 126(8) . . ?
Te4 Te11 Te14 163(7) . . ?
Te5 Te11 Te1 145(4) 3 7 ?
Te5 Te11 Te2 86(5) 3 8 ?
Te5 Te11 Te6 81(4) 3 . ?
Te5 Te11 Te11 123(7) 3 8 ?
Te5 Te11 Te14 61(4) 3 . ?
Te6 Te11 Te1 119(6) . 7 ?
Te6 Te11 Te11 156(8) . 8 ?
Te9 Te11 Te1 93(6) . 7 ?
Te9 Te11 Te1 150(7) . 3 ?
Te9 Te11 Te2 66(5) . . ?
Te9 Te11 Te2 170(6) . 8 ?
Te9 Te11 Te4 124(8) . . ?
Te9 Te11 Te5 103(6) . 3 ?
Te9 Te11 Te6 26(4) . . ?
Te9 Te11 Te11 130(9) . 8 ?
Te9 Te11 Te12 123(7) . . ?
Te9 Te11 Te13 63(6) . . ?
Te9 Te11 Te14 45(4) . . ?
Te11 Te11 Te1 37(3) 8 7 ?
Te12 Te11 Te1 49(6) . 7 ?
Te12 Te11 Te1 78(5) . 3 ?
Te12 Te11 Te2 59(7) . 8 ?
Te12 Te11 Te2 73(5) . . ?
Te12 Te11 Te5 96(7) . 3 ?
Te12 Te11 Te6 140(9) . . ?
Te12 Te11 Te11 40(10) . 8 ?
Te12 Te11 Te13 72(8) . . ?
Te12 Te11 Te14 111(9) . . ?
Te13 Te11 Te1 86(6) . 7 ?
Te13 Te11 Te2 125(6) . 8 ?
Te13 Te11 Te5 75(5) . 3 ?
Te13 Te11 Te6 68(6) . . ?
Te13 Te11 Te11 108(6) . 8 ?
Te13 Te11 Te14 41(5) . . ?
Te14 Te11 Te1 119(5) . 7 ?
Te14 Te11 Te6 33(3) . . ?
Te14 Te11 Te11 149(5) . 8 ?
Te1 Te12 Te1 132(10) 7 3 ?
Te1 Te12 Te3 149(4) 7 2_545 ?
Te1 Te12 Te3 50.8(13) 3 2_545 ?
Te1 Te12 Te9 76(6) 3 . ?
Te1 Te12 Te9 83(7) 3 8 ?
Te1 Te12 Te9 83(7) 7 . ?
Te1 Te12 Te9 76(6) 7 8 ?
Te2 Te12 Te1 107(10) 8 7 ?
Te2 Te12 Te1 40(4) . 7 ?
Te2 Te12 Te1 107(10) . 3 ?
Te2 Te12 Te1 40(4) 8 3 ?
Te2 Te12 Te2 109(10) 8 . ?
Te2 Te12 Te3 158(10) . 2_545 ?
Te2 Te12 Te3 52.8(13) 8 2_545 ?
Te2 Te12 Te9 42(3) . . ?
Te2 Te12 Te9 42(3) 8 8 ?
Te2 Te12 Te9 103(10) . 8 ?
Te2 Te12 Te9 103(10) 8 . ?
Te2 Te12 Te13 130(8) . 8 ?
Te2 Te12 Te13 69(4) 8 8 ?
Te2 Te12 Te13 130(8) 8 . ?
Te2 Te12 Te13 69(4) . . ?
Te4 Te12 Te1 66(9) . 7 ?
Te4 Te12 Te1 66(9) . 3 ?
Te4 Te12 Te2 55(8) . 8 ?
Te4 Te12 Te2 55(8) . . ?
Te4 Te12 Te3 106(7) . 2_545 ?
Te4 Te12 Te9 63(7) . . ?
Te4 Te12 Te9 63(7) . 8 ?
Te4 Te12 Te11 50(10) . . ?
Te4 Te12 Te11 50(10) . 8 ?
Te4 Te12 Te13 105(10) . . ?
Te4 Te12 Te13 105(10) . 8 ?
Te9 Te12 Te3 122(3) . 2_545 ?
Te9 Te12 Te3 73.8(13) 8 2_545 ?
Te9 Te12 Te9 126(10) 8 . ?
Te11 Te12 Te1 95(10) 8 3 ?
Te11 Te12 Te1 95(10) . 7 ?
Te11 Te12 Te1 52(6) . 3 ?
Te11 Te12 Te1 52(6) 8 7 ?
Te11 Te12 Te2 58(8) 8 8 ?
Te11 Te12 Te2 58(8) . . ?
Te11 Te12 Te2 78(10) . 8 ?
Te11 Te12 Te2 78(10) 8 . ?
Te11 Te12 Te3 102(5) . 2_545 ?
Te11 Te12 Te3 99(5) 8 2_545 ?
Te11 Te12 Te9 25(4) . . ?
Te11 Te12 Te9 109(10) 8 . ?
Te11 Te12 Te9 109(10) . 8 ?
Te11 Te12 Te9 25(4) 8 8 ?
Te11 Te12 Te11 100(10) 8 . ?
Te11 Te12 Te13 147(10) . 8 ?
Te11 Te12 Te13 59(5) 8 8 ?
Te11 Te12 Te13 59(5) . . ?
Te11 Te12 Te13 147(10) 8 . ?
Te13 Te12 Te1 91(5) . 3 ?
Te13 Te12 Te1 91(5) 8 7 ?
Te13 Te12 Te1 101(4) . 7 ?
Te13 Te12 Te1 101(4) 8 3 ?
Te13 Te12 Te3 110(8) . 2_545 ?
Te13 Te12 Te3 61(5) 8 2_545 ?
Te13 Te12 Te9 41(5) . . ?
Te13 Te12 Te9 41(5) 8 8 ?
Te13 Te12 Te9 168(10) 8 . ?
Te13 Te12 Te9 168(10) . 8 ?
Te13 Te12 Te13 151(10) . 8 ?
Te2 Te13 Te3 53(3) . 3_665 ?
Te2 Te13 Te4 37(2) . . ?
Te2 Te13 Te5 113(6) . . ?
Te2 Te13 Te5 108(5) . 3 ?
Te2 Te13 Te6 80(5) . . ?
Te3 Te13 Te4 79(4) 3_665 . ?
Te3 Te13 Te5 148(6) 3_665 3 ?
Te3 Te13 Te6 119(6) 3_665 . ?
Te5 Te13 Te3 71(4) . 3_665 ?
Te5 Te13 Te4 74(4) 3 . ?
Te5 Te13 Te4 148(6) . . ?
Te5 Te13 Te5 138(6) . 3 ?
Te5 Te13 Te6 102(5) . . ?
Te5 Te13 Te6 75(5) 3 . ?
Te6 Te13 Te4 85(5) . . ?
Te7 Te13 Te2 115(7) . . ?
Te7 Te13 Te3 101(7) . 3_665 ?
Te7 Te13 Te4 143(8) . . ?
Te7 Te13 Te5 42(5) . . ?
Te7 Te13 Te5 111(8) . 3 ?
Te7 Te13 Te6 62(7) . . ?
Te7 Te13 Te8 73(7) . . ?
Te7 Te13 Te9 89(8) . . ?
Te7 Te13 Te11 129(10) . . ?
Te7 Te13 Te12 169(10) . . ?
Te8 Te13 Te2 56(5) . . ?
Te8 Te13 Te3 31(4) . 3_665 ?
Te8 Te13 Te4 92(6) . . ?
Te8 Te13 Te5 162(8) . 3 ?
Te8 Te13 Te5 57(5) . . ?
Te8 Te13 Te6 93(6) . . ?
Te8 Te13 Te9 81(6) . . ?
Te8 Te13 Te11 105(8) . . ?
Te8 Te13 Te12 97(7) . . ?
Te9 Te13 Te2 48(3) . . ?
Te9 Te13 Te3 96(6) . 3_665 ?
Te9 Te13 Te4 55(4) . . ?
Te9 Te13 Te5 120(7) . . ?
Te9 Te13 Te5 82(6) . 3 ?
Te9 Te13 Te6 33(4) . . ?
Te9 Te13 Te11 43(4) . . ?
Te9 Te13 Te12 86(10) . . ?
Te11 Te13 Te2 49(4) . . ?
Te11 Te13 Te3 99(6) . 3_665 ?
Te11 Te13 Te4 22(4) . . ?
Te11 Te13 Te5 58(5) . 3 ?
Te11 Te13 Te5 160(8) . . ?
Te11 Te13 Te6 67(6) . . ?
Te11 Te13 Te12 49(9) . . ?
Te12 Te13 Te2 55(7) . . ?
Te12 Te13 Te3 71(5) . 3_665 ?
Te12 Te13 Te4 31(9) . . ?
Te12 Te13 Te5 135(10) . . ?
Te12 Te13 Te5 77(5) . 3 ?
Te12 Te13 Te6 116(10) . . ?
Te14 Te13 Te2 110(8) . . ?
Te14 Te13 Te3 141(9) . 3_665 ?
Te14 Te13 Te4 108(8) . . ?
Te14 Te13 Te5 66(7) . 3 ?
Te14 Te13 Te5 91(7) . . ?
Te14 Te13 Te6 30(6) . . ?
Te14 Te13 Te7 50(6) . . ?
Te14 Te13 Te8 110(9) . . ?
Te14 Te13 Te9 62(7) . . ?
Te14 Te13 Te11 87(9) . . ?
Te14 Te13 Te12 134(10) . . ?
Te5 Te14 Te5 122(5) 3 . ?
Te5 Te14 Te6 154(7) 3 12 ?
Te5 Te14 Te8 112(5) 3 . ?
Te5 Te14 Te11 56(4) 3 . ?
Te6 Te14 Te5 82(4) 12 . ?
Te6 Te14 Te5 123(8) . . ?
Te6 Te14 Te5 107(9) . 3 ?
Te6 Te14 Te6 59(7) . 12 ?
Te6 Te14 Te7 82(9) . 12 ?
Te6 Te14 Te7 111(10) . . ?
Te6 Te14 Te8 91(4) 12 . ?
Te6 Te14 Te8 94(8) . . ?
Te6 Te14 Te9 53(6) . . ?
Te6 Te14 Te10 100(9) . 3 ?
Te6 Te14 Te11 131(5) 12 . ?
Te6 Te14 Te11 78(7) . . ?
Te6 Te14 Te13 117(10) . . ?
Te6 Te14 Te14 89(7) . 12 ?
Te7 Te14 Te5 118(8) 12 . ?
Te7 Te14 Te5 94(8) 12 3 ?
Te7 Te14 Te5 17(6) . . ?
Te7 Te14 Te5 138(9) . 3 ?
Te7 Te14 Te6 65(7) . 12 ?
Te7 Te14 Te6 64(7) 12 12 ?
Te7 Te14 Te7 108(10) . 12 ?
Te7 Te14 Te8 49(7) . . ?
Te7 Te14 Te8 153(9) 12 . ?
Te7 Te14 Te9 102(9) . . ?
Te7 Te14 Te10 141(10) . 3 ?
Te7 Te14 Te10 52(6) 12 3 ?
Te7 Te14 Te11 117(9) . . ?
Te7 Te14 Te11 135(10) 12 . ?
Te7 Te14 Te13 71(9) . . ?
Te7 Te14 Te14 43(5) 12 12 ?
Te7 Te14 Te14 66(8) . 12 ?
Te8 Te14 Te5 44(3) . . ?
Te9 Te14 Te5 87(5) . 3 ?
Te9 Te14 Te5 100(5) . . ?
Te9 Te14 Te6 98(5) . 12 ?
Te9 Te14 Te7 133(9) . 12 ?
Te9 Te14 Te8 57(4) . . ?
Te9 Te14 Te10 116(7) . 3 ?
Te9 Te14 Te11 33(3) . . ?
Te9 Te14 Te14 134(4) . 12 ?
Te10 Te14 Te5 42(2) 3 3 ?
Te10 Te14 Te5 135(5) 3 . ?
Te10 Te14 Te6 115(6) 3 12 ?
Te10 Te14 Te8 154(5) 3 . ?
Te10 Te14 Te11 92(5) 3 . ?
Te11 Te14 Te5 107(5) . . ?
Te11 Te14 Te8 69(4) . . ?
Te13 Te14 Te5 77(7) . 3 ?
Te13 Te14 Te5 57(6) . . ?
Te13 Te14 Te6 128(8) . 12 ?
Te13 Te14 Te7 161(10) . 12 ?
Te13 Te14 Te8 37(6) . . ?
Te13 Te14 Te9 64(7) . . ?
Te13 Te14 Te10 116(8) . 3 ?
Te13 Te14 Te11 52(6) . . ?
Te13 Te14 Te14 136(10) . 12 ?
Te14 Te14 Te5 79(7) 12 . ?
Te14 Te14 Te5 132(8) 12 3 ?
Te14 Te14 Te6 36(3) 12 12 ?
Te14 Te14 Te8 111(9) 12 . ?
Te14 Te14 Te10 92(8) 12 3 ?
Te14 Te14 Te11 166(4) 12 . ?
loop_
_geom_bond_atom_site_label_1
_geom_bond_atom_site_label_2
_geom_bond_distance
_geom_bond_site_symmetry_2
_geom_bond_publ_flag
Sn1 Se1 2.5500(11) . ?
Sn1 Se1 2.5501(11) 8 ?
Sn1 Se2 2.5152(10) 10_655 ?
Sn1 Se2 2.5152(10) 6_654 ?
Sn2 Se1 3.0062(8) 5_565 ?
Sn2 Se1 3.0062(8) 7_556 ?
Sn2 Se1 3.0062(8) 9_666 ?
Sn2 Se1 3.0062(8) 6 ?
Sn2 Se1 3.0062(8) 8_566 ?
Sn2 Se1 3.0062(8) 4_665 ?
Se1 B2 2.006(8) 7 ?
Se2 B1 1.991(8) . ?
B1 B1 1.823(18) 12_565 ?
B1 B1 1.745(18) 11 ?
B1 B2 1.800(12) 11 ?
B1 B2 1.785(11) . ?
B1 B2 1.806(12) 12_565 ?
B2 B2 1.781(13) 3_565 ?
B2 B2 1.781(13) 2_665 ?
Te1 Te2 0.86(2) 7 ?
Te1 Te3 1.246(18) 3_665 ?
Te1 Te4 1.22(3) 2 ?
Te1 Te5 1.01(3) . ?
Te1 Te7 1.82(8) . ?
Te1 Te8 1.64(4) 7 ?
Te1 Te8 1.29(4) . ?
Te1 Te9 1.75(3) 2 ?
Te1 Te11 1.66(6) 7 ?
Te1 Te11 1.02(7) 2 ?
Te1 Te12 1.26(9) 2 ?
Te1 Te13 1.78(8) 2 ?
Te2 Te3 1.280(19) 3_665 ?
Te2 Te4 1.03(2) . ?
Te2 Te5 1.84(4) 7 ?
Te2 Te6 1.86(7) . ?
Te2 Te8 1.75(5) 7 ?
Te2 Te8 1.20(4) . ?
Te2 Te9 1.05(3) . ?
Te2 Te11 1.40(8) 8 ?
Te2 Te11 1.09(6) . ?
Te2 Te12 1.23(12) . ?
Te2 Te13 1.41(8) . ?
Te3 Te5 1.68(3) 9_655 ?
Te3 Te5 1.68(3) 2_655 ?
Te3 Te8 0.79(4) 9_655 ?
Te3 Te8 0.79(4) 2_655 ?
Te3 Te12 1.57(6) 3_655 ?
Te3 Te12 1.57(6) 2_655 ?
Te3 Te13 1.46(9) 9_655 ?
Te3 Te13 1.46(9) 2_655 ?
Te4 Te5 1.93(4) 7 ?
Te4 Te9 1.41(3) . ?
Te4 Te9 1.41(3) 8 ?
Te4 Te11 0.80(6) 8 ?
Te4 Te11 0.80(6) . ?
Te4 Te12 0.92(19) . ?
Te4 Te13 1.71(9) 8 ?
Te4 Te13 1.71(9) . ?
Te5 Te7 0.97(7) . ?
Te5 Te8 1.24(5) . ?
Te5 Te9 1.67(4) 2 ?
Te5 Te10 0.97(3) . ?
Te5 Te11 1.30(6) 2 ?
Te5 Te12 1.70(3) 2 ?
Te5 Te13 1.47(9) 2 ?
Te5 Te13 1.44(9) . ?
Te5 Te14 1.37(7) 2 ?
Te5 Te14 1.72(8) . ?
Te6 Te6 1.20(11) 12 ?
Te6 Te7 1.28(9) 12 ?
Te6 Te7 1.35(11) . ?
Te6 Te8 1.84(8) . ?
Te6 Te9 0.84(6) . ?
Te6 Te9 1.83(7) 12 ?
Te6 Te10 1.67(6) 3 ?
Te6 Te11 1.47(9) . ?
Te6 Te13 1.48(12) . ?
Te6 Te14 1.39(8) 12 ?
Te6 Te14 0.82(7) . ?
Te7 Te7 1.57(15) 12 ?
Te7 Te8 1.22(7) . ?
Te7 Te9 1.43(8) . ?
Te7 Te10 1.08(7) . ?
Te7 Te13 1.01(9) . ?
Te7 Te14 0.82(7) . ?
Te7 Te14 1.11(8) 12 ?
Te8 Te8 1.57(9) 7 ?
Te8 Te9 1.33(5) . ?
Te8 Te11 1.70(8) . ?
Te8 Te12 1.70(5) . ?
Te8 Te13 1.03(8) . ?
Te8 Te14 1.59(9) . ?
Te9 Te11 0.79(6) . ?
Te9 Te12 1.56(10) . ?
Te9 Te13 1.03(8) . ?
Te9 Te14 1.01(7) . ?
Te10 Te14 1.77(8) 11 ?
Te10 Te14 1.32(7) 12 ?
Te10 Te14 1.32(7) 2 ?
Te10 Te14 1.77(8) . ?
Te11 Te11 1.49(12) 8 ?
Te11 Te12 0.98(13) . ?
Te11 Te13 1.12(8) . ?
Te11 Te14 1.41(9) . ?
Te12 Te13 1.24(9) 8 ?
Te12 Te13 1.24(9) . ?
Te13 Te14 0.92(9) . ?
Te14 Te14 1.15(13) 12 ?
loop_
_geom_torsion_atom_site_label_1
_geom_torsion_atom_site_label_2
_geom_torsion_atom_site_label_3
_geom_torsion_atom_site_label_4
_geom_torsion
_geom_torsion_site_symmetry_1
_geom_torsion_site_symmetry_2
_geom_torsion_site_symmetry_3
_geom_torsion_site_symmetry_4
_geom_torsion_publ_flag
Se2 B1 B2 Se1 -2.3(10) . . . 7 ?
Se2 B1 B2 B1 111.4(4) . . . 12_565 ?
Se2 B1 B2 B1 -110.7(4) . . . 11 ?
Se2 B1 B2 B2 -147.4(6) . . . 2_665 ?
Se2 B1 B2 B2 149.1(6) . . . 3_565 ?
B1 B1 B2 Se1 -113.7(7) 12_565 . . 7 ?
B1 B1 B2 Se1 108.4(7) 11 . . 7 ?
B1 B1 B2 B1 137.9(4) 12_565 . . 11 ?
B1 B1 B2 B1 -137.9(4) 11 . . 12_565 ?
B1 B1 B2 B2 101.2(6) 12_565 . . 2_665 ?
B1 B1 B2 B2 37.7(6) 12_565 . . 3_565 ?
B1 B1 B2 B2 -36.6(6) 11 . . 2_665 ?
B1 B1 B2 B2 -100.2(6) 11 . . 3_565 ?
B2 B1 B2 Se1 147.5(6) 11 . . 7 ?
B2 B1 B2 Se1 -150.0(6) 12_565 . . 7 ?
B2 B1 B2 B1 -98.8(6) 11 . . 12_565 ?
B2 B1 B2 B1 39.0(7) 11 . . 11 ?
B2 B1 B2 B1 -36.2(7) 12_565 . . 12_565 ?
B2 B1 B2 B1 101.6(6) 12_565 . . 11 ?
B2 B1 B2 B2 2.4(9) 11 . . 2_665 ?
B2 B1 B2 B2 1.4(10) 12_565 . . 3_565 ?
B2 B1 B2 B2 65.0(9) 12_565 . . 2_665 ?
B2 B1 B2 B2 -61.1(9) 11 . . 3_565 ?
Te1 Te2 Te4 Te1 -130(5) 7 . . 3 ?
Te1 Te2 Te4 Te2 -74.3(16) 7 . . 8 ?
Te1 Te2 Te4 Te5 -9.9(16) 7 . . 7 ?
Te1 Te2 Te4 Te9 -163(3) 7 . . . ?
Te1 Te2 Te4 Te9 -5(5) 7 . . 8 ?
Te1 Te2 Te4 Te11 -146(5) 7 . . . ?
Te1 Te2 Te4 Te11 -8(5) 7 . . 8 ?
Te1 Te2 Te4 Te12 -74.3(16) 7 . . . ?
Te1 Te2 Te4 Te13 -40(4) 7 . . 8 ?
Te1 Te2 Te4 Te13 -116(4) 7 . . . ?
Te1 Te2 Te8 Te1 -2(7) 7 . . . ?
Te1 Te2 Te8 Te3 0(5) 7 . . 3_665 ?
Te1 Te2 Te8 Te5 111(10) 7 . . . ?
Te1 Te2 Te8 Te7 148(4) 7 . . . ?
Te1 Te2 Te8 Te8 -7(2) 7 . . 7 ?
Te1 Te2 Te8 Te9 157(3) 7 . . . ?
Te1 Te2 Te8 Te11 120(4) 7 . . . ?
Te1 Te2 Te8 Te12 71(3) 7 . . . ?
Te1 Te2 Te8 Te13 110(6) 7 . . . ?
Te1 Te2 Te8 Te14 143(4) 7 . . . ?
Te1 Te2 Te9 Te1 32(7) 7 . . 3 ?
Te1 Te2 Te9 Te4 50(8) 7 . . . ?
Te1 Te2 Te9 Te5 12(8) 7 . . 3 ?
Te1 Te2 Te9 Te6 -126(8) 7 . . 12 ?
Te1 Te2 Te9 Te6 -160(15) 7 . . . ?
Te1 Te2 Te9 Te7 -80(8) 7 . . . ?
Te1 Te2 Te9 Te8 -87(8) 7 . . . ?
Te1 Te2 Te9 Te11 33(9) 7 . . . ?
Te1 Te2 Te9 Te12 3(11) 7 . . . ?
Te1 Te2 Te9 Te13 -42(9) 7 . . . ?
Te1 Te2 Te9 Te14 -54(11) 7 . . . ?
Te1 Te2 Te11 Te1 12(9) 7 . . 3 ?
Te1 Te2 Te11 Te2 22(5) 7 . . 8 ?
Te1 Te2 Te11 Te4 38(6) 7 . . . ?
Te1 Te2 Te11 Te5 -96(16) 7 . . 3 ?
Te1 Te2 Te11 Te6 -169(4) 7 . . . ?
Te1 Te2 Te11 Te9 -167(4) 7 . . . ?
Te1 Te2 Te11 Te11 15(2) 7 . . 8 ?
Te1 Te2 Te11 Te12 -27(10) 7 . . . ?
Te1 Te2 Te11 Te13 -102(6) 7 . . . ?
Te1 Te2 Te11 Te14 -137(5) 7 . . . ?
Te1 Te2 Te12 Te1 136(10) 7 . . 3 ?
Te1 Te2 Te12 Te2 94(3) 7 . . 8 ?
Te1 Te2 Te12 Te3 128(23) 7 . . 2_545 ?
Te1 Te2 Te12 Te4 94(3) 7 . . . ?
Te1 Te2 Te12 Te9 -179(4) 7 . . . ?
Te1 Te2 Te12 Te9 50(4) 7 . . 8 ?
Te1 Te2 Te12 Te11 154(9) 7 . . . ?
Te1 Te2 Te12 Te11 45(5) 7 . . 8 ?
Te1 Te2 Te12 Te13 -140(8) 7 . . . ?
Te1 Te2 Te12 Te13 15(15) 7 . . 8 ?
Te1 Te2 Te13 Te3 -48(4) 7 . . 3_665 ?
Te1 Te2 Te13 Te4 78(4) 7 . . . ?
Te1 Te2 Te13 Te5 103(5) 7 . . 3 ?
Te1 Te2 Te13 Te5 -87(6) 7 . . . ?
Te1 Te2 Te13 Te6 173(4) 7 . . . ?
Te1 Te2 Te13 Te7 -133(8) 7 . . . ?
Te1 Te2 Te13 Te8 -87(5) 7 . . . ?
Te1 Te2 Te13 Te9 163(4) 7 . . . ?
Te1 Te2 Te13 Te11 105(6) 7 . . . ?
Te1 Te2 Te13 Te12 43(9) 7 . . . ?
Te1 Te2 Te13 Te14 172(7) 7 . . . ?
Te1 Te4 Te9 Te1 142(5) 7 . . 3 ?
Te1 Te4 Te9 Te2 -11.9(18) 7 . . . ?
Te1 Te4 Te9 Te2 -154(4) 3 . . . ?
Te1 Te4 Te9 Te5 -9(2) 3 . . 3 ?
Te1 Te4 Te9 Te5 133(3) 7 . . 3 ?
Te1 Te4 Te9 Te6 46(12) 3 . . . ?
Te1 Te4 Te9 Te6 -172(11) 7 . . . ?
Te1 Te4 Te9 Te7 -77(4) 3 . . . ?
Te1 Te4 Te9 Te7 65(5) 7 . . . ?
Te1 Te4 Te9 Te8 24(3) 7 . . . ?
Te1 Te4 Te9 Te8 -118(3) 3 . . . ?
Te1 Te4 Te9 Te11 -10(8) 3 . . . ?
Te1 Te4 Te9 Te11 132(10) 7 . . . ?
Te1 Te4 Te9 Te12 -72(2) 3 . . . ?
Te1 Te4 Te9 Te12 71(2) 7 . . . ?
Te1 Te4 Te9 Te13 73(5) 7 . . . ?
Te1 Te4 Te9 Te13 -69(5) 3 . . . ?
Te1 Te4 Te9 Te14 111(6) 7 . . . ?
Te1 Te4 Te9 Te14 -32(7) 3 . . . ?
Te1 Te4 Te11 Te1 141(4) 7 . . 3 ?
Te1 Te4 Te11 Te1 -141(4) 3 . . 7 ?
Te1 Te4 Te11 Te2 -7(4) 3 . . 8 ?
Te1 Te4 Te11 Te2 -165(4) 3 . . . ?
Te1 Te4 Te11 Te2 -24(3) 7 . . . ?
Te1 Te4 Te11 Te2 134(7) 7 . . 8 ?
Te1 Te4 Te11 Te5 130(6) 7 . . 3 ?
Te1 Te4 Te11 Te5 -10(5) 3 . . 3 ?
Te1 Te4 Te11 Te6 -76(12) 7 . . . ?
Te1 Te4 Te11 Te6 143(12) 3 . . . ?
Te1 Te4 Te11 Te9 -52(9) 7 . . . ?
Te1 Te4 Te11 Te9 168(9) 3 . . . ?
Te1 Te4 Te11 Te11 -80(3) 3 . . 8 ?
Te1 Te4 Te11 Te11 60(5) 7 . . 8 ?
Te1 Te4 Te11 Te12 60(5) 7 . . . ?
Te1 Te4 Te11 Te12 -80(3) 3 . . . ?
Te1 Te4 Te11 Te13 27(12) 7 . . . ?
Te1 Te4 Te11 Te13 -113(11) 3 . . . ?
Te1 Te4 Te11 Te14 -148(28) 3 . . . ?
Te1 Te4 Te11 Te14 -7(30) 7 . . . ?
Te1 Te4 Te12 Te1 180.000(0) 3 . . 7 ?
Te1 Te4 Te12 Te1 180.000(0) 7 . . 3 ?
Te1 Te4 Te12 Te2 135.2(11) 3 . . . ?
Te1 Te4 Te12 Te2 135.2(11) 7 . . 8 ?
Te1 Te4 Te12 Te2 -44.8(11) 7 . . . ?
Te1 Te4 Te12 Te2 -44.8(11) 3 . . 8 ?
Te1 Te4 Te12 Te3 148.0(10) 7 . . 2_545 ?
Te1 Te4 Te12 Te3 -32.0(10) 3 . . 2_545 ?
Te1 Te4 Te12 Te9 -93.9(13) 3 . . 8 ?
Te1 Te4 Te12 Te9 86.1(13) 3 . . . ?
Te1 Te4 Te12 Te9 -93.9(13) 7 . . . ?
Te1 Te4 Te12 Te9 86.1(13) 7 . . 8 ?
Te1 Te4 Te12 Te11 60(5) 7 . . 8 ?
Te1 Te4 Te12 Te11 -120(5) 3 . . 8 ?
Te1 Te4 Te12 Te11 60(5) 3 . . . ?
Te1 Te4 Te12 Te11 -120(5) 7 . . . ?
Te1 Te4 Te12 Te13 84(4) 3 . . . ?
Te1 Te4 Te12 Te13 84(4) 7 . . 8 ?
Te1 Te4 Te12 Te13 -96(4) 3 . . 8 ?
Te1 Te4 Te12 Te13 -96(4) 7 . . . ?
Te1 Te4 Te13 Te2 -39(2) 7 . . . ?
Te1 Te4 Te13 Te2 168(4) 3 . . . ?
Te1 Te4 Te13 Te3 1(3) 7 . . 3_665 ?
Te1 Te4 Te13 Te3 -151(4) 3 . . 3_665 ?
Te1 Te4 Te13 Te5 -14(11) 7 . . . ?
Te1 Te4 Te13 Te5 -166(12) 3 . . . ?
Te1 Te4 Te13 Te5 165(4) 7 . . 3 ?
Te1 Te4 Te13 Te5 12(3) 3 . . 3 ?
Te1 Te4 Te13 Te6 -120(4) 7 . . . ?
Te1 Te4 Te13 Te6 88(4) 3 . . . ?
Te1 Te4 Te13 Te7 -91(14) 7 . . . ?
Te1 Te4 Te13 Te7 116(14) 3 . . . ?
Te1 Te4 Te13 Te8 -180(6) 3 . . . ?
Te1 Te4 Te13 Te8 -27(5) 7 . . . ?
Te1 Te4 Te13 Te9 103(5) 3 . . . ?
Te1 Te4 Te13 Te9 -104(4) 7 . . . ?
Te1 Te4 Te13 Te11 -154(12) 7 . . . ?
Te1 Te4 Te13 Te11 53(11) 3 . . . ?
Te1 Te4 Te13 Te12 72(3) 7 . . . ?
Te1 Te4 Te13 Te12 -80(3) 3 . . . ?
Te1 Te4 Te13 Te14 -138(8) 7 . . . ?
Te1 Te4 Te13 Te14 69(8) 3 . . . ?
Te1 Te5 Te7 Te5 153(5) . . . 11 ?
Te1 Te5 Te7 Te6 102(9) . . . 12 ?
Te1 Te5 Te7 Te6 6(22) . . . . ?
Te1 Te5 Te7 Te7 -168(11) . . . 12 ?
Te1 Te5 Te7 Te8 -5(6) . . . . ?
Te1 Te5 Te7 Te9 -18(10) . . . . ?
Te1 Te5 Te7 Te10 155(6) . . . . ?
Te1 Te5 Te7 Te13 -54(8) . . . . ?
Te1 Te5 Te7 Te14 155(8) . . . 12 ?
Te1 Te5 Te7 Te14 -78(21) . . . . ?
Te1 Te5 Te8 Te1 -66(7) . . . 7 ?
Te1 Te5 Te8 Te2 -136(10) . . . . ?
Te1 Te5 Te8 Te3 -32(5) . . . 3_665 ?
Te1 Te5 Te8 Te7 176(5) . . . . ?
Te1 Te5 Te8 Te8 -25(2) . . . 7 ?
Te1 Te5 Te8 Te9 -172(4) . . . . ?
Te1 Te5 Te8 Te11 -142(4) . . . . ?
Te1 Te5 Te8 Te12 -105(5) . . . . ?
Te1 Te5 Te8 Te13 -135(6) . . . . ?
Te1 Te5 Te8 Te14 -169(3) . . . . ?
Te1 Te5 Te10 Te1 -42(14) . . . 11 ?
Te1 Te5 Te10 Te6 69(8) . . . 2 ?
Te1 Te5 Te10 Te6 -115(8) . . . 12 ?
Te1 Te5 Te10 Te7 -143(10) . . . . ?
Te1 Te5 Te10 Te7 94(10) . . . 11 ?
Te1 Te5 Te10 Te14 -143(8) . . . 12 ?
Te1 Te5 Te10 Te14 97(9) . . . 2 ?
Te1 Te5 Te10 Te14 -155(9) . . . . ?
Te1 Te5 Te10 Te14 107(8) . . . 11 ?
Te1 Te5 Te13 Te2 43(6) . . . . ?
Te1 Te5 Te13 Te3 11(4) . . . 3_665 ?
Te1 Te5 Te13 Te4 26(12) . . . . ?
Te1 Te5 Te13 Te5 -151(8) . . . 3 ?
Te1 Te5 Te13 Te6 127(5) . . . . ?
Te1 Te5 Te13 Te7 144(6) . . . . ?
Te1 Te5 Te13 Te8 42(5) . . . . ?
Te1 Te5 Te13 Te9 97(8) . . . . ?
Te1 Te5 Te13 Te11 71(25) . . . . ?
Te1 Te5 Te13 Te12 -21(14) . . . . ?
Te1 Te5 Te13 Te14 155(7) . . . . ?
Te1 Te5 Te14 Te5 -76(6) . . . 3 ?
Te1 Te5 Te14 Te6 114(5) . . . 12 ?
Te1 Te5 Te14 Te6 70(10) . . . . ?
Te1 Te5 Te14 Te7 169(7) . . . 12 ?
Te1 Te5 Te14 Te7 114(20) . . . . ?
Te1 Te5 Te14 Te8 14(4) . . . . ?
Te1 Te5 Te14 Te9 17(7) . . . . ?
Te1 Te5 Te14 Te10 -128(6) . . . 3 ?
Te1 Te5 Te14 Te11 -16(7) . . . . ?
Te1 Te5 Te14 Te13 -33(9) . . . . ?
Te1 Te5 Te14 Te14 151(5) . . . 12 ?
Te1 Te7 Te8 Te1 -139(7) . . . 7 ?
Te1 Te7 Te8 Te2 -164(5) . . . . ?
Te1 Te7 Te8 Te3 -56(10) . . . 3_665 ?
Te1 Te7 Te8 Te5 -3(3) . . . . ?
Te1 Te7 Te8 Te8 -49(11) . . . 7 ?
Te1 Te7 Te8 Te9 -171(3) . . . . ?
Te1 Te7 Te8 Te11 -146(3) . . . . ?
Te1 Te7 Te8 Te12 -118(7) . . . . ?
Te1 Te7 Te8 Te13 -115(7) . . . . ?
Te1 Te7 Te8 Te14 -153(8) . . . . ?
Te1 Te7 Te9 Te1 -96(3) . . . 3 ?
Te1 Te7 Te9 Te2 -1(4) . . . . ?
Te1 Te7 Te9 Te4 -50(4) . . . . ?
Te1 Te7 Te9 Te5 -115(3) . . . 3 ?
Te1 Te7 Te9 Te6 158(6) . . . . ?
Te1 Te7 Te9 Te6 132(5) . . . 12 ?
Te1 Te7 Te9 Te8 7(2) . . . . ?
Te1 Te7 Te9 Te11 -79(6) . . . . ?
Te1 Te7 Te9 Te12 -53(3) . . . . ?
Te1 Te7 Te9 Te13 -60(7) . . . . ?
Te1 Te7 Te9 Te14 -148(10) . . . . ?
Te1 Te7 Te10 Te1 -147(4) . . . 11 ?
Te1 Te7 Te10 Te5 10(3) . . . . ?
Te1 Te7 Te10 Te5 -166(6) . . . 11 ?
Te1 Te7 Te10 Te6 -133(5) . . . 12 ?
Te1 Te7 Te10 Te6 51(5) . . . 2 ?
Te1 Te7 Te10 Te7 119(2) . . . 11 ?
Te1 Te7 Te10 Te14 68(3) . . . 2 ?
Te1 Te7 Te10 Te14 -170(6) . . . 12 ?
Te1 Te7 Te10 Te14 153(13) . . . . ?
Te1 Te7 Te10 Te14 108(4) . . . 11 ?
Te1 Te7 Te13 Te2 79(7) . . . . ?
Te1 Te7 Te13 Te3 25(4) . . . 3_665 ?
Te1 Te7 Te13 Te4 111(13) . . . . ?
Te1 Te7 Te13 Te5 -158(6) . . . 3 ?
Te1 Te7 Te13 Te5 -19(3) . . . . ?
Te1 Te7 Te13 Te6 143(4) . . . . ?
Te1 Te7 Te13 Te8 40(4) . . . . ?
Te1 Te7 Te13 Te9 121(5) . . . . ?
Te1 Te7 Te13 Te11 136(11) . . . . ?
Te1 Te7 Te13 Te12 61(70) . . . . ?
Te1 Te7 Te13 Te14 176(9) . . . . ?
Te1 Te7 Te14 Te5 -36(13) . . . . ?
Te1 Te7 Te14 Te5 -48(20) . . . 3 ?
Te1 Te7 Te14 Te6 144(12) . . . 12 ?
Te1 Te7 Te14 Te6 106(12) . . . . ?
Te1 Te7 Te14 Te7 -166(3) . . . 12 ?
Te1 Te7 Te14 Te8 29(7) . . . . ?
Te1 Te7 Te14 Te9 51(13) . . . . ?
Te1 Te7 Te14 Te10 -116(13) . . . 3 ?
Te1 Te7 Te14 Te11 19(16) . . . . ?
Te1 Te7 Te14 Te13 -7(13) . . . . ?
Te1 Te7 Te14 Te14 -176(13) . . . 12 ?
Te1 Te8 Te9 Te1 -60(2) 7 . . 3 ?
Te1 Te8 Te9 Te1 73(10) . . . 3 ?
Te1 Te8 Te9 Te2 11.9(16) 7 . . . ?
Te1 Te8 Te9 Te2 145(10) . . . . ?
Te1 Te8 Te9 Te4 115(10) . . . . ?
Te1 Te8 Te9 Te4 -18(2) 7 . . . ?
Te1 Te8 Te9 Te5 -96(2) 7 . . 3 ?
Te1 Te8 Te9 Te5 37(11) . . . 3 ?
Te1 Te8 Te9 Te6 -62(10) . . . 12 ?
Te1 Te8 Te9 Te6 171(6) 7 . . . ?
Te1 Te8 Te9 Te6 165(3) 7 . . 12 ?
Te1 Te8 Te9 Te6 -56(12) . . . . ?
Te1 Te8 Te9 Te7 -160(3) 7 . . . ?
Te1 Te8 Te9 Te7 -27(9) . . . . ?
Te1 Te8 Te9 Te11 -45(4) 7 . . . ?
Te1 Te8 Te9 Te11 88(11) . . . . ?
Te1 Te8 Te9 Te12 -45(6) 7 . . . ?
Te1 Te8 Te9 Te12 88(11) . . . . ?
Te1 Te8 Te9 Te13 32(10) . . . . ?
Te1 Te8 Te9 Te13 -101(7) 7 . . . ?
Te1 Te8 Te9 Te14 -13(11) . . . . ?
Te1 Te8 Te9 Te14 -146(4) 7 . . . ?
Te1 Te8 Te13 Te2 146(5) . . . . ?
Te1 Te8 Te13 Te2 28.2(15) 7 . . . ?
Te1 Te8 Te13 Te3 74(5) . . . 3_665 ?
Te1 Te8 Te13 Te3 -45(3) 7 . . 3_665 ?
Te1 Te8 Te13 Te4 19(4) 7 . . . ?
Te1 Te8 Te13 Te4 138(4) . . . . ?
Te1 Te8 Te13 Te5 58(27) 7 . . 3 ?
Te1 Te8 Te13 Te5 -152(3) 7 . . . ?
Te1 Te8 Te13 Te5 -34(4) . . . . ?
Te1 Te8 Te13 Te5 176(24) . . . 3 ?
Te1 Te8 Te13 Te6 -137(4) . . . . ?
Te1 Te8 Te13 Te6 105(4) 7 . . . ?
Te1 Te8 Te13 Te7 -77(7) . . . . ?
Te1 Te8 Te13 Te7 165(6) 7 . . . ?
Te1 Te8 Te13 Te9 -168(4) . . . . ?
Te1 Te8 Te13 Te9 73(4) 7 . . . ?
Te1 Te8 Te13 Te11 38(7) 7 . . . ?
Te1 Te8 Te13 Te11 156(6) . . . . ?
Te1 Te8 Te13 Te12 107(10) . . . . ?
Te1 Te8 Te13 Te12 -11(11) 7 . . . ?
Te1 Te8 Te13 Te14 -112(9) . . . . ?
Te1 Te8 Te13 Te14 130(9) 7 . . . ?
Te1 Te8 Te14 Te5 -10(3) . . . . ?
Te1 Te8 Te14 Te5 -35(6) 7 . . 3 ?
Te1 Te8 Te14 Te5 104(6) . . . 3 ?
Te1 Te8 Te14 Te5 -149(4) 7 . . . ?
Te1 Te8 Te14 Te6 -86(5) . . . 12 ?
Te1 Te8 Te14 Te6 -146(6) . . . . ?
Te1 Te8 Te14 Te6 135(3) 7 . . 12 ?
Te1 Te8 Te14 Te6 75(7) 7 . . . ?
Te1 Te8 Te14 Te7 156(16) 7 . . 12 ?
Te1 Te8 Te14 Te7 -65(18) . . . 12 ?
Te1 Te8 Te14 Te7 -32(9) . . . . ?
Te1 Te8 Te14 Te7 -171(7) 7 . . . ?
Te1 Te8 Te14 Te9 35(4) 7 . . . ?
Te1 Te8 Te14 Te9 175(4) . . . . ?
Te1 Te8 Te14 Te10 -47(15) 7 . . 3 ?
Te1 Te8 Te14 Te10 92(14) . . . 3 ?
Te1 Te8 Te14 Te11 139(4) . . . . ?
Te1 Te8 Te14 Te11 0(4) 7 . . . ?
Te1 Te8 Te14 Te13 84(10) . . . . ?
Te1 Te8 Te14 Te13 -55(10) 7 . . . ?
Te1 Te8 Te14 Te14 165(3) 7 . . 12 ?
Te1 Te8 Te14 Te14 -56(5) . . . 12 ?
Te1 Te9 Te11 Te1 172(13) 3 . . 7 ?
Te1 Te9 Te11 Te2 -131(41) 3 . . 8 ?
Te1 Te9 Te11 Te2 178(12) 3 . . . ?
Te1 Te9 Te11 Te4 -154(17) 3 . . . ?
Te1 Te9 Te11 Te5 24(9) 3 . . 3 ?
Te1 Te9 Te11 Te6 -7(16) 3 . . . ?
Te1 Te9 Te11 Te11 -180(100) 3 . . 8 ?
Te1 Te9 Te11 Te12 130(16) 3 . . . ?
Te1 Te9 Te11 Te13 88(12) 3 . . . ?
Te1 Te9 Te11 Te14 42(13) 3 . . . ?
Te1 Te9 Te12 Te1 -136(13) 3 . . 7 ?
Te1 Te9 Te12 Te2 -30.5(12) 3 . . 8 ?
Te1 Te9 Te12 Te2 -136(11) 3 . . . ?
Te1 Te9 Te12 Te3 23(6) 3 . . 2_545 ?
Te1 Te9 Te12 Te4 -70(7) 3 . . . ?
Te1 Te9 Te12 Te9 -70(7) 3 . . 8 ?
Te1 Te9 Te12 Te11 -90(12) 3 . . 8 ?
Te1 Te9 Te12 Te11 -18(7) 3 . . . ?
Te1 Te9 Te12 Te13 -79(27) 3 . . 8 ?
Te1 Te9 Te12 Te13 107(9) 3 . . . ?
Te1 Te9 Te13 Te2 -89(2) 3 . . . ?
Te1 Te9 Te13 Te3 -114(5) 3 . . 3_665 ?
Te1 Te9 Te13 Te4 -42.2(16) 3 . . . ?
Te1 Te9 Te13 Te5 34(2) 3 . . 3 ?
Te1 Te9 Te13 Te5 175(8) 3 . . . ?
Te1 Te9 Te13 Te6 109(5) 3 . . . ?
Te1 Te9 Te13 Te7 146(7) 3 . . . ?
Te1 Te9 Te13 Te8 -141(6) 3 . . . ?
Te1 Te9 Te13 Te11 -18(4) 3 . . . ?
Te1 Te9 Te13 Te12 -44(3) 3 . . . ?
Te1 Te9 Te13 Te14 101(6) 3 . . . ?
Te1 Te9 Te14 Te5 6(3) 3 . . 3 ?
Te1 Te9 Te14 Te5 -116(3) 3 . . . ?
Te1 Te9 Te14 Te6 161(5) 3 . . 12 ?
Te1 Te9 Te14 Te6 120(7) 3 . . . ?
Te1 Te9 Te14 Te7 99(13) 3 . . 12 ?
Te1 Te9 Te14 Te7 -133(8) 3 . . . ?
Te1 Te9 Te14 Te8 -114(2) 3 . . . ?
Te1 Te9 Te14 Te10 37(6) 3 . . 3 ?
Te1 Te9 Te14 Te11 -11(4) 3 . . . ?
Te1 Te9 Te14 Te13 -71(6) 3 . . . ?
Te1 Te9 Te14 Te14 159(15) 3 . . 12 ?
Te1 Te11 Te12 Te1 -141(9) 3 . . 7 ?
Te1 Te11 Te12 Te1 141(9) 7 . . 3 ?
Te1 Te11 Te12 Te2 106(11) 7 . . 8 ?
Te1 Te11 Te12 Te2 -35(3) 3 . . 8 ?
Te1 Te11 Te12 Te2 -157(7) 3 . . . ?
Te1 Te11 Te12 Te2 -16(4) 7 . . . ?
Te1 Te11 Te12 Te3 12(7) 3 . . 2_545 ?
Te1 Te11 Te12 Te3 154(14) 7 . . 2_545 ?
Te1 Te11 Te12 Te4 -89(5) 3 . . . ?
Te1 Te11 Te12 Te4 53(7) 7 . . . ?
Te1 Te11 Te12 Te9 -62(13) 7 . . . ?
Te1 Te11 Te12 Te9 77(10) 7 . . 8 ?
Te1 Te11 Te12 Te9 157(9) 3 . . . ?
Te1 Te11 Te12 Te9 -64(4) 3 . . 8 ?
Te1 Te11 Te12 Te11 -89(5) 3 . . 8 ?
Te1 Te11 Te12 Te11 53(7) 7 . . 8 ?
Te1 Te11 Te12 Te13 119(7) 3 . . . ?
Te1 Te11 Te12 Te13 -43(21) 3 . . 8 ?
Te1 Te11 Te12 Te13 99(28) 7 . . 8 ?
Te1 Te11 Te12 Te13 -100(7) 7 . . . ?
Te1 Te11 Te13 Te2 -144(7) 3 . . . ?
Te1 Te11 Te13 Te2 -26.9(17) 7 . . . ?
Te1 Te11 Te13 Te3 -123(6) 3 . . 3_665 ?
Te1 Te11 Te13 Te3 -6(5) 7 . . 3_665 ?
Te1 Te11 Te13 Te4 -98(13) 3 . . . ?
Te1 Te11 Te13 Te4 19(8) 7 . . . ?
Te1 Te11 Te13 Te5 -62(24) 7 . . . ?
Te1 Te11 Te13 Te5 -179(21) 3 . . . ?
Te1 Te11 Te13 Te5 33(5) 3 . . 3 ?
Te1 Te11 Te13 Te5 150(5) 7 . . 3 ?
Te1 Te11 Te13 Te6 -124(5) 7 . . . ?
Te1 Te11 Te13 Te6 119(6) 3 . . . ?
Te1 Te11 Te13 Te7 125(11) 3 . . . ?
Te1 Te11 Te13 Te7 -118(11) 7 . . . ?
Te1 Te11 Te13 Te8 -154(7) 3 . . . ?
Te1 Te11 Te13 Te8 -37(7) 7 . . . ?
Te1 Te11 Te13 Te9 -95(5) 7 . . . ?
Te1 Te11 Te13 Te9 147(8) 3 . . . ?
Te1 Te11 Te13 Te12 49(5) 7 . . . ?
Te1 Te11 Te13 Te12 -69(7) 3 . . . ?
Te1 Te11 Te13 Te14 96(8) 3 . . . ?
Te1 Te11 Te13 Te14 -147(7) 7 . . . ?
Te1 Te11 Te14 Te5 22(6) 7 . . . ?
Te1 Te11 Te14 Te5 139(5) 7 . . 3 ?
Te1 Te11 Te14 Te5 -118(4) 3 . . . ?
Te1 Te11 Te14 Te5 0(4) 3 . . 3 ?
Te1 Te11 Te14 Te6 121(8) 3 . . . ?
Te1 Te11 Te14 Te6 -72(9) 7 . . 12 ?
Te1 Te11 Te14 Te6 -100(9) 7 . . . ?
Te1 Te11 Te14 Te6 148(7) 3 . . 12 ?
Te1 Te11 Te14 Te7 -165(9) 7 . . 12 ?
Te1 Te11 Te14 Te7 -132(9) 3 . . . ?
Te1 Te11 Te14 Te7 55(12) 3 . . 12 ?
Te1 Te11 Te14 Te7 7(11) 7 . . . ?
Te1 Te11 Te14 Te8 0(4) 7 . . . ?
Te1 Te11 Te14 Te8 -140(5) 3 . . . ?
Te1 Te11 Te14 Te9 -61(7) 7 . . . ?
Te1 Te11 Te14 Te9 159(7) 3 . . . ?
Te1 Te11 Te14 Te10 161(4) 7 . . 3 ?
Te1 Te11 Te14 Te10 21(6) 3 . . 3 ?
Te1 Te11 Te14 Te13 -101(9) 3 . . . ?
Te1 Te11 Te14 Te13 39(8) 7 . . . ?
Te1 Te11 Te14 Te14 -92(45) 7 . . 12 ?
Te1 Te11 Te14 Te14 128(44) 3 . . 12 ?
Te1 Te12 Te13 Te2 108(13) 3 . . . ?
Te1 Te12 Te13 Te2 -25(7) 7 . . . ?
Te1 Te12 Te13 Te3 166(12) 3 . . 3_665 ?
Te1 Te12 Te13 Te3 33(8) 7 . . 3_665 ?
Te1 Te12 Te13 Te4 65(8) 3 . . . ?
Te1 Te12 Te13 Te4 -68(10) 7 . . . ?
Te1 Te12 Te13 Te5 64(20) 7 . . . ?
Te1 Te12 Te13 Te5 -147(12) 7 . . 3 ?
Te1 Te12 Te13 Te5 -14(7) 3 . . 3 ?
Te1 Te12 Te13 Te5 -163(8) 3 . . . ?
Te1 Te12 Te13 Te6 -81(11) 7 . . . ?
Te1 Te12 Te13 Te6 52(11) 3 . . . ?
Te1 Te12 Te13 Te7 -4(78) 7 . . . ?
Te1 Te12 Te13 Te7 129(64) 3 . . . ?
Te1 Te12 Te13 Te8 15(13) 7 . . . ?
Te1 Te12 Te13 Te8 148(9) 3 . . . ?
Te1 Te12 Te13 Te9 68(10) 3 . . . ?
Te1 Te12 Te13 Te9 -65(11) 7 . . . ?
Te1 Te12 Te13 Te11 -89(14) 7 . . . ?
Te1 Te12 Te13 Te11 44(7) 3 . . . ?
Te1 Te12 Te13 Te14 -110(13) 7 . . . ?
Te1 Te12 Te13 Te14 23(20) 3 . . . ?
Te2 Te1 Te5 Te3 48(11) 7 . . 3_665 ?
Te2 Te1 Te5 Te7 71(14) 7 . . . ?
Te2 Te1 Te5 Te8 66(12) 7 . . . ?
Te2 Te1 Te5 Te9 -84(12) 7 . . 2 ?
Te2 Te1 Te5 Te10 -160(9) 7 . . . ?
Te2 Te1 Te5 Te11 -76(12) 7 . . 2 ?
Te2 Te1 Te5 Te12 -30(13) 7 . . 2 ?
Te2 Te1 Te5 Te13 -48(12) 7 . . 2 ?
Te2 Te1 Te5 Te13 36(13) 7 . . . ?
Te2 Te1 Te5 Te14 -77(13) 7 . . 2 ?
Te2 Te1 Te5 Te14 53(14) 7 . . . ?
Te2 Te1 Te7 Te5 -174(5) 7 . . 11 ?
Te2 Te1 Te7 Te5 -147(8) 7 . . . ?
Te2 Te1 Te7 Te6 114(8) 7 . . 12 ?
Te2 Te1 Te7 Te6 36(9) 7 . . . ?
Te2 Te1 Te7 Te8 27(6) 7 . . . ?
Te2 Te1 Te7 Te9 18(7) 7 . . . ?
Te2 Te1 Te7 Te10 -168(5) 7 . . . ?
Te2 Te1 Te7 Te13 -21(8) 7 . . . ?
Te2 Te1 Te7 Te14 -16(15) 7 . . . ?
Te2 Te1 Te7 Te14 172(11) 7 . . 12 ?
Te2 Te1 Te8 Te1 -13(4) 7 . . 7 ?
Te2 Te1 Te8 Te2 -12(7) 7 . . . ?
Te2 Te1 Te8 Te3 -14(5) 7 . . 3_665 ?
Te2 Te1 Te8 Te5 -162(3) 7 . . . ?
Te2 Te1 Te8 Te7 -165(3) 7 . . . ?
Te2 Te1 Te8 Te8 -7(2) 7 . . 7 ?
Te2 Te1 Te8 Te9 -140(10) 7 . . . ?
Te2 Te1 Te8 Te11 -87(7) 7 . . . ?
Te2 Te1 Te8 Te12 -63(5) 7 . . . ?
Te2 Te1 Te8 Te13 -114(7) 7 . . . ?
Te2 Te1 Te8 Te14 -150(4) 7 . . . ?
Te2 Te4 Te9 Te1 154(4) . . . 3 ?
Te2 Te4 Te9 Te1 3(3) 8 . . 3 ?
Te2 Te4 Te9 Te2 -151(7) 8 . . . ?
Te2 Te4 Te9 Te5 145(3) . . . 3 ?
Te2 Te4 Te9 Te5 -6(5) 8 . . 3 ?
Te2 Te4 Te9 Te6 -160(11) . . . . ?
Te2 Te4 Te9 Te6 49(14) 8 . . . ?
Te2 Te4 Te9 Te7 -73(6) 8 . . . ?
Te2 Te4 Te9 Te7 77(5) . . . . ?
Te2 Te4 Te9 Te8 36(3) . . . . ?
Te2 Te4 Te9 Te8 -115(5) 8 . . . ?
Te2 Te4 Te9 Te11 -7(8) 8 . . . ?
Te2 Te4 Te9 Te11 144(10) . . . . ?
Te2 Te4 Te9 Te12 82(3) . . . . ?
Te2 Te4 Te9 Te12 -68(5) 8 . . . ?
Te2 Te4 Te9 Te13 85(5) . . . . ?
Te2 Te4 Te9 Te13 -66(7) 8 . . . ?
Te2 Te4 Te9 Te14 -28(9) 8 . . . ?
Te2 Te4 Te9 Te14 123(6) . . . . ?
Te2 Te4 Te11 Te1 7(4) 8 . . 3 ?
Te2 Te4 Te11 Te1 24(3) . . . 7 ?
Te2 Te4 Te11 Te1 165(4) . . . 3 ?
Te2 Te4 Te11 Te1 -134(7) 8 . . 7 ?
Te2 Te4 Te11 Te2 -158(5) 8 . . . ?
Te2 Te4 Te11 Te2 158(5) . . . 8 ?
Te2 Te4 Te11 Te5 -3(9) 8 . . 3 ?
Te2 Te4 Te11 Te5 155(7) . . . 3 ?
Te2 Te4 Te11 Te6 -52(11) . . . . ?
Te2 Te4 Te11 Te6 150(10) 8 . . . ?
Te2 Te4 Te11 Te9 -28(7) . . . . ?
Te2 Te4 Te11 Te9 174(6) 8 . . . ?
Te2 Te4 Te11 Te11 84(3) . . . 8 ?
Te2 Te4 Te11 Te11 -74(4) 8 . . 8 ?
Te2 Te4 Te11 Te12 -74(4) 8 . . . ?
Te2 Te4 Te11 Te12 84(3) . . . . ?
Te2 Te4 Te11 Te13 -106(10) 8 . . . ?
Te2 Te4 Te11 Te13 52(10) . . . . ?
Te2 Te4 Te11 Te14 -141(25) 8 . . . ?
Te2 Te4 Te11 Te14 17(27) . . . . ?
Te2 Te4 Te12 Te1 44.8(11) . . . 7 ?
Te2 Te4 Te12 Te1 -135.2(11) 8 . . 7 ?
Te2 Te4 Te12 Te1 -135.2(11) . . . 3 ?
Te2 Te4 Te12 Te1 44.8(11) 8 . . 3 ?
Te2 Te4 Te12 Te2 180.001(1) 8 . . . ?
Te2 Te4 Te12 Te2 179.999(0) . . . 8 ?
Te2 Te4 Te12 Te3 12.9(12) 8 . . 2_545 ?
Te2 Te4 Te12 Te3 -167.1(12) . . . 2_545 ?
Te2 Te4 Te12 Te9 -49.1(13) 8 . . 8 ?
Te2 Te4 Te12 Te9 130.9(13) 8 . . . ?
Te2 Te4 Te12 Te9 -49.1(13) . . . . ?
Te2 Te4 Te12 Te9 130.9(13) . . . 8 ?
Te2 Te4 Te12 Te11 -75(5) . . . . ?
Te2 Te4 Te12 Te11 -75(5) 8 . . 8 ?
Te2 Te4 Te12 Te11 105(5) . . . 8 ?
Te2 Te4 Te12 Te11 105(5) 8 . . . ?
Te2 Te4 Te12 Te13 129(4) 8 . . . ?
Te2 Te4 Te12 Te13 129(4) . . . 8 ?
Te2 Te4 Te12 Te13 -51(4) . . . . ?
Te2 Te4 Te12 Te13 -51(4) 8 . . 8 ?
Te2 Te4 Te13 Te2 -164(4) 8 . . . ?
Te2 Te4 Te13 Te3 41(3) . . . 3_665 ?
Te2 Te4 Te13 Te3 -124(3) 8 . . 3_665 ?
Te2 Te4 Te13 Te5 40(4) 8 . . 3 ?
Te2 Te4 Te13 Te5 -156(5) . . . 3 ?
Te2 Te4 Te13 Te5 26(10) . . . . ?
Te2 Te4 Te13 Te5 -139(10) 8 . . . ?
Te2 Te4 Te13 Te6 -80(4) . . . . ?
Te2 Te4 Te13 Te6 115(4) 8 . . . ?
Te2 Te4 Te13 Te7 -52(13) . . . . ?
Te2 Te4 Te13 Te7 143(13) 8 . . . ?
Te2 Te4 Te13 Te8 -152(5) 8 . . . ?
Te2 Te4 Te13 Te8 12(4) . . . . ?
Te2 Te4 Te13 Te9 131(4) 8 . . . ?
Te2 Te4 Te13 Te9 -65(4) . . . . ?
Te2 Te4 Te13 Te11 -115(12) . . . . ?
Te2 Te4 Te13 Te11 81(11) 8 . . . ?
Te2 Te4 Te13 Te12 -53(4) 8 . . . ?
Te2 Te4 Te13 Te12 112(5) . . . . ?
Te2 Te4 Te13 Te14 96(8) 8 . . . ?
Te2 Te4 Te13 Te14 -99(8) . . . . ?
Te2 Te8 Te9 Te1 -71(2) . . . 3 ?
Te2 Te8 Te9 Te4 -30(2) . . . . ?
Te2 Te8 Te9 Te5 -108(3) . . . 3 ?
Te2 Te8 Te9 Te6 159(7) . . . . ?
Te2 Te8 Te9 Te6 153(3) . . . 12 ?
Te2 Te8 Te9 Te7 -172(4) . . . . ?
Te2 Te8 Te9 Te11 -57(4) . . . . ?
Te2 Te8 Te9 Te12 -56(6) . . . . ?
Te2 Te8 Te9 Te13 -113(7) . . . . ?
Te2 Te8 Te9 Te14 -158(5) . . . . ?
Te2 Te8 Te13 Te3 -73(4) . . . 3_665 ?
Te2 Te8 Te13 Te4 -9(3) . . . . ?
Te2 Te8 Te13 Te5 180(4) . . . . ?
Te2 Te8 Te13 Te5 30(26) . . . 3 ?
Te2 Te8 Te13 Te6 77(4) . . . . ?
Te2 Te8 Te13 Te7 137(6) . . . . ?
Te2 Te8 Te13 Te9 45(4) . . . . ?
Te2 Te8 Te13 Te11 9(6) . . . . ?
Te2 Te8 Te13 Te12 -40(10) . . . . ?
Te2 Te8 Te13 Te14 102(9) . . . . ?
Te2 Te8 Te14 Te5 -54(5) . . . 3 ?
Te2 Te8 Te14 Te5 -168(4) . . . . ?
Te2 Te8 Te14 Te6 116(4) . . . 12 ?
Te2 Te8 Te14 Te6 56(7) . . . . ?
Te2 Te8 Te14 Te7 137(17) . . . 12 ?
Te2 Te8 Te14 Te7 170(8) . . . . ?
Te2 Te8 Te14 Te9 16(3) . . . . ?
Te2 Te8 Te14 Te10 -66(14) . . . 3 ?
Te2 Te8 Te14 Te11 -19(3) . . . . ?
Te2 Te8 Te14 Te13 -74(9) . . . . ?
Te2 Te8 Te14 Te14 146(3) . . . 12 ?
Te2 Te9 Te11 Te1 -6.2(16) . . . 7 ?
Te2 Te9 Te11 Te1 -178(12) . . . 3 ?
Te2 Te9 Te11 Te2 50(33) . . . 8 ?
Te2 Te9 Te11 Te4 27(7) . . . . ?
Te2 Te9 Te11 Te5 -155(4) . . . 3 ?
Te2 Te9 Te11 Te6 174(8) . . . . ?
Te2 Te9 Te11 Te11 2(3) . . . 8 ?
Te2 Te9 Te11 Te12 -48(11) . . . . ?
Te2 Te9 Te11 Te13 -90(5) . . . . ?
Te2 Te9 Te11 Te14 -136(5) . . . . ?
Te2 Te9 Te12 Te1 136(11) . . . 3 ?
Te2 Te9 Te12 Te1 -1(3) . . . 7 ?
Te2 Te9 Te12 Te2 105(11) . . . 8 ?
Te2 Te9 Te12 Te3 159(17) . . . 2_545 ?
Te2 Te9 Te12 Te4 66(5) . . . . ?
Te2 Te9 Te12 Te9 66(5) . . . 8 ?
Te2 Te9 Te12 Te11 45(4) . . . 8 ?
Te2 Te9 Te12 Te11 117(15) . . . . ?
Te2 Te9 Te12 Te13 -117(8) . . . . ?
Te2 Te9 Te12 Te13 57(20) . . . 8 ?
Te2 Te9 Te13 Te3 -25(4) . . . 3_665 ?
Te2 Te9 Te13 Te4 46.6(14) . . . . ?
Te2 Te9 Te13 Te5 -96(7) . . . . ?
Te2 Te9 Te13 Te5 123(4) . . . 3 ?
Te2 Te9 Te13 Te6 -162(6) . . . . ?
Te2 Te9 Te13 Te7 -126(6) . . . . ?
Te2 Te9 Te13 Te8 -52(5) . . . . ?
Te2 Te9 Te13 Te11 71(5) . . . . ?
Te2 Te9 Te13 Te12 45(4) . . . . ?
Te2 Te9 Te13 Te14 -170(6) . . . . ?
Te2 Te9 Te14 Te5 -31(8) . . . . ?
Te2 Te9 Te14 Te5 91(7) . . . 3 ?
Te2 Te9 Te14 Te6 -114(6) . . . 12 ?
Te2 Te9 Te14 Te6 -155(8) . . . . ?
Te2 Te9 Te14 Te7 -176(10) . . . 12 ?
Te2 Te9 Te14 Te7 -48(11) . . . . ?
Te2 Te9 Te14 Te8 -28(5) . . . . ?
Te2 Te9 Te14 Te10 123(6) . . . 3 ?
Te2 Te9 Te14 Te11 74(6) . . . . ?
Te2 Te9 Te14 Te13 14(9) . . . . ?
Te2 Te9 Te14 Te14 -116(14) . . . 12 ?
Te2 Te11 Te12 Te1 35(3) 8 . . 3 ?
Te2 Te11 Te12 Te1 16(4) . . . 7 ?
Te2 Te11 Te12 Te1 -106(11) 8 . . 7 ?
Te2 Te11 Te12 Te1 157(7) . . . 3 ?
Te2 Te11 Te12 Te2 123(8) . . . 8 ?
Te2 Te11 Te12 Te2 -123(8) 8 . . . ?
Te2 Te11 Te12 Te3 170(11) . . . 2_545 ?
Te2 Te11 Te12 Te3 47(4) 8 . . 2_545 ?
Te2 Te11 Te12 Te4 69(4) . . . . ?
Te2 Te11 Te12 Te4 -54(5) 8 . . . ?
Te2 Te11 Te12 Te9 -29(2) 8 . . 8 ?
Te2 Te11 Te12 Te9 -45(10) . . . . ?
Te2 Te11 Te12 Te9 -168(7) 8 . . . ?
Te2 Te11 Te12 Te9 93(7) . . . 8 ?
Te2 Te11 Te12 Te11 -54(5) 8 . . 8 ?
Te2 Te11 Te12 Te11 69(4) . . . 8 ?
Te2 Te11 Te12 Te13 115(25) . . . 8 ?
Te2 Te11 Te12 Te13 -8(19) 8 . . 8 ?
Te2 Te11 Te12 Te13 -84(6) . . . . ?
Te2 Te11 Te12 Te13 153(8) 8 . . . ?
Te2 Te11 Te13 Te2 -103(7) 8 . . . ?
Te2 Te11 Te13 Te3 21(5) . . . 3_665 ?
Te2 Te11 Te13 Te3 -82(8) 8 . . 3_665 ?
Te2 Te11 Te13 Te4 46(8) . . . . ?
Te2 Te11 Te13 Te4 -58(9) 8 . . . ?
Te2 Te11 Te13 Te5 74(7) 8 . . 3 ?
Te2 Te11 Te13 Te5 -35(24) . . . . ?
Te2 Te11 Te13 Te5 177(6) . . . 3 ?
Te2 Te11 Te13 Te5 -138(21) 8 . . . ?
Te2 Te11 Te13 Te6 160(7) 8 . . . ?
Te2 Te11 Te13 Te6 -97(5) . . . . ?
Te2 Te11 Te13 Te7 -91(11) . . . . ?
Te2 Te11 Te13 Te7 166(8) 8 . . . ?
Te2 Te11 Te13 Te8 -10(7) . . . . ?
Te2 Te11 Te13 Te8 -114(8) 8 . . . ?
Te2 Te11 Te13 Te9 -68(5) . . . . ?
Te2 Te11 Te13 Te9 -172(8) 8 . . . ?
Te2 Te11 Te13 Te12 75(6) . . . . ?
Te2 Te11 Te13 Te12 -28(7) 8 . . . ?
Te2 Te11 Te13 Te14 137(7) 8 . . . ?
Te2 Te11 Te13 Te14 -120(7) . . . . ?
Te2 Te11 Te14 Te5 43(5) . . . . ?
Te2 Te11 Te14 Te5 19(8) 8 . . 3 ?
Te2 Te11 Te14 Te5 -99(8) 8 . . . ?
Te2 Te11 Te14 Te5 161(5) . . . 3 ?
Te2 Te11 Te14 Te6 -51(9) . . . 12 ?
Te2 Te11 Te14 Te6 -78(8) . . . . ?
Te2 Te11 Te14 Te6 167(6) 8 . . 12 ?
Te2 Te11 Te14 Te6 140(9) 8 . . . ?
Te2 Te11 Te14 Te7 29(10) . . . . ?
Te2 Te11 Te14 Te7 -113(10) 8 . . . ?
Te2 Te11 Te14 Te7 74(14) 8 . . 12 ?
Te2 Te11 Te14 Te7 -144(10) . . . 12 ?
Te2 Te11 Te14 Te8 21(3) . . . . ?
Te2 Te11 Te14 Te8 -121(8) 8 . . . ?
Te2 Te11 Te14 Te9 178(10) 8 . . . ?
Te2 Te11 Te14 Te9 -40(5) . . . . ?
Te2 Te11 Te14 Te10 -178(5) . . . 3 ?
Te2 Te11 Te14 Te10 40(10) 8 . . 3 ?
Te2 Te11 Te14 Te13 -82(11) 8 . . . ?
Te2 Te11 Te14 Te13 60(8) . . . . ?
Te2 Te11 Te14 Te14 147(40) 8 . . 12 ?
Te2 Te11 Te14 Te14 -71(45) . . . 12 ?
Te2 Te12 Te13 Te2 98(21) 8 . . . ?
Te2 Te12 Te13 Te3 156(20) 8 . . 3_665 ?
Te2 Te12 Te13 Te3 58(3) . . . 3_665 ?
Te2 Te12 Te13 Te4 56(17) 8 . . . ?
Te2 Te12 Te13 Te4 -43(5) . . . . ?
Te2 Te12 Te13 Te5 -24(16) 8 . . 3 ?
Te2 Te12 Te13 Te5 89(15) . . . . ?
Te2 Te12 Te13 Te5 -122(7) . . . 3 ?
Te2 Te12 Te13 Te5 -172(11) 8 . . . ?
Te2 Te12 Te13 Te6 43(20) 8 . . . ?
Te2 Te12 Te13 Te6 -56(6) . . . . ?
Te2 Te12 Te13 Te7 119(59) 8 . . . ?
Te2 Te12 Te13 Te7 21(72) . . . . ?
Te2 Te12 Te13 Te8 40(7) . . . . ?
Te2 Te12 Te13 Te8 139(16) 8 . . . ?
Te2 Te12 Te13 Te9 -40(6) . . . . ?
Te2 Te12 Te13 Te9 59(18) 8 . . . ?
Te2 Te12 Te13 Te11 -64(8) . . . . ?
Te2 Te12 Te13 Te11 35(16) 8 . . . ?
Te2 Te12 Te13 Te14 14(28) 8 . . . ?
Te2 Te12 Te13 Te14 -85(13) . . . . ?
Te2 Te13 Te14 Te5 -101(6) . . . 3 ?
Te2 Te13 Te14 Te5 115(8) . . . . ?
Te2 Te13 Te14 Te6 72(11) . . . 12 ?
Te2 Te13 Te14 Te6 2(13) . . . . ?
Te2 Te13 Te14 Te7 -164(33) . . . 12 ?
Te2 Te13 Te14 Te7 106(9) . . . . ?
Te2 Te13 Te14 Te8 60(7) . . . . ?
Te2 Te13 Te14 Te9 -8(5) . . . . ?
Te2 Te13 Te14 Te10 -116(8) . . . 3 ?
Te2 Te13 Te14 Te11 -45(5) . . . . ?
Te2 Te13 Te14 Te14 120(8) . . . 12 ?
Te3 Te1 Te5 Te7 23(7) 3_665 . . . ?
Te3 Te1 Te5 Te8 18(3) 3_665 . . . ?
Te3 Te1 Te5 Te9 -131(2) 3_665 . . 2 ?
Te3 Te1 Te5 Te10 152(8) 3_665 . . . ?
Te3 Te1 Te5 Te11 -124(3) 3_665 . . 2 ?
Te3 Te1 Te5 Te12 -78(7) 3_665 . . 2 ?
Te3 Te1 Te5 Te13 -12(4) 3_665 . . . ?
Te3 Te1 Te5 Te13 -95(4) 3_665 . . 2 ?
Te3 Te1 Te5 Te14 -124(5) 3_665 . . 2 ?
Te3 Te1 Te5 Te14 5(5) 3_665 . . . ?
Te3 Te1 Te7 Te5 177(3) 3_665 . . 11 ?
Te3 Te1 Te7 Te5 -156(7) 3_665 . . . ?
Te3 Te1 Te7 Te6 105(7) 3_665 . . 12 ?
Te3 Te1 Te7 Te6 27(7) 3_665 . . . ?
Te3 Te1 Te7 Te8 17(4) 3_665 . . . ?
Te3 Te1 Te7 Te9 9(3) 3_665 . . . ?
Te3 Te1 Te7 Te10 -177(4) 3_665 . . . ?
Te3 Te1 Te7 Te13 -31(5) 3_665 . . . ?
Te3 Te1 Te7 Te14 163(13) 3_665 . . 12 ?
Te3 Te1 Te7 Te14 -25(12) 3_665 . . . ?
Te3 Te1 Te8 Te1 1(3) 3_665 . . 7 ?
Te3 Te1 Te8 Te2 2(4) 3_665 . . . ?
Te3 Te1 Te8 Te5 -148(5) 3_665 . . . ?
Te3 Te1 Te8 Te7 -151(6) 3_665 . . . ?
Te3 Te1 Te8 Te8 8(5) 3_665 . . 7 ?
Te3 Te1 Te8 Te9 -126(12) 3_665 . . . ?
Te3 Te1 Te8 Te11 -72(7) 3_665 . . . ?
Te3 Te1 Te8 Te12 -49(4) 3_665 . . . ?
Te3 Te1 Te8 Te13 -100(7) 3_665 . . . ?
Te3 Te1 Te8 Te14 -135(7) 3_665 . . . ?
Te3 Te2 Te4 Te1 56(2) 3_665 . . 7 ?
Te3 Te2 Te4 Te1 -74(4) 3_665 . . 3 ?
Te3 Te2 Te4 Te2 -18.1(19) 3_665 . . 8 ?
Te3 Te2 Te4 Te5 46(2) 3_665 . . 7 ?
Te3 Te2 Te4 Te9 -106(3) 3_665 . . . ?
Te3 Te2 Te4 Te9 51(6) 3_665 . . 8 ?
Te3 Te2 Te4 Te11 -90(5) 3_665 . . . ?
Te3 Te2 Te4 Te11 48(6) 3_665 . . 8 ?
Te3 Te2 Te4 Te12 -18.1(19) 3_665 . . . ?
Te3 Te2 Te4 Te13 16(4) 3_665 . . 8 ?
Te3 Te2 Te4 Te13 -60(4) 3_665 . . . ?
Te3 Te2 Te8 Te1 0(5) 3_665 . . 7 ?
Te3 Te2 Te8 Te1 -2(4) 3_665 . . . ?
Te3 Te2 Te8 Te5 111(12) 3_665 . . . ?
Te3 Te2 Te8 Te7 148(7) 3_665 . . . ?
Te3 Te2 Te8 Te8 -7(5) 3_665 . . 7 ?
Te3 Te2 Te8 Te9 156(5) 3_665 . . . ?
Te3 Te2 Te8 Te11 119(5) 3_665 . . . ?
Te3 Te2 Te8 Te12 70(5) 3_665 . . . ?
Te3 Te2 Te8 Te13 110(7) 3_665 . . . ?
Te3 Te2 Te8 Te14 142(6) 3_665 . . . ?
Te3 Te2 Te9 Te1 105(2) 3_665 . . 3 ?
Te3 Te2 Te9 Te4 122(4) 3_665 . . . ?
Te3 Te2 Te9 Te5 84(3) 3_665 . . 3 ?
Te3 Te2 Te9 Te6 -53(5) 3_665 . . 12 ?
Te3 Te2 Te9 Te6 -88(15) 3_665 . . . ?
Te3 Te2 Te9 Te7 -8(4) 3_665 . . . ?
Te3 Te2 Te9 Te8 -15(3) 3_665 . . . ?
Te3 Te2 Te9 Te11 105(4) 3_665 . . . ?
Te3 Te2 Te9 Te12 75(8) 3_665 . . . ?
Te3 Te2 Te9 Te13 30(5) 3_665 . . . ?
Te3 Te2 Te9 Te14 19(7) 3_665 . . . ?
Te3 Te2 Te11 Te1 76(3) 3_665 . . 7 ?
Te3 Te2 Te11 Te1 88(8) 3_665 . . 3 ?
Te3 Te2 Te11 Te2 98(3) 3_665 . . 8 ?
Te3 Te2 Te11 Te4 114(5) 3_665 . . . ?
Te3 Te2 Te11 Te5 -20(17) 3_665 . . 3 ?
Te3 Te2 Te11 Te6 -93(4) 3_665 . . . ?
Te3 Te2 Te11 Te9 -91(4) 3_665 . . . ?
Te3 Te2 Te11 Te11 91(3) 3_665 . . 8 ?
Te3 Te2 Te11 Te12 48(10) 3_665 . . . ?
Te3 Te2 Te11 Te13 -26(6) 3_665 . . . ?
Te3 Te2 Te11 Te14 -61(5) 3_665 . . . ?
Te3 Te2 Te12 Te1 71(3) 3_665 . . 7 ?
Te3 Te2 Te12 Te1 -153(8) 3_665 . . 3 ?
Te3 Te2 Te12 Te2 164.4(15) 3_665 . . 8 ?
Te3 Te2 Te12 Te3 -162(20) 3_665 . . 2_545 ?
Te3 Te2 Te12 Te4 164.4(15) 3_665 . . . ?
Te3 Te2 Te12 Te9 121(5) 3_665 . . 8 ?
Te3 Te2 Te12 Te9 -108(2) 3_665 . . . ?
Te3 Te2 Te12 Te11 115(7) 3_665 . . 8 ?
Te3 Te2 Te12 Te11 -135(7) 3_665 . . . ?
Te3 Te2 Te12 Te13 -69(7) 3_665 . . . ?
Te3 Te2 Te12 Te13 85(17) 3_665 . . 8 ?
Te3 Te2 Te13 Te4 127(3) 3_665 . . . ?
Te3 Te2 Te13 Te5 -39(5) 3_665 . . . ?
Te3 Te2 Te13 Te5 151(6) 3_665 . . 3 ?
Te3 Te2 Te13 Te6 -138(5) 3_665 . . . ?
Te3 Te2 Te13 Te7 -85(9) 3_665 . . . ?
Te3 Te2 Te13 Te8 -38(4) 3_665 . . . ?
Te3 Te2 Te13 Te9 -148(5) 3_665 . . . ?
Te3 Te2 Te13 Te11 154(6) 3_665 . . . ?
Te3 Te2 Te13 Te12 91(9) 3_665 . . . ?
Te3 Te2 Te13 Te14 -139(9) 3_665 . . . ?
Te3 Te5 Te7 Te1 17(5) 3_665 . . . ?
Te3 Te5 Te7 Te5 170(2) 3_665 . . 11 ?
Te3 Te5 Te7 Te6 23(18) 3_665 . . . ?
Te3 Te5 Te7 Te6 119(8) 3_665 . . 12 ?
Te3 Te5 Te7 Te7 -151(14) 3_665 . . 12 ?
Te3 Te5 Te7 Te8 12(3) 3_665 . . . ?
Te3 Te5 Te7 Te9 -1(6) 3_665 . . . ?
Te3 Te5 Te7 Te10 172(4) 3_665 . . . ?
Te3 Te5 Te7 Te13 -37(6) 3_665 . . . ?
Te3 Te5 Te7 Te14 172(10) 3_665 . . 12 ?
Te3 Te5 Te7 Te14 -61(20) 3_665 . . . ?
Te3 Te5 Te8 Te1 -34(5) 3_665 . . 7 ?
Te3 Te5 Te8 Te1 32(5) 3_665 . . . ?
Te3 Te5 Te8 Te2 -104(12) 3_665 . . . ?
Te3 Te5 Te8 Te7 -152(7) 3_665 . . . ?
Te3 Te5 Te8 Te8 7(4) 3_665 . . 7 ?
Te3 Te5 Te8 Te9 -140(7) 3_665 . . . ?
Te3 Te5 Te8 Te11 -110(7) 3_665 . . . ?
Te3 Te5 Te8 Te12 -73(6) 3_665 . . . ?
Te3 Te5 Te8 Te13 -103(8) 3_665 . . . ?
Te3 Te5 Te8 Te14 -137(7) 3_665 . . . ?
Te3 Te5 Te10 Te1 123(14) 3_665 . . . ?
Te3 Te5 Te10 Te1 81(14) 3_665 . . 11 ?
Te3 Te5 Te10 Te6 8(11) 3_665 . . 12 ?
Te3 Te5 Te10 Te6 -168(9) 3_665 . . 2 ?
Te3 Te5 Te10 Te7 -143(7) 3_665 . . 11 ?
Te3 Te5 Te10 Te7 -20(9) 3_665 . . . ?
Te3 Te5 Te10 Te14 -130(8) 3_665 . . 11 ?
Te3 Te5 Te10 Te14 -140(9) 3_665 . . 2 ?
Te3 Te5 Te10 Te14 -20(12) 3_665 . . 12 ?
Te3 Te5 Te10 Te14 -32(10) 3_665 . . . ?
Te3 Te5 Te13 Te2 32(4) 3_665 . . . ?
Te3 Te5 Te13 Te4 16(9) 3_665 . . . ?
Te3 Te5 Te13 Te5 -162(11) 3_665 . . 3 ?
Te3 Te5 Te13 Te6 117(6) 3_665 . . . ?
Te3 Te5 Te13 Te7 134(7) 3_665 . . . ?
Te3 Te5 Te13 Te8 32(4) 3_665 . . . ?
Te3 Te5 Te13 Te9 86(8) 3_665 . . . ?
Te3 Te5 Te13 Te11 60(23) 3_665 . . . ?
Te3 Te5 Te13 Te12 -31(12) 3_665 . . . ?
Te3 Te5 Te13 Te14 144(9) 3_665 . . . ?
Te3 Te5 Te14 Te5 -72(5) 3_665 . . 3 ?
Te3 Te5 Te14 Te6 74(9) 3_665 . . . ?
Te3 Te5 Te14 Te6 118(4) 3_665 . . 12 ?
Te3 Te5 Te14 Te7 173(8) 3_665 . . 12 ?
Te3 Te5 Te14 Te7 118(20) 3_665 . . . ?
Te3 Te5 Te14 Te8 18(3) 3_665 . . . ?
Te3 Te5 Te14 Te9 21(4) 3_665 . . . ?
Te3 Te5 Te14 Te10 -124(6) 3_665 . . 3 ?
Te3 Te5 Te14 Te11 -12(4) 3_665 . . . ?
Te3 Te5 Te14 Te13 -29(7) 3_665 . . . ?
Te3 Te5 Te14 Te14 155(3) 3_665 . . 12 ?
Te3 Te8 Te9 Te1 -44(7) 3_665 . . 3 ?
Te3 Te8 Te9 Te2 28(6) 3_665 . . . ?
Te3 Te8 Te9 Te4 -2(6) 3_665 . . . ?
Te3 Te8 Te9 Te5 -80(6) 3_665 . . 3 ?
Te3 Te8 Te9 Te6 -173(8) 3_665 . . . ?
Te3 Te8 Te9 Te6 -179(7) 3_665 . . 12 ?
Te3 Te8 Te9 Te7 -144(7) 3_665 . . . ?
Te3 Te8 Te9 Te11 -29(7) 3_665 . . . ?
Te3 Te8 Te9 Te12 -29(8) 3_665 . . . ?
Te3 Te8 Te9 Te13 -85(8) 3_665 . . . ?
Te3 Te8 Te9 Te14 -130(7) 3_665 . . . ?
Te3 Te8 Te13 Te2 73(4) 3_665 . . . ?
Te3 Te8 Te13 Te4 64(5) 3_665 . . . ?
Te3 Te8 Te13 Te5 103(26) 3_665 . . 3 ?
Te3 Te8 Te13 Te5 -108(5) 3_665 . . . ?
Te3 Te8 Te13 Te6 149(5) 3_665 . . . ?
Te3 Te8 Te13 Te7 -151(7) 3_665 . . . ?
Te3 Te8 Te13 Te9 118(5) 3_665 . . . ?
Te3 Te8 Te13 Te11 82(8) 3_665 . . . ?
Te3 Te8 Te13 Te12 33(12) 3_665 . . . ?
Te3 Te8 Te13 Te14 174(8) 3_665 . . . ?
Te3 Te8 Te14 Te5 -102(8) 3_665 . . . ?
Te3 Te8 Te14 Te5 12(10) 3_665 . . 3 ?
Te3 Te8 Te14 Te6 122(9) 3_665 . . . ?
Te3 Te8 Te14 Te6 -179(7) 3_665 . . 12 ?
Te3 Te8 Te14 Te7 -124(10) 3_665 . . . ?
Te3 Te8 Te14 Te7 -157(15) 3_665 . . 12 ?
Te3 Te8 Te14 Te9 82(8) 3_665 . . . ?
Te3 Te8 Te14 Te10 0(19) 3_665 . . 3 ?
Te3 Te8 Te14 Te11 47(8) 3_665 . . . ?
Te3 Te8 Te14 Te13 -8(12) 3_665 . . . ?
Te3 Te8 Te14 Te14 -148(6) 3_665 . . 12 ?
Te3 Te12 Te13 Te2 156(15) 2_545 . . . ?
Te3 Te12 Te13 Te3 -146(14) 2_545 . . 3_665 ?
Te3 Te12 Te13 Te4 113(11) 2_545 . . . ?
Te3 Te12 Te13 Te5 -115(8) 2_545 . . . ?
Te3 Te12 Te13 Te5 34(9) 2_545 . . 3 ?
Te3 Te12 Te13 Te6 100(13) 2_545 . . . ?
Te3 Te12 Te13 Te7 177(62) 2_545 . . . ?
Te3 Te12 Te13 Te8 -164(10) 2_545 . . . ?
Te3 Te12 Te13 Te9 116(11) 2_545 . . . ?
Te3 Te12 Te13 Te11 92(9) 2_545 . . . ?
Te3 Te12 Te13 Te14 71(21) 2_545 . . . ?
Te3 Te13 Te14 Te5 -156(13) 3_665 . . 3 ?
Te3 Te13 Te14 Te5 60(11) 3_665 . . . ?
Te3 Te13 Te14 Te6 -54(18) 3_665 . . . ?
Te3 Te13 Te14 Te6 17(19) 3_665 . . 12 ?
Te3 Te13 Te14 Te7 50(15) 3_665 . . . ?
Te3 Te13 Te14 Te7 140(31) 3_665 . . 12 ?
Te3 Te13 Te14 Te8 5(6) 3_665 . . . ?
Te3 Te13 Te14 Te9 -63(12) 3_665 . . . ?
Te3 Te13 Te14 Te10 -171(9) 3_665 . . 3 ?
Te3 Te13 Te14 Te11 -100(14) 3_665 . . . ?
Te3 Te13 Te14 Te14 65(17) 3_665 . . 12 ?
Te4 Te1 Te5 Te3 117(3) 2 . . 3_665 ?
Te4 Te1 Te5 Te7 140(6) 2 . . . ?
Te4 Te1 Te5 Te8 135(4) 2 . . . ?
Te4 Te1 Te5 Te9 -14(3) 2 . . 2 ?
Te4 Te1 Te5 Te10 -91(8) 2 . . . ?
Te4 Te1 Te5 Te11 -7(4) 2 . . 2 ?
Te4 Te1 Te5 Te12 39(6) 2 . . 2 ?
Te4 Te1 Te5 Te13 105(4) 2 . . . ?
Te4 Te1 Te5 Te13 22(5) 2 . . 2 ?
Te4 Te1 Te5 Te14 -8(6) 2 . . 2 ?
Te4 Te1 Te5 Te14 122(5) 2 . . . ?
Te4 Te1 Te7 Te5 -52(8) 2 . . . ?
Te4 Te1 Te7 Te5 -80(4) 2 . . 11 ?
Te4 Te1 Te7 Te6 131(6) 2 . . . ?
Te4 Te1 Te7 Te6 -151(6) 2 . . 12 ?
Te4 Te1 Te7 Te8 121(4) 2 . . . ?
Te4 Te1 Te7 Te9 113(4) 2 . . . ?
Te4 Te1 Te7 Te10 -73(5) 2 . . . ?
Te4 Te1 Te7 Te13 73(6) 2 . . . ?
Te4 Te1 Te7 Te14 -93(13) 2 . . 12 ?
Te4 Te1 Te7 Te14 79(13) 2 . . . ?
Te4 Te1 Te8 Te1 44(6) 2 . . 7 ?
Te4 Te1 Te8 Te2 45(9) 2 . . . ?
Te4 Te1 Te8 Te3 43(7) 2 . . 3_665 ?
Te4 Te1 Te8 Te5 -105(4) 2 . . . ?
Te4 Te1 Te8 Te7 -108(4) 2 . . . ?
Te4 Te1 Te8 Te8 51(3) 2 . . 7 ?
Te4 Te1 Te8 Te9 -83(11) 2 . . . ?
Te4 Te1 Te8 Te11 -29(9) 2 . . . ?
Te4 Te1 Te8 Te12 -6(6) 2 . . . ?
Te4 Te1 Te8 Te13 -57(8) 2 . . . ?
Te4 Te1 Te8 Te14 -93(5) 2 . . . ?
Te4 Te2 Te8 Te1 -90(4) . . . 7 ?
Te4 Te2 Te8 Te1 -92(7) . . . . ?
Te4 Te2 Te8 Te3 -90(6) . . . 3_665 ?
Te4 Te2 Te8 Te5 21(13) . . . . ?
Te4 Te2 Te8 Te7 58(6) . . . . ?
Te4 Te2 Te8 Te8 -97(4) . . . 7 ?
Te4 Te2 Te8 Te9 66(4) . . . . ?
Te4 Te2 Te8 Te11 29(5) . . . . ?
Te4 Te2 Te8 Te12 -20(4) . . . . ?
Te4 Te2 Te8 Te13 20(7) . . . . ?
Te4 Te2 Te8 Te14 52(5) . . . . ?
Te4 Te2 Te9 Te1 -18(3) . . . 3 ?
Te4 Te2 Te9 Te5 -38(4) . . . 3 ?
Te4 Te2 Te9 Te6 -175(5) . . . 12 ?
Te4 Te2 Te9 Te6 150(15) . . . . ?
Te4 Te2 Te9 Te7 -130(4) . . . . ?
Te4 Te2 Te9 Te8 -137(4) . . . . ?
Te4 Te2 Te9 Te11 -17(5) . . . . ?
Te4 Te2 Te9 Te12 -47(7) . . . . ?
Te4 Te2 Te9 Te13 -92(6) . . . . ?
Te4 Te2 Te9 Te14 -104(7) . . . . ?
Te4 Te2 Te11 Te1 -38(6) . . . 7 ?
Te4 Te2 Te11 Te1 -26(7) . . . 3 ?
Te4 Te2 Te11 Te2 -16(5) . . . 8 ?
Te4 Te2 Te11 Te5 -134(19) . . . 3 ?
Te4 Te2 Te11 Te6 153(6) . . . . ?
Te4 Te2 Te11 Te9 155(7) . . . . ?
Te4 Te2 Te11 Te11 -23(6) . . . 8 ?
Te4 Te2 Te11 Te12 -66(10) . . . . ?
Te4 Te2 Te11 Te13 -140(8) . . . . ?
Te4 Te2 Te11 Te14 -175(8) . . . . ?
Te4 Te2 Te12 Te1 -94(3) . . . 7 ?
Te4 Te2 Te12 Te1 42(7) . . . 3 ?
Te4 Te2 Te12 Te2 0.0 . . . 8 ?
Te4 Te2 Te12 Te3 34(20) . . . 2_545 ?
Te4 Te2 Te12 Te9 -44(6) . . . 8 ?
Te4 Te2 Te12 Te9 87.5(17) . . . . ?
Te4 Te2 Te12 Te11 61(7) . . . . ?
Te4 Te2 Te12 Te11 -49(7) . . . 8 ?
Te4 Te2 Te12 Te13 127(6) . . . . ?
Te4 Te2 Te12 Te13 -79(18) . . . 8 ?
Te4 Te2 Te13 Te3 -127(3) . . . 3_665 ?
Te4 Te2 Te13 Te5 24(5) . . . 3 ?
Te4 Te2 Te13 Te5 -166(6) . . . . ?
Te4 Te2 Te13 Te6 95(4) . . . . ?
Te4 Te2 Te13 Te7 148(9) . . . . ?
Te4 Te2 Te13 Te8 -165(5) . . . . ?
Te4 Te2 Te13 Te9 85(4) . . . . ?
Te4 Te2 Te13 Te11 27(6) . . . . ?
Te4 Te2 Te13 Te12 -36(8) . . . . ?
Te4 Te2 Te13 Te14 94(8) . . . . ?
Te4 Te9 Te11 Te1 154(17) . . . 3 ?
Te4 Te9 Te11 Te1 -33(7) . . . 7 ?
Te4 Te9 Te11 Te2 -27(7) . . . . ?
Te4 Te9 Te11 Te2 23(28) . . . 8 ?
Te4 Te9 Te11 Te5 178(10) . . . 3 ?
Te4 Te9 Te11 Te6 147(9) . . . . ?
Te4 Te9 Te11 Te11 -25(6) . . . 8 ?
Te4 Te9 Te11 Te12 -75(14) . . . . ?
Te4 Te9 Te11 Te13 -117(10) . . . . ?
Te4 Te9 Te11 Te14 -163(8) . . . . ?
Te4 Te9 Te12 Te1 70(7) . . . 3 ?
Te4 Te9 Te12 Te1 -67(7) . . . 7 ?
Te4 Te9 Te12 Te2 -66(5) . . . . ?
Te4 Te9 Te12 Te2 39(7) . . . 8 ?
Te4 Te9 Te12 Te3 93(12) . . . 2_545 ?
Te4 Te9 Te12 Te9 0.000(8) . . . 8 ?
Te4 Te9 Te12 Te11 51(11) . . . . ?
Te4 Te9 Te12 Te11 -21(6) . . . 8 ?
Te4 Te9 Te12 Te13 177(6) . . . . ?
Te4 Te9 Te12 Te13 -9(22) . . . 8 ?
Te4 Te9 Te13 Te2 -46.6(14) . . . . ?
Te4 Te9 Te13 Te3 -72(4) . . . 3_665 ?
Te4 Te9 Te13 Te5 76(3) . . . 3 ?
Te4 Te9 Te13 Te5 -143(7) . . . . ?
Te4 Te9 Te13 Te6 152(5) . . . . ?
Te4 Te9 Te13 Te7 -172(6) . . . . ?
Te4 Te9 Te13 Te8 -99(5) . . . . ?
Te4 Te9 Te13 Te11 25(4) . . . . ?
Te4 Te9 Te13 Te12 -2(4) . . . . ?
Te4 Te9 Te13 Te14 143(6) . . . . ?
Te4 Te9 Te14 Te5 -95(5) . . . . ?
Te4 Te9 Te14 Te5 27(7) . . . 3 ?
Te4 Te9 Te14 Te6 -178(3) . . . 12 ?
Te4 Te9 Te14 Te6 141(6) . . . . ?
Te4 Te9 Te14 Te7 -112(8) . . . . ?
Te4 Te9 Te14 Te7 120(11) . . . 12 ?
Te4 Te9 Te14 Te8 -92(5) . . . . ?
Te4 Te9 Te14 Te10 58(9) . . . 3 ?
Te4 Te9 Te14 Te11 10(5) . . . . ?
Te4 Te9 Te14 Te13 -50(8) . . . . ?
Te4 Te9 Te14 Te14 -180(12) . . . 12 ?
Te4 Te11 Te12 Te1 -53(7) . . . 7 ?
Te4 Te11 Te12 Te1 89(5) . . . 3 ?
Te4 Te11 Te12 Te2 54(5) . . . 8 ?
Te4 Te11 Te12 Te2 -69(4) . . . . ?
Te4 Te11 Te12 Te3 101(8) . . . 2_545 ?
Te4 Te11 Te12 Te9 24(6) . . . 8 ?
Te4 Te11 Te12 Te9 -114(10) . . . . ?
Te4 Te11 Te12 Te11 -0.003(5) . . . 8 ?
Te4 Te11 Te12 Te13 46(23) . . . 8 ?
Te4 Te11 Te12 Te13 -153(8) . . . . ?
Te4 Te11 Te13 Te2 -46(8) . . . . ?
Te4 Te11 Te13 Te3 -25(12) . . . 3_665 ?
Te4 Te11 Te13 Te5 131(12) . . . 3 ?
Te4 Te11 Te13 Te5 -80(27) . . . . ?
Te4 Te11 Te13 Te6 -143(12) . . . . ?
Te4 Te11 Te13 Te7 -136(12) . . . . ?
Te4 Te11 Te13 Te8 -56(13) . . . . ?
Te4 Te11 Te13 Te9 -114(11) . . . . ?
Te4 Te11 Te13 Te12 30(10) . . . . ?
Te4 Te11 Te13 Te14 -165(10) . . . . ?
Te4 Te11 Te14 Te5 27(29) . . . . ?
Te4 Te11 Te14 Te5 145(28) . . . 3 ?
Te4 Te11 Te14 Te6 -66(30) . . . 12 ?
Te4 Te11 Te14 Te6 -94(30) . . . . ?
Te4 Te11 Te14 Te7 -159(25) . . . 12 ?
Te4 Te11 Te14 Te7 13(32) . . . . ?
Te4 Te11 Te14 Te8 5(27) . . . . ?
Te4 Te11 Te14 Te9 -56(28) . . . . ?
Te4 Te11 Te14 Te10 166(26) . . . 3 ?
Te4 Te11 Te14 Te13 44(28) . . . . ?
Te4 Te11 Te14 Te14 -87(55) . . . 12 ?
Te4 Te12 Te13 Te2 43(5) . . . . ?
Te4 Te12 Te13 Te3 101(4) . . . 3_665 ?
Te4 Te12 Te13 Te5 132(11) . . . . ?
Te4 Te12 Te13 Te5 -80(3) . . . 3 ?
Te4 Te12 Te13 Te6 -13(7) . . . . ?
Te4 Te12 Te13 Te7 63(70) . . . . ?
Te4 Te12 Te13 Te8 83(6) . . . . ?
Te4 Te12 Te13 Te9 3(6) . . . . ?
Te4 Te12 Te13 Te11 -21(6) . . . . ?
Te4 Te12 Te13 Te14 -42(15) . . . . ?
Te4 Te13 Te14 Te5 154(8) . . . . ?
Te4 Te13 Te14 Te5 -62(6) . . . 3 ?
Te4 Te13 Te14 Te6 41(12) . . . . ?
Te4 Te13 Te14 Te6 111(8) . . . 12 ?
Te4 Te13 Te14 Te7 -125(34) . . . 12 ?
Te4 Te13 Te14 Te7 145(8) . . . . ?
Te4 Te13 Te14 Te8 99(9) . . . . ?
Te4 Te13 Te14 Te9 31(5) . . . . ?
Te4 Te13 Te14 Te10 -77(9) . . . 3 ?
Te4 Te13 Te14 Te11 -6(4) . . . . ?
Te4 Te13 Te14 Te14 159(6) . . . 12 ?
Te5 Te1 Te7 Te5 -27(5) . . . 11 ?
Te5 Te1 Te7 Te6 -99(10) . . . 12 ?
Te5 Te1 Te7 Te6 -177(11) . . . . ?
Te5 Te1 Te7 Te8 173(8) . . . . ?
Te5 Te1 Te7 Te9 165(8) . . . . ?
Te5 Te1 Te7 Te10 -21(6) . . . . ?
Te5 Te1 Te7 Te13 125(9) . . . . ?
Te5 Te1 Te7 Te14 -41(11) . . . 12 ?
Te5 Te1 Te7 Te14 131(15) . . . . ?
Te5 Te1 Te8 Te1 149(4) . . . 7 ?
Te5 Te1 Te8 Te2 150(7) . . . . ?
Te5 Te1 Te8 Te3 148(5) . . . 3_665 ?
Te5 Te1 Te8 Te7 -3(3) . . . . ?
Te5 Te1 Te8 Te8 156(2) . . . 7 ?
Te5 Te1 Te8 Te9 22(9) . . . . ?
Te5 Te1 Te8 Te11 76(7) . . . . ?
Te5 Te1 Te8 Te12 99(4) . . . . ?
Te5 Te1 Te8 Te13 48(6) . . . . ?
Te5 Te1 Te8 Te14 13(4) . . . . ?
Te5 Te2 Te4 Te1 -120(5) 7 . . 3 ?
Te5 Te2 Te4 Te1 9.9(16) 7 . . 7 ?
Te5 Te2 Te4 Te2 -64.4(10) 7 . . 8 ?
Te5 Te2 Te4 Te9 5(4) 7 . . 8 ?
Te5 Te2 Te4 Te9 -153(2) 7 . . . ?
Te5 Te2 Te4 Te11 -136(5) 7 . . . ?
Te5 Te2 Te4 Te11 2(5) 7 . . 8 ?
Te5 Te2 Te4 Te12 -64.4(10) 7 . . . ?
Te5 Te2 Te4 Te13 -30(3) 7 . . 8 ?
Te5 Te2 Te4 Te13 -106(4) 7 . . . ?
Te5 Te2 Te8 Te1 -8(2) 7 . . 7 ?
Te5 Te2 Te8 Te1 -9(7) 7 . . . ?
Te5 Te2 Te8 Te3 -7(5) 7 . . 3_665 ?
Te5 Te2 Te8 Te5 104(11) 7 . . . ?
Te5 Te2 Te8 Te7 140(4) 7 . . . ?
Te5 Te2 Te8 Te8 -14.6(11) 7 . . 7 ?
Te5 Te2 Te8 Te9 149(2) 7 . . . ?
Te5 Te2 Te8 Te11 112(4) 7 . . . ?
Te5 Te2 Te8 Te12 63(3) 7 . . . ?
Te5 Te2 Te8 Te13 103(6) 7 . . . ?
Te5 Te2 Te8 Te14 135(3) 7 . . . ?
Te5 Te2 Te9 Te1 41(4) 7 . . 3 ?
Te5 Te2 Te9 Te4 59(5) 7 . . . ?
Te5 Te2 Te9 Te5 21(5) 7 . . 3 ?
Te5 Te2 Te9 Te6 -116(5) 7 . . 12 ?
Te5 Te2 Te9 Te6 -151(14) 7 . . . ?
Te5 Te2 Te9 Te7 -71(5) 7 . . . ?
Te5 Te2 Te9 Te8 -78(4) 7 . . . ?
Te5 Te2 Te9 Te11 42(6) 7 . . . ?
Te5 Te2 Te9 Te12 12(9) 7 . . . ?
Te5 Te2 Te9 Te13 -33(7) 7 . . . ?
Te5 Te2 Te9 Te14 -45(9) 7 . . . ?
Te5 Te2 Te11 Te1 21(8) 7 . . 3 ?
Te5 Te2 Te11 Te1 9(2) 7 . . 7 ?
Te5 Te2 Te11 Te2 30(4) 7 . . 8 ?
Te5 Te2 Te11 Te4 47(5) 7 . . . ?
Te5 Te2 Te11 Te5 -87(16) 7 . . 3 ?
Te5 Te2 Te11 Te6 -161(3) 7 . . . ?
Te5 Te2 Te11 Te9 -158(3) 7 . . . ?
Te5 Te2 Te11 Te11 23.5(16) 7 . . 8 ?
Te5 Te2 Te11 Te12 -19(10) 7 . . . ?
Te5 Te2 Te11 Te13 -93(6) 7 . . . ?
Te5 Te2 Te11 Te14 -128(4) 7 . . . ?
Te5 Te2 Te12 Te1 142(11) 7 . . 3 ?
Te5 Te2 Te12 Te1 6(2) 7 . . 7 ?
Te5 Te2 Te12 Te2 100(4) 7 . . 8 ?
Te5 Te2 Te12 Te3 134(24) 7 . . 2_545 ?
Te5 Te2 Te12 Te4 100(4) 7 . . . ?
Te5 Te2 Te12 Te9 -173(5) 7 . . . ?
Te5 Te2 Te12 Te9 56(2) 7 . . 8 ?
Te5 Te2 Te12 Te11 160(10) 7 . . . ?
Te5 Te2 Te12 Te11 51(4) 7 . . 8 ?
Te5 Te2 Te12 Te13 -134(9) 7 . . . ?
Te5 Te2 Te12 Te13 20(14) 7 . . 8 ?
Te5 Te2 Te13 Te3 -49(3) 7 . . 3_665 ?
Te5 Te2 Te13 Te4 78(3) 7 . . . ?
Te5 Te2 Te13 Te5 -88(5) 7 . . . ?
Te5 Te2 Te13 Te5 102(5) 7 . . 3 ?
Te5 Te2 Te13 Te6 173(3) 7 . . . ?
Te5 Te2 Te13 Te7 -134(8) 7 . . . ?
Te5 Te2 Te13 Te8 -87(5) 7 . . . ?
Te5 Te2 Te13 Te9 163(3) 7 . . . ?
Te5 Te2 Te13 Te11 105(5) 7 . . . ?
Te5 Te2 Te13 Te12 42(8) 7 . . . ?
Te5 Te2 Te13 Te14 172(7) 7 . . . ?
Te5 Te4 Te9 Te1 126(4) 7 . . 3 ?
Te5 Te4 Te9 Te2 -27.9(19) 7 . . . ?
Te5 Te4 Te9 Te5 117(3) 7 . . 3 ?
Te5 Te4 Te9 Te6 172(11) 7 . . . ?
Te5 Te4 Te9 Te7 49(5) 7 . . . ?
Te5 Te4 Te9 Te8 8(3) 7 . . . ?
Te5 Te4 Te9 Te11 116(10) 7 . . . ?
Te5 Te4 Te9 Te12 55(2) 7 . . . ?
Te5 Te4 Te9 Te13 57(6) 7 . . . ?
Te5 Te4 Te9 Te14 95(6) 7 . . . ?
Te5 Te4 Te11 Te1 114(5) 7 . . 3 ?
Te5 Te4 Te11 Te1 -26(2) 7 . . 7 ?
Te5 Te4 Te11 Te2 -51(4) 7 . . . ?
Te5 Te4 Te11 Te2 107(7) 7 . . 8 ?
Te5 Te4 Te11 Te5 104(7) 7 . . 3 ?
Te5 Te4 Te11 Te6 -103(11) 7 . . . ?
Te5 Te4 Te11 Te9 -78(9) 7 . . . ?
Te5 Te4 Te11 Te11 34(6) 7 . . 8 ?
Te5 Te4 Te11 Te12 34(6) 7 . . . ?
Te5 Te4 Te11 Te13 1(14) 7 . . . ?
Te5 Te4 Te11 Te14 -33(31) 7 . . . ?
Te5 Te4 Te12 Te1 151.8(13) 7 . . 3 ?
Te5 Te4 Te12 Te1 -28.2(13) 7 . . 7 ?
Te5 Te4 Te12 Te2 107.0(15) 7 . . 8 ?
Te5 Te4 Te12 Te2 -73.0(15) 7 . . . ?
Te5 Te4 Te12 Te3 119.9(10) 7 . . 2_545 ?
Te5 Te4 Te12 Te9 57.9(13) 7 . . 8 ?
Te5 Te4 Te12 Te9 -122.1(13) 7 . . . ?
Te5 Te4 Te12 Te11 32(6) 7 . . 8 ?
Te5 Te4 Te12 Te11 -148(6) 7 . . . ?
Te5 Te4 Te12 Te13 56(4) 7 . . 8 ?
Te5 Te4 Te12 Te13 -124(4) 7 . . . ?
Te5 Te4 Te13 Te2 -65(3) 7 . . . ?
Te5 Te4 Te13 Te3 -24(3) 7 . . 3_665 ?
Te5 Te4 Te13 Te5 139(3) 7 . . 3 ?
Te5 Te4 Te13 Te5 -39(11) 7 . . . ?
Te5 Te4 Te13 Te6 -145(4) 7 . . . ?
Te5 Te4 Te13 Te7 -117(14) 7 . . . ?
Te5 Te4 Te13 Te8 -52(6) 7 . . . ?
Te5 Te4 Te13 Te9 -130(4) 7 . . . ?
Te5 Te4 Te13 Te11 -179(12) 7 . . . ?
Te5 Te4 Te13 Te12 47(3) 7 . . . ?
Te5 Te4 Te13 Te14 -164(8) 7 . . . ?
Te5 Te6 Te7 Te1 -101(6) 3 . . . ?
Te5 Te6 Te7 Te5 -104(18) 3 . . . ?
Te5 Te6 Te7 Te5 113(4) 3 . . 11 ?
Te5 Te6 Te7 Te6 144(6) 3 . . 12 ?
Te5 Te6 Te7 Te7 72(4) 3 . . 12 ?
Te5 Te6 Te7 Te8 -94(4) 3 . . . ?
Te5 Te6 Te7 Te9 -69(4) 3 . . . ?
Te5 Te6 Te7 Te10 119(9) 3 . . . ?
Te5 Te6 Te7 Te13 -42(6) 3 . . . ?
Te5 Te6 Te7 Te14 101(6) 3 . . 12 ?
Te5 Te6 Te7 Te14 13(11) 3 . . . ?
Te5 Te6 Te9 Te1 -21(3) 3 . . 3 ?
Te5 Te6 Te9 Te2 173(15) 3 . . . ?
Te5 Te6 Te9 Te4 -53(11) 3 . . . ?
Te5 Te6 Te9 Te6 121(4) 3 . . 12 ?
Te5 Te6 Te9 Te7 85(3) 3 . . . ?
Te5 Te6 Te9 Te8 109(3) 3 . . . ?
Te5 Te6 Te9 Te11 -23(7) 3 . . . ?
Te5 Te6 Te9 Te12 17(13) 3 . . . ?
Te5 Te6 Te9 Te13 58(5) 3 . . . ?
Te5 Te6 Te9 Te14 49(7) 3 . . . ?
Te5 Te6 Te11 Te1 -26(4) 3 . . 3 ?
Te5 Te6 Te11 Te1 149(5) 3 . . 7 ?
Te5 Te6 Te11 Te2 155(4) 3 . . . ?
Te5 Te6 Te11 Te2 -54(12) 3 . . 8 ?
Te5 Te6 Te11 Te4 -160(13) 3 . . . ?
Te5 Te6 Te11 Te9 149(9) 3 . . . ?
Te5 Te6 Te11 Te11 163(9) 3 . . 8 ?
Te5 Te6 Te11 Te12 88(12) 3 . . . ?
Te5 Te6 Te11 Te13 77(6) 3 . . . ?
Te5 Te6 Te11 Te14 49(8) 3 . . . ?
Te5 Te6 Te13 Te2 -111(5) 3 . . . ?
Te5 Te6 Te13 Te3 -149(8) 3 . . 3_665 ?
Te5 Te6 Te13 Te4 -75(3) 3 . . . ?
Te5 Te6 Te13 Te5 137(6) 3 . . . ?
Te5 Te6 Te13 Te7 124(7) 3 . . . ?
Te5 Te6 Te13 Te8 -166(8) 3 . . . ?
Te5 Te6 Te13 Te9 -98(6) 3 . . . ?
Te5 Te6 Te13 Te11 -61(5) 3 . . . ?
Te5 Te6 Te13 Te12 -68(6) 3 . . . ?
Te5 Te6 Te13 Te14 67(11) 3 . . . ?
Te5 Te6 Te14 Te5 -150(11) 3 . . . ?
Te5 Te6 Te14 Te6 156(6) 3 . . 12 ?
Te5 Te6 Te14 Te7 -162(14) 3 . . . ?
Te5 Te6 Te14 Te7 92(9) 3 . . 12 ?
Te5 Te6 Te14 Te8 -115(7) 3 . . . ?
Te5 Te6 Te14 Te9 -73(7) 3 . . . ?
Te5 Te6 Te14 Te10 43(4) 3 . . 3 ?
Te5 Te6 Te14 Te11 -48(5) 3 . . . ?
Te5 Te6 Te14 Te13 -84(10) 3 . . . ?
Te5 Te6 Te14 Te14 134(11) 3 . . 12 ?
Te5 Te7 Te8 Te1 3(3) . . . . ?
Te5 Te7 Te8 Te1 -174(5) 11 . . 7 ?
Te5 Te7 Te8 Te1 -35(8) 11 . . . ?
Te5 Te7 Te8 Te1 -137(6) . . . 7 ?
Te5 Te7 Te8 Te2 -161(5) . . . . ?
Te5 Te7 Te8 Te2 161(6) 11 . . . ?
Te5 Te7 Te8 Te3 -53(11) . . . 3_665 ?
Te5 Te7 Te8 Te3 -91(11) 11 . . 3_665 ?
Te5 Te7 Te8 Te5 -38(7) 11 . . . ?
Te5 Te7 Te8 Te8 -46(13) . . . 7 ?
Te5 Te7 Te8 Te8 -84(12) 11 . . 7 ?
Te5 Te7 Te8 Te9 155(8) 11 . . . ?
Te5 Te7 Te8 Te9 -168(5) . . . . ?
Te5 Te7 Te8 Te11 179(8) 11 . . . ?
Te5 Te7 Te8 Te11 -143(4) . . . . ?
Te5 Te7 Te8 Te12 -153(10) 11 . . . ?
Te5 Te7 Te8 Te12 -115(8) . . . . ?
Te5 Te7 Te8 Te13 -112(8) . . . . ?
Te5 Te7 Te8 Te13 -150(11) 11 . . . ?
Te5 Te7 Te8 Te14 -150(9) . . . . ?
Te5 Te7 Te8 Te14 172(14) 11 . . . ?
Te5 Te7 Te9 Te1 109(8) 11 . . 3 ?
Te5 Te7 Te9 Te1 -89(6) . . . 3 ?
Te5 Te7 Te9 Te2 7(7) . . . . ?
Te5 Te7 Te9 Te2 -155(7) 11 . . . ?
Te5 Te7 Te9 Te4 156(6) 11 . . . ?
Te5 Te7 Te9 Te4 -42(8) . . . . ?
Te5 Te7 Te9 Te5 -108(6) . . . 3 ?
Te5 Te7 Te9 Te5 90(8) 11 . . 3 ?
Te5 Te7 Te9 Te6 165(8) . . . . ?
Te5 Te7 Te9 Te6 3(9) 11 . . . ?
Te5 Te7 Te9 Te6 139(9) . . . 12 ?
Te5 Te7 Te9 Te6 -23(6) 11 . . 12 ?
Te5 Te7 Te9 Te8 14(5) . . . . ?
Te5 Te7 Te9 Te8 -148(9) 11 . . . ?
Te5 Te7 Te9 Te11 -71(9) . . . . ?
Te5 Te7 Te9 Te11 127(8) 11 . . . ?
Te5 Te7 Te9 Te12 153(7) 11 . . . ?
Te5 Te7 Te9 Te12 -45(6) . . . . ?
Te5 Te7 Te9 Te13 145(12) 11 . . . ?
Te5 Te7 Te9 Te13 -53(9) . . . . ?
Te5 Te7 Te9 Te14 57(11) 11 . . . ?
Te5 Te7 Te9 Te14 -141(12) . . . . ?
Te5 Te7 Te10 Te1 -157(5) . . . 11 ?
Te5 Te7 Te10 Te1 166(6) 11 . . . ?
Te5 Te7 Te10 Te1 19(3) 11 . . 11 ?
Te5 Te7 Te10 Te1 -10(3) . . . . ?
Te5 Te7 Te10 Te5 176(7) 11 . . . ?
Te5 Te7 Te10 Te5 -176(7) . . . 11 ?
Te5 Te7 Te10 Te6 42(6) . . . 2 ?
Te5 Te7 Te10 Te6 -143(6) . . . 12 ?
Te5 Te7 Te10 Te6 -143(10) 11 . . 2 ?
Te5 Te7 Te10 Te6 33(8) 11 . . 12 ?
Te5 Te7 Te10 Te7 -75(5) 11 . . 11 ?
Te5 Te7 Te10 Te7 109(4) . . . 11 ?
Te5 Te7 Te10 Te14 -180(8) . . . 12 ?
Te5 Te7 Te10 Te14 143(14) . . . . ?
Te5 Te7 Te10 Te14 -4(8) 11 . . 12 ?
Te5 Te7 Te10 Te14 -41(14) 11 . . . ?
Te5 Te7 Te10 Te14 -86(7) 11 . . 11 ?
Te5 Te7 Te10 Te14 98(5) . . . 11 ?
Te5 Te7 Te10 Te14 -126(7) 11 . . 2 ?
Te5 Te7 Te10 Te14 58(3) . . . 2 ?
Te5 Te7 Te13 Te2 177(14) 11 . . . ?
Te5 Te7 Te13 Te2 98(7) . . . . ?
Te5 Te7 Te13 Te3 123(17) 11 . . 3_665 ?
Te5 Te7 Te13 Te3 44(6) . . . 3_665 ?
Te5 Te7 Te13 Te4 130(12) . . . . ?
Te5 Te7 Te13 Te4 -152(12) 11 . . . ?
Te5 Te7 Te13 Te5 79(18) 11 . . . ?
Te5 Te7 Te13 Te5 -139(6) . . . 3 ?
Te5 Te7 Te13 Te5 -61(20) 11 . . 3 ?
Te5 Te7 Te13 Te6 161(6) . . . . ?
Te5 Te7 Te13 Te6 -120(19) 11 . . . ?
Te5 Te7 Te13 Te8 59(6) . . . . ?
Te5 Te7 Te13 Te8 138(18) 11 . . . ?
Te5 Te7 Te13 Te9 -141(17) 11 . . . ?
Te5 Te7 Te13 Te9 140(6) . . . . ?
Te5 Te7 Te13 Te11 155(11) . . . . ?
Te5 Te7 Te13 Te11 -127(16) 11 . . . ?
Te5 Te7 Te13 Te12 80(70) . . . . ?
Te5 Te7 Te13 Te12 158(61) 11 . . . ?
Te5 Te7 Te13 Te14 -166(10) . . . . ?
Te5 Te7 Te13 Te14 -87(19) 11 . . . ?
Te5 Te7 Te14 Te5 121(21) 11 . . . ?
Te5 Te7 Te14 Te5 108(13) 11 . . 3 ?
Te5 Te7 Te14 Te5 -13(30) . . . 3 ?
Te5 Te7 Te14 Te6 -98(11) 11 . . . ?
Te5 Te7 Te14 Te6 -180(20) . . . 12 ?
Te5 Te7 Te14 Te6 -59(5) 11 . . 12 ?
Te5 Te7 Te14 Te6 141(15) . . . . ?
Te5 Te7 Te14 Te7 -131(15) . . . 12 ?
Te5 Te7 Te14 Te7 -10(13) 11 . . 12 ?
Te5 Te7 Te14 Te8 64(18) . . . . ?
Te5 Te7 Te14 Te8 -175(9) 11 . . . ?
Te5 Te7 Te14 Te9 87(19) . . . . ?
Te5 Te7 Te14 Te9 -153(4) 11 . . . ?
Te5 Te7 Te14 Te10 -80(26) . . . 3 ?
Te5 Te7 Te14 Te10 41(18) 11 . . 3 ?
Te5 Te7 Te14 Te11 55(22) . . . . ?
Te5 Te7 Te14 Te11 176(4) 11 . . . ?
Te5 Te7 Te14 Te13 150(7) 11 . . . ?
Te5 Te7 Te14 Te13 29(21) . . . . ?
Te5 Te7 Te14 Te14 -19(3) 11 . . 12 ?
Te5 Te7 Te14 Te14 -140(21) . . . 12 ?
Te5 Te8 Te9 Te1 91(3) . . . 3 ?
Te5 Te8 Te9 Te2 162(4) . . . . ?
Te5 Te8 Te9 Te4 132(3) . . . . ?
Te5 Te8 Te9 Te5 54(4) . . . 3 ?
Te5 Te8 Te9 Te6 -39(7) . . . . ?
Te5 Te8 Te9 Te6 -45(4) . . . 12 ?
Te5 Te8 Te9 Te7 -10(3) . . . . ?
Te5 Te8 Te9 Te11 105(5) . . . . ?
Te5 Te8 Te9 Te12 106(6) . . . . ?
Te5 Te8 Te9 Te13 50(7) . . . . ?
Te5 Te8 Te9 Te14 4(5) . . . . ?
Te5 Te8 Te13 Te2 -180(4) . . . . ?
Te5 Te8 Te13 Te3 108(5) . . . 3_665 ?
Te5 Te8 Te13 Te4 172(4) . . . . ?
Te5 Te8 Te13 Te5 -150(27) . . . 3 ?
Te5 Te8 Te13 Te6 -103(5) . . . . ?
Te5 Te8 Te13 Te7 -43(5) . . . . ?
Te5 Te8 Te13 Te9 -134(5) . . . . ?
Te5 Te8 Te13 Te11 -170(8) . . . . ?
Te5 Te8 Te13 Te12 141(11) . . . . ?
Te5 Te8 Te13 Te14 -78(9) . . . . ?
Te5 Te8 Te14 Te5 114(5) . . . 3 ?
Te5 Te8 Te14 Te6 -136(7) . . . . ?
Te5 Te8 Te14 Te6 -77(4) . . . 12 ?
Te5 Te8 Te14 Te7 -55(17) . . . 12 ?
Te5 Te8 Te14 Te7 -22(7) . . . . ?
Te5 Te8 Te14 Te9 -176(5) . . . . ?
Te5 Te8 Te14 Te10 102(14) . . . 3 ?
Te5 Te8 Te14 Te11 149(4) . . . . ?
Te5 Te8 Te14 Te13 94(10) . . . . ?
Te5 Te8 Te14 Te14 -46(4) . . . 12 ?
Te5 Te9 Te11 Te1 148(5) 3 . . 7 ?
Te5 Te9 Te11 Te1 -24(9) 3 . . 3 ?
Te5 Te9 Te11 Te2 155(4) 3 . . . ?
Te5 Te9 Te11 Te2 -155(36) 3 . . 8 ?
Te5 Te9 Te11 Te4 -178(10) 3 . . . ?
Te5 Te9 Te11 Te6 -31(9) 3 . . . ?
Te5 Te9 Te11 Te11 156(6) 3 . . 8 ?
Te5 Te9 Te11 Te12 106(11) 3 . . . ?
Te5 Te9 Te11 Te13 65(6) 3 . . . ?
Te5 Te9 Te11 Te14 19(7) 3 . . . ?
Te5 Te9 Te12 Te1 -172(10) 3 . . 7 ?
Te5 Te9 Te12 Te1 -36(3) 3 . . 3 ?
Te5 Te9 Te12 Te2 -171(8) 3 . . . ?
Te5 Te9 Te12 Te2 -66(4) 3 . . 8 ?
Te5 Te9 Te12 Te3 -12(9) 3 . . 2_545 ?
Te5 Te9 Te12 Te4 -105(3) 3 . . . ?
Te5 Te9 Te12 Te9 -105(3) 3 . . 8 ?
Te5 Te9 Te12 Te11 -54(9) 3 . . . ?
Te5 Te9 Te12 Te11 -126(9) 3 . . 8 ?
Te5 Te9 Te12 Te13 72(7) 3 . . . ?
Te5 Te9 Te12 Te13 -114(24) 3 . . 8 ?
Te5 Te9 Te13 Te2 -123(4) 3 . . . ?
Te5 Te9 Te13 Te3 -148(6) 3 . . 3_665 ?
Te5 Te9 Te13 Te4 -76(3) 3 . . . ?
Te5 Te9 Te13 Te5 141(9) 3 . . . ?
Te5 Te9 Te13 Te6 75(6) 3 . . . ?
Te5 Te9 Te13 Te7 112(7) 3 . . . ?
Te5 Te9 Te13 Te8 -175(7) 3 . . . ?
Te5 Te9 Te13 Te11 -52(5) 3 . . . ?
Te5 Te9 Te13 Te12 -78(4) 3 . . . ?
Te5 Te9 Te13 Te14 67(6) 3 . . . ?
Te5 Te9 Te14 Te5 -122(5) 3 . . . ?
Te5 Te9 Te14 Te6 114(8) 3 . . . ?
Te5 Te9 Te14 Te6 155(7) 3 . . 12 ?
Te5 Te9 Te14 Te7 -139(10) 3 . . . ?
Te5 Te9 Te14 Te7 93(14) 3 . . 12 ?
Te5 Te9 Te14 Te8 -119(4) 3 . . . ?
Te5 Te9 Te14 Te10 31(4) 3 . . 3 ?
Te5 Te9 Te14 Te11 -17(6) 3 . . . ?
Te5 Te9 Te14 Te13 -77(7) 3 . . . ?
Te5 Te9 Te14 Te14 153(18) 3 . . 12 ?
Te5 Te11 Te12 Te1 172(7) 3 . . 7 ?
Te5 Te11 Te12 Te1 -47(4) 3 . . 3 ?
Te5 Te11 Te12 Te2 -82(7) 3 . . 8 ?
Te5 Te11 Te12 Te2 156(6) 3 . . . ?
Te5 Te11 Te12 Te3 -34(9) 3 . . 2_545 ?
Te5 Te11 Te12 Te4 -135(7) 3 . . . ?
Te5 Te11 Te12 Te9 110(10) 3 . . . ?
Te5 Te11 Te12 Te9 -111(6) 3 . . 8 ?
Te5 Te11 Te12 Te11 -135(7) 3 . . 8 ?
Te5 Te11 Te12 Te13 72(6) 3 . . . ?
Te5 Te11 Te12 Te13 -90(23) 3 . . 8 ?
Te5 Te11 Te13 Te2 -177(6) 3 . . . ?
Te5 Te11 Te13 Te3 -156(6) 3 . . 3_665 ?
Te5 Te11 Te13 Te4 -131(12) 3 . . . ?
Te5 Te11 Te13 Te5 148(25) 3 . . . ?
Te5 Te11 Te13 Te6 86(4) 3 . . . ?
Te5 Te11 Te13 Te7 92(12) 3 . . . ?
Te5 Te11 Te13 Te8 173(8) 3 . . . ?
Te5 Te11 Te13 Te9 114(6) 3 . . . ?
Te5 Te11 Te13 Te12 -102(6) 3 . . . ?
Te5 Te11 Te13 Te14 63(7) 3 . . . ?
Te5 Te11 Te14 Te5 -118(5) 3 . . . ?
Te5 Te11 Te14 Te6 149(10) 3 . . 12 ?
Te5 Te11 Te14 Te6 121(8) 3 . . . ?
Te5 Te11 Te14 Te7 -132(10) 3 . . . ?
Te5 Te11 Te14 Te7 56(10) 3 . . 12 ?
Te5 Te11 Te14 Te8 -140(4) 3 . . . ?
Te5 Te11 Te14 Te9 159(7) 3 . . . ?
Te5 Te11 Te14 Te10 21(3) 3 . . 3 ?
Te5 Te11 Te14 Te13 -100(9) 3 . . . ?
Te5 Te11 Te14 Te14 128(47) 3 . . 12 ?
Te5 Te13 Te14 Te5 144(5) . . . 3 ?
Te5 Te13 Te14 Te5 -144(5) 3 . . . ?
Te5 Te13 Te14 Te6 103(11) 3 . . . ?
Te5 Te13 Te14 Te6 -114(10) . . . . ?
Te5 Te13 Te14 Te6 -43(10) . . . 12 ?
Te5 Te13 Te14 Te6 173(10) 3 . . 12 ?
Te5 Te13 Te14 Te7 -10(7) . . . . ?
Te5 Te13 Te14 Te7 -153(8) 3 . . . ?
Te5 Te13 Te14 Te7 -63(34) 3 . . 12 ?
Te5 Te13 Te14 Te7 80(35) . . . 12 ?
Te5 Te13 Te14 Te8 -55(6) . . . . ?
Te5 Te13 Te14 Te8 161(8) 3 . . . ?
Te5 Te13 Te14 Te9 93(5) 3 . . . ?
Te5 Te13 Te14 Te9 -123(6) . . . . ?
Te5 Te13 Te14 Te10 129(6) . . . 3 ?
Te5 Te13 Te14 Te10 -15(6) 3 . . 3 ?
Te5 Te13 Te14 Te11 -160(8) . . . . ?
Te5 Te13 Te14 Te11 56(6) 3 . . . ?
Te5 Te13 Te14 Te14 5(11) . . . 12 ?
Te5 Te13 Te14 Te14 -139(9) 3 . . 12 ?
Te6 Te2 Te4 Te1 37(5) . . . 3 ?
Te6 Te2 Te4 Te1 167(3) . . . 7 ?
Te6 Te2 Te4 Te2 93(2) . . . 8 ?
Te6 Te2 Te4 Te5 157(3) . . . 7 ?
Te6 Te2 Te4 Te9 162(5) . . . 8 ?
Te6 Te2 Te4 Te9 4(3) . . . . ?
Te6 Te2 Te4 Te11 21(5) . . . . ?
Te6 Te2 Te4 Te11 159(6) . . . 8 ?
Te6 Te2 Te4 Te12 93(2) . . . . ?
Te6 Te2 Te4 Te13 51(4) . . . . ?
Te6 Te2 Te4 Te13 127(4) . . . 8 ?
Te6 Te2 Te8 Te1 -167(7) . . . . ?
Te6 Te2 Te8 Te1 -166(3) . . . 7 ?
Te6 Te2 Te8 Te3 -165(5) . . . 3_665 ?
Te6 Te2 Te8 Te5 -54(11) . . . . ?
Te6 Te2 Te8 Te7 -17(4) . . . . ?
Te6 Te2 Te8 Te8 -172(2) . . . 7 ?
Te6 Te2 Te8 Te9 -9(3) . . . . ?
Te6 Te2 Te8 Te11 -46(4) . . . . ?
Te6 Te2 Te8 Te12 -95(4) . . . . ?
Te6 Te2 Te8 Te13 -55(6) . . . . ?
Te6 Te2 Te8 Te14 -23(3) . . . . ?
Te6 Te2 Te9 Te1 -168(15) . . . 3 ?
Te6 Te2 Te9 Te4 -150(15) . . . . ?
Te6 Te2 Te9 Te5 172(16) . . . 3 ?
Te6 Te2 Te9 Te6 34(13) . . . 12 ?
Te6 Te2 Te9 Te7 80(15) . . . . ?
Te6 Te2 Te9 Te8 73(15) . . . . ?
Te6 Te2 Te9 Te11 -167(17) . . . . ?
Te6 Te2 Te9 Te12 163(17) . . . . ?
Te6 Te2 Te9 Te13 118(16) . . . . ?
Te6 Te2 Te9 Te14 106(16) . . . . ?
Te6 Te2 Te11 Te1 169(4) . . . 7 ?
Te6 Te2 Te11 Te1 -179(9) . . . 3 ?
Te6 Te2 Te11 Te2 -169(5) . . . 8 ?
Te6 Te2 Te11 Te4 -153(6) . . . . ?
Te6 Te2 Te11 Te5 74(16) . . . 3 ?
Te6 Te2 Te11 Te9 2(3) . . . . ?
Te6 Te2 Te11 Te11 -176(3) . . . 8 ?
Te6 Te2 Te11 Te12 142(10) . . . . ?
Te6 Te2 Te11 Te13 67(6) . . . . ?
Te6 Te2 Te11 Te14 32(4) . . . . ?
Te6 Te2 Te12 Te1 176(3) . . . 7 ?
Te6 Te2 Te12 Te1 -48(8) . . . 3 ?
Te6 Te2 Te12 Te2 -90(2) . . . 8 ?
Te6 Te2 Te12 Te3 -56(21) . . . 2_545 ?
Te6 Te2 Te12 Te4 -90(2) . . . . ?
Te6 Te2 Te12 Te9 -3(3) . . . . ?
Te6 Te2 Te12 Te9 -134(5) . . . 8 ?
Te6 Te2 Te12 Te11 -139(7) . . . 8 ?
Te6 Te2 Te12 Te11 -29(8) . . . . ?
Te6 Te2 Te12 Te13 -169(17) . . . 8 ?
Te6 Te2 Te12 Te13 36(7) . . . . ?
Te6 Te2 Te13 Te3 138(5) . . . 3_665 ?
Te6 Te2 Te13 Te4 -95(4) . . . . ?
Te6 Te2 Te13 Te5 99(6) . . . . ?
Te6 Te2 Te13 Te5 -71(5) . . . 3 ?
Te6 Te2 Te13 Te7 53(8) . . . . ?
Te6 Te2 Te13 Te8 100(6) . . . . ?
Te6 Te2 Te13 Te9 -10(3) . . . . ?
Te6 Te2 Te13 Te11 -68(6) . . . . ?
Te6 Te2 Te13 Te12 -131(9) . . . . ?
Te6 Te2 Te13 Te14 -1(7) . . . . ?
Te6 Te6 Te7 Te1 116(9) 12 . . . ?
Te6 Te6 Te7 Te5 113(20) 12 . . . ?
Te6 Te6 Te7 Te5 -31(5) 12 . . 11 ?
Te6 Te6 Te7 Te7 -71(7) 12 . . 12 ?
Te6 Te6 Te7 Te8 123(6) 12 . . . ?
Te6 Te6 Te7 Te9 147(7) 12 . . . ?
Te6 Te6 Te7 Te10 -25(9) 12 . . . ?
Te6 Te6 Te7 Te13 175(8) 12 . . . ?
Te6 Te6 Te7 Te14 -42(6) 12 . . 12 ?
Te6 Te6 Te7 Te14 -130(14) 12 . . . ?
Te6 Te6 Te9 Te1 -142(3) 12 . . 3 ?
Te6 Te6 Te9 Te2 52(17) 12 . . . ?
Te6 Te6 Te9 Te4 -174(7) 12 . . . ?
Te6 Te6 Te9 Te5 -121(4) 12 . . 3 ?
Te6 Te6 Te9 Te7 -36(4) 12 . . . ?
Te6 Te6 Te9 Te8 -11(7) 12 . . . ?
Te6 Te6 Te9 Te11 -144(6) 12 . . . ?
Te6 Te6 Te9 Te12 -103(14) 12 . . . ?
Te6 Te6 Te9 Te13 -63(7) 12 . . . ?
Te6 Te6 Te9 Te14 -72(7) 12 . . . ?
Te6 Te6 Te11 Te1 54(10) 12 . . 7 ?
Te6 Te6 Te11 Te1 -121(10) 12 . . 3 ?
Te6 Te6 Te11 Te2 60(10) 12 . . . ?
Te6 Te6 Te11 Te2 -148(11) 12 . . 8 ?
Te6 Te6 Te11 Te4 105(11) 12 . . . ?
Te6 Te6 Te11 Te5 -94(10) 12 . . 3 ?
Te6 Te6 Te11 Te9 55(12) 12 . . . ?
Te6 Te6 Te11 Te11 69(11) 12 . . 8 ?
Te6 Te6 Te11 Te12 -6(19) 12 . . . ?
Te6 Te6 Te11 Te13 -17(11) 12 . . . ?
Te6 Te6 Te11 Te14 -45(8) 12 . . . ?
Te6 Te6 Te13 Te2 120(6) 12 . . . ?
Te6 Te6 Te13 Te3 83(8) 12 . . 3_665 ?
Te6 Te6 Te13 Te4 157(6) 12 . . . ?
Te6 Te6 Te13 Te5 -129(6) 12 . . 3 ?
Te6 Te6 Te13 Te5 8(7) 12 . . . ?
Te6 Te6 Te13 Te7 -5(7) 12 . . . ?
Te6 Te6 Te13 Te8 65(8) 12 . . . ?
Te6 Te6 Te13 Te9 134(9) 12 . . . ?
Te6 Te6 Te13 Te11 170(8) 12 . . . ?
Te6 Te6 Te13 Te12 164(7) 12 . . . ?
Te6 Te6 Te13 Te14 -62(11) 12 . . . ?
Te6 Te6 Te14 Te5 54(10) 12 . . . ?
Te6 Te6 Te14 Te5 -156(6) 12 . . 3 ?
Te6 Te6 Te14 Te7 41(12) 12 . . . ?
Te6 Te6 Te14 Te7 -65(9) 12 . . 12 ?
Te6 Te6 Te14 Te8 89(7) 12 . . . ?
Te6 Te6 Te14 Te9 131(8) 12 . . . ?
Te6 Te6 Te14 Te10 -114(7) 12 . . 3 ?
Te6 Te6 Te14 Te11 156(7) 12 . . . ?
Te6 Te6 Te14 Te13 120(10) 12 . . . ?
Te6 Te6 Te14 Te14 -22(9) 12 . . 12 ?
Te6 Te7 Te8 Te1 47(7) . . . 7 ?
Te6 Te7 Te8 Te1 -173(4) . . . . ?
Te6 Te7 Te8 Te1 -123(7) 12 . . . ?
Te6 Te7 Te8 Te1 97(7) 12 . . 7 ?
Te6 Te7 Te8 Te2 23(5) . . . . ?
Te6 Te7 Te8 Te2 73(7) 12 . . . ?
Te6 Te7 Te8 Te3 131(10) . . . 3_665 ?
Te6 Te7 Te8 Te3 -179(8) 12 . . 3_665 ?
Te6 Te7 Te8 Te5 -126(8) 12 . . . ?
Te6 Te7 Te8 Te5 -176(6) . . . . ?
Te6 Te7 Te8 Te8 138(11) . . . 7 ?
Te6 Te7 Te8 Te8 -172(8) 12 . . 7 ?
Te6 Te7 Te8 Te9 66(6) 12 . . . ?
Te6 Te7 Te8 Te9 16(4) . . . . ?
Te6 Te7 Te8 Te11 41(4) . . . . ?
Te6 Te7 Te8 Te11 91(7) 12 . . . ?
Te6 Te7 Te8 Te12 119(9) 12 . . . ?
Te6 Te7 Te8 Te12 69(8) . . . . ?
Te6 Te7 Te8 Te13 72(7) . . . . ?
Te6 Te7 Te8 Te13 121(10) 12 . . . ?
Te6 Te7 Te8 Te14 84(10) 12 . . . ?
Te6 Te7 Te8 Te14 34(7) . . . . ?
Te6 Te7 Te9 Te1 132(4) 12 . . 3 ?
Te6 Te7 Te9 Te1 106(5) . . . 3 ?
Te6 Te7 Te9 Te2 -133(4) 12 . . . ?
Te6 Te7 Te9 Te2 -159(6) . . . . ?
Te6 Te7 Te9 Te4 152(6) . . . . ?
Te6 Te7 Te9 Te4 178(4) 12 . . . ?
Te6 Te7 Te9 Te5 87(5) . . . 3 ?
Te6 Te7 Te9 Te5 113(4) 12 . . 3 ?
Te6 Te7 Te9 Te6 -26(6) . . . 12 ?
Te6 Te7 Te9 Te6 26(6) 12 . . . ?
Te6 Te7 Te9 Te8 -125(5) 12 . . . ?
Te6 Te7 Te9 Te8 -151(6) . . . . ?
Te6 Te7 Te9 Te11 123(8) . . . . ?
Te6 Te7 Te9 Te11 149(6) 12 . . . ?
Te6 Te7 Te9 Te12 175(4) 12 . . . ?
Te6 Te7 Te9 Te12 149(6) . . . . ?
Te6 Te7 Te9 Te13 142(9) . . . . ?
Te6 Te7 Te9 Te13 168(9) 12 . . . ?
Te6 Te7 Te9 Te14 54(9) . . . . ?
Te6 Te7 Te9 Te14 80(9) 12 . . . ?
Te6 Te7 Te10 Te1 133(5) 12 . . . ?
Te6 Te7 Te10 Te1 6(12) . . . 11 ?
Te6 Te7 Te10 Te1 -13(7) 12 . . 11 ?
Te6 Te7 Te10 Te1 153(9) . . . . ?
Te6 Te7 Te10 Te5 163(11) . . . . ?
Te6 Te7 Te10 Te5 -13(13) . . . 11 ?
Te6 Te7 Te10 Te5 143(6) 12 . . . ?
Te6 Te7 Te10 Te5 -33(8) 12 . . 11 ?
Te6 Te7 Te10 Te6 20(7) . . . 12 ?
Te6 Te7 Te10 Te6 -155(7) . . . 2 ?
Te6 Te7 Te10 Te6 -175(5) 12 . . 2 ?
Te6 Te7 Te10 Te7 -107(5) 12 . . 11 ?
Te6 Te7 Te10 Te7 -88(9) . . . 11 ?
Te6 Te7 Te10 Te14 -159(6) 12 . . 2 ?
Te6 Te7 Te10 Te14 -54(13) . . . . ?
Te6 Te7 Te10 Te14 -119(5) 12 . . 11 ?
Te6 Te7 Te10 Te14 -37(4) 12 . . 12 ?
Te6 Te7 Te10 Te14 -74(13) 12 . . . ?
Te6 Te7 Te10 Te14 -99(9) . . . 11 ?
Te6 Te7 Te10 Te14 -17(7) . . . 12 ?
Te6 Te7 Te10 Te14 -139(10) . . . 2 ?
Te6 Te7 Te13 Te2 -58(13) 12 . . . ?
Te6 Te7 Te13 Te2 -63(7) . . . . ?
Te6 Te7 Te13 Te3 -112(9) 12 . . 3_665 ?
Te6 Te7 Te13 Te3 -117(6) . . . 3_665 ?
Te6 Te7 Te13 Te4 -32(13) . . . . ?
Te6 Te7 Te13 Te4 -27(19) 12 . . . ?
Te6 Te7 Te13 Te5 -161(6) . . . . ?
Te6 Te7 Te13 Te5 59(6) . . . 3 ?
Te6 Te7 Te13 Te5 65(10) 12 . . 3 ?
Te6 Te7 Te13 Te5 -156(11) 12 . . . ?
Te6 Te7 Te13 Te6 5(8) 12 . . . ?
Te6 Te7 Te13 Te8 -97(9) 12 . . . ?
Te6 Te7 Te13 Te8 -102(6) . . . . ?
Te6 Te7 Te13 Te9 -16(11) 12 . . . ?
Te6 Te7 Te13 Te9 -21(5) . . . . ?
Te6 Te7 Te13 Te11 -1(17) 12 . . . ?
Te6 Te7 Te13 Te11 -7(11) . . . . ?
Te6 Te7 Te13 Te12 -76(73) 12 . . . ?
Te6 Te7 Te13 Te12 -82(70) . . . . ?
Te6 Te7 Te13 Te14 33(7) . . . . ?
Te6 Te7 Te13 Te14 38(10) 12 . . . ?
Te6 Te7 Te14 Te5 167(12) 12 . . 3 ?
Te6 Te7 Te14 Te5 180(20) 12 . . . ?
Te6 Te7 Te14 Te5 -141(15) . . . . ?
Te6 Te7 Te14 Te5 -154(21) . . . 3 ?
Te6 Te7 Te14 Te6 -39(11) 12 . . . ?
Te6 Te7 Te14 Te6 39(11) . . . 12 ?
Te6 Te7 Te14 Te7 88(12) . . . 12 ?
Te6 Te7 Te14 Te7 49(10) 12 . . 12 ?
Te6 Te7 Te14 Te8 -77(11) . . . . ?
Te6 Te7 Te14 Te8 -116(6) 12 . . . ?
Te6 Te7 Te14 Te9 -55(8) . . . . ?
Te6 Te7 Te14 Te9 -94(6) 12 . . . ?
Te6 Te7 Te14 Te10 100(14) 12 . . 3 ?
Te6 Te7 Te14 Te10 139(21) . . . 3 ?
Te6 Te7 Te14 Te11 -125(6) 12 . . . ?
Te6 Te7 Te14 Te11 -86(11) . . . . ?
Te6 Te7 Te14 Te13 -151(7) 12 . . . ?
Te6 Te7 Te14 Te13 -112(12) . . . . ?
Te6 Te7 Te14 Te14 40(3) 12 . . 12 ?
Te6 Te7 Te14 Te14 79(10) . . . 12 ?
Te6 Te9 Te11 Te1 -30(18) 12 . . 3 ?
Te6 Te9 Te11 Te1 7(16) . . . 3 ?
Te6 Te9 Te11 Te1 142(7) 12 . . 7 ?
Te6 Te9 Te11 Te1 179(7) . . . 7 ?
Te6 Te9 Te11 Te2 -161(27) 12 . . 8 ?
Te6 Te9 Te11 Te2 148(8) 12 . . . ?
Te6 Te9 Te11 Te2 -174(8) . . . . ?
Te6 Te9 Te11 Te2 -124(33) . . . 8 ?
Te6 Te9 Te11 Te4 -147(9) . . . . ?
Te6 Te9 Te11 Te4 175(6) 12 . . . ?
Te6 Te9 Te11 Te5 -6(11) 12 . . 3 ?
Te6 Te9 Te11 Te5 31(9) . . . 3 ?
Te6 Te9 Te11 Te6 -37(8) 12 . . . ?
Te6 Te9 Te11 Te11 150(6) 12 . . 8 ?
Te6 Te9 Te11 Te11 -173(6) . . . 8 ?
Te6 Te9 Te11 Te12 137(13) . . . . ?
Te6 Te9 Te11 Te12 100(15) 12 . . . ?
Te6 Te9 Te11 Te13 96(9) . . . . ?
Te6 Te9 Te11 Te13 58(10) 12 . . . ?
Te6 Te9 Te11 Te14 12(8) 12 . . . ?
Te6 Te9 Te11 Te14 50(7) . . . . ?
Te6 Te9 Te12 Te1 169(9) . . . 7 ?
Te6 Te9 Te12 Te1 -55(18) . . . 3 ?
Te6 Te9 Te12 Te1 -109(8) 12 . . 3 ?
Te6 Te9 Te12 Te1 115(8) 12 . . 7 ?
Te6 Te9 Te12 Te2 116(6) 12 . . . ?
Te6 Te9 Te12 Te2 -139(8) 12 . . 8 ?
Te6 Te9 Te12 Te2 169(10) . . . . ?
Te6 Te9 Te12 Te2 -85(18) . . . 8 ?
Te6 Te9 Te12 Te3 -32(23) . . . 2_545 ?
Te6 Te9 Te12 Te3 -86(13) 12 . . 2_545 ?
Te6 Te9 Te12 Te4 -179(4) 12 . . . ?
Te6 Te9 Te12 Te4 -125(13) . . . . ?
Te6 Te9 Te12 Te9 -179(4) 12 . . 8 ?
Te6 Te9 Te12 Te9 -125(13) . . . 8 ?
Te6 Te9 Te12 Te11 -145(11) . . . 8 ?
Te6 Te9 Te12 Te11 -127(12) 12 . . . ?
Te6 Te9 Te12 Te11 -73(20) . . . . ?
Te6 Te9 Te12 Te11 161(7) 12 . . 8 ?
Te6 Te9 Te12 Te13 -134(19) . . . 8 ?
Te6 Te9 Te12 Te13 -1(7) 12 . . . ?
Te6 Te9 Te12 Te13 52(13) . . . . ?
Te6 Te9 Te12 Te13 172(22) 12 . . 8 ?
Te6 Te9 Te13 Te2 162(6) . . . . ?
Te6 Te9 Te13 Te2 134(3) 12 . . . ?
Te6 Te9 Te13 Te3 109(5) 12 . . 3_665 ?
Te6 Te9 Te13 Te3 137(6) . . . 3_665 ?
Te6 Te9 Te13 Te4 -179(2) 12 . . . ?
Te6 Te9 Te13 Te4 -152(5) . . . . ?
Te6 Te9 Te13 Te5 -103(4) 12 . . 3 ?
Te6 Te9 Te13 Te5 66(9) . . . . ?
Te6 Te9 Te13 Te5 -75(6) . . . 3 ?
Te6 Te9 Te13 Te5 38(7) 12 . . . ?
Te6 Te9 Te13 Te6 -28(6) 12 . . . ?
Te6 Te9 Te13 Te7 36(8) . . . . ?
Te6 Te9 Te13 Te7 8(6) 12 . . . ?
Te6 Te9 Te13 Te8 109(7) . . . . ?
Te6 Te9 Te13 Te8 82(5) 12 . . . ?
Te6 Te9 Te13 Te11 -127(7) . . . . ?
Te6 Te9 Te13 Te11 -155(6) 12 . . . ?
Te6 Te9 Te13 Te12 179(4) 12 . . . ?
Te6 Te9 Te13 Te12 -153(5) . . . . ?
Te6 Te9 Te13 Te14 -9(8) . . . . ?
Te6 Te9 Te13 Te14 -36(6) 12 . . . ?
Te6 Te9 Te14 Te5 -155(7) 12 . . 3 ?
Te6 Te9 Te14 Te5 -114(8) . . . 3 ?
Te6 Te9 Te14 Te5 83(5) 12 . . . ?
Te6 Te9 Te14 Te5 124(8) . . . . ?
Te6 Te9 Te14 Te6 41(8) . . . 12 ?
Te6 Te9 Te14 Te6 -41(8) 12 . . . ?
Te6 Te9 Te14 Te7 -21(11) . . . 12 ?
Te6 Te9 Te14 Te7 -62(11) 12 . . 12 ?
Te6 Te9 Te14 Te7 66(7) 12 . . . ?
Te6 Te9 Te14 Te7 107(11) . . . . ?
Te6 Te9 Te14 Te8 127(7) . . . . ?
Te6 Te9 Te14 Te8 86(5) 12 . . . ?
Te6 Te9 Te14 Te10 -82(9) . . . 3 ?
Te6 Te9 Te14 Te10 -123(9) 12 . . 3 ?
Te6 Te9 Te14 Te11 -172(5) 12 . . . ?
Te6 Te9 Te14 Te11 -131(8) . . . . ?
Te6 Te9 Te14 Te13 128(8) 12 . . . ?
Te6 Te9 Te14 Te13 169(10) . . . . ?
Te6 Te9 Te14 Te14 39(13) . . . 12 ?
Te6 Te9 Te14 Te14 -2(12) 12 . . 12 ?
Te6 Te11 Te12 Te1 -130(11) . . . 3 ?
Te6 Te11 Te12 Te1 89(16) . . . 7 ?
Te6 Te11 Te12 Te2 -164(10) . . . 8 ?
Te6 Te11 Te12 Te2 73(13) . . . . ?
Te6 Te11 Te12 Te3 -117(9) . . . 2_545 ?
Te6 Te11 Te12 Te4 142(13) . . . . ?
Te6 Te11 Te12 Te9 166(8) . . . 8 ?
Te6 Te11 Te12 Te9 28(7) . . . . ?
Te6 Te11 Te12 Te11 142(13) . . . 8 ?
Te6 Te11 Te12 Te13 -172(16) . . . 8 ?
Te6 Te11 Te12 Te13 -11(11) . . . . ?
Te6 Te11 Te13 Te2 97(5) . . . . ?
Te6 Te11 Te13 Te3 118(6) . . . 3_665 ?
Te6 Te11 Te13 Te4 143(12) . . . . ?
Te6 Te11 Te13 Te5 62(24) . . . . ?
Te6 Te11 Te13 Te5 -86(4) . . . 3 ?
Te6 Te11 Te13 Te7 6(10) . . . . ?
Te6 Te11 Te13 Te8 87(7) . . . . ?
Te6 Te11 Te13 Te9 28(4) . . . . ?
Te6 Te11 Te13 Te12 172(7) . . . . ?
Te6 Te11 Te13 Te14 -23(6) . . . . ?
Te6 Te11 Te14 Te5 -121(8) . . . 3 ?
Te6 Te11 Te14 Te5 121(9) . . . . ?
Te6 Te11 Te14 Te6 28(9) . . . 12 ?
Te6 Te11 Te14 Te7 107(12) . . . . ?
Te6 Te11 Te14 Te7 -65(11) . . . 12 ?
Te6 Te11 Te14 Te8 99(8) . . . . ?
Te6 Te11 Te14 Te9 38(6) . . . . ?
Te6 Te11 Te14 Te10 -100(9) . . . 3 ?
Te6 Te11 Te14 Te13 139(12) . . . . ?
Te6 Te11 Te14 Te14 7(40) . . . 12 ?
Te6 Te13 Te14 Te5 114(10) . . . . ?
Te6 Te13 Te14 Te5 -103(11) . . . 3 ?
Te6 Te13 Te14 Te6 70(11) . . . 12 ?
Te6 Te13 Te14 Te7 104(12) . . . . ?
Te6 Te13 Te14 Te7 -166(44) . . . 12 ?
Te6 Te13 Te14 Te8 58(13) . . . . ?
Te6 Te13 Te14 Te9 -9(9) . . . . ?
Te6 Te13 Te14 Te10 -118(14) . . . 3 ?
Te6 Te13 Te14 Te11 -46(12) . . . . ?
Te6 Te13 Te14 Te14 118(16) . . . 12 ?
Te7 Te1 Te5 Te3 -23(7) . . . 3_665 ?
Te7 Te1 Te5 Te8 -5(6) . . . . ?
Te7 Te1 Te5 Te9 -155(7) . . . 2 ?
Te7 Te1 Te5 Te10 129(12) . . . . ?
Te7 Te1 Te5 Te11 -147(7) . . . 2 ?
Te7 Te1 Te5 Te12 -101(9) . . . 2 ?
Te7 Te1 Te5 Te13 -35(6) . . . . ?
Te7 Te1 Te5 Te13 -119(7) . . . 2 ?
Te7 Te1 Te5 Te14 -148(7) . . . 2 ?
Te7 Te1 Te5 Te14 -18(6) . . . . ?
Te7 Te1 Te8 Te1 152(5) . . . 7 ?
Te7 Te1 Te8 Te2 153(8) . . . . ?
Te7 Te1 Te8 Te3 151(6) . . . 3_665 ?
Te7 Te1 Te8 Te5 3(3) . . . . ?
Te7 Te1 Te8 Te8 159(3) . . . 7 ?
Te7 Te1 Te8 Te9 25(9) . . . . ?
Te7 Te1 Te8 Te11 79(7) . . . . ?
Te7 Te1 Te8 Te12 102(5) . . . . ?
Te7 Te1 Te8 Te13 51(6) . . . . ?
Te7 Te1 Te8 Te14 15(4) . . . . ?
Te7 Te5 Te8 Te1 118(8) . . . 7 ?
Te7 Te5 Te8 Te1 -176(5) . . . . ?
Te7 Te5 Te8 Te2 48(11) . . . . ?
Te7 Te5 Te8 Te3 152(7) . . . 3_665 ?
Te7 Te5 Te8 Te8 159(4) . . . 7 ?
Te7 Te5 Te8 Te9 12(5) . . . . ?
Te7 Te5 Te8 Te11 42(5) . . . . ?
Te7 Te5 Te8 Te12 79(6) . . . . ?
Te7 Te5 Te8 Te13 49(6) . . . . ?
Te7 Te5 Te8 Te14 15(5) . . . . ?
Te7 Te5 Te10 Te1 101(7) . . . 11 ?
Te7 Te5 Te10 Te1 143(10) . . . . ?
Te7 Te5 Te10 Te6 -148(4) . . . 2 ?
Te7 Te5 Te10 Te6 28(4) . . . 12 ?
Te7 Te5 Te10 Te7 -123(8) . . . 11 ?
Te7 Te5 Te10 Te14 -11(4) . . . . ?
Te7 Te5 Te10 Te14 0(7) . . . 12 ?
Te7 Te5 Te10 Te14 -110(5) . . . 11 ?
Te7 Te5 Te10 Te14 -119(4) . . . 2 ?
Te7 Te5 Te13 Te2 -102(8) . . . . ?
Te7 Te5 Te13 Te3 -134(7) . . . 3_665 ?
Te7 Te5 Te13 Te4 -118(13) . . . . ?
Te7 Te5 Te13 Te5 65(9) . . . 3 ?
Te7 Te5 Te13 Te6 -17(6) . . . . ?
Te7 Te5 Te13 Te8 -102(8) . . . . ?
Te7 Te5 Te13 Te9 -48(8) . . . . ?
Te7 Te5 Te13 Te11 -73(24) . . . . ?
Te7 Te5 Te13 Te12 -165(16) . . . . ?
Te7 Te5 Te13 Te14 11(8) . . . . ?
Te7 Te5 Te14 Te5 170(23) . . . 3 ?
Te7 Te5 Te14 Te6 -44(17) . . . . ?
Te7 Te5 Te14 Te6 0(18) . . . 12 ?
Te7 Te5 Te14 Te7 55(17) . . . 12 ?
Te7 Te5 Te14 Te8 -100(20) . . . . ?
Te7 Te5 Te14 Te9 -97(20) . . . . ?
Te7 Te5 Te14 Te10 118(23) . . . 3 ?
Te7 Te5 Te14 Te11 -130(21) . . . . ?
Te7 Te5 Te14 Te13 -147(23) . . . . ?
Te7 Te5 Te14 Te14 37(19) . . . 12 ?
Te7 Te6 Te7 Te1 -173(8) 12 . . . ?
Te7 Te6 Te7 Te5 -176(20) 12 . . . ?
Te7 Te6 Te7 Te5 41(5) 12 . . 11 ?
Te7 Te6 Te7 Te6 71(7) 12 . . 12 ?
Te7 Te6 Te7 Te8 -166(6) 12 . . . ?
Te7 Te6 Te7 Te9 -141(7) 12 . . . ?
Te7 Te6 Te7 Te10 46(9) 12 . . . ?
Te7 Te6 Te7 Te13 -114(7) 12 . . . ?
Te7 Te6 Te7 Te14 -59(11) 12 . . . ?
Te7 Te6 Te7 Te14 29(6) 12 . . 12 ?
Te7 Te6 Te9 Te1 -106(3) . . . 3 ?
Te7 Te6 Te9 Te1 -52(9) 12 . . 3 ?
Te7 Te6 Te9 Te2 88(15) . . . . ?
Te7 Te6 Te9 Te2 141(12) 12 . . . ?
Te7 Te6 Te9 Te4 -84(14) 12 . . . ?
Te7 Te6 Te9 Te4 -138(10) . . . . ?
Te7 Te6 Te9 Te5 -85(3) . . . 3 ?
Te7 Te6 Te9 Te5 -32(8) 12 . . 3 ?
Te7 Te6 Te9 Te6 36(4) . . . 12 ?
Te7 Te6 Te9 Te6 89(9) 12 . . 12 ?
Te7 Te6 Te9 Te7 53(9) 12 . . . ?
Te7 Te6 Te9 Te8 25(5) . . . . ?
Te7 Te6 Te9 Te8 78(9) 12 . . . ?
Te7 Te6 Te9 Te11 -55(12) 12 . . . ?
Te7 Te6 Te9 Te11 -108(7) . . . . ?
Te7 Te6 Te9 Te12 -67(13) . . . . ?
Te7 Te6 Te9 Te12 -14(18) 12 . . . ?
Te7 Te6 Te9 Te13 -27(6) . . . . ?
Te7 Te6 Te9 Te13 26(11) 12 . . . ?
Te7 Te6 Te9 Te14 18(10) 12 . . . ?
Te7 Te6 Te9 Te14 -36(5) . . . . ?
Te7 Te6 Te11 Te1 68(5) . . . 7 ?
Te7 Te6 Te11 Te1 -38(8) 12 . . 3 ?
Te7 Te6 Te11 Te1 137(5) 12 . . 7 ?
Te7 Te6 Te11 Te1 -107(5) . . . 3 ?
Te7 Te6 Te11 Te2 74(4) . . . . ?
Te7 Te6 Te11 Te2 -135(11) . . . 8 ?
Te7 Te6 Te11 Te2 -66(13) 12 . . 8 ?
Te7 Te6 Te11 Te2 143(6) 12 . . . ?
Te7 Te6 Te11 Te4 -172(11) 12 . . . ?
Te7 Te6 Te11 Te4 119(11) . . . . ?
Te7 Te6 Te11 Te5 -12(6) 12 . . 3 ?
Te7 Te6 Te11 Te5 -81(4) . . . 3 ?
Te7 Te6 Te11 Te9 138(11) 12 . . . ?
Te7 Te6 Te11 Te9 69(8) . . . . ?
Te7 Te6 Te11 Te11 152(7) 12 . . 8 ?
Te7 Te6 Te11 Te11 83(9) . . . 8 ?
Te7 Te6 Te11 Te12 8(13) . . . . ?
Te7 Te6 Te11 Te12 77(14) 12 . . . ?
Te7 Te6 Te11 Te13 65(8) 12 . . . ?
Te7 Te6 Te11 Te13 -4(6) . . . . ?
Te7 Te6 Te11 Te14 -31(6) . . . . ?
Te7 Te6 Te11 Te14 38(9) 12 . . . ?
Te7 Te6 Te13 Te2 125(7) . . . . ?
Te7 Te6 Te13 Te2 -174(6) 12 . . . ?
Te7 Te6 Te13 Te3 148(7) 12 . . 3_665 ?
Te7 Te6 Te13 Te3 87(8) . . . 3_665 ?
Te7 Te6 Te13 Te4 161(7) . . . . ?
Te7 Te6 Te13 Te4 -138(5) 12 . . . ?
Te7 Te6 Te13 Te5 13(4) . . . . ?
Te7 Te6 Te13 Te5 74(6) 12 . . . ?
Te7 Te6 Te13 Te5 -124(7) . . . 3 ?
Te7 Te6 Te13 Te5 -63(4) 12 . . 3 ?
Te7 Te6 Te13 Te7 61(7) 12 . . . ?
Te7 Te6 Te13 Te8 131(7) 12 . . . ?
Te7 Te6 Te13 Te8 69(7) . . . . ?
Te7 Te6 Te13 Te9 138(9) . . . . ?
Te7 Te6 Te13 Te9 -161(8) 12 . . . ?
Te7 Te6 Te13 Te11 -124(7) 12 . . . ?
Te7 Te6 Te13 Te11 175(9) . . . . ?
Te7 Te6 Te13 Te12 -131(8) 12 . . . ?
Te7 Te6 Te13 Te12 168(10) . . . . ?
Te7 Te6 Te13 Te14 4(12) 12 . . . ?
Te7 Te6 Te13 Te14 -57(9) . . . . ?
Te7 Te6 Te14 Te5 -92(9) 12 . . 3 ?
Te7 Te6 Te14 Te5 118(10) 12 . . . ?
Te7 Te6 Te14 Te5 162(14) . . . 3 ?
Te7 Te6 Te14 Te5 12(6) . . . . ?
Te7 Te6 Te14 Te6 -41(12) . . . 12 ?
Te7 Te6 Te14 Te6 65(9) 12 . . 12 ?
Te7 Te6 Te14 Te7 -106(12) . . . 12 ?
Te7 Te6 Te14 Te7 106(12) 12 . . . ?
Te7 Te6 Te14 Te8 47(9) . . . . ?
Te7 Te6 Te14 Te8 153(9) 12 . . . ?
Te7 Te6 Te14 Te9 89(10) . . . . ?
Te7 Te6 Te14 Te9 -165(8) 12 . . . ?
Te7 Te6 Te14 Te10 -155(13) . . . 3 ?
Te7 Te6 Te14 Te10 -49(6) 12 . . 3 ?
Te7 Te6 Te14 Te11 115(11) . . . . ?
Te7 Te6 Te14 Te11 -139(8) 12 . . . ?
Te7 Te6 Te14 Te13 79(13) . . . . ?
Te7 Te6 Te14 Te13 -175(14) 12 . . . ?
Te7 Te6 Te14 Te14 42(5) 12 . . 12 ?
Te7 Te6 Te14 Te14 -64(10) . . . 12 ?
Te7 Te7 Te8 Te1 30(9) 12 . . 7 ?
Te7 Te7 Te8 Te1 169(6) 12 . . . ?
Te7 Te7 Te8 Te2 5(8) 12 . . . ?
Te7 Te7 Te8 Te3 113(9) 12 . . 3_665 ?
Te7 Te7 Te8 Te5 166(9) 12 . . . ?
Te7 Te7 Te8 Te8 120(10) 12 . . 7 ?
Te7 Te7 Te8 Te9 -1(6) 12 . . . ?
Te7 Te7 Te8 Te11 23(7) 12 . . . ?
Te7 Te7 Te8 Te12 51(9) 12 . . . ?
Te7 Te7 Te8 Te13 54(9) 12 . . . ?
Te7 Te7 Te8 Te14 16(8) 12 . . . ?
Te7 Te7 Te9 Te1 76(3) 12 . . 3 ?
Te7 Te7 Te9 Te2 172(3) 12 . . . ?
Te7 Te7 Te9 Te4 123(4) 12 . . . ?
Te7 Te7 Te9 Te5 57(3) 12 . . 3 ?
Te7 Te7 Te9 Te6 -30(5) 12 . . . ?
Te7 Te7 Te9 Te6 -56(4) 12 . . 12 ?
Te7 Te7 Te9 Te8 179(4) 12 . . . ?
Te7 Te7 Te9 Te11 94(6) 12 . . . ?
Te7 Te7 Te9 Te12 119(3) 12 . . . ?
Te7 Te7 Te9 Te13 112(8) 12 . . . ?
Te7 Te7 Te9 Te14 24(9) 12 . . . ?
Te7 Te7 Te10 Te1 42(5) 12 . . 11 ?
Te7 Te7 Te10 Te1 -172(3) 12 . . . ?
Te7 Te7 Te10 Te5 -162(5) 12 . . . ?
Te7 Te7 Te10 Te5 22(6) 12 . . 11 ?
Te7 Te7 Te10 Te6 -120(5) 12 . . 2 ?
Te7 Te7 Te10 Te6 55(4) 12 . . 12 ?
Te7 Te7 Te10 Te7 -52(3) 12 . . 11 ?
Te7 Te7 Te10 Te14 -104(4) 12 . . 2 ?
Te7 Te7 Te10 Te14 18(5) 12 . . 12 ?
Te7 Te7 Te10 Te14 -64(5) 12 . . 11 ?
Te7 Te7 Te10 Te14 -19(12) 12 . . . ?
Te7 Te7 Te13 Te2 -110(6) 12 . . . ?
Te7 Te7 Te13 Te3 -164(4) 12 . . 3_665 ?
Te7 Te7 Te13 Te4 -79(12) 12 . . . ?
Te7 Te7 Te13 Te5 13(6) 12 . . 3 ?
Te7 Te7 Te13 Te5 152(4) 12 . . . ?
Te7 Te7 Te13 Te6 -47(4) 12 . . . ?
Te7 Te7 Te13 Te8 -149(4) 12 . . . ?
Te7 Te7 Te13 Te9 -68(5) 12 . . . ?
Te7 Te7 Te13 Te11 -53(11) 12 . . . ?
Te7 Te7 Te13 Te12 -128(70) 12 . . . ?
Te7 Te7 Te13 Te14 -14(8) 12 . . . ?
Te7 Te7 Te14 Te5 131(15) 12 . . . ?
Te7 Te7 Te14 Te5 118(17) 12 . . 3 ?
Te7 Te7 Te14 Te6 -49(10) 12 . . 12 ?
Te7 Te7 Te14 Te6 -88(12) 12 . . . ?
Te7 Te7 Te14 Te8 -165(6) 12 . . . ?
Te7 Te7 Te14 Te9 -143(12) 12 . . . ?
Te7 Te7 Te14 Te10 51(11) 12 . . 3 ?
Te7 Te7 Te14 Te11 -174(14) 12 . . . ?
Te7 Te7 Te14 Te13 160(12) 12 . . . ?
Te7 Te7 Te14 Te14 -9(11) 12 . . 12 ?
Te7 Te8 Te9 Te1 100(3) . . . 3 ?
Te7 Te8 Te9 Te2 172(4) . . . . ?
Te7 Te8 Te9 Te4 142(3) . . . . ?
Te7 Te8 Te9 Te5 64(3) . . . 3 ?
Te7 Te8 Te9 Te6 -35(4) . . . 12 ?
Te7 Te8 Te9 Te6 -29(7) . . . . ?
Te7 Te8 Te9 Te11 115(5) . . . . ?
Te7 Te8 Te9 Te12 115(6) . . . . ?
Te7 Te8 Te9 Te13 59(7) . . . . ?
Te7 Te8 Te9 Te14 14(5) . . . . ?
Te7 Te8 Te13 Te2 -137(6) . . . . ?
Te7 Te8 Te13 Te3 151(7) . . . 3_665 ?
Te7 Te8 Te13 Te4 -145(8) . . . . ?
Te7 Te8 Te13 Te5 -107(29) . . . 3 ?
Te7 Te8 Te13 Te5 43(5) . . . . ?
Te7 Te8 Te13 Te6 -60(6) . . . . ?
Te7 Te8 Te13 Te9 -91(7) . . . . ?
Te7 Te8 Te13 Te11 -127(10) . . . . ?
Te7 Te8 Te13 Te12 -176(13) . . . . ?
Te7 Te8 Te13 Te14 -35(8) . . . . ?
Te7 Te8 Te14 Te5 22(7) . . . . ?
Te7 Te8 Te14 Te5 136(10) . . . 3 ?
Te7 Te8 Te14 Te6 -55(7) . . . 12 ?
Te7 Te8 Te14 Te6 -114(11) . . . . ?
Te7 Te8 Te14 Te7 -33(13) . . . 12 ?
Te7 Te8 Te14 Te9 -154(10) . . . . ?
Te7 Te8 Te14 Te10 124(18) . . . 3 ?
Te7 Te8 Te14 Te11 171(9) . . . . ?
Te7 Te8 Te14 Te13 116(13) . . . . ?
Te7 Te8 Te14 Te14 -24(7) . . . 12 ?
Te7 Te9 Te11 Te1 97(5) . . . 7 ?
Te7 Te9 Te11 Te1 -75(12) . . . 3 ?
Te7 Te9 Te11 Te2 104(5) . . . . ?
Te7 Te9 Te11 Te2 154(31) . . . 8 ?
Te7 Te9 Te11 Te4 131(7) . . . . ?
Te7 Te9 Te11 Te5 -51(7) . . . 3 ?
Te7 Te9 Te11 Te6 -82(9) . . . . ?
Te7 Te9 Te11 Te11 105(5) . . . 8 ?
Te7 Te9 Te11 Te12 55(13) . . . . ?
Te7 Te9 Te11 Te13 13(7) . . . . ?
Te7 Te9 Te11 Te14 -33(5) . . . . ?
Te7 Te9 Te12 Te1 -114(7) . . . 3 ?
Te7 Te9 Te12 Te1 110(8) . . . 7 ?
Te7 Te9 Te12 Te2 110(6) . . . . ?
Te7 Te9 Te12 Te2 -145(7) . . . 8 ?
Te7 Te9 Te12 Te3 -91(13) . . . 2_545 ?
Te7 Te9 Te12 Te4 176(3) . . . . ?
Te7 Te9 Te12 Te9 176(3) . . . 8 ?
Te7 Te9 Te12 Te11 156(7) . . . 8 ?
Te7 Te9 Te12 Te11 -133(11) . . . . ?
Te7 Te9 Te12 Te13 -7(6) . . . . ?
Te7 Te9 Te12 Te13 167(22) . . . 8 ?
Te7 Te9 Te13 Te2 126(6) . . . . ?
Te7 Te9 Te13 Te3 101(7) . . . 3_665 ?
Te7 Te9 Te13 Te4 172(6) . . . . ?
Te7 Te9 Te13 Te5 30(5) . . . . ?
Te7 Te9 Te13 Te5 -112(7) . . . 3 ?
Te7 Te9 Te13 Te6 -36(8) . . . . ?
Te7 Te9 Te13 Te8 73(7) . . . . ?
Te7 Te9 Te13 Te11 -163(9) . . . . ?
Te7 Te9 Te13 Te12 171(9) . . . . ?
Te7 Te9 Te13 Te14 -45(5) . . . . ?
Te7 Te9 Te14 Te5 139(10) . . . 3 ?
Te7 Te9 Te14 Te5 17(6) . . . . ?
Te7 Te9 Te14 Te6 -107(11) . . . . ?
Te7 Te9 Te14 Te6 -66(7) . . . 12 ?
Te7 Te9 Te14 Te7 -128(17) . . . 12 ?
Te7 Te9 Te14 Te8 20(8) . . . . ?
Te7 Te9 Te14 Te10 170(13) . . . 3 ?
Te7 Te9 Te14 Te11 122(9) . . . . ?
Te7 Te9 Te14 Te13 62(9) . . . . ?
Te7 Te9 Te14 Te14 -68(14) . . . 12 ?
Te7 Te13 Te14 Te5 153(8) . . . 3 ?
Te7 Te13 Te14 Te5 10(7) . . . . ?
Te7 Te13 Te14 Te6 -34(8) . . . 12 ?
Te7 Te13 Te14 Te6 -104(12) . . . . ?
Te7 Te13 Te14 Te7 90(36) . . . 12 ?
Te7 Te13 Te14 Te8 -46(10) . . . . ?
Te7 Te13 Te14 Te9 -114(8) . . . . ?
Te7 Te13 Te14 Te10 138(11) . . . 3 ?
Te7 Te13 Te14 Te11 -151(8) . . . . ?
Te7 Te13 Te14 Te14 14(9) . . . 12 ?
Te8 Te1 Te5 Te3 -18(3) . . . 3_665 ?
Te8 Te1 Te5 Te3 7(3) 7 . . 3_665 ?
Te8 Te1 Te5 Te7 5(6) . . . . ?
Te8 Te1 Te5 Te7 31(8) 7 . . . ?
Te8 Te1 Te5 Te8 26(3) 7 . . . ?
Te8 Te1 Te5 Te9 -150(3) . . . 2 ?
Te8 Te1 Te5 Te9 -124(3) 7 . . 2 ?
Te8 Te1 Te5 Te10 134(9) . . . . ?
Te8 Te1 Te5 Te10 160(7) 7 . . . ?
Te8 Te1 Te5 Te11 -142(4) . . . 2 ?
Te8 Te1 Te5 Te11 -117(4) 7 . . 2 ?
Te8 Te1 Te5 Te12 -96(7) . . . 2 ?
Te8 Te1 Te5 Te12 -70(7) 7 . . 2 ?
Te8 Te1 Te5 Te13 -114(4) . . . 2 ?
Te8 Te1 Te5 Te13 -30(4) . . . . ?
Te8 Te1 Te5 Te13 -88(4) 7 . . 2 ?
Te8 Te1 Te5 Te13 -4(5) 7 . . . ?
Te8 Te1 Te5 Te14 -143(5) . . . 2 ?
Te8 Te1 Te5 Te14 -13(4) . . . . ?
Te8 Te1 Te5 Te14 13(6) 7 . . . ?
Te8 Te1 Te5 Te14 -117(5) 7 . . 2 ?
Te8 Te1 Te7 Te5 -173(8) . . . . ?
Te8 Te1 Te7 Te5 159(4) . . . 11 ?
Te8 Te1 Te7 Te5 179(2) 7 . . 11 ?
Te8 Te1 Te7 Te5 -154(6) 7 . . . ?
Te8 Te1 Te7 Te6 29(7) 7 . . . ?
Te8 Te1 Te7 Te6 88(7) . . . 12 ?
Te8 Te1 Te7 Te6 107(7) 7 . . 12 ?
Te8 Te1 Te7 Te6 10(6) . . . . ?
Te8 Te1 Te7 Te8 20(3) 7 . . . ?
Te8 Te1 Te7 Te9 -8(3) . . . . ?
Te8 Te1 Te7 Te9 11(3) 7 . . . ?
Te8 Te1 Te7 Te10 166(5) . . . . ?
Te8 Te1 Te7 Te10 -175(3) 7 . . . ?
Te8 Te1 Te7 Te13 -28(5) 7 . . . ?
Te8 Te1 Te7 Te13 -48(5) . . . . ?
Te8 Te1 Te7 Te14 -23(12) 7 . . . ?
Te8 Te1 Te7 Te14 146(14) . . . 12 ?
Te8 Te1 Te7 Te14 165(12) 7 . . 12 ?
Te8 Te1 Te7 Te14 -42(11) . . . . ?
Te8 Te1 Te8 Te1 -6(3) 7 . . 7 ?
Te8 Te1 Te8 Te2 -5(7) 7 . . . ?
Te8 Te1 Te8 Te3 -8(5) 7 . . 3_665 ?
Te8 Te1 Te8 Te5 -156(2) 7 . . . ?
Te8 Te1 Te8 Te7 -159(3) 7 . . . ?
Te8 Te1 Te8 Te9 -134(10) 7 . . . ?
Te8 Te1 Te8 Te11 -80(7) 7 . . . ?
Te8 Te1 Te8 Te12 -56(4) 7 . . . ?
Te8 Te1 Te8 Te13 -107(6) 7 . . . ?
Te8 Te1 Te8 Te14 -143(4) 7 . . . ?
Te8 Te2 Te4 Te1 30(2) 7 . . 7 ?
Te8 Te2 Te4 Te1 -28(7) . . . 3 ?
Te8 Te2 Te4 Te1 -100(4) 7 . . 3 ?
Te8 Te2 Te4 Te1 102(4) . . . 7 ?
Te8 Te2 Te4 Te2 -44(2) 7 . . 8 ?
Te8 Te2 Te4 Te2 27(4) . . . 8 ?
Te8 Te2 Te4 Te5 20(2) 7 . . 7 ?
Te8 Te2 Te4 Te5 92(4) . . . 7 ?
Te8 Te2 Te4 Te9 -133(3) 7 . . . ?
Te8 Te2 Te4 Te9 97(5) . . . 8 ?
Te8 Te2 Te4 Te9 -61(4) . . . . ?
Te8 Te2 Te4 Te9 25(6) 7 . . 8 ?
Te8 Te2 Te4 Te11 -44(7) . . . . ?
Te8 Te2 Te4 Te11 94(5) . . . 8 ?
Te8 Te2 Te4 Te11 -116(5) 7 . . . ?
Te8 Te2 Te4 Te11 22(6) 7 . . 8 ?
Te8 Te2 Te4 Te12 27(4) . . . . ?
Te8 Te2 Te4 Te12 -44(2) 7 . . . ?
Te8 Te2 Te4 Te13 -86(4) 7 . . . ?
Te8 Te2 Te4 Te13 -14(5) . . . . ?
Te8 Te2 Te4 Te13 62(5) . . . 8 ?
Te8 Te2 Te4 Te13 -10(5) 7 . . 8 ?
Te8 Te2 Te8 Te1 5(7) 7 . . . ?
Te8 Te2 Te8 Te1 7(2) 7 . . 7 ?
Te8 Te2 Te8 Te3 7(5) 7 . . 3_665 ?
Te8 Te2 Te8 Te5 118(10) 7 . . . ?
Te8 Te2 Te8 Te7 155(4) 7 . . . ?
Te8 Te2 Te8 Te9 163.4(17) 7 . . . ?
Te8 Te2 Te8 Te11 127(4) 7 . . . ?
Te8 Te2 Te8 Te12 78(3) 7 . . . ?
Te8 Te2 Te8 Te13 117(5) 7 . . . ?
Te8 Te2 Te8 Te14 150(3) 7 . . . ?
Te8 Te2 Te9 Te1 100(3) 7 . . 3 ?
Te8 Te2 Te9 Te1 119(2) . . . 3 ?
Te8 Te2 Te9 Te4 137(4) . . . . ?
Te8 Te2 Te9 Te4 118(4) 7 . . . ?
Te8 Te2 Te9 Te5 99(2) . . . 3 ?
Te8 Te2 Te9 Te5 80(3) 7 . . 3 ?
Te8 Te2 Te9 Te6 -92(15) 7 . . . ?
Te8 Te2 Te9 Te6 -58(5) 7 . . 12 ?
Te8 Te2 Te9 Te6 -73(15) . . . . ?
Te8 Te2 Te9 Te6 -38(4) . . . 12 ?
Te8 Te2 Te9 Te7 7(3) . . . . ?
Te8 Te2 Te9 Te7 -12(4) 7 . . . ?
Te8 Te2 Te9 Te8 -19(2) 7 . . . ?
Te8 Te2 Te9 Te11 120(4) . . . . ?
Te8 Te2 Te9 Te11 101(4) 7 . . . ?
Te8 Te2 Te9 Te12 90(8) . . . . ?
Te8 Te2 Te9 Te12 71(8) 7 . . . ?
Te8 Te2 Te9 Te13 45(5) . . . . ?
Te8 Te2 Te9 Te13 25(5) 7 . . . ?
Te8 Te2 Te9 Te14 33(7) . . . . ?
Te8 Te2 Te9 Te14 14(8) 7 . . . ?
Te8 Te2 Te11 Te1 110(3) . . . 7 ?
Te8 Te2 Te11 Te1 64(9) 7 . . 3 ?
Te8 Te2 Te11 Te1 52(3) 7 . . 7 ?
Te8 Te2 Te11 Te1 122(7) . . . 3 ?
Te8 Te2 Te11 Te2 73(5) 7 . . 8 ?
Te8 Te2 Te11 Te2 132(3) . . . 8 ?
Te8 Te2 Te11 Te4 149(5) . . . . ?
Te8 Te2 Te11 Te4 90(5) 7 . . . ?
Te8 Te2 Te11 Te5 -44(18) 7 . . 3 ?
Te8 Te2 Te11 Te5 15(16) . . . 3 ?
Te8 Te2 Te11 Te6 -59(4) . . . . ?
Te8 Te2 Te11 Te6 -118(4) 7 . . . ?
Te8 Te2 Te11 Te9 -56(4) . . . . ?
Te8 Te2 Te11 Te9 -115(4) 7 . . . ?
Te8 Te2 Te11 Te11 66(4) 7 . . 8 ?
Te8 Te2 Te11 Te11 125(3) . . . 8 ?
Te8 Te2 Te11 Te12 24(11) 7 . . . ?
Te8 Te2 Te11 Te12 83(10) . . . . ?
Te8 Te2 Te11 Te13 9(6) . . . . ?
Te8 Te2 Te11 Te13 -50(7) 7 . . . ?
Te8 Te2 Te11 Te14 -85(6) 7 . . . ?
Te8 Te2 Te11 Te14 -26(5) . . . . ?
Te8 Te2 Te12 Te1 -178(8) 7 . . 3 ?
Te8 Te2 Te12 Te1 -118(7) . . . 3 ?
Te8 Te2 Te12 Te1 46(3) 7 . . 7 ?
Te8 Te2 Te12 Te1 106(4) . . . 7 ?
Te8 Te2 Te12 Te2 -160(3) . . . 8 ?
Te8 Te2 Te12 Te2 139(2) 7 . . 8 ?
Te8 Te2 Te12 Te3 -126(20) . . . 2_545 ?
Te8 Te2 Te12 Te3 173(21) 7 . . 2_545 ?
Te8 Te2 Te12 Te4 -160(3) . . . . ?
Te8 Te2 Te12 Te4 139(2) 7 . . . ?
Te8 Te2 Te12 Te9 156(6) . . . 8 ?
Te8 Te2 Te12 Te9 -133(3) 7 . . . ?
Te8 Te2 Te12 Te9 -73(3) . . . . ?
Te8 Te2 Te12 Te9 96(5) 7 . . 8 ?
Te8 Te2 Te12 Te11 90(6) 7 . . 8 ?
Te8 Te2 Te12 Te11 -160(8) 7 . . . ?
Te8 Te2 Te12 Te11 -99(7) . . . . ?
Te8 Te2 Te12 Te11 151(8) . . . 8 ?
Te8 Te2 Te12 Te13 -33(6) . . . . ?
Te8 Te2 Te12 Te13 121(18) . . . 8 ?
Te8 Te2 Te12 Te13 60(17) 7 . . 8 ?
Te8 Te2 Te12 Te13 -94(7) 7 . . . ?
Te8 Te2 Te13 Te3 38(4) . . . 3_665 ?
Te8 Te2 Te13 Te3 -13(3) 7 . . 3_665 ?
Te8 Te2 Te13 Te4 165(5) . . . . ?
Te8 Te2 Te13 Te4 114(3) 7 . . . ?
Te8 Te2 Te13 Te5 -51(5) 7 . . . ?
Te8 Te2 Te13 Te5 0(4) . . . . ?
Te8 Te2 Te13 Te5 -171(9) . . . 3 ?
Te8 Te2 Te13 Te5 138(5) 7 . . 3 ?
Te8 Te2 Te13 Te6 -100(6) . . . . ?
Te8 Te2 Te13 Te6 -151(4) 7 . . . ?
Te8 Te2 Te13 Te7 -46(8) . . . . ?
Te8 Te2 Te13 Te7 -98(9) 7 . . . ?
Te8 Te2 Te13 Te8 -51(5) 7 . . . ?
Te8 Te2 Te13 Te9 -161(4) 7 . . . ?
Te8 Te2 Te13 Te9 -110(6) . . . . ?
Te8 Te2 Te13 Te11 -168(8) . . . . ?
Te8 Te2 Te13 Te11 141(6) 7 . . . ?
Te8 Te2 Te13 Te12 78(8) 7 . . . ?
Te8 Te2 Te13 Te12 129(10) . . . . ?
Te8 Te2 Te13 Te14 -101(9) . . . . ?
Te8 Te2 Te13 Te14 -152(8) 7 . . . ?
Te8 Te5 Te7 Te1 5(6) . . . . ?
Te8 Te5 Te7 Te5 158(3) . . . 11 ?
Te8 Te5 Te7 Te6 107(8) . . . 12 ?
Te8 Te5 Te7 Te6 11(17) . . . . ?
Te8 Te5 Te7 Te7 -163(15) . . . 12 ?
Te8 Te5 Te7 Te9 -13(5) . . . . ?
Te8 Te5 Te7 Te10 160(4) . . . . ?
Te8 Te5 Te7 Te13 -48(5) . . . . ?
Te8 Te5 Te7 Te14 -73(20) . . . . ?
Te8 Te5 Te7 Te14 160(11) . . . 12 ?
Te8 Te5 Te10 Te1 77(11) . . . 11 ?
Te8 Te5 Te10 Te1 119(11) . . . . ?
Te8 Te5 Te10 Te6 4(7) . . . 12 ?
Te8 Te5 Te10 Te6 -172(5) . . . 2 ?
Te8 Te5 Te10 Te7 -24(6) . . . . ?
Te8 Te5 Te10 Te7 -147(5) . . . 11 ?
Te8 Te5 Te10 Te14 -143(6) . . . 2 ?
Te8 Te5 Te10 Te14 -35(6) . . . . ?
Te8 Te5 Te10 Te14 -134(4) . . . 11 ?
Te8 Te5 Te10 Te14 -24(8) . . . 12 ?
Te8 Te5 Te13 Te2 0(4) . . . . ?
Te8 Te5 Te13 Te3 -32(4) . . . 3_665 ?
Te8 Te5 Te13 Te4 -16(8) . . . . ?
Te8 Te5 Te13 Te5 166(12) . . . 3 ?
Te8 Te5 Te13 Te6 85(6) . . . . ?
Te8 Te5 Te13 Te7 102(8) . . . . ?
Te8 Te5 Te13 Te9 54(7) . . . . ?
Te8 Te5 Te13 Te11 29(22) . . . . ?
Te8 Te5 Te13 Te12 -63(13) . . . . ?
Te8 Te5 Te13 Te14 113(9) . . . . ?
Te8 Te5 Te14 Te5 -90(6) . . . 3 ?
Te8 Te5 Te14 Te6 100(4) . . . 12 ?
Te8 Te5 Te14 Te6 56(9) . . . . ?
Te8 Te5 Te14 Te7 100(20) . . . . ?
Te8 Te5 Te14 Te7 155(9) . . . 12 ?
Te8 Te5 Te14 Te9 4(4) . . . . ?
Te8 Te5 Te14 Te10 -142(8) . . . 3 ?
Te8 Te5 Te14 Te11 -30(4) . . . . ?
Te8 Te5 Te14 Te13 -46(7) . . . . ?
Te8 Te5 Te14 Te14 137(3) . . . 12 ?
Te8 Te6 Te7 Te1 -7(4) . . . . ?
Te8 Te6 Te7 Te5 -10(16) . . . . ?
Te8 Te6 Te7 Te5 -154(6) . . . 11 ?
Te8 Te6 Te7 Te6 -123(6) . . . 12 ?
Te8 Te6 Te7 Te7 166(6) . . . 12 ?
Te8 Te6 Te7 Te9 25(5) . . . . ?
Te8 Te6 Te7 Te10 -148(11) . . . . ?
Te8 Te6 Te7 Te13 52(5) . . . . ?
Te8 Te6 Te7 Te14 -165(8) . . . 12 ?
Te8 Te6 Te7 Te14 107(12) . . . . ?
Te8 Te6 Te9 Te1 -130(5) . . . 3 ?
Te8 Te6 Te9 Te2 63(14) . . . . ?
Te8 Te6 Te9 Te4 -162(13) . . . . ?
Te8 Te6 Te9 Te5 -109(3) . . . 3 ?
Te8 Te6 Te9 Te6 11(7) . . . 12 ?
Te8 Te6 Te9 Te7 -25(5) . . . . ?
Te8 Te6 Te9 Te11 -132(9) . . . . ?
Te8 Te6 Te9 Te12 -92(13) . . . . ?
Te8 Te6 Te9 Te13 -51(5) . . . . ?
Te8 Te6 Te9 Te14 -60(8) . . . . ?
Te8 Te6 Te11 Te1 -141(5) . . . 3 ?
Te8 Te6 Te11 Te1 34(3) . . . 7 ?
Te8 Te6 Te11 Te2 39(2) . . . . ?
Te8 Te6 Te11 Te2 -169(12) . . . 8 ?
Te8 Te6 Te11 Te4 84(12) . . . . ?
Te8 Te6 Te11 Te5 -115(3) . . . 3 ?
Te8 Te6 Te11 Te9 34(7) . . . . ?
Te8 Te6 Te11 Te11 48(9) . . . 8 ?
Te8 Te6 Te11 Te12 -27(12) . . . . ?
Te8 Te6 Te11 Te13 -38(5) . . . . ?
Te8 Te6 Te11 Te14 -66(7) . . . . ?
Te8 Te6 Te13 Te2 55(5) . . . . ?
Te8 Te6 Te13 Te3 18(3) . . . 3_665 ?
Te8 Te6 Te13 Te4 92(6) . . . . ?
Te8 Te6 Te13 Te5 166(8) . . . 3 ?
Te8 Te6 Te13 Te5 -57(5) . . . . ?
Te8 Te6 Te13 Te7 -69(7) . . . . ?
Te8 Te6 Te13 Te9 69(7) . . . . ?
Te8 Te6 Te13 Te11 105(8) . . . . ?
Te8 Te6 Te13 Te12 99(9) . . . . ?
Te8 Te6 Te13 Te14 -127(13) . . . . ?
Te8 Te6 Te14 Te5 115(7) . . . 3 ?
Te8 Te6 Te14 Te5 -35(5) . . . . ?
Te8 Te6 Te14 Te6 -89(7) . . . 12 ?
Te8 Te6 Te14 Te7 -47(9) . . . . ?
Te8 Te6 Te14 Te7 -153(9) . . . 12 ?
Te8 Te6 Te14 Te9 42(5) . . . . ?
Te8 Te6 Te14 Te10 158(7) . . . 3 ?
Te8 Te6 Te14 Te11 67(4) . . . . ?
Te8 Te6 Te14 Te13 31(8) . . . . ?
Te8 Te6 Te14 Te14 -111(9) . . . 12 ?
Te8 Te7 Te9 Te1 -103(3) . . . 3 ?
Te8 Te7 Te9 Te2 -7(3) . . . . ?
Te8 Te7 Te9 Te4 -57(4) . . . . ?
Te8 Te7 Te9 Te5 -122(3) . . . 3 ?
Te8 Te7 Te9 Te6 151(6) . . . . ?
Te8 Te7 Te9 Te6 125(5) . . . 12 ?
Te8 Te7 Te9 Te11 -86(6) . . . . ?
Te8 Te7 Te9 Te12 -60(3) . . . . ?
Te8 Te7 Te9 Te13 -67(7) . . . . ?
Te8 Te7 Te9 Te14 -155(10) . . . . ?
Te8 Te7 Te10 Te1 12(4) . . . . ?
Te8 Te7 Te10 Te1 -135(5) . . . 11 ?
Te8 Te7 Te10 Te5 22(5) . . . . ?
Te8 Te7 Te10 Te5 -154(6) . . . 11 ?
Te8 Te7 Te10 Te6 63(7) . . . 2 ?
Te8 Te7 Te10 Te6 -121(7) . . . 12 ?
Te8 Te7 Te10 Te7 131(6) . . . 11 ?
Te8 Te7 Te10 Te14 -158(9) . . . 12 ?
Te8 Te7 Te10 Te14 80(6) . . . 2 ?
Te8 Te7 Te10 Te14 120(5) . . . 11 ?
Te8 Te7 Te10 Te14 165(16) . . . . ?
Te8 Te7 Te13 Te2 39(6) . . . . ?
Te8 Te7 Te13 Te3 -15(3) . . . 3_665 ?
Te8 Te7 Te13 Te4 70(12) . . . . ?
Te8 Te7 Te13 Te5 -59(6) . . . . ?
Te8 Te7 Te13 Te5 161(9) . . . 3 ?
Te8 Te7 Te13 Te6 102(6) . . . . ?
Te8 Te7 Te13 Te9 81(6) . . . . ?
Te8 Te7 Te13 Te11 96(12) . . . . ?
Te8 Te7 Te13 Te12 20(68) . . . . ?
Te8 Te7 Te13 Te14 135(10) . . . . ?
Te8 Te7 Te14 Te5 -77(13) . . . 3 ?
Te8 Te7 Te14 Te5 -64(18) . . . . ?
Te8 Te7 Te14 Te6 116(6) . . . 12 ?
Te8 Te7 Te14 Te6 77(11) . . . . ?
Te8 Te7 Te14 Te7 165(6) . . . 12 ?
Te8 Te7 Te14 Te9 22(8) . . . . ?
Te8 Te7 Te14 Te10 -144(12) . . . 3 ?
Te8 Te7 Te14 Te11 -9(10) . . . . ?
Te8 Te7 Te14 Te13 -35(7) . . . . ?
Te8 Te7 Te14 Te14 155(7) . . . 12 ?
Te8 Te8 Te9 Te1 -52(3) 7 . . 3 ?
Te8 Te8 Te9 Te2 20(2) 7 . . . ?
Te8 Te8 Te9 Te4 -10(3) 7 . . . ?
Te8 Te8 Te9 Te5 -89(3) 7 . . 3 ?
Te8 Te8 Te9 Te6 179(6) 7 . . . ?
Te8 Te8 Te9 Te6 173(3) 7 . . 12 ?
Te8 Te8 Te9 Te7 -152(3) 7 . . . ?
Te8 Te8 Te9 Te11 -38(5) 7 . . . ?
Te8 Te8 Te9 Te12 -37(6) 7 . . . ?
Te8 Te8 Te9 Te13 -93(7) 7 . . . ?
Te8 Te8 Te9 Te14 -138(4) 7 . . . ?
Te8 Te8 Te13 Te2 70(5) 7 . . . ?
Te8 Te8 Te13 Te3 -2.5(16) 7 . . 3_665 ?
Te8 Te8 Te13 Te4 62(6) 7 . . . ?
Te8 Te8 Te13 Te5 -110(5) 7 . . . ?
Te8 Te8 Te13 Te5 100(26) 7 . . 3 ?
Te8 Te8 Te13 Te6 147(5) 7 . . . ?
Te8 Te8 Te13 Te7 -153(7) 7 . . . ?
Te8 Te8 Te13 Te9 116(5) 7 . . . ?
Te8 Te8 Te13 Te11 80(8) 7 . . . ?
Te8 Te8 Te13 Te12 31(12) 7 . . . ?
Te8 Te8 Te13 Te14 172(8) 7 . . . ?
Te8 Te8 Te14 Te5 -107(8) 7 . . . ?
Te8 Te8 Te14 Te5 7(11) 7 . . 3 ?
Te8 Te8 Te14 Te6 176(7) 7 . . 12 ?
Te8 Te8 Te14 Te6 117(9) 7 . . . ?
Te8 Te8 Te14 Te7 -162(14) 7 . . 12 ?
Te8 Te8 Te14 Te7 -129(9) 7 . . . ?
Te8 Te8 Te14 Te9 77(8) 7 . . . ?
Te8 Te8 Te14 Te10 -5(19) 7 . . 3 ?
Te8 Te8 Te14 Te11 42(8) 7 . . . ?
Te8 Te8 Te14 Te13 -13(12) 7 . . . ?
Te8 Te8 Te14 Te14 -153(6) 7 . . 12 ?
Te8 Te9 Te11 Te1 43(3) . . . 7 ?
Te8 Te9 Te11 Te1 -129(11) . . . 3 ?
Te8 Te9 Te11 Te2 100(33) . . . 8 ?
Te8 Te9 Te11 Te2 50(3) . . . . ?
Te8 Te9 Te11 Te4 77(8) . . . . ?
Te8 Te9 Te11 Te5 -105(4) . . . 3 ?
Te8 Te9 Te11 Te6 -136(8) . . . . ?
Te8 Te9 Te11 Te11 51(4) . . . 8 ?
Te8 Te9 Te11 Te12 1(12) . . . . ?
Te8 Te9 Te11 Te13 -40(6) . . . . ?
Te8 Te9 Te11 Te14 -86(6) . . . . ?
Te8 Te9 Te12 Te1 -160(8) . . . 3 ?
Te8 Te9 Te12 Te1 64(6) . . . 7 ?
Te8 Te9 Te12 Te2 169(8) . . . 8 ?
Te8 Te9 Te12 Te2 64(4) . . . . ?
Te8 Te9 Te12 Te3 -137(14) . . . 2_545 ?
Te8 Te9 Te12 Te4 130(3) . . . . ?
Te8 Te9 Te12 Te9 130(3) . . . 8 ?
Te8 Te9 Te12 Te11 110(5) . . . 8 ?
Te8 Te9 Te12 Te11 -178(12) . . . . ?
Te8 Te9 Te12 Te13 121(21) . . . 8 ?
Te8 Te9 Te12 Te13 -53(6) . . . . ?
Te8 Te9 Te13 Te2 52(5) . . . . ?
Te8 Te9 Te13 Te3 27(3) . . . 3_665 ?
Te8 Te9 Te13 Te4 99(5) . . . . ?
Te8 Te9 Te13 Te5 175(7) . . . 3 ?
Te8 Te9 Te13 Te5 -44(5) . . . . ?
Te8 Te9 Te13 Te6 -109(7) . . . . ?
Te8 Te9 Te13 Te7 -73(7) . . . . ?
Te8 Te9 Te13 Te11 124(7) . . . . ?
Te8 Te9 Te13 Te12 97(7) . . . . ?
Te8 Te9 Te13 Te14 -118(8) . . . . ?
Te8 Te9 Te14 Te5 -3(3) . . . . ?
Te8 Te9 Te14 Te5 119(4) . . . 3 ?
Te8 Te9 Te14 Te6 -86(5) . . . 12 ?
Te8 Te9 Te14 Te6 -127(7) . . . . ?
Te8 Te9 Te14 Te7 -148(13) . . . 12 ?
Te8 Te9 Te14 Te7 -20(8) . . . . ?
Te8 Te9 Te14 Te10 151(6) . . . 3 ?
Te8 Te9 Te14 Te11 102(5) . . . . ?
Te8 Te9 Te14 Te13 42(6) . . . . ?
Te8 Te9 Te14 Te14 -88(15) . . . 12 ?
Te8 Te13 Te14 Te5 -161(8) . . . 3 ?
Te8 Te13 Te14 Te5 55(6) . . . . ?
Te8 Te13 Te14 Te6 -58(13) . . . . ?
Te8 Te13 Te14 Te6 12(14) . . . 12 ?
Te8 Te13 Te14 Te7 46(10) . . . . ?
Te8 Te13 Te14 Te7 136(33) . . . 12 ?
Te8 Te13 Te14 Te9 -68(7) . . . . ?
Te8 Te13 Te14 Te10 -176(6) . . . 3 ?
Te8 Te13 Te14 Te11 -105(10) . . . . ?
Te8 Te13 Te14 Te14 60(13) . . . 12 ?
Te9 Te1 Te5 Te3 131(2) 2 . . 3_665 ?
Te9 Te1 Te5 Te7 155(7) 2 . . . ?
Te9 Te1 Te5 Te8 150(3) 2 . . . ?
Te9 Te1 Te5 Te10 -77(8) 2 . . . ?
Te9 Te1 Te5 Te11 7(3) 2 . . 2 ?
Te9 Te1 Te5 Te12 53(7) 2 . . 2 ?
Te9 Te1 Te5 Te13 36(3) 2 . . 2 ?
Te9 Te1 Te5 Te13 119(4) 2 . . . ?
Te9 Te1 Te5 Te14 136(4) 2 . . . ?
Te9 Te1 Te5 Te14 7(4) 2 . . 2 ?
Te9 Te1 Te7 Te5 -51(2) 2 . . 11 ?
Te9 Te1 Te7 Te5 -24(6) 2 . . . ?
Te9 Te1 Te7 Te6 159(7) 2 . . . ?
Te9 Te1 Te7 Te6 -122(7) 2 . . 12 ?
Te9 Te1 Te7 Te8 150(3) 2 . . . ?
Te9 Te1 Te7 Te9 141(3) 2 . . . ?
Te9 Te1 Te7 Te10 -45(3) 2 . . . ?
Te9 Te1 Te7 Te13 102(5) 2 . . . ?
Te9 Te1 Te7 Te14 -64(12) 2 . . 12 ?
Te9 Te1 Te7 Te14 108(12) 2 . . . ?
Te9 Te1 Te8 Te1 115(3) 2 . . 7 ?
Te9 Te1 Te8 Te2 116(6) 2 . . . ?
Te9 Te1 Te8 Te3 114(4) 2 . . 3_665 ?
Te9 Te1 Te8 Te5 -35(3) 2 . . . ?
Te9 Te1 Te8 Te7 -37(4) 2 . . . ?
Te9 Te1 Te8 Te8 121(2) 2 . . 7 ?
Te9 Te1 Te8 Te9 -12(11) 2 . . . ?
Te9 Te1 Te8 Te11 41(8) 2 . . . ?
Te9 Te1 Te8 Te12 65(5) 2 . . . ?
Te9 Te1 Te8 Te13 14(7) 2 . . . ?
Te9 Te1 Te8 Te14 -22(5) 2 . . . ?
Te9 Te2 Te4 Te1 163(3) . . . 7 ?
Te9 Te2 Te4 Te1 33(4) . . . 3 ?
Te9 Te2 Te4 Te2 88.3(14) . . . 8 ?
Te9 Te2 Te4 Te5 153(2) . . . 7 ?
Te9 Te2 Te4 Te9 158(5) . . . 8 ?
Te9 Te2 Te4 Te11 155(5) . . . 8 ?
Te9 Te2 Te4 Te11 17(5) . . . . ?
Te9 Te2 Te4 Te12 88.3(14) . . . . ?
Te9 Te2 Te4 Te13 123(4) . . . 8 ?
Te9 Te2 Te4 Te13 47(4) . . . . ?
Te9 Te2 Te8 Te1 -157(3) . . . 7 ?
Te9 Te2 Te8 Te1 -158(7) . . . . ?
Te9 Te2 Te8 Te3 -156(5) . . . 3_665 ?
Te9 Te2 Te8 Te5 -45(10) . . . . ?
Te9 Te2 Te8 Te7 -8(4) . . . . ?
Te9 Te2 Te8 Te8 -163.4(17) . . . 7 ?
Te9 Te2 Te8 Te11 -37(3) . . . . ?
Te9 Te2 Te8 Te12 -86(3) . . . . ?
Te9 Te2 Te8 Te13 -46(5) . . . . ?
Te9 Te2 Te8 Te14 -14(3) . . . . ?
Te9 Te2 Te11 Te1 179(10) . . . 3 ?
Te9 Te2 Te11 Te1 167(4) . . . 7 ?
Te9 Te2 Te11 Te2 -172(5) . . . 8 ?
Te9 Te2 Te11 Te4 -155(7) . . . . ?
Te9 Te2 Te11 Te5 71(15) . . . 3 ?
Te9 Te2 Te11 Te6 -2(3) . . . . ?
Te9 Te2 Te11 Te11 -179(2) . . . 8 ?
Te9 Te2 Te11 Te12 139(10) . . . . ?
Te9 Te2 Te11 Te13 65(5) . . . . ?
Te9 Te2 Te11 Te14 30(4) . . . . ?
Te9 Te2 Te12 Te1 179(4) . . . 7 ?
Te9 Te2 Te12 Te1 -45(7) . . . 3 ?
Te9 Te2 Te12 Te2 -87.5(17) . . . 8 ?
Te9 Te2 Te12 Te3 -53(19) . . . 2_545 ?
Te9 Te2 Te12 Te4 -87.5(17) . . . . ?
Te9 Te2 Te12 Te9 -131(6) . . . 8 ?
Te9 Te2 Te12 Te11 -27(6) . . . . ?
Te9 Te2 Te12 Te11 -136(8) . . . 8 ?
Te9 Te2 Te12 Te13 -167(18) . . . 8 ?
Te9 Te2 Te12 Te13 39(6) . . . . ?
Te9 Te2 Te13 Te3 148(5) . . . 3_665 ?
Te9 Te2 Te13 Te4 -85(4) . . . . ?
Te9 Te2 Te13 Te5 -61(5) . . . 3 ?
Te9 Te2 Te13 Te5 110(7) . . . . ?
Te9 Te2 Te13 Te6 10(3) . . . . ?
Te9 Te2 Te13 Te7 63(8) . . . . ?
Te9 Te2 Te13 Te8 110(6) . . . . ?
Te9 Te2 Te13 Te11 -58(5) . . . . ?
Te9 Te2 Te13 Te12 -121(9) . . . . ?
Te9 Te2 Te13 Te14 9(6) . . . . ?
Te9 Te4 Te9 Te1 72(2) 8 . . 3 ?
Te9 Te4 Te9 Te2 -82(3) 8 . . . ?
Te9 Te4 Te9 Te5 62.6(11) 8 . . 3 ?
Te9 Te4 Te9 Te6 117(12) 8 . . . ?
Te9 Te4 Te9 Te7 -5(4) 8 . . . ?
Te9 Te4 Te9 Te8 -46.6(18) 8 . . . ?
Te9 Te4 Te9 Te11 61(8) 8 . . . ?
Te9 Te4 Te9 Te12 0.001(6) 8 . . . ?
Te9 Te4 Te9 Te13 2(5) 8 . . . ?
Te9 Te4 Te9 Te14 40(6) 8 . . . ?
Te9 Te4 Te11 Te1 37(8) 8 . . 3 ?
Te9 Te4 Te11 Te1 -103(10) 8 . . 7 ?
Te9 Te4 Te11 Te1 -168(9) . . . 3 ?
Te9 Te4 Te11 Te1 52(9) . . . 7 ?
Te9 Te4 Te11 Te2 31(5) 8 . . 8 ?
Te9 Te4 Te11 Te2 -127(8) 8 . . . ?
Te9 Te4 Te11 Te2 -174(6) . . . 8 ?
Te9 Te4 Te11 Te2 28(7) . . . . ?
Te9 Te4 Te11 Te5 27(13) 8 . . 3 ?
Te9 Te4 Te11 Te5 -178(14) . . . 3 ?
Te9 Te4 Te11 Te6 -24(7) . . . . ?
Te9 Te4 Te11 Te6 -180(7) 8 . . . ?
Te9 Te4 Te11 Te9 -155(5) 8 . . . ?
Te9 Te4 Te11 Te11 -43(8) 8 . . 8 ?
Te9 Te4 Te11 Te11 112(8) . . . 8 ?
Te9 Te4 Te11 Te12 -43(8) 8 . . . ?
Te9 Te4 Te11 Te12 112(8) . . . . ?
Te9 Te4 Te11 Te13 79(12) . . . . ?
Te9 Te4 Te11 Te13 -76(13) 8 . . . ?
Te9 Te4 Te11 Te14 -110(26) 8 . . . ?
Te9 Te4 Te11 Te14 45(24) . . . . ?
Te9 Te4 Te12 Te1 -86.1(13) 8 . . 7 ?
Te9 Te4 Te12 Te1 -86.1(13) . . . 3 ?
Te9 Te4 Te12 Te1 93.9(13) 8 . . 3 ?
Te9 Te4 Te12 Te1 93.9(13) . . . 7 ?
Te9 Te4 Te12 Te2 49.1(13) . . . . ?
Te9 Te4 Te12 Te2 -130.9(13) . . . 8 ?
Te9 Te4 Te12 Te2 -130.9(13) 8 . . . ?
Te9 Te4 Te12 Te2 49.1(13) 8 . . 8 ?
Te9 Te4 Te12 Te3 61.9(8) 8 . . 2_545 ?
Te9 Te4 Te12 Te3 -118.1(8) . . . 2_545 ?
Te9 Te4 Te12 Te9 180.000(6) 8 . . . ?
Te9 Te4 Te12 Te9 180.000(4) . . . 8 ?
Te9 Te4 Te12 Te11 154(5) . . . 8 ?
Te9 Te4 Te12 Te11 -26(5) . . . . ?
Te9 Te4 Te12 Te11 154(5) 8 . . . ?
Te9 Te4 Te12 Te11 -26(5) 8 . . 8 ?
Te9 Te4 Te12 Te13 178(4) 8 . . . ?
Te9 Te4 Te12 Te13 178(4) . . . 8 ?
Te9 Te4 Te12 Te13 -2(4) 8 . . 8 ?
Te9 Te4 Te12 Te13 -2(4) . . . . ?
Te9 Te4 Te13 Te2 -114(3) 8 . . . ?
Te9 Te4 Te13 Te2 65(4) . . . . ?
Te9 Te4 Te13 Te3 -73(4) 8 . . 3_665 ?
Te9 Te4 Te13 Te3 106(5) . . . 3_665 ?
Te9 Te4 Te13 Te5 -91(5) . . . 3 ?
Te9 Te4 Te13 Te5 -88(11) 8 . . . ?
Te9 Te4 Te13 Te5 90(4) 8 . . 3 ?
Te9 Te4 Te13 Te5 91(11) . . . . ?
Te9 Te4 Te13 Te6 166(3) 8 . . . ?
Te9 Te4 Te13 Te6 -15(3) . . . . ?
Te9 Te4 Te13 Te7 13(11) . . . . ?
Te9 Te4 Te13 Te7 -166(12) 8 . . . ?
Te9 Te4 Te13 Te8 -102(5) 8 . . . ?
Te9 Te4 Te13 Te8 77(6) . . . . ?
Te9 Te4 Te13 Te9 -179.1(18) 8 . . . ?
Te9 Te4 Te13 Te11 -49(10) . . . . ?
Te9 Te4 Te13 Te11 131(11) 8 . . . ?
Te9 Te4 Te13 Te12 -2(5) 8 . . . ?
Te9 Te4 Te13 Te12 177(7) . . . . ?
Te9 Te4 Te13 Te14 147(7) 8 . . . ?
Te9 Te4 Te13 Te14 -34(6) . . . . ?
Te9 Te5 Te7 Te1 138(11) 2 . . . ?
Te9 Te5 Te7 Te5 -69(7) 2 . . 11 ?
Te9 Te5 Te7 Te6 -120(7) 2 . . 12 ?
Te9 Te5 Te7 Te6 144(15) 2 . . . ?
Te9 Te5 Te7 Te7 -30(19) 2 . . 12 ?
Te9 Te5 Te7 Te8 133(6) 2 . . . ?
Te9 Te5 Te7 Te9 120(6) 2 . . . ?
Te9 Te5 Te7 Te10 -67(7) 2 . . . ?
Te9 Te5 Te7 Te13 84(9) 2 . . . ?
Te9 Te5 Te7 Te14 60(23) 2 . . . ?
Te9 Te5 Te7 Te14 -67(13) 2 . . 12 ?
Te9 Te5 Te8 Te1 44(4) 2 . . . ?
Te9 Te5 Te8 Te1 -22(10) 2 . . 7 ?
Te9 Te5 Te8 Te2 -92(11) 2 . . . ?
Te9 Te5 Te8 Te3 13(8) 2 . . 3_665 ?
Te9 Te5 Te8 Te7 -139(6) 2 . . . ?
Te9 Te5 Te8 Te8 20(5) 2 . . 7 ?
Te9 Te5 Te8 Te9 -127(4) 2 . . . ?
Te9 Te5 Te8 Te11 -98(5) 2 . . . ?
Te9 Te5 Te8 Te12 -60(7) 2 . . . ?
Te9 Te5 Te8 Te13 -91(7) 2 . . . ?
Te9 Te5 Te8 Te14 -124(4) 2 . . . ?
Te9 Te5 Te10 Te1 -114(7) 2 . . 11 ?
Te9 Te5 Te10 Te1 -72(8) 2 . . . ?
Te9 Te5 Te10 Te6 -3(3) 2 . . 2 ?
Te9 Te5 Te10 Te6 173(3) 2 . . 12 ?
Te9 Te5 Te10 Te7 145(4) 2 . . . ?
Te9 Te5 Te10 Te7 22(6) 2 . . 11 ?
Te9 Te5 Te10 Te14 34(4) 2 . . 11 ?
Te9 Te5 Te10 Te14 133(3) 2 . . . ?
Te9 Te5 Te10 Te14 25(4) 2 . . 2 ?
Te9 Te5 Te10 Te14 145(4) 2 . . 12 ?
Te9 Te5 Te13 Te2 125(5) 2 . . . ?
Te9 Te5 Te13 Te3 93(4) 2 . . 3_665 ?
Te9 Te5 Te13 Te4 109(10) 2 . . . ?
Te9 Te5 Te13 Te5 -69(10) 2 . . 3 ?
Te9 Te5 Te13 Te6 -150(4) 2 . . . ?
Te9 Te5 Te13 Te7 -133(6) 2 . . . ?
Te9 Te5 Te13 Te8 125(5) 2 . . . ?
Te9 Te5 Te13 Te9 179(6) 2 . . . ?
Te9 Te5 Te13 Te11 153(23) 2 . . . ?
Te9 Te5 Te13 Te12 62(14) 2 . . . ?
Te9 Te5 Te13 Te14 -123(7) 2 . . . ?
Te9 Te5 Te14 Te5 38(7) 2 . . 3 ?
Te9 Te5 Te14 Te6 -177(8) 2 . . . ?
Te9 Te5 Te14 Te6 -132(3) 2 . . 12 ?
Te9 Te5 Te14 Te7 -78(8) 2 . . 12 ?
Te9 Te5 Te14 Te7 -133(19) 2 . . . ?
Te9 Te5 Te14 Te8 127(4) 2 . . . ?
Te9 Te5 Te14 Te9 131(5) 2 . . . ?
Te9 Te5 Te14 Te10 -15(9) 2 . . 3 ?
Te9 Te5 Te14 Te11 97(5) 2 . . . ?
Te9 Te5 Te14 Te13 81(8) 2 . . . ?
Te9 Te5 Te14 Te14 -96(4) 2 . . 12 ?
Te9 Te6 Te7 Te1 134(6) 12 . . . ?
Te9 Te6 Te7 Te1 -31(8) . . . . ?
Te9 Te6 Te7 Te5 -178(5) . . . 11 ?
Te9 Te6 Te7 Te5 -35(20) . . . . ?
Te9 Te6 Te7 Te5 131(18) 12 . . . ?
Te9 Te6 Te7 Te5 -13(4) 12 . . 11 ?
Te9 Te6 Te7 Te6 -147(7) . . . 12 ?
Te9 Te6 Te7 Te6 18(4) 12 . . 12 ?
Te9 Te6 Te7 Te7 141(7) . . . 12 ?
Te9 Te6 Te7 Te7 -53(4) 12 . . 12 ?
Te9 Te6 Te7 Te8 -25(5) . . . . ?
Te9 Te6 Te7 Te8 141(4) 12 . . . ?
Te9 Te6 Te7 Te9 165(6) 12 . . . ?
Te9 Te6 Te7 Te10 -7(9) 12 . . . ?
Te9 Te6 Te7 Te10 -172(9) . . . . ?
Te9 Te6 Te7 Te13 -167(6) 12 . . . ?
Te9 Te6 Te7 Te13 27(6) . . . . ?
Te9 Te6 Te7 Te14 -24(5) 12 . . 12 ?
Te9 Te6 Te7 Te14 82(11) . . . . ?
Te9 Te6 Te7 Te14 170(7) . . . 12 ?
Te9 Te6 Te7 Te14 -112(12) 12 . . . ?
Te9 Te6 Te9 Te1 -132(11) 12 . . 3 ?
Te9 Te6 Te9 Te2 61(24) 12 . . . ?
Te9 Te6 Te9 Te4 -165(5) 12 . . . ?
Te9 Te6 Te9 Te5 -112(13) 12 . . 3 ?
Te9 Te6 Te9 Te6 9(9) 12 . . 12 ?
Te9 Te6 Te9 Te7 -27(11) 12 . . . ?
Te9 Te6 Te9 Te8 -2(16) 12 . . . ?
Te9 Te6 Te9 Te11 -135(10) 12 . . . ?
Te9 Te6 Te9 Te12 -94(18) 12 . . . ?
Te9 Te6 Te9 Te13 -54(15) 12 . . . ?
Te9 Te6 Te9 Te14 -62(12) 12 . . . ?
Te9 Te6 Te11 Te1 -83(14) 12 . . 3 ?
Te9 Te6 Te11 Te1 -176(10) . . . 3 ?
Te9 Te6 Te11 Te1 92(14) 12 . . 7 ?
Te9 Te6 Te11 Te1 -1(8) . . . 7 ?
Te9 Te6 Te11 Te2 5(7) . . . . ?
Te9 Te6 Te11 Te2 -111(13) 12 . . 8 ?
Te9 Te6 Te11 Te2 97(13) 12 . . . ?
Te9 Te6 Te11 Te2 156(14) . . . 8 ?
Te9 Te6 Te11 Te4 50(13) . . . . ?
Te9 Te6 Te11 Te4 142(11) 12 . . . ?
Te9 Te6 Te11 Te5 -57(14) 12 . . 3 ?
Te9 Te6 Te11 Te5 -149(9) . . . 3 ?
Te9 Te6 Te11 Te9 92(15) 12 . . . ?
Te9 Te6 Te11 Te11 14(13) . . . 8 ?
Te9 Te6 Te11 Te11 106(12) 12 . . 8 ?
Te9 Te6 Te11 Te12 31(22) 12 . . . ?
Te9 Te6 Te11 Te12 -61(15) . . . . ?
Te9 Te6 Te11 Te13 -72(8) . . . . ?
Te9 Te6 Te11 Te13 20(15) 12 . . . ?
Te9 Te6 Te11 Te14 -100(10) . . . . ?
Te9 Te6 Te11 Te14 -8(11) 12 . . . ?
Te9 Te6 Te13 Te2 -14(4) . . . . ?
Te9 Te6 Te13 Te2 138(4) 12 . . . ?
Te9 Te6 Te13 Te3 101(7) 12 . . 3_665 ?
Te9 Te6 Te13 Te3 -51(7) . . . 3_665 ?
Te9 Te6 Te13 Te4 23(5) . . . . ?
Te9 Te6 Te13 Te4 175(4) 12 . . . ?
Te9 Te6 Te13 Te5 98(6) . . . 3 ?
Te9 Te6 Te13 Te5 26(7) 12 . . . ?
Te9 Te6 Te13 Te5 -126(8) . . . . ?
Te9 Te6 Te13 Te5 -110(5) 12 . . 3 ?
Te9 Te6 Te13 Te7 14(6) 12 . . . ?
Te9 Te6 Te13 Te7 -138(9) . . . . ?
Te9 Te6 Te13 Te8 -69(7) . . . . ?
Te9 Te6 Te13 Te8 83(7) 12 . . . ?
Te9 Te6 Te13 Te9 152(8) 12 . . . ?
Te9 Te6 Te13 Te11 -172(6) 12 . . . ?
Te9 Te6 Te13 Te11 36(5) . . . . ?
Te9 Te6 Te13 Te12 30(6) . . . . ?
Te9 Te6 Te13 Te12 -178(5) 12 . . . ?
Te9 Te6 Te13 Te14 165(15) . . . . ?
Te9 Te6 Te13 Te14 -44(11) 12 . . . ?
Te9 Te6 Te14 Te5 75(7) 12 . . . ?
Te9 Te6 Te14 Te5 -135(5) 12 . . 3 ?
Te9 Te6 Te14 Te5 73(7) . . . 3 ?
Te9 Te6 Te14 Te5 -77(7) . . . . ?
Te9 Te6 Te14 Te6 -131(8) . . . 12 ?
Te9 Te6 Te14 Te6 21(4) 12 . . 12 ?
Te9 Te6 Te14 Te7 165(8) . . . 12 ?
Te9 Te6 Te14 Te7 63(10) 12 . . . ?
Te9 Te6 Te14 Te7 -44(7) 12 . . 12 ?
Te9 Te6 Te14 Te7 -89(10) . . . . ?
Te9 Te6 Te14 Te8 110(4) 12 . . . ?
Te9 Te6 Te14 Te8 -42(5) . . . . ?
Te9 Te6 Te14 Te9 152(5) 12 . . . ?
Te9 Te6 Te14 Te10 -93(4) 12 . . 3 ?
Te9 Te6 Te14 Te10 116(6) . . . 3 ?
Te9 Te6 Te14 Te11 25(4) . . . . ?
Te9 Te6 Te14 Te11 177(4) 12 . . . ?
Te9 Te6 Te14 Te13 141(9) 12 . . . ?
Te9 Te6 Te14 Te13 -11(10) . . . . ?
Te9 Te6 Te14 Te14 -153(9) . . . 12 ?
Te9 Te6 Te14 Te14 -1(8) 12 . . 12 ?
Te9 Te7 Te8 Te1 31(5) . . . 7 ?
Te9 Te7 Te8 Te1 171(3) . . . . ?
Te9 Te7 Te8 Te2 7(3) . . . . ?
Te9 Te7 Te8 Te3 115(11) . . . 3_665 ?
Te9 Te7 Te8 Te5 168(4) . . . . ?
Te9 Te7 Te8 Te8 122(11) . . . 7 ?
Te9 Te7 Te8 Te11 24.7(19) . . . . ?
Te9 Te7 Te8 Te12 53(7) . . . . ?
Te9 Te7 Te8 Te13 55(6) . . . . ?
Te9 Te7 Te8 Te14 18(7) . . . . ?
Te9 Te7 Te13 Te2 -42(4) . . . . ?
Te9 Te7 Te13 Te3 -96(6) . . . 3_665 ?
Te9 Te7 Te13 Te4 -11(9) . . . . ?
Te9 Te7 Te13 Te5 -140(6) . . . . ?
Te9 Te7 Te13 Te5 81(7) . . . 3 ?
Te9 Te7 Te13 Te6 21(5) . . . . ?
Te9 Te7 Te13 Te8 -81(6) . . . . ?
Te9 Te7 Te13 Te11 15(7) . . . . ?
Te9 Te7 Te13 Te12 -60(69) . . . . ?
Te9 Te7 Te13 Te14 54(8) . . . . ?
Te9 Te7 Te14 Te5 -99(15) . . . 3 ?
Te9 Te7 Te14 Te5 -87(19) . . . . ?
Te9 Te7 Te14 Te6 55(8) . . . . ?
Te9 Te7 Te14 Te6 94(6) . . . 12 ?
Te9 Te7 Te14 Te7 143(12) . . . 12 ?
Te9 Te7 Te14 Te8 -22(8) . . . . ?
Te9 Te7 Te14 Te10 -166(19) . . . 3 ?
Te9 Te7 Te14 Te11 -32(4) . . . . ?
Te9 Te7 Te14 Te13 -57(7) . . . . ?
Te9 Te7 Te14 Te14 133(4) . . . 12 ?
Te9 Te8 Te13 Te2 -45(4) . . . . ?
Te9 Te8 Te13 Te3 -118(5) . . . 3_665 ?
Te9 Te8 Te13 Te4 -54(4) . . . . ?
Te9 Te8 Te13 Te5 134(5) . . . . ?
Te9 Te8 Te13 Te5 -15(23) . . . 3 ?
Te9 Te8 Te13 Te6 31(3) . . . . ?
Te9 Te8 Te13 Te7 91(7) . . . . ?
Te9 Te8 Te13 Te11 -36(5) . . . . ?
Te9 Te8 Te13 Te12 -85(10) . . . . ?
Te9 Te8 Te13 Te14 56(8) . . . . ?
Te9 Te8 Te14 Te5 -70(5) . . . 3 ?
Te9 Te8 Te14 Te5 176(5) . . . . ?
Te9 Te8 Te14 Te6 99(5) . . . 12 ?
Te9 Te8 Te14 Te6 40(6) . . . . ?
Te9 Te8 Te14 Te7 120(19) . . . 12 ?
Te9 Te8 Te14 Te7 154(10) . . . . ?
Te9 Te8 Te14 Te10 -82(14) . . . 3 ?
Te9 Te8 Te14 Te11 -35(3) . . . . ?
Te9 Te8 Te14 Te13 -90(10) . . . . ?
Te9 Te8 Te14 Te14 130(5) . . . 12 ?
Te9 Te11 Te12 Te1 62(13) . . . 7 ?
Te9 Te11 Te12 Te1 -157(9) . . . 3 ?
Te9 Te11 Te12 Te2 45(10) . . . . ?
Te9 Te11 Te12 Te2 168(7) . . . 8 ?
Te9 Te11 Te12 Te3 -145(7) . . . 2_545 ?
Te9 Te11 Te12 Te4 114(10) . . . . ?
Te9 Te11 Te12 Te9 138(6) . . . 8 ?
Te9 Te11 Te12 Te11 114(10) . . . 8 ?
Te9 Te11 Te12 Te13 -39(9) . . . . ?
Te9 Te11 Te12 Te13 160(17) . . . 8 ?
Te9 Te11 Te13 Te2 68(5) . . . . ?
Te9 Te11 Te13 Te3 90(6) . . . 3_665 ?
Te9 Te11 Te13 Te4 114(11) . . . . ?
Te9 Te11 Te13 Te5 34(23) . . . . ?
Te9 Te11 Te13 Te5 -114(6) . . . 3 ?
Te9 Te11 Te13 Te6 -28(4) . . . . ?
Te9 Te11 Te13 Te7 -22(11) . . . . ?
Te9 Te11 Te13 Te8 58(7) . . . . ?
Te9 Te11 Te13 Te12 144(8) . . . . ?
Te9 Te11 Te13 Te14 -51(7) . . . . ?
Te9 Te11 Te14 Te5 83(6) . . . . ?
Te9 Te11 Te14 Te5 -159(7) . . . 3 ?
Te9 Te11 Te14 Te6 -38(6) . . . . ?
Te9 Te11 Te14 Te6 -11(7) . . . 12 ?
Te9 Te11 Te14 Te7 -104(12) . . . 12 ?
Te9 Te11 Te14 Te7 69(9) . . . . ?
Te9 Te11 Te14 Te8 61(5) . . . . ?
Te9 Te11 Te14 Te10 -138(8) . . . 3 ?
Te9 Te11 Te14 Te13 100(9) . . . . ?
Te9 Te11 Te14 Te14 -31(43) . . . 12 ?
Te9 Te12 Te13 Te2 51(25) 8 . . . ?
Te9 Te12 Te13 Te2 40(6) . . . . ?
Te9 Te12 Te13 Te3 109(24) 8 . . 3_665 ?
Te9 Te12 Te13 Te3 98(6) . . . 3_665 ?
Te9 Te12 Te13 Te4 -3(6) . . . . ?
Te9 Te12 Te13 Te4 8(21) 8 . . . ?
Te9 Te12 Te13 Te5 -82(6) . . . 3 ?
Te9 Te12 Te13 Te5 140(14) 8 . . . ?
Te9 Te12 Te13 Te5 -71(22) 8 . . 3 ?
Te9 Te12 Te13 Te5 129(14) . . . . ?
Te9 Te12 Te13 Te6 -16(4) . . . . ?
Te9 Te12 Te13 Te6 -5(27) 8 . . . ?
Te9 Te12 Te13 Te7 61(68) . . . . ?
Te9 Te12 Te13 Te7 72(70) 8 . . . ?
Te9 Te12 Te13 Te8 91(22) 8 . . . ?
Te9 Te12 Te13 Te8 80(6) . . . . ?
Te9 Te12 Te13 Te9 11(26) 8 . . . ?
Te9 Te12 Te13 Te11 -24(6) . . . . ?
Te9 Te12 Te13 Te11 -13(23) 8 . . . ?
Te9 Te12 Te13 Te14 -45(12) . . . . ?
Te9 Te12 Te13 Te14 -34(34) 8 . . . ?
Te9 Te13 Te14 Te5 123(6) . . . . ?
Te9 Te13 Te14 Te5 -93(5) . . . 3 ?
Te9 Te13 Te14 Te6 80(8) . . . 12 ?
Te9 Te13 Te14 Te6 9(9) . . . . ?
Te9 Te13 Te14 Te7 114(8) . . . . ?
Te9 Te13 Te14 Te7 -156(36) . . . 12 ?
Te9 Te13 Te14 Te8 68(7) . . . . ?
Te9 Te13 Te14 Te10 -108(8) . . . 3 ?
Te9 Te13 Te14 Te11 -37(5) . . . . ?
Te9 Te13 Te14 Te14 128(10) . . . 12 ?
Te10 Te5 Te7 Te1 -155(6) . . . . ?
Te10 Te5 Te7 Te5 -2(3) . . . 11 ?
Te10 Te5 Te7 Te6 -149(19) . . . . ?
Te10 Te5 Te7 Te6 -53(8) . . . 12 ?
Te10 Te5 Te7 Te7 37(14) . . . 12 ?
Te10 Te5 Te7 Te8 -160(4) . . . . ?
Te10 Te5 Te7 Te9 -173(6) . . . . ?
Te10 Te5 Te7 Te13 152(7) . . . . ?
Te10 Te5 Te7 Te14 0(10) . . . 12 ?
Te10 Te5 Te7 Te14 127(20) . . . . ?
Te10 Te5 Te8 Te1 -152(6) . . . . ?
Te10 Te5 Te8 Te1 142(7) . . . 7 ?
Te10 Te5 Te8 Te2 72(12) . . . . ?
Te10 Te5 Te8 Te3 177(6) . . . 3_665 ?
Te10 Te5 Te8 Te7 24(6) . . . . ?
Te10 Te5 Te8 Te8 -176(5) . . . 7 ?
Te10 Te5 Te8 Te9 37(7) . . . . ?
Te10 Te5 Te8 Te11 66(7) . . . . ?
Te10 Te5 Te8 Te12 103(7) . . . . ?
Te10 Te5 Te8 Te13 73(8) . . . . ?
Te10 Te5 Te8 Te14 39(6) . . . . ?
Te10 Te5 Te13 Te2 -129(6) . . . . ?
Te10 Te5 Te13 Te3 -161(4) . . . 3_665 ?
Te10 Te5 Te13 Te4 -145(10) . . . . ?
Te10 Te5 Te13 Te5 37(10) . . . 3 ?
Te10 Te5 Te13 Te6 -44(6) . . . . ?
Te10 Te5 Te13 Te7 -27(6) . . . . ?
Te10 Te5 Te13 Te8 -129(6) . . . . ?
Te10 Te5 Te13 Te9 -75(9) . . . . ?
Te10 Te5 Te13 Te11 -101(24) . . . . ?
Te10 Te5 Te13 Te12 168(13) . . . . ?
Te10 Te5 Te13 Te14 -17(8) . . . . ?
Te10 Te5 Te14 Te5 121(6) . . . 3 ?
Te10 Te5 Te14 Te6 -94(9) . . . . ?
Te10 Te5 Te14 Te6 -49(4) . . . 12 ?
Te10 Te5 Te14 Te7 5(7) . . . 12 ?
Te10 Te5 Te14 Te7 -49(19) . . . . ?
Te10 Te5 Te14 Te8 -150(4) . . . . ?
Te10 Te5 Te14 Te9 -146(5) . . . . ?
Te10 Te5 Te14 Te10 68(7) . . . 3 ?
Te10 Te5 Te14 Te11 -180(5) . . . . ?
Te10 Te5 Te14 Te13 164(8) . . . . ?
Te10 Te5 Te14 Te14 -13(4) . . . 12 ?
Te10 Te6 Te7 Te1 -133(6) 3 . . . ?
Te10 Te6 Te7 Te5 80(4) 3 . . 11 ?
Te10 Te6 Te7 Te5 -136(18) 3 . . . ?
Te10 Te6 Te7 Te6 111(6) 3 . . 12 ?
Te10 Te6 Te7 Te7 40(4) 3 . . 12 ?
Te10 Te6 Te7 Te8 -126(4) 3 . . . ?
Te10 Te6 Te7 Te9 -101(5) 3 . . . ?
Te10 Te6 Te7 Te10 86(9) 3 . . . ?
Te10 Te6 Te7 Te13 -74(6) 3 . . . ?
Te10 Te6 Te7 Te14 69(6) 3 . . 12 ?
Te10 Te6 Te7 Te14 -19(11) 3 . . . ?
Te10 Te6 Te9 Te1 -24(5) 3 . . 3 ?
Te10 Te6 Te9 Te2 169(12) 3 . . . ?
Te10 Te6 Te9 Te4 -57(12) 3 . . . ?
Te10 Te6 Te9 Te5 -4(3) 3 . . 3 ?
Te10 Te6 Te9 Te6 117(6) 3 . . 12 ?
Te10 Te6 Te9 Te7 81(4) 3 . . . ?
Te10 Te6 Te9 Te8 106(4) 3 . . . ?
Te10 Te6 Te9 Te11 -27(9) 3 . . . ?
Te10 Te6 Te9 Te12 14(15) 3 . . . ?
Te10 Te6 Te9 Te13 54(7) 3 . . . ?
Te10 Te6 Te9 Te14 45(6) 3 . . . ?
Te10 Te6 Te11 Te1 152(3) 3 . . 7 ?
Te10 Te6 Te11 Te1 -23(5) 3 . . 3 ?
Te10 Te6 Te11 Te2 -51(12) 3 . . 8 ?
Te10 Te6 Te11 Te2 158(4) 3 . . . ?
Te10 Te6 Te11 Te4 -157(11) 3 . . . ?
Te10 Te6 Te11 Te5 4(3) 3 . . 3 ?
Te10 Te6 Te11 Te9 153(9) 3 . . . ?
Te10 Te6 Te11 Te11 167(7) 3 . . 8 ?
Te10 Te6 Te11 Te12 92(12) 3 . . . ?
Te10 Te6 Te11 Te13 81(6) 3 . . . ?
Te10 Te6 Te11 Te14 53(7) 3 . . . ?
Te10 Te6 Te13 Te2 -138(4) 3 . . . ?
Te10 Te6 Te13 Te3 -175(6) 3 . . 3_665 ?
Te10 Te6 Te13 Te4 -101(3) 3 . . . ?
Te10 Te6 Te13 Te5 -26(3) 3 . . 3 ?
Te10 Te6 Te13 Te5 110(5) 3 . . . ?
Te10 Te6 Te13 Te7 98(5) 3 . . . ?
Te10 Te6 Te13 Te8 167(6) 3 . . . ?
Te10 Te6 Te13 Te9 -124(7) 3 . . . ?
Te10 Te6 Te13 Te11 -88(5) 3 . . . ?
Te10 Te6 Te13 Te12 -94(7) 3 . . . ?
Te10 Te6 Te13 Te14 41(10) 3 . . . ?
Te10 Te6 Te14 Te5 -43(4) 3 . . 3 ?
Te10 Te6 Te14 Te5 167(10) 3 . . . ?
Te10 Te6 Te14 Te6 114(7) 3 . . 12 ?
Te10 Te6 Te14 Te7 49(6) 3 . . 12 ?
Te10 Te6 Te14 Te7 155(13) 3 . . . ?
Te10 Te6 Te14 Te8 -158(7) 3 . . . ?
Te10 Te6 Te14 Te9 -116(6) 3 . . . ?
Te10 Te6 Te14 Te11 -90(5) 3 . . . ?
Te10 Te6 Te14 Te13 -126(12) 3 . . . ?
Te10 Te6 Te14 Te14 91(9) 3 . . 12 ?
Te10 Te7 Te8 Te1 -156(5) . . . 7 ?
Te10 Te7 Te8 Te1 -17(6) . . . . ?
Te10 Te7 Te8 Te2 180(4) . . . . ?
Te10 Te7 Te8 Te3 -72(12) . . . 3_665 ?
Te10 Te7 Te8 Te5 -19(4) . . . . ?
Te10 Te7 Te8 Te8 -65(13) . . . 7 ?
Te10 Te7 Te8 Te9 173(6) . . . . ?
Te10 Te7 Te8 Te11 -163(5) . . . . ?
Te10 Te7 Te8 Te12 -135(8) . . . . ?
Te10 Te7 Te8 Te13 -132(9) . . . . ?
Te10 Te7 Te8 Te14 -170(11) . . . . ?
Te10 Te7 Te13 Te2 136(10) . . . . ?
Te10 Te7 Te13 Te3 82(12) . . . 3_665 ?
Te10 Te7 Te13 Te4 167(8) . . . . ?
Te10 Te7 Te13 Te5 38(10) . . . . ?
Te10 Te7 Te13 Te5 -102(12) . . . 3 ?
Te10 Te7 Te13 Te6 -161(13) . . . . ?
Te10 Te7 Te13 Te8 97(13) . . . . ?
Te10 Te7 Te13 Te9 178(11) . . . . ?
Te10 Te7 Te13 Te11 -167(10) . . . . ?
Te10 Te7 Te13 Te12 117(67) . . . . ?
Te10 Te7 Te13 Te14 -128(14) . . . . ?
Te10 Te7 Te14 Te5 90(17) . . . 3 ?
Te10 Te7 Te14 Te5 102(22) . . . . ?
Te10 Te7 Te14 Te6 -77(11) . . . 12 ?
Te10 Te7 Te14 Te6 -116(12) . . . . ?
Te10 Te7 Te14 Te7 -28(18) . . . 12 ?
Te10 Te7 Te14 Te8 167(14) . . . . ?
Te10 Te7 Te14 Te9 -171(8) . . . . ?
Te10 Te7 Te14 Te10 23(24) . . . 3 ?
Te10 Te7 Te14 Te11 157(8) . . . . ?
Te10 Te7 Te14 Te13 131(12) . . . . ?
Te10 Te7 Te14 Te14 -38(9) . . . 12 ?
Te11 Te1 Te5 Te3 87(4) 7 . . 3_665 ?
Te11 Te1 Te5 Te3 124(3) 2 . . 3_665 ?
Te11 Te1 Te5 Te7 110(7) 7 . . . ?
Te11 Te1 Te5 Te7 147(7) 2 . . . ?
Te11 Te1 Te5 Te8 105(4) 7 . . . ?
Te11 Te1 Te5 Te8 142(4) 2 . . . ?
Te11 Te1 Te5 Te9 -7(3) 2 . . 2 ?
Te11 Te1 Te5 Te9 -44(4) 7 . . 2 ?
Te11 Te1 Te5 Te10 -84(8) 2 . . . ?
Te11 Te1 Te5 Te10 -121(7) 7 . . . ?
Te11 Te1 Te5 Te11 -37(4) 7 . . 2 ?
Te11 Te1 Te5 Te12 46(7) 2 . . 2 ?
Te11 Te1 Te5 Te12 9(7) 7 . . 2 ?
Te11 Te1 Te5 Te13 112(4) 2 . . . ?
Te11 Te1 Te5 Te13 29(4) 2 . . 2 ?
Te11 Te1 Te5 Te13 -8(5) 7 . . 2 ?
Te11 Te1 Te5 Te13 75(6) 7 . . . ?
Te11 Te1 Te5 Te14 -38(6) 7 . . 2 ?
Te11 Te1 Te5 Te14 92(6) 7 . . . ?
Te11 Te1 Te5 Te14 129(5) 2 . . . ?
Te11 Te1 Te5 Te14 0(5) 2 . . 2 ?
Te11 Te1 Te7 Te5 -32(7) 2 . . . ?
Te11 Te1 Te7 Te5 -60(4) 2 . . 11 ?
Te11 Te1 Te7 Te5 -91(8) 7 . . . ?
Te11 Te1 Te7 Te5 -118(5) 7 . . 11 ?
Te11 Te1 Te7 Te6 -131(7) 2 . . 12 ?
Te11 Te1 Te7 Te6 92(8) 7 . . . ?
Te11 Te1 Te7 Te6 170(7) 7 . . 12 ?
Te11 Te1 Te7 Te6 151(7) 2 . . . ?
Te11 Te1 Te7 Te8 82(5) 7 . . . ?
Te11 Te1 Te7 Te8 141(4) 2 . . . ?
Te11 Te1 Te7 Te9 133(4) 2 . . . ?
Te11 Te1 Te7 Te9 74(5) 7 . . . ?
Te11 Te1 Te7 Te10 -112(5) 7 . . . ?
Te11 Te1 Te7 Te10 -53(4) 2 . . . ?
Te11 Te1 Te7 Te13 93(6) 2 . . . ?
Te11 Te1 Te7 Te13 35(7) 7 . . . ?
Te11 Te1 Te7 Te14 -73(13) 2 . . 12 ?
Te11 Te1 Te7 Te14 99(12) 2 . . . ?
Te11 Te1 Te7 Te14 40(13) 7 . . . ?
Te11 Te1 Te7 Te14 -132(13) 7 . . 12 ?
Te11 Te1 Te8 Te1 24(5) 7 . . 7 ?
Te11 Te1 Te8 Te1 100(5) 2 . . 7 ?
Te11 Te1 Te8 Te2 101(8) 2 . . . ?
Te11 Te1 Te8 Te2 25(8) 7 . . . ?
Te11 Te1 Te8 Te3 98(6) 2 . . 3_665 ?
Te11 Te1 Te8 Te3 23(6) 7 . . 3_665 ?
Te11 Te1 Te8 Te5 -125(4) 7 . . . ?
Te11 Te1 Te8 Te5 -50(5) 2 . . . ?
Te11 Te1 Te8 Te7 -52(6) 2 . . . ?
Te11 Te1 Te8 Te7 -128(4) 7 . . . ?
Te11 Te1 Te8 Te8 31(3) 7 . . 7 ?
Te11 Te1 Te8 Te8 106(5) 2 . . 7 ?
Te11 Te1 Te8 Te9 -103(11) 7 . . . ?
Te11 Te1 Te8 Te9 -27(12) 2 . . . ?
Te11 Te1 Te8 Te11 26(8) 2 . . . ?
Te11 Te1 Te8 Te11 -49(9) 7 . . . ?
Te11 Te1 Te8 Te12 -26(6) 7 . . . ?
Te11 Te1 Te8 Te12 50(7) 2 . . . ?
Te11 Te1 Te8 Te13 -1(9) 2 . . . ?
Te11 Te1 Te8 Te13 -77(8) 7 . . . ?
Te11 Te1 Te8 Te14 -37(7) 2 . . . ?
Te11 Te1 Te8 Te14 -112(5) 7 . . . ?
Te11 Te2 Te4 Te1 16(4) . . . 3 ?
Te11 Te2 Te4 Te1 -122(9) 8 . . 3 ?
Te11 Te2 Te4 Te1 146(5) . . . 7 ?
Te11 Te2 Te4 Te1 8(5) 8 . . 7 ?
Te11 Te2 Te4 Te2 72(5) . . . 8 ?
Te11 Te2 Te4 Te2 -66(5) 8 . . 8 ?
Te11 Te2 Te4 Te5 -2(5) 8 . . 7 ?
Te11 Te2 Te4 Te5 136(5) . . . 7 ?
Te11 Te2 Te4 Te9 3(4) 8 . . 8 ?
Te11 Te2 Te4 Te9 141(9) . . . 8 ?
Te11 Te2 Te4 Te9 -17(5) . . . . ?
Te11 Te2 Te4 Te9 -155(5) 8 . . . ?
Te11 Te2 Te4 Te11 138(10) . . . 8 ?
Te11 Te2 Te4 Te11 -138(10) 8 . . . ?
Te11 Te2 Te4 Te12 -66(5) 8 . . . ?
Te11 Te2 Te4 Te12 72(5) . . . . ?
Te11 Te2 Te4 Te13 -108(6) 8 . . . ?
Te11 Te2 Te4 Te13 -32(5) 8 . . 8 ?
Te11 Te2 Te4 Te13 30(6) . . . . ?
Te11 Te2 Te4 Te13 106(7) . . . 8 ?
Te11 Te2 Te8 Te1 -49(8) 8 . . . ?
Te11 Te2 Te8 Te1 -121(7) . . . . ?
Te11 Te2 Te8 Te1 -120(4) . . . 7 ?
Te11 Te2 Te8 Te1 -47(3) 8 . . 7 ?
Te11 Te2 Te8 Te3 -47(6) 8 . . 3_665 ?
Te11 Te2 Te8 Te3 -119(5) . . . 3_665 ?
Te11 Te2 Te8 Te5 64(12) 8 . . . ?
Te11 Te2 Te8 Te5 -8(11) . . . . ?
Te11 Te2 Te8 Te7 28(5) . . . . ?
Te11 Te2 Te8 Te7 101(5) 8 . . . ?
Te11 Te2 Te8 Te8 -54(4) 8 . . 7 ?
Te11 Te2 Te8 Te8 -127(4) . . . 7 ?
Te11 Te2 Te8 Te9 37(3) . . . . ?
Te11 Te2 Te8 Te9 110(4) 8 . . . ?
Te11 Te2 Te8 Te11 73(5) 8 . . . ?
Te11 Te2 Te8 Te12 24(5) 8 . . . ?
Te11 Te2 Te8 Te12 -49(4) . . . . ?
Te11 Te2 Te8 Te13 63(7) 8 . . . ?
Te11 Te2 Te8 Te13 -9(6) . . . . ?
Te11 Te2 Te8 Te14 23(4) . . . . ?
Te11 Te2 Te8 Te14 96(5) 8 . . . ?
Te11 Te2 Te9 Te1 0(3) . . . 3 ?
Te11 Te2 Te9 Te1 -2(2) 8 . . 3 ?
Te11 Te2 Te9 Te4 16(4) 8 . . . ?
Te11 Te2 Te9 Te4 17(5) . . . . ?
Te11 Te2 Te9 Te5 -21(4) . . . 3 ?
Te11 Te2 Te9 Te5 -23(3) 8 . . 3 ?
Te11 Te2 Te9 Te6 -158(6) . . . 12 ?
Te11 Te2 Te9 Te6 -160(4) 8 . . 12 ?
Te11 Te2 Te9 Te6 166(15) 8 . . . ?
Te11 Te2 Te9 Te6 167(17) . . . . ?
Te11 Te2 Te9 Te7 -113(5) . . . . ?
Te11 Te2 Te9 Te7 -115(3) 8 . . . ?
Te11 Te2 Te9 Te8 -120(4) . . . . ?
Te11 Te2 Te9 Te8 -121(3) 8 . . . ?
Te11 Te2 Te9 Te11 -2(3) 8 . . . ?
Te11 Te2 Te9 Te12 -31(8) 8 . . . ?
Te11 Te2 Te9 Te12 -30(8) . . . . ?
Te11 Te2 Te9 Te13 -77(5) 8 . . . ?
Te11 Te2 Te9 Te13 -75(5) . . . . ?
Te11 Te2 Te9 Te14 -88(7) 8 . . . ?
Te11 Te2 Te9 Te14 -86(7) . . . . ?
Te11 Te2 Te11 Te1 -15(2) 8 . . 7 ?
Te11 Te2 Te11 Te1 -3(8) 8 . . 3 ?
Te11 Te2 Te11 Te2 7(4) 8 . . 8 ?
Te11 Te2 Te11 Te4 23(6) 8 . . . ?
Te11 Te2 Te11 Te5 -110(15) 8 . . 3 ?
Te11 Te2 Te11 Te6 176(3) 8 . . . ?
Te11 Te2 Te11 Te9 179(2) 8 . . . ?
Te11 Te2 Te11 Te12 -42(9) 8 . . . ?
Te11 Te2 Te11 Te13 -117(5) 8 . . . ?
Te11 Te2 Te11 Te14 -152(4) 8 . . . ?
Te11 Te2 Te12 Te1 -154(9) . . . 7 ?
Te11 Te2 Te12 Te1 91(14) 8 . . 3 ?
Te11 Te2 Te12 Te1 -19(4) . . . 3 ?
Te11 Te2 Te12 Te1 -45(5) 8 . . 7 ?
Te11 Te2 Te12 Te2 -61(7) . . . 8 ?
Te11 Te2 Te12 Te2 49(7) 8 . . 8 ?
Te11 Te2 Te12 Te3 -27(15) . . . 2_545 ?
Te11 Te2 Te12 Te3 83(26) 8 . . 2_545 ?
Te11 Te2 Te12 Te4 49(7) 8 . . . ?
Te11 Te2 Te12 Te4 -61(7) . . . . ?
Te11 Te2 Te12 Te9 136(8) 8 . . . ?
Te11 Te2 Te12 Te9 5(3) 8 . . 8 ?
Te11 Te2 Te12 Te9 -105(12) . . . 8 ?
Te11 Te2 Te12 Te9 27(6) . . . . ?
Te11 Te2 Te12 Te11 110(13) 8 . . . ?
Te11 Te2 Te12 Te11 -110(13) . . . 8 ?
Te11 Te2 Te12 Te13 66(6) . . . . ?
Te11 Te2 Te12 Te13 175(12) 8 . . . ?
Te11 Te2 Te12 Te13 -140(23) . . . 8 ?
Te11 Te2 Te12 Te13 -30(12) 8 . . 8 ?
Te11 Te2 Te13 Te3 -94(3) 8 . . 3_665 ?
Te11 Te2 Te13 Te3 -154(6) . . . 3_665 ?
Te11 Te2 Te13 Te4 33(3) 8 . . . ?
Te11 Te2 Te13 Te4 -27(6) . . . . ?
Te11 Te2 Te13 Te5 168(9) . . . . ?
Te11 Te2 Te13 Te5 -3(5) . . . 3 ?
Te11 Te2 Te13 Te5 -133(5) 8 . . . ?
Te11 Te2 Te13 Te5 57(5) 8 . . 3 ?
Te11 Te2 Te13 Te6 68(6) . . . . ?
Te11 Te2 Te13 Te6 128(4) 8 . . . ?
Te11 Te2 Te13 Te7 122(11) . . . . ?
Te11 Te2 Te13 Te7 -179(8) 8 . . . ?
Te11 Te2 Te13 Te8 168(8) . . . . ?
Te11 Te2 Te13 Te8 -132(5) 8 . . . ?
Te11 Te2 Te13 Te9 118(4) 8 . . . ?
Te11 Te2 Te13 Te9 58(5) . . . . ?
Te11 Te2 Te13 Te11 59(6) 8 . . . ?
Te11 Te2 Te13 Te12 -63(8) . . . . ?
Te11 Te2 Te13 Te12 -3(9) 8 . . . ?
Te11 Te2 Te13 Te14 67(9) . . . . ?
Te11 Te2 Te13 Te14 127(8) 8 . . . ?
Te11 Te4 Te9 Te1 10(8) . . . 3 ?
Te11 Te4 Te9 Te1 112(10) 8 . . 3 ?
Te11 Te4 Te9 Te2 -42(7) 8 . . . ?
Te11 Te4 Te9 Te2 -144(10) . . . . ?
Te11 Te4 Te9 Te5 103(9) 8 . . 3 ?
Te11 Te4 Te9 Te5 1(8) . . . 3 ?
Te11 Te4 Te9 Te6 56(15) . . . . ?
Te11 Te4 Te9 Te6 157(13) 8 . . . ?
Te11 Te4 Te9 Te7 -66(9) . . . . ?
Te11 Te4 Te9 Te7 35(10) 8 . . . ?
Te11 Te4 Te9 Te8 -6(9) 8 . . . ?
Te11 Te4 Te9 Te8 -108(8) . . . . ?
Te11 Te4 Te9 Te11 101(16) 8 . . . ?
Te11 Te4 Te9 Te12 40(8) 8 . . . ?
Te11 Te4 Te9 Te12 -61(8) . . . . ?
Te11 Te4 Te9 Te13 -59(9) . . . . ?
Te11 Te4 Te9 Te13 43(10) 8 . . . ?
Te11 Te4 Te9 Te14 -21(10) . . . . ?
Te11 Te4 Te9 Te14 80(10) 8 . . . ?
Te11 Te4 Te11 Te1 80(3) 8 . . 3 ?
Te11 Te4 Te11 Te1 -60(5) 8 . . 7 ?
Te11 Te4 Te11 Te2 -84(3) 8 . . . ?
Te11 Te4 Te11 Te2 74(4) 8 . . 8 ?
Te11 Te4 Te11 Te5 70(7) 8 . . 3 ?
Te11 Te4 Te11 Te6 -136(12) 8 . . . ?
Te11 Te4 Te11 Te9 -112(8) 8 . . . ?
Te11 Te4 Te11 Te12 0.005(8) 8 . . . ?
Te11 Te4 Te11 Te13 -33(9) 8 . . . ?
Te11 Te4 Te11 Te14 -67(26) 8 . . . ?
Te11 Te4 Te12 Te1 120(5) . . . 7 ?
Te11 Te4 Te12 Te1 -60(5) 8 . . 7 ?
Te11 Te4 Te12 Te1 -60(5) . . . 3 ?
Te11 Te4 Te12 Te1 120(5) 8 . . 3 ?
Te11 Te4 Te12 Te2 -105(5) 8 . . . ?
Te11 Te4 Te12 Te2 -105(5) . . . 8 ?
Te11 Te4 Te12 Te2 75(5) 8 . . 8 ?
Te11 Te4 Te12 Te2 75(5) . . . . ?
Te11 Te4 Te12 Te3 -92(6) . . . 2_545 ?
Te11 Te4 Te12 Te3 88(6) 8 . . 2_545 ?
Te11 Te4 Te12 Te9 26(5) . . . . ?
Te11 Te4 Te12 Te9 -154(5) . . . 8 ?
Te11 Te4 Te12 Te9 -154(5) 8 . . . ?
Te11 Te4 Te12 Te9 26(5) 8 . . 8 ?
Te11 Te4 Te12 Te11 180.003(7) 8 . . . ?
Te11 Te4 Te12 Te11 179.997(9) . . . 8 ?
Te11 Te4 Te12 Te13 -156(7) . . . 8 ?
Te11 Te4 Te12 Te13 -156(7) 8 . . . ?
Te11 Te4 Te12 Te13 24(7) 8 . . 8 ?
Te11 Te4 Te12 Te13 24(7) . . . . ?
Te11 Te4 Te13 Te2 115(12) . . . . ?
Te11 Te4 Te13 Te2 -88(5) 8 . . . ?
Te11 Te4 Te13 Te3 -47(6) 8 . . 3_665 ?
Te11 Te4 Te13 Te3 155(12) . . . 3_665 ?
Te11 Te4 Te13 Te5 -62(13) 8 . . . ?
Te11 Te4 Te13 Te5 -42(11) . . . 3 ?
Te11 Te4 Te13 Te5 116(6) 8 . . 3 ?
Te11 Te4 Te13 Te5 140(17) . . . . ?
Te11 Te4 Te13 Te6 -168(6) 8 . . . ?
Te11 Te4 Te13 Te6 34(11) . . . . ?
Te11 Te4 Te13 Te7 62(15) . . . . ?
Te11 Te4 Te13 Te7 -140(14) 8 . . . ?
Te11 Te4 Te13 Te8 -76(8) 8 . . . ?
Te11 Te4 Te13 Te8 127(13) . . . . ?
Te11 Te4 Te13 Te9 49(10) . . . . ?
Te11 Te4 Te13 Te9 -153(6) 8 . . . ?
Te11 Te4 Te13 Te11 158(8) 8 . . . ?
Te11 Te4 Te13 Te12 -134(12) . . . . ?
Te11 Te4 Te13 Te12 24(6) 8 . . . ?
Te11 Te4 Te13 Te14 15(11) . . . . ?
Te11 Te4 Te13 Te14 173(8) 8 . . . ?
Te11 Te5 Te7 Te1 91(16) 2 . . . ?
Te11 Te5 Te7 Te5 -116(14) 2 . . 11 ?
Te11 Te5 Te7 Te6 -167(11) 2 . . 12 ?
Te11 Te5 Te7 Te6 97(21) 2 . . . ?
Te11 Te5 Te7 Te7 -77(23) 2 . . 12 ?
Te11 Te5 Te7 Te8 86(15) 2 . . . ?
Te11 Te5 Te7 Te9 73(16) 2 . . . ?
Te11 Te5 Te7 Te10 -114(15) 2 . . . ?
Te11 Te5 Te7 Te13 37(17) 2 . . . ?
Te11 Te5 Te7 Te14 -114(16) 2 . . 12 ?
Te11 Te5 Te7 Te14 13(31) 2 . . . ?
Te11 Te5 Te8 Te1 -36(9) 2 . . 7 ?
Te11 Te5 Te8 Te1 30(3) 2 . . . ?
Te11 Te5 Te8 Te2 -106(11) 2 . . . ?
Te11 Te5 Te8 Te3 -1(7) 2 . . 3_665 ?
Te11 Te5 Te8 Te7 -154(5) 2 . . . ?
Te11 Te5 Te8 Te8 6(4) 2 . . 7 ?
Te11 Te5 Te8 Te9 -141(4) 2 . . . ?
Te11 Te5 Te8 Te11 -112(4) 2 . . . ?
Te11 Te5 Te8 Te12 -75(6) 2 . . . ?
Te11 Te5 Te8 Te13 -105(6) 2 . . . ?
Te11 Te5 Te8 Te14 -138(4) 2 . . . ?
Te11 Te5 Te10 Te1 -105(7) 2 . . 11 ?
Te11 Te5 Te10 Te1 -63(8) 2 . . . ?
Te11 Te5 Te10 Te6 -178(4) 2 . . 12 ?
Te11 Te5 Te10 Te6 6(5) 2 . . 2 ?
Te11 Te5 Te10 Te7 154(6) 2 . . . ?
Te11 Te5 Te10 Te7 31(8) 2 . . 11 ?
Te11 Te5 Te10 Te14 154(5) 2 . . 12 ?
Te11 Te5 Te10 Te14 44(6) 2 . . 11 ?
Te11 Te5 Te10 Te14 142(5) 2 . . . ?
Te11 Te5 Te10 Te14 34(6) 2 . . 2 ?
Te11 Te5 Te13 Te2 95(7) 2 . . . ?
Te11 Te5 Te13 Te3 63(5) 2 . . 3_665 ?
Te11 Te5 Te13 Te4 78(12) 2 . . . ?
Te11 Te5 Te13 Te5 -99(10) 2 . . 3 ?
Te11 Te5 Te13 Te6 179(6) 2 . . . ?
Te11 Te5 Te13 Te7 -164(7) 2 . . . ?
Te11 Te5 Te13 Te8 94(6) 2 . . . ?
Te11 Te5 Te13 Te9 149(8) 2 . . . ?
Te11 Te5 Te13 Te11 123(24) 2 . . . ?
Te11 Te5 Te13 Te12 31(15) 2 . . . ?
Te11 Te5 Te13 Te14 -153(7) 2 . . . ?
Te11 Te5 Te14 Te5 -1(10) 2 . . 3 ?
Te11 Te5 Te14 Te6 144(11) 2 . . . ?
Te11 Te5 Te14 Te6 -171(7) 2 . . 12 ?
Te11 Te5 Te14 Te7 -117(10) 2 . . 12 ?
Te11 Te5 Te14 Te7 -171(21) 2 . . . ?
Te11 Te5 Te14 Te8 88(7) 2 . . . ?
Te11 Te5 Te14 Te9 92(9) 2 . . . ?
Te11 Te5 Te14 Te10 -54(10) 2 . . 3 ?
Te11 Te5 Te14 Te11 58(10) 2 . . . ?
Te11 Te5 Te14 Te13 42(10) 2 . . . ?
Te11 Te5 Te14 Te14 -135(7) 2 . . 12 ?
Te11 Te6 Te7 Te1 -55(7) . . . . ?
Te11 Te6 Te7 Te5 -58(19) . . . . ?
Te11 Te6 Te7 Te5 158(4) . . . 11 ?
Te11 Te6 Te7 Te6 -171(7) . . . 12 ?
Te11 Te6 Te7 Te7 118(5) . . . 12 ?
Te11 Te6 Te7 Te8 -48(5) . . . . ?
Te11 Te6 Te7 Te9 -24(3) . . . . ?
Te11 Te6 Te7 Te10 164(9) . . . . ?
Te11 Te6 Te7 Te13 4(6) . . . . ?
Te11 Te6 Te7 Te14 147(7) . . . 12 ?
Te11 Te6 Te7 Te14 59(11) . . . . ?
Te11 Te6 Te9 Te1 2(5) . . . 3 ?
Te11 Te6 Te9 Te2 -164(20) . . . . ?
Te11 Te6 Te9 Te4 -30(8) . . . . ?
Te11 Te6 Te9 Te5 23(7) . . . 3 ?
Te11 Te6 Te9 Te6 144(6) . . . 12 ?
Te11 Te6 Te9 Te7 108(7) . . . . ?
Te11 Te6 Te9 Te8 132(9) . . . . ?
Te11 Te6 Te9 Te12 40(12) . . . . ?
Te11 Te6 Te9 Te13 81(7) . . . . ?
Te11 Te6 Te9 Te14 72(9) . . . . ?
Te11 Te6 Te13 Te2 -50(4) . . . . ?
Te11 Te6 Te13 Te3 -87(7) . . . 3_665 ?
Te11 Te6 Te13 Te4 -13(4) . . . . ?
Te11 Te6 Te13 Te5 61(5) . . . 3 ?
Te11 Te6 Te13 Te5 -162(8) . . . . ?
Te11 Te6 Te13 Te7 -175(9) . . . . ?
Te11 Te6 Te13 Te8 -105(8) . . . . ?
Te11 Te6 Te13 Te9 -36(5) . . . . ?
Te11 Te6 Te13 Te12 -6(5) . . . . ?
Te11 Te6 Te13 Te14 128(13) . . . . ?
Te11 Te6 Te14 Te5 48(5) . . . 3 ?
Te11 Te6 Te14 Te5 -102(7) . . . . ?
Te11 Te6 Te14 Te6 -156(7) . . . 12 ?
Te11 Te6 Te14 Te7 -115(11) . . . . ?
Te11 Te6 Te14 Te7 139(8) . . . 12 ?
Te11 Te6 Te14 Te8 -67(4) . . . . ?
Te11 Te6 Te14 Te9 -25(4) . . . . ?
Te11 Te6 Te14 Te10 90(5) . . . 3 ?
Te11 Te6 Te14 Te13 -36(9) . . . . ?
Te11 Te6 Te14 Te14 -178(9) . . . 12 ?
Te11 Te8 Te9 Te1 -14(4) . . . 3 ?
Te11 Te8 Te9 Te2 57(4) . . . . ?
Te11 Te8 Te9 Te4 27(4) . . . . ?
Te11 Te8 Te9 Te5 -51(4) . . . 3 ?
Te11 Te8 Te9 Te6 -144(8) . . . . ?
Te11 Te8 Te9 Te6 -150(5) . . . 12 ?
Te11 Te8 Te9 Te7 -115(5) . . . . ?
Te11 Te8 Te9 Te12 1(7) . . . . ?
Te11 Te8 Te9 Te13 -55(7) . . . . ?
Te11 Te8 Te9 Te14 -101(6) . . . . ?
Te11 Te8 Te13 Te2 -9(6) . . . . ?
Te11 Te8 Te13 Te3 -82(8) . . . 3_665 ?
Te11 Te8 Te13 Te4 -18(5) . . . . ?
Te11 Te8 Te13 Te5 170(8) . . . . ?
Te11 Te8 Te13 Te5 21(22) . . . 3 ?
Te11 Te8 Te13 Te6 67(7) . . . . ?
Te11 Te8 Te13 Te7 127(10) . . . . ?
Te11 Te8 Te13 Te9 36(5) . . . . ?
Te11 Te8 Te13 Te12 -49(9) . . . . ?
Te11 Te8 Te13 Te14 92(11) . . . . ?
Te11 Te8 Te14 Te5 -149(4) . . . . ?
Te11 Te8 Te14 Te5 -35(5) . . . 3 ?
Te11 Te8 Te14 Te6 134(5) . . . 12 ?
Te11 Te8 Te14 Te6 75(7) . . . . ?
Te11 Te8 Te14 Te7 -171(9) . . . . ?
Te11 Te8 Te14 Te7 156(19) . . . 12 ?
Te11 Te8 Te14 Te9 35(3) . . . . ?
Te11 Te8 Te14 Te10 -47(13) . . . 3 ?
Te11 Te8 Te14 Te13 -55(9) . . . . ?
Te11 Te8 Te14 Te14 165(5) . . . 12 ?
Te11 Te9 Te12 Te1 -118(17) . . . 7 ?
Te11 Te9 Te12 Te1 18(7) . . . 3 ?
Te11 Te9 Te12 Te2 -12(7) . . . 8 ?
Te11 Te9 Te12 Te2 -117(15) . . . . ?
Te11 Te9 Te12 Te3 42(8) . . . 2_545 ?
Te11 Te9 Te12 Te4 -51(11) . . . . ?
Te11 Te9 Te12 Te9 -51(11) . . . 8 ?
Te11 Te9 Te12 Te11 -72(16) . . . 8 ?
Te11 Te9 Te12 Te13 126(12) . . . . ?
Te11 Te9 Te12 Te13 -60(28) . . . 8 ?
Te11 Te9 Te13 Te2 -71(5) . . . . ?
Te11 Te9 Te13 Te3 -96(6) . . . 3_665 ?
Te11 Te9 Te13 Te4 -25(4) . . . . ?
Te11 Te9 Te13 Te5 52(5) . . . 3 ?
Te11 Te9 Te13 Te5 -167(9) . . . . ?
Te11 Te9 Te13 Te6 127(7) . . . . ?
Te11 Te9 Te13 Te7 163(9) . . . . ?
Te11 Te9 Te13 Te8 -124(7) . . . . ?
Te11 Te9 Te13 Te12 -26(5) . . . . ?
Te11 Te9 Te13 Te14 118(8) . . . . ?
Te11 Te9 Te14 Te5 -105(5) . . . . ?
Te11 Te9 Te14 Te5 17(6) . . . 3 ?
Te11 Te9 Te14 Te6 131(8) . . . . ?
Te11 Te9 Te14 Te6 172(5) . . . 12 ?
Te11 Te9 Te14 Te7 110(12) . . . 12 ?
Te11 Te9 Te14 Te7 -122(9) . . . . ?
Te11 Te9 Te14 Te8 -102(5) . . . . ?
Te11 Te9 Te14 Te10 48(8) . . . 3 ?
Te11 Te9 Te14 Te13 -60(7) . . . . ?
Te11 Te9 Te14 Te14 170(14) . . . 12 ?
Te11 Te11 Te12 Te1 89(5) 8 . . 3 ?
Te11 Te11 Te12 Te1 -53(7) 8 . . 7 ?
Te11 Te11 Te12 Te2 -69(4) 8 . . . ?
Te11 Te11 Te12 Te2 54(5) 8 . . 8 ?
Te11 Te11 Te12 Te3 101(8) 8 . . 2_545 ?
Te11 Te11 Te12 Te4 0.003(3) 8 . . . ?
Te11 Te11 Te12 Te9 24(6) 8 . . 8 ?
Te11 Te11 Te12 Te9 -114(10) 8 . . . ?
Te11 Te11 Te12 Te13 -153(8) 8 . . . ?
Te11 Te11 Te12 Te13 46(23) 8 . . 8 ?
Te11 Te11 Te13 Te2 -57(5) 8 . . . ?
Te11 Te11 Te13 Te3 -36(8) 8 . . 3_665 ?
Te11 Te11 Te13 Te4 -12(5) 8 . . . ?
Te11 Te11 Te13 Te5 120(8) 8 . . 3 ?
Te11 Te11 Te13 Te5 -92(25) 8 . . . ?
Te11 Te11 Te13 Te6 -154(8) 8 . . . ?
Te11 Te11 Te13 Te7 -148(10) 8 . . . ?
Te11 Te11 Te13 Te8 -68(10) 8 . . . ?
Te11 Te11 Te13 Te9 -126(9) 8 . . . ?
Te11 Te11 Te13 Te12 18(7) 8 . . . ?
Te11 Te11 Te13 Te14 -177(8) 8 . . . ?
Te11 Te11 Te14 Te5 -12(15) 8 . . . ?
Te11 Te11 Te14 Te5 106(14) 8 . . 3 ?
Te11 Te11 Te14 Te6 -106(14) 8 . . 12 ?
Te11 Te11 Te14 Te6 -133(16) 8 . . . ?
Te11 Te11 Te14 Te7 161(14) 8 . . 12 ?
Te11 Te11 Te14 Te7 -26(18) 8 . . . ?
Te11 Te11 Te14 Te8 -34(13) 8 . . . ?
Te11 Te11 Te14 Te9 -95(16) 8 . . . ?
Te11 Te11 Te14 Te10 127(14) 8 . . 3 ?
Te11 Te11 Te14 Te13 5(15) 8 . . . ?
Te11 Te11 Te14 Te14 -126(44) 8 . . 12 ?
Te11 Te12 Te13 Te2 8(19) 8 . . . ?
Te11 Te12 Te13 Te2 64(8) . . . . ?
Te11 Te12 Te13 Te3 66(20) 8 . . 3_665 ?
Te11 Te12 Te13 Te3 122(8) . . . 3_665 ?
Te11 Te12 Te13 Te4 21(6) . . . . ?
Te11 Te12 Te13 Te4 -35(22) 8 . . . ?
Te11 Te12 Te13 Te5 -59(5) . . . 3 ?
Te11 Te12 Te13 Te5 97(30) 8 . . . ?
Te11 Te12 Te13 Te5 153(12) . . . . ?
Te11 Te12 Te13 Te5 -114(24) 8 . . 3 ?
Te11 Te12 Te13 Te6 8(7) . . . . ?
Te11 Te12 Te13 Te6 -48(23) 8 . . . ?
Te11 Te12 Te13 Te7 84(68) . . . . ?
Te11 Te12 Te13 Te7 29(89) 8 . . . ?
Te11 Te12 Te13 Te8 48(25) 8 . . . ?
Te11 Te12 Te13 Te8 104(8) . . . . ?
Te11 Te12 Te13 Te9 24(6) . . . . ?
Te11 Te12 Te13 Te9 -32(24) 8 . . . ?
Te11 Te12 Te13 Te11 -56(27) 8 . . . ?
Te11 Te12 Te13 Te14 -77(22) 8 . . . ?
Te11 Te12 Te13 Te14 -21(15) . . . . ?
Te11 Te13 Te14 Te5 -56(6) . . . 3 ?
Te11 Te13 Te14 Te5 160(8) . . . . ?
Te11 Te13 Te14 Te6 46(12) . . . . ?
Te11 Te13 Te14 Te6 117(9) . . . 12 ?
Te11 Te13 Te14 Te7 151(8) . . . . ?
Te11 Te13 Te14 Te7 -120(35) . . . 12 ?
Te11 Te13 Te14 Te8 105(10) . . . . ?
Te11 Te13 Te14 Te9 37(5) . . . . ?
Te11 Te13 Te14 Te10 -71(9) . . . 3 ?
Te11 Te13 Te14 Te14 165(8) . . . 12 ?
Te12 Te1 Te5 Te3 78(7) 2 . . 3_665 ?
Te12 Te1 Te5 Te7 101(9) 2 . . . ?
Te12 Te1 Te5 Te8 96(7) 2 . . . ?
Te12 Te1 Te5 Te9 -53(7) 2 . . 2 ?
Te12 Te1 Te5 Te10 -130(10) 2 . . . ?
Te12 Te1 Te5 Te11 -46(7) 2 . . 2 ?
Te12 Te1 Te5 Te13 -17(8) 2 . . 2 ?
Te12 Te1 Te5 Te13 66(7) 2 . . . ?
Te12 Te1 Te5 Te14 -47(8) 2 . . 2 ?
Te12 Te1 Te5 Te14 83(8) 2 . . . ?
Te12 Te1 Te7 Te5 -110(5) 2 . . 11 ?
Te12 Te1 Te7 Te5 -82(8) 2 . . . ?
Te12 Te1 Te7 Te6 101(8) 2 . . . ?
Te12 Te1 Te7 Te6 179(8) 2 . . 12 ?
Te12 Te1 Te7 Te8 91(6) 2 . . . ?
Te12 Te1 Te7 Te9 83(5) 2 . . . ?
Te12 Te1 Te7 Te10 -103(5) 2 . . . ?
Te12 Te1 Te7 Te13 43(7) 2 . . . ?
Te12 Te1 Te7 Te14 -123(13) 2 . . 12 ?
Te12 Te1 Te7 Te14 49(13) 2 . . . ?
Te12 Te1 Te8 Te1 56(4) 2 . . 7 ?
Te12 Te1 Te8 Te2 57(7) 2 . . . ?
Te12 Te1 Te8 Te3 55(5) 2 . . 3_665 ?
Te12 Te1 Te8 Te5 -93(3) 2 . . . ?
Te12 Te1 Te8 Te7 -96(3) 2 . . . ?
Te12 Te1 Te8 Te8 63(2) 2 . . 7 ?
Te12 Te1 Te8 Te9 -71(10) 2 . . . ?
Te12 Te1 Te8 Te11 -17(7) 2 . . . ?
Te12 Te1 Te8 Te12 6(3) 2 . . . ?
Te12 Te1 Te8 Te13 -45(7) 2 . . . ?
Te12 Te1 Te8 Te14 -81(4) 2 . . . ?
Te12 Te2 Te4 Te1 -56(4) . . . 3 ?
Te12 Te2 Te4 Te1 74.3(16) . . . 7 ?
Te12 Te2 Te4 Te2 0.003(3) . . . 8 ?
Te12 Te2 Te4 Te5 64.4(10) . . . 7 ?
Te12 Te2 Te4 Te9 -88.3(14) . . . . ?
Te12 Te2 Te4 Te9 70(5) . . . 8 ?
Te12 Te2 Te4 Te11 66(5) . . . 8 ?
Te12 Te2 Te4 Te11 -72(5) . . . . ?
Te12 Te2 Te4 Te13 -41(4) . . . . ?
Te12 Te2 Te4 Te13 35(4) . . . 8 ?
Te12 Te2 Te8 Te1 -73(7) . . . . ?
Te12 Te2 Te8 Te1 -71(3) . . . 7 ?
Te12 Te2 Te8 Te3 -70(5) . . . 3_665 ?
Te12 Te2 Te8 Te5 40(11) . . . . ?
Te12 Te2 Te8 Te7 77(5) . . . . ?
Te12 Te2 Te8 Te8 -78(3) . . . 7 ?
Te12 Te2 Te8 Te9 86(3) . . . . ?
Te12 Te2 Te8 Te11 49(4) . . . . ?
Te12 Te2 Te8 Te13 40(6) . . . . ?
Te12 Te2 Te8 Te14 72(4) . . . . ?
Te12 Te2 Te9 Te1 29(8) . . . 3 ?
Te12 Te2 Te9 Te4 47(7) . . . . ?
Te12 Te2 Te9 Te5 9(8) . . . 3 ?
Te12 Te2 Te9 Te6 -163(17) . . . . ?
Te12 Te2 Te9 Te6 -128(9) . . . 12 ?
Te12 Te2 Te9 Te7 -83(8) . . . . ?
Te12 Te2 Te9 Te8 -90(8) . . . . ?
Te12 Te2 Te9 Te11 30(8) . . . . ?
Te12 Te2 Te9 Te13 -45(8) . . . . ?
Te12 Te2 Te9 Te14 -57(10) . . . . ?
Te12 Te2 Te11 Te1 27(10) . . . 7 ?
Te12 Te2 Te11 Te1 39(12) . . . 3 ?
Te12 Te2 Te11 Te2 49(10) . . . 8 ?
Te12 Te2 Te11 Te4 66(10) . . . . ?
Te12 Te2 Te11 Te5 -68(15) . . . 3 ?
Te12 Te2 Te11 Te6 -142(10) . . . . ?
Te12 Te2 Te11 Te9 -139(10) . . . . ?
Te12 Te2 Te11 Te11 42(9) . . . 8 ?
Te12 Te2 Te11 Te13 -74(9) . . . . ?
Te12 Te2 Te11 Te14 -109(9) . . . . ?
Te12 Te2 Te13 Te3 -91(9) . . . 3_665 ?
Te12 Te2 Te13 Te4 36(8) . . . . ?
Te12 Te2 Te13 Te5 -130(11) . . . . ?
Te12 Te2 Te13 Te5 60(8) . . . 3 ?
Te12 Te2 Te13 Te6 131(9) . . . . ?
Te12 Te2 Te13 Te7 -176(13) . . . . ?
Te12 Te2 Te13 Te8 -129(10) . . . . ?
Te12 Te2 Te13 Te9 121(9) . . . . ?
Te12 Te2 Te13 Te11 63(8) . . . . ?
Te12 Te2 Te13 Te14 130(12) . . . . ?
Te12 Te4 Te9 Te1 72(2) . . . 3 ?
Te12 Te4 Te9 Te2 -82(3) . . . . ?
Te12 Te4 Te9 Te5 62.6(11) . . . 3 ?
Te12 Te4 Te9 Te6 117(12) . . . . ?
Te12 Te4 Te9 Te7 -5(4) . . . . ?
Te12 Te4 Te9 Te8 -46.6(18) . . . . ?
Te12 Te4 Te9 Te11 61(8) . . . . ?
Te12 Te4 Te9 Te13 2(5) . . . . ?
Te12 Te4 Te9 Te14 40(6) . . . . ?
Te12 Te4 Te11 Te1 -60(5) . . . 7 ?
Te12 Te4 Te11 Te1 80(3) . . . 3 ?
Te12 Te4 Te11 Te2 -84(3) . . . . ?
Te12 Te4 Te11 Te2 74(4) . . . 8 ?
Te12 Te4 Te11 Te5 70(7) . . . 3 ?
Te12 Te4 Te11 Te6 -136(12) . . . . ?
Te12 Te4 Te11 Te9 -112(8) . . . . ?
Te12 Te4 Te11 Te11 -0.005(9) . . . 8 ?
Te12 Te4 Te11 Te13 -33(9) . . . . ?
Te12 Te4 Te11 Te14 -67(26) . . . . ?
Te12 Te4 Te13 Te2 -112(5) . . . . ?
Te12 Te4 Te13 Te3 -71(4) . . . 3_665 ?
Te12 Te4 Te13 Te5 -86(11) . . . . ?
Te12 Te4 Te13 Te5 92(4) . . . 3 ?
Te12 Te4 Te13 Te6 168(6) . . . . ?
Te12 Te4 Te13 Te7 -164(16) . . . . ?
Te12 Te4 Te13 Te8 -99(7) . . . . ?
Te12 Te4 Te13 Te9 -177(7) . . . . ?
Te12 Te4 Te13 Te11 134(12) . . . . ?
Te12 Te4 Te13 Te14 149(10) . . . . ?
Te12 Te5 Te7 Te1 62(5) 2 . . . ?
Te12 Te5 Te7 Te5 -145(4) 2 . . 11 ?
Te12 Te5 Te7 Te6 68(19) 2 . . . ?
Te12 Te5 Te7 Te6 164(6) 2 . . 12 ?
Te12 Te5 Te7 Te7 -106(15) 2 . . 12 ?
Te12 Te5 Te7 Te8 57(5) 2 . . . ?
Te12 Te5 Te7 Te9 44(8) 2 . . . ?
Te12 Te5 Te7 Te10 -143(5) 2 . . . ?
Te12 Te5 Te7 Te13 9(8) 2 . . . ?
Te12 Te5 Te7 Te14 -16(22) 2 . . . ?
Te12 Te5 Te7 Te14 -143(9) 2 . . 12 ?
Te12 Te5 Te8 Te1 -18(10) 2 . . 7 ?
Te12 Te5 Te8 Te1 48(6) 2 . . . ?
Te12 Te5 Te8 Te2 -88(12) 2 . . . ?
Te12 Te5 Te8 Te3 16(8) 2 . . 3_665 ?
Te12 Te5 Te8 Te7 -136(7) 2 . . . ?
Te12 Te5 Te8 Te8 23(7) 2 . . 7 ?
Te12 Te5 Te8 Te9 -124(7) 2 . . . ?
Te12 Te5 Te8 Te11 -94(8) 2 . . . ?
Te12 Te5 Te8 Te12 -57(11) 2 . . . ?
Te12 Te5 Te8 Te13 -87(7) 2 . . . ?
Te12 Te5 Te8 Te14 -121(7) 2 . . . ?
Te12 Te5 Te10 Te1 -139(13) 2 . . 11 ?
Te12 Te5 Te10 Te1 -97(16) 2 . . . ?
Te12 Te5 Te10 Te6 148(13) 2 . . 12 ?
Te12 Te5 Te10 Te6 -28(14) 2 . . 2 ?
Te12 Te5 Te10 Te7 120(14) 2 . . . ?
Te12 Te5 Te10 Te7 -3(16) 2 . . 11 ?
Te12 Te5 Te10 Te14 10(15) 2 . . 11 ?
Te12 Te5 Te10 Te14 108(14) 2 . . . ?
Te12 Te5 Te10 Te14 120(14) 2 . . 12 ?
Te12 Te5 Te10 Te14 0(14) 2 . . 2 ?
Te12 Te5 Te13 Te2 86(6) 2 . . . ?
Te12 Te5 Te13 Te3 54(3) 2 . . 3_665 ?
Te12 Te5 Te13 Te4 69(11) 2 . . . ?
Te12 Te5 Te13 Te5 -108(9) 2 . . 3 ?
Te12 Te5 Te13 Te6 170(6) 2 . . . ?
Te12 Te5 Te13 Te7 -173(7) 2 . . . ?
Te12 Te5 Te13 Te8 85(5) 2 . . . ?
Te12 Te5 Te13 Te9 140(8) 2 . . . ?
Te12 Te5 Te13 Te11 114(24) 2 . . . ?
Te12 Te5 Te13 Te12 22(11) 2 . . . ?
Te12 Te5 Te13 Te14 -162(8) 2 . . . ?
Te12 Te5 Te14 Te5 -24(6) 2 . . 3 ?
Te12 Te5 Te14 Te6 122(9) 2 . . . ?
Te12 Te5 Te14 Te6 166(4) 2 . . 12 ?
Te12 Te5 Te14 Te7 166(20) 2 . . . ?
Te12 Te5 Te14 Te7 -139(7) 2 . . 12 ?
Te12 Te5 Te14 Te8 66(3) 2 . . . ?
Te12 Te5 Te14 Te9 69(5) 2 . . . ?
Te12 Te5 Te14 Te10 -76(7) 2 . . 3 ?
Te12 Te5 Te14 Te11 36(5) 2 . . . ?
Te12 Te5 Te14 Te13 19(8) 2 . . . ?
Te12 Te5 Te14 Te14 -157(3) 2 . . 12 ?
Te12 Te8 Te9 Te1 -15(6) . . . 3 ?
Te12 Te8 Te9 Te2 56(6) . . . . ?
Te12 Te8 Te9 Te4 26(5) . . . . ?
Te12 Te8 Te9 Te5 -52(6) . . . 3 ?
Te12 Te8 Te9 Te6 -145(8) . . . . ?
Te12 Te8 Te9 Te6 -151(6) . . . 12 ?
Te12 Te8 Te9 Te7 -115(6) . . . . ?
Te12 Te8 Te9 Te11 -1(7) . . . . ?
Te12 Te8 Te9 Te13 -56(8) . . . . ?
Te12 Te8 Te9 Te14 -102(7) . . . . ?
Te12 Te8 Te13 Te2 40(10) . . . . ?
Te12 Te8 Te13 Te3 -33(12) . . . 3_665 ?
Te12 Te8 Te13 Te4 31(9) . . . . ?
Te12 Te8 Te13 Te5 -141(11) . . . . ?
Te12 Te8 Te13 Te5 70(25) . . . 3 ?
Te12 Te8 Te13 Te6 116(12) . . . . ?
Te12 Te8 Te13 Te7 176(13) . . . . ?
Te12 Te8 Te13 Te9 85(10) . . . . ?
Te12 Te8 Te13 Te11 49(9) . . . . ?
Te12 Te8 Te13 Te14 141(15) . . . . ?
Te12 Te8 Te14 Te5 -8(8) . . . 3 ?
Te12 Te8 Te14 Te5 -122(8) . . . . ?
Te12 Te8 Te14 Te6 161(8) . . . 12 ?
Te12 Te8 Te14 Te6 102(10) . . . . ?
Te12 Te8 Te14 Te7 -144(11) . . . . ?
Te12 Te8 Te14 Te7 -177(19) . . . 12 ?
Te12 Te8 Te14 Te9 62(8) . . . . ?
Te12 Te8 Te14 Te10 -20(15) . . . 3 ?
Te12 Te8 Te14 Te11 27(7) . . . . ?
Te12 Te8 Te14 Te13 -28(11) . . . . ?
Te12 Te8 Te14 Te14 -168(8) . . . 12 ?
Te12 Te9 Te11 Te1 -130(16) . . . 3 ?
Te12 Te9 Te11 Te1 42(11) . . . 7 ?
Te12 Te9 Te11 Te2 48(11) . . . . ?
Te12 Te9 Te11 Te2 98(39) . . . 8 ?
Te12 Te9 Te11 Te4 75(14) . . . . ?
Te12 Te9 Te11 Te5 -106(11) . . . 3 ?
Te12 Te9 Te11 Te6 -137(13) . . . . ?
Te12 Te9 Te11 Te11 50(12) . . . 8 ?
Te12 Te9 Te11 Te13 -42(12) . . . . ?
Te12 Te9 Te11 Te14 -88(13) . . . . ?
Te12 Te9 Te13 Te2 -45(4) . . . . ?
Te12 Te9 Te13 Te3 -70(5) . . . 3_665 ?
Te12 Te9 Te13 Te4 2(4) . . . . ?
Te12 Te9 Te13 Te5 -141(10) . . . . ?
Te12 Te9 Te13 Te5 78(4) . . . 3 ?
Te12 Te9 Te13 Te6 153(5) . . . . ?
Te12 Te9 Te13 Te7 -171(9) . . . . ?
Te12 Te9 Te13 Te8 -97(7) . . . . ?
Te12 Te9 Te13 Te11 26(5) . . . . ?
Te12 Te9 Te13 Te14 145(8) . . . . ?
Te12 Te9 Te14 Te5 49(5) . . . 3 ?
Te12 Te9 Te14 Te5 -73(5) . . . . ?
Te12 Te9 Te14 Te6 163(8) . . . . ?
Te12 Te9 Te14 Te6 -156(5) . . . 12 ?
Te12 Te9 Te14 Te7 -90(9) . . . . ?
Te12 Te9 Te14 Te7 142(12) . . . 12 ?
Te12 Te9 Te14 Te8 -70(4) . . . . ?
Te12 Te9 Te14 Te10 81(7) . . . 3 ?
Te12 Te9 Te14 Te11 32(5) . . . . ?
Te12 Te9 Te14 Te13 -28(7) . . . . ?
Te12 Te9 Te14 Te14 -158(15) . . . 12 ?
Te12 Te11 Te13 Te2 -75(6) . . . . ?
Te12 Te11 Te13 Te3 -54(6) . . . 3_665 ?
Te12 Te11 Te13 Te4 -30(10) . . . . ?
Te12 Te11 Te13 Te5 -110(24) . . . . ?
Te12 Te11 Te13 Te5 102(6) . . . 3 ?
Te12 Te11 Te13 Te6 -172(7) . . . . ?
Te12 Te11 Te13 Te7 -166(12) . . . . ?
Te12 Te11 Te13 Te8 -86(8) . . . . ?
Te12 Te11 Te13 Te9 -144(8) . . . . ?
Te12 Te11 Te13 Te14 165(9) . . . . ?
Te12 Te11 Te14 Te5 85(6) . . . 3 ?
Te12 Te11 Te14 Te5 -33(7) . . . . ?
Te12 Te11 Te14 Te6 -126(8) . . . 12 ?
Te12 Te11 Te14 Te6 -154(10) . . . . ?
Te12 Te11 Te14 Te7 -47(11) . . . . ?
Te12 Te11 Te14 Te7 141(11) . . . 12 ?
Te12 Te11 Te14 Te8 -55(6) . . . . ?
Te12 Te11 Te14 Te9 -116(9) . . . . ?
Te12 Te11 Te14 Te10 106(7) . . . 3 ?
Te12 Te11 Te14 Te13 -16(9) . . . . ?
Te12 Te11 Te14 Te14 -147(44) . . . 12 ?
Te12 Te13 Te14 Te5 -41(15) . . . 3 ?
Te12 Te13 Te14 Te5 176(17) . . . . ?
Te12 Te13 Te14 Te6 133(13) . . . 12 ?
Te12 Te13 Te14 Te6 62(19) . . . . ?
Te12 Te13 Te14 Te7 -104(36) . . . 12 ?
Te12 Te13 Te14 Te7 166(15) . . . . ?
Te12 Te13 Te14 Te8 121(18) . . . . ?
Te12 Te13 Te14 Te9 53(14) . . . . ?
Te12 Te13 Te14 Te10 -55(18) . . . 3 ?
Te12 Te13 Te14 Te11 16(12) . . . . ?
Te12 Te13 Te14 Te14 -179(11) . . . 12 ?
Te13 Te1 Te5 Te3 95(4) 2 . . 3_665 ?
Te13 Te1 Te5 Te7 119(7) 2 . . . ?
Te13 Te1 Te5 Te8 114(4) 2 . . . ?
Te13 Te1 Te5 Te9 -36(3) 2 . . 2 ?
Te13 Te1 Te5 Te10 -113(9) 2 . . . ?
Te13 Te1 Te5 Te11 -29(4) 2 . . 2 ?
Te13 Te1 Te5 Te12 17(8) 2 . . 2 ?
Te13 Te1 Te5 Te13 83(6) 2 . . . ?
Te13 Te1 Te5 Te14 -29(5) 2 . . 2 ?
Te13 Te1 Te5 Te14 100(5) 2 . . . ?
Te13 Te1 Te7 Te5 -51(6) 2 . . . ?
Te13 Te1 Te7 Te5 -79(4) 2 . . 11 ?
Te13 Te1 Te7 Te6 -150(8) 2 . . 12 ?
Te13 Te1 Te7 Te6 132(8) 2 . . . ?
Te13 Te1 Te7 Te8 122(4) 2 . . . ?
Te13 Te1 Te7 Te9 114(4) 2 . . . ?
Te13 Te1 Te7 Te10 -73(4) 2 . . . ?
Te13 Te1 Te7 Te13 74(7) 2 . . . ?
Te13 Te1 Te7 Te14 80(12) 2 . . . ?
Te13 Te1 Te7 Te14 -92(13) 2 . . 12 ?
Te13 Te1 Te8 Te1 100(4) 2 . . 7 ?
Te13 Te1 Te8 Te2 101(7) 2 . . . ?
Te13 Te1 Te8 Te3 99(5) 2 . . 3_665 ?
Te13 Te1 Te8 Te5 -49(3) 2 . . . ?
Te13 Te1 Te8 Te7 -52(4) 2 . . . ?
Te13 Te1 Te8 Te8 107(3) 2 . . 7 ?
Te13 Te1 Te8 Te9 -27(10) 2 . . . ?
Te13 Te1 Te8 Te11 27(7) 2 . . . ?
Te13 Te1 Te8 Te12 50(5) 2 . . . ?
Te13 Te1 Te8 Te13 -1(5) 2 . . . ?
Te13 Te1 Te8 Te14 -37(4) 2 . . . ?
Te13 Te2 Te4 Te1 116(4) . . . 7 ?
Te13 Te2 Te4 Te1 -14(6) . . . 3 ?
Te13 Te2 Te4 Te2 41(4) . . . 8 ?
Te13 Te2 Te4 Te5 106(4) . . . 7 ?
Te13 Te2 Te4 Te9 -47(4) . . . . ?
Te13 Te2 Te4 Te9 111(6) . . . 8 ?
Te13 Te2 Te4 Te11 -30(6) . . . . ?
Te13 Te2 Te4 Te11 108(6) . . . 8 ?
Te13 Te2 Te4 Te12 41(4) . . . . ?
Te13 Te2 Te4 Te13 76(7) . . . 8 ?
Te13 Te2 Te8 Te1 -110(6) . . . 7 ?
Te13 Te2 Te8 Te1 -112(9) . . . . ?
Te13 Te2 Te8 Te3 -110(7) . . . 3_665 ?
Te13 Te2 Te8 Te5 1(10) . . . . ?
Te13 Te2 Te8 Te7 38(6) . . . . ?
Te13 Te2 Te8 Te8 -117(5) . . . 7 ?
Te13 Te2 Te8 Te9 46(5) . . . . ?
Te13 Te2 Te8 Te11 9(6) . . . . ?
Te13 Te2 Te8 Te12 -40(6) . . . . ?
Te13 Te2 Te8 Te14 32(5) . . . . ?
Te13 Te2 Te9 Te1 75(5) . . . 3 ?
Te13 Te2 Te9 Te4 92(6) . . . . ?
Te13 Te2 Te9 Te5 54(5) . . . 3 ?
Te13 Te2 Te9 Te6 -118(16) . . . . ?
Te13 Te2 Te9 Te6 -83(6) . . . 12 ?
Te13 Te2 Te9 Te7 -38(5) . . . . ?
Te13 Te2 Te9 Te8 -45(5) . . . . ?
Te13 Te2 Te9 Te11 75(5) . . . . ?
Te13 Te2 Te9 Te12 45(8) . . . . ?
Te13 Te2 Te9 Te14 -11(7) . . . . ?
Te13 Te2 Te11 Te1 114(10) . . . 3 ?
Te13 Te2 Te11 Te1 102(6) . . . 7 ?
Te13 Te2 Te11 Te2 124(6) . . . 8 ?
Te13 Te2 Te11 Te4 140(8) . . . . ?
Te13 Te2 Te11 Te5 6(13) . . . 3 ?
Te13 Te2 Te11 Te6 -67(6) . . . . ?
Te13 Te2 Te11 Te9 -65(5) . . . . ?
Te13 Te2 Te11 Te11 117(5) . . . 8 ?
Te13 Te2 Te11 Te12 74(9) . . . . ?
Te13 Te2 Te11 Te14 -35(5) . . . . ?
Te13 Te2 Te12 Te1 140(8) . . . 7 ?
Te13 Te2 Te12 Te1 -84(5) . . . 3 ?
Te13 Te2 Te12 Te2 -127(6) . . . 8 ?
Te13 Te2 Te12 Te3 -92(16) . . . 2_545 ?
Te13 Te2 Te12 Te4 -127(6) . . . . ?
Te13 Te2 Te12 Te9 -39(6) . . . . ?
Te13 Te2 Te12 Te9 -170(11) . . . 8 ?
Te13 Te2 Te12 Te11 -175(12) . . . 8 ?
Te13 Te2 Te12 Te11 -66(6) . . . . ?
Te13 Te2 Te12 Te13 154(22) . . . 8 ?
Te13 Te4 Te9 Te1 73(4) 8 . . 3 ?
Te13 Te4 Te9 Te1 69(5) . . . 3 ?
Te13 Te4 Te9 Te2 -81(4) 8 . . . ?
Te13 Te4 Te9 Te2 -85(5) . . . . ?
Te13 Te4 Te9 Te5 60(5) . . . 3 ?
Te13 Te4 Te9 Te5 64(4) 8 . . 3 ?
Te13 Te4 Te9 Te6 119(12) 8 . . . ?
Te13 Te4 Te9 Te6 115(13) . . . . ?
Te13 Te4 Te9 Te7 -7(6) . . . . ?
Te13 Te4 Te9 Te7 -3(6) 8 . . . ?
Te13 Te4 Te9 Te8 -49(5) . . . . ?
Te13 Te4 Te9 Te8 -45(5) 8 . . . ?
Te13 Te4 Te9 Te11 63(10) 8 . . . ?
Te13 Te4 Te9 Te11 59(9) . . . . ?
Te13 Te4 Te9 Te12 -2(5) . . . . ?
Te13 Te4 Te9 Te12 2(4) 8 . . . ?
Te13 Te4 Te9 Te13 4(8) 8 . . . ?
Te13 Te4 Te9 Te14 38(7) . . . . ?
Te13 Te4 Te9 Te14 42(8) 8 . . . ?
Te13 Te4 Te11 Te1 -27(12) . . . 7 ?
Te13 Te4 Te11 Te1 63(4) 8 . . 3 ?
Te13 Te4 Te11 Te1 -78(5) 8 . . 7 ?
Te13 Te4 Te11 Te1 113(11) . . . 3 ?
Te13 Te4 Te11 Te2 -102(5) 8 . . . ?
Te13 Te4 Te11 Te2 56(4) 8 . . 8 ?
Te13 Te4 Te11 Te2 106(10) . . . 8 ?
Te13 Te4 Te11 Te2 -52(10) . . . . ?
Te13 Te4 Te11 Te5 53(8) 8 . . 3 ?
Te13 Te4 Te11 Te5 103(13) . . . 3 ?
Te13 Te4 Te11 Te6 -104(17) . . . . ?
Te13 Te4 Te11 Te6 -154(10) 8 . . . ?
Te13 Te4 Te11 Te9 -129(7) 8 . . . ?
Te13 Te4 Te11 Te9 -79(12) . . . . ?
Te13 Te4 Te11 Te11 -17(5) 8 . . 8 ?
Te13 Te4 Te11 Te11 33(9) . . . 8 ?
Te13 Te4 Te11 Te12 33(9) . . . . ?
Te13 Te4 Te11 Te12 -17(5) 8 . . . ?
Te13 Te4 Te11 Te13 -50(13) 8 . . . ?
Te13 Te4 Te11 Te14 -34(22) . . . . ?
Te13 Te4 Te11 Te14 -85(28) 8 . . . ?
Te13 Te4 Te12 Te1 96(4) . . . 7 ?
Te13 Te4 Te12 Te1 96(4) 8 . . 3 ?
Te13 Te4 Te12 Te1 -84(4) . . . 3 ?
Te13 Te4 Te12 Te1 -84(4) 8 . . 7 ?
Te13 Te4 Te12 Te2 51(4) 8 . . 8 ?
Te13 Te4 Te12 Te2 51(4) . . . . ?
Te13 Te4 Te12 Te2 -129(4) . . . 8 ?
Te13 Te4 Te12 Te2 -129(4) 8 . . . ?
Te13 Te4 Te12 Te3 64(4) 8 . . 2_545 ?
Te13 Te4 Te12 Te3 -116(4) . . . 2_545 ?
Te13 Te4 Te12 Te9 2(4) . . . . ?
Te13 Te4 Te12 Te9 -178(4) . . . 8 ?
Te13 Te4 Te12 Te9 -178(4) 8 . . . ?
Te13 Te4 Te12 Te9 2(4) 8 . . 8 ?
Te13 Te4 Te12 Te11 156(7) 8 . . . ?
Te13 Te4 Te12 Te11 -24(7) 8 . . 8 ?
Te13 Te4 Te12 Te11 -24(7) . . . . ?
Te13 Te4 Te12 Te11 156(7) . . . 8 ?
Te13 Te4 Te12 Te13 179.998(14) . . . 8 ?
Te13 Te4 Te12 Te13 180.002(7) 8 . . . ?
Te13 Te4 Te13 Te2 -112(5) 8 . . . ?
Te13 Te4 Te13 Te3 -71(4) 8 . . 3_665 ?
Te13 Te4 Te13 Te5 92(4) 8 . . 3 ?
Te13 Te4 Te13 Te5 -86(11) 8 . . . ?
Te13 Te4 Te13 Te6 168(6) 8 . . . ?
Te13 Te4 Te13 Te7 -164(16) 8 . . . ?
Te13 Te4 Te13 Te8 -99(7) 8 . . . ?
Te13 Te4 Te13 Te9 -177(7) 8 . . . ?
Te13 Te4 Te13 Te11 134(12) 8 . . . ?
Te13 Te4 Te13 Te12 0.002(5) 8 . . . ?
Te13 Te4 Te13 Te14 149(10) 8 . . . ?
Te13 Te5 Te7 Te1 54(8) . . . . ?
Te13 Te5 Te7 Te1 111(7) 2 . . . ?
Te13 Te5 Te7 Te5 -153(6) . . . 11 ?
Te13 Te5 Te7 Te5 -96(5) 2 . . 11 ?
Te13 Te5 Te7 Te6 117(18) 2 . . . ?
Te13 Te5 Te7 Te6 156(11) . . . 12 ?
Te13 Te5 Te7 Te6 -147(7) 2 . . 12 ?
Te13 Te5 Te7 Te6 59(18) . . . . ?
Te13 Te5 Te7 Te7 -115(15) . . . 12 ?
Te13 Te5 Te7 Te7 -57(16) 2 . . 12 ?
Te13 Te5 Te7 Te8 48(5) . . . . ?
Te13 Te5 Te7 Te8 106(5) 2 . . . ?
Te13 Te5 Te7 Te9 35(6) . . . . ?
Te13 Te5 Te7 Te9 93(7) 2 . . . ?
Te13 Te5 Te7 Te10 -152(7) . . . . ?
Te13 Te5 Te7 Te10 -94(5) 2 . . . ?
Te13 Te5 Te7 Te13 57(7) 2 . . . ?
Te13 Te5 Te7 Te14 -25(18) . . . . ?
Te13 Te5 Te7 Te14 33(22) 2 . . . ?
Te13 Te5 Te7 Te14 -152(13) . . . 12 ?
Te13 Te5 Te7 Te14 -95(10) 2 . . 12 ?
Te13 Te5 Te8 Te1 69(8) . . . 7 ?
Te13 Te5 Te8 Te1 135(6) . . . . ?
Te13 Te5 Te8 Te1 15(10) 2 . . 7 ?
Te13 Te5 Te8 Te1 81(4) 2 . . . ?
Te13 Te5 Te8 Te2 -1(10) . . . . ?
Te13 Te5 Te8 Te2 -55(12) 2 . . . ?
Te13 Te5 Te8 Te3 103(8) . . . 3_665 ?
Te13 Te5 Te8 Te3 49(7) 2 . . 3_665 ?
Te13 Te5 Te8 Te7 -49(6) . . . . ?
Te13 Te5 Te8 Te7 -103(5) 2 . . . ?
Te13 Te5 Te8 Te8 110(6) . . . 7 ?
Te13 Te5 Te8 Te8 56(5) 2 . . 7 ?
Te13 Te5 Te8 Te9 -36(5) . . . . ?
Te13 Te5 Te8 Te9 -91(5) 2 . . . ?
Te13 Te5 Te8 Te11 -7(5) . . . . ?
Te13 Te5 Te8 Te11 -61(6) 2 . . . ?
Te13 Te5 Te8 Te12 -24(7) 2 . . . ?
Te13 Te5 Te8 Te12 30(7) . . . . ?
Te13 Te5 Te8 Te13 -54(7) 2 . . . ?
Te13 Te5 Te8 Te14 -88(4) 2 . . . ?
Te13 Te5 Te8 Te14 -34(5) . . . . ?
Te13 Te5 Te10 Te1 164(10) . . . . ?
Te13 Te5 Te10 Te1 -110(9) 2 . . . ?
Te13 Te5 Te10 Te1 121(8) . . . 11 ?
Te13 Te5 Te10 Te1 -152(7) 2 . . 11 ?
Te13 Te5 Te10 Te6 135(4) 2 . . 12 ?
Te13 Te5 Te10 Te6 -41(5) 2 . . 2 ?
Te13 Te5 Te10 Te6 -127(4) . . . 2 ?
Te13 Te5 Te10 Te6 48(5) . . . 12 ?
Te13 Te5 Te10 Te7 -16(8) 2 . . 11 ?
Te13 Te5 Te10 Te7 -103(6) . . . 11 ?
Te13 Te5 Te10 Te7 107(5) 2 . . . ?
Te13 Te5 Te10 Te7 20(5) . . . . ?
Te13 Te5 Te10 Te14 -12(5) 2 . . 2 ?
Te13 Te5 Te10 Te14 -3(6) 2 . . 11 ?
Te13 Te5 Te10 Te14 21(7) . . . 12 ?
Te13 Te5 Te10 Te14 107(5) 2 . . 12 ?
Te13 Te5 Te10 Te14 -90(4) . . . 11 ?
Te13 Te5 Te10 Te14 9(5) . . . . ?
Te13 Te5 Te10 Te14 96(4) 2 . . . ?
Te13 Te5 Te10 Te14 -99(5) . . . 2 ?
Te13 Te5 Te13 Te2 131(4) 2 . . . ?
Te13 Te5 Te13 Te3 99(4) 2 . . 3_665 ?
Te13 Te5 Te13 Te4 115(10) 2 . . . ?
Te13 Te5 Te13 Te5 -63(10) 2 . . 3 ?
Te13 Te5 Te13 Te6 -144(4) 2 . . . ?
Te13 Te5 Te13 Te7 -127(6) 2 . . . ?
Te13 Te5 Te13 Te8 131(5) 2 . . . ?
Te13 Te5 Te13 Te9 -175(6) 2 . . . ?
Te13 Te5 Te13 Te11 159(22) 2 . . . ?
Te13 Te5 Te13 Te12 68(14) 2 . . . ?
Te13 Te5 Te13 Te14 -116(7) 2 . . . ?
Te13 Te5 Te14 Te5 21(7) 2 . . 3 ?
Te13 Te5 Te14 Te5 -43(7) . . . 3 ?
Te13 Te5 Te14 Te6 -149(5) 2 . . 12 ?
Te13 Te5 Te14 Te6 166(9) 2 . . . ?
Te13 Te5 Te14 Te6 102(12) . . . . ?
Te13 Te5 Te14 Te6 147(8) . . . 12 ?
Te13 Te5 Te14 Te7 -158(13) . . . 12 ?
Te13 Te5 Te14 Te7 -149(20) 2 . . . ?
Te13 Te5 Te14 Te7 -94(9) 2 . . 12 ?
Te13 Te5 Te14 Te7 147(23) . . . . ?
Te13 Te5 Te14 Te8 46(7) . . . . ?
Te13 Te5 Te14 Te8 111(4) 2 . . . ?
Te13 Te5 Te14 Te9 114(5) 2 . . . ?
Te13 Te5 Te14 Te9 50(7) . . . . ?
Te13 Te5 Te14 Te10 -31(8) 2 . . 3 ?
Te13 Te5 Te14 Te10 -95(10) . . . 3 ?
Te13 Te5 Te14 Te11 16(7) . . . . ?
Te13 Te5 Te14 Te11 80(5) 2 . . . ?
Te13 Te5 Te14 Te13 64(8) 2 . . . ?
Te13 Te5 Te14 Te14 -113(4) 2 . . 12 ?
Te13 Te5 Te14 Te14 -177(8) . . . 12 ?
Te13 Te6 Te7 Te1 -59(7) . . . . ?
Te13 Te6 Te7 Te5 -62(18) . . . . ?
Te13 Te6 Te7 Te5 154(7) . . . 11 ?
Te13 Te6 Te7 Te6 -175(8) . . . 12 ?
Te13 Te6 Te7 Te7 114(7) . . . 12 ?
Te13 Te6 Te7 Te8 -52(5) . . . . ?
Te13 Te6 Te7 Te9 -27(6) . . . . ?
Te13 Te6 Te7 Te10 160(12) . . . . ?
Te13 Te6 Te7 Te14 143(9) . . . 12 ?
Te13 Te6 Te7 Te14 55(11) . . . . ?
Te13 Te6 Te9 Te1 -79(6) . . . 3 ?
Te13 Te6 Te9 Te2 115(16) . . . . ?
Te13 Te6 Te9 Te4 -111(12) . . . . ?
Te13 Te6 Te9 Te5 -58(5) . . . 3 ?
Te13 Te6 Te9 Te6 63(7) . . . 12 ?
Te13 Te6 Te9 Te7 27(6) . . . . ?
Te13 Te6 Te9 Te8 51(5) . . . . ?
Te13 Te6 Te9 Te11 -81(7) . . . . ?
Te13 Te6 Te9 Te12 -40(13) . . . . ?
Te13 Te6 Te9 Te14 -9(9) . . . . ?
Te13 Te6 Te11 Te1 72(6) . . . 7 ?
Te13 Te6 Te11 Te1 -103(7) . . . 3 ?
Te13 Te6 Te11 Te2 78(6) . . . . ?
Te13 Te6 Te11 Te2 -131(14) . . . 8 ?
Te13 Te6 Te11 Te4 123(14) . . . . ?
Te13 Te6 Te11 Te5 -77(6) . . . 3 ?
Te13 Te6 Te11 Te9 72(8) . . . . ?
Te13 Te6 Te11 Te11 86(11) . . . 8 ?
Te13 Te6 Te11 Te12 11(12) . . . . ?
Te13 Te6 Te11 Te14 -28(8) . . . . ?
Te13 Te6 Te14 Te5 -66(10) . . . . ?
Te13 Te6 Te14 Te5 84(10) . . . 3 ?
Te13 Te6 Te14 Te6 -120(10) . . . 12 ?
Te13 Te6 Te14 Te7 -79(13) . . . . ?
Te13 Te6 Te14 Te7 175(14) . . . 12 ?
Te13 Te6 Te14 Te8 -31(8) . . . . ?
Te13 Te6 Te14 Te9 11(10) . . . . ?
Te13 Te6 Te14 Te10 126(12) . . . 3 ?
Te13 Te6 Te14 Te11 36(9) . . . . ?
Te13 Te6 Te14 Te14 -142(15) . . . 12 ?
Te13 Te7 Te8 Te1 115(7) . . . . ?
Te13 Te7 Te8 Te1 -24(9) . . . 7 ?
Te13 Te7 Te8 Te2 -49(7) . . . . ?
Te13 Te7 Te8 Te3 59(12) . . . 3_665 ?
Te13 Te7 Te8 Te5 112(8) . . . . ?
Te13 Te7 Te8 Te8 66(13) . . . 7 ?
Te13 Te7 Te8 Te9 -55(6) . . . . ?
Te13 Te7 Te8 Te11 -31(6) . . . . ?
Te13 Te7 Te8 Te12 -3(10) . . . . ?
Te13 Te7 Te8 Te14 -38(8) . . . . ?
Te13 Te7 Te9 Te1 -36(8) . . . 3 ?
Te13 Te7 Te9 Te2 60(7) . . . . ?
Te13 Te7 Te9 Te4 11(8) . . . . ?
Te13 Te7 Te9 Te5 -55(7) . . . 3 ?
Te13 Te7 Te9 Te6 -142(9) . . . . ?
Te13 Te7 Te9 Te6 -168(9) . . . 12 ?
Te13 Te7 Te9 Te8 67(7) . . . . ?
Te13 Te7 Te9 Te11 -18(9) . . . . ?
Te13 Te7 Te9 Te12 8(7) . . . . ?
Te13 Te7 Te9 Te14 -88(9) . . . . ?
Te13 Te7 Te10 Te1 -57(13) . . . . ?
Te13 Te7 Te10 Te1 156(11) . . . 11 ?
Te13 Te7 Te10 Te5 -47(13) . . . . ?
Te13 Te7 Te10 Te5 137(11) . . . 11 ?
Te13 Te7 Te10 Te6 169(15) . . . 12 ?
Te13 Te7 Te10 Te6 -6(16) . . . 2 ?
Te13 Te7 Te10 Te7 62(12) . . . 11 ?
Te13 Te7 Te10 Te14 96(15) . . . . ?
Te13 Te7 Te10 Te14 133(15) . . . 12 ?
Te13 Te7 Te10 Te14 51(15) . . . 11 ?
Te13 Te7 Te10 Te14 11(13) . . . 2 ?
Te13 Te7 Te14 Te5 -42(12) . . . 3 ?
Te13 Te7 Te14 Te5 -29(21) . . . . ?
Te13 Te7 Te14 Te6 151(7) . . . 12 ?
Te13 Te7 Te14 Te6 112(12) . . . . ?
Te13 Te7 Te14 Te7 -160(12) . . . 12 ?
Te13 Te7 Te14 Te8 35(7) . . . . ?
Te13 Te7 Te14 Te9 57(7) . . . . ?
Te13 Te7 Te14 Te10 -109(16) . . . 3 ?
Te13 Te7 Te14 Te11 26(7) . . . . ?
Te13 Te7 Te14 Te14 -169(6) . . . 12 ?
Te13 Te8 Te9 Te1 41(7) . . . 3 ?
Te13 Te8 Te9 Te2 113(7) . . . . ?
Te13 Te8 Te9 Te4 83(7) . . . . ?
Te13 Te8 Te9 Te5 4(7) . . . 3 ?
Te13 Te8 Te9 Te6 -94(7) . . . 12 ?
Te13 Te8 Te9 Te6 -88(9) . . . . ?
Te13 Te8 Te9 Te7 -59(7) . . . . ?
Te13 Te8 Te9 Te11 55(7) . . . . ?
Te13 Te8 Te9 Te12 56(8) . . . . ?
Te13 Te8 Te9 Te14 -45(7) . . . . ?
Te13 Te8 Te14 Te5 -94(10) . . . . ?
Te13 Te8 Te14 Te5 20(9) . . . 3 ?
Te13 Te8 Te14 Te6 130(12) . . . . ?
Te13 Te8 Te14 Te6 -171(11) . . . 12 ?
Te13 Te8 Te14 Te7 -116(13) . . . . ?
Te13 Te8 Te14 Te7 -149(23) . . . 12 ?
Te13 Te8 Te14 Te9 90(10) . . . . ?
Te13 Te8 Te14 Te10 8(13) . . . 3 ?
Te13 Te8 Te14 Te11 55(9) . . . . ?
Te13 Te8 Te14 Te14 -140(11) . . . 12 ?
Te13 Te9 Te11 Te1 -88(12) . . . 3 ?
Te13 Te9 Te11 Te1 84(5) . . . 7 ?
Te13 Te9 Te11 Te2 140(35) . . . 8 ?
Te13 Te9 Te11 Te2 90(5) . . . . ?
Te13 Te9 Te11 Te4 117(10) . . . . ?
Te13 Te9 Te11 Te5 -65(6) . . . 3 ?
Te13 Te9 Te11 Te6 -96(9) . . . . ?
Te13 Te9 Te11 Te11 92(6) . . . 8 ?
Te13 Te9 Te11 Te12 42(12) . . . . ?
Te13 Te9 Te11 Te14 -46(6) . . . . ?
Te13 Te9 Te12 Te1 116(9) . . . 7 ?
Te13 Te9 Te12 Te1 -107(9) . . . 3 ?
Te13 Te9 Te12 Te2 117(8) . . . . ?
Te13 Te9 Te12 Te2 -138(9) . . . 8 ?
Te13 Te9 Te12 Te3 -84(14) . . . 2_545 ?
Te13 Te9 Te12 Te4 -177(6) . . . . ?
Te13 Te9 Te12 Te9 -177(6) . . . 8 ?
Te13 Te9 Te12 Te11 162(9) . . . 8 ?
Te13 Te9 Te12 Te11 -126(12) . . . . ?
Te13 Te9 Te12 Te13 174(18) . . . 8 ?
Te13 Te9 Te14 Te5 77(7) . . . 3 ?
Te13 Te9 Te14 Te5 -45(6) . . . . ?
Te13 Te9 Te14 Te6 -128(8) . . . 12 ?
Te13 Te9 Te14 Te6 -169(10) . . . . ?
Te13 Te9 Te14 Te7 -62(9) . . . . ?
Te13 Te9 Te14 Te7 170(16) . . . 12 ?
Te13 Te9 Te14 Te8 -42(6) . . . . ?
Te13 Te9 Te14 Te10 108(9) . . . 3 ?
Te13 Te9 Te14 Te11 60(7) . . . . ?
Te13 Te9 Te14 Te14 -130(18) . . . 12 ?
Te13 Te11 Te12 Te1 -119(7) . . . 3 ?
Te13 Te11 Te12 Te1 100(7) . . . 7 ?
Te13 Te11 Te12 Te2 84(6) . . . . ?
Te13 Te11 Te12 Te2 -153(8) . . . 8 ?
Te13 Te11 Te12 Te3 -106(11) . . . 2_545 ?
Te13 Te11 Te12 Te4 153(8) . . . . ?
Te13 Te11 Te12 Te9 177(7) . . . 8 ?
Te13 Te11 Te12 Te9 39(9) . . . . ?
Te13 Te11 Te12 Te11 153(8) . . . 8 ?
Te13 Te11 Te12 Te13 -161(23) . . . 8 ?
Te13 Te11 Te14 Te5 100(9) . . . 3 ?
Te13 Te11 Te14 Te5 -17(7) . . . . ?
Te13 Te11 Te14 Te6 -111(11) . . . 12 ?
Te13 Te11 Te14 Te6 -139(12) . . . . ?
Te13 Te11 Te14 Te7 -31(9) . . . . ?
Te13 Te11 Te14 Te7 156(15) . . . 12 ?
Te13 Te11 Te14 Te8 -39(7) . . . . ?
Te13 Te11 Te14 Te9 -100(9) . . . . ?
Te13 Te11 Te14 Te10 122(10) . . . 3 ?
Te13 Te11 Te14 Te14 -131(47) . . . 12 ?
Te13 Te12 Te13 Te2 -137(5) 8 . . . ?
Te13 Te12 Te13 Te3 -79(4) 8 . . 3_665 ?
Te13 Te12 Te13 Te4 180.005(18) 8 . . . ?
Te13 Te12 Te13 Te5 -48(11) 8 . . . ?
Te13 Te12 Te13 Te5 100(3) 8 . . 3 ?
Te13 Te12 Te13 Te6 167(7) 8 . . . ?
Te13 Te12 Te13 Te7 -117(70) 8 . . . ?
Te13 Te12 Te13 Te8 -97(6) 8 . . . ?
Te13 Te12 Te13 Te9 -177(6) 8 . . . ?
Te13 Te12 Te13 Te11 159(6) 8 . . . ?
Te13 Te12 Te13 Te14 138(15) 8 . . . ?
Te14 Te5 Te7 Te1 150(7) 2 . . . ?
Te14 Te5 Te7 Te1 78(21) . . . . ?
Te14 Te5 Te7 Te5 -57(4) 2 . . 11 ?
Te14 Te5 Te7 Te5 -129(20) . . . 11 ?
Te14 Te5 Te7 Te6 -108(8) 2 . . 12 ?
Te14 Te5 Te7 Te6 156(19) 2 . . . ?
Te14 Te5 Te7 Te6 -180(26) . . . 12 ?
Te14 Te5 Te7 Te6 84(27) . . . . ?
Te14 Te5 Te7 Te7 -90(20) . . . 12 ?
Te14 Te5 Te7 Te7 -18(14) 2 . . 12 ?
Te14 Te5 Te7 Te8 73(20) . . . . ?
Te14 Te5 Te7 Te8 145(4) 2 . . . ?
Te14 Te5 Te7 Te9 60(18) . . . . ?
Te14 Te5 Te7 Te9 132(6) 2 . . . ?
Te14 Te5 Te7 Te10 -55(4) 2 . . . ?
Te14 Te5 Te7 Te10 -127(20) . . . . ?
Te14 Te5 Te7 Te13 96(6) 2 . . . ?
Te14 Te5 Te7 Te13 25(18) . . . . ?
Te14 Te5 Te7 Te14 -56(9) 2 . . 12 ?
Te14 Te5 Te7 Te14 72(19) 2 . . . ?
Te14 Te5 Te7 Te14 -127(26) . . . 12 ?
Te14 Te5 Te8 Te1 37(13) 2 . . 7 ?
Te14 Te5 Te8 Te1 103(8) . . . 7 ?
Te14 Te5 Te8 Te1 169(3) . . . . ?
Te14 Te5 Te8 Te1 103(8) 2 . . . ?
Te14 Te5 Te8 Te2 -33(15) 2 . . . ?
Te14 Te5 Te8 Te2 33(10) . . . . ?
Te14 Te5 Te8 Te3 71(10) 2 . . 3_665 ?
Te14 Te5 Te8 Te3 137(7) . . . 3_665 ?
Te14 Te5 Te8 Te7 -15(5) . . . . ?
Te14 Te5 Te8 Te7 -81(8) 2 . . . ?
Te14 Te5 Te8 Te8 78(8) 2 . . 7 ?
Te14 Te5 Te8 Te8 144(4) . . . 7 ?
Te14 Te5 Te8 Te9 -3(3) . . . . ?
Te14 Te5 Te8 Te9 -69(9) 2 . . . ?
Te14 Te5 Te8 Te11 -39(10) 2 . . . ?
Te14 Te5 Te8 Te11 27(4) . . . . ?
Te14 Te5 Te8 Te12 64(6) . . . . ?
Te14 Te5 Te8 Te12 -2(10) 2 . . . ?
Te14 Te5 Te8 Te13 34(5) . . . . ?
Te14 Te5 Te8 Te13 -32(9) 2 . . . ?
Te14 Te5 Te8 Te14 -66(8) 2 . . . ?
Te14 Te5 Te10 Te1 -97(9) 2 . . . ?
Te14 Te5 Te10 Te1 112(7) . . . 11 ?
Te14 Te5 Te10 Te1 -140(8) 2 . . 11 ?
Te14 Te5 Te10 Te1 155(9) . . . . ?
Te14 Te5 Te10 Te6 -136(4) . . . 2 ?
Te14 Te5 Te10 Te6 -28(3) 2 . . 2 ?
Te14 Te5 Te10 Te6 147(6) 2 . . 12 ?
Te14 Te5 Te10 Te6 39(3) . . . 12 ?
Te14 Te5 Te10 Te7 119(4) 2 . . . ?
Te14 Te5 Te10 Te7 -112(6) . . . 11 ?
Te14 Te5 Te10 Te7 11(4) . . . . ?
Te14 Te5 Te10 Te7 -4(7) 2 . . 11 ?
Te14 Te5 Te10 Te14 108(6) 2 . . . ?
Te14 Te5 Te10 Te14 -99(5) . . . 11 ?
Te14 Te5 Te10 Te14 9(4) 2 . . 11 ?
Te14 Te5 Te10 Te14 -108(6) . . . 2 ?
Te14 Te5 Te10 Te14 120(8) 2 . . 12 ?
Te14 Te5 Te10 Te14 12(4) . . . 12 ?
Te14 Te5 Te13 Te2 162(5) 2 . . . ?
Te14 Te5 Te13 Te2 -112(10) . . . . ?
Te14 Te5 Te13 Te3 -144(9) . . . 3_665 ?
Te14 Te5 Te13 Te3 130(4) 2 . . 3_665 ?
Te14 Te5 Te13 Te4 -129(15) . . . . ?
Te14 Te5 Te13 Te4 146(10) 2 . . . ?
Te14 Te5 Te13 Te5 54(9) . . . 3 ?
Te14 Te5 Te13 Te5 -32(11) 2 . . 3 ?
Te14 Te5 Te13 Te6 -113(5) 2 . . . ?
Te14 Te5 Te13 Te6 -28(5) . . . . ?
Te14 Te5 Te13 Te7 -96(6) 2 . . . ?
Te14 Te5 Te13 Te7 -11(8) . . . . ?
Te14 Te5 Te13 Te8 162(5) 2 . . . ?
Te14 Te5 Te13 Te8 -113(9) . . . . ?
Te14 Te5 Te13 Te9 -59(8) . . . . ?
Te14 Te5 Te13 Te9 -144(7) 2 . . . ?
Te14 Te5 Te13 Te11 -170(23) 2 . . . ?
Te14 Te5 Te13 Te11 -84(24) . . . . ?
Te14 Te5 Te13 Te12 99(14) 2 . . . ?
Te14 Te5 Te13 Te12 -176(18) . . . . ?
Te14 Te5 Te13 Te14 -85(9) 2 . . . ?
Te14 Te5 Te14 Te5 59(7) 2 . . 3 ?
Te14 Te5 Te14 Te6 -111(4) 2 . . 12 ?
Te14 Te5 Te14 Te6 -156(8) 2 . . . ?
Te14 Te5 Te14 Te7 -111(19) 2 . . . ?
Te14 Te5 Te14 Te7 -56(8) 2 . . 12 ?
Te14 Te5 Te14 Te8 148(4) 2 . . . ?
Te14 Te5 Te14 Te9 152(4) 2 . . . ?
Te14 Te5 Te14 Te10 7(9) 2 . . 3 ?
Te14 Te5 Te14 Te11 118(5) 2 . . . ?
Te14 Te5 Te14 Te13 102(8) 2 . . . ?
Te14 Te5 Te14 Te14 -75(2) 2 . . 12 ?
Te14 Te6 Te7 Te1 -114(14) . . . . ?
Te14 Te6 Te7 Te1 158(10) 12 . . . ?
Te14 Te6 Te7 Te5 100(12) . . . 11 ?
Te14 Te6 Te7 Te5 11(4) 12 . . 11 ?
Te14 Te6 Te7 Te5 -117(23) . . . . ?
Te14 Te6 Te7 Te5 155(22) 12 . . . ?
Te14 Te6 Te7 Te6 42(6) 12 . . 12 ?
Te14 Te6 Te7 Te6 130(14) . . . 12 ?
Te14 Te6 Te7 Te7 -29(6) 12 . . 12 ?
Te14 Te6 Te7 Te7 59(11) . . . 12 ?
Te14 Te6 Te7 Te8 165(8) 12 . . . ?
Te14 Te6 Te7 Te8 -107(12) . . . . ?
Te14 Te6 Te7 Te9 -82(11) . . . . ?
Te14 Te6 Te7 Te9 -170(7) 12 . . . ?
Te14 Te6 Te7 Te10 106(15) . . . . ?
Te14 Te6 Te7 Te10 17(7) 12 . . . ?
Te14 Te6 Te7 Te13 -55(11) . . . . ?
Te14 Te6 Te7 Te13 -143(9) 12 . . . ?
Te14 Te6 Te7 Te14 88(13) . . . 12 ?
Te14 Te6 Te7 Te14 -88(13) 12 . . . ?
Te14 Te6 Te9 Te1 -97(7) 12 . . 3 ?
Te14 Te6 Te9 Te1 -70(7) . . . 3 ?
Te14 Te6 Te9 Te2 96(15) 12 . . . ?
Te14 Te6 Te9 Te2 123(15) . . . . ?
Te14 Te6 Te9 Te4 -129(9) 12 . . . ?
Te14 Te6 Te9 Te4 -102(11) . . . . ?
Te14 Te6 Te9 Te5 -76(6) 12 . . 3 ?
Te14 Te6 Te9 Te5 -49(7) . . . 3 ?
Te14 Te6 Te9 Te6 72(7) . . . 12 ?
Te14 Te6 Te9 Te6 45(5) 12 . . 12 ?
Te14 Te6 Te9 Te7 9(7) 12 . . . ?
Te14 Te6 Te9 Te7 36(5) . . . . ?
Te14 Te6 Te9 Te8 60(8) . . . . ?
Te14 Te6 Te9 Te8 33(9) 12 . . . ?
Te14 Te6 Te9 Te11 -99(9) 12 . . . ?
Te14 Te6 Te9 Te11 -72(9) . . . . ?
Te14 Te6 Te9 Te12 -59(16) 12 . . . ?
Te14 Te6 Te9 Te12 -32(16) . . . . ?
Te14 Te6 Te9 Te13 -18(9) 12 . . . ?
Te14 Te6 Te9 Te13 9(9) . . . . ?
Te14 Te6 Te9 Te14 -27(8) 12 . . . ?
Te14 Te6 Te11 Te1 -77(8) 12 . . 3 ?
Te14 Te6 Te11 Te1 98(7) 12 . . 7 ?
Te14 Te6 Te11 Te1 -76(9) . . . 3 ?
Te14 Te6 Te11 Te1 99(8) . . . 7 ?
Te14 Te6 Te11 Te2 103(7) 12 . . . ?
Te14 Te6 Te11 Te2 -105(12) 12 . . 8 ?
Te14 Te6 Te11 Te2 -103(13) . . . 8 ?
Te14 Te6 Te11 Te2 105(7) . . . . ?
Te14 Te6 Te11 Te4 150(12) . . . . ?
Te14 Te6 Te11 Te4 149(10) 12 . . . ?
Te14 Te6 Te11 Te5 -49(8) . . . 3 ?
Te14 Te6 Te11 Te5 -51(7) 12 . . 3 ?
Te14 Te6 Te11 Te9 98(11) 12 . . . ?
Te14 Te6 Te11 Te9 100(10) . . . . ?
Te14 Te6 Te11 Te11 112(8) 12 . . 8 ?
Te14 Te6 Te11 Te11 114(10) . . . 8 ?
Te14 Te6 Te11 Te12 37(15) 12 . . . ?
Te14 Te6 Te11 Te12 39(15) . . . . ?
Te14 Te6 Te11 Te13 28(8) . . . . ?
Te14 Te6 Te11 Te13 26(9) 12 . . . ?
Te14 Te6 Te11 Te14 -2(9) 12 . . . ?
Te14 Te6 Te13 Te2 -178(13) . . . . ?
Te14 Te6 Te13 Te2 151(5) 12 . . . ?
Te14 Te6 Te13 Te3 114(7) 12 . . 3_665 ?
Te14 Te6 Te13 Te3 144(13) . . . 3_665 ?
Te14 Te6 Te13 Te4 -142(12) . . . . ?
Te14 Te6 Te13 Te4 -172(5) 12 . . . ?
Te14 Te6 Te13 Te5 39(5) 12 . . . ?
Te14 Te6 Te13 Te5 70(11) . . . . ?
Te14 Te6 Te13 Te5 -67(11) . . . 3 ?
Te14 Te6 Te13 Te5 -97(5) 12 . . 3 ?
Te14 Te6 Te13 Te7 27(6) 12 . . . ?
Te14 Te6 Te13 Te7 57(9) . . . . ?
Te14 Te6 Te13 Te8 127(13) . . . . ?
Te14 Te6 Te13 Te8 96(6) 12 . . . ?
Te14 Te6 Te13 Te9 -165(15) . . . . ?
Te14 Te6 Te13 Te9 165(8) 12 . . . ?
Te14 Te6 Te13 Te11 -128(13) . . . . ?
Te14 Te6 Te13 Te11 -159(7) 12 . . . ?
Te14 Te6 Te13 Te12 -135(14) . . . . ?
Te14 Te6 Te13 Te12 -165(8) 12 . . . ?
Te14 Te6 Te13 Te14 -30(12) 12 . . . ?
Te14 Te6 Te14 Te5 76(9) 12 . . . ?
Te14 Te6 Te14 Te5 -134(11) 12 . . 3 ?
Te14 Te6 Te14 Te6 22(9) 12 . . 12 ?
Te14 Te6 Te14 Te7 -42(5) 12 . . 12 ?
Te14 Te6 Te14 Te7 64(10) 12 . . . ?
Te14 Te6 Te14 Te8 111(9) 12 . . . ?
Te14 Te6 Te14 Te9 153(9) 12 . . . ?
Te14 Te6 Te14 Te10 -91(9) 12 . . 3 ?
Te14 Te6 Te14 Te11 178(9) 12 . . . ?
Te14 Te6 Te14 Te13 142(15) 12 . . . ?
Te14 Te7 Te8 Te1 14(11) . . . 7 ?
Te14 Te7 Te8 Te1 -139(24) 12 . . . ?
Te14 Te7 Te8 Te1 153(8) . . . . ?
Te14 Te7 Te8 Te1 82(24) 12 . . 7 ?
Te14 Te7 Te8 Te2 -11(9) . . . . ?
Te14 Te7 Te8 Te2 57(25) 12 . . . ?
Te14 Te7 Te8 Te3 165(19) 12 . . 3_665 ?
Te14 Te7 Te8 Te3 97(14) . . . 3_665 ?
Te14 Te7 Te8 Te5 -142(26) 12 . . . ?
Te14 Te7 Te8 Te5 150(9) . . . . ?
Te14 Te7 Te8 Te8 104(14) . . . 7 ?
Te14 Te7 Te8 Te8 172(18) 12 . . 7 ?
Te14 Te7 Te8 Te9 -18(7) . . . . ?
Te14 Te7 Te8 Te9 51(24) 12 . . . ?
Te14 Te7 Te8 Te11 7(7) . . . . ?
Te14 Te7 Te8 Te11 75(24) 12 . . . ?
Te14 Te7 Te8 Te12 35(11) . . . . ?
Te14 Te7 Te8 Te12 103(25) 12 . . . ?
Te14 Te7 Te8 Te13 106(26) 12 . . . ?
Te14 Te7 Te8 Te13 38(8) . . . . ?
Te14 Te7 Te8 Te14 68(25) 12 . . . ?
Te14 Te7 Te9 Te1 52(9) . . . 3 ?
Te14 Te7 Te9 Te1 97(6) 12 . . 3 ?
Te14 Te7 Te9 Te2 147(9) . . . . ?
Te14 Te7 Te9 Te2 -168(6) 12 . . . ?
Te14 Te7 Te9 Te4 98(10) . . . . ?
Te14 Te7 Te9 Te4 143(5) 12 . . . ?
Te14 Te7 Te9 Te5 33(8) . . . 3 ?
Te14 Te7 Te9 Te5 78(7) 12 . . 3 ?
Te14 Te7 Te9 Te6 -9(7) 12 . . . ?
Te14 Te7 Te9 Te6 -80(9) . . . 12 ?
Te14 Te7 Te9 Te6 -54(9) . . . . ?
Te14 Te7 Te9 Te6 -35(5) 12 . . 12 ?
Te14 Te7 Te9 Te8 -160(8) 12 . . . ?
Te14 Te7 Te9 Te8 155(10) . . . . ?
Te14 Te7 Te9 Te11 69(11) . . . . ?
Te14 Te7 Te9 Te11 114(8) 12 . . . ?
Te14 Te7 Te9 Te12 140(6) 12 . . . ?
Te14 Te7 Te9 Te12 95(9) . . . . ?
Te14 Te7 Te9 Te13 88(9) . . . . ?
Te14 Te7 Te9 Te13 133(10) 12 . . . ?
Te14 Te7 Te9 Te14 45(8) 12 . . . ?
Te14 Te7 Te10 Te1 170(6) 12 . . . ?
Te14 Te7 Te10 Te1 60(14) . . . 11 ?
Te14 Te7 Te10 Te1 23(7) 12 . . 11 ?
Te14 Te7 Te10 Te1 -153(13) . . . . ?
Te14 Te7 Te10 Te5 -143(14) . . . . ?
Te14 Te7 Te10 Te5 180(8) 12 . . . ?
Te14 Te7 Te10 Te5 41(14) . . . 11 ?
Te14 Te7 Te10 Te5 4(8) 12 . . 11 ?
Te14 Te7 Te10 Te6 -102(14) . . . 2 ?
Te14 Te7 Te10 Te6 -139(6) 12 . . 2 ?
Te14 Te7 Te10 Te6 74(13) . . . 12 ?
Te14 Te7 Te10 Te6 37(4) 12 . . 12 ?
Te14 Te7 Te10 Te7 -71(6) 12 . . 11 ?
Te14 Te7 Te10 Te7 -34(12) . . . 11 ?
Te14 Te7 Te10 Te14 -37(11) 12 . . . ?
Te14 Te7 Te10 Te14 37(11) . . . 12 ?
Te14 Te7 Te10 Te14 -122(8) 12 . . 2 ?
Te14 Te7 Te10 Te14 -45(16) . . . 11 ?
Te14 Te7 Te10 Te14 -82(7) 12 . . 11 ?
Te14 Te7 Te10 Te14 -85(13) . . . 2 ?
Te14 Te7 Te13 Te2 -109(9) 12 . . . ?
Te14 Te7 Te13 Te2 -96(10) . . . . ?
Te14 Te7 Te13 Te3 -163(8) 12 . . 3_665 ?
Te14 Te7 Te13 Te3 -150(10) . . . 3_665 ?
Te14 Te7 Te13 Te4 -78(15) 12 . . . ?
Te14 Te7 Te13 Te4 -65(14) . . . . ?
Te14 Te7 Te13 Te5 166(10) . . . . ?
Te14 Te7 Te13 Te5 13(12) 12 . . 3 ?
Te14 Te7 Te13 Te5 152(12) 12 . . . ?
Te14 Te7 Te13 Te5 26(8) . . . 3 ?
Te14 Te7 Te13 Te6 -33(7) . . . . ?
Te14 Te7 Te13 Te6 -46(9) 12 . . . ?
Te14 Te7 Te13 Te8 -135(10) . . . . ?
Te14 Te7 Te13 Te8 -148(10) 12 . . . ?
Te14 Te7 Te13 Te9 -54(8) . . . . ?
Te14 Te7 Te13 Te9 -68(10) 12 . . . ?
Te14 Te7 Te13 Te11 -53(15) 12 . . . ?
Te14 Te7 Te13 Te11 -39(11) . . . . ?
Te14 Te7 Te13 Te12 -128(67) 12 . . . ?
Te14 Te7 Te13 Te12 -115(71) . . . . ?
Te14 Te7 Te13 Te14 -13(7) 12 . . . ?
Te14 Te7 Te14 Te5 128(11) 12 . . 3 ?
Te14 Te7 Te14 Te5 140(21) 12 . . . ?
Te14 Te7 Te14 Te6 -40(3) 12 . . 12 ?
Te14 Te7 Te14 Te6 -79(10) 12 . . . ?
Te14 Te7 Te14 Te7 9(11) 12 . . 12 ?
Te14 Te7 Te14 Te8 -155(7) 12 . . . ?
Te14 Te7 Te14 Te9 -133(4) 12 . . . ?
Te14 Te7 Te14 Te10 60(16) 12 . . 3 ?
Te14 Te7 Te14 Te11 -165(4) 12 . . . ?
Te14 Te7 Te14 Te13 169(6) 12 . . . ?
Te14 Te8 Te9 Te1 86(4) . . . 3 ?
Te14 Te8 Te9 Te2 158(5) . . . . ?
Te14 Te8 Te9 Te4 128(5) . . . . ?
Te14 Te8 Te9 Te5 50(4) . . . 3 ?
Te14 Te8 Te9 Te6 -49(4) . . . 12 ?
Te14 Te8 Te9 Te6 -43(6) . . . . ?
Te14 Te8 Te9 Te7 -14(5) . . . . ?
Te14 Te8 Te9 Te11 101(6) . . . . ?
Te14 Te8 Te9 Te12 102(7) . . . . ?
Te14 Te8 Te9 Te13 45(7) . . . . ?
Te14 Te8 Te13 Te2 -102(9) . . . . ?
Te14 Te8 Te13 Te3 -174(8) . . . 3_665 ?
Te14 Te8 Te13 Te4 -110(10) . . . . ?
Te14 Te8 Te13 Te5 78(9) . . . . ?
Te14 Te8 Te13 Te5 -72(26) . . . 3 ?
Te14 Te8 Te13 Te6 -25(7) . . . . ?
Te14 Te8 Te13 Te7 35(8) . . . . ?
Te14 Te8 Te13 Te9 -56(8) . . . . ?
Te14 Te8 Te13 Te11 -92(11) . . . . ?
Te14 Te8 Te13 Te12 -141(15) . . . . ?
Te14 Te9 Te11 Te1 130(5) . . . 7 ?
Te14 Te9 Te11 Te1 -42(13) . . . 3 ?
Te14 Te9 Te11 Te2 136(5) . . . . ?
Te14 Te9 Te11 Te2 -174(32) . . . 8 ?
Te14 Te9 Te11 Te4 163(8) . . . . ?
Te14 Te9 Te11 Te5 -19(7) . . . 3 ?
Te14 Te9 Te11 Te6 -50(7) . . . . ?
Te14 Te9 Te11 Te11 138(5) . . . 8 ?
Te14 Te9 Te11 Te12 88(13) . . . . ?
Te14 Te9 Te11 Te13 46(6) . . . . ?
Te14 Te9 Te12 Te1 144(8) . . . 7 ?
Te14 Te9 Te12 Te1 -80(8) . . . 3 ?
Te14 Te9 Te12 Te2 145(7) . . . . ?
Te14 Te9 Te12 Te2 -110(8) . . . 8 ?
Te14 Te9 Te12 Te3 -56(14) . . . 2_545 ?
Te14 Te9 Te12 Te4 -149(5) . . . . ?
Te14 Te9 Te12 Te9 -149(5) . . . 8 ?
Te14 Te9 Te12 Te11 -98(12) . . . . ?
Te14 Te9 Te12 Te11 -170(7) . . . 8 ?
Te14 Te9 Te12 Te13 28(7) . . . . ?
Te14 Te9 Te12 Te13 -158(22) . . . 8 ?
Te14 Te9 Te13 Te2 170(6) . . . . ?
Te14 Te9 Te13 Te3 145(8) . . . 3_665 ?
Te14 Te9 Te13 Te4 -143(6) . . . . ?
Te14 Te9 Te13 Te5 74(8) . . . . ?
Te14 Te9 Te13 Te5 -67(6) . . . 3 ?
Te14 Te9 Te13 Te6 9(8) . . . . ?
Te14 Te9 Te13 Te7 45(5) . . . . ?
Te14 Te9 Te13 Te8 118(8) . . . . ?
Te14 Te9 Te13 Te11 -118(8) . . . . ?
Te14 Te9 Te13 Te12 -145(8) . . . . ?
Te14 Te11 Te12 Te1 -108(6) . . . 3 ?
Te14 Te11 Te12 Te1 111(9) . . . 7 ?
Te14 Te11 Te12 Te2 -143(7) . . . 8 ?
Te14 Te11 Te12 Te2 95(7) . . . . ?
Te14 Te11 Te12 Te3 -96(9) . . . 2_545 ?
Te14 Te11 Te12 Te4 163(8) . . . . ?
Te14 Te11 Te12 Te9 49(7) . . . . ?
Te14 Te11 Te12 Te9 -172(5) . . . 8 ?
Te14 Te11 Te12 Te11 163(8) . . . 8 ?
Te14 Te11 Te12 Te13 11(6) . . . . ?
Te14 Te11 Te12 Te13 -151(21) . . . 8 ?
Te14 Te11 Te13 Te2 120(7) . . . . ?
Te14 Te11 Te13 Te3 141(9) . . . 3_665 ?
Te14 Te11 Te13 Te4 165(10) . . . . ?
Te14 Te11 Te13 Te5 -63(7) . . . 3 ?
Te14 Te11 Te13 Te5 85(24) . . . . ?
Te14 Te11 Te13 Te6 23(6) . . . . ?
Te14 Te11 Te13 Te7 29(8) . . . . ?
Te14 Te11 Te13 Te8 110(10) . . . . ?
Te14 Te11 Te13 Te9 51(7) . . . . ?
Te14 Te11 Te13 Te12 -165(9) . . . . ?
loop_
_twin_individual_id
_twin_individual_mass_fraction_refined
1 0.052(15)
2 0.948(15)
