#------------------------------------------------------------------------------
#$Date: 2020-01-04 05:11:48 +0200 (Sat, 04 Jan 2020) $
#$Revision: 246545 $
#$URL: file:///home/coder/svn-repositories/cod/cif/4/00/31/4003140.cif $
#------------------------------------------------------------------------------
#
# This file is available in the Crystallography Open Database (COD),
# http://www.crystallography.net/
#
# All data on this site have been placed in the public domain by the
# contributors.
#
data_4003140
loop_
_publ_author_name
'Bai, Zhiyong'
'Hu, Chun-Li'
'Liu, Lehui'
'Zhang, Lizhen'
'Huang, Yisheng'
'Yuan, Feifei'
'Lin, Zhoubin'
_publ_section_title
;
 KMg(H2O)PO4: A Deep-Ultraviolet Transparent Nonlinear Optical Material
 Derived from KTiOPO4
;
_journal_issue                   22
_journal_name_full               'Chemistry of Materials'
_journal_page_first              9540
_journal_paper_doi               10.1021/acs.chemmater.9b03950
_journal_volume                  31
_journal_year                    2019
_chemical_formula_moiety         '0.5(H4 K2 Mg2 O10 P2)'
_chemical_formula_sum            'H2 K Mg O5 P'
_chemical_formula_weight         176.40
_space_group_crystal_system      orthorhombic
_space_group_IT_number           31
_space_group_name_Hall           'P 2ac -2'
_space_group_name_H-M_alt        'P m n 21'
_atom_sites_solution_hydrogens   difmap
_atom_sites_solution_primary     dual
_audit_creation_date             2019-07-18
_audit_creation_method
;
Olex2 1.2
(compiled 2018.05.29 svn.r3508 for OlexSys, GUI svn.r5506)
;
_cell_angle_alpha                90
_cell_angle_beta                 90
_cell_angle_gamma                90
_cell_formula_units_Z            2
_cell_length_a                   5.56720(10)
_cell_length_b                   8.2191(2)
_cell_length_c                   4.78410(10)
_cell_measurement_reflns_used    4187
_cell_measurement_temperature    224(8)
_cell_measurement_theta_max      60.1910
_cell_measurement_theta_min      7.9830
_cell_volume                     218.908(8)
_computing_cell_refinement       'CrysAlisPro 1.171.40.14a (Rigaku OD, 2018)'
_computing_data_collection       'CrysAlisPro 1.171.40.14a (Rigaku OD, 2018)'
_computing_data_reduction        'CrysAlisPro 1.171.40.14a (Rigaku OD, 2018)'
_computing_molecular_graphics    'Olex2 (Dolomanov et al., 2009)'
_computing_publication_material  'Olex2 (Dolomanov et al., 2009)'
_computing_structure_refinement  'ShelXL (Sheldrick, 2015)'
_computing_structure_solution    'ShelXT (Sheldrick, 2015)'
_diffrn_ambient_environment      N~2~
_diffrn_ambient_temperature      224(8)
_diffrn_detector                 'CCD plate'
_diffrn_detector_type            HyPix
_diffrn_measured_fraction_theta_full 1.000
_diffrn_measured_fraction_theta_max 0.987
_diffrn_measurement_details
;
List of Runs (angles in degrees, time in seconds):

  # Type    Start    End  Width  t~exp~   \w     \q     \k     \f   Frames
--------------------------------------------------------------------------
  1  \w     89.00 114.00   0.50    0.10    --   72.34 108.00  56.00   50
  2  \w      1.00  78.00   0.50    0.10    --   72.34-108.00 -40.00  154
  3  \w   -117.00 -92.00   0.50    0.10    --  -74.84-108.00 -40.00   50
  4  \w   -102.00 -16.00   0.50    0.10    --  -74.84 108.00  56.00  172
  5  \w    -14.00  11.00   0.50    0.10    --   -1.25 -99.00  30.00   50
  6  \w    -30.00  14.00   0.50    0.10    --   -1.25 -77.00   0.00   88
  7  \w    -14.00  31.00   0.50    0.10    --   -1.25 -99.00 -60.00   90
  8  \w     -6.00  20.00   0.50    0.10    --   -1.25 -99.00  60.00   52
  9  \w    -71.00 -45.00   0.50    0.10    --   -1.25 -77.00   0.00   52
 10  \w     -7.00  28.00   0.50    0.10    --   -1.25 -99.00 150.00   70
 11  \w    -72.00 -25.00   0.50    0.10    --   -1.25 -38.00 -90.00   94
 12  \w      5.00  32.00   0.50    0.10    --   -1.25 -99.00-180.00   54
 13  \w     49.00  97.00   0.50    0.10    --   72.34  77.00 -90.00   96
 14  \w     49.00  84.00   0.50    0.10    --   72.34  77.00 -30.00   70
 15  \w    109.00 135.00   0.50    0.10    --   72.34  77.00 -30.00   52
 16  \w     81.00 141.00   0.50    0.10    --   72.34 125.00-180.00  120
 17  \w     56.00  95.00   0.50    0.10    --   72.34  57.00  60.00   78
 18  \w     50.00  79.00   0.50    0.10    --   72.34  77.00 150.00   58
 19  \w     56.00  84.00   0.50    0.10    --   72.34  57.00  90.00   56
 20  \w      1.00  44.00   0.50    0.10    --   72.34 -99.00-120.00   86
 21  \w     58.00  83.00   0.50    0.10    --   72.34  38.00-120.00   50
 22  \w     53.00  79.00   0.50    0.10    --   72.34 -99.00-120.00   52
 23  \w     59.00  93.00   0.50    0.10    --   72.34  57.00-120.00   68
 24  \w     51.00 143.00   0.50    0.10    --   72.34  77.00  90.00  184
 25  \w   -105.00 -53.00   0.50    0.10    --  -74.84 -77.00   0.00  104
 26  \w    -96.00 -60.00   0.50    0.10    --  -74.84 -38.00  30.00   72
 27  \w    -81.00 -56.00   0.50    0.10    --  -74.84 -77.00-150.00   50
 28  \w   -147.00-100.00   0.50    0.10    --  -74.84-125.00-120.00   94
 29  \w    -85.00 -53.00   0.50    0.10    --  -74.84 -77.00-180.00   64
 30  \w   -137.00-112.00   0.50    0.10    --  -74.84 -77.00-150.00   50
 31  \w   -144.00 -79.00   0.50    0.10    --  -74.84-125.00  30.00  130
 32  \w    -94.00 -51.00   0.50    0.10    --  -74.84 -77.00 120.00   86
 33  \w    -99.00 -53.00   0.50    0.10    --  -74.84 -77.00 150.00   92
 34  \w   -139.00 -53.00   0.50    0.10    --  -74.84 -77.00 -30.00  172
 35  \w   -143.00-117.00   0.50    0.10    --  -74.84 -77.00 120.00   52
 36  \w    -87.00 -53.00   0.50    0.10    --  -74.84 -77.00-120.00   68
 37  \w    -88.00 -59.00   0.50    0.10    --  -74.84 -46.00 143.64   58
 38  \w    -78.00 -51.00   0.50    0.10    --  -74.84 -77.00  60.00   54
 39  \w   -147.00 -99.00   0.50    0.10    --  -74.84 -46.00 143.64   96
 40  \w    -92.00 -63.00   0.50    0.10    --  -74.84 -38.00-120.00   58
 41  \w   -122.00 -60.00   0.50    0.10    --  -74.84 -45.00-129.22  124
 42  \w    -85.00  -1.00   0.50    0.10    --  -74.84  38.00  60.00  168
 43  \w   -134.00-108.00   0.50    0.10    --  -74.84 -77.00  60.00   52
 44  \w    -91.00  -5.00   0.50    0.10    --  -74.84  57.00-120.00  172
 45  \w    -87.00 -52.00   0.50    0.10    --  -74.84 -77.00  30.00   70
;
_diffrn_measurement_device       'four-circle diffractometer'
_diffrn_measurement_device_type  'ROD, Synergy Custom system, HyPix'
_diffrn_measurement_method       '\w scans'
_diffrn_orient_matrix_type
'CrysAlisPro convention (1999,Acta A55,543-557)'
_diffrn_orient_matrix_UB_11      0.0183893000
_diffrn_orient_matrix_UB_12      -0.1569317000
_diffrn_orient_matrix_UB_13      -0.0721068000
_diffrn_orient_matrix_UB_21      -0.2304032000
_diffrn_orient_matrix_UB_22      -0.0232834000
_diffrn_orient_matrix_UB_23      0.0696801000
_diffrn_orient_matrix_UB_31      -0.0666253000
_diffrn_orient_matrix_UB_32      0.0369929000
_diffrn_orient_matrix_UB_33      -0.2614211000
_diffrn_radiation_monochromator  mirror
_diffrn_radiation_probe          x-ray
_diffrn_radiation_type           GaK\a
_diffrn_radiation_wavelength     1.3405
_diffrn_reflns_av_R_equivalents  0.0517
_diffrn_reflns_av_unetI/netI     0.0226
_diffrn_reflns_Laue_measured_fraction_full 1.000
_diffrn_reflns_Laue_measured_fraction_max 0.987
_diffrn_reflns_limit_h_max       7
_diffrn_reflns_limit_h_min       -7
_diffrn_reflns_limit_k_max       10
_diffrn_reflns_limit_k_min       -10
_diffrn_reflns_limit_l_max       6
_diffrn_reflns_limit_l_min       -6
_diffrn_reflns_number            4271
_diffrn_reflns_point_group_measured_fraction_full 0.989
_diffrn_reflns_point_group_measured_fraction_max 0.969
_diffrn_reflns_theta_full        53.543
_diffrn_reflns_theta_max         60.275
_diffrn_reflns_theta_min         4.678
_diffrn_source                   'micro-focus metaljet'
_exptl_absorpt_coefficient_mu    9.786
_exptl_absorpt_correction_T_max  1.00000
_exptl_absorpt_correction_T_min  0.62651
_exptl_absorpt_correction_type   multi-scan
_exptl_absorpt_process_details
;
CrysAlisPro 1.171.40.14a (Rigaku Oxford Diffraction, 2018)
Empirical absorption correction using spherical harmonics,
 implemented in SCALE3 ABSPACK scaling algorithm.
;
_exptl_crystal_colour            colourless
_exptl_crystal_density_diffrn    2.676
_exptl_crystal_description       prism
_exptl_crystal_F_000             176
_exptl_crystal_size_max          0.1
_exptl_crystal_size_mid          0.1
_exptl_crystal_size_min          0.06
_refine_diff_density_max         0.399
_refine_diff_density_min         -0.314
_refine_diff_density_rms         0.074
_refine_ls_abs_structure_details
;
 Flack x determined using 230 quotients [(I+)-(I-)]/[(I+)+(I-)]
 (Parsons, Flack and Wagner, Acta Cryst. B69 (2013) 249-259).
;
_refine_ls_abs_structure_Flack   0.029(12)
_refine_ls_extinction_coef       0.022(3)
_refine_ls_extinction_expression Fc^*^=kFc[1+0.001xFc^2^\l^3^/sin(2\q)]^-1/4^
_refine_ls_extinction_method     'SHELXL-2017/1 (Sheldrick 2017)'
_refine_ls_goodness_of_fit_ref   1.019
_refine_ls_hydrogen_treatment    refxyz
_refine_ls_matrix_type           full
_refine_ls_number_parameters     50
_refine_ls_number_reflns         535
_refine_ls_number_restraints     1
_refine_ls_restrained_S_all      1.018
_refine_ls_R_factor_all          0.0184
_refine_ls_R_factor_gt           0.0183
_refine_ls_shift/su_max          0.000
_refine_ls_shift/su_mean         0.000
_refine_ls_structure_factor_coef Fsqd
_refine_ls_weighting_details
'w=1/[\s^2^(Fo^2^)+(0.0370P)^2^+0.0200P] where P=(Fo^2^+2Fc^2^)/3'
_refine_ls_weighting_scheme      calc
_refine_ls_wR_factor_gt          0.0459
_refine_ls_wR_factor_ref         0.0460
_reflns_Friedel_coverage         0.760
_reflns_Friedel_fraction_full    0.974
_reflns_Friedel_fraction_max     0.947
_reflns_number_gt                532
_reflns_number_total             535
_reflns_threshold_expression     'I > 2\s(I)'
_iucr_refine_instructions_details
;
TITL kmp4_a.res in Pmn2(1)
    x.res
    created by SHELXL-2017/1 at 10:36:42 on 18-Jul-2019
rem DISP K 0.3889 0.8524 6188.784
rem DISP Mg 0.1474 0.1376 1035.2055
rem DISP O 0.0412 0.025 193.4765
rem DISP P 0.2594 0.3349 2518.2931
CELL 1.3405 5.5672 8.2191 4.7841 90 90 90
ZERR 2 0.0001 0.0002 0.0001 0 0 0
LATT -1
SYMM 0.5-X,-Y,0.5+Z
SYMM 0.5+X,-Y,0.5+Z
SYMM -X,+Y,+Z
SFAC H K Mg O P
DISP H -0 0 0.6481
DISP K 0.3889 0.8524 6188.784
DISP Mg 0.1474 0.1376 1035.2055
DISP O 0.0412 0.025 193.4765
DISP P 0.2594 0.3349 2518.2931
UNIT 4 2 2 10 2
EQIV $1 0.5-X,2-Y,0.5+Z
EQIV $2 0.5-X,2-Y,-0.5+Z

L.S. 10
PLAN  20
HTAB O4 O1_$2
HTAB O4 O3_$1
list 4
htab
conf
fmap 2
acta
REM <olex2.extras>
REM <HklSrc "%.\\x.hkl">
REM </olex2.extras>

WGHT    0.037000    0.020000
EXTI    0.021966
FVAR       1.38447
K1    2    0.500000    0.461439    0.789053    10.50000    0.01893    0.02030 =
         0.01326    0.00210    0.00000    0.00000
P1    5    0.500000    0.790233    1.346220    10.50000    0.00890    0.00786 =
         0.00569   -0.00011    0.00000    0.00000
MG1   3    0.500000    1.016307    0.913218    10.50000    0.01057    0.00966 =
         0.00778    0.00020    0.00000    0.00000
O1    4    0.500000    0.820187    1.661494    10.50000    0.01590    0.01305 =
         0.00718   -0.00092    0.00000    0.00000
O2    4    0.500000    0.609295    1.284574    10.50000    0.01739    0.00857 =
         0.01279   -0.00083    0.00000    0.00000
O3    4    0.280551    0.876620    1.208400    11.00000    0.01057    0.01411 =
         0.00992    0.00133    0.00034    0.00251
O4    4    0.500000    1.213836    1.209122    10.50000    0.01172    0.01525 =
         0.01417   -0.00045    0.00000    0.00000
H4    1    0.393548    1.202796    1.302916    11.00000   -1.20000
HKLF 4




REM  kmp4_a.res in Pmn2(1)
REM R1 =  0.0183 for     532 Fo > 4sig(Fo)  and  0.0184 for all     535 data
REM     50 parameters refined using      1 restraints

END  
     
WGHT      0.0340      0.0142 

REM Instructions for potential hydrogen bonds
HTAB O4 O1_$2
HTAB O4 O3_$1

REM Highest difference peak  0.399,  deepest hole -0.314,  1-sigma level  0.074
Q1    1   0.5000  0.8376  1.5080  10.50000  0.05    0.40
Q2    1   0.5000  1.1787  1.0169  10.50000  0.05    0.27
Q3    1   0.5000  0.6997  1.1638  10.50000  0.05    0.26
Q4    1   0.5000  0.5190  1.4238  10.50000  0.05    0.25
Q5    1   0.5000  1.2985  0.9941  10.50000  0.05    0.24
Q6    1   0.5000  0.4173  0.6191  10.50000  0.05    0.21
Q7    1   0.0000  0.8007  1.1710  10.50000  0.05    0.19
Q8    1   0.5000  0.5092  1.0247  10.50000  0.05    0.15
Q9    1   0.5000  0.8015  1.8804  10.50000  0.05    0.15
Q10   1   0.1708  0.9554  0.9975  11.00000  0.05    0.15
Q11   1   0.5000  1.1046  1.4246  10.50000  0.05    0.14
Q12   1   0.5000  0.6082  1.1741  10.50000  0.05    0.14
Q13   1   0.2981  0.8160  1.3876  11.00000  0.05    0.14
Q14   1   0.2541  0.8784  1.0561  11.00000  0.05    0.14
Q15   1   0.4018  0.8132  1.6958  11.00000  0.05    0.14
Q16   1   0.1864  0.8605  1.2998  11.00000  0.05    0.13
Q17   1   0.5000  0.9560  1.4383  10.50000  0.05    0.13
Q18   1   0.3941  0.7823  0.9742  11.00000  0.05    0.12
Q19   1   0.5000  0.8655  1.1071  10.50000  0.05    0.12
Q20   1   0.4366  0.6457  1.0054  11.00000  0.05    0.11

  REM The information below was added by Olex2.
  REM
  REM R1 = 0.0183 for 532 Fo > 4sig(Fo) and 0.0184 for all 4425 data
  REM n/a parameters refined using n/a restraints
  REM Highest difference peak 0.40, deepest hole -0.31
  REM Mean Shift 0, Max Shift 0.000.

  REM +++ Tabular Listing of Refinement Information +++
  REM R1_all = 0.0184
  REM R1_gt = 0.0183
  REM wR_ref = 0.0460
  REM GOOF = 1.019
  REM Shift_max = 0.000
  REM Shift_mean = 0
  REM Reflections_all = 4425
  REM Reflections_gt = 532
  REM Parameters = n/a
  REM Hole = -0.31
  REM Peak = 0.40
  REM Flack = 0.029(12)

  
;
_cod_data_source_file            cm9b03950_si_001.cif
_cod_data_source_block           x
_cod_depositor_comments          'Adding full bibliography for 4003140.cif.'
_cod_database_code               4003140
_shelx_shelxl_version_number     2017/1
_chemical_oxdiff_formula         'K Mg O P'
_shelx_space_group_comment
;
The symmetry employed for this shelxl refinement is uniquely defined
by the following loop, which should always be used as a source of
symmetry information in preference to the above space-group names.
They are only intended as comments.
;
_reflns_odcompleteness_completeness 100.00
_reflns_odcompleteness_iscentric 1
_reflns_odcompleteness_theta     56.82
_olex2_refinement_description
;
1. Fixed Uiso
 At 1.2 times of:
  All O(H) groups
;
_olex2_submission_special_instructions 'No special instructions were received'
_oxdiff_exptl_absorpt_empirical_details
;
Empirical correction (ABSPACK) includes:
- Absorption correction using spherical harmonics
- Frame scaling
;
_oxdiff_exptl_absorpt_empirical_full_max 7.130
_oxdiff_exptl_absorpt_empirical_full_min 0.275
loop_
_space_group_symop_operation_xyz
'x, y, z'
'-x+1/2, -y, z+1/2'
'x+1/2, -y, z+1/2'
'-x, y, z'
loop_
_atom_site_label
_atom_site_type_symbol
_atom_site_fract_x
_atom_site_fract_y
_atom_site_fract_z
_atom_site_U_iso_or_equiv
_atom_site_adp_type
_atom_site_occupancy
_atom_site_site_symmetry_order
_atom_site_calc_flag
_atom_site_refinement_flags_posn
_atom_site_refinement_flags_adp
_atom_site_refinement_flags_occupancy
K1 K 0.500000 0.46144(8) 0.78905(12) 0.0175(2) Uani 1 2 d S T P
P1 P 0.500000 0.79023(8) 1.34622(16) 0.0075(2) Uani 1 2 d S T P
Mg1 Mg 0.500000 1.01631(12) 0.9132(2) 0.0093(3) Uani 1 2 d S T P
O1 O 0.500000 0.8202(3) 1.6615(5) 0.0120(5) Uani 1 2 d S T P
O2 O 0.500000 0.6093(2) 1.2846(5) 0.0129(5) Uani 1 2 d S T P
O3 O 0.2806(2) 0.87662(16) 1.2084(3) 0.0115(3) Uani 1 1 d . . .
O4 O 0.500000 1.2138(3) 1.2091(5) 0.0137(5) Uani 1 2 d S T P
H4 H 0.394(5) 1.203(3) 1.303(6) 0.016 Uiso 1 1 d R . .
loop_
_atom_site_aniso_label
_atom_site_aniso_U_11
_atom_site_aniso_U_22
_atom_site_aniso_U_33
_atom_site_aniso_U_23
_atom_site_aniso_U_13
_atom_site_aniso_U_12
K1 0.0189(4) 0.0203(4) 0.0133(4) 0.0021(3) 0.000 0.000
P1 0.0089(4) 0.0079(3) 0.0057(4) -0.0001(2) 0.000 0.000
Mg1 0.0106(5) 0.0097(5) 0.0078(5) 0.0002(4) 0.000 0.000
O1 0.0159(10) 0.0130(10) 0.0072(12) -0.0009(8) 0.000 0.000
O2 0.0174(10) 0.0086(9) 0.0128(13) -0.0008(9) 0.000 0.000
O3 0.0106(6) 0.0141(7) 0.0099(8) 0.0013(6) 0.0003(6) 0.0025(5)
O4 0.0117(10) 0.0153(10) 0.0142(12) -0.0004(9) 0.000 0.000
loop_
_atom_type_symbol
_atom_type_description
_atom_type_scat_dispersion_real
_atom_type_scat_dispersion_imag
_atom_type_scat_source
H H 0.0000 0.0000 'International Tables Vol C Tables 4.2.6.8 and 6.1.1.4'
K K 0.3889 0.8524 'International Tables Vol C Tables 4.2.6.8 and 6.1.1.4'
Mg Mg 0.1474 0.1376 'International Tables Vol C Tables 4.2.6.8 and 6.1.1.4'
O O 0.0412 0.0250 'International Tables Vol C Tables 4.2.6.8 and 6.1.1.4'
P P 0.2594 0.3349 'International Tables Vol C Tables 4.2.6.8 and 6.1.1.4'
loop_
_geom_angle_atom_site_label_1
_geom_angle_atom_site_label_2
_geom_angle_atom_site_label_3
_geom_angle
_geom_angle_site_symmetry_1
_geom_angle_site_symmetry_3
P1 K1 P1 121.095(19) 1_554 2_664
P1 K1 P1 106.29(3) 2_564 2_664
P1 K1 P1 121.095(19) 1_554 2_564
P1 K1 Mg1 151.13(3) 1_554 1_545
P1 K1 Mg1 53.164(14) 2_564 1_545
P1 K1 Mg1 53.164(14) 2_664 1_545
O1 K1 P1 26.40(4) 1_554 1_554
O1 K1 P1 126.741(14) 1_554 2_664
O1 K1 P1 126.741(14) 1_554 2_564
O1 K1 Mg1 177.53(5) 1_554 1_545
O1 K1 O3 145.39(4) 1_554 2_564
O1 K1 O3 145.39(4) 1_554 3_564
O2 K1 P1 25.28(4) 2_664 2_664
O2 K1 P1 25.28(4) 2_564 2_564
O2 K1 P1 98.99(4) 2_664 1_554
O2 K1 P1 131.47(4) 2_664 2_564
O2 K1 P1 109.73(3) 1_554 2_564
O2 K1 P1 25.18(5) 1_554 1_554
O2 K1 P1 101.61(3) . 2_664
O2 K1 P1 98.99(4) 2_564 1_554
O2 K1 P1 109.73(3) 1_554 2_664
O2 K1 P1 101.61(3) . 2_564
O2 K1 P1 131.47(4) 2_564 2_664
O2 K1 P1 100.95(5) . 1_554
O2 K1 Mg1 107.92(5) . 1_545
O2 K1 Mg1 78.43(4) 2_664 1_545
O2 K1 Mg1 125.95(6) 1_554 1_545
O2 K1 Mg1 78.43(4) 2_564 1_545
O2 K1 O1 74.55(7) . 1_554
O2 K1 O1 101.46(4) 2_664 1_554
O2 K1 O1 51.58(7) 1_554 1_554
O2 K1 O1 101.46(4) 2_564 1_554
O2 K1 O2 94.89(5) 1_554 2_564
O2 K1 O2 156.39(8) 2_564 2_664
O2 K1 O2 94.89(5) 1_554 2_664
O2 K1 O2 126.13(9) . 1_554
O2 K1 O2 95.74(6) . 2_664
O2 K1 O2 95.74(6) . 2_564
O2 K1 O3 107.36(5) 2_664 2_564
O2 K1 O3 120.11(5) . 3_564
O2 K1 O3 106.37(5) 1_554 3_564
O2 K1 O3 49.16(5) 2_664 3_564
O2 K1 O3 49.16(5) 2_564 2_564
O2 K1 O3 120.11(5) . 2_564
O2 K1 O3 107.36(5) 2_564 3_564
O2 K1 O3 106.37(5) 1_554 2_564
O2 K1 O4 161.37(8) 1_554 1_545
O2 K1 O4 81.94(4) 2_664 1_545
O2 K1 O4 81.94(4) 2_564 1_545
O2 K1 O4 72.50(7) . 1_545
O3 K1 P1 83.35(3) 3_564 2_564
O3 K1 P1 26.57(3) 2_564 2_564
O3 K1 P1 127.37(3) 2_564 1_554
O3 K1 P1 26.57(3) 3_564 2_664
O3 K1 P1 83.35(3) 2_564 2_664
O3 K1 P1 127.37(3) 3_564 1_554
O3 K1 Mg1 33.39(3) 2_564 1_545
O3 K1 Mg1 33.39(3) 3_564 1_545
O3 K1 O3 58.22(5) 2_564 3_564
O4 K1 P1 61.42(3) 1_545 2_664
O4 K1 P1 173.46(6) 1_545 1_554
O4 K1 P1 61.42(3) 1_545 2_564
O4 K1 Mg1 35.42(5) 1_545 1_545
O4 K1 O1 147.05(7) 1_545 1_554
O4 K1 O3 57.91(5) 1_545 3_564
O4 K1 O3 57.91(5) 1_545 2_564
K1 P1 K1 65.200(12) 1_556 2_565
K1 P1 K1 61.410(12) 2_565 .
K1 P1 K1 106.29(3) 2_565 2_665
K1 P1 K1 65.200(12) 1_556 2_665
K1 P1 K1 82.70(2) 1_556 .
K1 P1 K1 61.410(12) 2_665 .
Mg1 P1 K1 169.99(4) . 1_556
Mg1 P1 K1 109.79(2) . 2_565
Mg1 P1 K1 87.28(3) . .
Mg1 P1 K1 109.79(2) . 2_665
O1 P1 K1 99.98(6) . 2_565
O1 P1 K1 61.18(9) . 1_556
O1 P1 K1 143.88(9) . .
O1 P1 K1 99.98(6) . 2_665
O1 P1 Mg1 128.84(10) . .
O1 P1 O3 110.12(8) . 4_655
O1 P1 O3 110.12(8) . .
O2 P1 K1 53.234(14) . 2_665
O2 P1 K1 33.39(9) . .
O2 P1 K1 53.234(14) . 2_565
O2 P1 K1 49.31(9) . 1_556
O2 P1 Mg1 120.67(10) . .
O2 P1 O1 110.49(13) . .
O2 P1 O3 111.37(8) . 4_655
O2 P1 O3 111.37(8) . .
O3 P1 K1 91.56(6) . .
O3 P1 K1 149.82(7) . 2_665
O3 P1 K1 128.26(6) . 1_556
O3 P1 K1 67.08(5) 4_655 2_665
O3 P1 K1 128.26(5) 4_655 1_556
O3 P1 K1 149.82(7) 4_655 2_565
O3 P1 K1 67.08(5) . 2_565
O3 P1 K1 91.56(6) 4_655 .
O3 P1 Mg1 51.77(6) 4_655 .
O3 P1 Mg1 51.77(6) . .
O3 P1 O3 103.16(11) . 4_655
P1 Mg1 K1 141.11(4) . 1_565
P1 Mg1 Mg1 115.80(3) . 2_574
P1 Mg1 Mg1 57.825(18) . 2_675
P1 Mg1 Mg1 57.825(18) . 2_575
P1 Mg1 Mg1 115.80(3) . 2_674
Mg1 Mg1 K1 100.14(3) 2_575 1_565
Mg1 Mg1 K1 100.14(3) 2_675 1_565
Mg1 Mg1 K1 88.15(3) 2_574 1_565
Mg1 Mg1 K1 88.15(3) 2_674 1_565
Mg1 Mg1 Mg1 171.65(6) 2_675 2_574
Mg1 Mg1 Mg1 81.086(4) 2_675 2_674
Mg1 Mg1 Mg1 98.299(5) 2_675 2_575
Mg1 Mg1 Mg1 98.299(5) 2_574 2_674
Mg1 Mg1 Mg1 171.65(6) 2_575 2_674
Mg1 Mg1 Mg1 81.086(4) 2_575 2_574
O1 Mg1 K1 134.01(8) 1_554 1_565
O1 Mg1 P1 84.87(7) 1_554 .
O1 Mg1 Mg1 109.31(5) 1_554 2_675
O1 Mg1 Mg1 109.31(5) 1_554 2_575
O1 Mg1 Mg1 63.42(4) 1_554 2_574
O1 Mg1 Mg1 63.42(4) 1_554 2_674
O1 Mg1 O3 88.05(7) 1_554 .
O1 Mg1 O3 93.33(7) 1_554 3_574
O1 Mg1 O3 88.05(7) 1_554 4_655
O1 Mg1 O3 93.33(7) 1_554 2_574
O1 Mg1 O4 175.68(11) 1_554 .
O3 Mg1 K1 59.86(4) 2_574 1_565
O3 Mg1 K1 59.86(4) 3_574 1_565
O3 Mg1 K1 128.33(5) . 1_565
O3 Mg1 K1 128.33(5) 4_655 1_565
O3 Mg1 P1 130.14(5) 3_574 .
O3 Mg1 P1 130.14(5) 2_574 .
O3 Mg1 P1 33.97(4) . .
O3 Mg1 P1 33.97(4) 4_655 .
O3 Mg1 Mg1 30.84(4) 2_574 2_574
O3 Mg1 Mg1 28.54(4) . 2_575
O3 Mg1 Mg1 143.34(6) . 2_674
O3 Mg1 Mg1 76.40(5) 3_574 2_675
O3 Mg1 Mg1 157.13(7) 2_574 2_675
O3 Mg1 Mg1 30.84(4) 3_574 2_674
O3 Mg1 Mg1 87.98(5) . 2_675
O3 Mg1 Mg1 107.33(5) 2_574 2_674
O3 Mg1 Mg1 143.34(6) 4_655 2_574
O3 Mg1 Mg1 87.98(5) 4_655 2_575
O3 Mg1 Mg1 107.33(5) 3_574 2_574
O3 Mg1 Mg1 157.13(7) 3_574 2_575
O3 Mg1 Mg1 76.40(5) 2_574 2_575
O3 Mg1 Mg1 87.65(5) 4_655 2_674
O3 Mg1 Mg1 28.54(4) 4_655 2_675
O3 Mg1 Mg1 87.65(5) . 2_574
O3 Mg1 O3 99.72(9) 3_574 2_574
O3 Mg1 O3 96.23(3) 2_574 .
O3 Mg1 O3 67.75(8) . 4_655
O3 Mg1 O3 163.88(8) 2_574 4_655
O3 Mg1 O3 96.23(3) 3_574 4_655
O3 Mg1 O3 163.88(8) 3_574 .
O3 Mg1 O4 89.46(7) 3_574 .
O3 Mg1 O4 89.46(7) 2_574 .
O4 Mg1 K1 50.31(7) . 1_565
O4 Mg1 P1 90.80(8) . .
O4 Mg1 Mg1 118.82(5) . 2_574
O4 Mg1 Mg1 68.14(5) . 2_575
O4 Mg1 Mg1 118.82(5) . 2_674
O4 Mg1 Mg1 68.14(5) . 2_675
O4 Mg1 O3 88.36(8) . .
O4 Mg1 O3 88.36(8) . 4_655
P1 O1 K1 92.42(10) . 1_556
P1 O1 Mg1 136.03(15) . 1_556
Mg1 O1 K1 131.54(11) 1_556 1_556
K1 O2 K1 85.03(5) . 2_565
K1 O2 K1 156.39(8) 2_565 2_665
K1 O2 K1 84.34(5) 1_556 2_565
K1 O2 K1 126.13(9) . 1_556
K1 O2 K1 85.03(5) . 2_665
K1 O2 K1 84.34(5) 1_556 2_665
P1 O2 K1 101.48(4) . 2_565
P1 O2 K1 101.48(4) . 2_665
P1 O2 K1 105.51(12) . 1_556
P1 O2 K1 128.36(13) . .
P1 O3 K1 86.35(6) . 2_565
P1 O3 Mg1 126.32(10) . 2_575
P1 O3 Mg1 94.26(7) . .
Mg1 O3 K1 86.75(5) 2_575 2_565
Mg1 O3 K1 143.30(7) . 2_565
Mg1 O3 Mg1 120.63(6) 2_575 .
Mg1 O4 K1 94.27(10) . 1_565
loop_
_geom_bond_atom_site_label_1
_geom_bond_atom_site_label_2
_geom_bond_distance
_geom_bond_site_symmetry_2
K1 P1 3.4788(6) 2_664
K1 P1 3.4338(10) 1_554
K1 P1 3.4788(6) 2_564
K1 Mg1 3.7065(12) 1_545
K1 O1 3.011(2) 1_554
K1 O2 2.664(2) .
K1 O2 2.8437(4) 2_564
K1 O2 2.702(2) 1_554
K1 O2 2.8437(4) 2_664
K1 O3 3.2107(14) 3_564
K1 O3 3.2107(14) 2_564
K1 O4 2.860(3) 1_545
P1 Mg1 2.7828(12) .
P1 O1 1.528(2) .
P1 O2 1.516(2) .
P1 O3 1.5593(15) 4_655
P1 O3 1.5593(15) .
Mg1 Mg1 3.67996(15) 2_575
Mg1 Mg1 3.67997(15) 2_674
Mg1 Mg1 3.67996(15) 2_675
Mg1 Mg1 3.67997(15) 2_574
Mg1 O1 2.012(2) 1_554
Mg1 O3 2.1920(16) .
Mg1 O3 2.0431(15) 2_574
Mg1 O3 2.0431(15) 3_574
Mg1 O3 2.1920(16) 4_655
Mg1 O4 2.154(3) .
loop_
_geom_hbond_atom_site_label_D
_geom_hbond_atom_site_label_H
_geom_hbond_atom_site_label_A
_geom_hbond_distance_DH
_geom_hbond_distance_HA
_geom_hbond_distance_DA
_geom_hbond_angle_DHA
_geom_hbond_site_symmetry_A
_geom_hbond_publ_flag
O4 H4 O1 0.75(3) 2.30(3) 2.8069(5) 126(3) 2_574 yes
O4 H4 O3 0.75(3) 2.26(3) 2.949(3) 152(3) 2_575 yes
loop_
_geom_torsion_atom_site_label_1
_geom_torsion_atom_site_label_2
_geom_torsion_atom_site_label_3
_geom_torsion_atom_site_label_4
_geom_torsion
_geom_torsion_site_symmetry_1
_geom_torsion_site_symmetry_4
K1 P1 O1 K1 -54.34(2) 2_665 1_556
K1 P1 O1 K1 0.000(1) . 1_556
K1 P1 O1 K1 54.34(2) 2_565 1_556
K1 P1 O1 Mg1 180.000(1) . 1_556
K1 P1 O1 Mg1 180.000(2) 1_556 1_556
K1 P1 O1 Mg1 125.66(2) 2_665 1_556
K1 P1 O1 Mg1 -125.66(2) 2_565 1_556
K1 P1 O2 K1 87.24(7) 2_665 1_556
K1 P1 O2 K1 -174.48(14) 2_565 2_665
K1 P1 O2 K1 92.76(7) . 2_665
K1 P1 O2 K1 92.76(7) 2_565 .
K1 P1 O2 K1 -92.76(7) 2_665 .
K1 P1 O2 K1 180.000(1) . 1_556
K1 P1 O2 K1 -87.24(7) 2_565 1_556
K1 P1 O2 K1 -87.24(7) 1_556 2_665
K1 P1 O2 K1 180.000(2) 1_556 .
K1 P1 O2 K1 87.24(7) 1_556 2_565
K1 P1 O2 K1 174.48(14) 2_665 2_565
K1 P1 O2 K1 -92.76(7) . 2_565
K1 P1 O3 K1 83.04(11) 2_665 2_565
K1 P1 O3 K1 -24.02(8) 1_556 2_565
K1 P1 O3 K1 57.91(3) . 2_565
K1 P1 O3 Mg1 141.16(8) . 2_575
K1 P1 O3 Mg1 -143.22(7) 2_565 .
K1 P1 O3 Mg1 -85.31(5) . .
K1 P1 O3 Mg1 -60.18(13) 2_665 .
K1 P1 O3 Mg1 166.29(6) 2_665 2_575
K1 P1 O3 Mg1 59.23(12) 1_556 2_575
K1 P1 O3 Mg1 -167.24(5) 1_556 .
K1 P1 O3 Mg1 83.25(9) 2_565 2_575
Mg1 P1 O1 K1 180.000(1) . 1_556
Mg1 P1 O1 Mg1 0.000(2) . 1_556
Mg1 P1 O2 K1 -92.76(7) . 2_565
Mg1 P1 O2 K1 92.76(7) . 2_665
Mg1 P1 O2 K1 0.000(1) . .
Mg1 P1 O2 K1 180.000(0) . 1_556
Mg1 P1 O3 K1 143.22(7) . 2_565
Mg1 P1 O3 Mg1 -133.53(11) . 2_575
O1 P1 O2 K1 87.24(7) . 2_565
O1 P1 O2 K1 180.000(1) . .
O1 P1 O2 K1 0.000(1) . 1_556
O1 P1 O2 K1 -87.24(7) . 2_665
O1 P1 O3 K1 -92.61(9) . 2_565
O1 P1 O3 Mg1 124.17(10) . .
O1 P1 O3 Mg1 -9.36(13) . 2_575
O2 P1 O1 K1 0.000(1) . 1_556
O2 P1 O1 Mg1 180.000(1) . 1_556
O2 P1 O3 K1 30.32(10) . 2_565
O2 P1 O3 Mg1 -112.90(10) . .
O2 P1 O3 Mg1 113.57(12) . 2_575
O3 P1 O1 K1 123.45(7) . 1_556
O3 P1 O1 K1 -123.44(6) 4_655 1_556
O3 P1 O1 Mg1 56.56(7) 4_655 1_556
O3 P1 O1 Mg1 -56.55(7) . 1_556
O3 P1 O2 K1 -35.48(13) . 2_565
O3 P1 O2 K1 -122.72(8) . 1_556
O3 P1 O2 K1 57.28(8) . .
O3 P1 O2 K1 35.48(13) 4_655 2_665
O3 P1 O2 K1 122.72(8) 4_655 1_556
O3 P1 O2 K1 150.04(8) . 2_665
O3 P1 O2 K1 -150.04(8) 4_655 2_565
O3 P1 O2 K1 -57.28(8) 4_655 .
O3 P1 O3 K1 149.88(6) 4_655 2_565
O3 P1 O3 Mg1 6.66(12) 4_655 .
O3 P1 O3 Mg1 -126.87(8) 4_655 2_575
loop_
_refln_index_h
_refln_index_k
_refln_index_l
_refln_F_squared_meas
_refln_F_squared_sigma
0 0 -5 0.07 0.88
0 0 -4 9 1.56
0 0 -4 1.7 0.93
0 0 -4 9.13 3.16
0 0 -4 2.17 1.45
0 0 -3 0.08 0.63
0 0 -3 0.08 0.88
0 0 -3 0.03 0.49
0 0 -3 -0.19 2
0 0 -3 -0.38 1.9
0 0 -2 7588.78 44.73
0 0 -2 6364.97 58.13
0 0 -1 4 0.45
0 0 1 0.52 0.26
0 0 1 0.45 0.32
0 0 1 0.06 0.23
0 0 3 0.21 0.36
0 0 3 0.19 0.46
0 0 6 41.66 2.88
0 1 -5 106.49 5.27
0 -1 -5 100.75 5.2
0 -1 -4 2180.76 24.01
0 1 -4 2154.65 38.21
0 1 -4 2278.59 24.68
0 -1 -4 2131.18 33.72
0 -1 -4 2075.46 38.12
0 1 -4 2008.94 22.6
0 -1 -3 1018.18 24.83
0 -1 -3 1274.87 15
0 1 -3 1085.04 23.86
0 1 -3 1314.98 15.13
0 1 -3 1104.14 13.2
0 1 -3 1172.35 17.39
0 -1 -3 1099.02 24.24
0 -1 -3 1283.29 22.95
0 -1 -2 703.55 14.24
0 -1 -2 735.12 7.94
0 -1 -2 654.04 7.92
0 -1 -2 763.82 14.87
0 1 -2 776.74 9.19
0 1 -2 638.85 16.28
0 -1 -2 733.78 8.98
0 -1 -2 647.74 16.52
0 -1 -2 715.03 8.78
0 1 -1 2684.3 18.53
0 -1 0 498.72 4.24
0 1 0 511.92 3.73
0 -1 1 2171.59 13.55
0 1 1 2577.78 16.57
0 -1 1 2404.9 15.71
0 -1 2 700.54 6.94
0 -1 2 676.83 8.29
0 1 2 802.61 9.61
0 -1 2 713.32 8.97
0 1 2 693.17 9.3
0 -1 2 800.4 8.35
0 -1 3 1187.23 14.11
0 1 3 1188.32 14.2
0 -1 3 1239.53 13.61
0 -1 3 1262.38 14.81
0 2 -5 360.51 9.43
0 -2 -5 355.05 9.48
0 -2 -5 329.58 13.45
0 2 -4 252.9 7.38
0 -2 -4 239.95 7.26
0 -2 -4 248.19 12.8
0 2 -4 253.04 12.23
0 -2 -4 231.62 11.81
0 2 -3 184.57 9.44
0 -2 -3 167.1 9.61
0 2 -3 174.36 5.12
0 -2 -3 176.4 9.56
0 -2 -3 165.58 4.99
0 2 -3 148.53 8.29
0 -2 -3 185.19 9.76
0 -2 -2 602.36 8.73
0 2 -2 589.13 14.27
0 2 -2 637.7 16.34
0 -2 -2 644.17 13.54
0 2 -2 788.85 34.57
0 -2 -2 590.47 14.71
0 -2 -2 569.26 15.71
0 -2 -2 668 15.87
0 -2 -2 595.8 7.76
0 -2 -2 621.99 8.21
0 -2 -2 632.8 8.98
0 2 -2 659.35 8.37
0 -2 -2 732.87 8.09
0 -2 -1 67.8 2.23
0 2 -1 73.01 2.03
0 -2 0 69.96 1.37
0 2 0 74.6 1.88
0 -2 1 63.09 2.02
0 2 1 57.3 1.86
0 -2 2 676.3 8.48
0 -2 2 773.88 7.93
0 -2 2 733.36 9.56
0 2 2 713 9.58
0 2 3 169.54 13.61
0 -2 3 179.53 5.23
0 2 5 382.6 10.12
0 2 5 348.17 17.17
0 -3 -5 418.1 16.12
0 3 -5 417.27 10
0 -3 -5 408.14 9.65
0 3 -5 412.38 9.51
0 -3 -4 216.84 14.4
0 -3 -4 259.82 7.53
0 3 -4 299.65 12.81
0 3 -4 270.85 7.6
0 3 -4 244.93 9.21
0 -3 -4 271.45 13.88
0 -3 -4 273.3 12.78
0 -3 -3 1153.69 25.82
0 3 -3 1160.61 14.11
0 3 -3 1156.92 22.61
0 -3 -3 1180.73 27.34
0 -3 -3 1194.03 23.57
0 -3 -2 3206.83 27.28
0 -3 -2 3474.81 43.71
0 -3 -2 3168.95 24.35
0 -3 -2 3168.77 35.1
0 3 -2 3169.03 25.6
0 3 -2 3458.85 25.02
0 3 -2 3627.83 76.09
0 3 -2 3299.2 34.93
0 3 -2 3326.04 43.01
0 -3 -2 3034.89 25.36
0 3 -1 3607.05 22.76
0 -3 -1 3367.69 25.09
0 3 -1 2734.74 68.01
0 3 -1 3313.29 36.18
0 -3 -1 3065.89 28.02
0 3 -1 3579.04 23.9
0 3 -1 3162.14 24.02
0 3 -1 3455.32 48.06
0 -3 -1 3118.4 39
0 -3 -1 3345.79 26.09
0 -3 0 4320.4 32.39
0 -3 0 4361.96 28.86
0 -3 1 3366.31 22.1
0 3 1 3288.3 23.57
0 -3 1 3256.79 23.22
0 3 1 3340.89 22.41
0 -3 1 3419.21 28.68
0 3 1 3377.17 50.76
0 3 1 3208.25 19.16
0 3 2 3032.91 55.64
0 -3 2 2868.35 20.94
0 -3 2 3161.07 22.98
0 3 2 2958.83 24.67
0 3 2 3033.47 24.35
0 -3 2 2948.68 24.84
0 3 3 1044.91 36.68
0 3 3 1021.86 14.36
0 3 4 222.42 14.91
0 3 4 236.45 7.61
0 3 5 364.55 18.19
0 3 5 355.4 9.36
0 -4 -5 535.12 19.04
0 4 -5 535.78 10.99
0 4 -4 286.22 7.92
0 4 -4 271.99 10.83
0 -4 -4 272.55 7.24
0 -4 -4 301.42 15.59
0 4 -4 285.64 7.33
0 4 -3 1752.66 19.36
0 -4 -3 1770.32 33.51
0 4 -3 1995.71 28.2
0 -4 -3 1782.07 37.16
0 -4 -3 1876.09 28.03
0 -4 -3 1716.48 18.15
0 4 -3 1885.71 18.83
0 4 -2 1697.43 14.74
0 4 -2 1670.61 20.5
0 -4 -2 1502.6 16.73
0 -4 -2 1642.58 31.5
0 4 -2 1482.17 16.31
0 4 -2 1595.46 30.49
0 -4 -2 1522.53 31.38
0 -4 -1 792.44 10.66
0 -4 -1 759.54 19.34
0 4 -1 805.32 9.44
0 4 -1 749.36 17.94
0 -4 -1 737.04 13.17
0 4 0 356.53 9.94
0 -4 0 353.05 11.79
0 -4 0 344.4 7.35
0 4 0 380.1 22.48
0 -4 0 379.32 7.99
0 -4 0 371.66 9.19
0 -4 1 917.78 10.87
0 4 1 889.42 11.81
0 4 1 907.94 8.21
0 4 1 879.02 28.47
0 -4 1 906.03 11.13
0 4 1 871.06 10.31
0 -4 1 865.8 14.43
0 -4 1 904.26 10.25
0 4 1 914.32 19.77
0 4 2 1686.48 17.61
0 -4 2 1809.22 16.63
0 4 2 1792.85 16.72
0 -4 2 1674.12 21.59
0 4 2 1659.06 44.55
0 -4 3 1861.45 24.38
0 4 3 1815.46 40.7
0 4 3 1821.36 53.04
0 4 3 1749.76 20.05
0 4 4 329.83 8.83
0 4 4 367.18 24.12
0 4 4 330.74 18.38
0 4 5 532.76 21.58
0 4 5 533.46 10.91
0 5 -5 165.87 5.69
0 -5 -5 168.54 10.53
0 5 -4 474.21 10.35
0 5 -4 465.41 15.06
0 -5 -4 491.9 20.84
0 -5 -3 418.01 16.86
0 5 -3 444.64 19.7
0 5 -3 426.67 9.17
0 -5 -2 825.9 24.43
0 -5 -2 721.55 12.8
0 5 -2 753.96 11.49
0 5 -2 790.75 22.59
0 -5 -1 606.88 9.96
0 -5 -1 637.67 13.86
0 -5 -1 677.04 20.31
0 5 -1 576.49 17.78
0 -5 -1 633.45 8.87
0 -5 0 1710.52 21.29
0 -5 0 1800.56 17.45
0 5 0 1766.38 15.6
0 5 0 1901.82 27.23
0 5 0 1570.24 41.41
0 -5 0 1636.69 20.8
0 -5 0 1830.82 23.38
0 -5 0 1830.99 30.97
0 5 0 1533.49 29.6
0 -5 1 725.69 14.84
0 -5 1 752.18 11.15
0 5 1 772.27 29.71
0 5 1 714.09 19.01
0 -5 1 754.72 13.19
0 -5 1 726.61 11.49
0 -5 2 755.68 11.78
0 -5 2 732.17 14.98
0 5 2 756.99 23.2
0 5 2 770.88 33.34
0 5 2 732.16 11.26
0 5 3 521.16 22.05
0 5 3 529.35 10.57
0 -5 3 507.22 10.44
0 -5 3 529.98 13.69
0 5 3 549.71 30.48
0 5 4 443.3 21.19
0 5 4 451.37 10.37
0 -5 4 414.04 9.81
0 5 5 200.31 12.78
0 5 5 191.42 6.03
0 6 -5 254.28 6.44
0 -6 -5 254.71 12.22
0 -6 -4 163.68 12.49
0 6 -4 188.18 9.64
0 6 -4 178.5 6.15
0 6 -3 1600.69 19.87
0 -6 -3 1601.96 34.71
0 6 -2 72.99 7.42
0 -6 -2 67.33 4.18
0 -6 -2 80.54 8.32
0 6 -2 67.25 3.56
0 -6 -1 994.91 17.72
0 6 -1 897.29 23.89
0 -6 -1 921.04 18.84
0 6 -1 852.41 13.16
0 6 -1 1009.69 35.98
0 -6 -1 961.96 26.14
0 6 0 247.72 10.1
0 6 0 246.08 17.93
0 -6 0 284.4 12.53
0 6 0 230.25 12.23
0 -6 0 242.23 8.59
0 -6 0 258.23 9.41
0 6 1 745.22 31.49
0 -6 1 783.5 14.13
0 6 1 900.85 22.98
0 -6 1 833.23 13.63
0 6 1 901.22 15.84
0 -6 1 827.12 15.89
0 6 2 82.42 8.1
0 -6 2 79.89 4.04
0 -6 2 78.8 5.22
0 6 2 70.37 9.94
0 -6 3 1358.35 18.65
0 -6 3 1335.01 23.93
0 6 4 172.99 6.19
0 6 4 180.85 11.28
0 6 4 177.84 13.24
0 6 5 197.76 10.16
0 6 5 194.51 11.79
0 7 -4 312.35 11.11
0 -7 -4 340.5 16.57
0 7 -4 321.15 7.82
0 7 -3 416.15 9.51
0 7 -3 465.91 18.6
0 -7 -3 349.52 20.28
0 -7 -3 388.04 17.26
0 -7 -3 467.96 21.36
0 -7 -2 155.49 11.87
0 7 -2 129.14 5.22
0 7 -2 128.91 10.15
0 7 -2 172.21 13.39
0 -7 -1 336.43 11.02
0 7 -1 323.32 8.37
0 7 -1 291.35 14.67
0 -7 -1 346.52 16.17
0 7 -1 350.94 23.6
0 7 -1 351.67 18.34
0 7 0 24.16 7.27
0 7 0 22.41 3.57
0 7 0 16.22 4.4
0 7 0 30.69 5.32
0 7 0 20.63 1.96
0 -7 0 21.57 3.16
0 -7 1 443.08 14.09
0 7 1 416.91 25.38
0 -7 1 402.12 12.26
0 7 1 440.26 17.07
0 -7 2 122.1 6.66
0 7 2 134.42 10.64
0 7 2 132.92 13.85
0 -7 2 116.91 5.37
0 7 2 127.09 7.39
0 7 3 522.93 16.86
0 -7 3 450.81 13.6
0 7 3 497.07 21.64
0 -7 3 465.53 12.9
0 7 4 314.5 13.13
0 7 4 311.69 16.54
0 -7 4 258.43 9.05
0 -7 4 264.06 8.85
0 -8 -4 167.56 10.28
0 -8 -4 134.95 9.83
0 8 -3 462.22 16.07
0 8 -3 437.82 9.21
0 -8 -3 434.37 18.43
0 -8 -3 446.18 19.49
0 8 -2 8.5 1.51
0 -8 -2 11.44 3.74
0 8 -2 12.13 3.61
0 -8 -1 252.62 10
0 8 -1 258.93 13.99
0 8 -1 251.4 7.5
0 -8 -1 263.91 10.54
0 -8 -1 274 14.31
0 -8 0 8.01 2.32
0 8 0 9.88 5.64
0 8 0 12.72 2.9
0 8 0 9.28 3.6
0 8 0 10.68 1.56
0 -8 1 244.42 11
0 8 1 230.05 14.45
0 8 1 275.33 21.36
0 8 1 256.88 12.82
0 8 1 242.36 7.07
0 -8 1 233.67 10.02
0 -8 2 4.29 1.93
0 -8 2 6.76 2.13
0 -8 2 7.29 1.89
0 8 2 8.78 3.58
0 -8 3 391.28 12.15
0 -8 3 420.38 12.51
0 -8 4 171.71 7.89
0 -9 -3 89.82 9.47
0 -9 -3 116.93 8.64
0 -9 -3 107.86 8.28
0 9 -2 323.24 7.88
0 -9 -2 319.33 15.03
0 -9 -1 252.02 9.82
0 -9 -1 245.36 9.66
0 9 -1 249.68 7.21
0 -9 0 755.71 18.9
0 9 0 771.01 13.72
0 -9 0 728.06 18.85
0 9 0 723.68 12.52
0 -9 0 718.85 19.56
0 9 0 709.23 22.84
0 -9 1 223.75 10.49
0 9 1 234.4 13.8
0 9 1 242.42 7
0 -9 2 298.17 11.32
0 -9 2 308.41 12
0 9 2 342.88 14.81
0 9 2 313.87 7.79
0 9 2 308.68 15.99
0 -9 3 83.8 5.03
0 -9 3 85.61 5.81
0 -9 3 75.96 4.69
0 9 3 90.16 7.49
0 -9 3 76.2 4.84
0 9 3 88.3 3.68
0 -10 -2 87.17 7.06
0 10 -2 115.05 6.22
0 10 -1 94.62 3.91
0 -10 -1 99.6 9.45
0 10 -1 104.47 6.11
0 -10 0 198.71 8.54
0 10 0 216.92 6.24
0 10 0 208.39 6.05
0 -10 0 194.63 8.47
0 -10 1 75.88 5.45
0 10 1 70.97 3.41
0 -10 1 76.49 5.8
0 -10 1 69.68 4.39
0 10 1 78.1 3.78
0 -10 2 63.17 4.08
0 -10 2 61.99 4.43
1 0 -6 0.19 0.66
1 0 -5 369.35 9.74
-1 0 -5 388.41 16.88
1 0 -4 0.05 0.82
-1 0 -4 0.42 2.66
-1 0 -4 0.24 0.81
1 0 -4 0.65 0.75
1 0 -4 0.76 1.45
-1 0 -3 255.82 5.91
1 0 -3 259.2 5.86
1 0 -3 285.08 6.73
1 0 -3 280.94 7.38
-1 0 -3 259.67 8.24
-1 0 -3 240.93 13.86
-1 0 -3 278.1 7.04
1 0 -3 274.57 10.19
1 0 -3 257.13 10.91
-1 0 -2 0.15 2.2
-1 0 -2 -0.11 1.4
1 0 -2 0.47 1.3
1 0 -2 3.22 0.59
1 0 -2 0.18 0.48
-1 0 -2 1.51 0.49
1 0 -2 1.04 1.28
1 0 -2 0.2 0.23
1 0 -2 0.8 1.45
1 0 -2 0.03 0.6
-1 0 -2 -0.03 0.47
1 0 -2 0.41 0.5
1 0 -1 22.89 0.73
-1 0 -1 23.91 1.05
1 0 -1 21.53 1.05
-1 0 0 0.01 0.14
1 0 0 0.03 0.15
1 0 1 60.21 1.48
-1 0 1 59.42 0.83
1 0 1 57.68 1.87
-1 0 1 57.51 1.83
1 0 1 61.16 1.69
1 0 2 0.28 0.39
1 0 2 0.77 0.5
-1 0 2 0.18 0.21
-1 0 2 0.57 0.41
1 0 2 0.09 0.32
1 0 2 0.18 0.37
1 0 2 0.65 0.42
1 0 2 0.42 0.31
-1 0 2 0.49 0.39
-1 0 3 223.62 5.63
1 0 3 223.63 5.58
1 0 3 232.58 5.37
-1 0 4 -0.31 0.79
-1 0 5 246.84 11.52
1 1 -6 279.21 7.07
1 -1 -6 272.42 7.07
-1 1 -5 469.68 18.28
1 -1 -5 456.51 10.78
-1 -1 -5 483.92 18.81
1 1 -5 451.48 10.64
-1 -1 -4 571.51 22.12
1 1 -4 485.24 10.07
-1 1 -4 531.43 20.75
1 -1 -4 528.1 17.47
-1 1 -4 510.08 11.23
1 -1 -4 541.66 11
-1 -1 -4 504.86 11.2
-1 1 -4 471.34 9.98
1 1 -4 545.89 10.95
-1 -1 -4 493.96 14.61
1 1 -3 1415.18 15.48
-1 1 -3 1464.51 15.72
-1 -1 -3 1578.91 25.26
1 -1 -3 1376.17 25.91
1 -1 -3 1576.73 27.45
-1 -1 -3 1499.92 17.54
-1 -1 -3 1572.94 16.03
1 -1 -3 1060.57 27.56
1 1 -3 1549.06 17.04
1 1 -3 1196.04 42.3
1 -1 -3 1531.82 19.39
-1 1 -3 1329.39 32.43
-1 -1 -3 1371.92 33.46
1 -1 -3 1537.26 17.16
1 -1 -3 1345.46 15.15
-1 1 -3 1546.4 17.77
1 -1 -3 1412.65 15.38
1 -1 -3 1361.25 30.32
1 1 -3 1339.93 25.67
-1 1 -2 276.01 10.85
1 -1 -2 284.18 5.86
-1 1 -2 199.51 10.84
1 -1 -2 264.28 4.84
-1 -1 -2 261.18 5.4
-1 -1 -2 208.98 11.39
1 1 -2 272.15 8.05
1 -1 -2 273.63 8.87
1 1 -2 271.71 5.39
1 1 -2 260.5 5.35
1 -1 -2 287.5 9.1
-1 -1 -2 274.73 9.27
1 1 -2 247.11 4.57
1 -1 -2 249.13 4.49
-1 1 -2 252.22 4.53
1 -1 -2 274.98 9.33
-1 1 -2 272 5.54
1 -1 -2 257.93 8.49
1 -1 -2 270.71 5.42
1 1 -2 241.39 8.17
-1 1 -2 243.03 5.94
-1 -1 -1 576.33 6.78
1 -1 -1 575.78 4.24
-1 1 -1 589.08 5.97
1 -1 -1 593.69 6.19
1 1 -1 580.16 6.29
1 -1 0 1188.5 8.82
-1 -1 0 1201.47 8.38
1 1 0 1183.34 8.52
1 -1 1 465.55 5.81
1 1 1 475.19 4.27
-1 1 1 496.96 6.24
1 -1 1 437.28 3.58
-1 -1 1 513.68 3.76
-1 1 1 480.72 6.18
-1 1 2 244.19 5.15
1 -1 2 228.68 5.14
-1 -1 2 230.13 3.55
1 -1 2 238.72 4.61
-1 1 2 198.58 8.52
-1 1 2 242.97 5.23
-1 -1 2 265 4.16
1 -1 2 223.63 5.14
1 1 2 239.54 4.12
1 -1 2 228.1 4.96
1 -1 2 260.46 5.27
1 1 2 261.9 5.52
-1 1 2 246.11 5.27
1 1 2 253.15 5.46
1 1 2 229.31 4.09
-1 -1 2 222.32 4.33
-1 -1 3 1247.53 13.7
-1 1 3 1361.58 16.51
1 -1 3 1426.36 16.04
-1 1 3 1389.77 16.25
1 1 3 1277.93 13.85
1 1 3 1326.01 14.04
-1 1 4 415.3 16.61
-1 -1 4 439.23 13.96
1 1 5 464.92 10.31
-1 1 5 434.34 16.68
-1 -1 5 465.81 11.57
-1 1 6 262.12 7.47
1 2 -5 7.63 1.52
1 -2 -5 4.89 1.31
1 2 -5 4.7 1.25
1 -2 -5 3.61 2.11
-1 2 -5 7.93 3.22
-1 -2 -5 8.27 3.26
1 -2 -4 85.86 4.29
-1 -2 -4 79.5 7.89
-1 -2 -4 84.5 4.43
-1 -2 -4 80.83 6.69
-1 2 -4 81.57 7.67
-1 2 -4 87.68 4.52
-1 -2 -4 67.65 9.05
-1 2 -4 81.82 4.06
1 -2 -4 84.51 7.5
1 2 -4 91.24 4.33
1 2 -4 79.02 4.04
-1 2 -3 1075.92 13.35
-1 -2 -3 1069.42 27.99
-1 2 -3 1030.5 26.55
1 2 -3 1201.64 14.64
-1 -2 -3 1177.22 24.47
1 -2 -3 999.83 22.99
-1 2 -3 1164.55 15.05
-1 -2 -3 1097.15 14.58
-1 2 -3 1058.79 16.7
1 2 -3 958.5 43.87
1 -2 -3 1196.16 14.82
1 -2 -3 1056.15 24.04
-1 -2 -3 1147.52 13.45
1 -2 -3 1162.71 25.55
-1 -2 -2 157.72 4.11
1 2 -2 178.95 4.57
-1 -2 -2 166.31 8.54
-1 -2 -2 166.25 4.23
1 -2 -2 152.24 3.9
-1 2 -2 164.47 4.25
1 -2 -2 161.8 6.3
-1 2 -2 123.7 8.14
-1 -2 -2 141.52 7.32
1 -2 -2 154.16 6.28
1 -2 -2 156.33 4.15
1 2 -2 159.23 4.08
1 2 -2 148.9 3.86
1 -2 -2 149.15 4.02
-1 2 -2 156.34 6.74
1 -2 -2 151.57 5.17
-1 -2 -2 154.53 4.16
1 -2 -2 141.04 8.52
-1 -2 -2 124.13 8.53
1 2 -1 5814.03 34.21
-1 2 -1 5313.9 44.86
-1 -2 -1 5475.69 36.47
1 2 -1 5539.72 35.22
1 -2 -1 5043.08 46.44
-1 -2 -1 5076.01 35.54
-1 2 -1 5755.91 50.95
1 -2 -1 5689.06 38.76
1 2 -1 5662.58 34.5
-1 2 0 513.55 5.55
-1 -2 0 569.44 5.71
1 -2 0 537.52 6.72
-1 2 0 556.12 5.74
1 2 0 517.7 5.18
1 2 1 5871.47 51.57
-1 2 1 5974.1 49.22
1 2 1 5756.54 35.23
1 -2 1 5067.81 33
-1 -2 1 5303.69 39.6
1 2 2 120.14 2.35
-1 2 2 101.68 8.19
-1 -2 2 109.14 3.09
-1 -2 2 124.09 4.4
1 2 2 119.32 3.33
-1 2 2 118.96 4.1
1 2 2 124.27 3.97
1 -2 2 115.78 3.43
1 -2 2 113.73 3.71
-1 2 2 113.91 3.42
-1 2 2 118.42 4.07
-1 2 2 109.04 7.17
1 2 2 126.42 7.48
1 -2 3 1241.86 14.69
-1 2 3 1157.25 14.32
-1 2 3 1090.56 27.4
1 2 3 1372.98 28.14
-1 -2 3 1283.65 17
1 2 4 116.85 4.89
-1 2 4 114.98 9.65
-1 2 5 9.89 3.36
-1 -2 5 9.94 1.98
1 2 5 8.81 1.49
-1 2 5 10.36 1.89
1 -3 -5 500.56 18.77
1 3 -5 507.9 10.99
-1 -3 -5 576.89 18.65
-1 3 -5 588.76 18.08
1 -3 -5 506.77 10.8
-1 -3 -5 465.42 15.81
1 3 -5 515.08 10.58
-1 3 -4 390.68 15.65
-1 3 -4 359.21 8.77
1 3 -4 361.58 8.54
1 -3 -4 386.44 17.1
-1 -3 -4 372.14 15.98
-1 -3 -4 290.57 17.13
1 3 -4 370.47 8.96
-1 -3 -4 399.37 16.63
1 -3 -4 302.19 17.82
1 3 -4 341.47 14.46
1 -3 -4 356.3 8.63
-1 -3 -3 1079.14 13.71
1 -3 -3 941.22 16.44
1 -3 -3 861.18 21.72
1 3 -3 898.48 12.63
1 -3 -3 916.95 12.71
1 3 -3 967.76 49.14
-1 -3 -3 865.21 23.01
-1 -3 -3 843.71 12.41
-1 -3 -3 953.85 24.37
1 3 -3 963.38 12.82
-1 3 -3 914.52 13.07
1 -3 -3 875.58 19.97
-1 3 -3 906.62 18.63
1 -3 -3 912.28 24.51
-1 3 -3 827.65 21.71
-1 -3 -3 840.47 22.74
1 -3 -2 760.43 9.76
-1 -3 -2 661.42 18.78
-1 3 -2 762.93 9.5
-1 -3 -2 800.86 12
1 3 -2 744.13 10.15
1 -3 -2 744.98 12.51
-1 -3 -2 817.5 10.33
1 -3 -2 763.18 19.77
-1 -3 -2 873.22 19.83
-1 -3 -2 765.02 10.93
1 -3 -2 756.9 20.18
1 3 -2 859.19 10.94
-1 3 -2 668.16 17.86
1 -3 -2 766.35 10.97
1 -3 -2 783.36 8.77
1 3 -2 829.93 9.94
-1 -3 -2 788.81 21.2
1 3 -2 813.59 22.92
1 3 -2 822.1 9.01
1 -3 -2 787.42 10.77
-1 3 -2 666.43 16.45
-1 3 -2 776.51 20.76
-1 -3 -1 636.01 10.15
1 3 -1 713.65 8.16
-1 3 -1 712.63 7.96
1 -3 -1 715.22 10.68
1 -3 -1 750.34 10.95
-1 3 -1 749.61 8.49
-1 -3 -1 755.88 9.65
1 -3 -1 755.26 12.39
1 3 -1 760.54 7.77
1 3 -1 709.11 8.22
1 3 -1 650.9 16.35
-1 3 -1 694.53 7.66
1 -3 -1 730.64 11.28
-1 3 -1 614.58 16.51
1 -3 -1 669.74 15.47
-1 -3 -1 713.96 10.37
-1 -3 -1 753.61 9.71
1 3 0 603.06 5.59
-1 3 0 564.81 17.56
1 3 0 596.23 6.58
-1 3 0 581.93 6.63
1 -3 0 597.4 8.11
1 -3 0 574.22 8.89
1 -3 0 601.13 10.91
-1 -3 0 633.85 8.61
1 -3 0 586.29 10.36
-1 -3 0 583.16 6.78
-1 3 0 586.9 12.86
-1 3 0 593.43 12.14
1 3 0 524.86 14.99
-1 -3 0 636.46 8.42
-1 -3 0 617.21 8.35
1 3 0 586.54 18.27
-1 -3 0 638.04 5.34
1 3 1 596.08 17.54
-1 3 1 666.87 12.92
-1 -3 1 667.7 8.6
-1 3 1 618.75 15.2
1 3 1 667.82 7.62
-1 -3 1 673.48 8.55
1 -3 1 594.35 5.62
1 3 1 640.91 17.9
-1 -3 2 933.6 15.02
-1 3 2 868.84 11.6
1 3 2 895.74 22.62
1 3 2 925.05 12.61
1 3 2 858.04 23.13
-1 -3 2 875.09 10.58
1 -3 2 846.13 9.54
-1 3 2 920.08 13.32
1 3 2 874.87 10.48
-1 3 2 886.89 10.35
-1 -3 2 833.27 9.93
-1 3 2 888.18 22.09
-1 3 2 847 27.14
-1 3 3 776.16 24.12
-1 -3 3 788.61 10.78
1 3 3 816.2 11.82
1 3 3 840.12 25.15
-1 3 4 430.33 10.8
1 3 4 399.88 26.57
1 3 4 414.31 9.33
-1 3 4 389.01 18.43
-1 -3 4 382.01 8.37
-1 3 5 542.41 19.88
1 3 5 521.44 22.97
-1 3 5 517.33 11.79
1 4 -5 273.39 6.8
-1 4 -5 289.27 7.75
1 -4 -5 282.7 14.34
1 4 -5 286.41 7.96
-1 -4 -5 278.24 12.7
-1 -4 -4 777.89 20.83
-1 4 -4 739.45 12.84
1 4 -4 761.3 12.15
1 -4 -4 634.45 24.49
-1 -4 -4 672.66 26.78
1 4 -4 748.94 13.42
1 -4 -4 721.44 12.1
-1 4 -4 771.02 19.8
-1 4 -4 708.24 15.35
-1 -4 -4 764.39 24.79
1 -4 -4 777.26 25.63
1 4 -4 767.44 23.86
1 -4 -3 19.61 4.85
1 -4 -3 23.27 1.84
-1 4 -3 21.45 3.32
1 4 -3 25.35 2.21
-1 4 -3 23.78 5
1 4 -3 28.05 1.97
-1 -4 -3 30.07 2.24
-1 -4 -3 24.85 3.8
-1 -4 -3 25.58 4.15
1 -4 -3 21.73 3.71
1 -4 -3 23.7 3.28
1 4 -3 36.9 13.65
-1 -4 -3 25.36 4.91
-1 4 -3 24.33 3.45
-1 -4 -3 29 4.92
1 -4 -2 407.17 16.41
-1 4 -2 317.97 12.68
-1 4 -2 340.19 10.53
-1 4 -2 377.23 6.98
1 4 -2 417.97 6.35
1 4 -2 383.36 18.19
1 4 -2 419.23 7.58
-1 4 -2 384.03 15.67
1 -4 -2 327.86 8.99
1 4 -2 360.03 7.41
1 -4 -2 380.33 6.72
1 -4 -2 382.36 9.3
-1 -4 -2 448.15 15.54
1 4 -2 375.46 5.83
-1 -4 -2 381.48 7.26
1 -4 -2 349.57 14.49
-1 -4 -1 743.6 10.58
1 4 -1 693.52 8.2
1 -4 -1 639.28 16.99
1 -4 -1 743.09 14.51
1 4 -1 790.38 8.26
1 -4 -1 721.62 11.98
-1 -4 -1 760.05 10.94
1 4 -1 723.29 9.25
1 4 -1 716.8 8.89
-1 4 -1 713.69 19.22
-1 -4 -1 718.52 11.43
-1 -4 -1 731.21 12.49
-1 4 -1 690.8 8.59
-1 4 -1 726.9 9.27
-1 4 -1 686.17 19.77
1 -4 -1 766.34 13.22
1 4 -1 735.59 15.18
-1 -4 -1 704.5 9.56
1 -4 -1 669.27 10.68
-1 4 -1 703.05 8.89
-1 -4 0 96.72 1.78
-1 4 0 101.5 3.96
-1 -4 0 103.37 3.03
1 -4 0 99.47 5.25
-1 -4 0 112.15 3.95
1 4 0 101.65 3.17
1 4 0 102.1 2.84
-1 4 0 100.31 8.96
1 4 0 107.34 2.44
-1 -4 0 111.94 4.17
-1 4 0 106.71 6.03
1 -4 0 126.94 5.7
1 -4 0 104.36 4.3
1 -4 0 110.76 5.12
-1 4 0 112.63 2.92
1 4 0 102.74 8.89
1 4 0 104.58 8.09
1 4 0 96.97 4.9
-1 4 0 104.16 5.82
-1 -4 0 112.41 3.96
1 -4 0 107.86 3.66
-1 4 1 813.01 15.36
-1 4 1 739.39 7.81
1 -4 1 714.53 9.81
-1 -4 1 791.66 9.02
1 4 1 800.16 10.74
-1 -4 1 651.15 5.75
1 -4 1 849.28 12.15
-1 4 1 604 20.53
1 -4 1 831.5 9.52
1 4 1 757.29 23.14
-1 4 1 743.1 10.65
-1 -4 1 805.32 10.68
-1 -4 1 797.34 11.09
-1 4 2 304.29 6.81
1 4 2 293.72 19.57
1 4 2 264.96 15.01
-1 -4 2 344.23 10.21
1 4 2 359.75 7.7
1 -4 2 328.67 6.25
-1 -4 2 326.24 6.68
-1 -4 2 315.49 6.85
-1 4 2 296.91 13.55
1 4 2 328.34 6.61
-1 -4 3 36.67 2.45
1 4 3 28.6 8.05
-1 -4 3 36.35 3.2
-1 4 3 34.03 2.69
-1 4 3 35.04 5.78
1 4 3 37.53 2.5
-1 4 4 673.29 13.57
-1 4 4 707.53 23.31
1 4 4 666.79 35.69
1 4 4 671.72 11.99
-1 -4 4 687.67 14.65
-1 4 4 637.75 24.88
-1 4 5 257.2 14.3
-1 4 5 256.15 7.89
-1 4 5 263.51 13.62
1 4 5 233.85 14.8
1 -5 -5 264.33 16.59
1 5 -5 366.52 8.6
-1 -5 -5 367.02 14.62
-1 -5 -5 279.85 18.59
1 -5 -5 375.5 16.17
-1 5 -5 347.98 8.03
1 -5 -4 119.48 10.91
1 5 -4 124.33 10.09
-1 -5 -4 107.2 10.39
-1 5 -4 125.04 5.08
-1 5 -4 115.75 6.43
-1 -5 -4 122.27 10.34
1 -5 -3 1218.51 32.97
-1 5 -3 1180.74 33.35
-1 -5 -3 978.78 30.27
-1 5 -3 1256.5 26.46
1 -5 -3 1031.6 34.71
-1 -5 -3 1230.43 30
1 -5 -3 1235.5 28.82
-1 -5 -3 1444.13 16.75
1 5 -3 1208.08 16.95
-1 -5 -3 1221.91 32.92
-1 5 -2 492.85 8.73
1 -5 -2 499.34 18.96
1 5 -2 539.26 24.1
1 -5 -2 410.78 10.68
-1 5 -2 497.6 19.19
1 -5 -2 571.35 20.88
1 5 -2 473.47 9.31
-1 -5 -2 508.78 8.95
-1 -5 -2 508.74 20.16
1 -5 -2 483.22 10.89
1 5 -1 593.03 25.68
-1 -5 -1 704.49 13.08
-1 5 -1 669.03 9.64
-1 -5 -1 739.02 23.23
-1 5 -1 672.08 20.78
1 5 -1 689.27 16.66
1 -5 -1 683.04 19.29
1 -5 -1 711.28 16.04
-1 -5 -1 698.91 13.96
1 -5 -1 685.48 11.13
1 -5 -1 706.43 13.08
1 5 -1 670.28 9.21
-1 -5 -1 678.98 10.58
1 5 -1 666.83 9.86
-1 5 -1 666.99 9.36
1 -5 -1 740.77 14.62
-1 5 -1 599.8 17.78
-1 -5 0 1742.56 20.4
1 -5 0 1698.45 24.8
-1 5 0 1930.29 29.4
-1 5 0 1754.47 42.43
1 5 0 1625.9 16.01
-1 -5 0 1674.45 16.27
-1 5 0 1592.71 32.9
1 5 0 1575.19 26.79
-1 5 0 1713.01 18.85
-1 -5 0 1683.03 21.2
1 5 0 1710.58 23.85
-1 5 0 1809.16 28.66
1 5 0 1697.51 16.53
1 5 0 1995.55 43.91
1 -5 0 1688.65 25.72
1 -5 1 650.47 15.12
-1 5 1 750.61 15.25
-1 -5 1 687.99 11.31
1 -5 1 671.48 10.44
-1 5 1 598.15 23.76
-1 5 1 698.18 11.71
1 5 1 797.25 37.42
1 -5 1 727.6 13.14
-1 5 1 733.82 20.32
1 5 1 689.95 18.79
-1 -5 1 698.85 11.62
-1 -5 1 660.24 8.54
-1 -5 2 450.38 9.03
-1 5 2 472.71 18.53
-1 -5 2 501.08 13.81
1 -5 2 452.89 12.83
-1 -5 2 456.52 9.75
-1 5 2 519.55 15.69
-1 5 2 462.26 9.13
1 5 2 431.49 25.6
-1 -5 3 1123.97 15.27
-1 5 3 1138.22 16.62
-1 5 3 1269.32 29.15
1 5 3 1199.39 15.9
1 -5 3 1096.23 20.91
-1 -5 3 1115.79 17.4
-1 -5 3 1182.56 20.86
-1 5 3 1185.6 33.12
1 5 3 1149.61 46.21
-1 5 4 82.3 4.49
-1 -5 4 83.23 5.28
-1 5 4 73.57 8.81
-1 -5 4 75.94 4.44
-1 5 4 84.78 8.34
1 5 4 79.54 3.98
1 5 4 82.13 9.73
1 5 4 80.05 12.81
-1 5 5 378.59 15.39
-1 -5 5 323.86 8.26
-1 5 5 350.95 8.48
-1 5 5 363.67 16.51
1 5 5 344.86 16.79
1 -6 -5 20.69 3.8
-1 -6 -5 12.27 4.12
1 -6 -4 1036.12 30.53
-1 6 -4 1025.79 19.89
-1 -6 -4 906.15 29.86
1 -6 -4 885.55 27.95
-1 -6 -4 1079.62 30.95
1 6 -4 1008.34 24.93
-1 6 -4 1052.05 15.09
-1 6 -3 50.76 5.61
1 6 -3 44.14 9.61
-1 -6 -3 37.81 6.36
1 -6 -3 45.68 5.88
1 -6 -3 26.23 6.27
1 -6 -3 39.21 6.37
-1 -6 -3 36.11 5.41
-1 6 -3 39.29 6.61
1 6 -2 1271.65 41.18
-1 -6 -2 1206.57 33.13
1 -6 -2 1185.12 31.77
-1 6 -2 1192.5 15.43
-1 6 -2 1133.55 31.23
1 -6 -2 1329.36 35.27
-1 -6 -2 1220.55 15.35
1 6 -1 504.34 26.03
-1 -6 -1 576.58 21.94
1 -6 -1 550.84 14.02
1 -6 -1 560.55 18.94
-1 -6 -1 553.73 13.63
-1 6 -1 520.35 9.25
1 -6 -1 537.61 12.27
-1 -6 -1 528.41 12.79
-1 -6 -1 525.78 10.1
-1 6 -1 508.91 19.73
-1 6 -1 612.55 19.53
1 -6 -1 552.1 15.73
-1 6 -1 501.56 8.82
-1 -6 -1 546.77 10.4
1 6 -1 528.43 9.51
1 6 -1 621.96 45.63
-1 -6 0 1064.15 20.86
1 6 0 1000.75 23.23
-1 6 0 1097.39 21.96
1 -6 0 1050.92 20.89
-1 6 0 1058.92 23.56
-1 -6 0 975 17.22
-1 6 0 1008.08 27.84
-1 -6 0 1009.09 18.03
-1 -6 0 956.49 17.87
1 6 0 999.44 13.2
1 6 0 1039.06 19.69
1 6 0 935.53 11.88
-1 -6 0 1022.56 27.51
-1 6 0 1125.11 37.97
-1 -6 1 514.85 11.05
-1 -6 1 575.01 15.75
1 -6 1 563.78 15.45
1 6 1 546.56 27.82
-1 6 1 589.54 19.26
1 -6 1 534.68 12.95
1 6 1 506.92 16.5
1 -6 1 510.54 14.75
-1 6 1 549.97 13.05
-1 6 1 548.63 25.35
-1 -6 1 532.69 11.52
1 -6 2 1065.29 21.73
-1 -6 2 1205.64 23.74
-1 -6 2 1148.62 17.59
-1 6 2 1288.19 25.29
-1 -6 2 1173.48 17.04
-1 6 2 1182.14 16.35
1 6 2 1157.64 30.2
1 -6 2 1206.86 20.22
1 6 2 1195.69 45.3
-1 6 3 49.6 5.96
-1 -6 3 47.21 4.34
-1 6 3 47 3.31
1 6 3 39.54 6.52
1 -6 3 44.99 3.79
-1 6 3 51.4 7.35
-1 -6 3 44.47 3.4
1 6 3 60.2 11.55
1 -6 4 1039.4 18.09
1 6 4 1141.85 44.9
-1 -6 4 996.04 16.52
-1 -6 4 1023.8 19.29
-1 6 4 1174.88 28.54
1 6 4 1078.77 32.88
-1 6 4 1092.38 16.74
-1 6 4 1134.07 33.48
-1 6 5 26.22 4.43
1 6 5 23.41 4.44
1 6 5 15.88 3.48
-1 7 -4 232.49 6.21
-1 -7 -4 217.9 13.04
1 -7 -4 248.55 13.95
-1 -7 -4 209.57 13.55
1 -7 -4 222.64 13.86
-1 7 -4 243.03 8.94
1 7 -4 261.84 11.84
-1 7 -3 273.29 11.99
1 7 -3 279.96 16.66
1 -7 -3 278.43 16.12
-1 -7 -3 216.19 15.16
1 -7 -3 234.89 17.66
-1 -7 -3 261.16 14.74
1 -7 -3 272.86 14.31
-1 -7 -3 288.56 16.61
1 -7 -2 520.05 21.36
1 7 -2 664.39 35.16
1 -7 -2 629.7 26.17
-1 7 -2 498.38 21.19
-1 -7 -2 536.71 22.81
-1 7 -2 572 19.05
-1 -7 -2 611.5 23.87
-1 7 -2 520.43 10.15
-1 7 -1 1044.04 14.65
1 -7 -1 1106.12 27.95
-1 -7 -1 1032.38 20.16
-1 -7 -1 1077.18 18.93
1 -7 -1 1027.43 18.4
-1 -7 -1 1071.71 30.92
-1 -7 -1 1073.64 15.87
-1 7 -1 994.61 29.28
1 7 -1 997.52 14.61
1 -7 -1 1043.68 21.32
-1 7 -1 957.9 13.83
-1 7 -1 1192.51 26.68
1 7 0 630.87 31.99
-1 7 0 638.07 10.98
-1 7 0 742.91 17.77
-1 -7 0 698.9 17.88
1 -7 0 656.43 15.89
-1 -7 0 689.61 23.18
-1 -7 0 654.85 15.71
-1 7 0 636.68 23.77
1 -7 0 684.19 18.75
-1 -7 0 545.65 14.3
1 7 0 669.65 11.36
1 -7 0 746.29 18.66
-1 7 1 1075.52 27.68
-1 -7 1 1079.19 23.59
-1 -7 1 971.89 18.06
1 -7 1 1059.78 22.66
1 7 1 949.6 26.39
-1 7 1 948.35 30.9
1 7 1 1079.18 25.14
1 -7 1 963.38 19.79
1 7 1 812.45 37.05
1 7 1 1000.3 14.46
-1 -7 2 556.37 16.4
-1 -7 2 489.65 11.4
-1 -7 2 505.05 12.04
1 -7 2 514.6 15.37
1 -7 2 541.14 14.41
-1 7 2 570.53 15.85
1 -7 2 577.71 17.59
1 7 2 632.81 34.15
-1 -7 2 547.34 14.48
1 7 2 537.87 20.47
-1 7 2 596.11 22.9
1 7 3 278.61 15.76
-1 -7 3 257.6 10.2
-1 -7 3 257.54 8.41
1 -7 3 258.67 9.38
-1 7 3 282.69 12.77
-1 -7 3 269.18 9.84
-1 7 4 232.01 13.96
1 7 4 222.31 10.69
1 7 4 223.14 13.51
-1 -7 4 196.56 6.55
-1 -7 4 198.15 7.82
-1 -7 4 199.61 7.77
1 -7 4 204.18 7.59
-1 7 4 233.88 11.39
1 -8 -4 431.17 16.17
-1 -8 -4 412.44 15.79
-1 -8 -4 383.31 17.42
1 -8 -3 173.8 14.68
1 -8 -3 269.22 14.7
-1 8 -3 301.02 11.86
-1 -8 -3 208.18 14.96
1 8 -3 249.44 7.11
-1 -8 -3 250.03 13.85
1 -8 -3 254.43 13.32
-1 -8 -3 268.38 15.12
1 8 -2 645.26 25.73
-1 8 -2 616.9 11.01
1 8 -2 584.48 11.88
-1 -8 -2 616.9 23.82
-1 8 -2 643.74 18.83
1 -8 -2 601.87 22.04
-1 8 -2 582.32 22.68
-1 -8 -2 672.38 25.78
1 -8 -2 626.05 26.68
-1 8 -1 155.97 5.42
-1 -8 -1 161.79 7.95
-1 -8 -1 158 11.65
1 -8 -1 153.65 8.47
1 8 -1 148.8 5.97
-1 8 -1 152.57 11.75
-1 8 -1 144.19 5.29
-1 -8 -1 154.44 7.16
-1 8 -1 186.07 9.86
1 8 0 1.75 2.55
1 -8 0 4.23 1.89
-1 8 0 2.23 0.88
-1 -8 0 4.2 1.47
-1 -8 0 3.18 1.53
1 -8 0 1.83 1.59
-1 -8 0 2.06 1.59
-1 8 0 4.67 1.2
1 8 0 3.07 0.99
1 8 0 1.76 4.38
-1 8 0 3.88 3.08
-1 -8 0 2.66 2.06
1 -8 0 1.79 1.37
-1 8 0 2.82 1.54
1 -8 1 160.48 9.26
-1 -8 1 147.43 8.58
1 8 1 147.3 16.4
-1 -8 1 142.24 7.97
1 8 1 144.23 5.34
1 8 1 147.85 9.14
-1 8 1 138.57 12.16
-1 8 1 161.48 10.98
1 8 2 521.92 10.29
1 8 2 494.06 10.59
1 -8 2 518.05 17.01
-1 -8 2 481.7 14.09
1 -8 2 447.89 13.62
-1 -8 2 506.24 15.7
1 8 2 559.25 20.24
-1 8 2 561.31 21.55
1 8 2 525.2 28.46
-1 -8 2 519.69 15.66
-1 8 3 232.86 9.63
-1 -8 3 206.83 8.4
-1 -8 3 221.11 8.97
1 -8 3 209.21 8.79
-1 -8 3 198.59 7
1 -8 3 240.78 10.09
1 -8 3 224.29 10.39
1 -8 3 210.05 8.54
-1 8 3 246.51 14.33
-1 -8 3 218.04 9.03
1 8 3 243.24 13.76
-1 -8 4 351.35 9.77
-1 8 4 431.41 16.55
-1 -9 -3 13.25 3.36
-1 -9 -3 13.54 3.34
1 9 -2 405.02 9.12
-1 9 -2 412.92 8.08
1 9 -2 459.55 17.26
-1 -9 -2 409.67 17.56
-1 -9 -2 412.25 19.66
1 -9 -2 431.74 21.86
-1 9 -2 373.08 16.57
-1 9 -2 462.09 13.74
-1 9 -1 16.79 1.8
-1 -9 -1 19.1 2.76
1 -9 -1 18.15 2.96
1 9 -1 18.8 2.12
-1 9 -1 14.74 4.11
1 9 -1 17.44 3.85
-1 9 -1 20.95 3.06
-1 -9 -1 15.32 3.64
-1 9 0 956.63 17.7
-1 -9 0 832.45 19.6
1 -9 0 829.41 20.45
1 9 0 947.94 39.6
1 9 0 841.37 14.86
-1 -9 0 801.35 15.67
-1 9 0 813.04 26.71
-1 -9 0 791.89 18.44
-1 -9 0 853.38 18.92
1 9 0 842.24 13.52
-1 9 0 805.51 13.08
-1 9 0 854.17 13.12
1 9 1 29.41 7.62
-1 -9 1 22.59 3.22
-1 -9 1 23.18 2.96
1 -9 1 23.68 3.25
-1 9 1 22.16 5.17
1 -9 1 22.06 3.63
1 9 1 21.97 2.09
1 9 2 425.4 15.1
-1 -9 2 404.76 13.03
-1 -9 2 412.93 12.24
-1 9 2 430.81 20.08
-1 -9 2 396.17 12.8
-1 -9 2 364.72 11.91
1 9 2 421.54 8.68
-1 9 2 428.68 9.14
-1 9 2 480.2 18.36
1 -9 2 459.22 14.54
1 9 2 495.96 25.01
1 -9 2 406.45 13.21
1 -9 3 19.38 2.69
-1 -9 3 15.68 2.26
-1 -9 3 14.26 2.23
-1 9 3 17.04 4.52
-1 -9 3 15.99 2.5
1 -9 3 17.72 2.89
-1 9 3 20.27 4.01
-1 10 -1 450.49 11.35
-1 -10 -1 466.1 19.45
1 -10 -1 438.52 19.76
1 10 -1 491.12 13.85
-1 -10 0 2.06 1.11
1 -10 0 0.83 1.19
1 -10 0 2.2 1.3
1 10 0 1.42 0.82
-1 -10 0 1.51 1.21
-1 10 0 0.68 2
-1 10 0 1.75 0.77
-1 -10 1 367.76 9.85
-1 -10 1 383.74 11.77
1 -10 1 382.61 12.4
1 10 1 388.79 8.84
-1 10 1 372.24 15.87
1 -10 1 367.06 13.15
-1 -10 1 370.02 11.59
1 10 1 387.87 7.88
-2 0 -5 -0.8 2.24
2 0 -5 0.06 0.76
2 0 -4 548.18 10.67
-2 0 -4 535.34 23.62
2 0 -3 -1.01 2.64
2 0 -3 0.3 0.55
2 0 -3 0.6 0.96
-2 0 -3 0.24 3.05
-2 0 -3 0.23 2.38
2 0 -3 0.37 0.8
2 0 -3 0.39 1.33
2 0 -2 3578.37 40.92
2 0 -2 3543.25 25.03
2 0 -2 3058.88 44.47
-2 0 -2 3381.56 36.08
2 0 -2 3578.53 28.29
-2 0 -2 3750.05 27.48
2 0 -2 3823.98 28.67
2 0 -2 3646.15 28.55
2 0 -2 3333.92 23.92
-2 0 -2 3143.87 43.98
-2 0 -2 2677.1 49.39
2 0 -2 3456.49 30.61
2 0 -1 0.79 0.47
2 0 -1 0.17 0.69
-2 0 -1 0.15 0.18
-2 0 -1 1.07 0.34
-2 0 -1 0.51 0.39
2 0 -1 0.65 0.92
2 0 -1 0.17 0.28
2 0 -1 0.35 0.92
2 0 -1 0.61 0.14
-2 0 -1 -0.05 0.88
-2 0 -1 0.17 0.85
-2 0 0 9999 63.26
2 0 0 9754.03 59.3
2 0 1 0.83 0.52
-2 0 1 0.73 0.41
2 0 1 0.02 0.34
-2 0 2 3877.2 31.51
-2 0 2 3524.32 28.69
2 0 2 3815.56 30.11
-2 0 2 3744.57 37.82
2 0 2 3615.73 29.29
-2 0 3 1.65 1.04
-2 0 3 23.56 3.27
-2 0 4 639.88 18.45
-2 0 4 734.59 15.23
-2 0 5 0.22 0.82
2 -1 -5 473.28 10.68
2 1 -5 455.03 10.34
-2 -1 -5 477.33 19.23
-2 1 -5 461.44 18.64
2 -1 -4 1387.25 31.57
2 1 -4 1312.8 17.76
-2 -1 -4 1291.53 36.76
2 1 -4 1452.85 19.33
2 -1 -4 1449.87 19.76
-2 1 -4 1325.48 36.63
-2 -1 -3 1761.36 42.86
2 -1 -3 1828.32 40.46
2 -1 -3 2112.17 24.87
2 1 -3 2159.9 22.73
-2 1 -3 2008.82 20.52
-2 1 -3 1705.8 41.24
2 -1 -3 2250.64 36.76
-2 -1 -3 2428.69 23.18
-2 -1 -3 1852.53 40.58
2 -1 -3 1621.31 34.34
2 1 -3 2133.74 22.35
2 -1 -3 2131.96 22.7
2 1 -3 2185.11 20.39
-2 -1 -3 2202.39 31.37
2 -1 -2 2635.54 35.88
2 -1 -2 2297.82 18.09
2 1 -2 2380.83 21.31
2 1 -2 2400.47 19.04
-2 1 -2 1925.29 40.24
2 -1 -2 2459.06 21.84
2 -1 -2 2438.47 21.58
2 1 -2 2462.59 21.62
-2 1 -2 2462.48 37.02
-2 -1 -2 2885.2 23.13
2 -1 -2 2256.5 18.92
-2 -1 -2 2285 32.65
2 -1 -2 2383.34 17.58
2 1 -2 1577.81 37.09
-2 1 -2 2485.25 20.25
-2 1 -2 2410.93 18.8
-2 1 -2 2438.63 22.34
2 -1 -2 2534.5 21.4
-2 -1 -2 1998.32 41.61
2 1 -2 2344.89 22.5
2 -1 -2 2385.6 24.78
-2 -1 -1 1324.72 10.58
2 -1 -1 1342.34 18.63
2 1 -1 1055.63 23.39
2 1 -1 1228.38 13.63
-2 1 -1 1291.14 10.86
-2 1 -1 1277.29 17.8
2 1 -1 1243.18 13.41
2 -1 -1 1323.47 12.44
2 1 -1 1292.74 9.52
2 -1 -1 1181.46 16.14
-2 -1 -1 1220.61 12.53
2 -1 -1 1329.14 17.26
-2 1 -1 1288.2 11.94
-2 1 -1 1258.74 21.07
2 -1 -1 1218.76 11.26
2 -1 -1 1322.74 20.31
-2 -1 -1 1219.16 12.36
-2 1 -1 1159.09 16.66
-2 1 -1 1208.62 13.7
-2 -1 -1 1184.46 16.99
-2 -1 0 865.74 9.05
-2 -1 0 870.59 8.58
2 1 0 886.22 9.72
2 -1 0 823.07 10.17
2 -1 0 856.09 7.89
2 1 0 869.48 12.87
2 1 0 852.29 9.63
2 -1 0 848.14 8.56
-2 1 0 849.96 10.11
2 -1 0 826.25 11.24
2 1 0 826.04 7.11
2 -1 0 879.81 11.68
-2 1 0 821.29 9.38
-2 1 1 1325.87 14.02
-2 1 1 1441.68 18.83
2 -1 1 1339.89 10.79
2 -1 1 1392.4 13.34
2 1 1 1429.73 13.61
2 1 1 1365.32 12.81
-2 1 1 1416.03 19.9
-2 -1 1 1399.17 14.66
2 -1 2 2096.38 14.9
-2 1 2 2288.45 21.8
-2 1 2 2104.53 29.17
-2 1 2 2250.89 21.2
-2 1 2 2188.34 28.89
-2 -1 2 2307.22 24.7
-2 -1 2 2037.19 13.55
2 1 2 2344.21 21.11
2 1 2 2284.24 20.97
-2 -1 2 2320.1 21.47
-2 -1 3 2242.54 22.02
-2 1 3 1867.54 31.88
-2 -1 3 2210.31 28.78
-2 1 3 2308.25 25.04
-2 1 3 1978.07 32.03
-2 -1 4 1363.82 22.04
-2 1 4 1317.32 20.04
-2 -1 5 431.21 11.79
-2 1 5 381.56 14.59
2 2 -5 118 4.97
2 2 -5 112.88 5.01
-2 -2 -5 113.62 8.82
-2 2 -5 124.91 8.9
2 -2 -5 119.34 5.13
2 -2 -4 202.68 12.46
2 2 -4 202.12 6.47
-2 -2 -4 207.13 14.5
2 2 -4 205.17 6.69
2 -2 -4 203.66 6.82
-2 2 -4 198.37 13.71
-2 -2 -4 196.57 10.17
-2 -2 -4 161.44 14.85
-2 -2 -3 1065.05 33.19
-2 -2 -3 1303.72 26.97
2 -2 -3 1303.48 31.11
-2 2 -3 1272.07 14.82
2 -2 -3 1336.37 29.35
2 2 -3 1280.95 15.09
-2 -2 -3 1495.85 17.62
2 2 -3 1283.04 16.28
-2 -2 -3 1240.47 31.02
2 -2 -3 1220.85 28.57
-2 2 -3 1251.04 17.65
2 -2 -3 1294.44 16.66
-2 2 -3 1080.26 32.04
2 -2 -2 422.35 14.07
2 -2 -2 438.22 12.7
2 -2 -2 421.52 7.72
2 -2 -2 412.72 9.74
2 2 -2 416.24 7.65
2 2 -2 436.46 7.66
-2 -2 -2 322.8 16.57
2 2 -2 426.62 7.05
-2 2 -2 408.22 9.42
2 2 -2 426.92 7.58
2 -2 -2 419.93 10.73
2 -2 -2 441.51 7.78
2 2 -2 436.28 7.66
-2 2 -2 401.17 15.11
-2 -2 -2 312.72 10.83
-2 -2 -2 424.15 7.8
-2 -2 -2 432.5 13.14
2 -2 -2 404.96 7.24
2 -2 -2 413.16 6.57
-2 2 -2 409.95 6.14
-2 2 -2 296.67 14.9
2 -2 -2 424.55 7.75
2 2 -2 392.55 7.1
-2 2 -1 3138.73 30.19
-2 2 -1 3055.8 22.03
-2 -2 -1 3164.78 24.39
2 2 -1 2976.64 22.35
2 -2 -1 3063.98 24.33
2 -2 -1 3142.68 28.76
-2 -2 -1 3123.44 24.64
-2 2 -1 3121.94 38.76
2 -2 -1 3061.47 36.13
2 -2 -1 2997.76 27.15
-2 -2 -1 3083.35 25.02
2 -2 -1 3005.6 21.41
2 2 -1 2967.17 23.78
2 -2 -1 3008.28 27.28
2 2 -1 3045.49 33.48
2 -2 -1 2947.13 34.57
-2 -2 -1 2851.93 42.42
-2 2 -1 2642.63 39.64
2 2 -1 3151.04 24.08
-2 -2 -1 3117.13 19.18
-2 -2 0 96.29 3.07
2 2 0 97.49 6.34
-2 2 0 87.5 3.31
-2 -2 0 93.67 2.92
-2 2 0 88.33 4.05
-2 2 0 89.3 2.54
2 -2 0 95.2 4.08
-2 -2 0 88.53 3.24
-2 -2 0 94.45 2.92
-2 2 0 85.61 5.79
2 -2 0 82.59 3.53
2 -2 0 90.66 3.89
2 -2 0 95.31 3.95
2 2 0 92.2 2.26
-2 -2 1 2941.74 26.36
-2 -2 1 2992.1 23.62
-2 2 1 2879.32 23.97
-2 2 1 2873.7 23.83
2 -2 1 2749.05 22.77
-2 2 1 3061.49 22.19
2 2 1 2963.68 22.79
-2 2 1 3066.25 35.6
2 -2 1 2920.72 26.21
-2 2 2 484.59 13.83
-2 -2 2 541.33 10.59
2 -2 2 457.27 7.95
-2 2 2 476.6 9.19
-2 2 2 493.06 8.94
2 2 2 539.11 9.17
2 2 2 575.68 16.82
-2 2 2 435.22 14.44
-2 -2 3 1255.06 17.63
-2 2 3 974.24 24.04
-2 2 3 1212.31 16.8
2 2 3 1271.49 28.97
-2 2 3 940.27 24.44
-2 2 4 156.7 6.12
-2 2 4 139.75 9.88
-2 -2 4 151.55 5.57
-2 2 5 98.18 5.35
-2 2 5 79.18 7.11
2 2 5 85.72 12.55
-2 -2 5 99 5.78
-2 -3 -5 366.17 14.64
2 3 -5 357.8 8.93
-2 3 -5 361.68 13.89
2 -3 -5 334.98 15.69
2 -3 -5 340.8 8.43
2 3 -5 345 8.17
2 -3 -4 654.13 23.68
-2 -3 -4 644.38 22.93
-2 3 -4 645.49 21.89
2 -3 -4 672.01 12.36
2 3 -4 655.6 11.77
2 3 -4 680.13 12.4
-2 3 -4 644.23 11.69
-2 -3 -4 683.22 21.07
-2 -3 -3 113.65 10.21
2 -3 -3 127.18 8.97
-2 3 -3 122.49 4.23
2 -3 -3 131.69 6.33
2 3 -3 138.99 4.91
-2 -3 -3 126.27 9.71
-2 -3 -3 145.29 10
2 -3 -3 116.27 8.04
-2 3 -3 120.29 9.85
-2 3 -3 123.58 5.84
2 -3 -3 130.69 4.93
2 3 -3 129.36 4.69
2 3 -2 640.8 9.36
2 3 -2 659.97 9.75
2 3 -2 617.89 20.45
2 -3 -2 592.23 18.12
-2 -3 -2 497.6 20.22
2 -3 -2 621.77 9.45
2 -3 -2 615.51 9.42
-2 3 -2 624.42 20.27
-2 -3 -2 636.58 16.19
2 -3 -2 555.78 19.75
2 -3 -2 708.41 14.68
-2 -3 -2 700.16 16.94
2 -3 -2 707.75 16.51
-2 -3 -2 663.07 10.5
2 -3 -2 671.64 9.87
2 3 -2 653.19 9.67
-2 3 -2 562.37 12.75
2 -3 -2 596.76 12.29
-2 3 -2 505.14 19.21
2 3 -2 648.77 9.82
2 -3 -1 187.12 8.4
2 -3 -1 175.38 4.1
-2 -3 -1 169.27 4.4
2 3 -1 196.32 4.91
2 -3 -1 181.85 5.87
-2 3 -1 216.4 4.86
-2 3 -1 186.85 4.27
2 -3 -1 189.51 3.7
2 3 -1 182.06 4.12
-2 3 -1 180.11 6.36
2 3 -1 195.2 4.77
2 -3 -1 193.76 5.26
2 3 -1 222.98 19.58
2 -3 -1 193.66 6.64
2 -3 -1 226.53 6.78
2 -3 -1 179.83 6.39
-2 -3 -1 190.28 5.24
2 3 -1 177.2 4.64
-2 3 -1 262.36 11.35
2 -3 -1 231.33 9.56
2 3 -1 178.98 8.63
-2 3 -1 195.77 3.56
-2 -3 -1 152.44 9.46
-2 3 -1 164.46 9.26
2 3 -1 178.15 4.34
-2 -3 -1 178.15 5.15
2 -3 0 291.6 6.92
2 -3 0 325.33 8.61
-2 -3 0 333.27 7.31
2 3 0 260.46 12.77
-2 3 0 318.66 5.37
-2 -3 0 338.03 6.66
-2 3 0 309.56 8.11
-2 3 0 313.59 5.47
2 3 0 272.27 13.22
2 -3 0 309.79 6.64
-2 -3 0 326.45 8.16
-2 3 0 298.18 12.21
-2 3 0 300.25 7.19
-2 3 0 309.25 6.72
-2 -3 0 321.19 6.97
2 3 0 306.18 6.27
2 -3 0 330.01 8.71
2 3 0 301.72 4.52
-2 -3 0 350.81 5.47
-2 -3 0 328.12 6.16
2 3 0 333.26 12.22
2 3 0 321.05 4.85
2 -3 0 328.98 8.42
2 -3 1 169.08 5.16
-2 -3 1 164.23 3.06
2 3 1 192.39 10.88
-2 -3 1 206.23 6.92
-2 -3 1 182.63 4.98
-2 3 1 189.22 7.41
-2 -3 1 191.46 5.04
-2 -3 1 200.85 6.37
-2 3 1 185.52 4.31
2 3 1 188.03 4.48
2 -3 1 185.72 6.36
2 -3 1 200.52 5
2 3 1 200.23 10.23
-2 3 1 196.54 9.21
-2 -3 1 199.84 5.15
-2 3 1 189.98 4.89
-2 3 1 185.3 5.02
2 3 2 595.29 20.21
-2 3 2 566.06 9.66
2 -3 2 522.55 7.89
-2 -3 2 591.92 12.4
2 3 2 589.55 19.66
-2 -3 2 522.97 9.14
-2 3 2 496.37 17.1
-2 -3 2 499.49 7.37
-2 3 2 549.04 9.47
-2 3 3 113.12 4.74
-2 -3 3 118.27 4.62
2 3 3 137.19 11.14
-2 3 3 100.76 7.95
-2 3 3 93.67 8.51
-2 3 3 122.91 5.21
2 3 3 115.18 9.73
-2 -3 3 127.69 6.02
-2 -3 4 660.48 12.42
2 3 4 613.96 34.66
-2 3 4 634.51 22.87
-2 -3 4 641.65 11.38
-2 3 5 328.19 14.55
-2 -3 5 335.88 10.66
-2 3 5 326.48 9.31
2 4 -5 454.29 9.68
2 -4 -5 471.8 18.58
2 4 -5 439.13 8.34
2 4 -4 88.16 4.45
-2 4 -4 86.53 4.09
2 4 -4 84.86 3.83
2 -4 -4 86.94 4
-2 4 -4 85.05 6.97
-2 4 -4 82.33 4.84
-2 -4 -4 93.16 8.34
-2 -4 -4 66.91 8.76
-2 -4 -4 79.18 7.2
2 -4 -3 1353.7 33.9
-2 -4 -3 1333.45 31.82
2 -4 -3 1435.03 29.86
-2 4 -3 1406.69 30.81
-2 4 -3 1490.23 16.96
2 4 -3 1488.54 18.56
-2 4 -3 1458.79 23.95
2 -4 -3 1431.66 17.09
2 4 -3 1494.48 16.92
2 -4 -3 1408.86 22.27
-2 -4 -3 1473.5 33.44
2 -4 -3 1387.54 28.89
-2 -4 -3 1518.38 36.03
-2 -4 -2 544.77 19.41
2 -4 -2 818.67 19.02
-2 4 -2 606.26 15.53
2 -4 -2 635.47 15.09
2 4 -2 665.82 10.77
-2 4 -2 661.05 22.42
2 -4 -2 642.5 13.21
-2 -4 -2 753.68 19.65
2 -4 -2 652.01 22.67
2 4 -2 634.05 23.99
2 4 -2 682.61 9.52
-2 -4 -2 674.28 11.2
2 -4 -2 621.31 9.4
2 -4 -2 564.74 19.3
-2 4 -2 514.29 17.69
-2 -4 -2 709.89 23.83
-2 -4 -2 789.34 19.68
-2 -4 -1 642.3 10.02
2 4 -1 636.97 19.66
2 -4 -1 730.62 14.36
2 -4 -1 603.8 16.86
-2 -4 -1 687.49 12.57
2 -4 -1 685.72 14.62
2 4 -1 691.38 10.38
2 4 -1 707.27 8.32
-2 4 -1 678.89 12.9
-2 -4 -1 684.05 12.49
2 -4 -1 762 13.1
2 -4 -1 681.88 14.46
-2 4 -1 673.37 20.78
2 4 -1 658.28 9.79
2 4 -1 627.08 8.53
2 4 -1 706.13 8.4
-2 4 -1 653.52 8.2
-2 4 -1 539.97 16.44
-2 4 -1 620.65 14.45
-2 4 -1 682.46 7.94
2 -4 -1 668.4 12.24
-2 -4 0 3201.02 20.19
-2 -4 0 3152.38 30.09
2 -4 0 3278.47 34.26
-2 -4 0 3245.04 33.25
-2 4 0 3334.44 24.82
-2 4 0 3138.19 24.79
2 4 0 3200.69 23.29
-2 4 0 3271.8 32.11
-2 4 0 3145.09 47.26
2 4 0 3242.88 27.16
-2 4 0 3340.35 32.49
2 -4 0 3215.41 34.6
-2 -4 0 3347.72 25.47
-2 -4 0 3289.39 28.56
2 4 0 3024.3 46.73
2 4 0 3347.87 24.44
2 -4 0 3318.33 34.55
2 4 0 3211.1 52.74
2 -4 0 3194.34 28.37
2 -4 1 699.12 10.92
-2 -4 1 785.95 11.73
2 -4 1 847.48 16.37
-2 4 1 718.92 11.26
2 -4 1 728.02 14.96
-2 4 1 812.8 20.95
2 4 1 617.15 23.17
-2 -4 1 773.81 15.65
2 4 1 730.2 28.35
2 -4 1 771.75 12.22
-2 4 1 837.45 16.8
2 4 1 754.11 23.87
-2 4 1 782.43 10.19
-2 4 1 776.92 11.53
-2 4 2 655.05 10.85
-2 -4 2 688.65 14.79
-2 -4 2 671.12 11.24
-2 -4 2 714.36 15.38
-2 4 2 739.47 19.1
2 4 2 550.96 23.16
2 4 2 578.03 29.06
2 -4 2 746.4 12.22
2 4 2 648.42 24.09
-2 4 2 682.25 21.81
-2 -4 2 672.88 11.48
2 4 3 1306.85 39.36
-2 -4 3 1467.06 18.26
-2 -4 3 1560.04 24.21
-2 4 3 1516.07 19.83
2 4 3 1423.51 37.88
2 4 3 1390.14 50.55
-2 4 3 1389.63 35.3
-2 -4 3 1480.81 19.36
-2 4 4 88.1 8.53
2 4 4 91.57 14.2
-2 -4 4 98.48 5.36
-2 -4 4 86.23 4.29
-2 4 4 93.75 9.24
-2 4 5 472.47 10.71
-2 4 5 450.11 16.79
2 4 5 413.65 24.98
2 4 5 431.23 19.95
-2 -4 5 438.21 12.01
2 -5 -5 6.73 2.74
2 5 -5 6.48 1.19
-2 -5 -5 7.46 3.77
2 -5 -4 282.07 16.12
-2 5 -4 283.39 9.35
-2 5 -4 285.04 7.19
-2 -5 -4 299.49 15.51
-2 -5 -4 247.35 16.38
-2 5 -3 106.96 6.69
2 -5 -3 106.72 9.92
2 -5 -3 126.16 8.88
-2 5 -3 117.72 4.35
2 5 -3 113.71 4.95
-2 -5 -3 116.59 9.76
-2 -5 -3 123.7 10.62
-2 5 -3 104.33 10.51
-2 -5 -3 80.26 8.5
2 -5 -3 108.04 8.28
2 -5 -3 113.12 6.12
2 5 -3 91.24 20.18
2 -5 -2 469.51 18.72
-2 5 -2 545 8.57
2 -5 -2 505.42 11.95
-2 -5 -2 627.89 19.96
2 5 -2 518.25 10.25
2 -5 -2 493.27 13.99
2 -5 -2 587.68 23.36
-2 -5 -2 550.81 10.58
2 5 -2 516.46 23.86
2 -5 -1 1354.26 27.75
2 5 -1 1455.97 17.83
2 -5 -1 1476.9 24.33
-2 -5 -1 1475.18 21.3
2 -5 -1 1540.02 23.44
2 -5 -1 1536.52 24.58
2 -5 -1 1605.68 20.7
-2 -5 -1 1418.39 17.18
-2 -5 -1 1465.64 18.99
-2 5 -1 1419.56 14.67
-2 5 -1 1347.58 24.22
2 -5 -1 1413.09 19.12
-2 5 -1 1525.88 14.48
2 -5 0 3460.8 39.1
-2 -5 0 3355.58 37.45
-2 -5 0 3237.05 31.89
-2 5 0 3576.06 34.97
2 -5 0 3410.89 38.58
-2 5 0 3447.36 53.69
2 5 0 3385.87 29.31
-2 -5 0 3447.75 31.16
2 -5 0 3532.24 40.93
-2 -5 0 3553.12 32.61
-2 -5 0 3373.51 32.97
2 5 0 3127.7 54.99
2 5 0 3572.25 27.46
2 5 0 3617.48 62.4
-2 5 0 3651.07 36.81
-2 -5 0 3403.84 33.82
2 -5 0 3260.61 29.71
2 -5 1 1396.64 23.92
-2 -5 1 1471.07 24.58
-2 -5 1 1495.12 19.32
-2 5 1 1585.21 24.46
-2 5 1 1638.47 19.37
2 -5 1 1453.75 25.39
2 5 1 1500.49 19.02
2 -5 1 1604.29 26.19
2 -5 1 1449.06 20.51
2 5 1 1451.83 37.52
2 5 1 1510.89 44.74
-2 -5 1 1478.16 18.62
-2 5 2 489.93 9.8
-2 -5 2 489.39 13.42
-2 -5 2 500.76 14.1
-2 -5 2 470.85 10.87
-2 5 2 519.82 16.34
2 -5 2 533.66 11.61
2 5 2 452.9 22.4
-2 -5 2 478.44 10.21
-2 5 2 512.25 20.11
-2 -5 3 120.43 6.92
2 -5 3 112.54 6.43
-2 -5 3 106.94 5.44
-2 5 3 113.19 8.86
-2 -5 3 111.93 4.96
2 5 3 109.29 15.47
-2 5 3 111.76 10.45
-2 5 3 112.98 5.09
-2 -5 4 288.07 9.05
-2 -5 4 288.91 7.66
-2 -5 4 312.26 10.05
2 5 4 283.24 23.78
-2 5 4 310.51 16.91
-2 -5 5 11.26 1.92
-2 -5 5 8.99 1.48
-2 5 5 14.14 3.65
2 5 5 10.54 5.54
-2 5 5 11.14 1.56
2 5 5 8.92 3.46
2 -6 -4 135.38 10.88
2 6 -4 145.21 10.6
-2 -6 -4 138.63 11.89
-2 6 -4 146.51 6.66
-2 -6 -4 149.28 10.92
2 -6 -3 327.92 17.47
2 -6 -3 334.32 14.82
2 6 -3 335.84 8.82
-2 6 -3 315.52 18.17
-2 -6 -3 328.17 16.22
2 -6 -3 341.48 15.42
-2 -6 -3 337.5 18.06
-2 6 -3 334.51 7.48
-2 6 -3 353.8 12.61
2 -6 -2 44.12 6.23
-2 6 -2 41.5 2.42
-2 -6 -2 46.29 7.11
2 6 -2 44.54 3.15
2 -6 -2 39.11 4.08
-2 6 -2 45.84 6.98
-2 -6 -2 49.95 6.34
2 -6 -2 50.65 7.63
2 -6 -2 44.68 3.51
-2 -6 -2 49.12 3.24
2 6 -2 45.36 8.01
-2 6 -1 351.76 6.77
-2 -6 -1 318.14 8.02
-2 -6 -1 347.61 10.71
2 6 -1 340.24 8.73
2 -6 -1 335.63 12.14
2 -6 -1 348.68 11.48
2 -6 -1 318.48 8.28
-2 -6 -1 344.77 18.18
-2 -6 -1 361.8 9.5
2 -6 -1 324.53 13.9
-2 6 -1 328.66 6.93
-2 6 -1 350.89 12.94
-2 -6 0 239.98 9.73
2 -6 0 229.28 10.08
-2 6 0 220.23 7.47
-2 -6 0 214.95 7.79
2 -6 0 247.8 10.01
-2 -6 0 230.03 8.19
2 -6 0 215.35 10.04
2 6 0 225.93 6.35
-2 -6 0 215.61 7.3
2 -6 0 228.55 10.5
-2 -6 0 220.3 8.26
2 6 0 228.89 5.97
-2 6 0 248.81 9.32
2 -6 1 284.58 11.42
-2 -6 1 299.25 11.47
-2 -6 1 259.45 8.36
-2 6 1 286.76 10.26
2 -6 1 270.36 11.42
2 6 1 278.93 7.95
2 -6 1 286.62 11.67
-2 -6 1 273.45 9.09
-2 -6 1 282.68 8.6
-2 -6 1 291.67 10.27
2 6 1 274.02 12.11
2 6 1 284.95 6.67
2 6 1 275.96 20.35
-2 6 1 286.59 14.57
-2 6 1 302.79 8.36
-2 -6 2 53.9 4.74
2 -6 2 46.33 4.72
-2 -6 2 51.56 4.9
-2 -6 2 48.85 3.68
-2 6 2 54.16 5.76
-2 -6 2 47.41 3.4
2 -6 2 40.39 4.66
2 -6 2 51.79 5.13
2 -6 2 48.11 3.87
2 6 2 48.76 6.45
-2 6 2 55.75 7.34
-2 -6 3 261 7.86
-2 6 3 273.18 8.05
2 -6 3 254.34 10.33
-2 -6 3 246.52 8.49
-2 6 3 285.43 13.59
2 -6 3 242.55 10.69
-2 -6 3 272.45 10.68
2 6 3 257.44 15.87
2 6 3 255.27 23.19
-2 6 3 272.32 16.31
-2 -6 4 131.23 5.86
-2 6 4 157.31 10.35
-2 -6 4 136.73 6.56
2 -6 4 140.95 7.76
2 6 4 144.08 11.6
2 6 4 141.23 16.26
-2 6 4 142.41 11.25
2 -7 -4 51.64 6.34
2 7 -4 51.28 3.05
-2 -7 -4 43.27 6.39
2 7 -4 45.79 4.89
-2 7 -4 48.08 3.6
-2 -7 -4 50.4 6.09
2 -7 -3 114.14 9.95
2 7 -3 118.13 5.09
-2 7 -3 106.97 10.36
-2 -7 -3 81.72 8.95
-2 -7 -3 112.33 9.89
2 7 -3 143.46 16.01
-2 7 -3 122.42 7.09
2 -7 -2 371.49 17.28
2 7 -2 349.14 9.19
-2 -7 -2 371.19 19.65
-2 7 -2 354.54 18.93
-2 -7 -2 370.44 17.89
2 -7 -2 353.18 20.73
-2 -7 -2 366.95 8.99
2 7 -2 377.9 34.65
2 7 -2 355.98 22.63
-2 7 -2 370.45 13.43
-2 -7 -1 552.24 14.49
2 -7 -1 544.37 16.66
2 7 -1 552.99 11.97
2 -7 -1 567.01 15.61
-2 7 -1 542.06 22.94
-2 -7 -1 552.33 11.82
-2 7 -1 523.27 9.71
-2 -7 -1 546.38 23.45
-2 7 -1 607.09 16.78
2 7 -1 498.53 28.42
-2 -7 0 358.87 12.71
-2 -7 0 306.01 10.55
2 -7 0 367.1 13.06
-2 -7 0 341.7 10.6
-2 7 0 335.49 18.53
2 7 0 329.23 7.7
2 -7 0 369.05 14.88
2 7 0 357.78 8.19
-2 7 0 336.61 7.77
2 7 0 415.24 37.6
-2 7 0 390.28 11.8
-2 -7 0 348.4 18.02
-2 -7 1 542.57 13.22
-2 -7 1 616.63 15.65
2 -7 1 598.62 17.77
-2 -7 1 620.37 17.68
-2 7 1 579.94 14.21
2 7 1 580.82 17.36
2 -7 1 539.85 17
2 7 1 561.73 11.44
-2 -7 1 595.8 14.68
2 -7 1 594.55 18.31
-2 -7 1 543.07 14.37
2 7 1 602.35 10.63
2 7 1 645.91 32.48
-2 7 1 625.99 22.57
-2 -7 2 320.6 12.47
2 -7 2 318.02 12.76
-2 -7 2 274.44 9.21
-2 7 2 314 12.32
2 -7 2 280.87 12.06
-2 -7 2 276.87 8.71
2 7 2 309.47 9.28
2 -7 2 318.52 13.35
-2 -7 2 300.63 10.53
2 7 2 295.6 14.52
2 7 2 308.93 7.36
-2 -7 3 117.07 5.37
-2 -7 3 126.23 7.16
2 -7 3 118.78 7.06
-2 -7 3 124.27 6.03
-2 7 3 144.71 9.12
2 -7 3 114.32 7.04
2 7 3 131.88 6.24
2 -7 3 118.36 7.92
-2 -7 3 120.35 6.39
-2 7 3 136.51 11.5
2 7 3 116.4 9.9
2 7 3 139.73 16.67
-2 7 4 44.28 5.24
-2 -7 4 37.1 3.2
-2 -7 4 37.19 2.93
2 7 4 39.91 5.78
2 7 4 38.88 3.19
2 -7 4 45.97 4.26
-2 7 4 39.25 5.84
2 -8 -3 397.25 16.7
2 8 -3 390.14 8.69
-2 -8 -3 360.02 16.56
-2 8 -3 417.9 12.19
-2 -8 -3 394.68 17.63
2 -8 -2 348.17 15.57
2 8 -2 351.63 9.05
-2 8 -2 361.59 18.55
-2 -8 -2 370.55 18.14
2 -8 -2 328.71 19.78
2 -8 -2 374.43 15.35
-2 -8 -2 377.3 16.69
2 -8 -2 391.61 15.46
2 8 -2 443.13 28.05
-2 8 -2 404.07 13.68
-2 -8 -2 358.1 18.24
2 -8 -1 200.4 10.27
2 8 -1 201.28 7.1
2 -8 -1 192.82 8.83
-2 8 -1 208.01 14.44
2 -8 -1 240.3 15.85
-2 -8 -1 211.13 7.12
-2 8 -1 189.96 5.86
-2 8 -1 237.12 10
2 8 -1 227.78 19.34
-2 -8 -1 203.61 13.9
-2 -8 0 228.22 8.43
-2 -8 0 244.85 10.64
2 -8 0 236.03 10.4
2 8 0 190.39 18.79
-2 8 0 238.96 16
-2 -8 0 233.42 14.25
-2 8 0 227.38 6.56
2 8 0 288.94 21.16
-2 8 0 262.3 9.67
-2 -8 1 206.91 9.07
2 -8 1 204.78 10.47
-2 -8 1 173.02 8.17
2 -8 1 199.07 10.07
-2 8 1 197.45 15.15
2 8 1 191.81 6.2
-2 -8 1 193.32 8.34
2 -8 1 197.76 10.85
-2 -8 1 171.25 8.4
2 8 1 201.92 6.05
2 8 1 163.3 17.41
2 -8 2 303.55 12.31
2 -8 2 284.24 11.62
2 8 2 246.33 20.3
2 8 2 291.68 8.28
-2 -8 2 285.18 10.55
2 -8 2 292.17 12.8
-2 -8 2 266.02 10.17
-2 -8 2 265.4 9.11
2 8 2 321.7 14.11
-2 8 2 334.75 17.05
-2 -8 3 395.17 11.65
2 -8 3 367.45 11.63
-2 -8 3 345.72 9.56
-2 8 3 399.95 12.34
2 8 3 395.96 9.6
2 -8 3 381.27 13.41
-2 -8 3 366.92 11.23
2 8 3 402.03 16.05
-2 8 3 438.97 18.88
2 -9 -2 334.56 12.89
2 9 -2 331.11 8.06
-2 9 -2 297.21 15.29
-2 -9 -2 313.02 16.06
2 -9 -2 280.81 17.51
-2 -9 -2 330.69 14.43
2 9 -2 385.92 17.42
-2 9 -2 371.83 11.41
-2 -9 -2 326.37 15.27
2 9 -1 34.22 2.75
2 9 -1 29.69 7.41
-2 9 -1 33.16 5.84
2 -9 -1 42.75 6.93
2 9 -1 36.67 5.93
-2 -9 -1 36.83 5.46
-2 9 -1 42.35 3.97
2 -9 0 200.69 10.32
2 9 0 210.49 7.19
2 -9 0 200.68 8.9
-2 9 0 200.55 13.75
-2 -9 0 209.83 7.23
-2 -9 0 188.82 7
-2 9 0 193.85 5.85
2 9 0 226.9 19.14
2 9 1 36.61 8.43
-2 -9 1 40.06 3.65
2 -9 1 40.77 4.68
2 -9 1 43.15 4.46
-2 9 1 44.29 7.1
2 -9 1 42.21 5.14
2 9 1 37.68 2.54
-2 9 1 38.97 2.66
2 -9 2 362.15 12.6
-2 9 2 371.63 8.11
2 -9 2 380.98 12.9
-2 9 2 383.07 18.9
-2 -9 2 363 10.88
2 -9 2 359.7 13.32
2 9 2 378.37 22.28
-2 10 0 154.45 10.46
2 10 0 168.84 14.42
2 -10 1 82.02 5.68
-2 10 1 86.72 7.98
-3 0 -5 320.27 15.11
3 0 -5 362.44 8.94
3 0 -4 -0.14 0.9
-3 0 -4 -0.6 2.78
3 0 -4 0.31 0.83
3 0 -3 262.21 8.39
3 0 -3 271.67 6.12
3 0 -3 181.91 15.44
-3 0 -3 286.12 7.19
3 0 -3 272.92 7.72
-3 0 -3 185.69 15.26
3 0 -2 0.29 0.96
3 0 -2 0.94 0.81
-3 0 -2 0.76 2.72
-3 0 -2 1.88 1.15
3 0 -1 376.14 8.93
-3 0 -1 369.97 4.78
3 0 -1 381.61 7.58
3 0 -1 385.73 13.52
-3 0 -1 387.64 6.44
-3 0 -1 357.59 11.06
-3 0 -1 353.16 11.05
-3 0 -1 410.05 6.95
-3 0 -1 352.17 10.16
3 0 -1 394.66 6.43
-3 0 0 0.21 0.39
3 0 0 -0.08 0.88
3 0 0 0.41 0.46
3 0 0 -0.05 0.68
3 0 0 0.28 0.96
3 0 0 0.22 0.6
-3 0 0 0.02 0.4
-3 0 1 364.24 7.95
3 0 1 381.85 6.83
-3 0 1 355.33 9.85
3 0 1 384.61 8.06
3 0 1 388.35 7.27
-3 0 2 0.06 0.8
3 0 2 1.02 0.99
3 0 2 0.12 0.75
3 0 3 228.56 8.52
3 0 3 209.52 6.43
-3 0 3 217.46 8.11
-3 0 4 -0.27 1.07
-3 0 4 0.12 1.4
-3 0 5 257.85 8.69
-3 -1 -5 456.55 17.99
3 1 -5 509.3 10.48
3 -1 -5 513.97 10.69
-3 1 -5 467.94 17.86
-3 1 -4 534.77 24.61
-3 -1 -4 542.26 25.48
3 1 -4 611.97 11.12
3 1 -4 601.48 12.25
3 -1 -4 615.62 12.51
3 -1 -4 609.55 13.9
3 -1 -3 733.21 28.91
3 1 -3 867.86 11.84
3 -1 -3 1051.36 48.53
3 1 -3 858.12 13.99
3 -1 -3 823.74 16.01
-3 -1 -3 970.27 14.89
-3 -1 -3 639.81 25.79
3 1 -3 827.93 14.38
3 -1 -3 869.14 14.28
-3 -1 -3 604.31 27.5
-3 1 -3 632.92 27.66
3 -1 -2 356.22 7.99
3 1 -2 225.11 15.42
3 1 -2 342.49 7.78
-3 1 -2 350.66 8.42
-3 1 -2 329.34 14.23
-3 1 -2 343.4 6.77
-3 -1 -2 415.58 8.71
-3 -1 -2 282.02 13.31
-3 -1 -2 273.18 16.98
-3 1 -2 258.98 16.31
3 -1 -2 327.79 9.21
3 1 -2 333 8.36
3 1 -1 49.42 3.11
-3 -1 -1 54.42 2.23
3 -1 -1 56.57 4.72
3 1 -1 43.68 5.75
3 1 -1 43.66 4.44
3 1 -1 52 2.81
-3 1 -1 50.98 2.36
-3 -1 -1 56.45 2.18
3 -1 -1 54.91 2.62
3 1 -1 51.87 1.9
3 -1 -1 51.29 3.94
3 -1 -1 55.4 4.24
3 -1 -1 54.37 2.93
-3 1 -1 50.73 4.78
-3 1 -1 51.92 1.96
-3 -1 -1 52.39 2.66
-3 1 -1 47.13 3.76
-3 -1 -1 53.87 4.14
-3 1 -1 55.47 3.15
-3 -1 0 151.2 4.28
-3 -1 0 161.55 4.13
-3 -1 0 151.49 4.18
3 -1 0 168.75 7
3 1 0 141.51 8.7
3 -1 0 149.35 4.07
3 1 0 153.22 4.59
-3 -1 0 147.75 3.68
-3 1 0 141.78 6.18
-3 -1 0 140.98 6.08
3 -1 0 143.74 5
3 -1 0 147.85 5.77
3 -1 0 150.61 5.74
3 1 0 165.05 7
3 1 0 148.07 5.6
-3 1 0 144.86 7.08
3 1 0 147.12 4.64
-3 1 0 162.64 3.4
3 1 0 151.24 2.89
-3 1 0 160.38 4.67
3 -1 1 16.8 2.1
-3 -1 1 22.9 2.02
3 -1 1 13.96 1.15
3 1 1 17.47 1.61
-3 1 1 16.51 1.6
-3 1 1 16.7 2.4
-3 -1 1 13.93 1.97
3 -1 1 27.11 2.48
3 -1 1 12.93 1.65
3 1 1 18.58 2.28
3 -1 1 16.73 1.51
3 -1 1 13.44 1.26
3 1 1 16.22 1.72
3 1 1 17.14 1.53
3 1 1 15.69 1.33
-3 1 2 331.54 8.69
-3 1 2 299.39 10.93
-3 -1 2 298.33 9.25
3 -1 2 348.24 9.18
3 1 2 400.7 10.32
3 1 2 354.38 8.44
-3 -1 3 910.04 17.56
-3 1 3 756.63 20.09
-3 -1 3 767.97 16.69
-3 1 3 858.75 16.12
3 1 3 932.19 24.88
-3 1 4 579.7 13.85
-3 -1 4 614.83 15.35
3 1 4 573.51 12.3
-3 1 5 516.67 11.64
-3 -1 5 505.21 12.83
-3 -1 5 473.61 10.2
-3 -2 -5 3.02 2.4
-3 2 -5 0.63 2.38
3 2 -5 3.27 0.98
3 -2 -5 4.34 1.13
-3 -2 -4 227.04 15.52
-3 2 -4 211.12 14.34
3 2 -4 259.82 7.26
3 2 -4 261.95 7.73
3 -2 -4 260.88 7.94
3 -2 -4 257.58 9.31
3 -2 -3 678.17 25.86
3 2 -3 742.05 11.38
3 -2 -3 896.13 42.05
3 -2 -3 688.29 15.26
-3 2 -3 697.94 13.41
-3 -2 -3 691.65 20.55
-3 -2 -3 637.11 24.87
3 2 -3 712.97 12.47
3 -2 -3 713.25 12.83
3 2 -3 682.3 11.55
-3 -2 -3 518.79 25.54
-3 2 -3 524.13 24.74
3 -2 -2 65.21 6.54
3 -2 -2 63.69 6.17
3 2 -2 62.88 2.74
3 2 -2 64.58 3.26
3 -2 -2 68.91 3.47
-3 2 -2 57.83 6.52
-3 -2 -2 55.22 5.41
-3 -2 -2 69.28 3.53
3 -2 -2 62.18 3.36
3 2 -2 62.02 3.29
-3 -2 -2 48.6 7.82
-3 2 -2 47.15 7.23
-3 2 -2 61.52 3.8
3 2 -2 62.3 3.35
3 2 -1 3272.78 28.9
3 -2 -1 3528.51 40.84
-3 2 -1 3340.99 24.36
-3 -2 -1 3533.43 22.59
3 2 -1 3384.17 24.09
-3 2 -1 3512.46 37.99
3 2 -1 3353.89 29.36
3 2 -1 3063.05 19.51
3 -2 -1 3476.78 28.37
3 -2 -1 3302.25 36.1
3 -2 -1 3472.51 36.49
3 -2 -1 3360.73 31.35
-3 2 -1 3472.13 45.29
3 -2 -1 3148.1 24.19
-3 2 -1 3415.45 23.78
-3 -2 -1 3542.24 35.47
-3 -2 -1 3369.45 28.36
-3 2 -1 2951.35 50.14
-3 2 -1 2953.67 34.19
-3 -2 -1 3150.4 35.62
-3 -2 -1 3309.52 26.23
3 -2 -1 3407.9 32.82
-3 -2 0 4.16 0.82
3 2 0 3.15 1.26
-3 -2 0 4.39 0.87
3 -2 0 3.79 1.29
3 2 0 2.32 1.86
-3 -2 0 5.72 0.9
3 2 0 3.19 0.88
-3 -2 0 4.41 1.44
3 2 0 6.4 1.34
3 -2 0 3.52 1.2
3 -2 0 4.58 0.66
-3 -2 0 3.84 0.77
3 -2 0 4.33 1.43
3 2 0 3.45 1.43
3 2 0 5.62 1.19
-3 2 0 4.9 2.3
3 2 0 4.36 0.66
-3 -2 0 4.31 0.82
-3 2 0 5.17 1.12
3 -2 1 3508.27 33.86
-3 -2 1 3256.74 31.1
-3 -2 1 3069.33 29.39
-3 -2 1 3579.8 28.52
-3 2 1 3351.74 28.96
-3 2 1 3538.9 38.45
-3 -2 1 3195.36 31.85
3 -2 1 3411.44 34.96
3 -2 1 3453.8 29.95
3 -2 1 3364.85 28.26
3 2 1 3308.35 34.86
3 2 1 3533.37 30.71
3 2 1 3399.54 27.35
3 -2 1 3384.96 31.26
-3 2 1 3447.65 25.11
-3 -2 1 3451.88 29
-3 2 1 3399.05 29.78
-3 2 2 93.52 4.52
-3 -2 2 94.06 4.25
-3 -2 2 103.11 5.11
-3 2 2 89.14 6.5
3 -2 2 87.13 3.89
3 2 2 96.52 4.77
-3 -2 2 98.6 4.85
-3 2 2 87.97 6.84
-3 -2 3 806.96 14.8
-3 -2 3 767.34 13.85
-3 -2 3 845.78 17.2
-3 2 3 635.7 19.5
-3 2 3 831.23 15.43
3 2 3 811.78 25.48
-3 2 3 697.94 20.38
-3 2 4 295.85 9.32
-3 -2 4 267.24 8.17
-3 -2 4 309.46 11.18
3 2 4 312.91 18.11
-3 -2 5 7.14 1.8
-3 2 5 6.88 2.56
-3 -2 5 7.34 1.35
3 2 5 7.26 5.73
-3 2 5 6.65 1.51
3 3 -5 260.95 6.49
-3 -3 -5 262.01 11.49
-3 3 -5 255.29 10.85
3 -3 -5 267.75 6.85
-3 3 -4 119.24 10.27
3 3 -4 123.8 5.04
-3 -3 -4 117.6 8.28
-3 -3 -4 112.51 10.5
3 3 -4 131.07 5.17
3 -3 -4 128.93 5.33
-3 -3 -4 125.21 5.27
-3 -3 -4 96.24 11.53
3 3 -4 127.22 20.02
-3 -3 -3 704.65 28.27
-3 3 -3 656.55 25.9
3 -3 -3 863.54 27.2
-3 -3 -3 817.75 27.04
3 -3 -3 869.53 27.27
3 3 -3 892.11 13.94
3 -3 -3 902.51 14.51
-3 3 -3 915.65 16.85
3 -3 -3 911.33 18.46
-3 -3 -3 880.87 25.7
3 -3 -2 438.44 17.36
-3 3 -2 481.95 11.94
3 -3 -2 576.2 18.15
3 3 -2 497.32 9.25
3 -3 -2 504.42 9.64
3 -3 -2 513.51 9.7
3 3 -2 536.89 9.13
3 3 -2 509.53 9.45
-3 3 -2 369.95 18.95
3 -3 -2 404.42 12.72
-3 3 -2 471.95 19.51
-3 -3 -2 525.76 16.56
-3 -3 -2 414.96 21.12
3 -3 -2 502.82 12.68
3 -3 -1 598.81 17.34
3 3 -1 623.6 9.35
-3 3 -1 606.05 14.69
3 3 -1 610.88 10.72
3 -3 -1 701.97 15.45
3 -3 -1 612.44 13.27
-3 3 -1 614.02 19.81
3 -3 -1 499.94 16.52
-3 -3 -1 673.87 14.81
-3 -3 -1 608.45 10.92
3 3 -1 606.38 17.96
-3 -3 -1 537.5 21.16
-3 3 -1 516.19 19.76
-3 -3 -1 607.5 10.79
3 -3 -1 632.22 13.08
3 3 -1 610.79 10.06
3 -3 0 1088.61 16.98
-3 -3 0 1139.66 14.28
3 3 0 1052.75 15.28
-3 -3 0 1049.24 12.21
3 3 0 956.09 27.22
-3 -3 0 1132.68 14.71
-3 3 0 1134.75 19.52
3 -3 0 1197.11 19.99
3 3 0 1085.98 15.73
-3 -3 0 1178.77 14.72
-3 3 0 1077.26 26.01
-3 3 0 1112.19 16.83
-3 -3 0 1146.25 17.79
3 3 0 1026.75 10.43
-3 -3 0 1067.71 12.78
3 3 0 1144.84 26.15
-3 3 0 1088.17 16.18
-3 -3 0 1095.61 15.63
-3 -3 1 577.94 12.14
3 -3 1 523.02 11.65
-3 -3 1 565.76 10.35
-3 -3 1 533.24 10.32
3 -3 1 529.53 12.56
-3 -3 1 576.89 10.38
3 -3 1 550.96 13.85
3 3 1 550.98 10.92
3 -3 1 560.64 12.91
3 3 1 561.81 8.98
-3 3 1 564.82 8.21
3 -3 2 507.99 11.98
-3 -3 2 589.46 13.26
-3 -3 2 539.56 10.63
-3 3 2 547.74 9.82
-3 -3 2 554.46 10.91
3 3 2 606.48 23.41
-3 3 2 532.18 16.62
-3 3 2 570.97 11.47
3 -3 2 500.69 12.53
3 3 2 563.98 21.12
-3 3 2 478.56 17.65
-3 -3 3 848.39 16.5
-3 -3 3 781.66 13.87
3 3 3 899.23 31.78
-3 3 3 692.58 21.34
-3 -3 3 778.6 14.27
3 3 3 790.41 27.48
-3 3 3 664.89 22.12
-3 3 3 819.95 14.04
-3 3 3 878.93 15.44
-3 -3 4 159.78 6.38
-3 -3 4 163.52 8.12
-3 -3 4 153.57 5.91
3 3 4 166.17 14.3
-3 3 4 157.56 6.55
-3 3 4 175.13 6.64
-3 -3 5 247.31 6.87
-3 3 5 258.1 11.71
-3 -3 5 279.4 9.45
3 3 5 266.43 7.79
-3 3 5 289.44 8.13
3 3 5 251.58 20.11
3 -4 -4 522.75 22.05
3 4 -4 567.71 10.99
-3 -4 -4 521.27 19.02
-3 4 -4 508.24 17.79
3 4 -4 539.85 9.78
3 -4 -4 524.39 10.1
-3 -4 -4 533.03 18.83
-3 -4 -4 546.47 10.95
3 4 -4 530.97 34.52
-3 4 -4 528.66 11.95
-3 -4 -3 80.57 8.71
-3 4 -3 94.92 5.76
-3 4 -3 85.07 8.42
3 -4 -3 113.3 9.98
3 -4 -3 80.25 8.76
3 4 -3 107.39 4.57
-3 4 -3 89.63 10.01
3 4 -3 101.21 4.23
3 -4 -3 96.81 4.34
-3 -4 -3 84.04 8.6
3 -4 -3 95.17 5.85
-3 -4 -3 108.08 9.68
3 -4 -2 191.73 11.99
3 -4 -2 224.78 6.08
3 -4 -2 258.81 12.44
3 4 -2 254.05 6.76
-3 4 -2 254.26 15.15
-3 -4 -2 224.36 11.14
-3 -4 -2 250.92 7.47
3 4 -2 245.36 6.26
-3 4 -2 204.94 8.36
3 4 -2 216.98 14.42
-3 -4 -2 177.14 13.33
3 -4 -2 233.96 8.78
-3 4 -2 169.03 11.79
3 4 -2 232.36 5.93
3 -4 -1 226.75 11.06
3 -4 -1 234.22 8.22
-3 -4 -1 211.82 6.87
3 4 -1 234.87 6.19
-3 4 -1 233.63 9.11
3 4 -1 231.79 6.34
3 -4 -1 255.47 10.05
3 -4 -1 232.11 8.95
3 -4 -1 280.2 9.97
-3 4 -1 233.79 13.55
3 -4 -1 237.83 5.69
3 -4 -1 226.62 12.04
3 4 -1 243.75 5.66
3 4 -1 207.54 12.04
-3 -4 -1 189.08 12.66
-3 4 -1 202.89 7.86
-3 4 -1 190.91 11.82
3 4 0 112.2 4.56
-3 -4 0 125.21 4.97
3 -4 0 113.07 6.56
-3 -4 0 114.91 4.95
-3 4 0 127.17 6.65
-3 -4 0 120.58 5.42
3 -4 0 138.99 7.31
3 4 0 121.36 5.06
-3 4 0 116.69 9.53
3 -4 0 119.8 6.74
3 4 0 124.94 5.01
3 -4 0 130.62 7.2
-3 4 0 121.58 5.42
-3 -4 0 118.5 5.57
-3 -4 0 114.29 4.48
3 4 0 111.08 9.21
3 4 0 106.33 10.16
-3 4 0 118.17 5.51
3 -4 0 119.23 5.47
3 -4 1 248.47 7.87
-3 -4 1 273.15 7.51
3 4 1 230.28 15.52
3 -4 1 242.84 9.45
-3 -4 1 277.05 7.8
-3 4 1 286.96 10.9
3 -4 1 287.81 10.9
3 -4 1 266.46 9.8
3 4 1 270.92 15.14
3 4 1 281 19.02
-3 4 1 281.51 6.13
3 -4 2 177 6.79
-3 -4 2 192.35 6.65
-3 -4 2 195.43 6.62
3 4 2 184.79 14.81
3 -4 2 175.32 7.73
-3 -4 2 185.79 6.76
-3 4 2 192.49 10.32
-3 -4 2 209.48 8.53
3 4 2 202.87 7.69
3 -4 2 192.19 8.56
3 4 2 186.59 13.81
-3 4 2 181.08 11.79
-3 4 2 199.4 5.93
-3 -4 3 117.58 5.43
-3 -4 3 122.66 5.43
3 4 3 106.34 11.94
-3 4 3 124.61 9.41
3 4 3 121.71 11.57
3 4 3 109.54 15.38
-3 4 3 96.28 9.23
-3 4 3 124.66 5.42
-3 -4 3 134.29 6.94
-3 -4 4 462.9 10.7
-3 -4 4 466.28 10.17
3 4 4 376.16 21.66
-3 4 4 461.06 18.18
3 4 4 501.3 13.01
3 4 4 441.55 30.32
-3 4 4 441.91 18.27
-3 4 4 526.4 11.75
-3 -4 5 215.62 7.93
-3 -4 5 199.8 6.64
-3 4 5 216.64 10.43
3 4 5 188.33 12.2
3 4 5 219.65 17.64
-3 4 5 230.13 6.72
3 -5 -4 67.01 7.86
3 5 -4 69.7 3.72
-3 -5 -4 66.11 6.86
-3 -5 -4 66.38 3.53
-3 -5 -4 62.12 8.69
-3 5 -4 65.56 4.18
3 -5 -3 719.88 26.22
-3 -5 -3 798.7 27.69
3 -5 -3 792.76 25.32
3 5 -3 849.9 13.96
-3 5 -3 765.39 29.22
-3 -5 -3 762.81 26.55
3 -5 -3 781.7 16.93
-3 5 -3 799.2 17.92
3 -5 -2 133.56 10.29
3 -5 -2 197 11.43
3 5 -2 186.96 6.22
3 -5 -2 153.67 8.95
-3 5 -2 190.44 13.8
-3 -5 -2 177.37 10.65
-3 -5 -2 178.27 6.63
3 -5 -2 162.83 7.37
3 5 -2 161.63 13.63
-3 -5 -2 183.66 13.89
3 -5 -1 700.25 20.3
3 5 -1 726.85 12.37
-3 5 -1 693.21 16.18
-3 -5 -1 674.28 14.66
3 -5 -1 800.81 19.22
3 -5 -1 761.03 18.2
3 -5 -1 857.57 18.3
-3 5 -1 693.26 25.2
3 -5 -1 782.05 24.96
-3 -5 -1 833.22 15.34
-3 5 -1 709.65 9.38
3 5 -1 648.88 24.23
-3 5 -1 613.45 15.16
3 -5 -1 706.42 14.81
-3 -5 0 582.35 12.99
3 -5 0 575.62 16.28
-3 5 0 565.73 14.34
3 5 0 568.01 11.35
3 -5 0 563.81 16.36
-3 5 0 564.7 22.78
3 5 0 585.67 11.58
-3 5 0 619.17 13.96
3 -5 0 611.63 17.45
-3 -5 0 544.03 11.76
3 5 0 557.6 23.25
3 5 0 570.88 24.62
3 -5 0 571.12 12.19
-3 -5 1 709.31 13.27
-3 -5 1 665.67 15.43
-3 -5 1 680.34 12.47
-3 -5 1 692.86 13.93
-3 5 1 742.62 18.11
3 -5 1 697.31 18.52
-3 5 1 685.12 26.4
3 -5 1 663.44 18.13
3 5 1 720.44 13.88
3 -5 1 679.45 18.15
-3 -5 1 685.49 13.34
3 5 1 650.84 26.76
3 5 1 660.53 31.12
-3 -5 2 178.55 6.65
-3 -5 2 189.67 8.59
3 5 2 132.73 13.82
3 -5 2 146.55 7.92
-3 5 2 187.05 10.4
3 -5 2 166.47 8.73
3 5 2 168.36 14.31
3 5 2 180.33 18.38
-3 5 2 189.41 6.03
-3 5 2 160.69 12
-3 -5 3 718.35 14.01
-3 -5 3 769.24 17.6
-3 5 3 755.23 22.87
3 5 3 775.85 16.7
3 -5 3 686.71 17.8
3 5 3 711.32 38.93
-3 5 3 797.52 14.22
-3 5 3 669.71 25.12
-3 -5 4 50.76 3.3
-3 -5 4 55.23 4.52
-3 -5 4 47.35 3.67
3 -5 4 46.7 4.59
3 5 4 54.7 4.23
3 5 4 48.02 10.54
-3 -5 4 55.62 4.03
-3 5 4 57.01 3.59
-3 5 4 48.68 6.42
3 -6 -4 534.78 20.5
3 6 -4 561.27 10.25
-3 6 -4 553.12 11.99
-3 -6 -4 560.99 19.11
3 -6 -3 36.21 5.9
3 -6 -3 34.01 5.35
3 6 -3 38.3 2.86
-3 -6 -3 32.75 5.66
-3 6 -3 37.68 3.86
3 6 -3 23.12 13.05
-3 -6 -3 29.78 5.47
3 -6 -2 981.76 28.42
3 -6 -2 1227.28 30.13
3 6 -2 1108.57 16.68
-3 6 -2 1062.72 33.76
-3 -6 -2 1130.91 28.56
-3 -6 -2 1157.1 17.94
3 -6 -2 1049.09 18.8
3 6 -2 1075.64 36.87
-3 -6 -1 272.85 10.25
3 6 -1 329.48 8.68
3 -6 -1 348.08 13.19
-3 6 -1 302.07 17.61
3 -6 -1 323.46 16.69
-3 -6 -1 321.25 9.45
-3 6 -1 302.6 6.41
-3 6 -1 296.9 10.97
3 -6 -1 316.7 9.51
-3 -6 0 1233.27 20.52
3 -6 0 1173.32 25.62
-3 6 0 1294.3 22.76
3 -6 0 1332.01 26.4
3 -6 0 1306.41 26.74
-3 6 0 1253.96 36.5
3 6 0 1280.63 18.09
3 6 0 1127.77 36.31
-3 6 0 1268.67 14.91
3 6 0 1381.13 40.8
-3 6 0 1326.09 22.12
-3 -6 1 325.65 11.13
-3 -6 1 317.41 9.73
3 -6 1 273.1 11.9
-3 6 1 332.01 12.18
3 -6 1 323.21 13.35
-3 6 1 301.58 18.39
3 6 1 313.45 9.23
3 -6 1 306.89 12.99
-3 -6 1 305.82 9.94
3 6 1 286.6 19.18
3 6 1 298.09 21.42
-3 -6 2 1017.41 17.48
-3 -6 2 1053.15 21.59
-3 -6 2 955.65 18.03
-3 6 2 1101.29 24.94
3 -6 2 996.29 24.06
3 6 2 1031.72 18.38
3 -6 2 975.27 23.21
-3 -6 2 1014.53 18.58
3 6 2 1021.21 43.74
-3 6 2 1079.36 32.69
-3 -6 3 37.18 3.1
-3 -6 3 42.28 4.1
-3 -6 3 42.7 3.91
-3 -6 3 37.15 3.36
-3 6 3 40.75 5.74
3 -6 3 33.95 4.34
3 -6 3 37.19 4.35
3 6 3 43.62 6.71
-3 6 3 33.71 6.14
-3 -6 4 492.9 9.76
-3 -6 4 546.14 13.19
-3 -6 4 513.51 11.49
-3 6 4 583.47 17.88
3 -6 4 493.45 14.45
3 6 4 553.04 12.38
3 6 4 517.17 19.99
3 6 4 532.88 29.35
-3 -6 4 525.23 11.91
3 -7 -3 120.16 9.71
3 -7 -3 129.03 10.04
3 7 -3 128.62 4.98
-3 -7 -3 112.08 9.67
-3 7 -3 131.18 6.82
-3 -7 -3 131.2 10.47
3 -7 -2 328.53 15.47
3 -7 -2 369.24 16.27
3 7 -2 360.92 9.18
-3 -7 -2 322.94 15.37
-3 -7 -2 364.51 9.46
3 7 -2 310.07 35.3
3 -7 -2 325.34 9.3
-3 7 -2 356.09 12.32
3 7 -2 366.85 21.72
-3 -7 -2 330.91 18.38
3 7 -1 937.55 15.67
3 -7 -1 889.63 21.76
-3 7 -1 889.79 30.8
3 -7 -1 962.21 31.52
-3 -7 -1 972.9 17.23
-3 7 -1 973.62 20.63
-3 -7 -1 864.84 31.16
-3 -7 0 238.54 8.77
-3 -7 0 214.46 9.17
3 -7 0 232.76 11.61
3 -7 0 250.05 11.48
3 -7 0 274.85 11.18
3 -7 0 227.17 11.29
-3 7 0 260.84 17.23
3 7 0 246.96 7.41
-3 7 0 244.03 6.32
-3 7 0 271.16 9.74
-3 -7 1 808.59 16.98
-3 -7 1 898.16 19.01
3 -7 1 819.93 21.74
-3 7 1 872.57 19.37
3 -7 1 933.39 23.53
3 -7 1 862.73 22.6
-3 7 1 947.46 34.13
3 7 1 910.29 15.83
3 -7 1 972.01 25.17
-3 -7 1 825.99 17.9
3 7 1 938.55 38.25
-3 -7 2 346.53 10.11
-3 -7 2 368.44 9.94
3 -7 2 348.77 13.22
-3 -7 2 355.45 10.9
-3 7 2 388.81 13.78
3 -7 2 383.87 14.96
3 -7 2 373.32 14.3
-3 7 2 377.99 22.05
3 7 2 390 10.65
3 -7 2 378.29 14.6
-3 -7 2 343.13 10.87
3 7 2 363.99 14.85
3 7 2 414.37 27.53
-3 -7 3 126.68 6.68
-3 -7 3 115.99 5.75
-3 -7 3 115.05 5.71
-3 7 3 134.76 8.28
3 -7 3 121.13 7.91
3 -7 3 118.89 7.36
-3 7 3 128.53 12.62
3 7 3 127.29 5.93
3 -7 3 119.21 7.41
-3 -7 3 115.86 6.08
3 7 3 125.66 9.56
-3 -7 3 110.39 5.11
-3 8 -3 91.24 5.03
3 8 -3 130.5 13.04
3 -8 -2 543.2 19.47
3 8 -2 484.09 10.2
-3 8 -2 467.88 21.04
-3 -8 -2 430.54 16.84
-3 -8 -2 521.79 10.47
-3 8 -2 542.43 14.38
-3 -8 -2 471.61 20.14
-3 -8 -1 80.81 9.1
3 8 -1 84.54 4.37
3 -8 -1 83.52 6.47
3 -8 -1 71.52 8.6
-3 -8 -1 83.41 4.57
3 8 -1 101.63 17.56
-3 8 -1 94.13 5.99
3 8 -1 83.65 11.54
-3 -8 0 0.48 2.01
-3 -8 0 2.28 1.33
-3 -8 0 2.47 1.16
3 8 0 3.45 1.27
3 -8 0 3 1.77
-3 8 0 1.91 3.43
-3 -8 0 7.87 1.77
-3 8 0 3.58 0.93
3 8 0 1.89 6.6
-3 8 0 1.93 1.16
-3 -8 1 69.23 4.96
-3 -8 1 63.66 4.8
3 -8 1 69.97 6.25
3 -8 1 75.84 6.4
3 -8 1 72.93 6.31
-3 8 1 74.32 9.61
3 8 1 71.23 3.94
-3 8 1 72.8 3.54
-3 -8 2 371.2 10.77
-3 -8 2 412.63 12.13
3 -8 2 384.17 13.31
3 -8 2 385.62 13.57
-3 8 2 439.77 22.11
3 8 2 408.88 9.83
3 -8 2 433.74 15.51
-3 -8 2 362.32 11.23
-3 -8 3 73.85 4.49
3 -8 3 72.83 5.53
3 8 3 75.12 3.97
-3 -8 3 65.66 4.2
-3 9 -2 289.89 14.51
3 9 -2 315.8 14.4
-3 -9 -2 323.95 14.09
-3 -9 -1 11 3.17
3 -9 -1 11.71 3.02
3 9 -1 11.05 1.63
-3 9 -1 9.12 3.74
-3 -9 -1 10.87 1.52
-3 -9 -1 11.46 2.75
-3 9 -1 12.2 2.07
3 9 -1 21.38 6.55
3 9 -1 13.6 5.21
3 -9 0 736.2 17.86
-3 -9 0 786.42 13.86
-3 9 0 741.6 10.74
-3 -9 0 745.29 22.04
-3 -9 1 12.19 1.94
3 9 1 13.79 1.88
3 -9 1 12.91 2.57
-3 -9 1 13.6 2.03
-3 9 1 12.87 1.43
3 9 1 13.03 5.32
3 -9 2 326.78 11.18
-3 9 2 329.04 16.42
-4 0 -5 -1.17 2.79
4 0 -5 -0.05 0.65
4 0 -4 17.63 2.23
4 0 -4 19.91 2.41
4 0 -3 -0.08 1.07
4 0 -3 4.65 7.42
4 0 -3 0.47 0.96
-4 0 -3 0.37 3.69
-4 0 -3 0.1 0.69
4 0 -3 0.38 0.94
4 0 -2 1817.23 48.97
4 0 -2 2491.58 27.4
-4 0 -2 1775.08 51.47
4 0 -2 2413.63 30.79
4 0 -1 0.23 1.22
4 0 -1 -0.22 2.04
-4 0 -1 1.5 1.75
-4 0 -1 0.77 0.68
-4 0 -1 -0.57 1.44
4 0 0 8209.69 68.29
-4 0 0 8564.63 54.79
-4 0 0 8788.09 56.84
4 0 0 8270.75 86.57
-4 0 0 8250.12 73.33
4 0 0 8849.06 65.32
4 0 0 7702.02 73.44
-4 0 0 8690.53 71.33
-4 0 0 8073.14 54.63
4 0 1 0.81 1.7
-4 0 1 -0.15 0.59
-4 0 1 -0.06 0.81
-4 0 1 -0.1 1.26
4 0 1 -0.07 1.11
4 0 1 2.81 1.61
4 0 1 2.44 0.99
4 0 2 2343.9 29.96
4 0 2 2425.08 25.17
-4 0 3 0.28 1.16
-4 0 3 -0.62 1.42
4 0 3 0.08 1.15
-4 0 4 41.42 3.99
-4 0 5 0.37 0.55
-4 0 5 0.2 0.78
-4 -1 -5 79.99 6.78
-4 1 -5 76.85 6.57
4 1 -5 90.65 3.92
4 -1 -5 88.79 3.95
-4 -1 -4 789.3 30.6
-4 1 -4 786.01 29.79
4 1 -4 1031.4 16.58
4 -1 -4 1054.36 17
4 -1 -4 982.39 17.86
4 1 -3 635.53 12.82
4 -1 -3 644.97 13.22
4 -1 -3 518.02 28.82
4 -1 -3 806.77 47.48
-4 -1 -3 777.83 14.12
4 1 -3 643.47 13.25
4 1 -3 595.62 12.99
-4 -1 -3 455.3 26.98
-4 1 -3 492.47 26.91
4 -1 -3 651.61 15.52
4 -1 -2 338.52 18.93
4 -1 -2 364.38 9.22
4 1 -2 335.96 8.86
-4 1 -2 354.45 7.61
-4 -1 -2 444.24 10.21
-4 -1 -2 271.72 19.37
-4 1 -2 270.39 18.89
4 -1 -2 344.63 10.81
4 1 -2 348.82 10.07
4 1 -1 802.15 15.75
4 -1 -1 896.33 25.63
4 1 -1 570.17 25.75
4 1 -1 632.95 20.08
4 -1 -1 795.66 20.34
-4 1 -1 727.1 19.88
-4 -1 -1 850.85 12.87
-4 1 -1 722.87 18.45
-4 -1 -1 738.7 18.66
4 -1 0 55.4 4.49
4 1 0 54.34 4.49
-4 -1 0 58.15 2.86
-4 -1 0 57.02 3.08
4 -1 0 60.56 5.72
-4 1 0 57.91 2.78
4 1 0 42.11 6.32
4 1 0 62.57 6.62
-4 1 0 58.6 5.03
-4 -1 0 55.38 4.83
4 -1 0 59.3 4.65
4 -1 0 61.18 5.3
4 1 0 52.87 5.1
-4 1 0 55.95 4.56
-4 -1 0 59.64 4.72
-4 -1 0 61.08 3.2
-4 -1 0 55.61 3.11
-4 -1 1 805.85 14.23
-4 -1 1 822.95 12.91
4 -1 1 836.45 17.86
-4 -1 1 841.25 13.58
-4 -1 1 860.08 11.85
-4 1 1 801.6 18.99
-4 -1 1 791.35 17.6
4 -1 1 832.24 15.69
4 -1 1 904.43 17.13
4 1 1 829.7 16.31
4 1 1 880.49 19.65
4 1 1 850.47 14.24
-4 1 1 858.84 14.56
-4 1 2 331.17 9.89
-4 -1 2 326.5 10.17
-4 1 2 296.02 12.17
-4 -1 2 303.76 10.61
4 -1 2 319.61 9.47
4 -1 2 365.43 13
4 1 2 375.66 12.49
4 1 2 327.3 8.95
-4 1 2 336.74 7.37
-4 1 3 672.26 15.41
-4 -1 3 645.05 15.9
-4 -1 3 600.23 13.46
-4 1 3 576.83 18.2
4 -1 3 595.07 13.2
4 -1 3 708.78 18.38
4 1 3 645.53 13.12
4 1 3 720.18 24.44
-4 1 4 1068.13 19.77
-4 -1 4 1073.42 21
-4 -1 4 922.14 16.83
4 1 4 1176.09 37.04
-4 1 4 870.66 21.8
-4 1 4 1094.67 17.65
-4 -1 5 80.79 4.66
-4 -1 5 71.13 3.82
-4 1 5 72.18 3.98
-4 -1 5 72.44 3.69
-4 -2 -4 140.77 12.56
4 2 -4 148.76 5.71
4 -2 -4 157.34 6.07
4 -2 -4 149.14 6.99
4 -2 -3 92.88 11.73
4 -2 -3 131.11 18.93
-4 -2 -3 120.95 5.55
4 2 -3 98.08 4.85
4 -2 -3 103.36 5.11
4 -2 -3 100.47 6.28
-4 -2 -3 95.54 7.77
-4 -2 -3 72.98 10.5
-4 2 -3 65.98 9.7
4 2 -2 143.93 5.67
4 -2 -2 149.93 11.72
4 2 -2 136.64 5.4
4 -2 -2 142.27 5.66
-4 2 -2 128.55 10.41
-4 -2 -2 169.49 6.48
-4 -2 -2 108.74 12.65
-4 2 -2 95.19 11.47
4 -2 -2 144.82 5.82
4 2 -2 128.66 5.6
-4 -2 -1 48.92 2.85
4 -2 -1 54.24 6.27
-4 2 -1 49.48 5.09
4 -2 -1 48.48 4.9
4 -2 -1 55.81 5.39
4 -2 -1 52.84 3.83
-4 2 -1 58.46 6.38
-4 -2 -1 50.86 3.27
-4 -2 -1 43.36 7.36
-4 2 -1 44.39 7.43
-4 2 -1 46.06 4.7
-4 -2 -1 43.39 4.64
4 -2 -1 53.69 4.35
4 2 -1 52.45 3.85
4 -2 0 59.45 4.62
4 2 0 61.77 4.73
-4 -2 0 59.5 3.15
-4 2 0 60.74 2.71
-4 -2 0 65.06 3.53
4 -2 0 73.15 6.29
4 2 0 69.44 7.64
4 2 0 63.04 4.39
4 -2 0 66.38 5.12
4 2 0 61.78 3.83
-4 2 0 61.43 6.03
-4 2 0 60.93 4.82
-4 -2 0 63.46 4.94
-4 -2 0 65.14 3.83
-4 -2 0 59.15 3.09
4 -2 1 43.03 4.24
-4 -2 1 43.26 2.98
-4 -2 1 41.58 3.22
-4 -2 1 44.19 3.07
4 -2 1 44.27 4.33
4 2 1 55.12 7.27
-4 -2 1 45.35 2.84
-4 2 1 42.7 4.65
-4 -2 1 41.99 3.92
4 -2 1 44.92 3.54
4 -2 1 41.33 3.96
4 -2 1 51 5.02
4 2 1 36.56 4.2
4 2 1 41.57 3.32
-4 -2 2 176.32 6.64
4 -2 2 193.27 8.8
-4 -2 2 184.82 7.75
-4 -2 2 171.46 6.53
-4 -2 2 183.34 6.41
-4 2 2 167.06 9.59
4 -2 2 184.47 6.82
4 -2 2 187.98 8.27
4 -2 2 207.86 10.36
4 2 2 191.96 7.33
-4 2 2 191.4 5.51
-4 2 2 195.32 7.51
-4 -2 3 94.57 6.15
-4 -2 3 98.75 5.29
4 2 3 107.32 11.46
-4 2 3 78.21 7.19
4 -2 3 95.78 7.19
4 2 3 98.66 5.42
4 2 3 97.75 9.48
-4 2 3 99.87 4.66
-4 2 3 106.96 5.92
-4 -2 4 109.98 5.53
-4 -2 4 126.17 7.06
-4 -2 4 109.8 5.33
4 2 4 118.12 12.02
-4 2 4 109.6 8.12
4 2 4 117.29 5.49
-4 2 4 123.8 5.47
-4 2 4 134.63 6.43
4 -2 4 107.57 6.44
-4 -3 -4 141.49 11.18
4 3 -4 158.99 5.52
4 -3 -4 166.61 5.92
4 -3 -4 156.49 7.2
-4 -3 -3 310 20.13
-4 3 -3 299.63 18.07
4 -3 -3 411.66 22.72
-4 -3 -3 276.09 17.33
4 3 -3 410.91 9.55
4 -3 -3 404.01 9.91
-4 -3 -3 406.48 17.79
4 3 -2 985.07 15
4 -3 -2 1028.7 15.86
4 -3 -2 1032.68 15.85
-4 3 -2 905.73 29.19
4 3 -2 1001.41 15.2
-4 -3 -2 1093.78 17.22
-4 -3 -2 733.1 31.62
-4 3 -2 761.74 30.55
-4 3 -2 979.83 18.92
4 -3 -2 994.41 20.2
-4 -3 -1 475 10.24
4 -3 -1 591.26 20.25
-4 3 -1 503.3 15.98
4 -3 -1 501.18 16.07
4 -3 -1 579.3 17.51
4 -3 -1 513.14 13.25
-4 3 -1 478.66 19.34
-4 -3 -1 535.82 11.42
4 3 -1 522.74 19.1
-4 -3 -1 419.12 21.98
-4 3 -1 431.42 21.62
4 -3 -1 521.38 13.85
4 3 -1 491.48 10.72
4 -3 0 805.33 17.15
4 3 0 768.61 15.43
-4 -3 0 800.79 13.09
4 -3 0 935.51 23.37
4 3 0 608.76 24.8
-4 3 0 809.47 19.7
4 3 0 785.26 15.37
4 -3 0 876.12 20.04
4 -3 0 972.5 22.58
-4 3 0 734.78 23.08
4 3 0 829.67 14.86
-4 3 0 768.51 16.98
-4 -3 0 772.26 17.43
4 3 0 858.39 25.55
-4 -3 0 867.53 15.3
4 3 0 694.39 25.83
4 -3 1 503.34 13.64
-4 -3 1 507.68 10.85
-4 -3 1 485.32 10.99
4 -3 1 576.28 17.03
4 3 1 475.89 22.39
-4 -3 1 479.46 10.45
4 -3 1 519.17 15.07
4 -3 1 545.07 16.88
-4 3 1 479.11 19.24
4 3 1 511.06 12.02
4 3 1 541.84 21.64
4 -3 2 844.87 18.31
-4 -3 2 828.55 16.97
-4 -3 2 842.98 15.37
4 3 2 904.49 33.37
-4 -3 2 869.43 15.42
-4 3 2 777.64 21.74
4 -3 2 755.27 18.9
-4 3 2 729.69 25.81
4 3 2 850.23 16.7
4 3 2 891.48 29.67
-4 3 2 903.13 12.62
4 -3 3 341.33 11.43
-4 -3 3 359.52 10.23
-4 -3 3 370.23 12.21
-4 -3 3 340.11 9.84
4 3 3 383.56 22.46
-4 -3 3 350.11 10.1
-4 3 3 274.34 13.66
4 -3 3 310.11 11.6
4 3 3 350.5 10.73
4 3 3 345.44 19.35
-4 3 3 392.8 9.3
-4 -3 4 149.52 6.29
-4 -3 4 147.77 5.99
4 3 4 138.98 13.25
-4 -3 4 136.61 6.16
-4 3 4 132.14 9.08
4 -3 4 155.44 8.58
4 3 4 149.05 6.41
-4 3 4 163.92 6.1
-4 4 -4 98.9 7.35
4 4 -4 112.3 4.06
-4 -4 -4 117.76 4.83
4 4 -4 119.4 18.83
-4 -4 -3 689.21 27.25
-4 4 -3 642.93 23.7
4 -4 -3 947.06 34.35
4 4 -3 851.63 13.24
4 -4 -3 867.59 13.99
-4 -4 -3 633.39 25.38
4 -4 -3 930.46 19.56
-4 -4 -3 853.61 26.91
4 -4 -2 580.52 11.09
-4 4 -2 378.09 20.02
4 4 -2 571.57 10.7
4 4 -2 566.99 10.67
4 -4 -2 574.5 11.23
-4 4 -2 532.12 14.29
-4 4 -2 537.16 23.45
-4 -4 -2 425.12 22.44
4 -4 -2 586.13 15.64
-4 -4 -1 411.76 10.96
4 -4 -1 478.94 18.61
-4 4 -1 406.22 14.39
4 -4 -1 421.67 12.92
4 -4 -1 475.21 16.06
-4 4 -1 433.56 19.89
4 -4 -1 432.35 9.15
-4 -4 -1 443.89 10.93
4 4 -1 395.81 18.43
-4 -4 -1 331.78 19.35
4 4 -1 429.35 8.89
-4 4 -1 320.15 17.88
-4 4 -1 412.6 12.32
4 -4 -1 433.73 12.75
4 4 0 413.56 10.53
-4 -4 0 419.84 10.14
-4 4 0 464.08 15.14
4 4 0 434.54 11.23
4 -4 0 454.71 15.06
4 -4 0 507.21 16.33
4 -4 0 452.86 14.71
-4 4 0 434.3 19.79
4 4 0 444.84 11.1
-4 4 0 391.23 12.04
-4 -4 0 388.35 12.36
-4 -4 0 464.06 11.82
4 4 0 429.99 19.9
4 4 0 415.32 20.73
4 -4 0 429.51 12.3
4 -4 1 453.94 12.52
-4 -4 1 450.65 10.81
-4 -4 1 442.86 10.37
4 4 1 440.37 24.13
-4 -4 1 456.44 11.04
-4 4 1 476.99 16.02
4 -4 1 463.29 15.35
-4 4 1 443.01 20.41
4 4 1 478.38 12.05
-4 4 1 472.02 12.93
-4 -4 1 453.47 12.84
4 4 1 458.91 21.84
4 4 1 392.11 24.12
4 -4 2 622.76 14.64
-4 -4 2 677.96 16.03
-4 -4 2 623.22 14.59
-4 -4 2 643.6 13.69
4 4 2 595.45 29.13
-4 -4 2 662.01 14.02
4 -4 2 528.84 17.01
-4 4 2 588.11 25.11
4 4 2 664.51 15.12
4 4 2 637.5 27.54
-4 4 2 690.04 11.18
-4 -4 3 867.38 16.14
-4 -4 3 905.89 19.15
-4 -4 3 890.01 16.14
4 4 3 806.62 34.16
-4 -4 3 926.54 17.17
-4 4 3 761.08 23.34
4 -4 3 711.94 19.08
4 4 3 918.63 18.06
4 4 3 805.08 30.71
4 4 3 806.83 41.49
-4 4 3 1035.72 15.33
-4 -4 4 133.97 5.57
-4 -4 4 135.66 6.91
-4 -4 4 131.76 5.93
-4 4 4 132.73 8.94
4 -4 4 150.72 8.53
4 4 4 141.46 6.25
4 4 4 130.75 15.88
-4 4 4 162.95 5.73
4 -5 -3 193.47 13.9
4 -5 -3 201.81 8.54
-4 5 -3 189.31 8.18
-4 -5 -3 192.79 12.96
4 -5 -2 425.67 18.99
4 5 -2 404.51 8.83
-4 5 -2 359.65 19.82
-4 -5 -2 397.16 10.58
-4 5 -2 308.33 11.3
4 -5 -2 383.59 12.26
-4 -5 -2 358.87 19.87
-4 -5 -1 358.14 11.28
4 -5 -1 433.42 18.53
4 5 -1 389.58 8.79
-4 5 -1 377.14 13.85
4 -5 -1 384.69 15.26
4 -5 -1 412.55 13.57
4 -5 -1 434.26 15.38
-4 5 -1 362.48 19.37
-4 5 -1 350.57 11.92
-4 -5 -1 404.68 10.83
4 5 -1 319.44 17.65
4 -5 -1 367.86 11.63
-4 -5 0 840.84 16.08
-4 5 0 882.83 21.31
4 5 0 896.09 14.33
4 5 0 889.45 16.53
4 -5 0 890.24 22.69
4 -5 0 988.6 23.66
4 -5 0 880.39 21.94
-4 5 0 831.99 28.84
4 5 0 905.15 16.43
-4 -5 0 998.34 18.59
4 5 0 749.3 28.77
4 -5 0 848.94 17.18
-4 -5 1 418.66 12.57
-4 -5 1 395.53 11.13
-4 5 1 430.4 15.43
4 -5 1 394.86 15.04
4 5 1 431.99 12.27
4 -5 1 428.73 16.32
4 -5 1 432.54 15.87
-4 5 1 406.92 20.94
4 5 1 418.24 11.52
4 5 1 400.47 21.72
4 5 1 371.52 24.2
4 -5 1 399.46 10.99
-4 -5 2 326.67 9.7
-4 -5 2 360.05 11.96
-4 -5 2 321.81 10.07
-4 -5 2 338.51 10.43
-4 5 2 351.54 14.77
4 -5 2 304.94 13.26
-4 5 2 310.42 18.84
4 5 2 351.34 10.9
-4 -5 2 329.61 9.45
4 5 2 314.73 20.15
4 5 2 322.92 24.79
-4 -5 3 229.34 7.81
-4 -5 3 240.79 9.19
-4 -5 3 229.62 8.28
4 -5 3 207.67 10.29
-4 5 3 211.9 15.55
4 5 3 247.26 9.05
4 5 3 225.85 16.32
4 5 3 210 20.68
-4 -5 4 210.8 6.49
-4 -5 4 225.56 8.22
-4 -5 4 214.56 7.2
-4 5 4 234.62 11.08
4 -5 4 234.75 10.28
4 -5 4 205.89 9.1
4 5 4 231.7 7.63
4 5 4 217.12 18.67
4 -6 -3 717.98 25.62
4 6 -3 668.87 47.01
4 -6 -3 764.25 15.54
-4 6 -3 819.3 16.87
-4 -6 -3 744.99 24.44
4 -6 -2 32.35 5.43
4 6 -2 30.57 2.49
-4 6 -2 27.17 6.01
-4 -6 -2 31.81 2.98
4 -6 -2 34.93 3.41
-4 -6 -2 26.93 5.7
4 -6 -1 368.5 17.55
4 6 -1 339.22 8.52
4 -6 -1 343.12 14.64
4 -6 -1 334.87 13.03
-4 6 -1 323.44 18.8
-4 6 -1 316.76 11.46
4 -6 -1 311.04 10.11
-4 -6 0 94.62 5.65
4 6 0 107.52 5.01
-4 6 0 103.59 7.08
4 -6 0 110.74 7.9
4 6 0 109.93 5.51
-4 6 0 103.64 10.77
-4 -6 0 116.82 6.47
4 6 0 93.81 10.89
-4 -6 1 293.7 10.63
-4 6 1 270.53 11.77
4 -6 1 283.54 12.92
4 6 1 277.24 9.37
4 -6 1 303.76 13.88
4 -6 1 285.89 13.12
-4 6 1 290.88 18.48
4 6 1 291.04 9.4
4 6 1 255.08 19.64
-4 -6 2 28.24 2.89
-4 -6 2 35.04 3.78
-4 -6 2 30.28 3.22
-4 6 2 36.72 4.82
4 -6 2 33.77 4.57
4 -6 2 32.73 4.56
-4 6 2 37.44 7.31
4 6 2 35.96 3.48
-4 -6 2 29.43 3.03
4 6 2 29.83 6.94
4 6 2 43.56 9.83
-4 -6 3 631.99 12.75
-4 -6 3 613.42 13.53
-4 -6 3 594.97 13.29
-4 6 3 686.88 19.68
4 -6 3 581.05 16.93
4 -6 3 619.73 17.61
-4 6 3 638.22 25.54
4 6 3 666.33 14.2
-4 -6 3 564.45 12.75
4 6 3 607.75 20.82
4 6 3 658.38 33.63
4 7 -3 275.86 24.21
-4 -7 -3 196.59 11.32
4 -7 -2 99.9 9.36
4 7 -2 90.42 4.05
-4 7 -2 86.11 9.53
-4 -7 -2 99.02 4.88
-4 7 -2 91.46 5.76
4 7 -2 76.34 18.17
4 7 -1 180.29 6.13
4 -7 -1 189.18 10.7
-4 7 -1 184.88 13.97
-4 -7 -1 184.14 7.24
-4 7 -1 186.76 8.5
4 7 -1 158.21 15.22
-4 -7 -1 166.03 13.46
-4 -7 0 24.69 3.12
4 7 0 28.23 2.6
4 -7 0 29.21 4.34
4 -7 0 25.13 3.89
-4 7 0 26.62 6.1
-4 -7 1 200.57 8.18
-4 7 1 219.13 10
4 -7 1 234.6 11.72
4 -7 1 245.97 11.91
-4 7 1 235.63 16.29
4 7 1 232.14 7.91
-4 -7 2 71.2 4.62
-4 7 2 75.04 5.93
4 -7 2 73.68 6.29
4 7 2 76.04 4.69
4 -7 2 78.08 6.76
4 -7 2 72.73 6.25
-4 7 2 84.06 9.83
4 7 2 79.68 4.7
4 7 2 75.5 11.24
-4 -7 3 210.87 6.93
-4 7 3 235.46 9.94
4 -7 3 232.86 9.65
4 -7 3 214.05 9.14
4 7 3 230.34 7.32
4 7 3 245.38 18.15
-4 -8 -2 12 3.31
4 -8 -2 14.02 3.52
-4 8 -2 11.85 3.95
4 8 -2 20.92 9.19
4 8 -1 178.44 5.68
4 -8 -1 160.24 9.03
-4 8 -1 156.3 12.09
-4 -8 -1 180.39 6.39
4 8 -1 149.23 13.59
-4 -8 -1 170.66 12.13
-4 -8 0 1.32 2.06
4 -8 0 0.55 1.72
4 8 0 0.1 0.72
4 -8 0 1.18 1.5
-4 8 0 -0.49 2.87
-4 -8 0 0.14 0.84
4 8 0 0.76 3.99
-4 -8 1 141.41 6.93
4 8 1 171.96 5.93
4 -8 1 164.94 9.03
4 -8 1 189.07 9.48
-4 8 1 158 12.31
-4 -8 1 135.18 9.91
-4 -8 2 13.05 1.95
4 -8 2 10.22 2.39
4 -8 2 9.17 2.33
4 -8 2 9.73 2.3
-4 8 2 11.09 4.09
-5 0 -4 0.5 2.67
5 0 -4 0.57 0.81
5 0 -3 67.62 4.72
5 0 -3 72.04 4.43
5 0 -2 -0.1 1.29
5 0 -2 0.44 3.6
-5 0 -2 0.81 3.72
-5 0 -2 0.68 0.79
5 0 -2 0.14 0.97
5 0 -1 45.83 8.78
-5 0 -1 40.24 8.53
5 0 -1 54.58 4.81
5 0 0 -0.55 2.5
-5 0 0 -0.1 0.5
5 0 0 0.56 2.83
5 0 0 0.43 2.01
-5 0 0 0.46 1.64
5 0 0 -0.17 1.85
-5 0 0 1.06 1.53
-5 0 1 83.1 4.16
-5 0 1 76.03 4.25
-5 0 1 75.31 6.58
5 0 1 77.49 5.57
5 0 1 88.29 7.52
-5 0 1 86.18 5.1
5 0 2 0.93 2.31
-5 0 2 0.15 0.66
-5 0 2 2.2 1.32
-5 0 2 -0.14 1.45
5 0 2 -0.1 1.35
5 0 2 -0.15 1.52
5 0 3 63.78 6.28
-5 0 3 72.94 4.75
-5 0 3 60.73 5.63
5 0 3 66.56 4.98
5 0 4 -1.05 2.56
-5 0 4 0.61 0.77
-5 0 4 0.64 1.06
5 0 4 0.55 2.52
-5 -1 -4 130.74 11.31
-5 1 -4 140.41 11.49
5 1 -4 159.76 5.68
5 -1 -4 162.24 5.84
5 -1 -4 154.7 6.25
5 -1 -3 681.36 45.98
-5 -1 -3 577.58 11.57
5 1 -3 545.51 12.45
5 -1 -3 593.34 15.09
5 1 -3 567.57 12.38
-5 -1 -3 368.78 23.44
-5 1 -3 380.32 23.2
5 -1 -3 589.77 12.82
5 -1 -2 132.25 14.53
5 1 -2 161.15 6.63
5 -1 -2 164.41 6.76
-5 -1 -2 111.82 13.99
-5 1 -2 117.66 13.83
5 -1 -2 173 7
5 -1 -2 167.13 8.28
5 1 -2 158.35 7.35
5 1 -2 159.23 6.74
5 -1 -1 277.03 18.12
5 -1 -1 257.65 13.73
-5 -1 -1 244.45 19.41
-5 1 -1 245.09 19.04
5 -1 -1 311.82 11.5
5 1 -1 307.08 10.79
5 1 0 452.4 14.02
-5 -1 0 437.83 8.81
5 -1 0 456.31 21.18
5 1 0 497.15 21.59
-5 1 0 446.12 16.66
-5 -1 0 373.78 15.02
5 -1 0 484.51 17.98
5 1 0 384.62 16.18
-5 1 0 424.73 14.98
-5 -1 0 427.05 14.99
-5 -1 0 505.99 10.09
5 -1 1 264.33 11.53
-5 1 1 232.81 6.67
5 1 1 261.72 11.54
-5 -1 1 247.4 7.47
-5 1 1 252.34 7.72
-5 -1 1 254.49 8.08
5 1 1 289.91 17.78
-5 1 1 222.22 11.59
-5 -1 1 223.67 10.94
5 -1 1 262.06 9.92
5 1 1 265.05 10.49
5 -1 1 227.24 9.88
5 -1 1 267.34 12.95
5 1 1 229.93 11.88
-5 -1 1 257.01 8.59
-5 -1 2 149.61 7.29
-5 -1 2 139.22 6.2
5 -1 2 145.12 8.93
-5 1 2 135.38 6.28
-5 -1 2 137.95 6.3
-5 1 2 113.5 8.24
-5 -1 2 130.31 8
5 -1 2 147.26 7.26
5 1 2 142.83 7.77
5 -1 2 155.73 9.79
5 1 2 146.39 9.02
5 1 2 153.71 6.46
-5 -1 3 519.23 14.37
-5 -1 3 494.18 12.24
5 -1 3 509.94 16.12
-5 1 3 475.99 12.44
5 1 3 604.7 27.72
-5 1 3 425.75 15.47
5 -1 3 488.15 12.29
5 1 3 510.9 14.11
5 -1 3 541.96 17.01
5 1 3 546.02 22.69
-5 1 3 596.25 14.92
-5 -1 4 162.8 7.31
5 -1 4 135.17 7.37
-5 -1 4 144.32 5.98
5 1 4 166.28 13.72
5 1 4 136.44 6.25
-5 1 4 167.42 7.09
5 -2 -4 3.7 1.32
-5 -2 -4 2.23 2.36
-5 2 -4 2.86 2.53
5 2 -4 3.79 1.04
5 -2 -4 2.83 0.99
5 -2 -3 491.08 37.13
-5 -2 -3 445.59 10.12
5 2 -3 422.15 10.24
5 -2 -3 446.9 10.88
5 -2 -3 436.33 12.87
-5 -2 -3 321.42 21.25
-5 2 -3 299.98 19.75
5 -2 -2 181.07 15.75
5 2 -2 256.22 30.65
5 2 -2 198.15 7.16
5 -2 -2 206.41 7.53
5 -2 -2 209.59 7.7
5 2 -2 207.52 7.45
-5 -2 -2 142.73 15.29
-5 2 -2 133.54 14.46
5 2 -2 186.37 7.37
5 -2 -1 1562.78 40.35
5 -2 -1 1493.42 33.78
-5 -2 -1 1788.93 22.47
5 2 -1 1621.57 36.77
-5 -2 -1 1295.48 45.25
-5 2 -1 1338.68 44.39
5 -2 -1 1651.33 28.12
5 2 -1 1606.44 24.67
5 -2 0 429.81 14.02
5 2 0 388.17 12.69
-5 -2 0 405.49 9.27
5 -2 0 451.7 19.9
5 2 0 371.24 20.23
-5 2 0 409.62 16.08
5 2 0 410.01 12.64
5 -2 0 361.72 14.36
-5 2 0 384.16 14.5
-5 -2 0 393.28 14.66
-5 -2 0 427.08 10.27
-5 -2 1 1608.11 22.39
5 -2 1 1674.47 29.43
5 2 1 1645.96 28.92
-5 -2 1 1661.56 21.53
-5 2 1 1610.37 20.7
-5 -2 1 1658.82 22.9
5 2 1 1743.7 46.46
-5 2 1 1584.14 32.48
5 -2 1 1601.92 28.95
5 -2 1 1738.34 35.32
5 2 1 1772.26 24.73
-5 2 1 1715.26 30.42
-5 -2 1 1623.97 29.87
-5 -2 1 1706.47 21.54
-5 -2 2 162.92 7.62
5 -2 2 176.18 9.42
-5 -2 2 160.66 6.69
5 2 2 153.48 9.27
-5 -2 2 162.93 6.96
5 2 2 161.56 14.58
-5 -2 2 145.88 5.74
-5 2 2 132.54 9.18
5 2 2 172.43 8.6
5 -2 2 172.92 10.77
5 2 2 164.85 7.14
5 2 2 178.52 13.66
-5 -2 3 481.06 13.69
5 -2 3 465.26 14.64
-5 -2 3 478.7 12.04
-5 -2 3 471.8 11.91
5 2 3 523.9 26.5
-5 -2 3 418.38 10.28
-5 2 3 382.1 15.54
5 2 3 481.66 14.12
5 -2 3 488.91 16.89
5 2 3 479.17 11.53
5 2 3 440.76 21.17
5 -2 4 9.54 2.3
-5 2 4 6.11 1.43
-5 -2 4 9.56 1.62
5 2 4 7.39 4.12
-5 2 4 7.28 2.17
5 2 4 7.01 1.73
5 -3 -4 281.61 8.61
-5 -3 -3 177.91 14.24
-5 3 -3 164.84 13.19
5 -3 -3 195.01 17.42
-5 -3 -3 278.87 8.48
5 3 -3 225.69 6.95
5 -3 -3 243.58 7.57
5 -3 -2 413.12 23.9
5 3 -2 395.58 9.8
5 -3 -2 389.98 10.17
5 -3 -2 409.92 10.4
5 3 -2 394.3 9.86
-5 -3 -2 503.88 12.41
-5 -3 -2 293.3 20.96
-5 3 -2 269.68 19.32
5 -3 -2 394.88 13.3
5 -3 -1 256.72 16.66
-5 3 -1 193.11 11.46
5 -3 -1 228.19 7.63
5 -3 -1 220.69 12.58
-5 -3 -1 235.45 7.98
5 3 -1 215.32 13.89
5 3 -1 216.69 7.19
-5 -3 -1 179.55 16.14
-5 3 -1 162.92 14.9
5 -3 -1 231.36 10.15
5 3 -1 212.6 7.73
5 3 0 168.88 8.08
-5 -3 0 182.01 6.74
5 -3 0 190.7 12.71
5 3 0 124.84 12.75
5 3 0 184.99 8.33
5 -3 0 170.36 10.05
5 -3 0 193.77 11.43
5 -3 0 195.67 9.65
-5 3 0 166.33 9.18
-5 -3 0 149.8 8.96
-5 -3 0 185.08 7.09
5 3 0 177.13 13.27
5 -3 0 179.07 8.98
-5 -3 1 182.15 6.91
5 -3 1 185.09 9.13
5 3 1 195.33 9.78
-5 -3 1 175.35 6.76
-5 3 1 175.12 6.03
5 3 1 166.51 15.21
-5 3 1 173.13 10.62
5 3 1 179.87 8.58
5 -3 1 172.47 9.55
5 -3 1 218.1 12.36
5 3 1 195.8 8.08
-5 3 1 184.24 9.52
-5 -3 1 171.28 9.31
-5 -3 1 205.45 7.9
5 3 1 181.5 14.06
5 -3 2 456.52 14.23
-5 -3 2 428.83 12.15
-5 -3 2 442.26 11.33
5 3 2 423.82 14.97
-5 -3 2 419.52 10.62
-5 3 2 393.52 16.11
5 -3 2 423.14 14.2
5 -3 2 443.88 17.7
5 3 2 452.35 12.4
5 3 2 454.78 22.88
5 -3 3 204.4 8.92
-5 -3 3 212.33 8.72
-5 -3 3 205.36 7.63
5 3 3 216.54 17.69
-5 -3 3 191.8 7.04
5 3 3 212.66 9.3
5 -3 3 207.87 11.27
5 3 3 216.71 7.96
5 3 3 210.24 14.98
-5 -3 4 289.55 9.09
-5 -3 4 282.03 7.8
5 3 4 232.44 16.03
-5 3 4 243.02 10.46
5 3 4 288.66 9.1
-5 4 -3 19.45 4.33
5 -4 -3 23.16 6.64
-5 -4 -3 33.9 2.93
5 4 -3 25.65 2.11
5 -4 -3 26.14 3.15
-5 -4 -3 27.05 4.45
5 4 -2 161.41 5.73
5 4 -2 155.52 5.49
5 -4 -2 162.35 5.9
5 -4 -2 171.13 14.14
-5 4 -2 143.3 11.8
-5 -4 -2 201.21 7.85
5 -4 -2 171.55 6.12
-5 -4 -2 118.95 12.43
5 -4 -2 163.16 8.24
-5 4 -2 116.88 11.68
-5 -4 -1 209.38 7.98
5 -4 -1 268.67 16.38
5 -4 -1 262.35 7.71
-5 4 -1 214.43 11.78
5 4 -1 249.94 7.27
5 -4 -1 264.56 13.65
-5 4 -1 235.15 14.82
-5 -4 -1 278.21 8.98
5 4 -1 213.03 14.52
-5 -4 -1 196.1 16.31
-5 4 -1 171.18 14.4
5 -4 -1 255.83 10.45
-5 -4 0 51.82 3.78
5 -4 0 56.09 6.83
5 4 0 57.38 14.57
-5 4 0 57.77 6.11
5 4 0 53.94 4.44
5 -4 0 48.43 5.74
5 -4 0 63.82 6.79
5 -4 0 52.17 5.29
-5 4 0 49.13 6.87
-5 -4 0 64.63 4.5
-5 -4 0 39.95 7.78
5 4 0 59.15 8.22
-5 4 0 48.17 8.03
-5 4 0 46.03 4.85
5 -4 0 55.84 4.98
5 4 1 256.46 10.37
-5 -4 1 257.88 8.63
5 -4 1 235.99 12.69
5 4 1 198.79 17.49
-5 4 1 252.48 12.97
5 4 1 251.7 10
5 -4 1 223.8 11.51
5 -4 1 271.1 12.65
5 4 1 269.11 9.59
-5 4 1 248.47 10.47
-5 -4 1 235.76 10.55
-5 -4 1 290.51 9.86
5 4 1 223.48 18.25
5 -4 1 256.44 10.18
5 -4 2 128.69 6.96
-5 -4 2 123.59 6.12
5 4 2 134.58 8.42
-5 -4 2 128.46 6.02
-5 -4 2 124.48 6.01
-5 4 2 109.1 8.45
5 -4 2 103.08 7.22
5 4 2 135.64 7.62
5 -4 2 114.92 8.86
5 4 2 137.44 6.81
-5 4 2 140.75 7.75
-5 -4 2 119.74 7.16
5 4 2 117.11 12.27
5 4 2 121.98 15.34
-5 -4 3 19.31 2.61
5 4 3 14.49 5.46
-5 -4 3 19.26 2.33
-5 4 3 17.25 3.77
5 4 3 22.65 3.22
5 -4 3 16.1 3.5
5 4 3 21.34 2.65
5 4 3 14.9 4.92
5 4 3 12.05 6.08
5 -5 -3 464.36 24.42
5 -5 -3 497.62 12.17
-5 -5 -3 451.7 16.71
5 -5 -2 216.31 15.54
-5 5 -2 201.79 14.06
5 -5 -2 218.93 8.91
-5 -5 -2 215.72 14.6
5 -5 -1 146.34 12.16
5 -5 -1 126.37 9.36
5 -5 -1 137.23 9.4
-5 5 -1 142.65 11.92
-5 -5 -1 150.47 6.63
5 5 -1 122.97 11.18
5 -5 -1 138.08 7.41
-5 -5 0 502.96 12.7
5 -5 0 500.74 20.86
-5 5 0 582.65 18.98
5 5 0 588.08 13.67
5 -5 0 557.77 19.4
5 -5 0 640.69 20.96
5 -5 0 601.84 17.9
-5 5 0 537.13 22.76
-5 -5 0 619.25 14.3
5 5 0 506.86 24.51
5 -5 0 577.39 14.98
-5 -5 1 138.01 6.49
5 -5 1 127.25 9.57
-5 5 1 148.69 9.62
5 5 1 140.69 7.27
5 -5 1 129.55 8.88
5 -5 1 165.19 10.84
5 -5 1 152.86 9.47
-5 5 1 121.58 10.91
-5 -5 1 155.65 7.34
5 5 1 140.11 14.03
5 -5 1 137.15 6.85
5 5 2 188.75 8.52
-5 -5 2 187.75 7.27
-5 -5 2 168.06 6.95
-5 5 2 178.69 10.39
5 -5 2 145.7 8.66
5 5 2 199.74 8.61
5 -5 2 159.23 10.23
5 -5 2 203.17 10.76
5 5 2 192.83 7.83
5 5 2 177.76 14.93
5 5 2 178.22 17.34
-5 -5 3 434.86 10.58
-5 -5 3 456.82 10.6
-5 -5 3 425.49 10.46
5 5 3 491.95 12.81
5 -5 3 444.79 15.72
5 -5 3 481.05 15.14
5 5 3 486.69 11.4
5 5 3 422.45 25.37
-5 6 -2 424.41 19.28
5 -6 -2 451.39 11.4
-5 -6 -2 434.14 19.42
5 -6 -1 208.69 14.12
-5 6 -1 183.29 13.36
-5 -6 -1 197.91 7.4
5 -6 -1 179.7 7.53
-5 -6 0 220.59 8.73
5 -6 0 222.32 13.65
-5 6 0 252.19 11.5
5 -6 0 252.35 12.78
5 -6 0 261.45 11.46
5 -6 0 293.03 13.64
-5 6 0 267.77 16.16
-5 -6 0 283.8 9.15
5 6 0 219.15 15.74
-5 -6 1 162.73 7.16
5 -6 1 147.44 10.19
-5 6 1 178.48 9.91
5 6 1 182.83 7.43
5 -6 1 163.83 9.79
5 -6 1 203.94 11.48
5 -6 1 178.66 9.88
5 6 1 188.64 7.44
-5 6 1 165.83 12.46
-5 -6 1 208.5 8.33
-5 6 2 510.76 16.37
5 6 2 492.61 12.26
-5 -6 2 541.28 12.75
5 6 2 488.13 25.28
5 -7 -1 405.28 18.24
-5 7 -1 385.84 18.06
-5 -7 -1 359.14 17.87
-5 -7 0 285.04 9.68
5 -7 0 341.98 15.88
5 -7 0 379.53 13.6
-5 7 0 366.86 17.76
-5 -7 0 408.82 10.35
5 7 0 301.22 20.3
-5 -7 1 329.72 10.1
5 -7 1 339.01 14.39
-5 7 1 370.8 12.5
5 -7 1 389.27 14.38
5 -7 1 398.09 13.4
5 -7 1 411.25 14.61
-5 7 1 353.79 16.97
-5 -7 1 410.13 10.41
6 0 -3 0.39 0.9
-6 0 -3 -2.08 3.37
6 0 -3 0.75 0.85
6 0 -2 990.83 17.33
6 0 -2 959.67 19.46
6 0 -1 -0.45 1.47
-6 0 -1 -0.84 4.2
6 0 -1 0.08 0.99
-6 0 0 2081.13 39.52
6 0 0 2614.9 37.95
-6 0 1 0.06 0.62
6 0 1 0.58 2.87
-6 0 1 2.57 2.1
6 0 1 0.78 2.11
-6 0 1 -0.32 1.94
6 0 2 1054.6 24.13
-6 0 2 893.04 14.91
-6 0 2 949.14 16.66
6 0 2 1069.53 36.28
-6 0 2 851.62 22.25
6 0 2 869.85 23.67
-6 0 2 829.69 22.43
6 0 3 4.4 3.07
-6 0 3 0.06 0.55
-6 0 3 -0.06 0.71
6 0 3 -0.28 2.7
6 0 3 0.6 2.23
-6 -1 -3 355.09 20.42
-6 1 -3 367.4 20.41
6 1 -3 528.17 10.86
6 -1 -3 550.89 11.25
6 -1 -3 522.33 12.45
6 1 -2 371.74 10.1
6 -1 -2 380.9 10.39
6 -1 -2 386.27 10.45
6 1 -2 350.1 9.87
-6 -1 -2 360.68 8.43
-6 -1 -2 241.11 19.66
-6 1 -2 249.87 19.88
6 1 -2 355.73 10.81
6 -1 -2 376.13 12.39
6 -1 -1 161.98 16.48
6 -1 -1 291.31 9.37
6 1 -1 269.4 8.92
-6 -1 -1 189.91 17.84
-6 1 -1 201.22 18.34
6 -1 -1 276.57 11.22
6 1 -1 253.77 10.17
6 1 0 12.32 2.83
-6 1 0 9.46 3.42
6 -1 0 7.51 3.13
-6 1 0 8.07 3.1
-6 -1 0 13.88 3.52
6 -1 1 319.9 13
6 1 1 286.57 12.36
-6 1 1 278.37 7.87
6 1 1 279.36 18.56
-6 1 1 242.16 13.01
6 -1 1 281.18 14.75
-6 1 1 275 12.96
-6 -1 1 269.78 12.83
6 -1 2 328.66 12.9
6 1 2 308.1 13.02
-6 -1 2 282.93 8.29
-6 1 2 282.97 8.58
-6 -1 2 302.01 9.28
6 1 2 335.14 21.03
-6 1 2 266.22 12.8
6 1 2 332.29 11.62
6 -1 2 292.44 13.99
-6 1 2 282.88 12.74
-6 -1 2 271.27 12.49
6 1 2 337.36 18.57
6 -1 3 544.13 15.2
-6 1 3 449.33 10
-6 -1 3 488.49 10.7
-6 1 3 472.86 10.87
-6 -1 3 493.43 11.33
-6 1 3 445.81 14.41
6 1 3 540.53 12.97
-6 1 3 436.44 14.77
-6 -1 3 417.75 14.37
6 -1 3 533.07 19.67
6 1 3 496.52 20.18
-6 -2 -3 154.96 12.6
-6 2 -3 163 12.48
6 2 -3 224.54 6.58
6 -2 -3 229.03 6.94
6 -2 -3 231.97 8.33
6 -2 -2 36.91 3.2
6 2 -2 36.77 3.09
6 -2 -2 20.6 6.97
6 -2 -2 34.22 3.13
6 2 -2 34.2 2.98
-6 -2 -2 24.47 7.38
-6 2 -2 22.91 6.85
-6 -2 -2 39.81 3.07
6 -2 -2 37.29 4.02
6 -2 -1 135.83 14.41
6 2 -1 176.69 12.33
6 -2 -1 193.24 7.46
-6 -2 -1 131.16 14.81
-6 2 -1 144.59 15.27
6 2 -1 187.82 7.23
6 2 -1 175.3 7.72
6 -2 0 13.5 4.96
-6 2 0 14.86 3.67
-6 -2 0 13.97 5.99
-6 2 0 11.79 5.58
6 -2 0 14.26 3.93
6 2 0 16.86 4.71
-6 2 0 13.01 3.4
-6 -2 0 11.59 3.12
6 -2 0 17.59 3.33
6 2 0 13.43 2.84
6 -2 1 187.46 9.73
6 2 1 159.16 9.09
-6 -2 1 159.13 6.09
6 2 1 157.46 14.6
-6 2 1 158.43 10.72
6 -2 1 173.95 11.8
-6 2 1 166.33 10.02
-6 -2 1 146.73 9.45
6 -2 2 53.12 5.16
6 2 2 51.97 6.11
-6 -2 2 50.15 3.51
-6 2 2 42.84 3.16
6 2 2 47.75 8.69
-6 2 2 42.81 5.38
6 2 2 55.21 4.84
6 -2 2 48.09 5.9
-6 2 2 52.3 5.5
-6 -2 2 47.4 5.2
6 2 2 56.12 7.83
6 -2 3 191.76 8.26
6 2 3 191.27 9.38
-6 -2 3 186.66 6.41
-6 2 3 165.76 6.1
-6 2 3 159.34 8.94
6 2 3 206.6 8.03
-6 2 3 181.8 9.06
-6 -2 3 175.34 8.75
6 2 3 171.29 12.05
-6 -2 3 206.69 7.52
6 -3 -2 262.79 7.75
6 3 -2 237.28 6.99
6 3 -2 251.57 7.33
6 -3 -2 252.52 7.55
6 -3 -2 186.06 16.85
-6 -3 -2 293.01 8.25
-6 -3 -2 150.78 13.85
-6 3 -2 163.66 14.18
6 -3 -2 253.46 9.82
-6 -3 -2 198.32 12.01
6 -3 -1 49.57 3.58
6 -3 -1 35.61 8.18
6 3 -1 43.39 3.28
6 3 -1 44.32 14.23
-6 -3 -1 25.68 7.13
-6 -3 -1 56.17 3.95
6 3 -1 42.98 6.63
-6 3 -1 33.85 7.51
6 -3 -1 47.07 4.67
6 -3 0 131.5 12.25
6 3 0 198.9 25.23
6 -3 0 149.49 10.98
-6 -3 0 168.37 6.38
6 3 0 148.22 12.63
-6 -3 0 117.78 13.42
-6 3 0 122.77 13.3
6 -3 0 166.1 8.76
6 3 0 139.62 6.9
6 3 1 29.68 4.29
-6 -3 1 35.4 2.96
6 3 1 26.3 7.01
-6 3 1 33.33 5.04
6 3 1 42.23 4.3
6 -3 1 33.68 5.39
6 -3 1 51.14 5.29
-6 3 1 32.33 4.4
-6 -3 1 35.25 4.58
6 -3 1 39.03 4.38
6 -3 2 220.17 9.35
6 3 2 195.62 9.73
-6 -3 2 198.13 6.88
6 3 2 179.91 16.01
-6 3 2 162.2 10.19
6 -3 2 175.95 10.96
-6 3 2 213.35 10.05
-6 -3 2 185.56 9.3
6 3 2 194.14 14.22
6 3 2 172.62 16.19
6 -4 -2 165.63 15.36
-6 -4 -2 168.82 10.8
6 -4 -1 199.31 15.89
6 4 -1 215.87 6.39
6 4 -1 232.89 6.66
-6 -4 -1 290.86 8.9
6 4 -1 171.82 12.16
-6 4 -1 151.69 12.94
6 -4 -1 241.78 9.87
6 -4 0 523.55 24.16
6 4 0 594.91 11.24
-6 4 0 554.68 19.48
6 -4 0 572.95 20.83
-6 -4 0 672.89 13.26
6 4 0 584.36 24.83
-6 -4 0 448.46 23.23
-6 4 0 445.91 22.31
6 -4 0 638.21 16.24
-6 -4 1 229.51 7.63
6 4 1 267.72 9.8
6 -4 1 182.05 9.97
6 -4 1 256.06 11.21
-6 4 1 206.18 15.09
-6 4 1 227.93 10.17
6 -4 1 254.36 9.7
-6 -4 2 187.98 6.63
-6 4 2 187 10.47
6 4 2 209.83 8.42
6 -4 2 156.23 9.96
6 -4 2 220.99 10.26
6 4 2 173.82 13.62
6 -5 -1 307.5 18.77
6 -5 -1 357.14 10.67
-6 -5 0 572.57 12.67
6 -5 0 499.51 20.8
-6 5 0 628.95 19.01
6 -5 0 651.44 20.66
-6 -5 0 799.63 14.12
6 5 0 649.27 25.46
6 -5 0 698.54 15.21
-6 -5 1 288.01 8.53
-6 5 1 336.8 13.7
6 -5 1 238.01 11.12
6 -5 1 355.63 12.45
6 -5 1 311.75 14.11
-6 -5 1 360.14 9.09
6 5 1 304.01 17.73
7 0 -1 79.62 4.36
7 0 -1 83.21 4.51
7 0 -1 76.71 5.09
7 0 0 0.1 1.35
-7 0 0 -0.36 3.49
-7 0 1 44.68 8.94
-7 0 1 54.15 5.71
7 0 1 70.65 5.31
7 -1 -1 6.75 1.86
7 1 -1 11.98 9.83
7 1 -1 7.14 1.53
-7 -1 -1 4.28 4.18
7 -1 -1 7.1 1.55
-7 1 -1 3.48 3.98
7 -1 -1 5.8 1.44
7 1 -1 8.37 1.7
7 1 0 21.73 2.47
-7 -1 0 15.01 5.87
-7 1 0 12.04 5.27
7 1 0 19.52 4.56
7 -1 0 20.99 2.47
7 -1 0 22.46 3.17
7 1 0 20.75 2.96
7 -1 1 0.99 1.56
7 1 1 2.21 1.61
-7 -1 1 1.02 3.55
-7 1 1 -0.67 3.52
-7 1 1 2.08 1.87
-7 -1 1 1.1 1.73
7 -2 0 1.7 1.53
-7 -2 0 1.9 3.32
-7 2 0 0.31 3.22
7 2 0 1.72 2.13
7 2 0 1.05 0.96
