#------------------------------------------------------------------------------
#$Date: 2021-03-24 01:17:32 +0200 (Wed, 24 Mar 2021) $
#$Revision: 263261 $
#$URL: file:///home/coder/svn-repositories/cod/cif/4/00/38/4003890.cif $
#------------------------------------------------------------------------------
#
# This file is available in the Crystallography Open Database (COD),
# http://www.crystallography.net/
#
# All data on this site have been placed in the public domain by the
# contributors.
#
data_4003890
loop_
_publ_author_name
'Benin, Bogdan M.'
'McCall, Kyle M.'
'W\"orle, Michael'
'Borgeaud, Dominique'
'Vonderach, Thomas'
'Sakhatskyi, Kostiantyn'
'Yakunin, Sergii'
'G\"unther, Detlef'
'Kovalenko, Maksym V.'
_publ_section_title
;
 Lone-Pair-Induced Structural Ordering in the Mixed-Valent 0D
 Metal-Halides Rb23BiIIIxSbIII7--xSbV2Cl54 (0 &#x2264; x &#x2264; 7)
;
_journal_name_full               'Chemistry of Materials'
_journal_paper_doi               10.1021/acs.chemmater.0c04491
_journal_year                    2021
_chemical_formula_moiety         '0.25(Cl24 Rb4 Sb4)'
_chemical_formula_sum            'Cl6 Rb Sb'
_chemical_formula_weight         419.92
_space_group_crystal_system      monoclinic
_space_group_IT_number           15
_space_group_name_Hall           '-C 2yc'
_space_group_name_H-M_alt        'C 1 2/c 1'
_atom_sites_solution_primary     dual
_audit_creation_date             2020-08-27
_audit_creation_method
;
Olex2 1.2
(compiled 2018.05.29 svn.r3508 for OlexSys, GUI svn.r5506)
;
_cell_angle_alpha                90
_cell_angle_beta                 101.905(3)
_cell_angle_gamma                90
_cell_formula_units_Z            4
_cell_length_a                   12.0736(4)
_cell_length_b                   6.3321(2)
_cell_length_c                   12.1366(3)
_cell_measurement_reflns_used    5458
_cell_measurement_temperature    293
_cell_measurement_theta_max      41.9900
_cell_measurement_theta_min      1.7200
_cell_volume                     907.90(5)
_computing_cell_refinement       'CrysAlisPro 1.171.40.16b (Rigaku OD, 2018)'
_computing_data_collection       'CrysAlisPro 1.171.40.16b (Rigaku OD, 2018)'
_computing_data_reduction        'CrysAlisPro 1.171.40.16b (Rigaku OD, 2018)'
_computing_molecular_graphics    'Olex2 (Dolomanov et al., 2009)'
_computing_publication_material  'Olex2 (Dolomanov et al., 2009)'
_computing_structure_refinement  'ShelXL (Sheldrick, 2015)'
_computing_structure_solution    'ShelXT (Sheldrick, 2015)'
_diffrn_ambient_temperature      293
_diffrn_detector                 'CCD plate'
_diffrn_measured_fraction_theta_full 1.000
_diffrn_measured_fraction_theta_max 1.000
_diffrn_measurement_details
;
List of Runs (angles in degrees, time in seconds):

  # Type    Start    End  Width  t~exp~   \w     \q     \k     \f   Frames
--------------------------------------------------------------------------
  1  \w     12.38 132.88   0.50   70.00    --   52.50  73.75-125.75  241
  2  \w    -41.81 151.69   0.50   70.00    --   -5.00  73.75  96.76  387
  3  \f    -24.95 342.78   0.50   69.82  79.26  -7.50  73.75    --   735
  4  \w    -91.74 116.76   0.50   70.00    --  -52.50  73.75 104.26  417
;
_diffrn_measurement_device       'abstract diffractometer'
_diffrn_measurement_device_type
'Saxi-CrysAlisPro-abstract goniometer imported SAXI images'
_diffrn_measurement_method       '\w and \f scans'
_diffrn_orient_matrix_type
'CrysAlisPro convention (1999,Acta A55,543-557)'
_diffrn_orient_matrix_UB_11      -0.0525219000
_diffrn_orient_matrix_UB_12      -0.0268344000
_diffrn_orient_matrix_UB_13      0.0142020000
_diffrn_orient_matrix_UB_21      0.0263347000
_diffrn_orient_matrix_UB_22      -0.0853767000
_diffrn_orient_matrix_UB_23      0.0331603000
_diffrn_orient_matrix_UB_31      0.0127600000
_diffrn_orient_matrix_UB_32      0.0670744000
_diffrn_orient_matrix_UB_33      0.0475901000
_diffrn_radiation_monochromator  graphite
_diffrn_radiation_probe          x-ray
_diffrn_radiation_type           MoK\a
_diffrn_radiation_wavelength     0.71073
_diffrn_reflns_av_R_equivalents  0.0275
_diffrn_reflns_av_unetI/netI     0.0204
_diffrn_reflns_Laue_measured_fraction_full 1.000
_diffrn_reflns_Laue_measured_fraction_max 1.000
_diffrn_reflns_limit_h_max       17
_diffrn_reflns_limit_h_min       -14
_diffrn_reflns_limit_k_max       6
_diffrn_reflns_limit_k_min       -9
_diffrn_reflns_limit_l_max       17
_diffrn_reflns_limit_l_min       -17
_diffrn_reflns_number            5049
_diffrn_reflns_point_group_measured_fraction_full 1.000
_diffrn_reflns_point_group_measured_fraction_max 1.000
_diffrn_reflns_theta_full        25.242
_diffrn_reflns_theta_max         31.495
_diffrn_reflns_theta_min         3.431
_diffrn_source                   'fine-focus sealed X-ray tube'
_diffrn_source_type              'Enhance (Mo) X-ray Source'
_exptl_absorpt_coefficient_mu    10.040
_exptl_absorpt_correction_T_max  0.983
_exptl_absorpt_correction_T_min  0.960
_exptl_absorpt_correction_type   analytical
_exptl_absorpt_process_details
;
CrysAlisPro 1.171.40.16b (Rigaku Oxford Diffraction, 2018)
Analytical numeric absorption correction using a multifaceted crystal
			model based on expressions derived by R.C. Clark & J.S. Reid.
(Clark, R. C. & Reid, J. S. (1995). Acta Cryst. A51, 887-897)
Empirical absorption correction using spherical harmonics,
 implemented in SCALE3 ABSPACK scaling algorithm.
;
_exptl_crystal_colour            'clear colourless'
_exptl_crystal_colour_lustre     clear
_exptl_crystal_colour_primary    colourless
_exptl_crystal_density_diffrn    3.072
_exptl_crystal_description       needle
_exptl_crystal_F_000             760
_exptl_crystal_recrystallization_method
'Crystallized solvothermally from HCl/HNO3 solution'
_exptl_crystal_size_max          0.291
_exptl_crystal_size_mid          0.212
_exptl_crystal_size_min          0.103
_refine_diff_density_max         3.230
_refine_diff_density_min         -1.062
_refine_diff_density_rms         0.202
_refine_ls_extinction_method     none
_refine_ls_goodness_of_fit_ref   1.043
_refine_ls_hydrogen_treatment    undef
_refine_ls_matrix_type           full
_refine_ls_number_parameters     39
_refine_ls_number_reflns         1504
_refine_ls_number_restraints     0
_refine_ls_restrained_S_all      1.043
_refine_ls_R_factor_all          0.0397
_refine_ls_R_factor_gt           0.0347
_refine_ls_shift/su_max          0.000
_refine_ls_shift/su_mean         0.000
_refine_ls_structure_factor_coef Fsqd
_refine_ls_weighting_details
'w=1/[\s^2^(Fo^2^)+(0.0647P)^2^+1.3476P] where P=(Fo^2^+2Fc^2^)/3'
_refine_ls_weighting_scheme      calc
_refine_ls_wR_factor_gt          0.0907
_refine_ls_wR_factor_ref         0.0954
_reflns_Friedel_coverage         0.000
_reflns_number_gt                1332
_reflns_number_total             1504
_reflns_threshold_expression     'I > 2\s(I)'
_cod_data_source_file            cm0c04491_si_005.cif
_cod_data_source_block           dp064_2
_cod_database_code               4003890
_shelx_shelxl_version_number     2018/3
_chemical_oxdiff_formula         'Rb Sb Cl6'
_shelx_space_group_comment
;
The symmetry employed for this shelxl refinement is uniquely defined
by the following loop, which should always be used as a source of
symmetry information in preference to the above space-group names.
They are only intended as comments.
;
_reflns_odcompleteness_completeness 100.00
_reflns_odcompleteness_iscentric 1
_reflns_odcompleteness_theta     26.32
_olex2_refinement_description
;
;
_shelx_res_file
;
TITL dp064_2_a.res in C2/c
    dp064_2.res
    created by SHELXL-2018/3 at 11:09:49 on 27-Aug-2020
REM Old TITL DP064_2 in C2/c
REM SHELXT solution in C2/c: R1 0.059, Rweak 0.003, Alpha 0.006
REM <I/s> 1.422 for 88 systematic absences, Orientation as input
REM Formula found by SHELXT: Cl6 Rb Sb
CELL 0.71073 12.0736 6.3321 12.1366 90 101.905 90
ZERR 4 0.0004 0.0002 0.0003 0 0.003 0
LATT 7
SYMM -X,+Y,0.5-Z
SFAC Cl Rb Sb
UNIT 24 4 4

L.S. 99
PLAN  20
TEMP 19.85
list 4
fmap 2 53
acta
SHEL 999 0.68
REM <olex2.extras>
REM <HklSrc "%.\\DP064_2.hkl">
REM </olex2.extras>

WGHT    0.064700    1.347600
FVAR       0.26507
SB01  3    0.750000    0.750000    0.500000    10.50000    0.02303    0.02348 =
         0.02112   -0.00070    0.00535   -0.00134
RB02  2    0.500000    0.890295    0.750000    10.50000    0.04832    0.04893 =
         0.04753    0.00000    0.01328    0.00000
CL03  1    0.711762    0.584610    0.663150    11.00000    0.04637    0.03792 =
         0.03004    0.00717    0.01566   -0.00150
CL04  1    0.849084    0.445237    0.462340    11.00000    0.03874    0.02884 =
         0.04053   -0.00352    0.01245    0.00560
CL05  1    0.578724    0.614148    0.391005    11.00000    0.02915    0.03980 =
         0.04130   -0.00732   -0.00058   -0.00600
HKLF 4




REM  dp064_2_a.res in C2/c
REM wR2 = 0.0954, GooF = S = 1.043, Restrained GooF = 1.043 for all data
REM R1 = 0.0347 for 1332 Fo > 4sig(Fo) and 0.0397 for all 1504 data
REM 39 parameters refined using 0 restraints

END

WGHT      0.0647      1.3483

REM Highest difference peak  3.230,  deepest hole -1.062,  1-sigma level  0.202
Q1    1   0.8044  0.7539  0.5459  11.00000  0.05    3.23
Q2    1   0.5603  0.8820  0.7973  11.00000  0.05    1.49
Q3    1   0.7795  0.7521  0.4486  11.00000  0.05    1.30
Q4    1   0.5000  0.6125  0.7500  10.50000  0.05    0.99
Q5    1   0.6431  0.6191  0.4403  11.00000  0.05    0.95
Q6    1   0.6432  0.5934  0.6202  11.00000  0.05    0.80
Q7    1   0.9174  0.4575  0.5163  11.00000  0.05    0.79
Q8    1   0.7883  0.4397  0.4168  11.00000  0.05    0.71
Q9    1   0.7771  0.5827  0.7131  11.00000  0.05    0.69
Q10   1   0.5232  0.6378  0.3449  11.00000  0.05    0.57
Q11   1   0.6035  0.6406  0.3401  11.00000  0.05    0.54
Q12   1   0.5765  0.8799  0.3949  11.00000  0.05    0.50
Q13   1   0.5803  0.4588  0.6470  11.00000  0.05    0.45
Q14   1   0.4683  0.8789  0.8118  11.00000  0.05    0.45
Q15   1   0.8182  0.4652  0.5242  11.00000  0.05    0.43
Q16   1   0.5350  0.6186  0.4578  11.00000  0.05    0.42
Q17   1   0.7919  0.5822  0.3498  11.00000  0.05    0.40
Q18   1   0.5791  0.7483  0.4411  11.00000  0.05    0.38
Q19   1   0.8111  0.5565  0.6431  11.00000  0.05    0.37
Q20   1   0.6396  0.6636  0.6715  11.00000  0.05    0.37
;
_shelx_res_checksum              48372
_shelx_hkl_file
;
   0   0   1    0.51    0.22
   0   0  -1    0.15    0.14
   0   0   2 1318.71    5.64
   0   0  -2 1264.98    5.44
   0   0   3    0.97    0.61
   0   0  -3    1.56    0.52
   0   0  -4 2210.18   10.19
   0   0   4 2164.03    9.80
   0   0   5    0.69    0.68
   0   0  -5    0.02    0.58
   0   0   6  636.17    6.83
   0   0  -6  660.01    7.00
   0   0  -7    0.48    0.84
   0   0   7   -0.15    0.81
   0   0   7   -0.05    0.89
   0   0   8 1923.47   13.48
   0   0   8 1893.76    9.89
   0   0   8 1907.63   13.67
   0   0   9    2.05    1.31
   0   0   9    1.35    1.27
   0   0   9    0.69    0.75
   0   0  10   31.49    2.40
   0   0 -10   26.36    0.73
   0   0  10   28.95    1.62
   0   0  10   27.79    2.13
   0   0 -11    1.83    0.50
   0   0  11   -0.58    1.52
   0   0  12  580.25    9.73
   0   0 -12  633.22    4.61
   0   0 -13    0.96    0.70
   0   0  13   -0.92    2.17
   0   0  14    3.12    2.32
   0   0  15    2.58    2.66
   0   0  16   59.99    4.58
   0   0  17   -4.72    3.29
   0   0  18  110.32    6.49
   0   0  19   -0.20    3.38
   0   0  20   51.56    5.38
   0   0  21    3.99    3.84
   0   0  22   11.58    4.61
   0  -2   0    1.48    0.31
   0  -2   0    2.30    0.44
   0  -2   0    0.77    0.42
   0  -2  -1  539.07    3.73
   0   2  -1  567.00    3.79
   0  -2   1  538.62    3.62
   0   2  -1  521.46    3.64
   0  -2   1  555.04    4.43
   0  -2   1  544.98    3.53
   0   2  -1  535.74    3.03
   0   2   1  511.76    4.06
   0   2   2 1294.78    7.35
   0  -2   2 1347.74    6.92
   0  -2   2 1273.94    5.95
   0   2  -2 1272.56    6.29
   0  -2  -2 1351.43    6.82
   0  -2   2 1269.35    6.33
   0   2  -2 1310.29    5.82
   0  -2  -3  288.50    3.60
   0  -2   3  274.13    2.93
   0   2  -3  298.12    3.31
   0   2  -3  286.92    3.03
   0  -2   3  292.71    3.19
   0  -2   3  269.32    3.34
   0   2   3  268.42    3.73
   0  -2  -3  269.49    3.85
   0   2  -3  275.23    3.29
   0  -2   4 1117.15    6.00
   0  -2  -4 1019.34    7.44
   0   2  -4 1137.82    6.53
   0  -2   4 1132.36    5.88
   0  -2  -4 1068.48    8.48
   0  -2   4 1040.65    7.34
   0   2  -4 1136.45    6.29
   0   2  -4 1075.64    7.19
   0  -2   5  411.20    5.16
   0  -2  -5  404.54    5.54
   0  -2   5  452.78    3.66
   0   2  -5  411.54    3.96
   0  -2  -5  435.46    5.59
   0   2  -5  405.12    4.96
   0   2  -5  477.09    4.56
   0  -2   5  413.13    3.48
   0   2   6  746.82    7.61
   0  -2   6  753.61    6.62
   0  -2  -6  790.76    7.91
   0   2  -6  776.46    5.74
   0  -2   6  827.40    4.24
   0  -2   6  817.79    4.27
   0  -2   6  738.80    7.26
   0   2  -6  786.33    5.74
   0   2  -6  794.97    7.54
   0  -2  -6  770.14    8.30
   0  -2   6  772.00    7.76
   0  -2  -7 2188.70   14.97
   0  -2   7 2228.80   12.10
   0   2  -7 2272.33   10.11
   0   2   7 2207.59   13.73
   0   2  -7 2283.86   13.61
   0   2  -7 2310.19   10.40
   0  -2   7 2377.54   14.64
   0  -2   7 2219.54   13.62
   0  -2  -7 2338.80   14.58
   0   2   7 2337.62   14.62
   0  -2   8  717.90    8.23
   0   2   8  750.54    8.91
   0   2  -8  748.56    6.18
   0  -2  -8  773.78    8.98
   0  -2   8  698.93    6.96
   0   2   8  731.01    8.50
   0  -2   8  747.88    8.73
   0   2  -8  711.82    5.81
   0  -2   9    7.53    1.14
   0   2  -9   10.75    0.99
   0  -2   9    9.36    1.55
   0   2   9   10.80    1.72
   0  -2   9   10.21    1.61
   0   2   9    8.10    1.46
   0  -2  -9    8.58    1.53
   0   2 -10  859.62    7.01
   0  -2 -10  943.84   11.24
   0   2  10  967.18   11.25
   0  -2  10  899.13   10.58
   0  -2  10  990.03   11.52
   0  -2  10  889.20    8.74
   0   2  10  946.93   11.36
   0  -2  11   15.54    2.22
   0  -2  11   11.85    1.39
   0   2  11   16.03    2.27
   0   2  12  273.81    7.05
   0  -2  12  276.74    6.94
   0  -2  13    7.51    2.40
   0  -2  13    5.91    1.51
   0  -2  14  297.03    6.46
   0  -2  14  321.98    8.20
   0  -2  15   34.30    2.89
   0   2  15   38.13    3.95
   0  -2  15   32.84    3.70
   0  -2  16  169.47    5.54
   0  -2  16  185.29    7.21
   0   2  16  179.18    7.19
   0  -2  17   15.16    3.65
   0   2  17   13.87    3.60
   0   2  18   48.48    5.00
   0  -2  18   36.84    4.57
   0  -2  19    1.21    3.48
   0   2  19   -2.71    3.44
   0   2  20   18.76    4.71
   0  -2  20   32.75    4.88
   0   2  21    2.51    4.37
   0  -2  21    4.15    4.35
   0   2  22   27.98    5.48
   0  -2  22   22.46    4.82
   0  -4   0   24.93    1.41
   0  -4   0   25.31    1.06
   0  -4   0   22.49    2.00
   0  -4   0   28.73    1.19
   0  -4   1   37.64    1.35
   0  -4  -1   33.04    2.34
   0   4   1   35.97    1.64
   0  -4   1   43.19    2.04
   0  -4   1   41.97    1.49
   0  -4   1   31.95    2.21
   0  -4  -1   40.40    1.37
   0  -4  -1   31.02    1.31
   0   4  -1   36.44    1.48
   0  -4  -1   36.59    1.04
   0  -4  -2 2650.64   18.14
   0   4  -2 2577.91    7.79
   0  -4   2 2693.92   11.19
   0  -4   2 2587.67   17.40
   0   4   2 2394.62   12.78
   0   4  -2 2737.67   11.83
   0  -4   2 2528.37   10.80
   0  -4   2 2757.36   14.28
   0  -4  -2 2663.38   11.14
   0  -4   3  174.54    3.15
   0   4  -3  191.76    3.48
   0   4  -3  182.65    3.12
   0  -4   3  176.61    3.19
   0  -4   3  169.03    4.43
   0  -4  -3  179.97    4.93
   0   4   3  169.87    3.63
   0  -4  -3  180.00    3.17
   0   4  -4 1041.28    8.42
   0  -4   4  920.94    7.73
   0  -4  -4  922.63    7.62
   0   4   4  963.42    9.13
   0  -4   4  901.77   10.04
   0  -4  -4 1016.24   10.85
   0  -4   4  899.42    7.07
   0  -4  -4  867.11    8.86
   0   4  -4 1001.22    8.11
   0  -4   5   10.81    1.53
   0   4  -5   13.61    1.34
   0  -4  -5   11.79    1.35
   0  -4   5   11.12    1.11
   0   4  -5   14.29    1.24
   0  -4   5   10.28    1.18
   0  -4  -5   12.02    1.64
   0  -4  -5   13.18    1.29
   0  -4  -6 1193.01   10.03
   0   4  -6 1263.19    9.79
   0  -4   6 1245.13   10.70
   0   4   6 1248.58   10.42
   0  -4   6 1156.97   11.30
   0  -4   6 1174.27    9.46
   0  -4   7  519.95    6.84
   0   4  -7  481.42    6.07
   0  -4   7  543.32    5.93
   0  -4   7  509.61    7.19
   0  -4  -7  504.04    6.94
   0  -4   7  542.76    5.81
   0  -4   7  492.21    7.56
   0  -4   8   49.89    2.57
   0  -4  -8   50.41    2.59
   0  -4   8   55.13    2.61
   0  -4   8   50.65    2.60
   0   4   8   61.81    2.96
   0   4  -9   35.82    2.02
   0   4   9   43.28    2.82
   0  -4   9   41.12    2.59
   0  -4   9   38.00    2.41
   0  -4   9   43.98    2.73
   0  -4  -9   34.95    2.28
   0  -4  10  311.45    6.49
   0  -4  10  318.26    6.54
   0  -4  11    3.06    1.77
   0   4  11    4.50    2.07
   0  -4  11    0.43    1.69
   0  -4  12   38.75    3.05
   0  -4  12   38.78    3.20
   0   4  12   41.47    3.37
   0   4  13    0.99    2.51
   0  -4  13   -1.97    2.23
   0  -4  13   -2.29    2.19
   0  -4  14  297.09    8.33
   0   4  14  310.02    8.71
   0   4  15    0.57    2.96
   0  -4  15    3.42    2.76
   0  -4  15    1.38    2.32
   0  -4  16   50.58    4.51
   0   4  16   43.00    4.46
   0  -4  16   55.88    4.19
   0  -4  17   18.20    3.22
   0  -4  17    8.06    3.27
   0   4  17   13.84    3.77
   0  -4  18   17.53    4.03
   0   4  18   21.37    4.31
   0   4  19    2.58    3.71
   0  -4  19   -0.40    3.58
   0  -4  20   29.61    4.72
   0   4  20   13.57    4.44
   0  -4  21    2.88    3.98
   0   4  21    1.99    4.27
   0  -6   0 1842.89   17.80
   0  -6   0 1656.06   10.24
   0  -6   1  209.14    6.33
   0  -6  -1  216.96    6.40
   0  -6  -2  271.39    7.35
   0  -6   2  267.60    7.15
   0  -6  -3   29.97    3.22
   0  -6  -3   26.17    1.13
   0  -6   3   27.40    2.78
   0  -6  -4  350.38    8.43
   0  -6   4  304.30    7.45
   0  -6  -5  112.78    5.15
   0  -6   5   94.02    4.23
   0  -6  -6  324.61    8.18
   0  -6   6  282.51    7.27
   0  -6  -7   23.30    3.19
   0  -6   7   17.37    2.78
   0  -6  -8  231.10    7.26
   0  -6   8  201.08    6.39
   0  -6   9   56.61    3.73
   0  -6  -9   66.64    4.46
   0  -6  10   42.62    3.58
   0  -6  11    8.08    2.74
   0  -6  12  148.79    5.90
   0  -6  13    2.85    2.64
   0  -6  14   15.05    3.17
   0  -6  15    1.04    2.89
   0  -6  16   14.41    3.17
   0  -6  17   -3.20    3.42
   0  -6  18    5.06    4.15
   0  -8   0  142.42    6.70
   0  -8   1   -1.43    2.89
   0  -8  -1    3.37    3.28
   0  -8   2   34.43    4.05
   0  -8  -2   26.14    3.97
   0  -8   3    3.61    3.02
   0  -8  -3    1.45    3.02
   0  -8  -4   82.70    5.31
   0  -8   4   81.19    4.96
   0  -8   5   31.88    3.71
   0  -8  -5   31.35    4.11
   0  -8   6   19.14    3.56
   0  -8  -6   14.16    3.58
   0  -8   7   14.58    3.50
   0  -8  -7   19.23    3.80
   0  -8  -8  161.19    7.26
   0  -8   8  135.40    6.46
   0  -8   9    0.99    2.85
   0  -8  10  100.82    5.70
   0  -8  11    1.83    3.21
   0  -8  12   16.90    3.16
   0  -8  13   -0.59    3.07
   0  -8  14   12.98    3.76
   0  -8  15    2.57    3.49
   0  -8  16   54.68    5.30
   0 -10   0   40.16    4.81
   0 -10   1    5.80    3.62
   0 -10  -1    5.65    3.54
   0 -10  -2   92.24    6.20
   0 -10   2   89.43    5.83
   0 -10  -3    1.51    3.55
   0 -10   3   -3.63    3.48
   0 -10   4   64.29    5.25
   0 -10  -4   56.34    5.55
   0 -10  -5    1.68    3.76
   0 -10   5    5.30    3.76
   0 -10  -6   31.71    4.62
   0 -10   6   38.46    4.62
   0 -10   7    1.71    3.44
   0 -10   8   13.71    3.71
   0 -10   9    2.00    3.45
   0 -10  10    6.58    3.61
   0 -10  11   18.29    3.98
  -1   1  22   -2.36    4.65
  -1  -1  22    3.73    4.39
  -1   1  21   11.94    4.43
  -1  -1  21   11.78    4.21
  -1   1  20    1.49    3.67
  -1  -1  20    2.19    3.77
  -1  -1  19   83.45    6.11
  -1   1  19   92.81    6.19
  -1  -1  18   13.19    3.78
  -1   1  18   15.99    3.97
  -1  -1  17   62.83    4.97
  -1   1  17   72.90    5.27
  -1   1  16    0.49    2.88
  -1  -1  16    4.52    3.02
  -1  -1  15  109.07    5.51
  -1   1  15  107.40    5.50
  -1  -1  14   91.28    4.76
  -1   1  14   86.14    4.78
  -1  -1  14   83.48    3.37
  -1  -1  13  230.98    6.74
  -1   1  13  238.10    6.84
  -1  -1  13  221.53    4.91
  -1  -1  12   51.31    2.39
  -1  -1  12   61.01    3.60
  -1   1  12   62.98    3.73
   1   1 -11 1257.85    7.65
  -1   1  11 1321.11   13.97
  -1  -1  11 1310.52   13.45
  -1  -1  11 1246.10   10.01
  -1  -1  10    6.43    1.09
  -1   1  10    7.77    1.57
   1  -1 -10    5.25    1.50
  -1   1  10    4.42    1.62
   1   1 -10    6.39    0.73
  -1  -1  10    5.63    1.56
   1  -1  -9  303.79    6.04
  -1  -1   9  267.84    4.06
  -1  -1   9  276.66    5.62
  -1  -1   9  271.96    5.60
   1   1  -9  299.39    3.41
  -1   1   9  299.57    6.08
  -1   1   9  272.99    5.81
   1   1  -9  286.08    3.26
   1   1  -9  306.94    3.53
   1   1  -8    2.85    0.59
   1   1  -8    2.74    0.52
  -1  -1   8    0.73    0.99
   1   1  -8    2.50    0.52
   1  -1  -8    1.01    1.02
  -1  -1   8    1.89    1.10
  -1   1   8    3.43    1.23
  -1   1   8    3.14    1.22
  -1  -1   8    2.10    0.78
   1   1  -7 1791.84   12.02
  -1  -1   7 1738.76   12.37
   1   1  -7 1746.36    6.83
   1   1  -7 1798.94    7.58
  -1  -1   7 1683.12   11.83
   1  -1  -7 1666.03   12.19
  -1   1   7 1761.63   12.57
   1  -1  -7 1701.63   12.23
   1   1  -7 1693.48    6.72
  -1   1   7 1747.46   12.56
   1  -1  -6    3.25    0.91
   1   1  -6    3.93    0.48
   1  -1  -6    3.78    0.87
   1   1  -6    3.45    0.49
  -1  -1   6    2.32    0.83
  -1   1   6    4.07    1.00
   1   1  -6    4.23    0.47
   1   1  -6    2.55    0.80
  -1  -1   5  443.42    5.13
   1  -1  -5  476.57    5.73
   1   1  -5  458.81    3.15
   1   1  -5  469.32    3.46
   1   1  -5  487.30    5.29
   1   1  -5  476.87    3.26
   1  -1  -5  478.61    5.54
  -1   1   5  465.17    5.42
   1   1  -4 7296.94   12.07
  -1  -1   4 7321.81    9.79
  -1   1   4 7238.10   19.82
  -1  -1   4 7247.43   19.01
   1   1  -4 7293.14   18.32
  -1  -1   4 7365.81    9.31
   1   1  -4 7316.53   13.49
   1  -1  -4 7415.40   20.39
   1   1  -3 3625.22   11.07
   1   1  -3 3558.80    9.19
  -1  -1   3 3671.82    7.43
  -1  -1   3 3626.12    8.16
   1   1  -3 3593.86    8.08
  -1  -1   3 3453.18   11.26
   1  -1  -3 3514.97   12.64
  -1   1   3 3545.59   12.41
   1  -1  -3 3626.28   12.38
  -1  -1   2  200.61    2.21
   1  -1  -2  185.69    2.48
  -1  -1   2  224.09    1.96
  -1  -1   2  190.60    2.16
   1   1  -2  206.43    1.84
   1   1  -2  197.95    2.09
  -1   1   2  184.14    2.53
   1   1  -2  204.59    2.27
  -1  -1   1 2203.19    7.37
   1   1  -1 2322.28    4.69
   1  -1  -1 2223.41    7.39
  -1   1   1 2238.06    7.68
  -1  -1   1 2352.34    5.10
  -1  -1   1 2362.64    5.65
   1   1  -1 2335.23    5.38
   1  -1   0  296.47    2.45
  -1   1   0  300.82    2.51
   1  -1   0  316.60    2.04
   1  -1   0  305.65    1.91
  -1   1  -1 4661.83   10.53
   1  -1   1 4829.23    7.97
  -1  -1  -1 4688.99    8.14
   1  -1   1 4788.21    8.80
  -1   1  -1 4847.66    8.95
   1   1   1 4805.89    7.74
   1  -1   1 4763.89   10.41
  -1   1  -1 4809.01    7.85
  -1   1  -2  101.52    1.22
   1  -1   2  103.95    1.81
  -1  -1  -2   99.77    1.65
  -1   1  -2  108.71    1.49
  -1   1  -2   99.69    1.74
  -1  -1  -3  206.18    2.95
  -1   1  -3  201.32    2.82
  -1   1  -3  218.85    2.24
   1  -1   3  218.57    1.83
  -1   1  -3  213.50    1.96
   1  -1   3  203.63    2.88
   1   1   3  218.48    2.89
   1   1   4  126.72    2.56
   1  -1   4  112.74    2.43
  -1   1  -4  133.75    1.70
  -1  -1  -4  111.54    2.41
  -1   1  -4  116.31    2.45
  -1   1  -4  122.39    1.73
  -1   1  -5 1998.58   10.89
   1  -1   5 1999.14   11.12
   1   1   5 2001.77   10.81
  -1   1  -5 2015.40    7.17
  -1   1  -5 2021.53    6.48
   1  -1   6  401.58    5.26
  -1   1  -6  442.43    3.29
   1  -1   6  425.57    5.65
  -1  -1  -6  423.16    5.83
  -1   1  -6  406.33    5.38
   1  -1   6  414.53    4.47
  -1   1  -6  427.40    3.47
   1   1   6  413.41    5.37
   1  -1   7  998.80    9.24
   1   1   7 1064.17   10.00
  -1   1  -7  966.81    5.02
   1  -1   7  949.37    7.11
  -1   1  -7  981.12    9.04
  -1  -1  -7  960.04    9.26
   1   1   7 1015.87    9.49
  -1   1  -7 1032.41    5.76
   1  -1   7  967.77    9.04
   1   1   8   86.54    3.01
   1  -1   8   88.84    2.43
   1  -1   8   80.63    2.97
  -1   1  -8   93.59    1.83
  -1   1  -8   91.88    1.91
   1   1   8   90.31    3.21
   1  -1   8   77.82    2.83
  -1   1  -9  910.34    5.77
   1  -1   9  878.79    9.85
   1  -1   9  836.25    7.91
   1   1   9  982.36   10.85
   1  -1   9  945.40   10.71
   1   1   9  907.70   10.23
  -1   1 -10  751.81    5.50
   1  -1  10  729.35    9.44
   1  -1  10  756.65   10.03
   1   1  10  737.65    9.80
   1  -1  10  730.49    7.57
   1  -1  11  122.66    4.46
  -1   1 -11  123.08    2.45
   1   1  11  129.43    4.60
   1  -1  11  122.80    3.38
   1   1  12   18.17    2.56
   1  -1  12   14.36    2.34
   1  -1  12   14.72    1.77
   1   1  13  405.68    8.84
   1  -1  13  394.19    8.59
   1  -1  14   11.04    2.74
   1   1  14    7.96    2.67
   1   1  15   94.21    5.31
   1  -1  15   84.78    4.93
   1   1  16    1.88    2.81
   1  -1  16    7.69    2.99
   1   1  17  151.48    7.01
   1  -1  17  157.37    6.95
   1   1  18   12.51    3.69
   1  -1  18    1.44    3.33
   1  -1  19   40.77    4.98
   1   1  19   50.80    5.23
   1   1  20    2.76    3.91
   1  -1  20    6.68    4.17
   1   1  21    7.47    4.17
   1  -1  21   15.89    4.61
   1   1  22    2.58    4.53
   1  -1  22   -2.95    4.31
  -1  -3  21   34.79    5.22
  -1   3  21   56.57    5.88
  -1  -3  20   -1.71    3.91
  -1   3  20    4.82    4.27
  -1  -3  19   13.27    4.10
  -1   3  19    6.12    3.94
  -1   3  18    2.88    3.62
  -1  -3  18    4.72    3.46
  -1  -3  17   95.15    5.82
  -1   3  17   87.19    5.92
  -1   3  16    4.26    3.22
  -1  -3  16    4.99    2.40
  -1  -3  16    6.75    3.17
  -1  -3  15  195.51    7.13
  -1  -3  15  201.18    6.04
  -1   3  15  201.23    7.38
  -1  -3  14    1.21    1.84
  -1   3  14   -0.56    2.54
  -1  -3  14    4.85    2.43
  -1  -3  13  113.56    4.10
  -1   3  13  110.74    5.11
  -1  -3  13  113.74    4.90
  -1  -3  12   31.96    2.90
  -1   3  12   29.12    3.00
  -1  -3  12   26.34    2.30
  -1  -3  11   21.34    2.35
  -1  -3  11   20.03    2.03
  -1   3  11   17.15    2.37
  -1  -3  10   20.81    1.77
   1  -3 -10   21.29    2.07
  -1  -3  10   22.29    2.19
  -1   3  10   25.91    2.45
  -1  -3  10   22.30    2.18
  -1   3   9  998.93   11.29
  -1  -3   9 1004.78   10.92
  -1  -3   9  941.69    9.39
   1  -3  -9  955.71   10.56
   1   3  -9  941.71    8.41
  -1  -3   9  954.93   10.24
   1   3  -8    4.83    1.01
  -1  -3   8    5.03    1.23
  -1  -3   8    8.33    1.40
  -1  -3   8    3.40    1.21
  -1   3   8    8.57    1.61
   1  -3  -8    4.34    1.22
   1  -3  -7  103.75    3.31
   1   3  -7  118.39    3.04
  -1  -3   7  111.81    3.33
  -1   3   7  112.55    3.72
  -1  -3   7  110.33    2.25
  -1  -3   7  107.02    3.26
  -1  -3   7   95.77    2.94
   1   3  -6  225.93    4.02
  -1  -3   6  212.70    3.14
  -1  -3   6  224.47    4.26
  -1  -3   6  219.81    3.20
   1  -3  -6  211.65    4.29
  -1  -3   6  212.00    4.33
  -1   3   6  235.67    4.80
   1  -3  -5 1808.35   11.68
   1   3  -5 1967.77   10.85
  -1  -3   5 1753.92   11.87
   1   3  -5 1971.17   11.01
   1  -3  -5 1786.62   13.15
  -1   3   5 1873.69   13.31
  -1  -3   5 1909.09    9.32
  -1  -3   5 2035.47   12.06
  -1  -3   4  117.05    2.46
   1   3  -4  109.56    2.33
  -1   3   4   97.63    2.89
  -1  -3   4   99.79    3.06
   1  -3  -4   99.99    2.74
   1  -3  -4   86.58    2.66
  -1  -3   4  105.57    2.53
   1   3  -4  110.30    2.57
  -1  -3   4  111.55    2.72
   1  -3  -3  969.38    7.47
  -1  -3   3  981.34    6.37
   1   3  -3 1005.56    6.34
  -1  -3   3  947.47    9.34
   1   3  -3 1046.56    7.36
   1   3  -3 1040.47    6.06
  -1  -3   3  960.81    6.20
  -1  -3   3  953.14    7.48
  -1   3   3  905.01    7.94
   1   3  -2  353.41    3.58
   1  -3  -2  329.03    4.01
  -1  -3   2  334.49    3.26
  -1  -3   2  316.28    3.40
   1   3  -2  322.24    3.25
  -1   3   2  292.13    4.29
   1   3  -2  357.84    3.10
  -1  -3   2  342.80    4.54
   1   3  -1 2441.52    8.49
   1  -3  -1 2476.95    6.57
  -1   3   1 2510.02   11.81
   1  -3  -1 2442.65    8.40
   1  -3  -1 2497.40   10.18
  -1  -3   1 2539.01    7.81
  -1  -3   1 2526.27    8.87
   1  -3   0   34.75    1.06
   1  -3   0   33.34    1.24
   1   3   0   30.61    1.06
  -1   3   0   33.01    1.43
   1  -3   0   35.10    1.38
  -1  -3   0   40.26    0.98
  -1  -3   0   35.58    0.96
   1  -3   1  529.73    4.39
   1  -3   1  538.88    5.26
  -1   3  -1  506.13    3.26
  -1  -3  -1  549.04    3.62
  -1   3  -1  520.35    4.98
   1  -3   1  487.60    4.49
   1   3   1  484.53    4.10
   1  -3   2  340.82    5.12
  -1  -3  -2  314.76    3.76
   1  -3   2  338.91    3.72
  -1  -3  -2  363.56    3.41
   1  -3   2  340.24    4.06
   1   3   2  318.18    3.80
  -1   3  -2  340.03    3.41
   1  -3   2  368.28    4.47
  -1   3  -2  362.02    3.89
  -1   3  -2  350.16    4.27
   1  -3   3 9871.79   20.75
  -1   3  -3 9825.44   22.84
  -1  -3  -3 9952.73   20.35
   1  -3   3 9961.33   23.11
  -1   3  -3 9811.00   19.62
   1  -3   3 9953.41   21.54
   1  -3   3 9999.00   26.79
  -1   3  -4  288.36    4.28
  -1  -3  -4  318.99    4.14
   1  -3   4  279.89    4.22
  -1  -3  -4  276.33    4.30
   1  -3   4  292.59    4.83
   1  -3   4  288.65    3.67
  -1   3  -4  319.43    4.06
  -1   3  -5  714.21    6.07
  -1  -3  -5  704.66    6.73
   1  -3   5  666.40    6.59
  -1   3  -5  754.94    7.63
   1  -3   5  726.69    5.83
  -1  -3  -5  668.96    7.34
   1  -3   5  709.95    7.28
   1  -3   5  703.98    7.54
   1  -3   6   21.84    1.50
   1  -3   6   26.44    1.28
  -1   3  -6   23.57    1.30
  -1  -3  -6   22.92    1.65
  -1  -3  -6   23.01    1.54
   1   3   6   24.82    1.65
   1  -3   6   25.87    1.69
   1  -3   6   23.69    1.56
  -1   3  -7  533.64    5.59
   1  -3   7  527.04    6.88
   1  -3   7  558.66    7.50
   1   3   7  574.41    7.45
   1  -3   7  539.25    4.52
  -1  -3  -7  563.55    7.12
   1  -3   7  528.39    6.74
   1  -3   8   60.57    2.63
   1  -3   8   73.26    3.19
  -1  -3  -8   62.71    2.83
   1  -3   8   54.64    2.37
   1  -3   8   57.89    1.26
  -1   3  -8   60.50    2.06
   1   3   8   68.02    2.96
  -1   3  -9  250.43    4.19
   1  -3   9  281.55    6.03
  -1  -3  -9  301.93    6.09
   1   3   9  295.05    6.16
   1  -3   9  287.87    5.84
   1  -3   9  252.56    5.09
   1  -3  10   18.59    1.84
   1   3  10   20.14    2.26
   1  -3  10   18.29    2.06
  -1  -3 -10   15.95    2.02
   1  -3  11  543.22    9.02
   1  -3  11  525.72    8.10
   1   3  12   35.75    3.10
   1  -3  12   31.20    2.90
   1  -3  13   20.72    2.50
   1  -3  13   25.01    3.09
   1   3  13   24.22    3.05
   1   3  14    1.00    2.44
   1  -3  14    1.75    2.53
   1  -3  14    6.15    2.41
   1  -3  15  171.93    5.74
   1  -3  15  166.99    6.68
   1   3  15  172.48    6.77
   1  -3  16    0.17    2.32
   1  -3  16    4.51    3.14
   1   3  16    0.34    2.85
   1  -3  17   10.50    3.58
   1   3  17    7.11    3.30
   1  -3  17    7.78    2.68
   1   3  18    0.38    3.25
   1  -3  18    1.24    3.39
   1  -3  19   10.17    3.98
   1   3  19   10.90    4.07
   1   3  20    3.17    4.13
   1  -3  20    2.05    3.83
   1   3  21   27.19    5.32
   1  -3  21   16.57    4.58
   1  -5 -18   -0.97    3.72
  -1  -5  17   36.35    4.04
  -1   5  17   37.35    4.62
   1  -5 -17   29.27    4.61
  -1  -5  16   11.26    3.35
  -1  -5  16   14.80    3.05
  -1   5  16    9.49    3.58
   1  -5 -16    7.02    3.57
  -1  -5  15   70.47    4.55
  -1  -5  15   75.64    4.99
  -1   5  15   65.77    4.89
   1  -5 -15   64.95    5.00
   1  -5 -14    0.42    2.80
  -1  -5  14   10.19    3.01
  -1   5  14    8.75    2.97
  -1  -5  14    7.46    2.50
  -1  -5  13  282.70    7.51
   1  -5 -13  290.02    8.32
  -1   5  13  283.06    7.87
  -1  -5  13  308.17    7.91
   1  -5 -12   30.24    3.39
  -1   5  12   35.53    3.39
  -1  -5  12   36.93    3.26
  -1  -5  12   40.95    3.27
   1  -5 -11  230.35    6.59
  -1  -5  11  230.36    6.45
  -1   5  11  229.87    6.38
   1  -5 -10    5.56    2.08
  -1  -5  10    2.90    1.93
  -1   5  10    1.67    1.89
   1  -5  -9  365.21    7.83
  -1   5   9  354.57    7.01
  -1  -5   9  337.25    7.26
   1  -5  -9  335.12    6.86
   1  -5  -8    7.54    1.69
  -1  -5   8    6.03    1.92
  -1  -5   7  646.73    9.88
  -1  -5   7  756.31    7.90
   1  -5  -7  689.80    8.63
  -1   5   7  728.40    9.14
   1  -5  -7  686.68    8.37
   1  -5  -7  775.99   11.27
   1  -5  -6   45.30    2.38
   1  -5  -6   43.60    2.26
   1  -5  -6   47.50    3.36
  -1  -5   6   44.45    2.85
  -1  -5   6   43.00    2.20
  -1  -5   5 1053.58    8.79
   1  -5  -5 1065.87   12.92
   1  -5  -5 1023.64    9.26
  -1  -5   5 1034.86    8.79
  -1  -5   4  905.47    7.71
   1  -5  -4  842.40    7.92
   1  -5  -4  811.19    9.33
  -1  -5   4  821.19   10.71
  -1   5   4  905.30   10.14
  -1  -5   4  881.08    7.86
   1  -5  -4  915.61   12.14
  -1  -5   3   96.79    2.59
  -1  -5   3  104.74    2.47
   1  -5  -3   86.90    1.41
  -1   5   3   98.61    3.30
   1  -5  -3   94.91    2.63
   1  -5  -3  100.47    4.25
  -1  -5   3  110.61    4.30
  -1  -5   2  234.83    5.91
   1  -5  -2  226.51    6.08
  -1  -5   2  217.61    3.19
  -1  -5   2  221.74    3.75
   1  -5  -2  233.38    3.90
  -1   5   2  194.66    4.27
   1  -5  -2  202.82    2.64
   1  -5  -1  332.97    4.47
   1  -5  -1  326.41    6.92
  -1  -5   1  355.01    3.92
  -1  -5   1  310.05    4.08
  -1   5   1  340.23    5.56
  -1  -5   1  336.70    7.00
   1  -5  -1  331.47    3.87
  -1  -5   0    4.49    0.76
  -1   5   0    6.40    1.17
  -1  -5   0    7.13    1.19
  -1  -5   0    3.61    1.69
  -1  -5   0    4.09    0.67
   1  -5   0    3.96    0.84
   1  -5   0    4.39    0.83
   1  -5   0    4.07    1.14
   1  -5   1  201.76    3.40
  -1  -5  -1  209.42    2.88
   1  -5   1  211.07    3.71
   1  -5   1  219.86    5.89
  -1   5  -1  215.39    4.25
  -1  -5  -1  202.70    5.80
  -1  -5  -1  207.99    2.86
  -1   5  -2   75.10    2.65
   1  -5   2   73.04    2.17
  -1  -5  -2   66.75    1.75
   1  -5   2   60.78    3.29
   1  -5   2   75.18    2.30
  -1  -5  -2   67.45    3.59
  -1  -5  -2   63.46    1.32
   1  -5   3  248.60    4.32
  -1  -5  -3  245.03    6.48
   1  -5   3  250.95    4.27
   1  -5   3  231.94    5.80
  -1  -5  -4   77.16    3.88
   1  -5   4   72.84    2.45
   1  -5   4   72.43    3.33
   1  -5   4   64.23    2.14
   1  -5   4   69.00    2.47
   1  -5   5   79.48    3.56
  -1  -5  -5   82.00    3.83
   1  -5   5   83.83    2.62
   1  -5   5   92.40    2.77
   1  -5   6   17.94    2.20
   1  -5   6   18.59    1.70
   1  -5   6   20.34    1.69
  -1  -5  -6   22.21    2.39
   1  -5   6   19.46    1.61
   1  -5   7  238.79    6.04
   1  -5   7  251.69    5.41
   1  -5   7  251.93    5.15
  -1  -5  -7  263.87    6.32
   1  -5   8  100.70    3.55
   1  -5   8   91.07    3.78
  -1  -5  -8   87.76    3.81
   1  -5   9   96.36    4.14
   1  -5   9  104.46    3.92
   1  -5  10  177.65    5.18
   1  -5  10  204.66    5.97
   1  -5  11  262.84    6.74
   1  -5  11  233.83    6.48
   1  -5  12    1.01    2.27
   1  -5  12   -0.65    2.12
   1  -5  13  230.67    7.26
   1  -5  13  199.42    6.58
   1  -5  14   12.89    3.08
   1  -5  14    5.63    2.80
   1  -5  15   76.80    5.05
   1  -5  15   73.79    4.69
   1  -5  16   -2.60    2.89
   1  -5  16   -1.02    3.02
   1  -5  17   28.23    4.16
   1  -5  17    6.28    3.18
   1  -5  18   11.78    3.56
   1  -5  18    1.65    3.50
   1  -5  19   32.28    4.51
   1  -5  19   36.95    4.60
   1  -5  20    0.75    3.70
  -1  -7  18    2.38    3.80
  -1  -7  17   44.04    4.79
  -1  -7  16    4.81    3.52
  -1  -7  15   16.91    3.66
  -1  -7  14    7.59    3.09
  -1  -7  13   16.81    3.30
  -1  -7  12    5.20    3.03
  -1  -7  11  144.59    6.22
  -1  -7  10    8.66    2.86
  -1  -7   9    6.63    2.87
   1  -7  -8    0.93    2.81
  -1  -7   8   -2.41    2.72
  -1  -7   7  115.17    5.49
   1  -7  -7  102.69    5.60
   1  -7  -6   29.85    3.76
  -1  -7   6   19.89    3.07
   1  -7  -5   45.52    4.01
  -1  -7   5   46.20    3.85
  -1  -7   4   45.55    3.87
   1  -7  -4   53.14    4.29
  -1  -7   3  457.02    9.91
   1  -7  -3  505.24   10.48
   1  -7  -2    4.46    2.69
  -1  -7   2    4.59    2.91
  -1  -7   1  391.22    9.26
   1  -7  -1  408.72    9.73
   1  -7   0    8.85    2.87
  -1  -7   0   13.25    2.93
  -1  -7  -1  803.26   12.82
   1  -7   1  793.39   13.11
  -1  -7  -2   68.21    4.52
   1  -7   2   57.19    4.15
   1  -7   3   25.78    3.30
  -1  -7  -3   37.41    3.81
  -1  -7  -4   47.66    4.04
   1  -7   4   36.92    3.53
   1  -7   5  394.71    9.16
  -1  -7  -5  444.47   10.35
  -1  -7  -6   18.96    3.36
   1  -7   6   22.57    3.21
  -1  -7  -7  208.40    7.48
   1  -7   7  192.84    6.88
  -1  -7  -8   -0.36    2.75
   1  -7   8   -1.92    2.61
  -1  -7  -9  149.60    6.77
   1  -7   9  125.35    5.55
   1  -7  10   14.36    3.26
  -1  -7 -10    4.22    3.33
   1  -7  11    2.41    2.98
   1  -7  12    0.01    2.66
   1  -7  13   29.76    3.86
   1  -7  14    1.59    2.96
   1  -7  15    7.39    3.50
   1  -7  16   20.02    3.96
   1  -7  17   23.60    4.43
  -1  -9  14    2.23    3.54
  -1  -9  13   14.80    3.81
  -1  -9  12   13.76    3.92
  -1  -9  11   14.97    3.80
  -1  -9  10    8.78    3.60
  -1  -9   9   66.37    5.21
  -1  -9   8   -3.51    3.41
  -1  -9   7   41.06    4.52
  -1  -9   6   14.19    3.56
   1  -9  -6   23.98    4.37
   1  -9  -5   37.68    4.78
  -1  -9   5   34.40    4.19
  -1  -9   4   -4.40    3.19
   1  -9  -4   -1.02    3.54
   1  -9  -3  151.11    7.49
  -1  -9   3  142.07    6.88
   1  -9  -2   25.19    4.24
  -1  -9   2   31.01    4.28
  -1  -9   1   75.44    5.66
   1  -9  -1   93.42    5.91
   1  -9   0    8.44    3.52
  -1  -9   0    9.13    3.60
  -1  -9  -1   46.98    4.80
   1  -9   1   40.05    4.58
   1  -9   2   15.50    3.88
  -1  -9  -2   18.72    3.85
  -1  -9  -3  112.78    6.27
   1  -9   3   91.05    5.63
   1  -9   4    6.84    3.35
  -1  -9  -4   12.39    3.60
   1  -9   5   57.42    4.95
  -1  -9  -5   55.40    4.90
   1  -9   6    9.37    3.27
  -1  -9  -6    3.98    3.33
  -1  -9  -7   25.30    4.16
   1  -9   7   33.75    4.40
   1  -9   8    8.79    3.54
  -1  -9  -8    6.11    3.50
   1  -9   9   49.08    4.67
   1  -9  10    3.08    3.28
   1  -9  11   -6.50    4.08
   1  -9  12    4.40    3.40
   1  -9  13   13.92    4.02
   1  -9  14   -1.10    3.51
  -1 -11   8    2.51    3.41
  -1 -11   7   17.01    4.34
  -1 -11   6   -5.86    3.84
  -1 -11   5   27.98    4.39
  -1 -11   4    1.23    3.56
   1 -11  -3    9.78    4.02
  -1 -11   3    3.98    3.47
   1 -11  -2    8.68    3.86
  -1 -11   2    1.39    3.48
   1 -11  -1    2.38    3.52
  -1 -11   1   15.61    4.14
   1 -11   0    2.69    3.51
  -1 -11   0    2.07    3.59
   1 -11   1    8.69    3.92
  -1 -11  -1   11.98    4.00
   1 -11   2   -0.32    3.61
  -1 -11  -2    3.71    3.63
   1 -11   3   23.15    4.42
  -1 -11  -3   12.80    3.89
   1 -11   4    1.48    3.62
  -1 -11  -4    3.25    3.83
   1 -11   5    8.31    3.76
  -1 -11  -5    6.00    3.84
   1 -11   6   -2.67    3.51
   1 -11   7    9.66    3.74
  -2   0  22   34.57    5.73
  -2   0  21   -0.66    4.20
  -2   0  20   27.80    4.59
  -2   0  19   -0.46    3.53
  -2   0  18  198.97    7.99
  -2   0  17    3.27    3.10
  -2   0  16   16.14    3.42
  -2   0  15    2.93    2.71
  -2   0  14  264.95    7.55
  -2   0  13    1.58    2.16
   2   0 -13   -0.38    0.77
  -2   0  12  470.50    8.88
   2   0 -12  490.43    4.39
  -2   0  11    0.58    1.63
   2   0 -11    0.61    0.47
  -2   0  10  533.52    8.62
  -2   0  10  519.36    5.64
   2   0 -10  536.81    8.45
  -2   0  10  502.04    8.23
   2   0 -10  519.14    3.49
  -2   0   9    0.59    1.28
  -2   0   9    0.50    0.73
   2   0  -9    0.21    0.31
   2   0  -9    0.14    0.34
   2   0  -9    0.94    1.04
  -2   0   8  651.62    8.41
   2   0  -8  635.91    2.86
   2   0  -8  616.68    2.68
   2   0  -8  654.52    8.28
   2   0  -7    0.30    0.20
   2   0  -7    0.45    0.81
  -2   0   7    0.57    0.98
   2   0  -7   -0.03    0.18
   2   0  -7    0.84    0.92
  -2   0   7    0.84    1.02
  -2   0   6 2899.83   15.02
   2   0  -6 2907.01   14.20
   2   0  -6 2887.69   14.65
   2   0  -5    0.66    0.77
  -2   0   5    0.74    0.75
   2   0  -5    2.61    0.73
  -2   0   4  272.96    3.83
   2   0  -4  279.97    3.87
   2   0  -4  260.15    3.53
   2   0  -3    0.45    0.30
  -2   0   3    0.75    0.53
   2   0  -3    0.38    0.54
   2   0  -3    2.38    0.23
   2   0  -3    0.97    0.65
   2   0  -2 5256.58   10.32
   2   0  -2 5323.00   12.51
  -2   0   2 5350.03   12.28
  -2   0   1    2.31    0.43
   2   0  -1    1.65    0.23
  -2   0   1    3.47    0.43
  -2   0   1    1.83    0.22
   2   0  -1    2.73    0.49
   2   0  -1    2.78    0.48
  -2   0   0 1325.88    4.27
   2   0   0 1325.34    4.92
  -2   0   0 1324.30    3.42
   2   0   0 1302.53    3.39
  -2   0  -1    0.48    0.26
  -2   0  -1    0.40    0.21
  -2   0  -1    0.99    0.35
  -2   0  -2 4766.36   12.05
   2   0   2 4834.84   12.03
  -2   0  -3    0.67    0.50
   2   0   3    2.08    0.60
   2   0   4  336.98    4.11
  -2   0  -4  343.79    4.21
   2   0   5   -0.27    0.67
  -2   0  -5    1.73    0.72
  -2   0  -6 9117.75   25.84
   2   0   6 9181.03   25.76
   2   0   6 9162.36   20.58
   2   0   6 9183.21   25.69
   2   0   7    0.08    0.96
   2   0   7   -0.16    0.64
   2   0   7    0.38    0.92
  -2   0  -8  600.65    2.54
   2   0   8  634.21    6.24
  -2   0  -8  612.49    2.46
   2   0   9    0.46    1.07
   2   0   9   -0.08    1.23
  -2   0  -9    0.06    0.34
   2   0  10  268.30    5.96
  -2   0 -10  286.85    2.67
   2   0  11   -0.30    1.67
  -2   0 -11   -0.26    0.53
  -2   0 -12  127.17    2.24
   2   0  12  138.04    5.11
   2   0  13    3.82    2.23
   2   0  14  365.15    8.88
   2   0  15    1.19    2.66
   2   0  16   12.15    3.12
   2   0  17   -0.20    3.08
   2   0  18   62.68    5.20
   2   0  19   -2.22    3.53
   2   0  20   16.00    4.41
   2   0  21    5.05    4.27
  -2   2  22   16.47    4.91
  -2  -2  22   14.19    4.74
  -2   2  21   -2.28    4.29
  -2  -2  21   -2.31    4.06
  -2  -2  20   27.91    4.76
  -2   2  20   34.93    5.17
  -2   2  19    3.12    3.90
  -2  -2  19    3.37    3.67
  -2   2  18   26.81    4.47
  -2  -2  18   16.42    3.93
  -2   2  17    0.73    3.13
  -2  -2  17   -4.20    3.45
  -2  -2  16  139.65    6.37
  -2   2  16  122.84    6.25
  -2   2  15  109.16    5.66
  -2  -2  15   94.46    5.18
  -2   2  14  179.80    6.57
  -2  -2  14  172.40    4.73
  -2   2  13   41.23    3.54
  -2  -2  13   38.05    3.40
  -2  -2  13   35.12    2.37
  -2  -2  12  274.44    6.80
  -2   2  12  274.09    7.14
  -2  -2  11  126.81    3.48
  -2   2  11  129.42    4.76
  -2  -2  11  126.66    4.48
  -2  -2  10  760.14    7.70
  -2  -2  10  792.15    9.92
   2   2 -10  783.66    7.18
  -2   2  10  820.04   10.77
   2  -2 -10  820.78   10.54
  -2  -2  10  800.86   10.10
  -2  -2   9  201.76    4.77
   2  -2  -9  222.86    5.38
  -2  -2   9  209.29    3.86
   2   2  -9  212.65    3.65
  -2   2   9  223.97    5.45
   2  -2  -8 2143.15   15.48
  -2  -2   8 1975.21   11.44
  -2  -2   8 2026.32   14.24
  -2   2   8 2106.71   15.37
   2   2  -8 1994.71   10.66
  -2  -2   8 1996.32   13.98
   2  -2  -7   49.08    2.58
  -2   2   7   51.23    2.53
   2   2  -7   49.55    1.53
  -2  -2   7   45.81    2.13
  -2  -2   7   53.75    2.35
   2   2  -7   54.07    1.80
  -2  -2   7   47.39    1.83
  -2  -2   7   49.70    1.02
   2   2  -7   45.68    2.02
   2  -2  -7   44.00    2.22
   2   2  -6 1102.66    8.45
   2   2  -6 1136.90    8.01
  -2   2   6 1135.45   10.36
   2  -2  -6 1094.61    9.76
  -2  -2   6 1204.08    6.09
   2   2  -6 1099.88    6.59
  -2  -2   6 1113.27    9.37
  -2  -2   6 1194.87    6.26
  -2  -2   5    9.76    1.06
   2   2  -5   12.54    1.01
  -2   2   5    8.97    1.14
   2   2  -5    8.93    0.90
  -2  -2   5   11.79    0.79
   2   2  -5    8.76    0.68
   2  -2  -5    7.80    1.12
   2  -2  -5    7.04    1.08
  -2  -2   5    9.14    0.74
  -2  -2   4 2812.72   11.02
  -2  -2   4 2743.15   11.71
   2   2  -4 2865.12   11.83
   2   2  -4 2836.00   10.75
  -2   2   4 2745.74   14.53
   2   2  -4 2841.74    9.37
  -2  -2   4 2784.35    9.31
  -2   2   3  322.85    4.52
   2   2  -3  390.37    4.44
   2   2  -3  357.39    3.26
   2   2  -3  383.71    3.37
  -2  -2   3  358.11    3.37
  -2  -2   3  346.66    3.65
   2  -2  -3  365.72    4.63
  -2  -2   3  351.22    4.22
   2   2  -2 2516.84    7.64
   2   2  -2 2422.60    6.73
   2  -2  -2 2321.83   10.78
   2   2  -2 2420.55    9.41
  -2  -2   2 2399.71   10.42
  -2  -2   2 2456.50    8.24
  -2  -2   2 2435.22    7.68
   2  -2  -1 7953.87   12.38
  -2  -2   1 8617.02   16.75
   2  -2  -1 8913.43   14.25
   2  -2  -1 8533.42   19.25
   2   2  -1 9021.77   11.23
  -2  -2   1 9493.00   15.66
  -2   2   1 8505.49   20.51
  -2   2   0 1047.05    4.41
   2  -2   0 1133.17    5.40
  -2   2   0 1089.73    6.92
  -2  -2   0 1121.43    4.10
   2  -2   0 1175.02    5.72
   2  -2   0 1103.95    6.62
  -2  -2   0 1115.39    4.03
  -2   2   0 1159.49    4.85
  -2   2  -1  357.42    3.12
  -2   2  -1  334.35    3.00
   2  -2   1  323.84    3.69
   2  -2   1  333.10    3.20
  -2  -2  -1  316.91    2.05
   2  -2   1  372.92    3.32
  -2  -2  -1  346.80    2.09
  -2   2  -1  330.00    3.89
  -2  -2  -2  705.77    4.29
   2  -2   2  633.08    4.68
  -2  -2  -2  600.76    4.09
  -2   2  -2  627.76    5.44
   2  -2   2  617.13    5.31
  -2   2  -2  643.53    4.61
   2   2   2  658.67    4.23
  -2   2  -2  761.32    4.95
   2  -2   2  704.97    4.65
   2  -2   3   12.00    0.79
   2  -2   3   10.09    0.94
  -2  -2  -3   10.91    0.83
  -2   2  -3    9.98    0.72
  -2   2  -3   11.02    0.91
   2  -2   3   12.80    0.79
   2   2   3    9.71    0.77
  -2   2  -4 1140.20    6.06
   2  -2   4 1151.56    7.73
  -2   2  -4 1143.21    6.91
   2  -2   4 1128.05    8.26
   2  -2   4 1168.19    6.33
  -2   2  -4 1189.93    8.64
  -2  -2  -4 1089.63    7.57
   2   2   4  985.17    6.92
   2  -2   4 1286.07    6.25
   2  -2   5  184.24    3.51
  -2  -2  -5  190.92    3.59
   2  -2   5  216.10    2.52
   2  -2   5  198.49    3.79
  -2   2  -5  202.90    2.76
  -2   2  -5  200.04    3.77
  -2   2  -5  209.31    3.18
   2  -2   5  222.87    2.45
   2   2   5  206.57    3.58
   2  -2   5  201.41    3.46
   2   2   6   71.22    2.52
   2  -2   6   60.47    2.18
  -2   2  -6   64.42    1.88
   2   2   6   65.60    2.33
  -2   2  -6   58.76    1.53
   2  -2   6   71.80    1.10
   2  -2   6   62.84    2.41
  -2  -2  -6   60.60    2.30
   2  -2   6   65.54    2.12
   2   2   7  194.80    4.33
  -2  -2  -7  172.54    4.11
   2  -2   7  188.00    4.44
   2   2   7  182.52    3.92
   2  -2   7  176.17    3.52
   2  -2   7  177.18    3.95
  -2   2  -7  185.53    3.28
  -2   2  -7  172.81    2.70
   2   2   8  303.47    5.51
  -2   2  -8  280.88    3.59
   2  -2   8  285.94    5.47
   2   2   8  318.54    5.83
   2  -2   8  306.10    5.91
   2  -2   8  289.11    4.89
   2  -2   9  123.91    3.33
   2   2   9  130.12    4.05
   2   2   9  129.73    3.96
   2  -2   9  124.93    4.06
   2  -2   9  123.64    3.99
   2   2  10  427.56    7.66
   2  -2  10  374.74    6.08
   2   2  10  438.81    7.99
   2  -2  10  403.86    7.49
  -2   2 -10  373.70    4.72
  -2  -2 -10  421.18    7.58
   2  -2  11   49.17    3.19
   2  -2  11   54.67    2.81
   2   2  11   49.29    3.20
   2  -2  12  246.70    6.52
   2   2  12  257.85    6.83
   2  -2  12  235.11    5.48
   2  -2  13  199.53    5.34
   2  -2  13  202.01    6.49
   2   2  13  214.01    6.67
   2  -2  14  147.06    6.05
   2   2  14  138.91    5.93
   2  -2  14  142.30    4.97
   2   2  15    2.12    2.63
   2  -2  15    5.53    2.76
   2  -2  15    3.42    2.33
   2  -2  16  165.72    6.99
   2  -2  16  150.00    5.68
   2   2  16  163.85    6.96
   2  -2  17    4.73    3.27
   2   2  17    4.58    3.15
   2  -2  18   46.87    4.94
   2   2  18   42.90    4.79
   2  -2  19    3.08    3.69
   2   2  19    0.22    3.41
   2  -2  20   27.34    4.69
   2   2  20   31.12    4.78
   2   2  21    4.08    4.17
   2  -2  21    2.10    4.18
  -2   4  21    3.24    4.48
  -2  -4  21    3.00    3.85
   2  -4 -21    5.62    4.28
   2  -4 -20   36.84    5.52
  -2   4  20   31.25    5.23
  -2  -4  20   31.39    4.75
   2  -4 -19   -0.65    3.96
  -2  -4  19   -0.40    3.46
  -2   4  19   -0.33    3.74
  -2   4  18   19.93    4.18
  -2  -4  18   29.25    4.30
  -2   4  17   10.95    3.59
  -2  -4  17   12.64    3.58
  -2  -4  16  173.11    7.02
  -2   4  16  160.76    6.97
  -2  -4  16  147.80    5.64
  -2  -4  15   21.10    3.45
  -2   4  15   23.75    3.63
  -2  -4  14   81.84    4.19
  -2   4  14   81.38    4.87
  -2  -4  13    0.58    2.11
  -2   4  13    1.13    2.34
  -2  -4  13    0.36    1.75
  -2   4  12  108.79    4.91
  -2  -4  12  108.92    4.60
  -2  -4  11   81.78    3.63
  -2  -4  11   85.82    3.83
  -2   4  11   91.21    4.29
  -2   4  10   87.40    3.94
  -2  -4  10   87.11    3.57
  -2  -4   9    1.75    1.46
  -2  -4   9    1.37    1.53
   2   4  -9    1.14    1.15
  -2  -4   9    1.62    1.43
  -2   4   9    2.56    1.70
   2  -4  -9    1.40    1.30
   2  -4  -9    3.70    1.68
   2   4  -8 1579.49   11.95
   2  -4  -8 1605.30   13.95
  -2  -4   8 1573.97   13.81
  -2  -4   8 1597.30   12.55
  -2   4   8 1690.75   14.56
   2  -4  -8 1677.10   13.75
   2  -4  -8 1642.37   13.85
  -2  -4   8 1682.63   13.44
   2  -4  -7   28.38    2.13
  -2  -4   7   25.74    1.79
  -2  -4   7   27.79    1.82
  -2   4   7   32.93    2.40
   2  -4  -7   31.33    2.19
   2   4  -7   29.34    1.96
   2  -4  -7   28.61    2.25
  -2  -4   7   28.46    2.17
  -2  -4   7   25.58    1.48
   2   4  -6   76.22    2.43
  -2  -4   6   86.51    2.47
  -2  -4   6   71.97    3.17
   2  -4  -6   85.71    3.49
   2  -4  -6   79.02    2.99
  -2  -4   6   80.63    2.39
   2  -4  -6   71.43    2.83
  -2   4   6   78.56    3.12
  -2  -4   6   83.74    2.78
   2  -4  -5    9.21    1.63
  -2   4   5    9.24    1.57
   2  -4  -5   10.09    1.35
   2   4  -5   11.53    1.04
   2  -4  -5   13.96    1.47
  -2  -4   5   11.61    1.16
  -2   4   5   10.87    1.45
  -2  -4   5    9.39    1.56
   2  -4  -5   11.76    1.59
   2   4  -5   12.79    1.29
   2  -4  -4  895.33    8.50
  -2  -4   4  945.32    7.21
   2   4  -4  959.58    6.79
  -2  -4   4  895.92   10.49
   2   4  -4  975.17    7.53
   2  -4  -4  906.06   10.51
  -2  -4   4  896.21    7.11
  -2  -4   3   15.94    1.87
   2  -4  -3   13.73    1.26
  -2  -4   3   15.21    0.98
  -2   4   3   16.21    1.59
  -2  -4   3   18.33    1.14
   2  -4  -3   19.62    2.05
   2   4  -3   16.82    0.89
   2   4  -3   16.21    0.91
   2   4  -3   18.40    1.04
   2  -4  -2   96.80    2.25
  -2  -4   2  119.46    2.47
  -2   4   2  108.10    3.20
  -2  -4   2  125.06    2.07
   2   4  -2  116.71    1.99
  -2  -4   2  137.95    3.45
   2  -4  -2  106.91    2.72
   2  -4  -2  108.74    1.78
  -2  -4   2  115.13    3.96
   2  -4  -2   99.67    3.50
  -2  -4   1 1487.14    8.03
  -2   4   1 1573.13   11.39
  -2  -4   1 1600.15    6.01
   2  -4  -1 1523.71    9.58
   2  -4  -1 1509.66    9.61
   2  -4  -1 1488.35    7.44
  -2  -4   1 1532.76   13.75
   2  -4  -1 1418.87   12.46
   2   4  -1 1516.49    6.59
   2  -4   0 2336.65   10.05
  -2  -4   0 2421.83    9.21
  -2   4   0 2415.48   13.52
   2  -4   0 2365.40   11.89
   2  -4   0 2450.65   12.54
  -2  -4   0 2453.27   17.31
   2   4   0 2408.68    7.61
   2  -4   0 2411.28   16.19
  -2  -4   0 2404.07    6.46
  -2  -4  -1    6.76    0.50
   2  -4   1    7.23    1.12
   2  -4   1    6.49    0.91
   2  -4   1    6.99    0.85
  -2  -4  -1    6.63    0.54
  -2  -4  -1   10.13    0.73
  -2   4  -1    6.58    1.07
  -2  -4  -1    4.63    1.54
  -2  -4  -1    6.64    0.66
   2  -4   1    5.87    1.29
  -2  -4  -2  895.04   10.18
   2  -4   2  877.07    9.50
   2  -4   2  827.14    6.56
  -2  -4  -2  907.57    5.04
  -2   4  -2  812.29    5.48
  -2   4  -2  899.72    8.15
   2  -4   2  872.42    7.60
  -2  -4  -2  844.05    5.81
  -2   4  -2  888.03    6.35
   2  -4   3   14.28    1.54
   2  -4   3   17.52    1.24
  -2  -4  -3   17.13    1.76
  -2   4  -3   21.10    1.59
  -2  -4  -3   18.75    0.99
  -2   4  -3   18.19    1.20
   2  -4   3   15.19    1.25
   2  -4   3   16.20    1.18
  -2  -4  -3   15.73    1.09
  -2   4  -4 2094.44   11.40
   2  -4   4 2019.36   11.31
   2  -4   4 1924.24   11.51
  -2  -4  -4 2097.66   11.38
  -2  -4  -4 2088.80   10.08
   2  -4   4 2002.07   14.26
   2  -4   4 1963.00   12.62
  -2   4  -4 2155.01   13.48
   2  -4   5    6.85    1.16
   2  -4   5   10.91    1.10
   2  -4   5    6.71    1.47
  -2  -4  -5    6.52    0.98
   2  -4   5    7.48    1.24
  -2  -4  -5    7.09    1.09
  -2  -4  -6    0.53    1.01
   2  -4   6    0.61    0.78
   2  -4   6   -1.05    1.06
  -2   4  -6   -0.51    0.82
   2   4   6    0.59    1.07
  -2  -4  -6   -0.49    0.84
   2  -4   6    1.88    1.28
   2  -4   7    2.97    1.22
  -2  -4  -7    1.92    1.07
  -2   4  -7    1.66    0.91
   2   4   7    2.20    1.24
   2  -4   7    2.28    1.36
   2  -4   7    5.01    1.30
  -2   4  -8  650.50    7.27
   2   4   8  684.01    8.46
  -2  -4  -8  652.07    7.87
   2  -4   8  684.03    9.00
   2  -4   8  689.94    8.65
   2   4   9   95.98    3.50
   2  -4   9   86.44    3.48
   2  -4  10  348.13    6.99
   2   4  10  347.73    6.88
   2  -4  10  365.53    7.40
   2  -4  11   13.71    2.22
   2  -4  11    9.41    2.21
   2  -4  12  243.30    6.63
   2  -4  12  257.93    7.09
   2   4  12  234.42    6.47
   2  -4  13   42.72    3.32
   2   4  13   38.32    3.45
   2  -4  13   49.27    3.81
   2  -4  14   24.59    3.44
   2  -4  14   17.15    3.04
   2   4  14   21.86    3.22
   2  -4  15   10.04    3.22
   2  -4  15   17.47    3.16
   2   4  15   13.79    3.12
   2  -4  16   67.09    5.14
   2   4  16   55.45    4.72
   2  -4  16   67.11    4.62
   2   4  17   -2.97    3.43
   2  -4  17   -2.54    3.00
   2  -4  17    0.81    3.27
   2   4  18   20.75    4.57
   2  -4  18   19.09    4.15
   2  -4  18   16.49    3.60
   2   4  19   -2.09    3.92
   2  -4  19    3.14    3.78
   2  -4  20   24.89    4.69
  -2  -6  17   20.74    3.73
  -2  -6  16   16.47    3.36
  -2  -6  15   -0.09    2.64
  -2  -6  14   41.41    3.83
  -2  -6  13   16.71    3.09
  -2  -6  12  130.75    5.61
  -2  -6  11    4.81    2.45
  -2  -6  10   81.75    4.47
  -2  -6   9   38.10    3.45
  -2  -6   8   -0.67    2.21
   2  -6  -7   68.06    4.27
  -2  -6   7   59.81    3.90
   2  -6  -6  546.65   10.42
  -2  -6   6  511.33    9.72
  -2  -6   5   14.47    2.60
   2  -6  -5   17.70    2.77
  -2  -6   4  184.53    6.11
   2  -6  -4  184.20    6.19
  -2  -6   3  244.81    6.88
   2  -6  -3  230.53    6.68
   2  -6  -2  379.84    8.47
  -2  -6   2  362.40    8.02
   2  -6  -1   40.43    1.75
  -2  -6   1   40.81    3.19
  -2  -6   0  547.99    9.88
   2  -6   0  549.18   10.02
  -2  -6  -1  159.22    5.66
  -2  -6  -1  152.41    2.95
   2  -6   1  147.47    5.29
   2  -6   2  519.38    9.55
  -2  -6  -2  525.10    4.86
  -2  -6  -3   10.29    2.38
   2  -6   3    6.83    1.97
  -2  -6  -3    9.53    0.81
  -2  -6  -4  106.73    5.06
   2  -6   4   89.21    4.24
  -2  -6  -5   68.87    4.22
   2  -6   5   65.73    3.87
  -2  -6  -6  821.55   12.62
   2  -6   6  787.00   11.74
   2  -6   7   75.88    4.07
  -2  -6  -7   79.92    4.39
  -2  -6  -8  225.24    6.88
   2  -6   8  188.47    6.00
  -2  -6  -9   20.04    3.02
   2  -6   9   28.22    3.07
  -2  -6 -10   77.01    4.55
   2  -6  10   54.03    3.77
   2  -6  11   16.90    2.96
  -2  -6 -11   19.23    3.17
   2  -6  12   66.60    4.48
  -2  -6 -12   83.95    5.01
   2  -6  13    5.29    2.89
   2  -6  14   72.06    5.05
   2  -6  15   17.71    3.58
   2  -6  16   16.15    3.84
   2  -6  18   24.24    4.29
  -2  -8  16    9.56    3.93
  -2  -8  15    0.57    3.46
  -2  -8  14   27.78    3.94
  -2  -8  12   45.90    4.65
  -2  -8  11    0.53    2.98
  -2  -8  10  146.81    6.77
  -2  -8   9    3.21    3.04
  -2  -8   8   80.54    5.30
  -2  -8   7   -5.00    3.17
  -2  -8   6  162.20    6.68
   2  -8  -6  176.11    7.33
  -2  -8   5   10.21    3.32
   2  -8  -5    6.33    3.35
   2  -8  -4  241.34    8.59
  -2  -8   4  209.06    7.58
  -2  -8   3   33.76    4.09
   2  -8  -3   36.09    4.37
   2  -8  -2  400.56   10.53
  -2  -8   2  362.72    9.80
   2  -8  -1   34.51    4.02
  -2  -8   1   39.80    4.28
   2  -8   0    8.51    3.26
  -2  -8   0   14.39    3.39
   2  -8   1   26.44    3.85
  -2  -8  -1   28.57    3.69
  -2  -8  -2   44.61    4.17
   2  -8   2   42.55    3.98
   2  -8   3    3.44    2.69
  -2  -8  -3    3.73    2.80
  -2  -8  -4   47.30    4.43
   2  -8   4   34.12    3.86
   2  -8   5   -2.10    2.98
  -2  -8  -5    2.48    2.97
  -2  -8  -6   77.20    5.29
   2  -8   6   77.97    5.10
  -2  -8  -7    2.06    3.20
   2  -8   7   -0.15    2.72
  -2  -8  -8    8.75    3.25
   2  -8   8    7.40    2.93
   2  -8   9   -4.91    3.08
  -2  -8  -9    1.90    3.22
   2  -8  10   38.31    4.21
  -2  -8 -10   28.42    4.29
   2  -8  11   15.18    3.41
   2  -8  12   11.89    3.47
   2  -8  13   -0.54    3.10
   2  -8  14   37.44    4.66
   2  -8  15   14.93    3.84
  -2 -10  12    9.59    3.86
  -2 -10  11   -2.22    3.53
  -2 -10  10    7.43    3.56
  -2 -10   9    1.55    3.53
  -2 -10   8   16.73    4.15
  -2 -10   7    7.19    3.78
  -2 -10   6    6.65    3.50
  -2 -10   5    3.22    3.28
  -2 -10   4   20.02    3.72
   2 -10  -4   11.85    3.97
  -2 -10   3    2.10    3.58
   2 -10  -3    1.34    3.49
   2 -10  -2   23.74    4.39
  -2 -10   2   36.07    4.59
   2 -10  -1    0.77    3.39
  -2 -10   1   -2.25    3.35
   2 -10   0   42.33    4.64
  -2 -10   0   60.90    5.25
  -2 -10  -1   -3.44    3.54
   2 -10   1    1.23    3.18
   2 -10   2   55.36    5.16
  -2 -10  -2   53.98    5.30
   2 -10   3   -0.89    3.49
  -2 -10  -3    0.26    3.50
  -2 -10  -4   71.21    5.52
   2 -10   4   96.72    6.13
  -2 -10  -5    4.02    3.53
   2 -10   5    0.32    3.41
   2 -10   6   14.12    3.93
  -2 -10  -6   24.85    4.24
  -2 -10  -7   -1.76    3.38
   2 -10   7   -1.88    3.25
   2 -10   8   35.92    4.51
  -2 -10  -8   24.85    4.25
   2 -10   9    0.69    3.37
   2 -10  10    3.89    4.15
   2 -10  11    1.60    3.44
  -3  -1  22    3.31    4.68
  -3   1  22    1.13    4.33
  -3  -1  21   32.69    5.38
  -3   1  21   28.18    5.19
  -3  -1  20   10.05    4.10
  -3   1  20    4.72    4.23
  -3   1  19   20.30    4.40
  -3  -1  19   23.06    4.43
  -3  -1  18    2.74    3.43
  -3   1  18    1.42    3.30
  -3   1  17  134.35    6.77
  -3  -1  17  118.00    6.35
  -3  -1  16    3.10    3.08
  -3   1  16    4.93    3.02
  -3  -1  15   65.51    4.63
  -3   1  15   70.28    4.65
  -3  -1  14   14.65    2.94
  -3   1  14   10.89    2.84
  -3   1  13  540.85   10.25
  -3  -1  13  528.11   10.07
  -3  -1  12  425.41    8.53
  -3   1  12  432.83    8.73
   3   1 -11  318.47    4.39
  -3  -1  11  311.39    6.88
  -3   1  11  318.74    7.17
  -3  -1  11  325.95    4.93
   3   1 -10   59.87    1.92
  -3  -1  10   52.30    1.90
   3   1 -10   53.62    2.93
  -3  -1  10   53.17    2.95
  -3   1  10   54.21    3.10
  -3  -1  10   56.30    3.11
   3  -1 -10   50.62    2.92
  -3   1   9  602.50    8.77
   3  -1  -9  614.68    8.84
  -3  -1   9  613.58    5.85
   3   1  -9  608.29    5.58
   3   1  -9  598.82    4.82
  -3  -1   9  626.87    8.90
   3   1  -9  614.59    8.53
  -3  -1   8  324.87    6.05
   3   1  -8  337.31    3.40
  -3   1   8  321.83    6.08
   3   1  -8  362.18    6.14
  -3  -1   8  305.48    5.65
   3  -1  -8  335.09    6.09
   3   1  -8  335.65    4.01
   3   1  -7  555.14    4.13
   3  -1  -7  594.22    7.58
  -3  -1   7  544.11    7.05
   3   1  -7  581.68    5.15
   3   1  -7  574.82    7.19
  -3  -1   7  597.54    7.56
  -3   1   7  555.97    7.47
   3   1  -7  611.04    7.05
   3  -1  -7  543.70    7.10
  -3   1   6  214.78    4.55
   3   1  -6  214.85    4.13
   3  -1  -6  213.13    4.22
   3   1  -6  214.66    2.42
   3  -1  -6  206.68    4.17
  -3  -1   6  220.50    4.35
   3   1  -6  232.94    3.97
   3   1  -6  234.29    3.33
  -3   1   5 6618.88   21.90
   3   1  -5 6758.05   12.89
   3  -1  -5 6625.19   22.06
   3   1  -5 6773.21   19.19
   3   1  -5 6824.42   21.07
   3   1  -5 6708.78   17.45
   3  -1  -5 6723.41   21.97
  -3  -1   5 6567.41   20.99
  -3  -1   5 7035.60   10.47
  -3  -1   5 6886.95   11.44
  -3  -1   4    4.04    0.56
   3   1  -4    5.48    0.77
   3  -1  -4    3.60    0.88
  -3   1   4    4.74    0.81
   3   1  -4    4.11    0.43
   3   1  -4    6.49    0.89
   3   1  -4    4.52    0.67
  -3  -1   4    3.99    0.43
  -3  -1   4    5.12    0.91
  -3   1   3  715.97    6.17
   3   1  -3  746.46    5.80
   3   1  -3  762.68    5.11
   3  -1  -3  779.36    6.74
  -3  -1   3  692.37    5.08
   3   1  -3  754.85    3.86
  -3   1   2  171.74    2.91
   3   1  -2  222.38    2.09
   3   1  -2  202.51    2.56
   3   1  -2  199.71    2.31
   3  -1  -2  194.86    1.73
   3   1  -2  187.98    2.69
  -3  -1   2  192.30    2.22
   3  -1  -2  193.08    3.18
  -3  -1   2  217.14    2.25
   3  -1  -2  198.58    2.49
  -3  -1   2  180.62    2.69
  -3  -1   1 2571.04    6.93
  -3   1   1 2475.72    7.43
  -3  -1   1 2563.73    8.31
  -3   1   1 2473.12   10.09
   3  -1  -1 2526.07   10.23
  -3  -1   1 2560.16    6.70
   3  -1  -1 2500.34    8.28
   3   1  -1 2542.74    7.21
  -3   1   1 2521.68    6.09
   3   1  -1 2544.22    6.32
   3   1  -1 2577.82    7.83
   3  -1  -1 2542.72    6.43
   3  -1   0  146.26    2.42
  -3  -1   0  155.01    1.65
   3  -1   0  155.90    2.03
  -3  -1   0  152.72    1.66
  -3   1   0  140.88    2.38
   3   1   0  170.94    1.70
  -3  -1   0  153.28    1.58
  -3   1   0  145.57    1.86
   3  -1   0  161.69    1.74
  -3   1   0  158.84    1.74
   3  -1   1  650.47    3.48
   3  -1   1  601.20    4.96
  -3  -1  -1  593.74    3.49
  -3   1  -1  588.13    4.87
   3   1   1  581.47    3.52
  -3   1  -1  627.95    4.16
   3  -1   1  658.59    4.23
  -3   1  -2 6392.03   13.16
   3  -1   2 6412.34   12.48
  -3   1  -2 6416.26   11.02
  -3   1  -2 6465.48   17.01
  -3  -1  -2 6292.96   13.64
   3  -1   2 6401.53   16.41
   3   1   3 2652.38   10.44
  -3   1  -3 2768.45    7.86
   3  -1   3 2687.57    6.58
  -3   1  -3 2736.77    9.51
   3  -1   3 2596.13    7.19
  -3  -1  -3 2689.86   10.62
  -3   1  -3 2620.12   11.56
   3  -1   3 2658.84   11.93
  -3   1  -4    4.09    0.58
  -3  -1  -4    4.22    0.72
  -3   1  -4    4.44    0.48
   3  -1   4    3.45    0.80
   3   1   4    3.87    0.74
  -3   1  -4    2.43    0.78
  -3   1  -5  608.96    4.79
   3  -1   5  564.96    6.03
   3  -1   5  572.10    5.28
  -3  -1  -5  580.76    6.08
  -3   1  -5  614.91    4.08
   3   1   5  580.35    5.99
  -3   1  -5  580.60    6.43
  -3  -1  -6    2.36    0.86
   3  -1   6    3.08    0.97
   3   1   6    2.86    0.89
  -3   1  -6    2.86    0.60
  -3   1  -6    1.52    0.48
   3  -1   6    1.80    0.76
  -3   1  -6    3.51    0.98
   3   1   6    2.37    0.98
  -3   1  -7 1436.07    8.27
   3   1   7 1377.34   11.25
  -3   1  -7 1391.03    6.77
   3  -1   7 1414.85   11.82
   3   1   7 1433.84   11.47
   3  -1   7 1341.81    9.47
  -3   1  -8   40.00    1.23
   3   1   8   42.25    2.27
  -3   1  -8   42.56    1.60
   3  -1   8   34.44    1.73
   3  -1   8   48.21    2.52
   3  -1   8   44.82    2.38
   3   1   8   41.97    2.35
   3   1   9   10.47    1.66
   3  -1   9    6.86    1.20
   3   1   9    6.85    1.43
   3  -1   9    7.89    1.55
   3  -1   9    8.39    1.59
  -3   1  -9    8.01    0.81
   3  -1  10   40.77    2.79
   3   1  10   40.46    2.75
   3  -1  10   37.63    2.14
  -3   1 -10   37.74    1.45
   3  -1  11  311.79    5.79
   3  -1  11  323.43    7.01
   3  -1  12   75.14    3.95
   3  -1  12   84.86    3.40
   3   1  12   81.56    4.21
   3  -1  13  265.40    7.34
   3  -1  13  269.04    6.24
   3   1  13  264.10    7.29
   3  -1  14    7.32    2.83
   3   1  14    1.26    2.43
   3  -1  15  156.46    6.47
   3   1  15  165.25    6.69
   3   1  16   29.53    3.82
   3  -1  16   29.79    3.91
   3  -1  17   29.19    4.09
   3   1  17   30.15    4.14
   3  -1  18    4.61    3.51
   3   1  18    1.60    3.33
   3  -1  19   43.49    5.04
   3   1  19   40.64    4.93
   3   1  20    0.54    3.79
   3  -1  20    0.98    3.88
   3  -1  21   11.65    4.42
   3   1  21   20.04    4.87
   3  -3 -22    4.43    4.66
  -3  -3  22   -3.41    4.32
  -3   3  22   -3.55    4.66
  -3   3  21   44.84    5.68
  -3  -3  21   36.50    5.09
   3  -3 -21   39.13    5.56
  -3   3  20    0.14    3.70
  -3  -3  20    2.54    3.73
  -3  -3  19   72.26    5.78
  -3   3  19   68.12    5.70
  -3  -3  18    0.76    3.30
  -3   3  18    0.56    3.42
  -3  -3  17   42.13    4.45
  -3   3  17   40.66    4.80
  -3   3  16    0.13    3.09
  -3  -3  16    0.24    2.88
  -3   3  15  354.27    9.89
  -3  -3  15  378.53    9.66
  -3  -3  14   21.30    3.05
  -3  -3  14   12.90    1.75
  -3   3  14   22.64    3.50
  -3  -3  13   33.41    3.18
  -3  -3  13   42.80    2.69
  -3   3  13   37.89    3.73
  -3  -3  12   11.29    1.76
  -3  -3  12    8.18    2.09
  -3  -3  11  308.71    6.83
  -3   3  11  334.00    7.84
   3   3 -10   30.90    1.96
  -3  -3  10   31.97    2.08
  -3  -3  10   36.94    2.55
  -3  -3  10   38.94    2.63
   3  -3  -9  537.74    8.58
  -3  -3   9  517.49    7.67
  -3   3   9  554.36    8.86
   3   3  -9  529.25    6.88
  -3  -3   9  485.63    6.66
  -3  -3   9  580.44    8.68
   3   3  -8    9.39    1.24
  -3   3   8    7.22    1.69
  -3  -3   8    7.17    1.41
   3  -3  -8    9.35    1.58
  -3  -3   8    5.61    1.30
  -3   3   7  836.12   10.01
   3   3  -7  796.21    7.82
  -3  -3   7  778.43    8.17
  -3  -3   7  773.72    8.35
  -3  -3   7  872.18    6.59
   3   3  -7  849.65    7.89
   3  -3  -7  832.12    9.74
   3  -3  -7  780.25    9.49
  -3  -3   7  802.27    8.57
  -3   3   6  204.54    4.91
   3   3  -6  200.12    4.09
   3  -3  -6  174.30    4.32
  -3  -3   6  179.18    4.21
   3  -3  -6  185.36    4.46
   3   3  -6  185.36    3.39
  -3  -3   6  187.12    3.89
  -3  -3   6  194.79    3.04
  -3  -3   5  507.57    7.14
   3   3  -5  539.36    6.15
   3   3  -5  550.54    5.20
  -3   3   5  479.96    7.13
   3  -3  -5  532.73    6.96
  -3  -3   5  515.83    4.86
  -3   3   5  571.24    7.51
   3  -3  -5  533.20    7.04
  -3  -3   4  226.20    3.34
   3   3  -4  229.61    2.94
  -3   3   4  199.98    4.38
   3  -3  -4  219.26    4.27
   3   3  -4  241.61    4.06
  -3  -3   4  260.22    3.69
  -3  -3   4  210.19    4.53
  -3  -3   3 2520.67    9.93
  -3   3   3 2120.54   13.28
   3  -3  -3 2312.59   13.38
  -3  -3   3 2397.98   10.24
   3   3  -3 2460.82   10.86
  -3  -3   3 2353.70   15.32
  -3  -3   3 2608.09   13.67
   3   3  -3 2449.27    9.03
   3   3  -3 2358.59    7.89
   3  -3  -2   27.22    1.12
   3   3  -2   36.82    0.99
   3  -3  -2   29.55    1.02
   3   3  -2   35.08    0.91
   3   3  -2   41.79    0.84
  -3   3   2   27.84    1.71
  -3  -3   2   32.50    1.23
  -3  -3   2   44.53    1.89
   3  -3  -2   31.38    1.71
  -3  -3   2   32.18    0.93
   3   3  -2   33.63    1.04
   3  -3  -1  659.16    5.45
  -3  -3   1  594.31    4.58
  -3  -3   1  677.57    5.83
  -3  -3   1  633.28    8.01
   3  -3  -1  570.39    6.04
   3  -3  -1  619.75    4.69
  -3   3   1  585.42    6.58
   3  -3   0  352.28    3.95
  -3  -3   0  441.80    3.99
  -3  -3   0  387.77    5.94
   3  -3   0  342.69    4.51
  -3   3   0  329.89    4.70
  -3  -3   0  351.64    3.11
   3  -3   0  319.68    3.49
  -3   3   0  268.61    2.21
  -3   3  -1 2249.84    9.27
   3  -3   1 2104.46   11.37
  -3  -3  -1 2189.50   12.95
  -3   3  -1 2120.37   11.88
  -3  -3  -1 2129.07    5.23
   3  -3   1 2093.01    9.55
  -3   3  -1 2081.67    8.63
  -3  -3  -1 2105.57    5.11
   3  -3   1 2303.58   10.16
   3  -3   2  122.99    3.01
   3  -3   2  110.14    2.76
   3  -3   2  105.30    2.28
  -3   3  -2  119.40    2.96
  -3   3  -2  102.40    2.15
  -3  -3  -2  114.63    1.61
  -3  -3  -2  104.51    1.54
  -3   3  -2  111.58    2.25
   3  -3   2  120.49    2.48
  -3   3  -3  648.20    5.35
   3  -3   3  617.18    5.57
   3  -3   3  606.50    6.16
   3  -3   3  652.10    6.80
   3  -3   3  643.65    6.88
  -3  -3  -3  694.77    4.97
  -3   3  -3  638.46    6.82
  -3  -3  -3  675.46    5.30
  -3   3  -4  145.53    2.67
   3  -3   4  134.14    3.01
  -3   3  -4  149.00    3.51
  -3  -3  -4  150.60    2.81
   3  -3   4  150.11    3.54
   3  -3   4  135.21    3.17
  -3  -3  -4  140.83    2.72
   3   3   4  144.98    2.70
  -3   3  -5 1833.53   10.00
   3  -3   5 1734.91   11.62
   3  -3   5 1660.14   11.35
  -3  -3  -5 1783.05   10.65
   3   3   5 1704.12    9.83
   3  -3   5 1736.11    9.33
   3  -3   5 1736.21   12.26
  -3  -3  -5 1685.06   10.36
  -3   3  -6    5.76    0.88
   3   3   6    7.46    1.22
   3  -3   6    9.19    1.04
  -3  -3  -6    5.38    1.02
   3  -3   6    9.22    0.86
   3  -3   6    7.32    1.30
  -3  -3  -6    6.36    1.10
   3  -3   6    6.04    1.18
   3   3   6    4.76    0.96
  -3   3  -7  136.19    2.87
   3  -3   7  141.80    3.66
  -3  -3  -7  155.83    3.80
   3  -3   7  137.62    3.74
   3   3   7  124.14    3.51
   3  -3   7  145.22    4.07
   3   3   8   36.42    2.23
   3  -3   8   34.70    2.23
  -3   3  -8   30.09    1.58
   3  -3   8   32.70    2.10
  -3  -3  -8   33.53    2.13
   3  -3   8   34.93    2.31
   3   3   8   36.64    2.30
   3  -3   9 1940.03   15.74
   3  -3   9 1925.41   14.50
   3   3   9 2044.15   15.56
  -3  -3  -9 2026.66   15.29
   3   3   9 2038.88   15.43
   3  -3  10   52.91    2.92
   3   3  10   50.46    3.06
   3  -3  10   50.86    3.10
   3   3  11  332.63    7.41
   3  -3  11  332.45    6.73
   3  -3  11  345.65    7.66
   3   3  12    3.72    2.11
   3  -3  12    3.85    1.96
   3  -3  12    9.26    2.32
   3  -3  13   68.29    3.67
   3   3  13   72.21    4.24
   3  -3  14    4.26    2.27
   3  -3  14    4.01    2.63
   3   3  14    6.28    2.67
   3  -3  15   44.70    4.31
   3   3  15   45.58    4.22
   3  -3  15   48.90    3.87
   3  -3  16   -0.77    2.61
   3  -3  16    2.51    3.15
   3   3  16    5.48    3.05
   3   3  17  107.85    6.24
   3  -3  17   93.85    5.01
   3  -3  17   99.75    6.02
   3  -3  18    0.50    3.50
   3   3  18    3.53    3.56
   3  -3  19   11.32    4.11
   3   3  19    4.64    3.84
   3  -3  20    1.47    4.03
   3   3  20    1.11    4.13
   3  -5 -20    3.87    4.11
  -3   5  20    0.09    4.34
  -3   5  19   22.16    4.94
   3  -5 -19   23.65    4.80
  -3   5  18    1.98    4.00
   3  -5 -18    0.48    3.53
  -3   5  17   30.70    4.57
   3  -5 -17   29.92    4.66
  -3   5  16    5.28    3.65
   3  -5 -16    5.47    3.51
   3  -5 -15   19.61    3.74
  -3   5  15   23.92    4.01
  -3  -5  15   17.72    2.86
   3  -5 -14   -0.15    2.85
  -3  -5  14   -1.75    2.25
  -3   5  14    0.15    2.82
  -3  -5  13   70.21    3.89
   3  -5 -13   70.29    4.69
  -3   5  13   76.55    4.86
  -3  -5  12   95.07    4.47
  -3   5  12   89.58    4.90
   3  -5 -12   98.27    4.93
  -3  -5  11  279.83    6.79
  -3   5  11  288.72    7.51
   3  -5 -11  299.57    7.60
  -3  -5  10   69.54    3.83
  -3   5  10   73.87    3.97
   3  -5 -10   82.25    4.14
  -3   5   9  294.94    6.98
  -3  -5   9  296.80    7.09
   3  -5  -9  315.18    7.04
   3  -5  -8   23.29    2.28
  -3  -5   8   21.07    2.50
  -3   5   8   21.26    2.47
  -3  -5   7  875.22   11.60
   3  -5  -7 1018.20   11.82
  -3   5   7 1025.13   11.54
  -3  -5   7  993.48    8.93
   3  -5  -7  897.98   10.22
  -3  -5   6   95.72    2.95
   3  -5  -6   82.17    3.22
   3  -5  -6   87.43    4.03
   3  -5  -6   95.06    3.48
  -3  -5   6   85.77    4.02
  -3   5   6   99.43    3.73
  -3  -5   5  821.27    7.91
   3  -5  -5  721.81    8.34
   3  -5  -5  748.06    8.63
  -3  -5   5  812.00   11.22
   3  -5  -5  822.38   10.96
   3  -5  -4   17.62    1.66
   3  -5  -4   11.84    1.43
   3  -5  -4   11.28    0.79
  -3  -5   4   14.80    1.30
  -3  -5   4   17.17    2.26
   3  -5  -4   14.24    2.19
  -3  -5   3  939.48    7.85
   3  -5  -3  901.88    6.27
   3  -5  -3  882.30    8.19
   3  -5  -3  908.93    8.87
   3  -5  -3 1001.40   11.88
  -3  -5   3  961.27   11.71
   3  -5  -2    2.42    0.94
  -3  -5   2    3.70    0.85
   3  -5  -2    2.38    0.68
   3  -5  -2    2.09    1.62
  -3  -5   2    2.21    1.69
   3  -5  -2    2.31    0.99
   3  -5  -1  884.58    8.55
  -3  -5   1  905.47    7.28
   3  -5  -1  815.24    7.37
   3  -5  -1  848.19    6.81
  -3  -5   1  899.47   11.61
   3  -5  -1  861.89    8.27
   3  -5  -1  891.40   11.11
   3  -5   0  199.25    3.62
  -3  -5   0  246.88    3.60
   3  -5   0  208.83    3.59
   3  -5   0  229.48    5.62
  -3  -5   0  236.76    6.08
   3  -5   0  228.92    4.41
   3  -5   1 1186.91    8.82
   3  -5   1 1179.27    8.89
   3  -5   1 1216.15   12.64
   3  -5   1 1244.87   10.19
  -3  -5  -1 1197.96    7.00
  -3  -5  -1 1204.86   13.40
   3  -5   2  789.54    7.43
  -3  -5  -2  815.18    4.93
   3  -5   2  814.48   10.07
   3  -5   2  817.47    8.27
   3  -5   2  812.39    7.52
   3  -5   3   68.31    2.41
  -3  -5  -3   74.72    3.63
   3  -5   3   69.93    2.43
   3  -5   3   75.45    3.46
   3  -5   3   76.06    2.79
   3  -5   4   51.68    2.25
  -3  -5  -4   49.46    3.02
   3  -5   4   44.70    2.15
   3  -5   4   48.47    2.39
   3  -5   4   56.88    3.02
   3  -5   5  103.48    3.05
   3  -5   5   92.01    3.79
   3  -5   5   92.89    3.31
  -3  -5  -5   94.48    3.87
   3  -5   5   93.74    3.14
   3  -5   6    6.86    1.67
   3  -5   6   10.51    1.58
   3  -5   7  141.39    3.96
   3  -5   7  146.29    4.75
   3  -5   8   26.41    2.60
   3  -5   8   17.36    2.06
   3  -5   9  103.58    4.29
   3  -5   9  133.22    4.63
   3  -5  10   19.09    2.50
   3  -5  10   16.97    2.56
   3  -5  11   31.62    3.15
   3  -5  11   26.82    3.08
   3  -5  12    9.25    2.69
   3  -5  12    7.06    2.60
   3  -5  13   87.12    5.05
   3  -5  13   62.56    4.19
   3  -5  14   10.25    3.09
   3  -5  14   11.04    3.05
   3  -5  15   64.25    4.93
   3  -5  15   51.43    4.70
   3  -5  16    3.52    3.33
   3  -5  16   10.94    2.91
   3  -5  17   29.41    4.11
   3  -5  17   37.22    4.48
   3  -5  18    1.15    3.47
   3  -5  18    5.51    3.67
   3  -5  19   26.90    4.57
   3  -5  19   52.97    5.21
  -3  -7  16   -4.80    3.31
  -3  -7  15   28.98    3.93
  -3  -7  14   12.67    3.20
  -3  -7  13  106.31    5.71
  -3  -7  12    7.40    3.02
  -3  -7  11   52.25    4.18
  -3  -7  10    1.30    2.82
  -3  -7   9   45.62    4.15
  -3  -7   8   14.43    3.18
  -3  -7   7   16.37    3.04
  -3  -7   6   19.90    3.19
  -3  -7   5  476.39   10.05
   3  -7  -5  502.79   10.68
  -3  -7   4   76.23    4.78
   3  -7  -4   64.98    4.59
  -3  -7   3   17.25    3.14
   3  -7  -3   21.36    3.29
   3  -7  -2    9.85    2.79
  -3  -7   2   11.61    2.78
   3  -7  -1  168.72    6.21
  -3  -7   1  147.29    5.82
  -3  -7   0   11.73    2.94
   3  -7   0    6.99    2.42
  -3  -7  -1   60.10    4.24
   3  -7   1   57.40    4.01
  -3  -7  -2   47.60    3.99
   3  -7   2   35.33    3.33
   3  -7   3  382.98    8.98
  -3  -7  -3  418.13    9.81
   3  -7   4   10.84    2.73
  -3  -7  -4    9.64    2.85
   3  -7   5  206.33    6.96
  -3  -7  -5  192.25    6.93
  -3  -7  -6    3.21    2.78
   3  -7   6   -2.68    2.49
   3  -7   7  285.94    7.82
  -3  -7  -7  329.18    9.24
   3  -7   8    7.18    2.64
  -3  -7  -8    5.69    2.96
  -3  -7  -9   16.32    3.38
   3  -7   9   20.75    3.20
  -3  -7 -10    0.39    2.95
   3  -7  10   11.48    2.88
  -3  -7 -11   77.32    5.30
   3  -7  11   80.55    5.00
   3  -7  12    2.88    2.96
  -3  -7 -12    3.02    3.22
   3  -7  13   63.32    5.05
   3  -7  14   13.69    3.65
   3  -7  15   27.80    4.27
   3  -7  16    0.15    3.45
  -3  -9  14    9.01    3.55
  -3  -9  13   25.70    4.34
  -3  -9  12    0.79    3.33
  -3  -9  11    8.91    3.45
  -3  -9  10    9.07    3.70
  -3  -9   9   52.76    4.91
  -3  -9   8   -0.13    3.33
  -3  -9   7   46.60    4.72
  -3  -9   6    9.93    3.45
  -3  -9   5   37.85    4.46
   3  -9  -4   14.80    3.88
  -3  -9   4   12.39    3.47
   3  -9  -3  130.99    6.92
  -3  -9   3  138.22    6.76
  -3  -9   2    6.86    3.32
   3  -9  -2    4.63    3.52
   3  -9  -1   81.35    5.68
  -3  -9   1   90.96    5.89
   3  -9   0   29.10    3.90
  -3  -9   0   31.59    4.18
   3  -9   1   32.27    4.21
  -3  -9  -1   35.15    4.17
   3  -9   2    3.60    3.22
  -3  -9  -2    0.11    2.94
   3  -9   3   86.20    5.79
  -3  -9  -3  107.37    5.97
   3  -9   4   12.21    3.53
  -3  -9  -4    8.23    3.54
   3  -9   5   66.40    5.13
  -3  -9  -5   68.59    5.10
   3  -9   6    1.33    2.95
  -3  -9  -6    3.37    3.26
  -3  -9  -7    5.94    3.32
   3  -9   7    9.98    3.37
   3  -9   8    5.20    3.37
  -3  -9  -8    1.95    3.32
  -3  -9  -9   30.50    4.44
   3  -9   9   40.26    4.28
   3  -9  10   12.85    3.48
  -3  -9 -10    3.37    3.54
   3  -9  11   25.36    4.13
   3  -9  12   -2.09    3.42
   3  -9  13    6.75    3.68
  -3 -11   8   -6.44    4.08
  -3 -11   7   25.15    4.44
  -3 -11   6    1.04    3.52
  -3 -11   5    5.61    3.66
  -3 -11   4   -2.59    3.45
  -3 -11   3   31.24    4.44
  -3 -11   2   -2.51    3.60
  -3 -11   1   19.37    4.15
   3 -11  -1   21.87    4.34
  -3 -11   0    5.57    3.53
   3 -11   0    4.23    3.73
   3 -11   1   30.45    4.55
  -3 -11  -1   46.15    4.86
   3 -11   2    1.36    3.76
  -3 -11  -2    4.15    3.65
   3 -11   3    9.19    3.82
  -3 -11  -3    3.90    3.65
  -3 -11  -4    3.59    3.90
   3 -11   4    6.77    3.67
  -3 -11  -5    2.34    3.49
   3 -11   5    9.05    3.68
  -3 -11  -6    1.17    3.61
   3 -11   6    4.33    3.73
  -3 -11  -7    9.21    3.84
  -4   0  22   17.98    5.16
  -4   0  21   -0.30    4.27
  -4   0  20   29.83    5.21
  -4   0  19    4.61    3.96
  -4   0  18  128.26    7.13
  -4   0  17   -0.24    3.37
  -4   0  16  466.55   11.13
  -4   0  15   -1.73    2.81
  -4   0  14   84.18    4.78
  -4   0  13    1.74    2.40
   4   0 -12 1107.73    7.94
  -4   0  12 1098.58   13.94
   4   0 -11   -0.56    0.72
  -4   0  11    0.54    1.80
   4   0 -10   65.32    1.82
   4   0 -10   69.97    3.36
  -4   0  10   72.15    3.49
   4   0  -9    0.26    0.42
   4   0  -9   -0.05    0.59
   4   0  -9   -0.48    1.18
  -4   0   9    1.64    1.40
   4   0  -8  946.73    6.07
  -4   0   8  841.17    9.78
   4   0  -8  945.07   10.14
   4   0  -8  863.12    4.63
   4   0  -7    1.32    0.59
   4   0  -7   -0.04    0.32
  -4   0   7    2.24    1.22
   4   0  -7    4.94    1.05
   4   0  -7    5.02    1.17
   4   0  -6  858.93    8.46
  -4   0   6  869.87    9.16
   4   0  -6  892.54    8.19
   4   0  -6  872.41    4.30
   4   0  -5    0.22    0.32
   4   0  -5    0.18    0.63
   4   0  -5    1.35    0.76
  -4   0   5    1.26    0.69
  -4   0   4 2682.99    5.78
   4   0  -4 2647.57   11.44
  -4   0   4 2649.22   12.33
   4   0  -4 2639.89    7.23
   4   0  -3    1.04    0.65
  -4   0   3   -0.20    0.32
  -4   0   3    0.01    0.47
   4   0  -3    0.05    0.29
  -4   0   3   -0.89    0.64
   4   0  -3   -0.12    0.69
  -4   0   2 3605.12   12.15
   4   0  -2 3578.17   11.70
   4   0  -2 3613.91    8.22
   4   0  -1    0.42    0.29
  -4   0   1    0.34    0.38
  -4   0   1    1.02    0.48
   4   0  -1    0.59    0.48
   4   0  -1    0.11    0.58
  -4   0   0 2896.22    8.74
   4   0   0 2790.55    8.71
  -4   0   0 2853.89   10.12
   4   0   0 2775.42   10.09
   4   0   0 2876.58    7.06
  -4   0   0 2889.38    7.56
   4   0   1    0.33    0.27
  -4   0  -1    0.42    0.36
  -4   0  -1   -0.14    0.38
   4   0   1   -0.08    0.34
  -4   0  -1    0.89    0.50
   4   0   1    0.07    0.54
  -4   0  -2 1097.33    5.28
  -4   0  -2 1107.56    7.01
   4   0   2 1122.60    7.24
  -4   0  -2 1091.67    4.56
   4   0   3    0.27    0.65
  -4   0  -3    0.94    0.41
  -4   0  -3    0.19    0.32
  -4   0  -3    0.27    0.59
  -4   0  -4 2567.75    8.04
   4   0   4 2618.82   10.73
  -4   0  -4 2665.70   12.71
   4   0   4 2603.35   12.53
  -4   0  -4 2638.49    6.97
  -4   0  -5   -0.17    0.34
   4   0   5   -0.38    0.73
   4   0   5    1.01    0.83
  -4   0  -5    0.41    0.44
   4   0   5    1.98    0.83
  -4   0  -5    1.66    0.79
   4   0   6  287.06    4.17
   4   0   6  291.29    4.83
  -4   0  -6  288.10    2.93
   4   0   6  307.59    5.08
  -4   0  -6  314.31    2.60
   4   0   7   -0.63    0.93
  -4   0  -7   -0.09    0.39
  -4   0  -7    0.89    0.52
   4   0   8 1492.57   12.71
  -4   0  -8 1468.89    6.43
   4   0   9    0.59    1.30
  -4   0  -9    0.57    0.50
   4   0   9   -0.29    1.47
   4   0  10  136.99    4.63
  -4   0 -10  135.13    2.32
   4   0  11    1.39    1.82
  -4   0 -11    1.01    0.74
   4   0  12 1123.49   13.86
   4   0  13    1.37    2.48
   4   0  14  220.72    7.31
   4   0  15   -1.35    2.75
   4   0  16   35.02    4.16
   4   0  17   -3.82    3.40
   4   0  18   22.46    4.21
   4   0  19   -2.30    3.64
   4   0  20   45.91    5.51
   4   0  21    0.54    4.25
   4  -2 -22   12.22    4.86
  -4  -2  22   31.60    5.64
  -4   2  22   23.02    4.96
  -4  -2  21    2.63    4.44
  -4   2  21    1.45    4.02
  -4  -2  20   46.45    5.53
  -4   2  20   37.26    5.01
  -4  -2  19   14.53    4.02
  -4   2  19   15.67    4.12
  -4   2  18   25.18    4.39
  -4  -2  18   17.96    3.94
  -4  -2  17   26.16    3.98
  -4   2  17   21.51    4.12
  -4   2  16   62.15    5.09
  -4  -2  16   52.43    4.50
  -4   2  15    0.13    3.06
  -4  -2  15    3.33    2.81
  -4   2  14  190.11    7.17
  -4  -2  14  185.71    6.64
  -4  -2  13   13.36    2.53
  -4   2  13    8.84    2.74
  -4  -2  12   99.12    4.40
  -4   2  12   88.87    4.68
  -4  -2  11    2.14    1.76
  -4  -2  11    3.70    1.23
  -4   2  11    5.94    2.22
  -4   2  10  537.45    9.41
   4   2 -10  551.54    8.79
  -4  -2  10  482.25    8.20
  -4  -2  10  482.48    5.92
   4   2 -10  485.89    6.50
  -4  -2  10  483.63    8.40
  -4  -2   9 1182.73   12.03
   4   2  -9 1308.41   12.64
  -4   2   9 1307.96   13.89
  -4  -2   9 1240.41    9.25
   4  -2  -9 1203.04   12.48
   4   2  -9 1195.09    9.96
  -4  -2   9 1255.65   12.72
  -4   2   8  995.39   11.30
   4   2  -8 1051.23   10.56
  -4  -2   8  947.94   10.09
   4  -2  -8 1029.31   11.26
  -4  -2   8 1005.98    8.25
   4   2  -8  996.47    8.79
  -4  -2   8 1016.86   10.78
  -4  -2   8  995.48    3.98
   4   2  -7  223.36    4.56
   4  -2  -7  221.38    5.24
  -4  -2   7  214.55    4.58
  -4   2   7  230.19    5.31
  -4  -2   7  239.16    4.04
   4  -2  -7  221.56    5.16
   4   2  -7  235.93    4.30
  -4  -2   7  218.02    2.52
  -4  -2   7  219.35    4.68
   4  -2  -6 1227.65   11.21
  -4   2   6 1156.92   10.87
  -4   2   6 1239.94   11.56
   4  -2  -6 1236.14   11.34
   4   2  -6 1287.57   10.01
  -4  -2   6 1241.09   10.24
  -4  -2   6 1258.25    6.67
   4   2  -6 1265.72    9.91
   4  -2  -6 1177.57   11.07
   4   2  -6 1315.51    9.18
  -4   2   5  233.17    4.81
   4   2  -5  251.89    4.22
   4   2  -5  224.82    3.99
   4  -2  -5  227.28    4.67
   4   2  -5  238.24    2.93
  -4   2   5  216.94    4.46
   4  -2  -5  221.29    4.53
   4   2  -5  241.14    3.58
  -4  -2   5  235.07    3.01
  -4  -2   5  236.41    4.27
   4  -2  -4 1750.21    5.21
   4  -2  -4 1679.02    6.35
   4   2  -4 1880.17    9.93
   4   2  -4 1848.57    8.51
   4   2  -4 1857.07   10.69
  -4   2   4 1700.53   11.66
   4   2  -4 1826.40    7.65
  -4  -2   4 1790.60   10.60
  -4  -2   4 1824.22    8.03
   4  -2  -4 1774.73   11.90
   4   2  -3  590.29    4.82
   4   2  -3  567.39    4.05
   4  -2  -3  540.32    4.35
   4  -2  -3  535.39    6.18
  -4  -2   3  575.56    5.92
  -4   2   3  526.63    6.25
   4   2  -3  587.66    4.13
  -4  -2   3  571.75    4.47
   4  -2  -3  528.34    3.33
   4  -2  -2 4787.22   13.00
   4   2  -2 4920.72   11.12
  -4  -2   2 4900.16   12.54
   4   2  -2 4907.09   13.44
   4  -2  -2 4834.58   17.81
   4   2  -2 4885.22   11.29
  -4   2   2 4804.71   18.07
  -4  -2   2 4909.74   16.25
   4   2  -2 4920.66    9.79
  -4  -2   2 4870.97   12.76
   4  -2  -2 4870.97   11.35
   4  -2  -1  121.65    2.16
  -4  -2   1  132.62    2.35
  -4   2   1  115.91    2.76
   4   2  -1  121.25    1.41
  -4  -2   1  130.17    1.33
   4   2  -1  122.58    1.30
  -4   2   1  100.32    1.63
  -4   2   1  105.47    1.49
   4  -2  -1  110.14    2.67
   4   2  -1  136.18    1.37
  -4  -2   1  116.61    1.92
   4  -2  -1  127.62    2.03
  -4   2   0 1804.26    7.27
  -4   2   0 1773.40   10.42
  -4  -2   0 1909.58    7.42
   4   2   0 1814.53    4.74
  -4   2   0 1802.11    8.06
   4  -2   0 1834.34    8.52
  -4  -2   0 1877.35    4.85
   4  -2   0 1762.31   10.24
  -4  -2   0 1905.85    7.35
   4  -2   0 1892.86    7.75
  -4  -2  -1  129.19    1.57
  -4  -2  -1  136.46    1.53
  -4  -2  -1  138.18    1.61
   4  -2   1  129.93    2.31
  -4   2  -1  117.95    2.10
   4   2   1  136.55    1.68
  -4   2  -1  136.53    2.97
   4  -2   1  136.42    2.98
   4  -2   1  144.15    2.20
  -4   2  -2 1589.64    8.26
   4  -2   2 1594.01    8.09
  -4   2  -2 1620.17   10.37
  -4  -2  -2 1529.96    6.55
   4  -2   2 1559.29   10.02
   4   2   2 1617.72    7.06
   4  -2   2 1628.65    7.24
  -4   2  -2 1587.17    7.19
   4   2   3  403.71    4.12
   4  -2   3  365.86    4.88
  -4   2  -3  403.23    5.30
   4  -2   3  396.76    4.11
   4  -2   3  397.00    4.48
  -4   2  -3  400.82    4.38
   4  -2   3  379.34    5.09
  -4  -2  -3  391.78    3.98
   4  -2   3  411.95    3.70
  -4   2  -3  367.82    3.48
   4  -2   4  976.21    6.06
   4  -2   4  988.62    7.48
   4  -2   4  962.48    8.16
  -4   2  -4 1022.64    8.94
  -4  -2  -4  995.68    7.07
   4  -2   4 1009.05    8.80
  -4   2  -4  986.42    7.08
   4  -2   4 1022.95    5.60
  -4   2  -4  984.79    6.08
   4  -2   5 2124.98   12.88
   4  -2   5 2120.75   11.51
   4  -2   5 2151.28    8.04
   4  -2   5 2192.76   13.53
  -4  -2  -5 2169.88   11.76
   4  -2   5 2145.54    7.46
  -4   2  -5 2107.63    9.12
  -4  -2  -6  505.40    6.35
   4  -2   6  482.59    6.54
   4  -2   6  486.49    5.92
   4   2   6  519.85    6.54
   4  -2   6  514.44    7.16
   4   2   6  507.61    6.11
  -4   2  -6  488.13    4.66
  -4   2  -7   12.72    0.95
   4  -2   7    9.93    1.45
   4  -2   7    8.70    1.40
   4   2   7    8.19    1.26
   4   2   7   10.95    1.48
   4   2   8  146.92    4.14
   4  -2   8  133.49    3.54
   4  -2   8  141.77    4.07
   4  -2   8  142.32    4.32
   4   2   8  147.49    4.03
  -4   2  -8  132.23    2.69
   4   2   9   20.55    2.08
   4  -2   9   17.51    1.81
   4  -2   9   21.65    2.20
   4  -2  10  314.13    6.87
   4  -2  10  308.45    5.93
   4  -2  11   33.71    3.00
   4   2  11   27.89    2.77
   4  -2  11   32.02    2.46
   4  -2  12   65.67    4.02
   4  -2  12   62.21    3.33
   4   2  12   60.94    3.83
   4  -2  13   31.41    3.41
   4  -2  13   36.31    3.03
   4   2  13   25.03    3.08
   4   2  14   62.19    4.38
   4  -2  14   56.82    3.77
   4  -2  14   53.47    4.24
   4   2  15   15.90    3.41
   4  -2  15   15.10    3.37
   4  -2  16   75.71    5.32
   4   2  16   73.23    5.32
   4  -2  17    0.21    3.27
   4   2  17    0.47    3.12
   4   2  18   44.95    4.86
   4  -2  18   38.55    4.71
   4  -2  19    4.33    3.91
   4   2  19    1.19    3.80
   4   2  20   21.42    4.67
   4  -2  20   11.83    4.35
   4  -4 -21    2.60    4.22
  -4   4  21   -0.19    4.56
   4  -4 -20   41.99    5.60
  -4   4  20   24.71    5.09
   4  -4 -19   11.41    4.40
  -4  -4  19    7.34    3.93
  -4   4  19    7.58    3.91
  -4   4  18   51.38    5.29
  -4  -4  18   58.12    4.98
   4  -4 -18   52.39    5.61
   4  -4 -17    4.82    3.65
  -4  -4  17    9.12    3.48
  -4   4  17    0.77    3.42
  -4  -4  16   18.68    3.54
   4  -4 -16   16.95    4.03
  -4   4  16   22.33    3.94
   4  -4 -15    2.20    3.11
  -4  -4  15    0.22    2.83
  -4   4  15   -0.17    2.98
  -4  -4  14  282.33    8.08
   4  -4 -14  295.34    8.95
   4  -4 -13    0.45    2.62
  -4  -4  13    6.19    2.51
  -4  -4  13   -0.72    1.82
  -4   4  13   -0.47    2.65
   4  -4 -12  124.97    5.51
  -4  -4  12  129.56    5.08
  -4  -4  12  117.17    4.31
  -4   4  12  134.31    5.75
   4  -4 -11   47.13    3.58
  -4   4  11   47.64    3.74
  -4  -4  11   40.84    3.04
  -4  -4  11   40.60    2.73
   4  -4 -10  728.97   11.03
  -4  -4  10  706.20    9.55
  -4  -4   9  287.77    6.16
   4   4  -9  283.52    5.71
   4  -4  -9  295.79    6.79
   4  -4  -8  202.96    5.53
   4   4  -8  214.67    4.98
  -4   4   8  214.60    5.84
   4  -4  -8  201.89    5.46
   4   4  -8  209.83    4.80
  -4  -4   8  217.84    5.20
   4   4  -7    8.79    1.33
   4  -4  -7    8.09    1.55
  -4   4   7    9.00    1.94
   4  -4  -7    7.38    1.62
   4   4  -7   10.08    1.33
  -4  -4   7    9.62    1.79
  -4  -4   7   14.63    1.34
  -4  -4   7   10.54    1.55
   4   4  -6  476.57    6.04
  -4   4   6  470.48    7.90
   4  -4  -6  437.98    7.25
   4  -4  -6  465.05    7.85
   4   4  -6  450.58    6.15
  -4  -4   6  427.18    7.54
  -4  -4   6  430.90    5.35
   4   4  -5  117.14    2.71
   4  -4  -5  106.93    3.55
  -4  -4   5  113.07    2.73
   4   4  -5  107.90    2.20
  -4   4   5  124.85    4.08
   4   4  -5  123.72    3.21
   4  -4  -5  107.29    3.60
  -4  -4   5  110.61    2.75
  -4  -4   5  103.20    3.83
  -4  -4   5  120.71    2.96
   4  -4  -4   56.08    1.47
   4   4  -4   75.23    2.15
  -4  -4   4   69.64    2.14
   4  -4  -4   59.13    2.51
   4  -4  -4   62.90    2.61
   4   4  -4   64.54    1.48
  -4  -4   4   55.66    3.00
  -4  -4   4   70.74    2.00
   4   4  -4   73.06    1.87
  -4  -4   3    1.47    0.73
   4  -4  -3    1.91    1.10
   4  -4  -3    1.28    0.76
  -4  -4   3    3.03    1.51
   4  -4  -3    1.54    0.65
   4  -4  -3    0.66    0.97
   4   4  -3    2.01    0.42
   4  -4  -3    3.01    1.25
   4   4  -3    1.62    0.51
   4   4  -3    0.76    0.46
   4  -4  -2 3453.41   14.05
  -4  -4   2 3389.31   21.36
   4  -4  -2 3327.16   16.07
   4  -4  -2 3352.70   17.07
  -4  -4   2 3383.78   13.41
  -4   4   2 3425.36   19.39
   4  -4  -2 3363.48   12.69
   4  -4  -2 3493.59   17.44
   4  -4  -1   84.42    2.35
   4  -4  -1   85.44    2.20
  -4  -4   1   82.63    2.04
  -4  -4   1  105.15    2.79
  -4   4   1   88.21    3.16
  -4  -4   1   88.11    3.57
   4  -4  -1   97.43    3.18
   4  -4  -1   80.96    2.51
   4  -4  -1   91.61    2.95
   4  -4   0  138.00    3.06
  -4  -4   0  158.13    2.78
  -4  -4   0  151.38    4.50
   4  -4   0  150.31    3.70
  -4   4   0  160.74    4.18
   4  -4   0  153.95    3.63
   4  -4   0  149.43    2.95
   4  -4   0  156.11    3.28
   4  -4   1  128.63    3.01
  -4  -4  -1  133.65    2.12
  -4  -4  -1  137.60    2.23
   4  -4   1  140.42    2.93
  -4  -4  -1  143.05    4.13
  -4   4  -1  107.89    2.03
   4  -4   1  144.35    3.77
  -4   4  -1   99.28    1.85
   4  -4   1  130.00    3.32
  -4   4  -2  563.78    5.36
   4  -4   2  588.10    6.04
   4  -4   2  609.74    7.30
  -4  -4  -2  575.18    3.26
  -4  -4  -2  588.93    7.91
  -4  -4  -2  591.80    3.30
   4  -4   2  610.42    7.56
   4  -4   2  549.91    6.41
  -4  -4  -3    2.95    0.55
  -4   4  -3    3.17    0.86
   4  -4   3    3.34    1.21
   4  -4   3    3.24    1.05
   4  -4   3    5.46    0.91
   4  -4   3    4.61    1.12
   4  -4   4  109.13    3.13
  -4   4  -4  102.46    2.62
   4  -4   4  101.80    2.74
   4  -4   4  107.14    3.33
   4  -4   4  108.17    3.36
  -4   4  -5  485.56    5.70
   4  -4   5  507.40    5.99
   4  -4   5  507.48    6.98
   4  -4   5  532.94    7.60
   4  -4   5  537.51    7.48
  -4   4  -6  981.30    8.44
   4  -4   6  993.46   10.07
   4  -4   6 1013.86   10.56
   4  -4   6 1001.53   10.67
  -4   4  -7   28.41    1.70
   4  -4   7   35.33    2.40
   4  -4   7   31.81    2.31
   4  -4   8  289.96    6.09
   4  -4   8  271.30    5.71
   4  -4   9    3.73    1.77
   4  -4   9    1.92    1.85
   4  -4  10  453.14    8.68
   4  -4  10  447.82    8.28
   4  -4  11    0.93    1.98
   4  -4  12   10.11    2.66
   4  -4  12   11.37    2.57
   4  -4  13    1.45    2.57
   4  -4  13    1.94    2.64
   4  -4  14   88.84    4.89
   4  -4  14   96.63    5.44
   4  -4  15   15.11    3.21
   4  -4  15   11.26    3.37
   4  -4  16   74.97    5.57
   4  -4  16   77.20    5.21
   4  -4  17   -1.75    3.26
   4  -4  17    1.44    3.35
   4  -4  18   37.04    4.74
   4  -4  18   -3.42    3.90
   4  -4  19   -1.28    3.66
  -4  -6  15   -1.29    2.65
   4  -6 -14   23.76    3.80
  -4  -6  14   21.81    3.16
   4  -6 -13    2.58    2.99
  -4  -6  13    1.79    2.37
  -4   6  13   -0.50    2.96
  -4   6  12  197.03    7.22
   4  -6 -12  203.05    7.30
  -4   6  11   52.42    3.93
  -4  -6  11   54.35    3.95
  -4  -6  10   79.05    4.43
   4  -6 -10   75.77    4.37
  -4   6  10   80.96    4.38
   4  -6  -9    8.49    2.34
  -4  -6   9   15.26    2.75
  -4   6   9   10.64    2.46
  -4  -6   8   92.77    4.54
   4  -6  -8   91.78    4.12
   4  -6  -7   51.31    2.93
  -4  -6   7   63.25    4.01
   4  -6  -6  237.77    5.46
  -4  -6   6  259.12    7.05
   4  -6  -5   13.69    1.75
   4  -6  -5    9.91    1.08
  -4  -6   5   14.99    2.83
   4  -6  -4  310.35    4.28
   4  -6  -4  334.16    6.05
   4  -6  -4  387.27    8.35
  -4  -6   4  395.07    8.61
   4  -6  -3  145.01    5.26
  -4  -6   3  133.90    5.17
  -4  -6   2    1.95    2.14
   4  -6  -2    0.63    1.75
   4  -6  -2    1.57    1.18
  -4  -6   1  148.79    5.41
   4  -6  -1  140.39    3.82
   4  -6  -1  154.19    5.28
  -4  -6   0  458.44    9.07
   4  -6   0  437.07    8.24
  -4  -6  -1   36.26    3.13
   4  -6   1   31.92    1.93
   4  -6   1   28.95    2.68
   4  -6   1   29.92    2.07
  -4  -6  -2  273.66    7.24
  -4  -6  -2  274.65    3.82
   4  -6   2  264.19    5.00
   4  -6   2  291.19    7.01
   4  -6   2  277.13    5.52
   4  -6   3  109.52    3.36
  -4  -6  -3  124.10    5.08
  -4  -6  -3  108.08    2.28
   4  -6   3  119.63    4.67
  -4  -6  -4  226.00    6.68
   4  -6   4  229.19    6.44
   4  -6   4  221.64    4.98
   4  -6   5   26.79    2.15
  -4  -6  -5   25.39    2.86
   4  -6   5   26.58    2.75
   4  -6   6  194.87    5.05
  -4  -6  -6  197.01    6.23
   4  -6   6  201.04    6.08
   4  -6   7   32.59    3.17
   4  -6   7   35.70    2.72
  -4  -6  -7   40.02    3.43
   4  -6   8  247.61    6.17
   4  -6   8  230.50    6.69
  -4  -6  -8  247.73    7.15
   4  -6   9    2.18    2.07
   4  -6   9    1.04    2.36
   4  -6  10   25.45    3.02
   4  -6  10   29.80    3.39
   4  -6  11    1.90    2.61
   4  -6  11    3.68    2.71
   4  -6  12  145.36    6.23
   4  -6  12  130.51    5.79
   4  -6  13    4.36    2.81
   4  -6  14   67.11    5.10
   4  -6  14   70.60    4.93
   4  -6  15    2.74    3.35
   4  -6  15    7.44    3.34
   4  -6  16   14.65    3.69
   4  -6  17    0.59    3.43
  -4  -8  15    1.84    3.28
  -4  -8  13    3.93    3.26
  -4  -8  12   14.81    3.58
  -4  -8  11    2.10    3.14
  -4  -8  10   20.45    3.72
  -4  -8   9    5.36    3.12
  -4  -8   8  173.35    7.05
  -4  -8   7   27.91    4.02
  -4  -8   6  155.36    6.75
  -4  -8   5    4.00    2.90
  -4  -8   4  305.25    9.08
   4  -8  -3   -1.35    3.01
  -4  -8   3    3.87    3.29
   4  -8  -2  137.28    6.35
  -4  -8   2  129.78    6.01
   4  -8  -1   -0.93    2.59
  -4  -8   1    0.27    2.78
   4  -8   0  213.49    7.42
  -4  -8   0  213.94    7.45
  -4  -8  -1    3.86    3.13
   4  -8   1   -0.61    2.64
  -4  -8  -2  134.08    6.25
   4  -8   2  136.68    6.28
  -4  -8  -3   43.25    4.30
   4  -8   3   44.86    4.02
   4  -8   4  200.48    7.33
  -4  -8  -4  192.81    7.46
   4  -8   5    5.65    2.80
  -4  -8  -5   12.84    3.45
   4  -8   6    2.66    2.62
  -4  -8  -6    6.24    3.00
  -4  -8  -7    4.71    3.00
   4  -8   7    1.90    2.74
  -4  -8  -8    9.11    3.26
   4  -8   8   15.72    3.32
  -4  -8  -9   -0.10    3.03
   4  -8   9    9.66    3.02
   4  -8  10   21.29    3.59
  -4  -8 -10   15.92    3.71
  -4  -8 -11    0.32    3.31
   4  -8  11    0.13    2.97
  -4  -8 -12   25.05    4.47
   4  -8  12   20.76    3.89
   4  -8  13   -1.48    3.25
   4  -8  15    8.23    3.84
  -4 -10  12   13.93    4.01
  -4 -10  11    8.42    3.47
  -4 -10  10   26.52    4.40
  -4 -10   9   -0.83    3.55
  -4 -10   8   19.52    4.22
  -4 -10   7   -3.06    3.57
  -4 -10   6   17.08    3.99
  -4 -10   5    5.10    3.60
  -4 -10   4   -0.69    3.30
  -4 -10   3    0.20    3.34
  -4 -10   2   33.80    4.49
  -4 -10   1   11.48    3.93
   4 -10  -1    7.89    3.74
   4 -10   0   12.43    3.99
  -4 -10   0   16.09    4.09
   4 -10   1    7.42    3.49
  -4 -10  -1   -0.34    3.43
   4 -10   2   21.10    4.11
  -4 -10  -2   20.28    3.95
   4 -10   3   -1.04    3.26
  -4 -10  -3   -5.02    3.30
   4 -10   4   13.67    3.67
  -4 -10  -4   19.75    3.75
  -4 -10  -5    3.68    3.39
   4 -10   5    0.25    3.20
  -4 -10  -6   23.52    4.12
   4 -10   6   18.94    3.95
  -4 -10  -7    2.84    3.43
   4 -10   7    8.98    3.65
   4 -10   8   -0.02    3.96
  -4 -10  -8   32.17    4.58
   4 -10   9    1.11    3.28
  -4 -10  -9   -0.12    3.43
   4 -10  10   18.91    4.22
   5  -1 -22   -1.65    4.38
  -5  -1  22    2.34    4.44
  -5   1  22    6.31    4.58
  -5  -1  21   10.18    4.54
  -5   1  21   13.47    4.49
  -5  -1  20    6.01    4.35
  -5   1  20    2.57    3.93
  -5  -1  19   57.93    5.76
  -5   1  19   52.42    5.34
  -5  -1  18    0.27    3.66
  -5   1  18    6.23    3.91
  -5  -1  17  130.03    6.89
  -5   1  17  131.90    6.93
  -5   1  16   61.89    5.24
  -5  -1  16   48.36    4.65
  -5  -1  15  155.02    6.56
  -5   1  15  157.54    6.82
  -5   1  14   44.20    4.28
  -5  -1  14   48.31    3.91
  -5  -1  13   16.48    2.72
   5  -1 -13   19.47    1.39
   5  -1 -12    0.99    0.80
  -5  -1  12    4.08    2.07
  -5   1  12    1.63    2.26
   5  -1 -11  682.97    5.55
  -5  -1  11  666.12   10.36
  -5   1  11  704.49   11.44
   5   1 -11  693.86    8.00
   5  -1 -10    2.39    0.71
   5   1 -10    1.49    1.02
   5   1 -10    2.05    1.50
  -5  -1  10    0.93    1.62
  -5   1  10    0.22    1.78
   5  -1 -10    0.68    1.56
   5   1  -9  270.98    4.76
  -5  -1   9  251.72    5.86
  -5   1   9  276.63    6.57
   5   1  -9  262.31    5.81
   5  -1  -9  254.64    3.15
   5  -1  -9  267.46    6.04
   5   1  -8    0.60    0.49
   5  -1  -8    2.01    0.41
   5  -1  -8    1.88    0.66
   5   1  -8    1.74    0.91
  -5  -1   8   -0.23    1.30
  -5   1   8    3.02    1.39
   5   1  -8    4.17    1.29
   5  -1  -8    1.28    1.14
   5  -1  -7 1898.59   15.06
   5  -1  -7 2039.03    9.44
   5  -1  -7 1943.24   14.83
  -5   1   7 1890.66   15.17
  -5  -1   7 1855.04   14.72
   5   1  -7 1928.79   14.08
   5   1  -7 1949.32   12.22
   5   1  -7 2012.58   13.18
   5   1  -7 1908.24    8.50
   5  -1  -7 1890.42    6.61
  -5  -1   6 2852.06    8.84
   5  -1  -6 2748.79   17.03
  -5   1   6 2665.78   15.70
  -5   1   6 2781.71   17.45
   5  -1  -6 2774.32   16.77
   5   1  -6 2766.33   14.30
   5  -1  -6 2743.59   11.24
   5   1  -6 2819.23   15.95
   5   1  -6 2789.60   13.99
   5   1  -6 2747.37    9.80
   5  -1  -6 2797.13   16.14
  -5  -1   6 2756.07    7.86
   5  -1  -6 2740.54    7.84
   5   1  -5  839.57    7.68
   5  -1  -5  870.51    9.13
  -5   1   5  783.24    7.91
   5   1  -5  813.27    7.88
   5  -1  -5  824.53    6.65
   5  -1  -5  820.10    8.74
  -5  -1   5  858.20    6.18
  -5   1   5  817.27    9.00
   5   1  -5  733.01    4.61
   5   1  -5  874.67    7.35
  -5  -1   5  847.63    4.84
   5  -1  -5  834.74    4.49
   5   1  -4  115.36    2.83
   5  -1  -4   93.79    2.30
  -5   1   4   88.55    2.54
  -5  -1   4  100.78    2.40
   5   1  -4  117.02    3.05
   5  -1  -4  111.48    3.09
   5   1  -4  101.30    1.72
  -5  -1   4  113.85    1.92
   5   1  -4  111.41    2.45
   5  -1  -4  102.47    1.62
  -5  -1   4  100.62    2.32
  -5  -1   3 1527.13    9.05
  -5  -1   3 1565.69    8.16
   5  -1  -3 1634.70    8.94
   5  -1  -3 1647.69   10.86
  -5   1   3 1525.55    9.97
  -5   1   3 1418.37    5.33
   5   1  -3 1521.20    6.24
  -5  -1   3 1636.68    6.92
   5  -1  -3 1531.67    6.09
  -5   1   2  157.87    2.44
  -5  -1   2  183.39    2.98
   5  -1  -2  170.32    2.79
  -5   1   2  168.08    3.23
   5   1  -2  162.91    1.99
  -5  -1   2  175.24    2.57
   5   1  -2  183.17    2.87
   5  -1  -2  179.33    3.50
   5   1  -2  177.37    2.13
  -5  -1   2  175.75    2.26
   5  -1  -2  194.29    2.34
  -5   1   2  177.12    2.03
   5  -1  -1  523.77    4.69
  -5  -1   1  494.21    4.05
   5   1  -1  491.38    3.27
  -5   1   1  509.07    5.43
  -5   1   1  483.45    4.25
  -5  -1   1  509.99    4.40
   5  -1  -1  505.54    5.51
   5   1  -1  513.63    4.40
   5   1  -1  528.12    4.16
  -5  -1   1  507.18    3.76
   5  -1  -1  505.89    3.61
   5   1   0  228.17    1.90
  -5   1   0  241.32    3.04
  -5  -1   0  254.19    2.91
  -5  -1   0  243.41    2.85
  -5   1   0  246.19    3.79
   5  -1   0  241.68    3.78
   5   1   0  263.77    3.16
   5   1   0  245.17    2.21
   5  -1   0  267.42    3.35
  -5  -1   0  252.33    2.68
   5  -1   0  256.93    2.68
  -5   1   0  264.28    2.80
  -5  -1  -1 6087.60   13.19
  -5   1  -1 6105.59   15.36
  -5  -1  -1 6105.59   14.90
   5  -1   1 6102.59   19.13
   5   1   1 6018.79   14.91
  -5   1  -1 6115.58   18.84
  -5  -1  -1 6088.99   12.36
   5  -1   1 6060.67   12.34
  -5   1  -1 6057.15   13.28
   5  -1   2    9.90    0.76
  -5   1  -2   13.31    1.11
  -5  -1  -2    9.37    0.79
   5  -1   2   13.19    1.17
  -5   1  -2   11.07    0.85
  -5  -1  -2   10.94    0.65
  -5  -1  -2   10.24    0.59
   5  -1   2    8.98    0.59
  -5   1  -2    9.30    0.68
   5  -1   3  668.35    6.61
  -5   1  -3  711.44    5.66
   5  -1   3  694.90    5.66
  -5   1  -3  672.41    6.74
  -5  -1  -3  655.49    5.71
   5  -1   3  685.23    6.92
   5  -1   3  707.69    4.51
   5   1   3  673.09    5.90
  -5  -1  -3  675.70    3.94
  -5  -1  -3  659.05    3.61
   5  -1   3  601.17    3.39
  -5   1  -3  631.39    4.29
   5  -1   4  233.40    4.07
  -5   1  -4  266.52    3.65
  -5   1  -4  249.54    4.44
  -5  -1  -4  219.80    2.02
  -5  -1  -4  253.08    4.00
   5  -1   4  239.93    3.62
   5  -1   4  253.45    4.41
   5   1   4  253.78    3.99
  -5  -1  -4  225.46    1.91
  -5   1  -4  235.88    2.72
  -5  -1  -5  556.31    2.97
   5  -1   5  698.76    7.66
   5  -1   5  674.92    6.31
  -5   1  -5  731.55    6.36
   5   1   5  706.93    7.15
  -5  -1  -5  688.46    7.00
   5  -1   5  698.18    7.68
   5   1   5  725.22    7.28
  -5  -1  -5  574.65    2.75
  -5   1  -5  654.28    4.72
  -5   1  -6   75.28    2.22
   5   1   6   86.42    2.90
   5  -1   6   77.91    2.84
   5  -1   6   71.84    2.27
   5  -1   6   79.22    2.92
   5   1   6   71.09    2.58
  -5   1  -6   76.38    1.77
  -5   1  -7  243.40    4.08
   5  -1   7  235.14    5.10
   5   1   7  244.97    5.15
   5  -1   7  235.84    5.12
   5   1   7  231.03    4.85
  -5   1  -7  233.71    3.18
   5  -1   8  749.34    9.23
   5   1   8  824.07    9.93
   5  -1   8  750.82    8.01
   5  -1   8  814.25   10.30
   5   1   8  853.96    9.96
  -5   1  -8  748.83    5.91
   5  -1   9  647.80    9.32
   5   1   9  704.29    9.76
   5  -1   9  614.43    7.54
  -5   1  -9  674.19    6.07
   5  -1  10   10.93    2.09
   5   1  10    9.86    1.98
   5  -1  10   12.10    1.73
   5   1  11  141.26    5.08
   5  -1  11  131.87    4.29
   5   1  12   10.12    2.59
   5  -1  12    8.00    2.39
   5  -1  13  197.05    6.77
   5   1  13  226.61    7.25
   5  -1  14   13.08    3.17
   5   1  14    9.52    2.97
   5   1  15   29.27    3.84
   5  -1  15   19.79    3.48
   5  -1  16    7.46    3.33
   5   1  16   -0.29    3.02
   5  -1  17   38.71    4.52
   5   1  17   42.48    4.60
   5  -1  18    7.59    3.79
   5   1  18    2.80    3.71
   5  -1  19   38.57    5.17
   5   1  19   41.36    5.06
   5  -1  20    3.44    4.13
   5   1  20   -1.68    3.96
   5  -3 -22   -4.66    4.46
  -5  -3  22    1.93    4.24
  -5  -3  21   41.92    5.63
  -5   3  21   39.24    5.74
   5  -3 -21   46.81    6.11
   5  -3 -20   -0.53    4.07
  -5  -3  20   -3.02    4.31
  -5   3  20    0.20    3.97
   5  -3 -19   29.17    5.03
  -5  -3  19   35.40    5.09
  -5   3  19   35.52    5.14
   5  -3 -18    7.99    4.05
  -5  -3  18    5.06    3.64
  -5   3  18   -0.74    3.63
  -5  -3  17   42.25    4.61
  -5   3  17   46.08    5.12
   5  -3 -17   38.33    4.82
   5  -3 -16    0.85    3.38
  -5  -3  16    0.13    2.92
  -5   3  16    5.71    3.65
   5  -3 -15  206.38    7.99
  -5   3  15  201.56    7.92
  -5  -3  15  211.89    7.57
   5  -3 -14   10.31    3.08
  -5  -3  14    8.68    2.86
  -5   3  14   12.78    3.35
   5  -3 -13  861.25   14.08
  -5  -3  13  892.67   13.15
  -5   3  13  884.51   14.38
  -5   3  12   12.03    2.92
   5  -3 -12    6.77    2.63
  -5  -3  12    6.90    2.26
   5  -3 -11   92.69    4.64
  -5  -3  11   93.53    4.14
  -5  -3  11   86.41    3.24
  -5   3  11   95.22    4.76
  -5  -3  10    3.36    1.27
  -5  -3  10    3.06    1.64
   5  -3 -10    4.20    1.97
  -5  -3  10    2.87    1.70
  -5   3  10    3.93    2.14
   5   3 -10    4.54    1.70
  -5   3   9 1276.92   14.66
   5   3  -9 1306.08   12.89
  -5  -3   9 1139.30   11.91
  -5  -3   9 1161.66   10.78
   5  -3  -9 1127.91   13.07
   5   3  -9 1143.49   11.23
  -5  -3   9 1221.16   12.76
   5  -3  -8  158.36    4.89
  -5  -3   8  145.52    4.10
  -5   3   8  167.20    5.20
   5  -3  -8  159.31    4.91
  -5  -3   8  149.00    3.86
   5   3  -8  146.93    3.89
  -5  -3   8  160.00    4.52
   5  -3  -7  153.15    4.72
  -5  -3   7  153.40    3.97
  -5   3   7  175.77    5.24
   5  -3  -7  155.42    4.70
   5   3  -7  163.30    4.03
  -5  -3   7  147.19    3.95
   5   3  -7  152.51    3.38
   5   3  -7  190.17    4.45
  -5  -3   7  210.70    3.89
   5  -3  -6   27.81    0.77
   5  -3  -6   30.17    0.96
   5   3  -6   43.34    2.13
   5   3  -6   50.29    2.15
  -5   3   6   54.00    3.05
   5  -3  -6   45.37    2.64
   5  -3  -6   44.99    2.64
   5   3  -6   45.72    1.71
  -5  -3   6   45.37    2.49
   5  -3  -5  618.83    4.35
   5  -3  -5  693.19    8.88
   5  -3  -5  617.12    5.14
   5   3  -5  745.21    6.82
  -5   3   5  726.89    9.40
   5  -3  -5  674.86    8.54
   5   3  -5  715.99    5.62
  -5  -3   5  623.62    8.00
  -5  -3   5  708.22    6.25
   5   3  -4  126.96    2.54
   5   3  -4  135.19    3.06
   5  -3  -4  115.86    3.53
   5  -3  -4  116.83    2.41
   5   3  -4  120.85    2.01
   5  -3  -4  122.36    3.63
  -5  -3   4  109.54    2.38
  -5  -3   4  111.09    3.64
   5  -3  -4  125.72    2.27
  -5   3   3  472.93    6.90
   5  -3  -3  486.92    6.52
  -5  -3   3  495.87    4.86
   5   3  -3  522.51    4.08
   5  -3  -3  519.12    7.10
   5   3  -3  549.77    5.04
  -5  -3   3  487.23    7.24
   5  -3  -3  490.41    4.91
   5   3  -3  510.55    3.21
  -5  -3   3  516.16    5.10
   5  -3  -3  440.01    3.93
   5  -3  -2    8.79    1.20
   5   3  -2   10.25    0.59
   5  -3  -2    9.86    0.94
  -5  -3   2   10.63    0.92
  -5   3   2    9.20    1.30
   5  -3  -2   10.08    1.29
  -5  -3   2    8.71    1.45
  -5  -3   2   10.39    1.10
   5  -3  -2    9.74    0.84
  -5  -3   1 1830.84   13.42
  -5   3   1 1828.70   13.01
  -5  -3   1 1877.18    9.38
   5  -3  -1 1771.87   11.72
   5  -3  -1 1784.68   12.26
   5  -3  -1 1755.91    9.37
   5  -3  -1 1927.53    9.59
  -5   3   0  186.09    2.57
   5  -3   0  192.73    3.76
  -5  -3   0  228.81    3.07
   5  -3   0  201.18    3.21
  -5   3   0  207.05    4.24
   5  -3   0  214.14    4.21
  -5   3   0  177.70    2.61
  -5  -3   0  196.46    2.82
   5  -3   0  213.06    3.21
  -5   3  -1  467.24    4.38
   5  -3   1  498.38    5.25
   5  -3   1  480.23    5.89
  -5  -3  -1  480.49    3.94
  -5  -3  -1  501.61    2.25
  -5  -3  -1  508.85    3.95
   5  -3   1  485.60    6.39
   5  -3   1  530.24    5.63
   5   3   1  512.07    2.31
  -5   3  -2  209.19    3.32
   5  -3   2  188.71    3.32
  -5  -3  -2  192.27    1.99
   5  -3   2  201.65    3.71
  -5  -3  -2  186.49    2.07
   5  -3   2  190.14    3.92
   5  -3   2  200.45    4.25
   5   3   2  204.53    2.34
   5  -3   3  893.47    7.19
   5  -3   3  896.53    7.92
  -5  -3  -3  903.89    5.66
   5  -3   3  866.71    8.34
   5  -3   3  888.52    8.81
   5   3   3  887.32    5.64
  -5   3  -4   22.48    1.15
   5  -3   4   26.30    1.74
   5  -3   4   26.00    1.43
   5  -3   4   27.52    1.66
  -5  -3  -4   24.49    1.21
   5  -3   4   23.45    1.73
   5   3   4   28.56    1.33
  -5   3  -5  555.86    5.47
   5  -3   5  591.79    7.41
   5  -3   5  578.86    5.58
   5   3   5  651.52    6.88
   5  -3   5  587.33    7.01
  -5  -3  -5  629.14    6.31
   5  -3   5  631.87    8.31
   5   3   5  622.50    6.11
  -5   3  -6   45.65    1.76
   5   3   6   59.69    2.47
   5  -3   6   56.11    2.71
   5  -3   6   62.24    2.55
  -5  -3  -6   51.69    2.13
   5  -3   6   48.75    2.62
   5   3   6   69.80    2.35
   5  -3   7  696.77    8.91
   5  -3   7  715.40    8.52
   5  -3   8   24.41    1.87
   5  -3   8   27.70    2.40
   5   3   8   20.50    1.70
   5  -3   9  135.96    4.23
   5   3   9  146.65    4.46
   5  -3   9  140.88    4.61
   5  -3  10   17.29    2.30
   5  -3  10   13.13    2.28
   5   3  10   10.16    1.97
   5  -3  11  415.95    8.68
   5  -3  11  427.51    8.07
   5   3  11  413.23    8.21
   5  -3  12    5.40    2.25
   5  -3  12   -0.08    2.50
   5   3  12    1.28    2.14
   5  -3  13   49.16    3.63
   5  -3  13   56.66    4.24
   5   3  13   47.22    3.72
   5  -3  14   -2.18    2.46
   5  -3  14    1.34    2.72
   5   3  14   -1.29    2.62
   5   3  15  209.74    7.44
   5  -3  15  200.63    6.93
   5  -3  15  201.36    7.58
   5  -3  16    2.22    3.32
   5   3  16   -0.02    3.05
   5  -3  17   63.11    5.45
   5   3  17   72.14    5.59
   5  -3  18   -0.82    3.65
   5   3  18   -0.87    3.69
   5  -3  19   17.60    4.36
   5   3  19    9.07    4.14
   5  -3  20    1.33    3.95
   5   3  20   -1.13    4.19
   5  -5 -20    4.49    4.40
  -5   5  20    5.58    4.73
  -5   5  19   23.41    5.21
   5  -5 -19   21.55    4.93
   5  -5 -18    2.58    3.96
  -5   5  18    0.61    4.02
  -5   5  17   36.39    4.97
   5  -5 -17   37.07    4.95
   5  -5 -16    9.85    3.72
  -5   5  16    5.24    3.69
   5  -5 -15   11.09    3.63
  -5   5  15    5.89    3.42
   5  -5 -14   19.86    3.80
  -5   5  14   24.51    3.95
   5  -5 -13   65.68    4.81
  -5  -5  13   66.04    3.85
   5  -5 -12    3.41    2.54
  -5   5  12    2.03    2.82
  -5  -5  12    0.07    2.09
  -5   5  11  120.74    5.74
  -5  -5  11  111.55    4.71
   5  -5 -11  106.79    5.11
  -5  -5  10    6.46    2.19
   5  -5 -10    4.41    2.25
  -5   5  10   10.46    2.66
   5  -5  -9   95.90    5.09
  -5   5   9   85.85    4.45
  -5  -5   9   83.89    3.98
  -5   5   8   34.58    3.09
   5  -5  -8   32.13    2.92
  -5  -5   8   25.25    2.63
   5  -5  -7  114.46    4.38
  -5  -5   7  126.13    4.78
  -5  -5   7  123.85    3.42
   5  -5  -6  458.62    7.45
  -5  -5   6  478.74    6.34
  -5  -5   5 1026.17    9.00
   5  -5  -5  965.29   10.35
   5  -5  -5 1023.70   11.38
   5  -5  -5  963.18    7.42
  -5  -5   5 1032.66   12.55
  -5  -5   5 1035.07    9.20
  -5  -5   4  118.33    3.12
   5  -5  -4  104.75    2.57
   5  -5  -4  115.82    3.81
   5  -5  -4  115.41    3.63
   5  -5  -4  124.91    3.94
  -5  -5   4  130.12    4.74
   5  -5  -3  714.96    6.76
  -5  -5   3  824.74    8.14
   5  -5  -3  738.31    8.45
   5  -5  -3  738.64    8.91
   5  -5  -3  810.09    9.66
  -5  -5   3  760.86   10.89
  -5  -5   2    4.66    1.12
   5  -5  -2    4.65    0.98
   5  -5  -2    4.45    1.26
   5  -5  -2    6.02    1.43
  -5  -5   2    7.52    2.04
   5  -5  -2    4.46    1.52
  -5  -5   1  986.63   12.25
   5  -5  -1  963.13    9.09
   5  -5  -1  961.67    8.14
  -5  -5   1  964.27    7.85
  -5  -5   0   77.82    2.25
   5  -5   0   71.16    2.68
   5  -5   0   75.36    2.50
   5  -5   0   81.51    3.14
   5  -5   1  682.34    7.20
   5  -5   1  716.48    7.98
  -5  -5  -1  778.10    6.72
  -5  -5  -1  721.37   10.25
   5  -5   1  763.85    9.56
   5  -5   1  725.16    8.69
  -5  -5  -2   27.01    1.28
  -5  -5  -2   31.29    2.59
   5  -5   2   26.87    1.76
   5  -5   2   28.45    2.32
   5  -5   2   24.69    1.82
   5  -5   2   34.93    2.29
   5  -5   3  696.34    8.23
  -5  -5  -3  670.97    4.72
   5  -5   3  682.83    7.55
  -5  -5  -3  675.37    9.54
   5  -5   3  731.54    9.44
   5  -5   3  718.87    9.00
   5  -5   4    6.31    1.32
   5  -5   4    4.23    1.39
   5  -5   4    4.24    1.63
   5  -5   5  341.22    6.93
   5  -5   5  329.28    6.23
   5  -5   6   99.13    3.97
   5  -5   6  107.00    3.90
   5  -5   7  340.78    7.10
   5  -5   7  350.98    6.98
   5  -5   8  156.00    5.00
   5  -5   8  176.86    5.53
   5  -5   9   43.20    3.31
   5  -5   9   40.64    3.13
   5  -5  10    5.99    2.46
   5  -5  10   -0.30    2.29
   5  -5  11   15.54    2.87
   5  -5  11   26.35    3.00
   5  -5  12   12.03    2.87
   5  -5  12    3.27    2.71
   5  -5  13   58.14    4.44
   5  -5  13   57.05    4.55
   5  -5  14    8.68    2.69
   5  -5  14   -0.82    2.96
   5  -5  15   35.57    4.16
   5  -5  15   31.03    4.20
   5  -5  16    2.40    3.22
   5  -5  16    3.39    3.42
   5  -5  17    6.36    3.50
   5  -5  17   13.10    3.95
   5  -5  18    0.98    3.65
   5  -5  18   20.05    4.24
  -5  -7  14    8.20    3.10
  -5  -7  13   16.64    3.27
  -5  -7  12    6.95    2.94
  -5  -7  11  204.20    7.40
  -5  -7  10   -1.12    2.75
  -5  -7   9  111.74    5.56
  -5  -7   8   19.76    3.53
  -5  -7   7  285.41    8.35
  -5  -7   6   33.24    3.82
  -5  -7   5   79.63    4.94
  -5  -7   4    1.90    2.66
   5  -7  -3   85.66    4.61
  -5  -7   3   85.10    4.76
  -5  -7   2    4.74    2.68
   5  -7  -2    1.73    2.12
  -5  -7   1    8.54    2.68
   5  -7  -1    5.05    2.30
   5  -7   0   16.48    2.84
  -5  -7   0   18.26    3.10
  -5  -7  -1  401.74    9.33
   5  -7   1  460.72    9.74
   5  -7   2   62.05    4.09
  -5  -7  -2   52.30    4.00
   5  -7   3   39.79    3.53
  -5  -7  -3   34.30    3.59
  -5  -7  -4   32.07    3.59
   5  -7   4   25.79    3.04
  -5  -7  -5   68.53    4.54
   5  -7   5   67.19    4.30
   5  -7   6   -2.18    2.50
  -5  -7  -6    0.74    2.64
  -5  -7  -7   40.14    3.94
   5  -7   7   32.18    3.18
  -5  -7  -8    6.14    2.86
   5  -7   8    8.10    2.66
  -5  -7  -9  111.84    5.66
   5  -7   9  125.94    5.80
   5  -7  10    7.72    3.01
  -5  -7 -10   10.39    3.19
  -5  -7 -11   56.53    4.59
   5  -7  11   60.75    4.63
  -5  -7 -12    2.54    3.08
   5  -7  12    5.36    3.33
   5  -7  13   62.18    4.84
  -5  -7 -13   53.41    4.75
  -5  -7 -14   -1.43    3.36
   5  -7  14   -1.18    3.30
   5  -7  15   13.58    4.04
   5  -7  16   22.33    4.14
  -5  -9  14   19.86    4.07
  -5  -9  13   15.24    3.89
  -5  -9  12    5.12    3.25
  -5  -9  11    6.58    3.60
  -5  -9  10    2.68    3.32
  -5  -9   9   46.52    4.84
  -5  -9   8   17.13    3.85
  -5  -9   7   38.72    4.39
  -5  -9   6    4.19    3.36
  -5  -9   5   16.34    3.74
  -5  -9   4    5.20    3.38
  -5  -9   3   66.36    5.30
  -5  -9   2    5.98    3.50
   5  -9  -1   96.82    5.91
  -5  -9   1   79.89    5.36
   5  -9   0    7.68    3.39
  -5  -9   0    9.73    3.39
   5  -9   1   36.16    4.17
  -5  -9  -1   38.12    4.17
  -5  -9  -2   10.64    3.41
   5  -9   2    9.43    3.34
   5  -9   3   51.53    4.53
  -5  -9  -3   46.27    4.49
  -5  -9  -4    5.55    3.31
   5  -9   4    6.64    3.04
  -5  -9  -5   42.64    4.42
   5  -9   5   44.96    4.37
  -5  -9  -6    5.93    3.38
   5  -9   6    4.42    3.22
  -5  -9  -7   12.85    3.64
  -5  -9  -8    6.02    3.40
   5  -9   8   -0.11    2.85
   5  -9   9   19.62    3.77
  -5  -9  -9   18.43    3.95
   5  -9  10   -3.95    3.21
  -5  -9 -10   -0.61    3.39
   5  -9  11   16.84    3.86
  -5  -9 -11   12.40    3.89
   5  -9  12   -0.09    3.41
  -5 -11   7    2.28    3.58
  -5 -11   6    1.38    3.35
  -5 -11   5   32.40    4.33
  -5 -11   4    7.09    3.51
  -5 -11   3   20.60    4.11
  -5 -11   2    1.97    3.33
  -5 -11   1   27.59    4.41
  -5 -11   0    2.54    3.44
   5 -11   1   12.33    3.67
  -5 -11  -1   11.09    3.89
  -5 -11  -2   -0.37    3.47
   5 -11   2    1.63    3.38
  -5 -11  -3   18.26    4.03
   5 -11   3   16.93    4.06
  -5 -11  -4    0.10    3.36
   5 -11   4    1.14    3.63
   5 -11   5   28.51    4.37
  -5 -11  -5   10.91    3.78
   6   0 -22   32.45    5.45
  -6   0  22   19.92    5.16
  -6   0  21    0.46    4.00
  -6   0  20    2.07    3.89
  -6   0  19   -1.02    3.79
  -6   0  18  194.58    8.57
  -6   0  17    0.69    3.60
  -6   0  16  117.27    6.49
  -6   0  15    4.07    3.14
  -6   0  14  139.85    6.34
  -6   0  13    1.46    2.47
  -6   0  12  383.41    8.92
   6   0 -11   -0.06    1.18
  -6   0  11    0.69    2.08
   6   0 -10 3456.97   23.42
   6   0 -10 3380.17   16.95
   6   0  -9    0.14    0.51
  -6   0   9   -0.03    1.55
   6   0  -9   -0.11    1.36
  -6   0   8  197.57    5.34
   6   0  -8  227.20    5.49
   6   0  -8  236.14    4.57
   6   0  -8  192.41    2.68
   6   0  -7   -0.74    0.50
   6   0  -7    1.06    0.94
   6   0  -7    1.86    1.39
  -6   0   7    0.72    1.30
   6   0  -7    3.97    1.29
   6   0  -6 2395.72   13.65
  -6   0   6 2255.77   13.48
   6   0  -6 2626.07   16.72
   6   0  -6 2485.40   16.43
  -6   0   6 2284.98   16.42
   6   0  -6 2335.97    8.84
   6   0  -6 2472.69   14.44
   6   0  -5    0.66    0.42
  -6   0   5    0.30    0.40
   6   0  -5    0.40    0.80
   6   0  -5    0.13    1.12
  -6   0   5    0.56    1.20
  -6   0   5    0.45    0.74
   6   0  -5   -0.10    0.98
  -6   0   4  109.60    2.30
   6   0  -4  108.77    2.78
  -6   0   4  114.83    2.82
   6   0  -4  114.40    1.89
  -6   0   4  105.55    1.63
   6   0  -3    0.70    0.40
  -6   0   3    0.49    0.43
  -6   0   3    0.33    0.62
   6   0  -3   -0.01    0.65
  -6   0   3    0.50    0.61
   6   0  -3   -0.37    0.83
   6   0  -2 1401.53    8.43
  -6   0   2 1421.41    9.03
   6   0  -2 1423.33    9.86
   6   0  -2 1372.43    6.32
  -6   0   2 1408.72    6.66
  -6   0   2 1409.99    8.59
   6   0  -1    0.16    0.34
  -6   0   1    0.57    0.46
  -6   0   1   -0.16    0.51
  -6   0   1    0.58    0.60
   6   0  -1   -0.93    0.73
  -6   0   0  369.75    3.95
   6   0   0  379.31    3.84
  -6   0   0  377.04    4.56
   6   0   0  362.20    4.62
   6   0   0  350.36    3.03
  -6   0   0  384.62    3.57
   6   0   1   -0.07    0.33
  -6   0  -1    0.61    0.49
  -6   0  -1    0.02    0.55
   6   0   1    0.03    0.47
  -6   0  -1    0.34    0.60
   6   0   1    0.63    0.72
   6   0   2 1462.19    4.02
  -6   0  -2 2391.27   12.09
  -6   0  -2 2337.55    9.84
   6   0   2 2314.00   11.93
  -6   0  -2 2336.08    8.57
   6   0   3    0.26    0.73
   6   0   3   -0.28    0.79
  -6   0  -3    0.23    0.47
  -6   0  -3    0.43    0.54
  -6   0  -3    0.59    0.72
  -6   0  -4  608.84    5.12
   6   0   4  652.68    7.14
  -6   0  -4  629.17    6.94
   6   0   4  640.62    7.11
  -6   0  -4  626.60    4.62
   6   0   5   -0.31    0.91
  -6   0  -5    1.06    0.54
  -6   0  -5    1.36    0.68
  -6   0  -6  582.69    5.72
   6   0   6  581.16    7.57
   6   0   6  613.71    7.81
  -6   0  -6  586.04    4.78
   6   0   7    0.55    1.11
  -6   0  -7   -0.15    0.58
   6   0   7    1.34    1.26
   6   0   8  561.32    8.31
   6   0   8  574.92    8.56
  -6   0  -8  578.37    4.98
  -6   0  -9    1.29    0.75
   6   0   9   -0.44    1.64
   6   0  10  608.96    9.83
   6   0  11    0.49    2.16
   6   0  12   58.82    3.97
   6   0  13   -0.04    2.40
   6   0  14  203.78    7.37
   6   0  15   -0.81    3.02
   6   0  16   47.28    4.67
   6   0  17    2.39    3.34
   6   0  18   71.80    5.84
   6   0  19    1.31    3.79
   6   0  20   25.99    5.13
   6  -2 -22   30.63    5.67
  -6  -2  22   14.30    4.49
  -6   2  22   18.51    5.12
   6  -2 -21    1.69    4.24
  -6  -2  21   -0.74    4.11
  -6   2  21    2.72    4.41
   6  -2 -20   64.37    6.18
  -6  -2  20   69.11    6.27
  -6   2  20   67.55    6.23
   6  -2 -19   -2.10    3.86
  -6  -2  19    2.41    3.85
  -6   2  19    1.37    3.81
   6  -2 -18   45.87    5.11
  -6  -2  18   34.76    4.96
  -6   2  18   45.31    5.27
   6  -2 -17   36.92    4.77
  -6  -2  17   26.34    4.49
  -6   2  17   28.85    4.38
   6  -2 -16   78.21    5.55
  -6   2  16   86.55    5.83
   6  -2 -15   19.13    3.70
  -6  -2  15   19.64    3.64
  -6   2  15   19.38    3.83
   6  -2 -14  190.81    7.28
  -6  -2  14  200.85    7.20
  -6   2  14  185.47    7.20
   6  -2 -13   86.94    5.04
  -6  -2  13   89.30    4.83
  -6   2  13   84.25    5.01
   6  -2 -12  114.18    5.39
  -6  -2  12  119.98    5.16
  -6   2  12  116.81    5.54
  -6  -2  11  142.14    5.25
  -6   2  11  131.75    5.41
   6  -2 -10   55.58    1.84
  -6  -2  10   58.37    3.44
  -6   2  10   61.46    3.78
   6   2 -10   51.01    2.60
   6  -2 -10   60.69    3.76
   6  -2  -9    0.96    0.79
   6   2  -9    1.86    1.23
   6  -2  -9    3.40    1.78
  -6  -2   9    2.11    1.73
  -6   2   9    2.46    1.91
   6   2  -9    0.25    1.40
   6  -2  -9    2.14    1.56
  -6   2   8  633.28   10.02
  -6  -2   8  594.44    8.75
   6   2  -8  632.54    8.47
   6  -2  -8  669.27   10.02
   6  -2  -8  601.00    9.31
  -6  -2   8  634.65    6.70
   6  -2  -8  567.50    5.56
   6   2  -8  582.62    7.69
   6   2  -7    4.42    1.03
   6   2  -7    8.06    1.30
  -6  -2   7    6.80    1.46
   6  -2  -7    3.11    1.57
   6  -2  -7    6.23    1.05
  -6   2   7    4.39    1.66
  -6  -2   7    4.81    0.71
   6   2  -7    3.60    1.01
   6  -2  -7    4.28    1.42
   6  -2  -6  354.84    6.65
   6  -2  -6  336.90    4.84
  -6   2   6  384.25    7.40
   6   2  -6  389.99    5.89
   6  -2  -6  357.93    6.61
   6   2  -6  342.43    5.41
   6   2  -6  380.71    5.13
  -6  -2   6  353.09    3.89
   6  -2  -6  298.59    2.89
   6   2  -5  156.06    3.45
  -6   2   5  165.34    4.69
   6  -2  -5  154.35    4.27
   6  -2  -5  157.87    3.42
   6  -2  -5  168.45    4.72
   6   2  -5  173.98    3.82
   6   2  -5  155.11    2.90
   6  -2  -5  159.42    2.37
   6  -2  -4  931.45    7.51
   6   2  -4  960.29    7.95
   6  -2  -4  972.90   10.10
   6  -2  -4  927.13    9.64
   6   2  -4  988.40    8.28
   6   2  -4  945.16    6.50
   6   2  -3 3210.01   13.48
  -6   2   3 2980.53   16.39
  -6  -2   3 3002.05   10.52
   6   2  -3 3052.25   12.42
   6  -2  -3 3045.47   16.73
   6  -2  -3 2977.22   16.29
   6  -2  -3 3066.99   13.14
  -6  -2   3 3067.54   11.57
   6   2  -3 3207.41   10.89
   6  -2  -3 2973.06   10.24
  -6   2   2 1450.76    6.01
   6   2  -2 1803.57    8.82
  -6  -2   2 1672.74    7.32
   6   2  -2 1621.14    6.77
  -6   2   2 1589.87   11.34
   6  -2  -2 1613.15   11.34
  -6  -2   2 1654.39    9.88
   6   2  -2 1642.33    7.82
   6  -2  -2 1613.60   11.64
  -6   2   2 1348.96    6.93
   6  -2  -2 1681.00    9.58
  -6  -2   2 1611.71    8.01
   6  -2  -2 1615.95    7.66
  -6   2   1  108.29    1.81
   6  -2  -1  129.84    2.68
  -6  -2   1  153.97    3.04
   6   2  -1  113.57    1.46
  -6  -2   1  132.71    2.00
  -6   2   1  139.36    2.74
  -6   2   1  126.86    3.27
   6  -2  -1  126.32    3.34
   6   2  -1  125.09    2.00
   6  -2  -1  123.68    3.28
  -6  -2   1  119.88    2.16
   6  -2  -1  143.62    2.51
   6  -2   0 1682.87    9.25
  -6   2   0 1634.73   11.20
   6  -2   0 1663.04   11.16
   6  -2   0 1646.96   11.42
   6   2   0 1678.21    7.13
  -6  -2   0 1638.66    7.85
  -6  -2  -1   15.36    0.89
   6  -2   1   10.53    1.16
   6  -2   1   15.93    1.13
  -6  -2  -1   12.16    0.77
  -6   2  -1   10.53    1.20
   6  -2   1   18.10    1.50
   6   2   1   13.22    0.80
  -6  -2  -1   15.81    1.02
  -6   2  -1   13.73    0.88
   6  -2   2  938.33    7.15
  -6  -2  -2  913.75    5.59
  -6  -2  -2  942.44    5.51
   6  -2   2  911.09    8.58
  -6  -2  -2  937.14    6.15
   6  -2   2  932.99    8.94
  -6  -2  -2  930.59    5.65
  -6   2  -2  917.53    6.20
   6  -2   3  256.55    3.94
   6  -2   3  241.17    3.48
  -6  -2  -3  237.68    2.61
   6  -2   3  237.82    4.47
  -6  -2  -3  259.53    2.72
  -6  -2  -3  251.94    3.49
   6  -2   3  243.26    4.67
   6   2   3  257.05    3.66
  -6   2  -3  242.52    3.30
   6  -2   4 1880.82   11.18
  -6  -2  -4 1750.13    6.36
   6  -2   4 1808.81    8.86
  -6  -2  -4 1743.64    6.48
   6  -2   4 1819.16   12.51
  -6  -2  -4 1880.89   10.43
   6  -2   4 1892.25   13.39
   6   2   4 1905.54   10.64
  -6   2  -4 1866.36    9.38
   6   2   5   85.35    2.72
   6  -2   5   76.74    2.57
   6  -2   5   77.01    2.91
  -6  -2  -5   76.04    2.50
   6  -2   5   79.68    3.10
   6   2   5   76.53    2.59
   6  -2   5   69.96    1.43
  -6   2  -5   78.32    2.09
   6  -2   6  739.87    8.09
   6  -2   6  722.89    8.89
   6   2   6  759.94    8.45
   6  -2   6  727.23    9.25
  -6   2  -6  695.30    6.17
   6  -2   7   54.56    2.45
   6  -2   7   49.23    2.77
   6   2   7   55.19    2.76
   6   2   7   52.37    2.57
  -6   2  -7   46.95    1.83
   6  -2   8  311.63    5.62
   6   2   8  312.56    6.23
   6  -2   8  321.55    6.71
   6  -2   9   53.45    2.77
   6  -2   9   57.86    3.26
   6   2   9   58.98    3.21
   6  -2  10  187.41    5.67
   6   2  10  185.69    5.48
   6  -2  10  184.00    4.98
   6  -2  11  203.75    5.54
   6  -2  11  202.70    6.33
   6   2  11  209.45    6.25
   6  -2  12  125.29    4.83
   6  -2  12  127.96    5.60
   6   2  12  135.13    5.49
   6  -2  13    4.37    2.72
   6   2  13    3.39    2.53
   6   2  14   35.24    3.73
   6  -2  14   39.06    4.10
   6  -2  15    8.48    3.21
   6   2  15    5.34    3.02
   6  -2  16   53.85    4.94
   6   2  16   51.92    4.82
   6  -2  17    1.98    3.53
   6   2  17    5.36    3.53
   6   2  18   18.82    4.33
   6  -2  18   11.12    4.13
   6  -2  19   -0.61    3.82
   6   2  19    3.91    4.06
   6   2  20    6.90    4.42
   6  -4 -21   -0.28    4.42
  -6   4  21   -0.78    4.53
   6  -4 -20   28.39    5.33
  -6   4  20   29.14    5.50
   6  -4 -19    2.60    4.03
  -6   4  19    9.33    4.47
   6  -4 -18   14.03    4.41
  -6   4  18    8.67    4.11
   6  -4 -17   -2.60    3.78
  -6   4  17   11.71    4.16
   6  -4 -16   81.26    5.92
  -6   4  16   63.63    5.53
   6  -4 -15   -0.22    3.23
  -6   4  15   -3.84    3.46
   6  -4 -14  181.11    7.43
  -6   4  14  180.73    7.55
   6  -4 -13   53.67    4.45
  -6   4  13   53.23    4.61
  -6   4  12  372.51    9.61
   6  -4 -12  365.93    9.42
  -6  -4  11    6.95    1.85
   6  -4 -11    5.71    2.62
  -6   4  11    6.90    2.95
  -6  -4  10    8.68    2.01
   6  -4 -10   11.87    2.65
  -6   4  10   13.70    2.88
   6  -4  -9   33.53    3.07
   6   4  -9   40.09    2.63
  -6  -4   9   30.94    2.43
  -6   4   8  942.77   12.93
  -6  -4   8  818.43   10.42
   6  -4  -7    3.89    1.01
   6   4  -7    6.52    1.45
   6  -4  -7    6.75    1.92
  -6  -4   7    5.08    1.77
  -6   4   7    8.93    2.27
   6  -4  -6  368.13    7.10
   6  -4  -6  343.06    6.91
   6  -4  -6  363.03    4.97
  -6  -4   6  346.32    6.95
  -6  -4   6  363.24    5.20
   6  -4  -5   14.29    1.20
   6  -4  -5   15.40    1.88
   6  -4  -5   14.14    1.83
  -6  -4   5   14.55    1.30
  -6  -4   5   16.30    2.02
  -6  -4   4 1430.23   13.96
   6  -4  -4 1429.38    9.30
   6  -4  -4 1429.26   12.39
  -6  -4   4 1438.23    9.76
   6  -4  -3  691.72    8.41
   6  -4  -3  676.12    6.52
  -6  -4   3  648.90    9.42
  -6  -4   3  678.34    6.58
   6  -4  -3  698.17    8.83
  -6  -4   3  676.39    6.70
   6  -4  -3  664.97    6.35
   6  -4  -2  179.39    3.49
  -6  -4   2  187.44    3.51
   6  -4  -2  190.33    3.74
   6  -4  -2  190.92    4.69
   6  -4  -2  182.42    4.31
  -6  -4   2  179.47    5.11
   6  -4  -1    0.18    0.98
  -6  -4   1    1.83    1.43
  -6  -4   1   -0.34    0.80
   6  -4  -1    1.96    0.85
  -6  -4   1    0.22    0.77
   6  -4  -1    2.50    1.08
   6  -4   0  488.52    5.96
  -6  -4   0  525.34    5.71
   6  -4   0  447.26    6.17
  -6  -4   0  472.48    5.06
  -6  -4   0  458.99    7.39
   6  -4   0  493.72    6.10
   6  -4   0  459.01    6.81
   6  -4   1    5.80    1.29
   6  -4   1    7.49    1.10
  -6  -4  -1    7.06    0.91
   6  -4   1    7.54    1.32
   6  -4   1    6.26    1.36
   6  -4   2   38.30    2.16
   6  -4   2   40.92    2.25
   6  -4   2   39.76    1.88
  -6  -4  -2   35.85    1.36
   6  -4   2   39.14    2.32
  -6   4  -3   -0.07    0.80
   6  -4   3    0.82    0.94
  -6  -4  -3    1.74    0.66
   6  -4   3    2.21    1.23
   6  -4   3    0.76    1.10
   6  -4   4 1462.38   12.08
   6  -4   4 1499.00   11.89
  -6   4  -5   20.43    1.44
   6  -4   5   16.36    1.87
   6  -4   5   23.30    2.11
  -6   4  -6  131.31    3.38
   6  -4   6  148.74    4.49
   6  -4   6  145.87    4.29
   6  -4   7   87.96    3.79
   6  -4   7   74.87    3.42
   6  -4   8  134.18    4.79
   6  -4   8  128.33    4.54
   6  -4   9    1.53    1.85
   6  -4   9    3.73    1.90
   6  -4  10   54.79    3.56
   6  -4  10   62.18    3.83
   6  -4  11   49.00    3.80
   6  -4  11   58.16    4.24
   6  -4  12  180.62    6.33
   6  -4  12  225.49    7.39
   6  -4  13   12.66    2.86
   6  -4  13    6.09    3.10
   6  -4  14   74.82    5.12
   6  -4  14   64.44    4.49
   6  -4  15    0.82    2.97
   6  -4  15   -2.31    3.27
   6  -4  16   61.82    4.93
   6  -4  16   56.42    5.24
   6  -4  17    3.22    3.70
   6  -4  18   10.99    4.21
   6  -6 -19   14.50    5.54
  -6   6  19    0.87    4.56
   6  -6 -18   42.22    6.29
  -6   6  18   43.99    5.72
   6  -6 -17    3.40    5.06
  -6   6  17   -2.04    4.11
   6  -6 -16   52.93    6.37
  -6   6  16   45.88    5.36
   6  -6 -15    6.90    4.67
  -6   6  15    5.49    3.74
   6  -6 -14   29.04    4.68
  -6   6  14   35.49    4.59
   6  -6 -13    3.01    3.19
  -6   6  13    5.30    3.28
  -6  -6  13    2.76    2.50
  -6   6  12  133.92    6.46
  -6  -6  12  117.33    5.26
   6  -6 -12  137.35    6.38
  -6   6  11   18.32    3.38
  -6  -6  11   15.40    2.88
   6  -6 -11   18.99    3.35
   6  -6 -10  392.22    9.27
  -6  -6  10  376.74    8.86
   6  -6  -9   22.42    2.89
  -6  -6   9   23.59    3.03
   6  -6  -8   47.87    3.36
  -6  -6   8   56.96    4.09
   6  -6  -7    8.90    2.17
  -6  -6   7   18.27    3.00
   6  -6  -6  286.06    6.51
  -6  -6   6  365.26    8.79
   6  -6  -5  167.12    5.07
  -6  -6   5  172.49    6.03
   6  -6  -4  181.26    5.02
  -6  -6   4  192.81    6.14
   6  -6  -3   16.04    1.92
  -6  -6   3   16.67    2.78
  -6  -6   2  119.66    5.02
   6  -6  -2  111.30    3.73
   6  -6  -1   58.55    2.84
   6  -6  -1   69.08    3.60
  -6  -6   1   65.19    3.95
  -6  -6   0  128.09    5.12
   6  -6   0  139.92    4.11
   6  -6   1    7.38    1.70
  -6  -6  -1    6.12    2.15
   6  -6   1    9.37    2.12
   6  -6   2  416.55    7.88
   6  -6   2  416.78    7.08
   6  -6   3   65.99    3.21
   6  -6   3   71.42    3.77
   6  -6   4    3.47    1.65
  -6  -6  -4    5.76    2.28
   6  -6   4    0.57    1.92
  -6  -6  -5   52.53    3.54
   6  -6   5   59.52    3.41
   6  -6   6  124.02    4.95
   6  -6   6  119.85    4.61
   6  -6   7   23.80    2.69
   6  -6   7   20.31    2.93
   6  -6   8  148.69    5.40
   6  -6   8  147.08    5.72
   6  -6   9   11.06    2.71
   6  -6   9    8.58    2.86
   6  -6  10   97.32    4.98
   6  -6  10   98.39    5.26
   6  -6  11    9.71    2.94
   6  -6  12   38.09    4.03
   6  -6  12   47.57    4.44
   6  -6  13    3.27    3.21
   6  -6  13   -2.46    2.86
   6  -6  14   38.09    3.93
   6  -6  14   49.87    4.71
   6  -6  15    2.64    3.49
   6  -6  15   -0.32    3.15
   6  -6  16    5.18    3.49
   6  -6  16    4.03    3.54
   6  -6  17    4.35    3.55
  -6  -8  14   17.39    3.83
  -6  -8  13   -2.63    3.23
  -6  -8  12    6.23    3.29
  -6  -8  11   -1.13    3.11
  -6  -8  10   47.97    4.58
  -6  -8   9   -0.78    2.95
  -6  -8   8   48.59    4.58
  -6  -8   7    1.86    3.06
  -6  -8   6   45.21    4.26
  -6  -8   5   21.35    3.77
  -6  -8   4   34.03    4.14
  -6  -8   3   20.41    3.61
  -6  -8   2  295.40    8.43
   6  -8  -1   14.19    3.28
  -6  -8   1   14.92    3.39
   6  -8   0  219.35    7.57
  -6  -8   0  180.17    6.80
  -6  -8  -1   -1.84    2.81
   6  -8   1    3.04    2.65
  -6  -8  -2  152.83    6.58
   6  -8   2  173.99    6.59
  -6  -8  -3    0.27    2.87
   6  -8   3    1.00    2.54
  -6  -8  -4   56.05    4.53
   6  -8   4   53.46    4.31
  -6  -8  -5    1.82    2.88
   6  -8   5    3.44    2.86
  -6  -8  -6   79.14    5.14
   6  -8   6   59.75    4.50
  -6  -8  -7    0.79    3.01
   6  -8   7   -1.31    2.56
   6  -8   8   45.01    4.37
  -6  -8  -8   48.78    4.66
  -6  -8  -9   14.18    3.56
   6  -8   9    8.88    3.21
  -6  -8 -10   35.81    4.27
   6  -8  10   46.59    4.48
   6  -8  11   -0.36    3.11
  -6  -8 -11    1.50    3.28
  -6  -8 -12    9.07    3.78
   6  -8  13    2.12    3.26
  -6  -8 -13    3.32    3.61
  -6 -10  11    4.18    3.81
  -6 -10  10   10.14    3.79
  -6 -10   9    6.71    3.89
  -6 -10   8   47.22    4.92
  -6 -10   7    5.13    3.53
  -6 -10   6   28.20    4.39
  -6 -10   5   -4.96    3.58
  -6 -10   4   28.40    4.27
  -6 -10   3   -1.47    3.36
  -6 -10   2   18.39    3.98
  -6 -10   1    3.57    3.64
  -6 -10   0   16.64    3.76
  -6 -10  -1   -0.11    3.07
   6 -10   1   -0.46    3.02
   6 -10   2    6.15    3.44
  -6 -10  -2    7.03    3.30
  -6 -10  -3   -1.44    3.04
   6 -10   3    0.85    3.18
  -6 -10  -4   13.74    3.68
   6 -10   4   18.96    4.03
  -6 -10  -5    6.63    3.52
  -6 -10  -6    3.58    3.40
   6 -10   6   15.50    3.68
  -6 -10  -7    0.16    3.33
   6 -10   7   -2.71    3.55
  -6 -10  -8   15.50    3.98
   6 -10   8    5.38    3.55
   6 -10   9   -1.23    3.29
  -6 -10  -9   -1.06    3.43
   7   1 -22    7.51    4.50
   7  -1 -22   -4.64    4.54
  -7  -1  22    1.27    4.61
  -7   1  22   -2.97    4.78
   7   1 -21   32.58    5.35
   7  -1 -21   40.74    5.61
  -7  -1  21   31.50    5.37
  -7   1  21   40.57    5.84
   7  -1 -20    0.17    3.96
  -7  -1  20    0.11    3.84
  -7   1  20   -1.79    4.12
   7  -1 -19   26.64    4.69
  -7  -1  19   34.90    5.07
  -7   1  19   31.06    5.03
   7  -1 -18    3.86    3.66
  -7  -1  18    0.86    3.70
  -7   1  18   10.47    4.38
   7  -1 -17  177.01    7.97
  -7  -1  17  180.75    8.09
  -7   1  17  159.87    7.88
   7  -1 -16   17.35    3.97
  -7   1  16   16.44    3.95
  -7  -1  16    9.04    3.45
   7  -1 -15   49.81    4.75
  -7   1  15   45.01    4.51
   7  -1 -14  160.39    6.72
  -7   1  14  158.46    6.87
   7  -1 -13  246.05    7.93
  -7  -1  13  233.45    7.57
  -7   1  13  226.65    7.75
  -7   1  12   20.15    3.21
   7  -1 -12   24.49    3.29
  -7  -1  12   20.11    2.90
   7  -1 -11  390.72    8.89
   7  -1 -11  363.60    5.97
  -7  -1  11  365.00    8.25
  -7   1  11  389.53    8.97
   7  -1 -10  184.24    6.07
   7   1 -10  164.34    4.46
   7  -1 -10  172.80    4.32
  -7  -1  10  154.72    5.21
  -7   1  10  166.77    5.87
   7   1 -10  179.98    5.40
   7   1  -9  845.96   11.57
   7  -1  -9  754.28   11.10
   7  -1  -9  792.67    8.92
  -7  -1   9  743.61   10.85
   7   1  -9  799.75   10.83
   7  -1  -9  798.30   11.64
   7   1  -9  751.44    9.10
  -7   1   9  718.93   11.34
   7   1  -8  156.93    4.91
   7  -1  -8  148.28    4.90
  -7  -1   8  128.96    4.46
  -7   1   8  134.40    4.90
   7   1  -8  144.39    4.49
   7  -1  -8  148.61    4.89
   7   1  -8  140.66    4.01
   7  -1  -8  134.03    3.67
   7   1  -7   29.90    2.29
   7  -1  -7    7.86    1.25
   7   1  -7   12.63    1.59
   7  -1  -7    1.43    0.56
  -7  -1   7    0.93    0.55
   7   1  -7    0.91    1.07
  -7  -1   7   27.39    2.33
   7  -1  -7    4.84    1.73
  -7   1   7    0.86    1.56
   7  -1  -7    0.29    1.24
   7  -1  -6   14.59    1.87
   7   1  -6   13.83    1.53
   7  -1  -6   11.16    1.41
  -7  -1   6   11.47    1.18
  -7  -1   6    9.31    1.68
  -7   1   6   15.17    2.14
   7   1  -6   13.81    1.59
   7  -1  -6   16.68    1.80
   7   1  -6   13.79    1.78
   7   1  -6   14.34    1.38
   7  -1  -6   11.87    0.82
  -7  -1   6   19.38    1.00
  -7  -1   5 1376.81    9.89
  -7  -1   5 1322.49   12.50
   7  -1  -5 1518.86   13.53
  -7   1   5 1411.18   13.36
   7   1  -5 1443.70   11.49
   7  -1  -5 1494.95   13.01
   7   1  -5 1478.08   11.35
   7   1  -5 1533.50   12.85
   7  -1  -5 1438.54   10.86
   7  -1  -5 1397.79    7.32
  -7  -1   5 1430.14    7.50
   7   1  -5 1547.96   10.71
  -7   1   4   47.81    1.32
   7  -1  -4   58.55    2.68
   7   1  -4   58.36    2.16
  -7  -1   4   59.89    2.00
  -7   1   4   54.70    2.33
   7  -1  -4   53.58    2.04
   7  -1  -4   60.14    2.61
   7  -1  -4   55.93    1.48
   7  -1  -3  638.13    6.56
  -7  -1   3  600.10    5.74
  -7   1   3  649.84    7.45
  -7   1   3  537.66    5.20
   7  -1  -3  659.18    7.96
   7   1  -3  669.36    6.70
   7  -1  -3  619.66    7.53
  -7  -1   3  631.88    5.16
  -7   1   3  587.28    4.23
   7  -1  -2   66.28    2.56
   7   1  -2   76.52    2.15
   7  -1  -2   63.76    2.09
  -7  -1   2   63.33    1.87
  -7   1   2   67.06    2.40
   7  -1  -2   64.73    2.46
   7   1  -2   68.68    2.13
  -7  -1   2   63.44    1.69
  -7   1   2   73.42    1.72
   7  -1  -1 2105.78   11.01
   7  -1  -1 2007.01   12.69
   7   1  -1 2057.02    9.26
   7   1  -1 1934.80    7.54
  -7  -1   1 2049.17   10.13
  -7  -1   1 2042.57   10.30
   7  -1  -1 2070.18   13.00
   7   1  -1 2040.63   10.64
  -7   1   1 2031.32   12.41
  -7  -1   1 1956.19    8.83
  -7   1   1 1875.94    8.50
   7  -1   0 2394.23   13.69
   7  -1   0 2451.95   11.25
   7   1   0 2287.01    7.90
   7   1   0 2318.57    7.32
  -7  -1   0 2374.91   10.75
  -7   1   0 2479.90   13.66
   7  -1   0 2431.58   13.83
   7   1   0 2559.24   12.15
  -7  -1   0 2569.39   11.33
  -7  -1   0 2497.92    9.98
  -7   1   0 2405.74    9.52
   7  -1   1  530.64    4.87
   7  -1   1  522.38    6.42
   7  -1   1  551.26    5.30
  -7  -1  -1  526.43    5.30
  -7   1  -1  531.26    6.39
   7  -1   1  537.14    6.57
  -7  -1  -1  531.17    4.50
  -7   1  -1  525.46    4.57
  -7  -1  -2    3.05    0.66
   7   1   2    3.65    1.01
   7  -1   2    3.60    0.66
   7  -1   2    4.45    0.80
   7  -1   2    3.58    1.10
   7  -1   2    5.14    1.10
  -7  -1  -2    3.74    0.62
  -7   1  -2    3.63    0.63
  -7  -1  -2    3.22    0.78
   7  -1   3  968.32    7.47
  -7  -1  -3 1045.61    7.00
   7   1   3  956.34    8.46
   7  -1   3  853.61    5.28
   7  -1   3  993.02    9.18
  -7  -1  -3  961.10    7.85
   7  -1   3 1013.18    9.61
   7   1   3  980.54    8.09
   7  -1   3  853.44    4.68
  -7  -1  -3  920.04    5.81
  -7   1  -3  928.64    6.22
   7  -1   4    0.85    1.08
   7   1   4    1.96    0.91
  -7  -1  -4    3.04    0.73
  -7  -1  -4    1.78    0.59
  -7   1  -4    1.65    0.63
   7  -1   4    1.68    0.88
   7  -1   4    2.60    1.12
   7   1   4    3.19    1.14
  -7  -1  -4    2.30    0.89
   7  -1   5  231.89    4.98
   7   1   5  233.38    4.77
   7  -1   5  209.38    3.97
   7  -1   5  243.55    5.25
   7   1   5  223.39    4.58
  -7  -1  -5  222.18    2.98
  -7   1  -5  203.59    3.08
   7  -1   6   85.02    2.77
   7   1   6   83.36    3.12
   7  -1   6   83.24    3.37
   7   1   6   81.13    3.05
  -7  -1  -6   85.26    1.98
  -7   1  -6   82.88    2.18
   7  -1   7 1394.91   13.16
   7   1   7 1337.93   12.30
   7  -1   7 1285.14   10.69
   7   1   7 1460.99   12.85
  -7  -1  -7 1243.08    7.05
  -7   1  -7 1268.52    8.40
   7  -1   8   10.10    1.96
   7   1   8    7.54    1.87
   7  -1   8    4.08    1.33
  -7  -1  -8    8.50    0.89
   7  -1   9  273.10    6.53
   7   1   9  286.13    6.70
   7   1  10   53.54    3.59
   7  -1  10   45.08    3.34
   7  -1  11  108.30    4.95
   7   1  11  104.85    4.78
   7  -1  12    3.41    2.66
   7   1  12    4.28    2.53
   7  -1  13   56.36    4.32
   7   1  13   62.08    4.44
   7  -1  14   36.68    4.04
   7   1  14   34.88    4.00
   7  -1  15   95.07    5.81
   7   1  15  110.15    6.10
   7  -1  16    2.59    3.31
   7   1  16    7.32    3.35
   7  -1  17   35.06    4.69
   7   1  17   28.20    4.45
   7  -1  18    4.08    3.93
   7   1  18    1.97    3.65
   7  -1  19   19.41    4.73
   7   1  19   19.81    4.75
   7  -3 -21   12.59    4.87
  -7  -3  21   18.30    4.49
  -7   3  21   14.23    5.08
   7  -3 -20    2.36    4.27
  -7  -3  20    3.76    4.05
  -7   3  20    2.04    4.37
  -7  -3  19   55.14    5.59
  -7   3  19   53.68    5.92
   7  -3 -19   48.79    5.65
   7  -3 -18   -1.01    3.68
  -7  -3  18    2.56    3.78
  -7   3  18    3.62    4.06
   7  -3 -17    4.21    3.59
  -7  -3  17    4.32    3.67
  -7   3  17    6.51    4.09
   7  -3 -16    7.03    3.69
  -7  -3  16   10.67    3.70
  -7   3  16    3.45    3.63
   7  -3 -15  249.30    8.75
  -7   3  15  245.43    9.11
   7  -3 -14    0.11    3.02
  -7  -3  14    3.00    3.00
  -7   3  14    5.11    3.39
   7  -3 -13  249.58    8.12
  -7  -3  13  247.85    7.66
  -7   3  13  243.67    8.29
   7  -3 -12   17.69    3.19
  -7   3  12   18.34    3.38
   7  -3 -11  214.95    7.07
  -7  -3  11  215.82    6.35
  -7   3  11  214.85    7.25
   7  -3 -10    1.37    1.15
   7  -3 -10    0.04    2.21
  -7  -3  10    1.45    1.87
  -7   3  10    1.99    2.41
   7  -3  -9  342.11    7.99
  -7  -3   9  339.54    6.85
  -7   3   9  380.68    8.89
   7   3  -9  378.59    6.93
  -7  -3   8   59.79    3.14
  -7   3   8   76.01    4.43
   7   3  -8   68.98    3.05
   7  -3  -8   58.25    2.52
   7  -3  -8   65.80    3.85
   7   3  -8   79.81    3.52
  -7  -3   8   60.72    2.89
   7   3  -7 3386.14   18.92
  -7   3   7 3320.45   23.43
   7   3  -7 3525.64   19.11
   7  -3  -7 3079.84   21.36
   7  -3  -7 3243.62   22.39
   7  -3  -7 3276.98   16.92
  -7  -3   7 3218.85   19.00
  -7  -3   7 3144.36   14.13
   7  -3  -6   87.56    3.85
   7  -3  -6   88.76    2.94
  -7   3   6   96.66    4.31
   7   3  -6   91.33    2.97
   7  -3  -6   87.22    3.75
  -7  -3   6   77.08    3.20
  -7  -3   6   82.96    2.51
   7  -3  -5  226.95    4.04
   7  -3  -5  226.11    5.31
   7   3  -5  253.17    4.52
   7   3  -5  247.28    4.19
   7  -3  -5  212.86    5.20
  -7  -3   5  218.67    3.70
   7  -3  -5  211.68    3.20
  -7  -3   5  215.98    5.17
  -7  -3   4   19.33    2.00
   7   3  -4   17.98    1.21
   7  -3  -4   16.56    1.90
   7   3  -4   18.21    1.31
   7  -3  -4   19.26    1.47
   7  -3  -4   18.70    1.91
   7   3  -4   19.47    0.99
  -7  -3   4   18.31    1.30
   7  -3  -4   13.99    0.97
   7  -3  -3 1100.77    8.78
  -7  -3   3 1069.67   11.36
   7  -3  -3 1130.12   10.94
   7   3  -3 1138.91    6.19
   7  -3  -3 1107.64   11.20
   7   3  -3 1158.57    7.32
   7   3  -3 1137.14    5.65
  -7  -3   3 1155.49    8.53
   7  -3  -3 1134.09    7.72
   7  -3  -2  185.81    4.48
  -7  -3   2  180.81    4.50
   7  -3  -2  185.78    4.66
   7   3  -2  182.97    2.00
   7  -3  -2  196.08    3.81
   7   3  -2  201.95    2.10
  -7  -3   2  179.94    3.23
  -7  -3   1  181.41    3.45
   7  -3  -1  177.63    3.61
   7  -3  -1  171.76    2.96
  -7  -3   1  189.13    1.98
  -7  -3   1  157.61    3.95
   7  -3  -1  179.12    4.55
   7  -3  -1  170.60    4.10
   7   3  -1  167.98    1.71
  -7  -3   1  164.83    3.02
  -7   3   0   38.63    1.48
   7  -3   0   41.37    2.19
   7  -3   0   44.76    1.91
   7  -3   0   44.73    1.76
  -7  -3   0   44.00    1.63
  -7  -3   0   44.37    1.04
   7  -3   0   41.57    2.31
  -7  -3   0   45.47    1.69
   7   3   0   40.39    0.95
  -7  -3   0   46.83    1.83
  -7   3  -1  553.54    5.24
  -7  -3  -1  636.95    5.63
   7  -3   1  585.31    6.40
   7  -3   1  605.20    6.18
  -7  -3  -1  610.60    5.64
   7  -3   1  585.22    7.46
   7  -3   1  617.71    8.32
   7   3   1  604.79    3.99
  -7  -3  -1  585.40    5.46
   7  -3   2   61.33    2.23
   7  -3   2   67.11    2.33
  -7  -3  -2   53.95    1.74
   7  -3   2   66.24    2.83
   7  -3   2   68.64    2.95
   7  -3   3  154.74    4.13
   7  -3   3  152.61    3.34
   7  -3   3  156.83    3.67
  -7  -3  -3  139.12    2.50
   7  -3   3  155.99    4.28
   7  -3   4    5.09    1.42
   7  -3   4    6.76    1.39
  -7  -3  -4    4.72    0.79
   7  -3   4    5.01    1.48
  -7   3  -4    6.31    0.96
   7  -3   5  786.23    9.39
   7  -3   5  825.00    8.87
  -7  -3  -5  644.71    4.51
  -7   3  -5  678.98    6.42
   7  -3   6   39.20    2.79
   7  -3   6   41.96    2.45
   7  -3   7   28.62    2.30
   7  -3   7   24.75    2.41
   7  -3   8   38.26    2.75
   7  -3   8   33.15    2.77
   7  -3   9  123.34    4.42
   7  -3   9  127.38    4.91
   7   3   9  122.35    4.31
   7   3  10   12.39    2.38
   7  -3  10   11.64    2.37
   7  -3  10    7.51    2.40
   7  -3  11  193.22    5.72
   7  -3  11  209.61    6.82
   7   3  11  207.84    6.20
   7  -3  12    3.04    2.62
   7  -3  12    6.16    2.82
   7   3  12    2.96    2.34
   7  -3  13  152.78    5.92
   7  -3  13  152.49    6.70
   7   3  13  146.64    5.95
   7  -3  14    0.56    2.92
   7  -3  14    0.61    2.88
   7   3  14   -1.66    2.78
   7  -3  15   26.86    4.07
   7   3  15   23.37    3.84
   7  -3  16    0.18    3.28
   7  -3  17   41.32    5.10
   7  -3  18    3.76    3.96
   7  -3  19   11.31    4.51
   7  -5 -20    7.23    4.57
  -7   5  20    5.80    5.29
   7  -5 -19   30.69    5.20
  -7   5  19   42.31    6.09
   7  -5 -18    5.08    4.27
  -7   5  18    3.24    4.37
   7  -5 -17   74.39    6.25
  -7   5  17   77.28    6.59
   7  -5 -16    3.65    3.82
  -7   5  16   -2.24    4.07
  -7   5  15   74.95    6.09
   7  -5 -15   63.86    5.62
   7  -5 -14   33.79    4.38
  -7   5  14   29.96    4.72
   7  -5 -13   49.16    4.99
  -7   5  13   36.17    4.43
   7  -5 -12   52.35    5.47
  -7   5  12   33.24    4.13
  -7   5  11  109.46    5.83
  -7  -5  11  106.68    4.63
   7  -5 -11  122.78    5.95
  -7  -5  10   11.29    2.26
   7  -5 -10   15.18    3.03
  -7   5  10   13.13    3.23
   7  -5  -9   14.19    2.64
  -7  -5   9   14.19    2.40
   7  -5  -8   62.86    3.90
  -7  -5   8   59.54    3.63
   7  -5  -7  111.73    4.46
  -7  -5   7  122.09    4.92
  -7  -5   7  113.17    3.55
   7  -5  -6    1.16    1.75
  -7  -5   6    4.70    2.11
   7  -5  -5  173.17    5.05
  -7  -5   5  185.26    5.71
  -7  -5   4   -1.54    1.88
   7  -5  -4    2.18    1.59
  -7  -5   3  213.89    6.14
   7  -5  -3  198.50    5.10
   7  -5  -2  111.52    3.80
  -7  -5   2  101.21    4.36
  -7  -5   1  107.86    4.43
   7  -5  -1  112.12    3.43
   7  -5  -1  105.99    3.56
   7  -5   0  444.79    7.11
  -7  -5   0  426.72    8.18
   7  -5   1  923.79   10.27
   7  -5   1  860.30   10.00
   7  -5   2   17.21    1.97
  -7  -5  -2   12.94    1.27
  -7  -5  -2   17.81    2.31
  -7  -5  -3  558.89    5.71
   7  -5   3  620.92    8.74
  -7  -5  -3  525.61    8.58
   7  -5   3  576.60    8.40
   7  -5   3  587.61    7.72
   7  -5   4    4.22    1.69
   7  -5   4    4.26    1.75
   7  -5   5  316.68    6.63
   7  -5   5  364.87    7.28
   7  -5   6   26.63    2.60
   7  -5   6   22.85    2.53
   7  -5   7  220.45    6.22
   7  -5   7  208.06    6.13
   7  -5   8   20.44    2.87
   7  -5   8   12.02    2.66
   7  -5   9  210.73    6.52
   7  -5   9  215.21    6.46
   7  -5  10    1.88    2.60
   7  -5  10    0.04    2.35
   7  -5  11   80.65    4.80
   7  -5  11   86.89    5.07
   7  -5  12   18.99    3.03
   7  -5  12    9.61    3.10
   7  -5  13   55.80    4.51
   7  -5  13   51.05    4.69
   7  -5  14    5.15    3.05
   7  -5  14    9.19    3.47
   7  -5  15   17.80    4.05
   7  -5  15   15.97    3.77
   7  -5  16    0.76    3.32
   7  -5  16    2.82    3.51
   7  -5  17    8.34    3.95
  -7  -7  12    1.84    2.79
  -7  -7  11  105.97    5.64
  -7  -7  10    7.00    3.04
  -7  -7   9  214.23    7.20
  -7  -7   8    4.25    2.91
  -7  -7   7   32.06    3.67
  -7  -7   6   38.96    4.08
  -7  -7   5  343.29    8.95
  -7  -7   4    8.69    2.97
  -7  -7   3  171.51    6.38
  -7  -7   2    6.86    2.72
  -7  -7   1  273.31    7.92
   7  -7  -1  332.05    7.89
  -7  -7   0   22.44    3.20
   7  -7   0   14.99    2.25
   7  -7   0   19.66    2.78
  -7  -7  -1   34.33    3.49
   7  -7   1   36.37    2.84
  -7  -7  -2    1.91    2.44
   7  -7   2    2.98    1.97
   7  -7   2   -0.42    2.28
  -7  -7  -3   42.31    3.90
   7  -7   3   48.76    3.26
   7  -7   4    2.42    2.06
  -7  -7  -4    2.32    2.54
   7  -7   4   -3.67    2.86
  -7  -7  -5   12.23    2.96
   7  -7   5    6.90    2.67
   7  -7   5    8.08    2.44
  -7  -7  -6    0.36    2.65
   7  -7   6    3.73    2.33
   7  -7   6    1.69    2.44
   7  -7   7  160.13    5.97
   7  -7   7  169.72    6.50
   7  -7   8   12.34    3.09
   7  -7   8    6.27    2.51
  -7  -7  -8    7.82    2.86
   7  -7   9   27.09    3.45
   7  -7   9   30.96    3.80
  -7  -7  -9   34.19    3.81
   7  -7  10   21.30    3.60
  -7  -7 -10   17.12    3.34
   7  -7  11   31.08    4.01
  -7  -7 -11   19.85    3.45
   7  -7  12   -2.39    3.33
  -7  -7 -12   -1.71    3.07
   7  -7  13   14.91    3.94
  -7  -7 -13   13.88    3.55
  -7  -7 -14   -0.46    3.23
   7  -7  15   18.82    4.06
  -7  -7 -15   18.43    3.90
  -7  -9  13   23.03    4.07
  -7  -9  12    0.68    3.35
  -7  -9  11   20.67    4.02
  -7  -9  10    1.51    3.42
  -7  -9   9   29.01    4.30
  -7  -9   8    6.14    3.26
  -7  -9   7   55.91    5.12
  -7  -9   6    9.31    3.52
  -7  -9   5   21.69    3.97
  -7  -9   4    4.62    3.49
  -7  -9   3   44.80    4.55
  -7  -9   2   25.68    3.97
  -7  -9   1   72.30    5.03
  -7  -9   0    3.91    2.97
  -7  -9  -1   13.62    3.51
   7  -9   1   12.66    3.26
  -7  -9  -2    0.57    2.98
   7  -9   2    2.43    3.00
  -7  -9  -3   19.26    3.62
   7  -9   3   29.29    4.07
  -7  -9  -4   -0.22    3.00
  -7  -9  -5   52.96    4.79
   7  -9   5   57.82    4.65
  -7  -9  -6    4.01    3.27
   7  -9   6    0.70    2.96
  -7  -9  -7   20.02    3.95
   7  -9   7   18.92    3.75
   7  -9   8    2.15    3.08
  -7  -9  -8   -1.32    3.15
   7  -9   9   11.42    3.87
  -7  -9  -9    7.68    3.51
  -7  -9 -10   -0.53    3.36
   7  -9  10    5.41    3.57
  -7  -9 -11   13.65    3.79
  -7 -11   5    6.66    3.68
  -7 -11   4   -1.92    3.35
  -7 -11   3    7.68    3.55
  -7 -11   2   -0.05    3.39
  -7 -11   1    5.11    3.59
  -7 -11   0   -4.94    3.76
  -7 -11  -1   19.95    4.10
  -7 -11  -2    0.07    3.30
   8   0 -22   29.44    5.38
  -8   0  22   29.58    5.72
   8   0 -21    5.43    4.34
  -8   0  21   -0.15    4.58
   8   0 -20    7.91    4.11
  -8   0  20    7.60    4.42
   8   0 -19    3.78    3.86
  -8   0  19    2.61    4.08
   8   0 -18   10.19    4.08
  -8   0  18    7.91    4.15
   8   0 -17   -0.15    3.50
  -8   0  17   -1.47    3.75
   8   0 -16  200.34    8.19
  -8   0  16  192.23    8.33
   8   0 -15    2.67    3.20
  -8   0  15   -1.04    3.33
   8   0 -14    4.98    2.90
  -8   0  14    2.17    3.06
   8   0 -13   -2.11    2.69
  -8   0  13    1.80    2.76
   8   0 -12  834.88   13.60
  -8   0  12  741.42   13.01
   8   0 -11   20.70    3.00
  -8   0  11    3.65    2.47
   8   0 -10  542.90   10.16
  -8   0  10  483.75    9.96
   8   0  -9    1.11    1.21
   8   0  -9    3.96    2.01
  -8   0   9    3.42    2.01
   8   0  -9   -0.37    1.54
   8   0  -8  664.09   10.47
   8   0  -8  668.79    8.50
   8   0  -8  688.76   10.34
   8   0  -7    1.19    1.33
   8   0  -7    0.56    1.56
  -8   0   7    0.81    1.64
   8   0  -7    0.88    1.29
  -8   0   6  300.40    3.10
  -8   0   6  314.03    6.87
  -8   0   5   -0.01    0.50
   8   0  -5   -0.44    0.93
   8   0  -5    1.24    1.39
  -8   0   5    1.65    1.55
   8   0  -5    3.99    1.27
   8   0  -4 6055.94   24.76
  -8   0   4 6054.22   21.89
   8   0  -4 6098.15   21.95
   8   0  -4 6170.77   24.38
  -8   0   4 5978.25   14.95
  -8   0   3    1.43    0.58
   8   0  -3   -1.53    0.90
   8   0  -3   -0.05    1.09
  -8   0   3   -0.36    0.83
   8   0  -3    0.51    1.04
   8   0  -2  454.96    6.50
   8   0  -2  443.22    5.36
  -8   0   2  436.83    5.72
   8   0  -2  435.89    6.12
  -8   0   2  443.68    4.44
  -8   0   1   -0.44    0.60
   8   0  -1    0.24    0.73
   8   0  -1    0.47    0.97
   8   0  -1    0.80    0.90
   8   0   0 1045.80    9.14
   8   0   0 1070.54    7.46
  -8   0   0 1017.71    8.39
   8   0   0 1056.03    9.15
  -8   0   0 1004.55    6.59
  -8   0  -1    1.97    0.60
   8   0   1    0.64    0.56
   8   0   1    0.06    0.97
  -8   0  -1    1.06    0.81
   8   0   1   -0.48    0.90
   8   0   2   81.17    2.85
   8   0   2   82.14    2.74
   8   0   3    0.38    0.91
  -8   0  -3    1.91    0.66
   8   0   3    0.33    1.09
   8   0   4  742.13    8.46
   8   0   4  756.59    8.69
   8   0   5   -0.20    1.12
  -8   0  -5    1.96    0.73
   8   0   6  114.01    3.98
  -8   0  -6  103.00    2.47
   8   0   7    1.05    1.66
   8   0   8  537.94    8.78
   8   0   9   -1.61    1.88
   8   0  10    8.16    2.48
   8   0  11    1.64    2.53
   8   0  12   65.77    4.59
   8   0  13    2.90    2.84
   8   0  14  133.98    6.37
   8   0  15   -3.27    3.39
   8   0  16   79.92    5.79
   8   0  17   -0.58    3.48
   8   0  18    9.84    4.21
   8   0  19   -6.56    4.45
   8  -2 -22   25.07    5.49
  -8  -2  22   21.03    5.36
   8   2 -22   23.90    5.11
  -8   2  22   18.09    5.64
   8   2 -21    5.62    4.30
   8  -2 -21    3.23    4.31
  -8  -2  21    5.63    4.36
  -8   2  21    6.49    4.58
   8   2 -20   57.75    5.73
   8  -2 -20   53.11    5.90
  -8  -2  20   49.02    5.78
  -8   2  20   60.21    6.58
   8   2 -19   10.62    4.08
   8  -2 -19    9.84    4.19
  -8  -2  19    9.31    4.36
  -8   2  19    6.18    4.38
   8   2 -18   96.43    6.26
   8  -2 -18   78.39    6.02
  -8  -2  18   90.43    6.42
  -8   2  18   88.42    6.92
   8  -2 -17    4.06    3.52
  -8  -2  17   -0.18    3.46
  -8   2  17   -2.49    3.78
   8  -2 -16   86.27    6.02
  -8   2  16   91.04    6.26
   8  -2 -15    8.18    3.59
  -8  -2  15    2.87    3.18
  -8   2  15   -3.05    3.77
   8  -2 -14  318.16    9.43
  -8  -2  14  298.95    8.87
  -8   2  14  308.29    9.66
   8  -2 -13   -3.22    2.94
  -8  -2  13    3.32    2.67
  -8   2  13    1.27    3.03
   8  -2 -12  166.49    6.53
  -8  -2  12  174.56    6.36
  -8   2  12  173.32    6.91
   8  -2 -11  412.08    9.56
  -8  -2  11  433.63    9.27
  -8   2  11  410.09    9.82
   8   2 -10  200.61    5.99
   8  -2 -10  175.18    4.64
  -8  -2  10  188.49    6.00
  -8   2  10  183.33    6.71
   8   2 -10  209.23    6.14
   8  -2 -10  189.82    6.45
   8  -2  -9   83.86    3.34
   8  -2  -9   88.78    4.43
  -8  -2   9   87.15    4.15
  -8   2   9   94.10    4.78
   8   2  -9   88.74    3.92
   8   2  -9   82.08    3.40
   8   2  -8  381.89    7.39
   8  -2  -8  347.68    7.95
   8   2  -8  401.58    7.31
  -8  -2   8  343.44    7.22
  -8   2   8  398.87    9.03
   8   2  -8  342.76    6.96
   8  -2  -8  327.82    5.93
   8  -2  -7  103.78    4.44
   8  -2  -7   81.19    2.98
   8   2  -7  100.39    3.55
  -8  -2   7   82.97    3.71
  -8   2   7   99.70    4.54
   8   2  -7  108.19    3.83
   8  -2  -7  108.48    4.34
   8  -2  -6  342.81    7.19
   8  -2  -6  337.87    5.64
  -8  -2   6  338.89    6.47
  -8   2   6  365.79    7.89
   8   2  -6  342.15    6.01
   8  -2  -6  341.48    7.14
   8   2  -6  342.38    5.89
   8   2  -6  354.49    5.24
  -8  -2   6  347.02    4.45
   8  -2  -6  327.63    4.07
  -8  -2   5  273.15    5.35
   8  -2  -5  268.89    5.83
   8   2  -5  283.77    4.92
  -8  -2   5  264.88    4.12
   8   2  -5  297.10    5.17
   8  -2  -5  254.54    4.62
   8  -2  -5  276.64    6.00
   8   2  -5  317.27    5.80
   8   2  -5  306.58    4.62
  -8  -2   5  269.55    3.86
   8  -2  -4   46.87    2.63
   8  -2  -4   46.39    2.11
  -8  -2   4   47.26    2.51
  -8  -2   4   44.59    1.69
   8   2  -4   48.61    2.03
   8  -2  -4   48.34    2.73
  -8  -2   4   45.16    1.67
   8   2  -4   52.59    1.85
  -8   2   3    3.94    0.71
   8  -2  -3    6.84    1.48
   8  -2  -3    9.78    1.21
   8   2  -3    8.13    1.06
  -8  -2   3    7.94    1.28
  -8  -2   3    6.18    0.78
   8   2  -3    4.91    0.90
   8  -2  -3    6.39    1.36
  -8  -2   3    8.69    0.95
   8  -2  -2  581.52    7.95
   8  -2  -2  620.00    6.77
  -8  -2   2  574.86    5.19
   8   2  -2  591.76    5.20
   8  -2  -2  609.16    8.28
   8   2  -2  645.04    6.03
  -8  -2   2  664.31    6.30
   8  -2  -1   38.66    2.25
  -8  -2   1   43.21    1.56
   8  -2  -1   42.21    2.36
   8   2  -1   43.68    1.59
  -8  -2   1   41.54    1.66
   8  -2  -1   37.79    1.87
  -8   2   1   35.94    1.27
   8  -2   0  496.41    4.90
   8  -2   0  469.91    6.65
   8  -2   0  480.33    5.79
  -8  -2   0  505.30    4.95
   8  -2   0  518.05    7.50
   8   2   0  529.56    5.22
  -8  -2   0  488.46    5.06
  -8   2   0  467.13    4.69
  -8  -2  -1  187.64    3.30
   8  -2   1  182.40    3.23
   8  -2   1  172.00    4.22
  -8  -2  -1  172.55    2.96
   8  -2   1  183.45    4.49
   8   2   1  200.30    3.43
  -8  -2  -1  179.69    3.14
  -8   2  -1  167.86    2.95
   8  -2   2  622.06    6.31
  -8  -2  -2  642.32    5.92
   8  -2   2  618.53    8.12
   8   2   2  642.07    6.72
   8  -2   2  613.53    6.34
  -8  -2  -2  610.52    5.81
   8  -2   2  657.48    8.68
   8   2   2  630.48    6.14
  -8  -2  -2  604.38    5.64
  -8   2  -2  565.77    5.50
   8  -2   3 1216.02   11.52
   8  -2   3 1220.46    9.32
  -8  -2  -3 1225.24    8.94
   8  -2   3 1249.92   11.85
  -8  -2  -3 1248.70    8.04
   8  -2   4  669.70    7.33
  -8  -2  -4  675.68    6.93
   8  -2   4  661.00    8.74
   8  -2   4  699.94    9.24
   8   2   4  700.68    7.49
  -8  -2  -4  658.04    5.77
  -8   2  -4  620.46    6.11
   8   2   5    2.26    1.18
   8   2   5    4.92    1.24
  -8  -2  -5    1.70    0.79
  -8   2  -5    1.20    0.85
   8  -2   5    1.91    1.18
   8  -2   5    2.65    1.44
   8   2   6  683.62    8.51
   8  -2   6  711.89   10.01
   8  -2   7   12.01    1.80
   8  -2   7   12.77    2.18
   8   2   7    8.59    1.74
  -8  -2  -7    8.98    1.00
   8  -2   8  220.25    5.35
   8  -2   8  221.89    6.12
   8   2   8  225.09    5.81
  -8  -2  -8  212.35    3.55
   8  -2   9   44.52    2.99
   8  -2   9   55.79    3.50
   8   2   9   50.63    3.32
   8  -2  10  322.64    7.03
   8  -2  10  314.74    7.75
   8   2  10  321.52    7.52
   8  -2  11   12.08    2.87
   8   2  11   15.10    2.65
   8  -2  12  153.22    6.29
   8   2  12  160.74    6.22
   8  -2  13    0.23    2.88
   8   2  13    4.68    2.87
   8  -2  14   43.84    4.38
   8   2  14   44.91    4.38
   8  -2  15    0.60    3.08
   8   2  15    4.49    3.26
   8  -2  16   17.47    4.03
   8   2  16   23.19    4.03
   8  -2  17    4.96    3.65
   8   2  17    8.33    3.78
   8  -2  18   28.51    5.01
   8   2  18   18.00    4.72
   8   2  19   -3.68    4.21
   8  -4 -21    8.95    4.78
  -8   4  21   -3.66    5.24
   8  -4 -20   13.68    4.85
  -8   4  20   18.58    5.59
   8  -4 -19    2.32    4.32
  -8   4  19    4.26    4.68
   8  -4 -18   66.87    6.11
  -8   4  18   64.82    6.46
   8  -4 -17    2.41    3.83
  -8   4  17    5.33    4.35
   8  -4 -16   16.52    4.14
  -8   4  16   15.48    4.32
   8  -4 -15    5.26    3.48
  -8   4  15    1.54    3.78
   8  -4 -14  147.73    7.09
  -8   4  14  144.25    7.49
   8  -4 -13   28.58    4.13
  -8   4  13   36.97    4.69
   8  -4 -12   38.43    4.25
  -8   4  12   34.79    4.61
   8  -4 -11  140.65    7.19
  -8   4  11  106.31    5.78
   8  -4 -10  316.36    8.71
  -8   4  10  288.80    8.61
   8  -4  -9    8.30    2.59
  -8   4   9    9.07    2.95
   8  -4  -8  371.80    8.55
  -8  -4   8  334.33    7.04
   8  -4  -7   41.82    3.18
  -8  -4   7   53.97    3.30
   8  -4  -6  951.84   12.04
  -8  -4   6  945.97    8.83
  -8  -4   6  915.68   11.23
  -8  -4   5    3.50    1.73
  -8  -4   5    2.37    1.09
   8  -4  -5    2.29    1.13
   8  -4  -5    1.60    1.66
  -8  -4   4    4.66    1.10
   8  -4  -4    1.75    1.08
   8  -4  -4    2.57    1.63
  -8  -4   4    5.23    1.73
   8  -4  -3   71.57    3.39
   8  -4  -3   70.87    2.62
  -8  -4   3   64.08    3.36
  -8  -4   3   67.33    2.45
   8  -4  -2  786.84    9.76
  -8  -4   2  802.18   10.58
  -8  -4   2  807.20    7.68
   8  -4  -1   50.72    2.81
   8  -4  -1   54.74    2.35
  -8  -4   1   52.38    2.94
   8  -4  -1   51.52    2.12
  -8  -4   1   46.90    2.03
  -8  -4   0  383.70    5.17
  -8  -4   0  381.72    6.86
   8  -4   0  390.26    6.71
   8  -4   0  370.28    5.57
  -8  -4  -1    1.89    0.97
   8  -4   1    1.92    1.13
  -8  -4  -1    3.15    0.94
   8  -4   1    1.41    1.52
   8  -4   1    4.73    1.28
   8  -4   2  920.09    9.38
   8  -4   2  918.72    9.19
   8  -4   2  894.85   10.55
   8  -4   3  259.80    5.92
   8  -4   3  277.63    5.45
   8  -4   4   78.40    3.57
   8  -4   4   83.90    3.42
  -8  -4  -5    5.96    1.02
   8  -4   5    5.18    1.81
   8  -4   6  167.00    5.41
   8  -4   6  181.44    5.11
   8  -4   7    1.34    1.79
   8  -4   7    2.76    2.03
   8  -4   8   32.66    3.03
   8  -4   8   35.35    3.21
   8  -4   9   10.09    2.51
   8  -4   9   10.56    2.84
   8  -4  10  313.87    7.65
   8  -4  10  300.99    8.05
   8  -4  11    2.35    2.50
   8  -4  11   -3.18    2.88
   8  -4  12   63.32    4.28
   8  -4  12   69.47    4.93
   8  -4  13   14.81    3.22
   8  -4  13   10.50    3.53
   8  -4  14   27.41    3.81
   8  -4  14   27.33    4.23
   8  -4  15    2.10    3.43
   8  -4  16   14.48    4.16
   8  -4  17    0.75    3.82
   8  -6 -19   -2.20    4.42
  -8   6  19    3.02    4.95
   8  -6 -18   13.32    4.63
  -8   6  18   16.20    5.17
   8  -6 -17    0.08    4.03
  -8   6  17    0.96    4.36
   8  -6 -16   57.56    5.74
  -8   6  16   54.32    5.82
   8  -6 -15    0.17    3.64
  -8   6  15   10.67    4.41
   8  -6 -14   14.31    3.82
   8  -6 -13   17.98    4.01
   8  -6 -12  125.87    6.45
  -8  -6  11    3.89    2.67
   8  -6 -11    6.38    2.95
   8  -6 -10  180.32    6.72
  -8  -6  10  175.40    6.24
   8  -6  -9   28.92    3.43
  -8  -6   9   17.49    3.05
   8  -6  -8  106.64    5.05
  -8  -6   8  124.92    5.35
   8  -6  -7    2.03    2.29
  -8  -6   7    5.22    2.74
   8  -6  -6  132.76    5.37
  -8  -6   6  139.97    5.67
   8  -6  -5   38.64    3.22
  -8  -6   5   41.21    3.48
   8  -6  -4  631.50    9.94
  -8  -6   4  671.44   11.67
  -8  -6   3   63.07    4.18
   8  -6  -3   80.38    3.90
  -8  -6   2  110.86    5.11
   8  -6  -2  111.29    4.19
   8  -6  -1   29.13    2.61
  -8  -6   1   30.34    3.25
   8  -6   0  166.52    5.15
  -8  -6   0  159.11    5.96
   8  -6   1  107.11    4.32
   8  -6   1  102.27    4.25
   8  -6   2  121.03    4.59
   8  -6   2  134.24    4.72
   8  -6   3    8.08    2.27
   8  -6   3   12.05    2.33
  -8  -6  -3    8.69    2.59
   8  -6   4   91.91    4.23
   8  -6   4   94.64    4.44
   8  -6   5   16.67    2.56
   8  -6   5   20.87    2.90
  -8  -6  -5   14.19    2.58
   8  -6   6   52.13    3.76
   8  -6   6   42.01    3.54
   8  -6   7    5.36    2.56
   8  -6   7    4.14    2.57
   8  -6   8  161.31    6.31
   8  -6   8  178.23    6.52
   8  -6   9   14.67    3.01
   8  -6   9    7.18    2.59
   8  -6  10   11.58    3.23
   8  -6  10   10.01    2.91
   8  -6  11    4.58    3.13
   8  -6  11    3.75    3.08
   8  -6  12   24.10    3.80
   8  -6  12   -0.32    3.37
   8  -6  13    4.55    3.42
   8  -6  13    4.36    3.32
   8  -6  14   24.43    4.11
   8  -6  14   31.03    4.10
   8  -6  15    3.44    3.41
   8  -6  15    0.75    3.50
   8  -6  16   17.07    4.10
  -8  -8  12   37.71    4.38
  -8  -8  11    1.82    3.15
  -8  -8  10    6.53    3.16
  -8  -8   9    7.79    3.12
  -8  -8   8   29.05    4.01
  -8  -8   7   -1.95    2.99
  -8  -8   6    5.25    3.29
  -8  -8   5    3.31    3.19
  -8  -8   4   52.69    4.57
  -8  -8   3    1.38    2.69
  -8  -8   2   45.40    4.35
  -8  -8   1    2.99    2.88
  -8  -8   0   61.80    4.73
   8  -8   1   23.27    3.45
  -8  -8  -1   16.46    3.28
  -8  -8  -2   12.41    3.31
   8  -8   2   22.12    2.80
   8  -8   3   20.33    3.26
  -8  -8  -3    3.89    2.88
  -8  -8  -4  110.39    5.71
   8  -8   4  114.81    5.71
  -8  -8  -5   -2.07    2.91
   8  -8   5    1.07    2.69
   8  -8   6   94.13    5.43
  -8  -8  -6   77.36    5.30
  -8  -8  -7   -1.47    3.05
   8  -8   7    1.81    2.80
  -8  -8  -8   32.62    4.18
   8  -8   8   40.61    4.48
   8  -8   9   11.45    3.37
  -8  -8  -9    2.91    3.20
   8  -8  10   26.67    3.90
  -8  -8 -10    7.14    3.38
  -8  -8 -11   -2.62    3.37
   8  -8  11    1.85    3.25
  -8  -8 -12   19.52    3.95
   8  -8  12   21.90    4.42
  -8 -10  10   15.89    4.20
  -8 -10   9    2.39    3.62
  -8 -10   8   26.08    4.16
  -8 -10   7    1.61    3.60
  -8 -10   6   54.58    5.06
  -8 -10   5    3.25    3.59
  -8 -10   4   21.29    4.11
  -8 -10   3    4.32    3.58
  -8 -10   2   46.29    4.94
  -8 -10   1    3.35    3.42
  -8 -10   0   26.18    4.01
  -8 -10  -1    0.81    3.09
  -8 -10  -2   22.86    3.88
  -8 -10  -3    2.17    3.11
  -8 -10  -4    5.67    3.37
   8 -10   4    7.60    3.58
  -8 -10  -5    1.02    3.14
   8 -10   5    1.53    3.41
  -8 -10  -6    9.19    3.58
   8 -10   6    4.99    3.29
  -8 -10  -7    3.83    3.39
   8 -10   7   -3.16    3.48
   9   1 -22    0.47    4.42
   9  -1 -22    1.44    4.54
  -9  -1  22    0.22    4.92
  -9   1  22   -0.56    4.76
   9   1 -21   26.16    5.07
   9  -1 -21   21.87    5.08
  -9  -1  21   23.77    5.49
  -9   1  21   23.49    5.46
   9   1 -20    4.46    4.18
   9  -1 -20    4.39    4.12
  -9  -1  20    7.46    4.92
  -9   1  20    6.03    4.61
   9   1 -19   34.06    4.87
   9  -1 -19   38.23    5.16
  -9  -1  19   32.66    5.41
  -9   1  19   31.95    5.52
   9   1 -18   21.74    4.39
   9  -1 -18   25.34    4.70
  -9  -1  18   23.97    4.78
  -9   1  18   19.71    4.80
   9   1 -17   95.01    6.24
   9  -1 -17   84.93    6.25
  -9  -1  17   78.57    6.24
  -9   1  17   90.77    6.89
   9   1 -16   22.98    4.07
  -9  -1  16   23.66    4.40
  -9   1  16   37.05    5.12
   9  -1 -16   23.97    4.07
   9   1 -15  311.35    9.54
   9  -1 -15  268.11    9.08
  -9  -1  15  317.72   10.18
  -9   1  15  280.47    9.81
   9   1 -14    5.07    3.00
   9  -1 -14    3.38    3.11
  -9  -1  14    9.68    3.51
  -9   1  14    8.22    3.63
   9   1 -13  102.73    5.55
   9  -1 -13   91.94    5.46
  -9  -1  13   99.70    5.78
  -9   1  13   89.84    5.69
   9   1 -12    7.14    2.73
   9  -1 -12   -0.42    2.69
  -9  -1  12    4.36    2.82
  -9   1  12    0.47    2.82
   9  -1 -11  540.96   11.18
  -9  -1  11  505.99   10.66
  -9   1  11  522.59   11.32
   9   1 -11  553.31   10.57
   9   1 -10    1.83    2.14
   9  -1 -10    3.29    2.42
  -9  -1  10    1.20    2.23
  -9   1  10    4.80    2.63
   9   1  -9  115.17    4.77
   9  -1  -9  113.81    5.08
  -9  -1   9  113.54    5.02
  -9   1   9  126.14    5.66
   9  -1  -8  747.28    9.45
   9   1  -8  846.08   10.25
  -9  -1   8  795.09   11.94
  -9   1   8  785.33   12.37
   9   1  -8  926.94   12.19
   9   1  -8  869.24   11.84
   9  -1  -7  525.17    9.47
   9  -1  -7  562.20    8.56
   9   1  -7  630.15   10.33
  -9  -1   7  497.25    9.03
  -9   1   7  525.78    9.90
   9   1  -7  570.78    9.07
   9  -1  -7  532.97    9.26
   9   1  -7  595.46    9.03
   9  -1  -6   31.44    2.73
   9   1  -6   33.25    2.13
  -9  -1   6   33.43    2.70
   9   1  -6   34.47    2.45
   9  -1  -6   36.57    2.82
   9   1  -6   38.23    2.74
   9  -1  -5  483.37    7.90
   9  -1  -5  501.61    6.96
   9   1  -5  462.28    7.08
   9  -1  -5  499.56    8.14
   9   1  -5  463.29    6.68
   9   1  -5  479.43    7.31
  -9  -1   5  461.47    4.90
   9  -1  -4   70.47    3.18
  -9  -1   4   57.00    2.20
   9   1  -4   62.09    2.44
   9  -1  -4   65.42    2.56
   9   1  -4   61.83    2.78
   9  -1  -4   78.50    3.40
  -9   1   4   55.43    1.53
   9  -1  -3 1140.62   11.75
   9   1  -3 1174.51   10.80
   9  -1  -3 1114.48    9.62
   9   1  -3 1164.54    9.44
  -9  -1   3 1099.10    8.90
   9  -1  -3 1124.32   11.41
  -9  -1   3 1074.48    7.58
  -9   1   3 1025.32    6.66
   9  -1  -2  146.53    4.21
   9  -1  -2  141.27    3.40
  -9  -1   2  156.62    3.42
   9   1  -2  151.72    3.22
   9   1  -2  152.35    3.80
   9  -1  -2  157.69    4.41
  -9  -1   2  145.12    2.88
  -9   1   2  135.91    2.58
  -9  -1   1   -0.22    0.68
  -9   1   1    1.59    0.69
   9  -1  -1    0.79    0.86
   9   1  -1    0.76    0.67
   9  -1  -1    0.99    1.25
   9   1  -1    0.48    0.97
  -9  -1   1    1.81    0.83
   9  -1  -1    1.58    1.13
   9   1  -1    1.78    0.78
   9  -1   0    4.39    1.33
   9   1   0    2.82    0.50
   9  -1   0    3.28    0.99
  -9  -1   0    6.65    1.02
   9   1   0    2.59    1.06
  -9  -1   0    3.97    0.87
  -9   1   0    3.87    0.76
   9  -1   0    3.76    1.18
   9   1   0    0.73    0.67
   9  -1   1  717.35    8.67
   9   1   1  747.59    8.11
   9  -1   1  694.57    6.66
  -9  -1  -1  731.22    7.34
   9  -1   1  748.11    9.00
  -9  -1  -1  705.83    6.35
  -9   1  -1  665.63    5.96
   9  -1   2   84.05    3.30
   9   1   2   81.80    2.96
   9  -1   2   81.03    3.28
  -9  -1  -2   77.15    2.22
  -9   1  -2   76.14    2.18
   9  -1   3  509.73    7.66
   9   1   3  539.74    7.35
   9  -1   3  521.57    7.93
   9   1   3  531.04    7.16
  -9  -1  -3  501.35    5.45
  -9   1  -3  479.00    5.32
   9  -1   4   48.32    2.75
   9   1   4   54.03    2.78
   9  -1   4   45.24    2.65
   9   1   4   49.53    2.46
  -9  -1  -4   47.99    1.87
  -9   1  -4   42.61    1.80
   9  -1   5  733.78    9.77
   9   1   5  762.98    9.59
  -9  -1  -5  743.59    6.89
   9  -1   6  472.16    8.32
   9   1   6  484.43    7.91
   9  -1   7  158.12    5.29
   9   1   7  159.56    4.82
   9  -1   8    6.57    2.22
   9   1   8    7.89    1.97
   9  -1   9  214.00    6.37
   9   1   9  245.31    6.74
   9  -1  10    6.33    2.54
   9   1  10    6.97    2.43
   9  -1  11   73.81    4.81
   9   1  11   85.41    4.87
   9  -1  12   15.46    3.29
   9   1  12   10.20    2.80
   9  -1  13  158.67    7.01
   9   1  13  165.08    6.87
   9  -1  14    3.37    3.15
   9   1  14    1.80    3.07
   9  -1  15   52.79    4.91
   9   1  15   41.47    4.75
   9  -1  16    6.07    3.85
   9   1  16    1.76    3.54
   9   1  17   18.13    4.43
   9  -1  17   13.45    4.38
   9  -1  18    2.52    3.95
   9   1  18   -0.72    4.05
   9  -3 -21    8.11    4.56
  -9   3  21    9.44    5.19
   9  -3 -20   -0.42    4.39
  -9   3  20    3.60    4.75
  -9   3  19   53.31    6.42
   9  -3 -19   60.24    6.37
   9  -3 -18    1.54    4.21
  -9   3  18    0.41    4.30
  -9   3  17   25.74    5.01
   9  -3 -17   14.88    4.28
   9  -3 -16    1.43    3.57
  -9   3  16    1.68    3.90
   9  -3 -15    5.47    3.64
  -9   3  15    2.61    3.77
   9  -3 -14    3.83    3.47
  -9   3  14    7.28    3.74
   9  -3 -13  264.42    8.86
  -9   3  13  281.81    9.81
   9  -3 -12    3.84    3.02
  -9   3  12    3.09    3.32
   9  -3 -11   33.33    4.12
  -9   3  11   41.90    4.51
   9  -3 -10   81.81    5.28
  -9   3  10   68.03    4.93
  -9   3   9  725.51   13.08
   9   3  -9  739.26   10.33
   9   3  -8    9.87    1.84
   9  -3  -8   14.52    2.65
   9   3  -7  574.04    8.02
   9  -3  -7  505.51    9.47
   9  -3  -6   23.13    2.69
   9  -3  -6   26.74    2.04
  -9  -3   6   30.23    1.75
  -9  -3   6   27.41    2.44
  -9  -3   5  564.95    8.64
   9  -3  -5  575.02    9.18
   9  -3  -5  554.36    7.27
  -9  -3   5  571.79    6.59
  -9  -3   4    0.86    1.53
   9  -3  -4    0.71    1.10
   9  -3  -4   -0.35    1.59
  -9  -3   4    5.03    1.13
   9  -3  -3  189.60    5.25
   9  -3  -3  184.02    4.23
  -9  -3   3  183.34    4.94
   9  -3  -2   66.08    2.57
  -9  -3   2   57.97    2.76
   9  -3  -2   69.56    3.55
   9  -3  -2   63.18    3.16
  -9  -3   2   61.76    2.27
   9  -3  -1 2650.08   14.96
  -9  -3   1 2670.78   13.78
   9  -3   0   81.35    3.33
   9  -3   0   79.90    2.83
   9  -3   0   84.94    2.55
  -9  -3   0   82.61    2.56
   9  -3   1  312.72    6.23
   9  -3   1  323.91    5.48
  -9  -3  -1  300.40    4.48
  -9   3  -2   22.35    1.42
   9  -3   2   29.86    2.48
   9  -3   2   33.11    1.99
   9  -3   2   25.46    1.83
  -9  -3  -2   25.11    1.55
   9  -3   3  303.45    6.52
  -9  -3  -3  294.57    4.63
   9  -3   4   51.17    2.55
   9  -3   4   47.58    3.05
  -9  -3  -4   40.93    1.96
  -9   3  -4   39.59    1.97
   9  -3   5   62.48    2.93
   9  -3   5   63.56    3.45
   9  -3   6   12.39    2.27
   9  -3   6   14.89    2.00
   9  -3   7  247.60    6.73
   9  -3   7  240.44    5.80
   9  -3   8    8.79    2.14
   9  -3   8    7.71    2.45
   9  -3   9   60.66    3.70
   9  -3   9   52.47    4.09
   9  -3  10    2.38    2.25
   9  -3  10    2.19    2.47
   9  -3  11  166.78    6.01
   9  -3  11  156.33    6.36
   9  -3  12    5.38    3.11
   9  -3  13    3.12    3.08
   9  -3  14    0.61    3.38
   9  -3  15   11.36    3.75
   9  -3  16    3.96    3.72
   9  -3  17   32.60    5.05
   9  -5 -20    0.67    4.58
  -9   5  20   -0.39    4.74
  -9   5  19   33.10    5.80
   9  -5 -19   16.78    5.15
   9  -5 -18    0.71    4.38
  -9   5  18   -2.54    4.53
   9  -5 -17   95.85    7.18
  -9   5  17   91.26    7.13
   9  -5 -16   14.62    4.51
  -9   5  16    6.84    4.21
  -9   5  15   77.96    6.57
   9  -5 -15   71.88    6.13
   9  -5 -14   -1.18    3.58
  -9   5  14   -0.18    3.94
   9  -5 -13   94.99    6.13
  -9   5  13  122.50    7.14
   9  -5 -12    6.48    3.54
   9  -5 -11  193.55    7.57
   9  -5 -10   13.80    3.27
   9  -5  -9  208.30    6.92
   9  -5  -8  177.73    6.28
  -9  -5   8  151.83    5.54
   9  -5  -7   25.52    2.99
  -9  -5   7   29.72    3.06
   9  -5  -6   47.55    3.53
  -9  -5   6   46.92    3.44
   9  -5  -5  103.89    4.58
  -9  -5   5  110.21    4.70
  -9  -5   4   -0.49    2.07
   9  -5  -4    4.01    2.07
  -9  -5   3   48.20    3.46
   9  -5  -3   42.11    3.05
   9  -5  -2   61.37    3.41
  -9  -5   2   46.69    3.40
   9  -5  -1  117.34    4.33
  -9  -5   1  100.92    4.51
  -9  -5   0    4.49    2.01
   9  -5   0    2.50    1.83
   9  -5   0   -1.39    1.50
   9  -5   1  115.05    4.53
   9  -5   1  121.96    3.95
  -9  -5  -1  105.33    4.34
  -9  -5  -2    6.74    2.13
   9  -5   2    2.01    1.93
   9  -5   2    4.40    1.67
   9  -5   3  159.68    5.24
   9  -5   3  174.42    5.17
   9  -5   4   58.41    3.52
   9  -5   4   65.61    3.57
   9  -5   5   75.27    3.97
   9  -5   5   88.98    4.11
   9  -5   6  112.73    5.19
   9  -5   6  135.24    5.09
   9  -5   7  261.14    7.12
   9  -5   7  266.88    7.63
   9  -5   8    2.01    2.49
   9  -5   8    0.11    2.54
   9  -5   9  232.59    7.31
   9  -5   9  217.14    7.48
   9  -5  10    3.47    2.74
   9  -5  10    4.87    2.90
   9  -5  11   62.72    4.58
   9  -5  11   56.41    4.70
   9  -5  12    5.08    3.02
   9  -5  12    5.78    3.53
   9  -5  13   35.37    4.11
   9  -5  13   34.45    4.52
   9  -5  14    0.81    3.22
   9  -5  14    3.17    3.61
   9  -5  15   29.58    4.68
   9  -5  15    3.68    3.66
   9  -5  16   -1.72    3.73
   9  -7 -15   30.75    4.69
   9  -7 -14    0.69    3.41
   9  -7 -13    5.28    3.44
   9  -7 -12    1.19    3.12
   9  -7 -11   41.66    4.29
   9  -7 -10   14.84    3.43
  -9  -7  10    9.72    2.96
   9  -7  -9   26.38    3.71
  -9  -7   9   29.21    3.82
   9  -7  -8    9.38    2.96
  -9  -7   8    9.06    3.06
   9  -7  -7  123.98    5.80
  -9  -7   7  120.21    6.01
   9  -7  -6    1.12    2.38
  -9  -7   6   -1.55    2.82
   9  -7  -5  158.62    5.97
  -9  -7   5  153.94    6.32
  -9  -7   4   -1.60    2.74
   9  -7  -4    1.50    2.17
   9  -7  -3  302.59    7.45
  -9  -7   3  325.82    8.82
  -9  -7   2    8.99    2.94
   9  -7  -2    3.23    2.20
  -9  -7   1   20.61    3.25
   9  -7  -1   27.80    3.12
  -9  -7   0   26.83    3.47
   9  -7   0   30.00    3.07
   9  -7   1  161.03    5.84
   9  -7   1  164.48    5.71
   9  -7   2   11.98    2.76
   9  -7   2   13.77    2.79
  -9  -7  -2   10.20    2.87
   9  -7   3   85.86    4.62
  -9  -7  -3   89.52    5.12
  -9  -7  -4    0.63    2.66
   9  -7   4   -2.45    2.41
   9  -7   4    1.02    2.36
   9  -7   5  112.68    5.30
  -9  -7  -5  108.59    5.53
   9  -7   5  118.00    5.49
  -9  -7  -6   -0.30    2.58
   9  -7   6    2.01    2.70
   9  -7   6    1.24    2.68
   9  -7   7   25.92    3.40
   9  -7   7   24.51    3.55
  -9  -7  -7   19.38    3.32
  -9  -7  -8    1.83    2.62
   9  -7   8   -0.67    3.17
   9  -7   8    2.81    2.92
   9  -7   9   18.98    3.54
   9  -7   9   17.59    3.37
  -9  -7  -9   17.31    3.32
  -9  -7 -10   -0.55    2.80
   9  -7  10    3.81    3.02
   9  -7  10    2.12    2.93
  -9  -7 -11    2.17    2.87
   9  -7  11    2.58    3.17
  -9  -7 -12   -2.33    3.26
   9  -7  12    0.78    3.36
   9  -7  13   18.04    3.90
   9  -7  13   16.54    4.20
  -9  -7 -13   20.60    3.85
   9  -7  14    2.70    3.45
  -9  -9  11   21.20    4.13
  -9  -9  10    9.94    3.62
  -9  -9   9   21.22    3.90
  -9  -9   8    3.78    3.38
  -9  -9   7   64.56    5.10
  -9  -9   6   -0.48    3.41
  -9  -9   5   29.11    4.21
  -9  -9   4    2.05    3.33
  -9  -9   3   20.24    3.74
  -9  -9   2   -3.67    3.07
  -9  -9   1   39.71    4.28
  -9  -9   0    7.67    3.30
  -9  -9  -1   23.38    3.96
  -9  -9  -2    8.94    3.26
  -9  -9  -3   11.39    3.43
  -9  -9  -4    6.06    3.24
   9  -9   4    4.98    3.12
   9  -9   5   34.04    4.26
  -9  -9  -5   14.23    3.51
   9  -9   6    2.51    3.19
  -9  -9  -6    6.32    3.30
   9  -9   7   14.12    3.79
  -9  -9  -7    7.24    3.35
  -9  -9  -8    2.74    3.25
  -9  -9  -9    2.21    3.18
   9  -9   9   18.46    4.07
  10   0 -22   45.30    6.18
 -10   0  22   43.65    6.58
  10   0 -21   -0.40    4.30
 -10   0  21   -1.01    4.81
  10   0 -20   10.01    4.48
 -10   0  20   11.43    4.99
  10   0 -19   -1.18    3.86
 -10   0  19   -0.95    4.36
  10   0 -18   37.74    4.94
 -10   0  18   51.04    5.94
  10   0 -17   -1.53    3.58
 -10   0  17   -3.45    4.21
  10   0 -16  110.99    6.53
 -10   0  16  126.72    7.41
  10   0 -15   -2.42    3.30
 -10   0  15   -2.01    3.79
  10   0 -14   86.67    5.59
 -10   0  14   99.73    6.30
  10   0 -13    3.90    2.94
 -10   0  13   -2.15    3.31
  10   0 -12   12.35    3.13
 -10   0  12   14.49    3.52
  10   0 -11    2.64    2.62
 -10   0  11    2.84    2.90
  10   0 -10  586.56   11.38
 -10   0  10  562.05   11.95
  10   0  -9    0.48    2.76
 -10   0   9    0.73    2.32
  10   0  -8   74.28    4.12
 -10   0   8   69.52    4.29
  10   0  -7    0.24    1.31
  10   0  -7   -1.60    1.97
  10   0  -7    0.57    1.58
  10   0  -6 1243.57   13.45
  10   0  -6 1299.24   13.59
  10   0  -5    0.39    1.21
  10   0  -5    1.91    1.60
  10   0  -5    0.61    1.38
  10   0  -4  630.39    9.08
  10   0  -4  602.15    7.74
  10   0  -4  639.60    8.99
 -10   0   3    0.57    0.67
  10   0  -3   -0.60    1.09
  10   0  -3    0.65    1.43
  10   0  -3   -0.46    1.21
  10   0  -2  912.12   10.14
  10   0  -2  892.08    8.43
 -10   0   2  869.58    7.31
 -10   0   1    0.96    0.79
  10   0  -1   -0.21    0.89
  10   0  -1    1.39    1.25
  10   0  -1    0.61    1.17
  10   0   0  145.64    4.17
  10   0   0  137.27    3.92
 -10   0   0  133.21    3.01
 -10   0  -1    0.15    0.84
  10   0   1   -0.41    1.37
  10   0   1   -1.09    1.20
  10   0   2 3144.64   19.16
 -10   0  -2 3125.17   14.66
  10   0   3    0.10    1.32
 -10   0  -3    2.30    1.03
  10   0   3    2.39    1.61
  10   0   4  433.76    7.66
  10   0   4  386.85    7.01
  10   0   5    6.02    1.92
  10   0   6  187.29    5.62
  10   0   7    1.34    1.85
  10   0   8   25.01    2.76
  10   0   9    3.30    2.29
  10   0  10  167.48    6.38
  10   0  11    3.76    2.84
  10   0  12   40.76    4.22
  10   0  13   -1.08    3.02
  10   0  14   57.96    5.10
  10   0  15    3.51    3.38
  10   0  16   10.88    4.19
  10   0  17    0.81    3.94
  10   0  18    7.81    4.16
  10   2 -21    7.71    4.58
  10  -2 -21    3.86    4.56
 -10  -2  21   -0.18    4.75
 -10   2  21    3.53    5.20
  10   2 -20   31.97    5.10
  10  -2 -20   31.65    5.31
 -10  -2  20   43.92    5.97
 -10   2  20   46.49    6.49
  10   2 -19    5.64    4.02
  10  -2 -19    6.23    4.19
 -10  -2  19    8.26    4.60
 -10   2  19   -1.77    4.89
  10   2 -18   60.77    5.48
  10  -2 -18   45.16    5.55
 -10  -2  18   46.46    5.69
 -10   2  18   60.42    6.46
  10   2 -17    5.85    3.54
  10  -2 -17    8.82    4.00
 -10  -2  17    8.57    4.29
 -10   2  17    2.67    4.37
  10   2 -16   73.45    5.40
  10  -2 -16   70.87    5.89
 -10  -2  16   80.63    6.20
 -10   2  16   60.32    6.11
  10   2 -15   26.20    3.88
  10  -2 -15   38.09    4.72
 -10  -2  15   37.84    4.81
 -10   2  15   33.28    5.00
  10   2 -14  246.51    8.09
  10  -2 -14  237.54    8.70
 -10  -2  14  242.25    8.79
 -10   2  14  237.43    9.39
  10   2 -13   62.56    4.60
  10  -2 -13   46.94    4.61
 -10  -2  13   63.21    5.06
 -10   2  13   49.43    5.31
  10   2 -12  480.49   10.28
 -10  -2  12  446.69   10.72
 -10   2  12  459.52   12.09
  10   2 -11    6.23    2.45
  10  -2 -11    1.08    3.10
 -10  -2  11    2.15    2.81
 -10   2  11    7.23    3.33
  10   2 -10  255.21    7.01
  10  -2 -10  263.26    8.15
 -10  -2  10  240.77    7.51
 -10   2  10  231.77    8.04
  10   2  -9    3.80    2.22
  10  -2  -9    0.13    2.40
 -10   2   9    0.26    2.68
  10   2  -8  587.44    9.66
  10  -2  -8  561.86   10.69
  10   2  -8  561.98    8.85
 -10  -2   8  576.40   10.19
  10  -2  -7   44.87    3.30
  10   2  -7   46.42    2.69
  10  -2  -6  329.51    7.59
  10   2  -6  323.10    6.22
  10  -2  -5  818.58   11.21
  10   2  -5  857.33    9.21
  10  -2  -5  825.47    9.37
 -10  -2   5  824.12    7.68
  10  -2  -4  189.91    5.52
  10   2  -4  194.56    4.62
  10  -2  -4  187.25    4.51
 -10  -2   4  185.21    4.72
 -10  -2   4  189.61    3.90
  10  -2  -3   34.45    2.67
  10   2  -3   37.55    2.18
  10  -2  -3   36.64    2.23
 -10  -2   3   34.29    1.96
  10  -2  -3   32.69    2.63
 -10  -2   3   28.63    1.63
  10  -2  -2  209.32    5.40
  10   2  -2  220.06    4.39
  10  -2  -2  204.43    4.43
  10  -2  -2  222.96    5.91
 -10  -2   2  207.93    3.87
  10  -2  -1    6.40    1.69
 -10  -2   1    4.33    0.99
  10  -2  -1    3.11    1.15
  10   2  -1    3.99    1.26
  10  -2  -1    4.68    1.53
 -10   2   1    4.61    0.91
  10  -2   0  363.79    6.85
  10   2   0  366.20    5.69
 -10  -2   0  367.93    5.25
  10  -2   1  184.91    3.73
  10  -2   1  192.00    5.15
  10   2   1  198.69    4.40
 -10  -2  -1  182.73    3.71
  10  -2   2   57.05    2.34
  10  -2   2   61.91    3.26
  10   2   2   52.00    2.41
 -10   2  -2   55.29    2.21
  10  -2   3    9.03    1.44
  10   2   3    5.52    1.29
  10  -2   3    5.82    1.84
 -10   2  -3    5.46    1.15
  10  -2   4  224.62    4.85
  10  -2   4  211.38    5.81
  10  -2   5   13.50    2.20
  10   2   5   13.38    1.94
  10  -2   6  221.71    5.37
  10   2   6  229.19    5.44
  10  -2   7   39.45    3.35
  10   2   7   28.83    2.55
  10  -2   8  206.21    6.58
  10   2   8  199.06    5.79
  10  -2   9  154.79    6.19
  10   2   9  141.13    5.34
  10  -2  10  136.15    5.91
  10   2  10  143.46    5.66
  10  -2  11    2.94    2.67
  10   2  11    3.59    2.54
  10  -2  12  114.21    6.03
  10   2  12  126.16    5.88
  10  -2  13    3.98    3.34
  10   2  13    5.23    3.17
  10  -2  14   38.15    4.76
  10   2  14   29.55    4.24
  10  -2  15    1.99    3.53
  10   2  15    0.90    3.45
  10  -2  16   34.46    4.85
  10  -2  17   -1.96    4.10
  10  -4 -20   52.14    6.80
 -10   4  20   25.82    5.94
  10  -4 -19   -1.11    5.70
 -10   4  19    0.64    4.76
  10  -4 -18   48.87    7.24
 -10   4  18   38.99    5.96
  10  -4 -17   -2.67    4.73
 -10   4  17    5.15    4.52
  10  -4 -16   28.99    5.36
 -10   4  16   29.25    5.35
  10  -4 -15   12.42    4.24
 -10   4  15   15.90    4.58
  10  -4 -14   38.26    4.97
 -10   4  14   31.68    5.09
  10  -4 -13    8.56    3.73
 -10   4  13   14.69    4.37
  10  -4 -12  306.67    9.79
 -10   4  12  346.08   10.83
  10  -4 -11   29.40    4.13
  10  -4 -10   52.95    4.48
  10  -4  -9    0.13    2.48
  10  -4  -8  258.72    7.68
  10  -4  -7   12.46    2.66
  10  -4  -6   38.01    3.44
 -10  -4   6   31.31    2.80
 -10  -4   5  230.65    6.21
  10  -4  -5  245.18    7.03
 -10  -4   4  382.45    7.88
  10  -4  -4  448.27    8.81
  10  -4  -3    0.96    1.86
 -10  -4   3    0.71    1.89
  10  -4  -2  350.60    7.57
 -10  -4   2  303.98    6.88
 -10  -4   1    0.60    1.55
  10  -4  -1    2.79    1.78
  10  -4   0  744.16   10.57
 -10  -4   0  648.42    9.29
  10  -4   1    3.48    1.56
  10  -4   1    2.29    1.95
  10  -4   1    0.47    1.27
  10  -4   2    6.61    1.60
  10  -4   2    0.10    1.79
  10  -4   3   22.38    2.23
  10  -4   3   19.11    2.59
  10  -4   4  301.95    6.63
  10  -4   4  270.60    7.02
  10  -4   5   46.12    3.01
  10  -4   5   29.63    3.10
  10  -4   6  221.72    6.07
  10  -4   6  219.68    6.89
  10  -4   7    8.94    2.43
  10  -4   7    6.38    2.74
  10  -4   8  244.55    6.72
  10  -4   8  237.76    7.44
  10  -4   9   24.53    3.17
  10  -4   9   14.85    3.24
  10  -4  10   19.82    3.46
  10  -4  10   24.82    3.33
  10  -4  11    9.62    2.95
  10  -4  11    3.12    2.95
  10  -4  12   38.43    3.86
  10  -4  12   31.53    4.36
  10  -4  13    2.00    3.43
  10  -4  14   21.51    4.28
  10  -4  15    4.07    3.76
  10  -4  16   38.07    5.09
  10  -6 -18   16.33    4.77
  10  -6 -17    1.89    4.12
  10  -6 -16   31.92    5.00
  10  -6 -15    0.91    3.60
  10  -6 -14   21.75    4.17
  10  -6 -13    1.36    3.18
  10  -6 -12   15.63    3.85
  10  -6 -11    4.93    3.12
  10  -6 -10  158.12    6.79
  10  -6  -9    1.23    2.88
  10  -6  -8   68.82    4.79
 -10  -6   8   60.77    4.38
  10  -6  -7   73.11    4.77
 -10  -6   7   71.63    4.63
  10  -6  -6  175.47    6.61
 -10  -6   6  155.50    6.01
 -10  -6   5    5.86    2.85
  10  -6  -5    5.27    2.40
  10  -6  -4  255.73    7.31
 -10  -6   4  243.23    7.33
  10  -6  -3    9.29    2.53
 -10  -6   3    8.63    2.62
 -10  -6   2  156.03    6.24
  10  -6  -2  168.47    5.81
 -10  -6   1    6.64    2.65
  10  -6  -1    0.90    2.12
  10  -6   0   51.41    3.77
 -10  -6   0   49.42    3.96
  10  -6   1   20.77    2.90
 -10  -6  -1   20.67    3.03
  10  -6   2  330.49    8.18
  10  -6   2  374.70    8.15
  10  -6   3   38.18    3.61
  10  -6   3   42.38    3.46
 -10  -6  -3   37.84    3.47
  10  -6   4  100.15    5.03
 -10  -6  -4   84.18    4.53
  10  -6   5   28.18    3.41
 -10  -6  -5   28.59    3.20
  10  -6   6   57.74    4.09
  10  -6   6   64.04    4.58
  10  -6   7   16.11    3.17
  10  -6   7   15.80    3.34
  10  -6   8   38.97    4.05
  10  -6   8   36.86    4.01
  10  -6   9    3.70    3.08
  10  -6  10   31.04    3.79
  10  -6  10   20.99    3.74
  10  -6  11   -0.68    2.94
  10  -6  11    1.75    3.34
  10  -6  12   12.10    3.61
  10  -6  12    8.41    3.63
  10  -6  13    3.62    3.29
  10  -6  13   -1.47    3.69
  10  -6  14   37.33    4.54
  10  -6  14   23.33    4.59
 -10  -8   9    1.50    3.12
 -10  -8   8   48.69    4.66
 -10  -8   7    7.51    3.43
 -10  -8   6   79.23    5.59
 -10  -8   5    4.28    3.13
 -10  -8   4    4.41    2.92
 -10  -8   3    9.14    3.29
 -10  -8   2    8.07    3.10
 -10  -8   1    2.69    2.85
 -10  -8   0   15.70    3.42
 -10  -8  -1    3.01    2.98
 -10  -8  -2   44.23    4.32
 -10  -8  -3    2.63    2.91
 -10  -8  -4   20.67    3.58
  10  -8   4   21.97    3.63
 -10  -8  -5   -1.74    3.02
  10  -8   5    5.52    3.20
 -10  -8  -6   15.21    3.49
  10  -8   6    6.45    3.42
  10  -8   7   17.15    3.60
 -10  -8  -7    0.20    3.08
 -10  -8  -8   16.72    3.76
  10  -8   8    6.30    3.34
  10  -8   9    0.57    3.41
 -10  -8  -9   -0.59    3.16
  10  -8  10   56.31    5.05
 -10  -8 -10   23.70    4.01
  10  -8  11   25.77    4.08
 -10 -10   9    3.17    3.59
 -10 -10   8    8.64    3.71
 -10 -10   7   -0.81    3.52
 -10 -10   6   19.58    4.10
 -10 -10   5    0.67    3.45
 -10 -10   4   18.98    4.04
 -10 -10   3    8.78    3.77
 -10 -10   2   22.91    3.94
 -10 -10   1   -4.39    3.50
 -10 -10   0   38.20    4.28
 -10 -10  -1    1.08    2.99
 -10 -10  -2    5.26    3.32
 -10 -10  -3    3.41    3.18
 -10 -10  -4   10.45    3.57
  11  -1 -21   33.95    5.71
  11   1 -21   24.99    5.22
 -11  -1  21   23.03    5.73
 -11   1  21   18.05    6.17
  11   1 -20   -0.11    4.40
  11  -1 -20    2.61    4.46
 -11  -1  20   -1.29    4.88
 -11   1  20    8.86    5.35
  11  -1 -19   18.94    4.81
  11   1 -19   19.36    4.71
 -11  -1  19   16.19    5.09
 -11   1  19   21.50    5.58
  11   1 -18    3.88    4.07
  11  -1 -18    8.14    4.31
 -11  -1  18    8.33    4.71
 -11   1  18    4.44    4.97
  11   1 -17  107.50    6.87
  11  -1 -17  111.77    7.09
 -11  -1  17  120.88    7.69
 -11   1  17  101.30    7.57
  11   1 -16   33.99    4.69
 -11  -1  16   43.33    5.59
 -11   1  16   30.73    5.21
  11   1 -15  121.26    6.66
  11  -1 -15  114.34    6.74
 -11  -1  15  111.88    7.19
 -11   1  15  113.80    7.62
  11   1 -14    6.02    3.37
  11  -1 -14   10.35    3.65
 -11  -1  14    3.14    3.84
 -11   1  14    3.79    4.11
  11  -1 -13  133.61    6.96
 -11  -1  13  134.33    7.23
 -11   1  13  129.83    7.47
  11   1 -12   55.54    4.49
  11  -1 -12   68.57    5.38
 -11  -1  12   51.08    4.91
 -11   1  12   61.39    5.43
  11   1 -11  186.45    7.32
  11  -1 -11  178.10    7.55
 -11  -1  11  141.52    6.65
 -11   1  11  130.59    6.71
  11  -1 -10   55.98    4.45
 -11  -1  10   56.19    4.55
 -11   1  10   50.52    4.62
 -11  -1   9  803.22   13.71
 -11   1   9  816.57   14.47
  11   1  -8   26.65    2.86
  11  -1  -8   27.23    3.18
  11  -1  -7  170.49    5.72
  11   1  -7  178.62    5.09
  11   1  -7  171.35    5.26
  11   1  -6   13.55    2.13
  11   1  -6   12.58    1.81
  11  -1  -6   12.08    2.26
  11   1  -6   15.58    2.19
  11  -1  -5  498.79    9.08
  11   1  -5  507.66    8.40
  11  -1  -5  518.33    8.16
  11   1  -5  492.89    7.77
  11   1  -5  529.73    8.67
  11  -1  -4   17.64    2.30
  11   1  -4   16.38    2.07
  11  -1  -4   13.18    1.77
  11   1  -4   11.99    1.59
  11  -1  -3  112.78    4.42
  11   1  -3  110.43    3.84
  11  -1  -3   98.84    3.46
  11  -1  -3  108.11    4.24
 -11  -1   3   97.84    2.81
  11  -1  -2  724.13   10.14
  11   1  -2  711.46    8.90
  11  -1  -2  641.94    8.14
  11  -1  -2  754.63   10.36
 -11  -1   2  687.51    7.06
 -11   1   2  622.77    6.25
  11  -1  -1  419.25    7.53
  11   1  -1  450.31    7.24
  11  -1  -1  399.15    6.17
  11  -1  -1  426.63    7.63
 -11  -1   1  426.82    5.70
 -11  -1   0   -0.30    0.98
 -11   1   0    1.25    0.92
  11  -1   0    1.03    1.57
  11   1   0    0.53    1.43
  11  -1   1  300.31    6.64
  11   1   1  296.47    5.96
  11   1   2    1.00    0.98
 -11   1  -2    1.02    0.96
  11  -1   2    0.22    1.70
  11   1   2    1.06    1.45
  11  -1   3  568.57    9.28
  11   1   3  541.68    8.29
  11  -1   4   62.70    3.50
  11   1   4   67.26    3.49
  11  -1   5    9.32    2.25
  11   1   5    9.03    2.08
  11  -1   6   -0.02    2.17
  11   1   6    0.02    1.78
  11  -1   7  152.84    5.81
  11   1   7  141.58    5.00
  11   1   8   10.69    2.59
  11  -1   8   11.64    2.90
  11  -1   9  149.16    5.92
  11   1   9  162.62    6.11
  11  -1  10    6.67    2.82
  11   1  10    3.92    2.58
  11  -1  11  154.51    6.84
  11   1  11  146.15    6.42
  11  -1  12   28.05    4.07
  11   1  12   21.14    3.64
  11  -1  13   23.88    4.30
  11   1  13   27.66    4.04
  11  -1  14   -1.57    3.38
  11   1  14    3.61    3.49
  11  -1  15   31.93    4.78
  11   1  15   22.85    4.48
  11  -1  16    1.73    3.97
  11   1  16    6.14    4.07
  11   1  17   23.92    4.93
  11  -1  17   14.54    4.89
  11  -3 -20    0.62    5.89
 -11   3  20    3.95    5.31
  11  -3 -19   94.80    8.70
 -11   3  19   66.65    7.03
  11  -3 -18    3.72    5.42
 -11   3  18    0.12    4.50
  11  -3 -17   13.25    5.80
 -11   3  17   16.68    4.93
  11  -3 -16   -1.48    5.12
 -11   3  16    0.71    4.17
  11  -3 -15   32.22    5.22
 -11   3  15   50.67    5.81
  11  -3 -14    6.48    3.93
 -11   3  14    0.67    3.98
  11  -3 -13  140.03    7.17
 -11   3  13  137.55    7.63
  11  -3 -12    2.85    3.40
 -11   3  12    1.77    3.83
  11  -3 -11  145.51    6.92
  11  -3 -10   12.14    3.29
  11  -3  -9    8.36    2.77
  11  -3  -8   17.19    2.94
  11  -3  -7  425.50    9.33
  11  -3  -6    4.59    2.30
  11  -3  -5  149.41    5.73
 -11  -3   5  121.91    3.42
  11  -3  -4   64.41    3.85
 -11  -3   4   57.73    3.33
  11  -3  -3  678.63   10.37
 -11  -3   3  614.62    9.00
  11  -3  -2   19.51    2.68
 -11  -3   2   13.17    1.97
  11  -3  -1  383.75    7.53
  11  -3  -1  398.68    6.95
  11  -3   0    5.76    1.60
  11  -3   0    6.03    2.08
  11  -3   1  454.48    6.54
  11  -3   1  479.23    8.88
  11  -3   2   -0.71    1.34
  11  -3   2   -1.17    1.89
  11  -3   3   70.12    3.14
  11  -3   3   65.98    3.84
  11  -3   4   11.69    2.51
  11  -3   4   21.66    2.26
  11  -3   5  889.22   10.94
  11  -3   5  794.96   11.98
  11  -3   6   29.19    2.84
  11  -3   6   27.27    3.36
  11  -3   7  213.35    6.07
  11  -3   7  181.53    6.58
  11  -3   8    5.64    2.18
  11  -3   8   11.60    2.83
  11  -3   9   52.74    4.47
  11  -3  10    7.41    3.01
  11  -3  11   15.17    3.51
  11  -3  12    1.35    3.27
  11  -3  13   42.91    4.83
  11  -3  14    8.51    3.98
  11  -3  15   14.57    4.13
  11  -3  16   -0.19    3.98
  11  -5 -19    7.52    4.80
  11  -5 -18   -6.37    4.67
  11  -5 -17   30.59    5.29
  11  -5 -16   -1.08    4.27
  11  -5 -15   66.31    6.11
  11  -5 -14   14.46    4.07
  11  -5 -13   73.67    5.56
  11  -5 -12    5.56    3.43
  11  -5 -11  252.64    8.86
  11  -5 -10   14.30    3.60
  11  -5  -9  178.20    7.04
  11  -5  -8    3.79    2.90
  11  -5  -7  179.69    7.03
 -11  -5   6    1.98    2.28
  11  -5  -6   -3.20    2.64
 -11  -5   5  177.71    6.00
  11  -5  -5  194.20    6.70
 -11  -5   4   46.31    3.67
  11  -5  -4   50.41    3.85
 -11  -5   3  205.11    6.51
  11  -5  -3  266.12    7.36
  11  -5  -2  135.86    5.23
 -11  -5   2  106.86    4.94
  11  -5  -1   24.16    3.01
 -11  -5   1   13.78    2.49
  11  -5   0    8.70    2.51
 -11  -5   0    4.91    2.24
  11  -5   1   35.61    3.37
 -11  -5  -1   27.74    2.90
 -11  -5  -2    7.21    1.99
  11  -5   2    2.13    1.88
  11  -5   2    3.57    2.37
  11  -5   3   73.79    3.82
  11  -5   3   70.06    4.39
  11  -5   4   41.06    3.50
  11  -5   4   35.27    3.50
  11  -5   5   90.62    4.43
  11  -5   5   78.71    4.55
  11  -5   6    0.44    2.71
  11  -5   7   45.89    3.80
  11  -5   7   45.65    4.28
  11  -5   8   -0.42    2.45
  11  -5   8    3.62    3.07
  11  -5   9   39.94    3.97
  11  -5   9   45.18    4.61
  11  -5  10    3.87    2.97
  11  -5  10    0.08    2.99
  11  -5  11   22.06    3.78
  11  -5  11   21.85    3.94
  11  -5  12   19.35    3.68
  11  -5  12    8.58    3.91
  11  -5  13   32.55    4.77
  11  -5  14   -6.28    4.17
  11  -7 -16   -0.77    3.90
  11  -7 -15   13.34    4.25
  11  -7 -14   -1.47    3.52
  11  -7 -13    4.21    3.57
  11  -7 -12    2.39    3.48
  11  -7 -11   10.30    3.87
  11  -7 -10   -0.99    3.21
  11  -7  -9   94.68    5.76
  11  -7  -8   21.29    3.77
 -11  -7   8   16.12    3.44
  11  -7  -7   22.08    3.54
 -11  -7   7   18.11    3.56
  11  -7  -6    3.42    2.76
 -11  -7   6    6.09    2.99
  11  -7  -5   57.47    4.40
 -11  -7   5   53.85    4.24
 -11  -7   4    6.05    2.90
  11  -7  -4    3.93    2.59
  11  -7  -3   25.48    3.42
 -11  -7   3   23.98    3.46
 -11  -7   2    5.34    3.01
  11  -7  -2    8.72    2.87
 -11  -7   1   84.31    5.23
  11  -7  -1  116.95    5.70
  11  -7   0    0.11    2.47
 -11  -7   0    5.15    2.89
 -11  -7  -1   77.37    4.98
  11  -7   1  115.52    5.60
 -11  -7  -2   -0.78    2.85
  11  -7   2    0.74    2.74
  11  -7   3  163.67    6.52
 -11  -7  -3  130.77    6.14
 -11  -7  -4    1.93    2.76
  11  -7   4    3.07    2.86
  11  -7   5   16.72    3.32
  11  -7   5   20.70    3.65
  11  -7   6    5.82    3.11
  11  -7   6    0.38    2.92
 -11  -7  -6   -0.13    2.77
  11  -7   7   41.39    4.41
  11  -7   7   40.20    4.22
 -11  -7  -8    2.42    2.77
  11  -7   8    2.32    3.17
  11  -7   9   29.81    4.03
 -11  -7  -9   28.05    3.63
  11  -7  10    2.73    3.10
  11  -7  10    0.66    3.30
 -11  -7 -10    3.31    2.94
  11  -7  11   23.90    4.06
  11  -7  11   23.61    4.43
 -11  -7 -11   18.93    3.69
  11  -7  12    3.66    3.48
 -11  -9   9    7.36    3.28
 -11  -9   8   -0.33    3.35
 -11  -9   7   40.55    4.48
 -11  -9   6    2.84    3.51
 -11  -9   5   29.20    4.48
 -11  -9   4    6.46    3.41
 -11  -9   3   18.35    3.78
 -11  -9   2    2.22    3.05
 -11  -9   1   36.07    4.27
 -11  -9   0    2.40    3.17
 -11  -9  -1   18.18    3.73
 -11  -9  -2    0.45    3.08
 -11  -9  -3    6.17    3.31
 -11  -9  -4    2.46    3.10
 -11  -9  -5    8.06    3.29
 -11  -9  -6    5.12    3.18
  11  -9   7   10.92    3.77
 -11  -9  -7    8.28    3.37
  12   0 -21   -2.00    4.59
 -12   0  21    2.80    5.51
  12   0 -20   42.56    6.05
 -12   0  20   28.69    6.31
  12   0 -19   -4.51    4.41
 -12   0  19    0.22    5.21
  12   0 -18   15.77    4.57
 -12   0  18   14.38    5.48
  12   0 -17   -0.34    3.88
 -12   0  17    1.52    4.84
  12   0 -16  236.39    9.43
 -12   0  16  221.81   10.40
  12   0 -15    0.46    3.72
 -12   0  15   -4.71    4.66
 -12   0  14   23.00    4.75
  12   0 -14   19.40    4.44
  12   0 -13    6.23    4.50
 -12   0  13    2.56    3.84
  12   0 -12   75.79    5.37
 -12   0  12   83.65    6.13
  12   0 -11   -0.05    2.88
 -12   0  11    2.02    3.46
  12   0 -10  196.01    7.29
 -12   0  10  161.20    7.30
  12   0  -9    0.59    2.43
  12   0  -8  320.84    8.00
  12   0  -7   -0.16    1.95
  12   0  -6   73.47    3.99
  12   0  -6   65.88    3.28
  12   0  -5    1.09    1.42
  12   0  -5    1.68    1.97
  12   0  -4  434.06    8.50
  12   0  -4  137.22    4.34
  12   0  -3    1.83    1.74
  12   0  -3    2.17    1.65
  12   0  -2  217.86    5.64
  12   0  -2  233.23    6.02
 -12   0   2  223.06    4.28
 -12   0   1    0.34    1.09
  12   0  -1   -1.20    1.66
  12   0  -1   -0.38    1.58
  12   0   0  913.84   11.39
  12   0   1   -0.49    1.66
  12   0   2  297.10    6.74
  12   0   3   -1.22    1.83
  12   0   4  365.89    7.69
  12   0   5    2.12    2.20
  12   0   6   52.88    3.74
  12   0   7   -0.68    2.27
  12   0   8  539.27   10.71
  12   0   9    3.97    2.75
  12   0  10  120.34    6.03
  12   0  11   -4.05    3.06
  12   0  12   15.08    3.81
  12   0  13    5.18    3.52
  12   0  14    7.63    3.78
  12   0  15   -3.49    3.90
  12   0  16   17.56    4.83
  12  -2 -21    0.90    5.13
 -12   2  21    5.67    5.45
  12  -2 -20   22.40    6.55
 -12   2  20   18.49    5.86
  12  -2 -19    4.55    5.88
 -12   2  19   -1.07    4.84
  12  -2 -18   46.21    6.99
 -12  -2  18   38.92    5.86
 -12   2  18   48.41    6.32
  12   2 -17   -3.61    3.76
  12  -2 -17   -0.49    4.42
 -12  -2  17    3.47    4.48
 -12   2  17    0.32    4.58
  12   2 -16   21.84    4.35
 -12  -2  16   30.85    5.47
 -12   2  16   31.22    5.68
  12   2 -15    3.04    3.40
  12  -2 -15   -4.15    4.12
 -12  -2  15   -3.55    4.47
 -12   2  15   -0.86    4.43
  12   2 -14  146.07    6.89
  12  -2 -14  128.22    7.21
 -12  -2  14  147.49    8.16
  12   2 -13  112.03    6.89
  12  -2 -13   86.46    6.08
 -12  -2  13  100.36    6.46
 -12   2  13   80.34    6.61
  12   2 -12  217.39    7.61
  12  -2 -12  221.98    8.49
 -12  -2  12  219.87    8.40
 -12   2  12  234.19    9.50
  12   2 -11   17.22    3.15
  12  -2 -11   21.42    4.03
 -12  -2  11   19.49    4.03
  12   2 -10  236.63    7.17
  12  -2 -10  216.18    7.85
  12  -2  -9   29.89    3.43
  12  -2  -8  316.48    8.61
  12  -2  -7   91.40    4.82
  12  -2  -6  662.43   11.49
  12  -2  -5    3.57    2.26
  12  -2  -4  317.04    7.86
 -12  -2   4  281.82    5.33
  12  -2  -3   10.55    2.32
  12  -2  -3    4.66    1.71
  12  -2  -2  319.75    7.37
  12  -2  -2  297.95    6.06
  12  -2  -1   71.04    3.71
  12  -2   0  196.73    5.88
  12  -2   1  426.68    8.75
  12  -2   2  110.91    4.71
  12  -2   3    0.86    2.11
  12  -2   4   72.63    4.18
  12  -2   5    8.01    2.48
  12  -2   6  157.40    6.24
  12  -2   7   40.50    3.88
  12  -2   8   57.19    4.34
  12  -2   9   -1.88    2.99
  12  -2  10   40.91    4.28
  12  -2  11   -1.12    2.99
  12  -2  12   46.47    4.82
  12  -2  13    2.38    3.63
  12  -2  14   31.23    4.91
  12  -2  15   -0.36    3.84
  12  -2  16   11.90    4.37
  12  -4 -19   -1.23    4.74
 -12   4  19    6.27    5.33
  12  -4 -18   42.87    6.01
 -12   4  18   34.59    6.16
  12  -4 -17    1.20    4.28
  12  -4 -16   23.99    4.91
  12  -4 -15   13.57    4.52
  12  -4 -14  121.63    7.30
  12  -4 -13   21.95    4.45
  12  -4 -12   76.39    5.56
  12  -4 -11    6.54    3.57
  12  -4 -10   71.86    5.27
  12  -4  -9    4.96    3.02
  12  -4  -8   24.57    3.53
  12  -4  -7    5.40    3.00
  12  -4  -6  518.17   10.81
  12  -4  -5   51.85    4.15
  12  -4  -4   78.70    4.45
 -12  -4   4   69.70    3.86
  12  -4  -3   20.27    3.12
 -12  -4   3   19.24    2.64
  12  -4  -2  167.74    5.76
 -12  -4   2  144.63    5.00
  12  -4  -1    2.01    2.42
 -12  -4   1    0.82    1.75
  12  -4   0   28.26    3.12
 -12  -4   0    6.29    1.85
  12  -4   1  102.72    5.05
  12  -4   2  259.18    5.89
  12  -4   2  255.97    7.36
  12  -4   3    3.26    2.03
  12  -4   3    1.82    2.43
  12  -4   4  198.72    5.92
  12  -4   4  168.26    6.25
  12  -4   5    1.78    2.20
  12  -4   5    3.36    2.54
  12  -4   6  239.19    6.74
  12  -4   6  212.21    7.42
  12  -4   7    3.63    2.55
  12  -4   7    1.23    2.92
  12  -4   8    7.88    2.77
  12  -4   8   11.11    3.38
  12  -4   9   -2.10    3.09
  12  -4  10   32.62    4.01
  12  -4  11    2.80    3.32
  12  -4  12   49.71    5.21
  12  -4  13   -0.06    3.65
  12  -4  14   29.14    4.93
  12  -6 -17    0.94    4.27
  12  -6 -16   26.13    5.09
  12  -6 -15   14.41    4.41
  12  -6 -14    5.08    3.95
  12  -6 -13    1.04    3.67
  12  -6 -12   19.66    4.17
  12  -6 -11    8.45    3.82
  12  -6 -10   62.23    5.39
  12  -6  -9   -1.95    3.27
  12  -6  -8   72.05    5.27
  12  -6  -7    7.76    3.13
 -12  -6   6    5.77    2.53
  12  -6  -6    6.39    3.02
  12  -6  -5   18.32    3.46
 -12  -6   5   16.99    3.17
 -12  -6   4  124.59    5.67
  12  -6  -4  134.49    5.93
  12  -6  -3    6.52    2.78
 -12  -6   3    6.66    2.74
 -12  -6   2   67.31    4.48
  12  -6  -2   77.24    4.85
  12  -6  -1   34.35    3.81
 -12  -6   1   31.63    3.54
  12  -6   0  119.48    5.78
 -12  -6   0   91.66    5.14
 -12  -6  -1    0.21    2.56
  12  -6   1    3.69    2.83
  12  -6   2  115.66    5.84
 -12  -6  -2   89.01    4.92
 -12  -6  -3   -0.18    2.53
  12  -6   3    0.28    2.80
  12  -6   4  108.14    5.14
  12  -6   4   97.63    5.52
  12  -6   5    1.76    2.79
 -12  -6  -5    1.17    2.58
  12  -6   6   27.00    3.40
  12  -6   6   19.17    3.75
  12  -6   7   -2.34    2.83
  12  -6   7   -1.81    3.18
  12  -6   8   67.77    4.72
  12  -6   8   60.07    5.05
  12  -6   9    2.52    3.03
  12  -6   9    1.34    3.28
  12  -6  10   28.89    4.04
  12  -6  10   31.56    4.40
  12  -6  11   16.54    3.92
  12  -6  11    4.06    3.57
  12  -6  12   14.95    4.24
  12  -8  -9   -3.26    3.37
  12  -8  -8   51.99    4.70
  12  -8  -7   -1.10    2.88
 -12  -8   7    0.84    3.21
  12  -8  -6   27.47    3.78
 -12  -8   6   22.73    3.96
  12  -8  -5    3.69    3.13
 -12  -8   5   -1.80    2.90
  12  -8  -4   36.23    4.01
 -12  -8   4   29.49    3.85
 -12  -8   3    3.58    3.20
  12  -8  -3    1.29    2.96
  12  -8  -2   33.68    3.95
 -12  -8   2   18.04    3.63
 -12  -8   1   12.80    3.49
  12  -8  -1   10.92    3.30
 -12  -8   0   44.08    4.36
  12  -8   0   55.55    4.62
  12  -8   1   -1.11    2.93
 -12  -8  -1    3.35    3.07
  12  -8   2    2.89    2.88
 -12  -8  -2    2.24    3.00
 -12  -8  -3    0.17    2.87
  12  -8   3    3.01    2.94
 -12  -8  -4    9.15    3.41
  12  -8   4    9.31    3.46
 -12  -8  -5   -1.93    3.03
  12  -8   5   -0.92    3.18
 -12  -8  -6    5.80    3.35
  12  -8   6   12.46    3.62
  12  -8   7    1.23    3.41
 -12  -8  -7   -2.26    3.14
  12  -8   8   20.55    4.01
 -12  -8  -8   12.19    3.57
 -12 -10   4    6.63    3.84
 -12 -10   3   -1.54    3.68
 -12 -10   2    6.88    3.36
  13   1 -21   37.61    7.28
 -13  -1  21   14.96    5.69
  13   1 -20   -4.92    5.89
  13  -1 -20    1.74    4.62
 -13  -1  20    4.81    4.96
 -13   1  20    0.44    5.28
 -13  -1  19   28.71    5.71
  13  -1 -19   21.51    5.22
 -13   1  19   13.90    5.53
  13   1 -18    9.56    5.67
  13  -1 -18    3.02    4.31
 -13  -1  18    8.86    4.91
 -13   1  18    4.95    5.02
  13   1 -17   35.38    6.26
 -13  -1  17   21.55    5.42
 -13   1  17   20.28    5.58
  13  -1 -17   21.46    4.87
  13   1 -16    2.29    4.38
  13  -1 -16    2.03    3.94
 -13  -1  16   -5.29    4.64
 -13   1  16    6.95    4.91
  13   1 -15  118.55    6.97
  13  -1 -15  125.01    7.36
 -13  -1  15   99.01    7.27
 -13   1  15  106.12    7.85
  13   1 -14   -0.43    3.39
  13  -1 -14    3.93    3.96
 -13  -1  14    0.55    4.04
 -13   1  14   -0.51    4.36
  13   1 -13   55.47    5.01
  13  -1 -13   57.94    5.39
 -13  -1  13   46.37    5.44
 -13   1  13   39.02    5.63
  13   1 -12    7.89    3.28
  13  -1 -12    2.77    3.27
 -13  -1  12   -1.75    3.89
  13   1 -11  292.23    8.82
  13  -1 -11  271.78    9.00
  13   1 -10  160.40    6.25
  13  -1 -10  140.35    6.36
  13   1  -9  211.96    7.03
  13  -1  -9  191.55    7.20
  13   1  -8    5.03    2.33
  13  -1  -8    4.91    2.64
  13  -1  -7  223.02    7.19
  13   1  -7  223.49    6.61
  13  -1  -6   16.48    2.95
  13   1  -6    8.76    2.17
  13  -1  -5   98.81    4.87
  13   1  -5  106.32    4.46
  13  -1  -4   60.50    3.88
  13   1  -4   62.28    3.46
  13  -1  -3  766.41   11.96
  13   1  -3  787.42   10.48
  13  -1  -2   12.96    2.39
  13   1  -2   24.29    2.45
  13  -1  -1  206.97    6.25
  13   1  -1  208.43    5.60
  13  -1   0   21.51    2.78
  13   1   0   18.26    2.26
  13  -1   1  201.89    6.32
  13   1   1  189.04    5.42
  13  -1   2   15.17    2.79
  13   1   2   14.86    2.23
  13  -1   3   49.47    3.72
  13   1   3   51.87    3.28
  13  -1   4  187.26    6.45
  13   1   4  179.53    5.79
  13  -1   5  166.76    6.34
  13   1   5  170.31    5.95
  13  -1   6   10.87    2.93
  13   1   6    2.50    2.23
  13  -1   7  108.56    5.58
  13   1   7   82.35    4.50
  13  -1   8    0.80    2.77
  13   1   8    1.42    2.45
  13  -1   9  101.45    5.60
  13   1   9  105.61    5.53
  13  -1  10    4.88    3.06
  13   1  10   12.83    3.25
  13  -1  11   11.72    3.68
  13   1  11    7.90    3.49
  13  -1  12   -3.88    3.41
  13   1  12   -0.23    3.24
  13  -1  13   21.80    4.34
  13   1  13   19.43    4.35
  13  -1  14    0.47    3.73
  13   1  14   -1.72    3.81
  13  -1  15   30.52    5.16
  13   1  15   23.83    5.11
  13  -3 -20    0.48    4.82
 -13   3  20   -3.84    5.53
  13  -3 -19   43.87    6.14
 -13   3  19   30.08    6.40
  13  -3 -18    0.17    4.25
 -13   3  18   12.68    5.78
  13  -3 -17   74.95    6.66
  13  -3 -16   -3.14    4.12
  13  -3 -15   19.96    4.71
  13  -3 -14   -0.33    3.84
  13  -3 -13  174.40    7.98
  13  -3 -12   20.45    3.93
  13  -3 -11   25.40    4.12
  13  -3 -10    1.06    3.13
  13  -3  -9   48.02    4.42
  13  -3  -8    1.54    2.88
  13  -3  -7  132.08    6.18
  13  -3  -6    1.03    2.79
  13  -3  -5  294.94    8.22
  13  -3  -4   21.04    3.07
  13  -3  -3   10.47    2.70
  13  -3  -2   17.77    2.84
 -13  -3   2   18.67    2.27
  13  -3  -1  188.05    6.41
  13  -3   0    7.92    2.63
  13  -3   1  160.91    6.11
  13  -3   2   22.30    3.30
  13  -3   3  320.69    8.47
  13  -3   4    9.26    2.76
  13  -3   5  112.31    5.51
  13  -3   6   -3.17    2.85
  13  -3   7  125.90    6.33
  13  -3   8   -3.08    3.16
  13  -3   9   22.53    3.97
  13  -3  10    3.32    3.21
  13  -3  11  111.86    6.54
  13  -3  12    1.23    3.68
  13  -3  13   30.34    4.85
  13  -3  14    5.52    4.15
  13  -5 -18    7.50    4.38
  13  -5 -17   18.20    4.67
  13  -5 -16    0.42    4.27
  13  -5 -15   20.62    4.76
  13  -5 -14    5.60    4.04
  13  -5 -13   27.54    4.60
  13  -5 -12    1.53    3.56
  13  -5 -11   47.60    5.08
  13  -5 -10   27.19    4.45
  13  -5  -9  187.90    8.17
  13  -5  -8    8.16    3.45
  13  -5  -7  149.99    7.00
  13  -5  -6    4.78    3.11
  13  -5  -5  220.84    7.63
 -13  -5   4   13.07    2.90
  13  -5  -4   18.80    3.38
 -13  -5   3  120.02    5.24
  13  -5  -3  150.30    6.19
 -13  -5   2    1.55    2.48
  13  -5  -2    0.96    2.77
  13  -5  -1  121.39    5.70
 -13  -5   1   94.70    4.80
  13  -5   0    5.92    2.91
 -13  -5   0   -0.32    2.30
  13  -5   1   92.81    5.27
 -13  -5  -1   72.40    4.24
  13  -5   2   42.09    4.22
 -13  -5  -2   32.82    3.31
  13  -5   3  105.73    5.79
  13  -5   4   31.77    3.32
  13  -5   4   29.80    3.83
  13  -5   5   19.21    3.14
  13  -5   5   15.86    3.28
  13  -5   6    0.93    2.54
  13  -5   6    3.20    3.15
  13  -5   7    9.72    3.02
  13  -5   7    9.90    3.41
  13  -5   8   13.08    3.15
  13  -5   8   -2.15    3.19
  13  -5   9   24.21    4.28
  13  -5   9    1.14    3.30
  13  -5  10    4.76    3.39
  13  -5  11   24.71    4.27
  13  -5  12    0.90    3.79
  13  -5  13    3.12    3.98
  13  -7 -15   23.29    4.91
  13  -7 -14    0.68    4.11
  13  -7 -13   17.87    4.46
  13  -7 -12    1.05    3.72
  13  -7 -11   31.74    4.75
  13  -7 -10   -3.03    3.58
  13  -7  -9   19.57    3.98
  13  -7  -8    1.39    3.24
  13  -7  -7   18.02    3.84
  13  -7  -6    4.35    3.15
 -13  -7   5   -0.04    2.72
  13  -7  -5    3.90    2.99
 -13  -7   4   -0.81    2.87
  13  -7  -4    3.85    3.12
 -13  -7   3   68.28    4.86
  13  -7  -3   84.57    5.41
  13  -7  -2   18.13    3.68
 -13  -7   2   10.06    3.16
 -13  -7   1   26.71    3.81
  13  -7  -1   27.74    3.93
  13  -7   0    7.11    3.29
 -13  -7   0    6.79    3.08
 -13  -7  -1   28.02    3.69
  13  -7   1   35.14    4.28
 -13  -7  -2   -5.27    3.16
  13  -7   2   -1.67    3.02
  13  -7   3   15.25    3.56
 -13  -7  -3   10.06    3.09
 -13  -7  -4    1.66    2.92
  13  -7   4   -2.44    3.16
  13  -7   5   37.39    4.49
 -13  -7  -5   31.95    4.04
 -13  -7  -6    0.80    2.86
  13  -7   6   -0.91    3.35
  13  -7   7   39.02    4.41
  13  -7   7   39.83    4.63
  13  -7   8    6.29    3.84
 -13  -7  -8    2.94    3.08
  13  -7   9   30.04    4.30
  13  -7   9   31.19    4.49
 -13  -7  -9   28.33    3.88
  13  -7  10    1.42    3.59
 -13  -9   6   -4.18    3.61
 -13  -9   5   27.14    4.42
 -13  -9   4    3.16    3.41
 -13  -9   3   12.80    3.58
 -13  -9   2   -1.45    3.34
 -13  -9   1   22.94    4.07
 -13  -9   0   -0.22    3.13
 -13  -9  -1   16.70    3.74
 -13  -9  -2    3.57    3.30
 -13  -9  -3   11.76    3.59
  14   0 -20   26.05    5.56
 -14   0  20   28.72    6.45
  14   0 -19    0.91    4.56
 -14   0  19    6.56    5.44
  14   0 -18   22.80    5.22
 -14   0  18   23.99    5.82
  14   0 -17    0.49    4.26
 -14   0  17   -7.89    5.32
  14   0 -16   82.16    6.53
 -14   0  16   62.45    6.95
  14   0 -15    0.71    3.82
 -14   0  15   -0.30    4.78
  14   0 -14  277.24    9.96
  14   0 -13    0.99    3.39
  14   0 -12   41.41    4.37
  14   0 -11    2.14    2.94
  14   0 -10  293.45    9.00
  14   0  -9   -1.36    2.57
  14   0  -8   18.06    3.11
  14   0  -7    2.27    2.65
  14   0  -6   85.54    4.66
  14   0  -5   -1.21    2.25
  14   0  -4  105.80    4.87
  14   0  -3    1.04    2.00
  14   0  -2  359.63    8.17
  14   0  -1    1.74    2.03
  14   0   0   25.06    2.98
  14   0   1   -1.03    2.09
  14   0   2  123.28    5.31
  14   0   3    0.41    2.34
  14   0   4  159.12    6.02
  14   0   5   -1.31    2.50
  14   0   6  270.82    8.18
  14   0   7    0.71    2.69
  14   0   8   65.75    4.70
  14   0   9    0.64    2.79
  14   0  10   54.98    4.91
  14   0  11    2.87    3.54
  14   0  12   15.89    4.41
  14   0  13    3.25    3.92
  14   0  14   52.00    5.87
  14  -2 -20   13.15    5.39
  14  -2 -19    2.70    4.76
  14  -2 -18   21.59    5.39
  14  -2 -17   14.96    4.89
  14  -2 -16   11.36    4.42
  14  -2 -15    7.40    4.30
  14  -2 -14   29.27    4.73
  14  -2 -13    2.35    3.55
  14  -2 -12  103.56    6.11
  14  -2 -11    6.39    3.48
  14  -2 -10   72.14    5.31
  14  -2  -9    0.91    2.87
  14  -2  -8  172.12    7.15
  14  -2  -7  181.54    7.11
  14  -2  -6  274.69    8.46
  14  -2  -5    1.43    2.50
  14  -2  -4  228.18    7.32
  14  -2  -3   -2.02    2.43
  14  -2  -2  174.18    6.33
  14  -2  -1   51.74    3.93
  14  -2   0  344.41    8.85
  14  -2   1    5.17    2.46
  14  -2   2  178.80    6.72
  14  -2   3   -1.58    2.70
  14  -2   4  107.79    5.53
  14  -2   5   16.91    3.36
  14  -2   6   67.06    4.97
  14  -2   7   54.15    4.73
  14  -2   8   38.53    4.42
  14  -2   9    0.03    3.09
  14  -2  10   23.27    4.08
  14  -2  11   -1.73    3.56
  14  -2  12   27.52    4.73
  14  -2  13    8.05    4.53
  14  -2  14   13.38    4.76
  14  -4 -18   19.06    4.85
  14  -4 -17    1.79    4.13
  14  -4 -16   31.83    5.09
  14  -4 -15    8.45    4.36
  14  -4 -14    8.91    4.10
  14  -4 -13   10.85    4.07
  14  -4 -12   99.38    6.43
  14  -4 -11    0.43    3.42
  14  -4 -10   57.65    5.37
  14  -4  -9   -0.05    3.58
  14  -4  -8  199.08    7.91
  14  -4  -7   49.10    4.74
  14  -4  -6   63.16    4.84
  14  -4  -5   -0.22    2.83
  14  -4  -4   77.28    4.94
  14  -4  -3    0.39    2.58
 -14  -4   2    8.99    2.46
  14  -4  -2   10.52    3.11
 -14  -4   1    5.73    2.34
  14  -4  -1    7.36    2.95
  14  -4   0  286.02    8.70
 -14  -4   0  240.41    6.62
  14  -4   1   13.61    3.10
  14  -4   2   87.59    5.29
  14  -4   3   17.01    3.51
  14  -4   4   46.97    4.32
  14  -4   5    0.02    2.90
  14  -4   6   14.31    3.68
  14  -4   7   12.00    3.76
  14  -4   8   71.17    5.44
  14  -4   9    1.75    3.53
  14  -4  10   41.93    4.89
  14  -4  11    5.11    3.75
  14  -4  12   40.88    5.36
  14  -6 -16   15.69    4.70
  14  -6 -15   -2.24    4.32
  14  -6 -14   33.90    5.23
  14  -6 -13   -3.42    4.14
  14  -6 -12    8.37    4.11
  14  -6 -11    3.23    3.80
  14  -6 -10   44.43    5.14
  14  -6  -9   19.27    4.36
  14  -6  -8   31.87    4.43
  14  -6  -7    0.28    3.18
  14  -6  -6   13.13    3.56
  14  -6  -5   -0.31    3.04
 -14  -6   4   35.77    3.87
  14  -6  -4   43.19    4.35
  14  -6  -3   -1.04    3.13
 -14  -6   3    0.04    2.61
 -14  -6   2   49.28    4.21
  14  -6  -2   97.99    5.93
 -14  -6   1    6.62    2.94
  14  -6  -1    4.27    3.23
  14  -6   0   11.89    3.26
 -14  -6   0    9.82    3.01
 -14  -6  -1    2.78    2.82
  14  -6   1    6.57    3.23
  14  -6   2   53.45    4.93
 -14  -6  -2   27.77    3.67
  14  -6   3    6.87    3.32
 -14  -6  -3    2.74    2.82
  14  -6   4   42.43    4.43
 -14  -6  -4   26.95    3.57
 -14  -6  -5    2.21    2.85
  14  -6   5    2.40    3.57
  14  -6   6   39.03    4.84
 -14  -6  -6   40.89    3.98
  14  -6   7   21.85    3.69
 -14  -6  -7   13.43    3.25
  14  -6   8   30.22    4.87
  14  -6   8   -4.53    3.89
  14  -6   9   -1.05    3.51
  14  -6  10   19.49    4.42
 -14  -6 -10   -4.99    3.71
  14  -8 -12   11.02    3.98
  14  -8 -11   -0.70    3.68
  14  -8 -10   10.42    3.85
  14  -8  -9   -0.61    3.40
  14  -8  -8    8.12    3.57
  14  -8  -7    2.63    3.22
  14  -8  -6   48.52    4.82
  14  -8  -5    0.94    3.29
 -14  -8   5   -3.70    3.26
  14  -8  -4   39.93    4.66
 -14  -8   4   26.96    3.95
 -14  -8   3   -1.32    3.08
  14  -8  -3   -3.58    3.46
  14  -8  -2   42.11    4.53
 -14  -8   2   41.16    4.47
 -14  -8   1   -0.21    3.12
  14  -8  -1   -0.64    3.29
  14  -8   0   14.82    3.88
 -14  -8   0   10.66    3.46
  14  -8   1   -0.98    3.19
 -14  -8  -1    1.03    3.13
  14  -8   2   15.19    3.66
 -14  -8  -2    8.35    3.43
 -14  -8  -3    1.43    3.13
  14  -8   3   -1.77    3.37
 -14  -8  -4    5.35    3.37
  14  -8   4   14.80    3.94
 -14  -8  -5   -1.17    3.19
  14  -8   5    5.10    3.76
  14  -8   6    7.89    3.76
  15  -1 -19   18.82    5.63
  15   1 -18   10.95    4.84
  15  -1 -18   -0.86    4.37
  15   1 -17   18.75    4.92
  15  -1 -17   25.64    5.12
  15   1 -16    1.39    4.03
  15  -1 -16    1.15    4.06
  15   1 -15   56.01    5.49
  15  -1 -15   49.13    5.33
  15   1 -14    3.89    3.25
  15  -1 -14    7.73    3.64
  15   1 -13   79.96    5.53
  15  -1 -13   82.40    6.15
  15   1 -12   11.41    3.47
  15  -1 -12   12.90    3.95
  15   1 -11   18.94    3.60
  15  -1 -11   20.06    4.00
  15  -1 -10   14.35    3.43
  15   1 -10    7.75    2.90
  15  -1  -9  144.62    6.91
  15   1  -9  165.16    6.63
  15  -1  -8    0.09    3.11
  15   1  -8   -2.24    2.63
  15  -1  -7   92.52    5.52
  15   1  -7   97.91    5.12
  15  -1  -6   -0.46    2.66
  15   1  -6    1.85    2.39
  15  -1  -5  258.53    7.97
  15   1  -5  274.86    7.37
  15  -1  -4  135.52    5.98
  15   1  -4  139.57    5.25
  15  -1  -3  139.64    5.78
  15   1  -3  146.57    5.39
  15  -1  -2    3.54    2.53
  15   1  -2   -0.63    2.06
  15  -1  -1  146.17    6.07
  15   1  -1  139.57    5.35
  15  -1   0   -2.16    2.60
  15   1   0    1.21    2.19
  15  -1   1   50.56    4.13
  15   1   1   53.53    3.76
  15  -1   2   30.03    3.70
  15   1   2   29.99    3.18
  15  -1   3  275.12    8.26
  15   1   3  277.91    7.55
  15  -1   4    1.02    2.59
  15   1   4    6.50    2.56
  15  -1   5  108.34    6.02
  15   1   5  106.22    5.26
  15  -1   6   -3.50    3.13
  15   1   6    2.61    2.71
  15  -1   7   38.75    4.43
  15   1   7   34.78    3.79
  15  -1   8    2.69    3.39
  15   1   8    0.62    2.86
  15  -1   9   13.89    3.62
  15  -1  10    7.37    3.71
  15  -1  11   22.58    4.45
  15  -1  12    0.83    3.92
  15  -1  13   20.67    5.04
  15  -3 -18   -6.44    4.60
  15  -3 -17   29.18    5.24
  15  -3 -16    3.47    4.10
  15  -3 -15   26.09    4.96
  15  -3 -14   -3.69    3.98
  15  -3 -13   44.77    5.28
  15  -3 -12   -1.78    3.53
  15  -3 -11  235.87    9.19
  15  -3 -10    0.50    3.41
  15  -3  -9   42.17    4.86
  15  -3  -8    5.34    3.24
  15  -3  -7  148.16    7.05
  15  -3  -6   22.14    3.72
  15  -3  -5   21.19    3.70
  15  -3  -4    0.88    2.68
  15  -3  -3   43.91    4.05
  15  -3  -2    2.08    2.82
  15  -3  -1   62.23    4.67
  15  -3   0    0.61    2.88
  15  -3   1  161.04    6.74
  15  -3   2    6.68    3.05
  15  -3   3    4.60    3.02
  15  -3   4    1.86    2.91
  15  -3   5   28.95    3.94
  15  -3   6    3.89    3.32
  15  -3   7   61.00    5.40
  15  -3   8    0.02    3.38
  15  -3   9   73.83    5.81
  15  -3  10   -2.03    3.60
  15  -3  11   14.23    4.35
  15  -3  12    2.29    4.14
  15  -5 -17    8.77    4.78
  15  -5 -16   -1.65    4.16
  15  -5 -15   15.86    4.84
  15  -5 -14    7.67    4.54
  15  -5 -13    6.28    4.02
  15  -5 -12    6.46    4.31
  15  -5 -11   26.01    4.62
  15  -5 -10    2.01    3.80
  15  -5  -9   50.88    5.31
  15  -5  -8    1.71    3.41
  15  -5  -7   44.67    4.83
  15  -5  -6    6.28    3.65
  15  -5  -5   39.22    4.33
  15  -5  -4   29.69    3.95
  15  -5  -3  176.10    7.35
 -15  -5   2    0.50    2.68
  15  -5  -2    0.31    3.25
  15  -5  -1  130.76    6.83
 -15  -5   1  102.14    5.31
 -15  -5   0   -0.35    2.54
  15  -5   0    3.64    3.10
  15  -5   1   83.85    5.57
 -15  -5  -1   61.14    4.25
  15  -5   2    5.25    3.42
 -15  -5  -2    4.82    2.60
  15  -5   3   52.11    4.93
 -15  -5  -3   44.86    3.81
  15  -5   4   -0.71    3.04
  15  -5   5   40.08    4.84
  15  -5   6   -0.46    3.62
  15  -5   7   27.61    4.57
  15  -5   8   10.57    4.06
  15  -5   9   22.17    4.60
  15  -5  10    0.46    3.77
  15  -7 -13   32.99    5.25
  15  -7 -12   -4.52    4.12
  15  -7 -11    2.10    3.81
  15  -7 -10    3.29    4.01
  15  -7  -9   36.89    5.12
  15  -7  -8    2.62    3.64
  15  -7  -7   24.91    4.26
  15  -7  -6    2.70    3.49
  15  -7  -5   45.43    4.96
  15  -7  -4    0.97    3.38
  15  -7  -3   18.90    4.12
 -15  -7   3    9.49    3.25
 -15  -7   2    3.57    3.04
  15  -7  -2   -1.12    3.30
  15  -7  -1   13.96    3.92
 -15  -7   1    3.93    3.13
  15  -7   0   -1.68    3.25
 -15  -7   0   -0.60    2.99
 -15  -7  -1    4.37    3.15
  15  -7   1    3.57    3.64
 -15  -7  -2   -0.18    3.23
  15  -7   2    1.49    3.36
 -15  -7  -3   23.40    4.03
  15  -7   3   30.25    4.38
  15  -7   4    7.11    3.87
 -15  -7  -4    6.78    3.47
 -15  -7  -5   17.98    3.77
  15  -7   5    9.64    4.05
 -15  -7  -6    0.43    3.17
  15  -7   6    5.77    4.04
  15  -7   7    9.50    4.01
  16   0 -19   -0.81    4.38
  16   0 -18    7.57    4.26
  16   0 -17    1.17    3.99
  16   0 -16   63.17    5.82
  16   0 -15   -2.12    4.04
  16   0 -14   76.82    6.18
  16   0 -13    1.97    3.59
  16   0 -12   66.32    5.49
  16   0 -11   -0.98    3.38
  16   0 -10   77.28    5.49
  16   0  -9    2.36    3.19
  16   0  -8  435.52   10.89
  16   0  -7   -1.18    2.79
  16   0  -6   74.50    4.82
  16   0  -5    1.88    2.61
  16   0  -4  121.18    5.54
  16   0  -3   -2.12    2.61
  16   0  -2   11.77    2.95
  16   0  -1    0.04    2.47
  16   0   0   58.69    4.32
  16   0   1   -0.89    2.49
  16   0   2   55.08    4.35
  16   0   3   -1.38    2.58
  16   0   4  143.35    6.68
  16   0   5    5.10    3.16
  16   0   6    1.99    2.92
  16   0   7   -0.02    3.07
  16   0   8   16.88    3.91
  16   0   9   -1.72    3.37
  16   0  10   40.87    5.24
  16   0  11    0.86    3.98
  16   0  12   56.11    6.11
  16  -2 -18   22.38    5.26
  16  -2 -17    0.31    4.46
  16  -2 -16   25.02    5.26
  16  -2 -15    7.35    4.24
  16  -2 -14   20.73    4.43
  16  -2 -13    5.33    3.87
  16  -2 -12   47.92    5.15
  16  -2 -11    6.27    3.71
  16  -2 -10   31.81    4.67
  16  -2  -9   20.00    3.97
  16  -2  -8   28.38    4.24
  16  -2  -7    8.48    3.22
  16  -2  -6   78.15    5.27
  16  -2  -5   -2.26    2.99
  16  -2  -4   76.58    5.13
  16  -2  -3   14.62    3.47
  16  -2  -2  106.43    5.79
  16  -2  -1   81.10    5.47
  16  -2   0  131.20    6.26
  16  -2   1    3.17    3.10
  16  -2   2  120.63    6.37
  16  -2   3    0.88    2.96
  16  -2   4   59.24    4.78
  16  -2   5   17.16    4.08
  16  -2   6   61.39    5.41
  16  -2   7   -2.21    3.27
  16  -2   8   35.68    4.71
  16  -2   9    1.41    3.50
  16  -2  10   14.51    4.34
  16  -2  11    7.45    4.42
  16  -2  12   16.43    5.02
  16  -4 -17   -1.91    4.48
  16  -4 -16   12.27    4.82
  16  -4 -15    3.34    4.19
  16  -4 -14   19.00    4.90
  16  -4 -13    0.43    4.00
  16  -4 -12   46.41    5.74
  16  -4 -11    3.91    4.05
  16  -4 -10   98.03    6.61
  16  -4  -9    5.26    3.71
  16  -4  -8    0.49    3.34
  16  -4  -7   14.33    3.73
  16  -4  -6   78.31    5.59
  16  -4  -5    1.85    3.06
  16  -4  -4   60.94    4.91
  16  -4  -3   -2.34    3.11
  16  -4  -2  120.81    6.42
  16  -4  -1   12.79    3.69
  16  -4   0   41.24    4.53
 -16  -4   0   27.97    3.27
  16  -4   1   -1.83    3.16
  16  -4   2   26.60    4.26
  16  -4   3    2.92    3.16
  16  -4   4    9.97    3.58
  16  -4   5   -0.82    3.45
  16  -4   6   70.92    5.76
  16  -4   7    1.05    3.71
  16  -4   8   29.68    4.75
  16  -4   9    3.50    3.78
  16  -4  10    5.45    4.02
  16  -6 -14   19.60    5.16
  16  -6 -13   -3.01    4.46
  16  -6 -12    9.99    4.51
  16  -6 -11   -2.40    4.11
  16  -6 -10   16.12    4.38
  16  -6  -9    1.48    3.73
  16  -6  -8   56.34    5.42
  16  -6  -7   10.09    3.91
  16  -6  -6   14.80    4.01
  16  -6  -5    3.46    3.68
  16  -6  -4   28.06    4.52
  16  -6  -3   14.52    3.97
  16  -6  -2   17.15    4.10
 -16  -6   1   -1.25    2.77
  16  -6  -1   -0.05    3.45
 -16  -6   0    8.73    3.20
  16  -6   0    9.06    3.90
  16  -6   1    3.42    3.63
 -16  -6  -1   -1.54    3.05
 -16  -6  -2   13.27    3.44
  16  -6   2   14.11    3.94
 -16  -6  -3    1.76    3.11
  16  -6   3    2.05    3.41
  16  -6   4   33.82    4.77
 -16  -6  -4   37.71    4.28
 -16  -6  -5   -1.69    3.26
  16  -6   5    1.81    3.84
 -16  -6  -6    5.04    3.22
  16  -6   6   15.84    4.57
 -16  -6  -7   -2.23    3.23
  16  -6   7   -0.80    3.81
  16  -8  -8   11.38    4.08
  16  -8  -7    7.21    3.87
  16  -8  -6   18.26    4.35
  16  -8  -5   -0.96    3.78
  16  -8  -4   12.84    4.05
  16  -8  -3    2.76    3.75
 -16  -8   2    9.07    3.72
  16  -8  -2    7.56    3.94
 -16  -8   1   -2.46    3.43
  16  -8  -1    7.36    3.82
  16  -8   0   29.62    4.44
 -16  -8   0   17.66    3.93
  16  -8   1    6.44    3.87
 -16  -8  -1    1.21    3.36
  16  -8   2   31.56    4.51
  17  -1 -18    9.04    5.11
  17  -1 -17    9.43    4.72
  17  -1 -16   -0.81    4.30
  17  -1 -15   46.35    5.63
  17  -1 -14    5.98    3.98
  17  -1 -13   12.59    4.23
  17  -1 -12   23.96    4.78
  17  -1 -11   35.52    5.00
  17  -1 -10    3.77    3.83
  17  -1  -9   62.69    5.57
  17  -1  -8    3.34    3.42
  17  -1  -7   94.07    5.86
  17  -1  -6    9.88    3.18
  17  -1  -5    8.82    3.11
  17  -1  -4    5.69    3.05
  17  -1  -3   72.83    5.08
  17  -1  -2    5.54    3.07
  17  -1  -1   89.30    5.52
  17  -1   0    8.57    3.36
  17  -1   1  124.09    6.49
  17  -1   2   26.36    4.00
  17  -1   3   49.16    4.54
  17  -1   4   -0.91    3.22
  17  -1   5   33.21    4.58
  17  -1   6   -3.32    3.43
  17  -1   7   13.33    4.00
  17  -1   8    6.27    3.62
  17  -1   9   41.47    5.22
  17  -1  10    0.53    4.16
  17  -1  11   24.47    5.18
  17  -3 -17   29.30    5.74
  17  -3 -16   -3.68    4.46
  17  -3 -15    9.74    4.59
  17  -3 -14    2.28    4.21
  17  -3 -13   53.86    5.96
  17  -3 -12    0.09    3.87
  17  -3 -11   81.23    6.46
  17  -3 -10   -1.64    3.87
  17  -3  -9   58.25    5.47
  17  -3  -8    0.39    3.36
  17  -3  -7   31.36    4.46
  17  -3  -6    0.41    3.26
  17  -3  -5  198.71    7.99
  17  -3  -4    4.15    3.46
  17  -3  -3   58.83    5.01
  17  -3  -2    4.02    3.40
  17  -3  -1   48.67    4.83
  17  -3   0    7.77    3.54
  17  -3   1   12.90    3.69
  17  -3   2   -2.67    3.26
  17  -3   3   19.65    3.92
  17  -3   4   -2.93    3.43
  17  -3   5   23.02    4.41
  17  -3   6    8.23    3.99
  17  -3   7   34.06    4.77
  17  -3   8    1.95    4.06
  17  -3   9    4.08    3.99
  17  -3  10   -0.45    4.15
  17  -5 -14   -1.97    4.41
  17  -5 -13   11.31    4.72
  17  -5 -12   -0.29    4.19
  17  -5 -11   14.98    4.71
  17  -5 -10    1.55    3.93
  17  -5  -9   11.45    4.19
  17  -5  -8   -2.56    3.77
  17  -5  -7   14.09    3.95
  17  -5  -6    5.17    3.65
  17  -5  -5   27.25    4.41
  17  -5  -4    2.14    3.53
  17  -5  -3   42.13    5.00
  17  -5  -2    2.68    3.71
  17  -5  -1   26.01    4.37
  17  -5   0   12.72    4.01
  17  -5   1   34.50    4.90
 -17  -5  -1   18.41    3.44
 -17  -5  -2    3.39    2.96
  17  -5   2    9.38    3.77
  17  -5   3   44.97    4.99
 -17  -5  -3   44.60    4.27
  17  -5   4    6.32    3.79
 -17  -5  -4    4.64    3.07
 -17  -5  -5   22.34    3.43
  17  -5   5   44.59    5.36
  17  -5   6   -3.15    4.03
  17  -5   7   17.14    4.61
  17  -7 -10   -0.67    3.96
  17  -7  -9   18.25    4.44
  17  -7  -8   -2.62    3.96
  17  -7  -7   31.97    4.87
  17  -7  -6    1.69    3.91
  17  -7  -5   11.44    4.18
  17  -7  -4   -2.65    4.17
  17  -7  -3   11.03    4.24
  17  -7  -2    4.00    3.94
  17  -7  -1    9.53    4.14
  17  -7   0    3.60    3.96
 -17  -7   0    4.83    3.57
 -17  -7  -1   19.11    3.95
  17  -7   1   21.64    4.48
 -17  -7  -2    0.47    3.25
  17  -7   2   -6.37    3.89
 -17  -7  -3    7.59    3.69
  17  -7   3    3.54    3.94
  18   0 -17   -3.99    4.61
  18   0 -16    9.32    4.85
  18   0 -15    2.42    4.32
  18   0 -14   44.84    5.78
  18   0 -13    4.60    4.32
  18   0 -12   19.59    4.54
  18   0 -11    0.57    3.76
  18   0 -10   96.56    6.33
  18   0  -9    5.34    3.50
  18   0  -8   94.05    6.02
  18   0  -7   -3.48    3.31
  18   0  -6   68.70    4.93
  18   0  -5    7.62    3.32
  18   0  -4   23.84    3.71
  18   0  -3    0.40    3.13
  18   0  -2  243.29    8.22
  18   0  -1   -2.07    3.16
  18   0   0   90.26    5.69
  18   0   1    1.92    3.03
  18   0   2   35.45    4.24
  18   0   3    1.16    3.46
  18   0   4    4.15    3.63
  18   0   5   -4.27    3.61
  18   0   6   19.65    4.54
  18   0   7    2.43    3.57
  18  -2 -16   34.03    5.77
  18  -2 -15    7.01    4.64
  18  -2 -14   19.92    4.88
  18  -2 -13    2.69    4.14
  18  -2 -12   41.55    5.47
  18  -2 -11   -1.28    3.87
  18  -2 -10   29.91    4.78
  18  -2  -9   12.67    3.91
  18  -2  -8   19.90    4.09
  18  -2  -7   -1.52    3.37
  18  -2  -6   35.46    4.37
  18  -2  -5   -0.42    3.07
  18  -2  -4   38.27    4.53
  18  -2  -3   10.96    3.67
  18  -2  -2   18.18    3.84
  18  -2  -1    3.73    3.22
  18  -2   0   39.59    4.66
  18  -2   1   -1.03    3.42
  18  -2   2   35.76    4.48
  18  -2   3    6.54    3.51
  18  -2   4   33.74    4.89
  18  -2   5   11.64    4.08
  18  -2   6   32.49    5.03
  18  -2   7    4.55    4.05
  18  -2   8   18.05    4.70
  18  -2   9   -0.58    3.97
  18  -4 -15   -0.79    4.51
  18  -4 -14    5.69    4.65
  18  -4 -13    0.60    4.34
  18  -4 -12   10.27    4.48
  18  -4 -11    3.24    4.24
  18  -4 -10    9.44    4.36
  18  -4  -9   11.32    4.36
  18  -4  -8   31.29    4.79
  18  -4  -7    3.86    3.73
  18  -4  -6   36.91    4.66
  18  -4  -5    1.72    3.60
  18  -4  -4   74.65    5.87
  18  -4  -3    3.31    3.74
  18  -4  -2   10.49    3.91
  18  -4  -1    4.83    3.77
  18  -4   0   32.34    4.80
  18  -4   1    4.10    3.83
  18  -4   2   29.81    4.65
  18  -4   3    0.59    3.75
  18  -4   4   51.00    5.58
  18  -4   5   -1.84    4.02
  18  -4   6    6.29    4.35
  18  -4   7    0.62    4.02
  18  -6 -11   -3.38    4.66
  18  -6 -10   16.46    4.72
  18  -6  -9    0.06    4.08
  18  -6  -8   23.70    4.80
  18  -6  -7    5.45    4.13
  18  -6  -6   27.32    4.84
  18  -6  -5    5.55    4.09
  18  -6  -4   10.52    4.48
  18  -6  -3   -3.18    4.09
  18  -6  -2   32.28    5.10
  18  -6  -1    1.28    3.83
  18  -6   0   14.39    4.63
  18  -6   1    3.85    4.10
  18  -6   2   12.17    4.34
 -18  -6  -2   11.79    3.89
 -18  -6  -3    5.97    3.64
  18  -6   3   -0.54    4.11
  19  -1 -16    6.14    5.24
  19  -1 -15   18.12    5.20
  19  -1 -14    5.30    4.57
  19  -1 -13   32.02    5.42
  19  -1 -12    2.73    4.17
  19  -1 -11   19.36    4.60
  19  -1 -10    5.38    3.73
  19  -1  -9   43.04    5.27
  19  -1  -8   -0.32    3.47
  19  -1  -7   15.49    3.82
  19  -1  -6   14.76    3.97
  19  -1  -5   19.37    3.97
  19  -1  -4   -3.37    3.63
  19  -1  -3   45.70    5.14
  19  -1  -2    0.18    3.35
  19  -1  -1   61.15    5.52
  19  -1   0    8.68    3.80
  19  -1   1   11.88    3.76
  19  -1   2    0.51    3.32
  19  -1   3   17.26    4.33
  19  -1   4   -1.04    3.88
  19  -1   5   25.88    4.98
  19  -1   6    7.31    4.28
  19  -1   7   44.59    5.63
  19  -1   8    1.22    4.27
  19  -3 -14    1.21    4.58
  19  -3 -13    4.07    4.39
  19  -3 -12   -7.40    4.44
  19  -3 -11   25.61    5.02
  19  -3 -10    1.07    3.93
  19  -3  -9   15.27    4.68
  19  -3  -8    1.22    3.68
  19  -3  -7   60.55    5.53
  19  -3  -6    1.42    3.56
  19  -3  -5   47.47    5.21
  19  -3  -4    5.03    3.72
  19  -3  -3   49.33    5.50
  19  -3  -2    1.96    3.44
  19  -3  -1   16.51    4.14
  19  -3   0    7.05    4.07
  19  -3   1   71.90    6.02
  19  -3   2   -1.49    3.68
  19  -3   3   23.43    4.80
  19  -3   4    8.08    4.28
  19  -3   5   15.28    4.57
  19  -3   6   -1.62    4.34
  19  -5 -11   10.73    4.97
  19  -5 -10   -2.55    4.23
  19  -5  -9   12.38    4.43
  19  -5  -8    1.18    3.77
  19  -5  -7   21.14    4.86
  19  -5  -6   -2.38    4.03
  19  -5  -5    0.04    3.94
  19  -5  -4   -2.31    4.21
  19  -5  -3    5.65    4.21
  19  -5  -2    1.67    4.03
  19  -5  -1   13.53    4.34
  19  -5   0    4.13    4.43
  19  -5   1   17.82    4.50
  19  -5   2    3.86    3.91
  19  -5   3   10.87    4.49
  20  -2 -14   13.61    5.15
  20  -2 -13   -1.02    4.41
  20  -2 -12   33.40    5.38
  20  -2 -11   -3.47    4.23
  20  -2 -10   37.57    5.42
  20  -2  -9    5.97    4.16
  20  -2  -8   27.26    4.57
  20  -2  -7    4.93    3.88
  20  -2  -6   17.44    4.41
  20  -2  -5    3.92    3.81
  20  -2  -4   20.68    4.66
  20  -2  -3    2.66    3.86
  20  -2  -2   14.79    4.35
  20  -2  -1    1.20    3.63
  20  -2   0    5.31    3.97
  20  -2   1    2.70    3.82
  20  -2   2   18.16    4.47
  20  -2   3    9.53    4.64
  20  -2   4    7.93    4.33
  20  -2   5    2.91    4.33
  20  -4 -11    3.31    4.34
  20  -4 -10   15.63    4.66
  20  -4  -9    2.44    3.98
  20  -4  -8   11.51    4.46
  20  -4  -7   -0.77    4.21
  20  -4  -6   21.94    4.79
  20  -4  -5    1.98    4.10
  20  -4  -4   14.43    4.79
  20  -4  -3    2.58    4.16
  20  -4  -2   18.41    4.81
  20  -4  -1   -3.69    4.22
  20  -4   0   20.01    5.02
  20  -4   1   -1.36    4.06
  20  -4   2   18.91    4.63
  20  -4   3   -3.00    4.68
  21  -1 -12    0.26    4.63
  21  -1 -11   22.22    5.06
  21  -1 -10    2.61    4.12
  21  -1  -9   18.23    4.65
  21  -1  -8   10.07    4.45
  21  -1  -7   37.33    5.25
  21  -1  -6    2.58    4.20
  21  -1  -5   21.45    5.12
  21  -1  -4   -3.96    4.03
  21  -1  -3   12.62    4.52
  21  -1  -2    0.51    4.12
  21  -1  -1   10.57    4.42
  21  -1   0    9.06    4.39
  21  -1   1   16.28    4.67
  21  -1   2    3.98    4.54
  21  -1   3   19.75    5.31
  21  -3 -10   -4.97    4.13
  21  -3  -9   15.14    4.73
  21  -3  -8    4.68    4.31
  21  -3  -7   -0.45    4.11
  21  -3  -6   -0.37    4.13
  21  -3  -5   25.49    5.28
  21  -3  -4   -4.10    4.50
  21  -3  -3    6.73    4.54
  21  -3  -2   -1.82    4.08
  21  -3  -1   26.22    5.15
  21  -3   0    1.52    4.12
  21  -3   1   16.95    4.66
  21  -3   2    1.73    4.29
  22  -2  -8   19.58    5.16
  22  -2  -7   -5.36    4.63
  22  -2  -6   16.91    5.18
  22  -2  -5   -6.06    4.69
  22  -2  -4   19.60    5.02
  22  -2  -3    1.64    4.24
  22  -2  -2   21.78    5.28
  22  -2  -1    4.85    4.29
   0   0   0    0.00    0.00


TITL DP064_2 in C2/c
REM C2/c (#15 in standard setting)
CELL 0.71073  12.073601   6.332089  12.136594  90.0000 101.9052  90.0000
ZERR    4.00   0.000445   0.000210   0.000333   0.0000   0.0031   0.0000
LATT  7
SYMM -x, y,-z+1/2
SFAC Cl Rb Sb
UNIT 24.00 4.00 4.00
TREF
HKLF 4
END
_computing_structure_solution     'SHELXT 2018/2 (Sheldrick, 2018)'
;
_shelx_hkl_checksum              44795
_olex2_exptl_crystal_mounting_method Tip-mounted
_olex2_submission_special_instructions 'No special instructions were received'
_oxdiff_exptl_absorpt_empirical_details
;
Empirical correction (ABSPACK) includes:
- Absorption correction using spherical harmonics
- Frame scaling
- Detector area scaling
;
_oxdiff_exptl_absorpt_empirical_full_max 1.990
_oxdiff_exptl_absorpt_empirical_full_min 0.583
loop_
_space_group_symop_operation_xyz
'x, y, z'
'-x, y, -z+1/2'
'x+1/2, y+1/2, z'
'-x+1/2, y+1/2, -z+1/2'
'-x, -y, -z'
'x, -y, z-1/2'
'-x+1/2, -y+1/2, -z'
'x+1/2, -y+1/2, z-1/2'
loop_
_atom_site_label
_atom_site_type_symbol
_atom_site_fract_x
_atom_site_fract_y
_atom_site_fract_z
_atom_site_U_iso_or_equiv
_atom_site_adp_type
_atom_site_occupancy
_atom_site_site_symmetry_order
_atom_site_calc_flag
_atom_site_refinement_flags_posn
_atom_site_refinement_flags_adp
_atom_site_refinement_flags_occupancy
_atom_site_disorder_assembly
_atom_site_disorder_group
Sb01 Sb 0.750000 0.750000 0.500000 0.02243(11) Uani 1 2 d S T P . .
Rb02 Rb 0.500000 0.89029(10) 0.750000 0.04777(17) Uani 1 2 d S T P . .
Cl03 Cl 0.71176(8) 0.58461(15) 0.66315(7) 0.0370(2) Uani 1 1 d . . . . .
Cl04 Cl 0.84908(8) 0.44524(15) 0.46234(8) 0.0354(2) Uani 1 1 d . . . . .
Cl05 Cl 0.57872(8) 0.61415(16) 0.39100(8) 0.0379(2) Uani 1 1 d . . . . .
loop_
_atom_site_aniso_label
_atom_site_aniso_U_11
_atom_site_aniso_U_22
_atom_site_aniso_U_33
_atom_site_aniso_U_23
_atom_site_aniso_U_13
_atom_site_aniso_U_12
Sb01 0.02303(17) 0.02348(17) 0.02112(16) -0.00070(8) 0.00535(11) -0.00134(9)
Rb02 0.0483(3) 0.0489(3) 0.0475(3) 0.000 0.0133(3) 0.000
Cl03 0.0464(5) 0.0379(5) 0.0300(4) 0.0072(3) 0.0157(4) -0.0015(3)
Cl04 0.0387(5) 0.0288(4) 0.0405(4) -0.0035(3) 0.0124(4) 0.0056(3)
Cl05 0.0291(4) 0.0398(5) 0.0413(5) -0.0073(3) -0.0006(3) -0.0060(3)
loop_
_atom_type_symbol
_atom_type_description
_atom_type_scat_dispersion_real
_atom_type_scat_dispersion_imag
_atom_type_scat_source
Cl Cl 0.1484 0.1585 'International Tables Vol C Tables 4.2.6.8 and 6.1.1.4'
Rb Rb -0.9393 2.9676 'International Tables Vol C Tables 4.2.6.8 and 6.1.1.4'
Sb Sb -0.5866 1.5461 'International Tables Vol C Tables 4.2.6.8 and 6.1.1.4'
loop_
_exptl_crystal_face_index_h
_exptl_crystal_face_index_k
_exptl_crystal_face_index_l
_exptl_crystal_face_perp_dist
-1 -1 -2 0.1110
-5 0 3 0.1210
-6 1 3 0.1360
-2 -1 4 0.0700
3 2 -4 0.0330
-2 1 3 0.0920
3 3 5 0.1030
-6 -1 1 0.1330
0 -1 -3 0.0890
6 -1 -6 0.0600
4 1 1 0.0850
-1 0 0 0.1490
5 -3 -4 0.0890
6 1 5 0.1030
-2 1 -2 0.1510
-3 5 5 0.1060
3 2 -5 0.0210
-6 -5 4 0.0840
loop_
_geom_angle_atom_site_label_1
_geom_angle_atom_site_label_2
_geom_angle_atom_site_label_3
_geom_angle
_geom_angle_site_symmetry_1
_geom_angle_site_symmetry_3
_geom_angle_publ_flag
Cl03 Sb01 Cl03 180.00(5) 7_666 . ?
Cl03 Sb01 Cl05 89.54(3) . 7_666 ?
Cl03 Sb01 Cl05 89.54(3) 7_666 . ?
Cl03 Sb01 Cl05 90.46(3) 7_666 7_666 ?
Cl03 Sb01 Cl05 90.46(3) . . ?
Cl04 Sb01 Cl03 90.32(3) . 7_666 ?
Cl04 Sb01 Cl03 90.32(3) 7_666 . ?
Cl04 Sb01 Cl03 89.68(3) 7_666 7_666 ?
Cl04 Sb01 Cl03 89.68(3) . . ?
Cl04 Sb01 Cl04 180.00(4) . 7_666 ?
Cl04 Sb01 Cl05 89.21(3) . 7_666 ?
Cl04 Sb01 Cl05 89.21(3) 7_666 . ?
Cl04 Sb01 Cl05 90.79(3) . . ?
Cl04 Sb01 Cl05 90.79(3) 7_666 7_666 ?
Cl05 Sb01 Cl05 180.0 . 7_666 ?
Cl03 Rb02 Cl03 64.157(14) . 4_656 ?
Cl03 Rb02 Cl03 64.157(14) 2_656 3_455 ?
Cl03 Rb02 Cl03 140.44(4) 4_656 3_455 ?
Cl03 Rb02 Cl03 143.74(3) . 3_455 ?
Cl03 Rb02 Cl03 143.74(3) 2_656 4_656 ?
Cl03 Rb02 Cl03 113.63(3) . 2_656 ?
Cl03 Rb02 Cl04 90.93(2) . 3_455 ?
Cl03 Rb02 Cl04 95.13(2) 2_656 3_455 ?
Cl03 Rb02 Cl04 151.01(2) 2_656 7_666 ?
Cl03 Rb02 Cl04 56.06(2) . 7_666 ?
Cl03 Rb02 Cl04 90.93(2) 2_656 4_656 ?
Cl03 Rb02 Cl04 95.13(2) . 4_656 ?
Cl03 Rb02 Cl04 151.01(2) . 8_466 ?
Cl03 Rb02 Cl04 56.06(2) 2_656 8_466 ?
Cl03 Rb02 Cl05 118.79(2) . 6_576 ?
Cl03 Rb02 Cl05 91.09(2) 4_656 6_566 ?
Cl03 Rb02 Cl05 118.79(2) 2_656 5_676 ?
Cl03 Rb02 Cl05 91.09(2) 3_455 5_666 ?
Cl03 Rb02 Cl05 61.08(2) 2_656 6_566 ?
Cl03 Rb02 Cl05 61.78(2) 2_656 5_666 ?
Cl03 Rb02 Cl05 118.08(2) 2_656 6_576 ?
Cl03 Rb02 Cl05 124.91(2) 4_656 5_666 ?
Cl03 Rb02 Cl05 118.08(2) . 5_676 ?
Cl03 Rb02 Cl05 124.91(2) 3_455 6_566 ?
Cl03 Rb02 Cl05 61.08(2) . 5_666 ?
Cl03 Rb02 Cl05 61.78(2) . 6_566 ?
Cl04 Rb02 Cl03 54.87(2) 4_656 4_656 ?
Cl04 Rb02 Cl03 60.96(2) 7_666 4_656 ?
Cl04 Rb02 Cl03 120.68(2) 3_455 4_656 ?
Cl04 Rb02 Cl03 106.85(2) 8_466 4_656 ?
Cl04 Rb02 Cl03 54.87(2) 3_455 3_455 ?
Cl04 Rb02 Cl03 60.96(2) 8_466 3_455 ?
Cl04 Rb02 Cl03 106.85(2) 7_666 3_455 ?
Cl04 Rb02 Cl03 120.68(2) 4_656 3_455 ?
Cl04 Rb02 Cl04 60.58(3) 7_666 3_455 ?
Cl04 Rb02 Cl04 115.82(2) 7_666 4_656 ?
Cl04 Rb02 Cl04 168.93(4) 4_656 3_455 ?
Cl04 Rb02 Cl04 60.58(3) 8_466 4_656 ?
Cl04 Rb02 Cl04 115.82(2) 8_466 3_455 ?
Cl04 Rb02 Cl04 146.40(3) 8_466 7_666 ?
Cl04 Rb02 Cl05 124.62(3) 3_455 6_566 ?
Cl04 Rb02 Cl05 66.45(2) 3_455 5_666 ?
Cl04 Rb02 Cl05 124.62(3) 4_656 5_666 ?
Cl04 Rb02 Cl05 92.22(2) 8_466 6_566 ?
Cl04 Rb02 Cl05 66.45(2) 4_656 6_566 ?
Cl04 Rb02 Cl05 92.22(2) 7_666 5_666 ?
Cl04 Rb02 Cl05 54.95(2) 3_455 5_676 ?
Cl04 Rb02 Cl05 113.99(3) 3_455 6_576 ?
Cl04 Rb02 Cl05 88.01(2) 8_466 5_676 ?
Cl04 Rb02 Cl05 62.08(2) 7_666 5_676 ?
Cl04 Rb02 Cl05 54.95(2) 4_656 6_576 ?
Cl04 Rb02 Cl05 62.08(2) 8_466 6_576 ?
Cl04 Rb02 Cl05 117.80(2) 8_466 5_666 ?
Cl04 Rb02 Cl05 113.99(3) 4_656 5_676 ?
Cl04 Rb02 Cl05 117.80(2) 7_666 6_566 ?
Cl04 Rb02 Cl05 88.01(2) 7_666 6_576 ?
Cl05 Rb02 Cl03 54.92(2) 5_676 3_455 ?
Cl05 Rb02 Cl03 89.19(2) 6_576 3_455 ?
Cl05 Rb02 Cl03 54.92(2) 6_576 4_656 ?
Cl05 Rb02 Cl03 89.19(2) 5_676 4_656 ?
Cl05 Rb02 Cl05 121.36(2) 5_676 5_666 ?
Cl05 Rb02 Cl05 179.565(17) 5_676 6_566 ?
Cl05 Rb02 Cl05 58.20(3) 5_666 6_566 ?
Cl05 Rb02 Cl05 59.07(3) 6_576 5_676 ?
Cl05 Rb02 Cl05 121.36(2) 6_576 6_566 ?
Cl05 Rb02 Cl05 179.565(17) 6_576 5_666 ?
Sb01 Cl03 Rb02 106.55(3) . . ?
Sb01 Cl03 Rb02 92.98(3) . 3_545 ?
Rb02 Cl03 Rb02 143.74(3) . 3_545 ?
Sb01 Cl04 Rb02 104.66(3) . 7_666 ?
Sb01 Cl04 Rb02 93.80(3) . 3_545 ?
Rb02 Cl04 Rb02 119.42(3) 7_666 3_545 ?
Sb01 Cl05 Rb02 133.62(4) . 5_666 ?
Sb01 Cl05 Rb02 93.62(3) . 5_676 ?
Rb02 Cl05 Rb02 121.36(2) 5_676 5_666 ?
loop_
_geom_bond_atom_site_label_1
_geom_bond_atom_site_label_2
_geom_bond_distance
_geom_bond_site_symmetry_2
_geom_bond_publ_flag
Sb01 Cl03 2.3681(8) . ?
Sb01 Cl03 2.3680(8) 7_666 ?
Sb01 Cl04 2.3643(9) 7_666 ?
Sb01 Cl04 2.3643(9) . ?
Sb01 Cl05 2.3744(8) 7_666 ?
Sb01 Cl05 2.3744(8) . ?
Rb02 Cl03 3.6363(10) 3_455 ?
Rb02 Cl03 3.5365(11) 2_656 ?
Rb02 Cl03 3.5364(11) . ?
Rb02 Cl03 3.6363(10) 4_656 ?
Rb02 Cl04 3.6062(9) 3_455 ?
Rb02 Cl04 3.6062(9) 4_656 ?
Rb02 Cl04 3.6032(9) 7_666 ?
Rb02 Cl04 3.6032(9) 8_466 ?
Rb02 Cl05 3.6556(10) 6_566 ?
Rb02 Cl05 3.6066(11) 6_576 ?
Rb02 Cl05 3.6556(10) 5_666 ?
Rb02 Cl05 3.6066(11) 5_676 ?
loop_
_exptl_oxdiff_crystal_face_indexfrac_h
_exptl_oxdiff_crystal_face_indexfrac_k
_exptl_oxdiff_crystal_face_indexfrac_l
_exptl_oxdiff_crystal_face_x
_exptl_oxdiff_crystal_face_y
_exptl_oxdiff_crystal_face_z
-0.9881 -1.0012 -2.0095 0.0502 -0.0072 -0.1754
-4.9918 -0.0048 2.9914 0.3048 -0.0319 0.0783
-5.9995 0.9953 2.9971 0.3310 -0.1436 0.1328
-1.9881 -1.0037 3.9894 0.1880 0.1656 0.0972
2.9768 2.0055 -3.9801 -0.2667 -0.2248 -0.0169
-2.0068 0.9985 3.0042 0.1213 -0.0385 0.1843
2.9645 3.0039 5.0284 -0.1649 -0.0116 0.4786
-5.9799 -1.0060 0.9819 0.3550 -0.0390 -0.0971
0.0104 -1.0001 -3.0078 -0.0164 -0.0141 -0.2101
6.0005 -0.9945 -5.9974 -0.3736 0.0440 -0.2756
3.9829 1.0039 1.0147 -0.2217 0.0528 0.1664
-0.9982 -0.0008 -0.0018 0.0524 -0.0263 -0.0129
5.0207 -2.9978 -4.0140 -0.2403 0.2551 -0.3280
5.9781 1.0043 5.0187 -0.2697 0.2381 0.3825
-2.0053 0.9999 -1.9963 0.0501 -0.2044 -0.0535
-3.0436 5.0010 5.0327 0.0971 -0.3402 0.5361
2.9771 2.0057 -4.9802 -0.2809 -0.2580 -0.0645
-5.9428 -5.0107 3.9523 0.5027 0.4024 -0.2238
