#------------------------------------------------------------------------------
#$Date: 2020-07-09 06:16:50 +0300 (Thu, 09 Jul 2020) $
#$Revision: 254121 $
#$URL: file:///home/coder/svn-repositories/cod/cif/4/00/36/4003613.cif $
#------------------------------------------------------------------------------
#
# This file is available in the Crystallography Open Database (COD),
# http://www.crystallography.net/
#
# All data on this site have been placed in the public domain by the
# contributors.
#
data_4003613
loop_
_publ_author_name
'Creason, Tielyr D.'
'McWhorter, Timothy M.'
'Bell, Zane'
'Du, Mao-Hua'
'Saparov, Bayrammurad'
_publ_section_title
;
 K2CuX3 (X = Cl, Br): All-Inorganic Lead-Free Blue Emitters with
 Near-Unity Photoluminescence Quantum Yield
;
_journal_name_full               'Chemistry of Materials'
_journal_paper_doi               10.1021/acs.chemmater.0c02098
_journal_year                    2020
_chemical_formula_moiety         'Cl3 Cu K2'
_chemical_formula_sum            'Cl3 Cu K2'
_chemical_formula_weight         248.09
_space_group_crystal_system      orthorhombic
_space_group_IT_number           62
_space_group_name_Hall           '-P 2ac 2n'
_space_group_name_H-M_alt        'P n m a'
_atom_sites_solution_primary     dual
_atom_sites_solution_secondary   difmap
_audit_creation_method           SHELXL-2018/3
_audit_update_record
;
2020-03-11 deposited with the CCDC.	2020-04-30 downloaded from the CCDC.
;
_cell_angle_alpha                90
_cell_angle_beta                 90
_cell_angle_gamma                90
_cell_formula_units_Z            4
_cell_length_a                   11.9388(5)
_cell_length_b                   4.1112(2)
_cell_length_c                   12.5095(5)
_cell_measurement_reflns_used    4715
_cell_measurement_temperature    100(2)
_cell_measurement_theta_max      37.74
_cell_measurement_theta_min      3.26
_cell_volume                     614.00(5)
_computing_cell_refinement       'SAINT (Bruker, 2016)'
_computing_data_collection       'APEX3 (Bruker, 2018)'
_computing_data_reduction        'SAINT (Bruker, 2016)'
_computing_molecular_graphics    'Mercury (CCDC, 2018)'
_computing_publication_material  'SHELXL-2018/3 (Sheldrick, 2015b)'
_computing_structure_refinement  'SHELXL-2018/3 (Sheldrick, 2015b)'
_computing_structure_solution    'SHELXT (Sheldrick, 2015a)'
_diffrn_ambient_temperature      100(2)
_diffrn_measured_fraction_theta_full 0.997
_diffrn_measured_fraction_theta_max 0.987
_diffrn_measurement_device_type  'Bruker Photon II CMOS'
_diffrn_measurement_method       '\w and \f scans'
_diffrn_radiation_type           MoK\a
_diffrn_radiation_wavelength     0.71073
_diffrn_reflns_av_R_equivalents  0.0296
_diffrn_reflns_av_unetI/netI     0.0260
_diffrn_reflns_Laue_measured_fraction_full 0.997
_diffrn_reflns_Laue_measured_fraction_max 0.987
_diffrn_reflns_limit_h_max       19
_diffrn_reflns_limit_h_min       -20
_diffrn_reflns_limit_k_max       6
_diffrn_reflns_limit_k_min       -7
_diffrn_reflns_limit_l_max       11
_diffrn_reflns_limit_l_min       -21
_diffrn_reflns_number            8078
_diffrn_reflns_point_group_measured_fraction_full 0.997
_diffrn_reflns_point_group_measured_fraction_max 0.987
_diffrn_reflns_theta_full        25.242
_diffrn_reflns_theta_max         37.829
_diffrn_reflns_theta_min         2.358
_diffrn_source                   'microfocus sealed tube'
_exptl_absorpt_coefficient_mu    6.068
_exptl_absorpt_correction_T_max  0.7474
_exptl_absorpt_correction_T_min  0.5509
_exptl_absorpt_correction_type   multi-scan
_exptl_absorpt_process_details
; 
 SADABS 2016/2: Krause, L., Herbst-Irmer, R., Sheldrick G.M. & Stalke D., 
 J. Appl. Cryst. 48 (2015) 3-10 
;
_exptl_crystal_colour            colourless
_exptl_crystal_density_diffrn    2.684
_exptl_crystal_description       needle
_exptl_crystal_F_000             472
_exptl_crystal_preparation       Luminescent
_exptl_crystal_size_max          0.083
_exptl_crystal_size_mid          0.063
_exptl_crystal_size_min          0.058
_refine_diff_density_max         0.623
_refine_diff_density_min         -0.568
_refine_diff_density_rms         0.136
_refine_ls_extinction_coef       0.0036(6)
_refine_ls_extinction_expression Fc^*^=kFc[1+0.001xFc^2^\l^3^/sin(2\q)]^-1/4^
_refine_ls_extinction_method     'SHELXL-2018/3 (Sheldrick 2018)'
_refine_ls_goodness_of_fit_ref   1.006
_refine_ls_hydrogen_treatment    undef
_refine_ls_matrix_type           full
_refine_ls_number_parameters     38
_refine_ls_number_reflns         1801
_refine_ls_number_restraints     0
_refine_ls_restrained_S_all      1.006
_refine_ls_R_factor_all          0.0264
_refine_ls_R_factor_gt           0.0215
_refine_ls_shift/su_max          0.001
_refine_ls_shift/su_mean         0.000
_refine_ls_structure_factor_coef Fsqd
_refine_ls_weighting_details
'w=1/[\s^2^(Fo^2^)+(0.0220P)^2^+0.3000P] where P=(Fo^2^+2Fc^2^)/3'
_refine_ls_weighting_scheme      calc
_refine_ls_wR_factor_gt          0.0470
_refine_ls_wR_factor_ref         0.0498
_reflns_Friedel_coverage         0.000
_reflns_number_gt                1623
_reflns_number_total             1801
_reflns_threshold_expression     'I > 2\s(I)'
_cod_data_source_file            cm0c02098_si_002.cif
_cod_data_source_block           20038
_cod_database_code               4003613
_shelx_space_group_comment
; 
The symmetry employed for this shelxl refinement is uniquely defined 
by the following loop, which should always be used as a source of 
symmetry information in preference to the above space-group names. 
They are only intended as comments. 
;
_shelx_estimated_absorpt_t_min   0.633
_shelx_estimated_absorpt_t_max   0.720
_shelx_res_file
; 
TITL 20038.res in Pnma 
    20038.res 
    created by SHELXL-2018/3 at 09:36:16 on 28-Feb-2020 
REM Old TITL 20038 in Pnma 
REM SHELXT solution in Pnma 
REM R1 0.021,  Rweak 0.003,  Alpha 0.007,  Orientation as input 
REM Formula found by SHELXT:  Cl3 K2 Cu 
CELL  0.71073  11.9388   4.1112  12.5095   90.000   90.000   90.000 
ZERR    4.000   0.0005   0.0002   0.0005    0.000    0.000    0.000 
LATT  1 
SYMM 1/2-X, -Y, 1/2+Z 
SYMM -X, 1/2+Y, -Z 
SYMM 1/2+X, 1/2-Y, 1/2-Z 
SFAC CL K CU 
UNIT 12 8 4 
  
omit   0   4  14 
omit   4   6  10 
  
TEMP -173.15 
SIZE 0.058 0.063 0.083 
acta 
conf 
wpdb -2 
  
L.S. 10 
BOND $H 
LIST 4 
FMAP 2 
PLAN 20 
WGHT    0.022000    0.300000 
EXTI    0.003631 
FVAR       0.34744 
CU1   3    0.754084    0.750000    0.699051    10.50000    0.00970    0.01355 = 
         0.01091    0.00000   -0.00050    0.00000 
CL1   1    0.634086    0.750000    0.551964    10.50000    0.00847    0.01225 = 
         0.00875    0.00000   -0.00056    0.00000 
K1    2    0.827165    0.250000    0.482363    10.50000    0.01025    0.01016 = 
         0.01042    0.00000   -0.00026    0.00000 
K2    2    0.487781    0.250000    0.674253    10.50000    0.00876    0.01120 = 
         0.01038    0.00000    0.00056    0.00000 
CL2   1    0.723226    0.250000    0.792229    10.50000    0.00906    0.00903 = 
         0.00941    0.00000   -0.00029    0.00000 
CL3   1    0.940909    0.750000    0.640535    10.50000    0.00767    0.01156 = 
         0.01043    0.00000    0.00035    0.00000 
HKLF 4 
  
  
  
  
REM  20038.res in Pnma 
REM wR2 = 0.0498, GooF = S = 1.006, Restrained GooF = 1.006 for all data 
REM R1 = 0.0215 for 1623 Fo > 4sig(Fo) and 0.0264 for all 1801 data 
REM 38 parameters refined using 0 restraints 
  
END 
  
WGHT      0.0129      0.2322 
  
REM Highest difference peak  0.623,  deepest hole -0.568,  1-sigma level  0.136 
Q1    1   0.7523  0.2500  0.7093  10.50000  0.05    0.62 
Q2    1   0.9474  0.7500  0.7167  10.50000  0.05    0.59 
Q3    1   1.0239  0.2500  0.6356  10.50000  0.05    0.53 
Q4    1   0.7582  0.0858  0.7395  11.00000  0.05    0.51 
Q5    1   0.9372  0.7500  0.5664  10.50000  0.05    0.51 
Q6    1   0.6260  0.7500  0.6240  10.50000  0.05    0.51 
Q7    1   0.7143  0.2500  0.8692  10.50000  0.05    0.49 
Q8    1   0.7964  0.1872  0.7619  11.00000  0.05    0.49 
Q9    1   0.8582  0.2500  0.5609  10.50000  0.05    0.46 
Q10   1   0.6201  1.0930  0.4716  11.00000  0.05    0.46 
Q11   1   0.7617  0.7500  0.6296  10.50000  0.05    0.46 
Q12   1   0.4365  0.0981  0.7093  11.00000  0.05    0.44 
Q13   1   0.5555  0.2500  0.5034  10.50000  0.05    0.44 
Q14   1   0.6222  1.1031  0.6332  11.00000  0.05    0.44 
Q15   1   0.7643  0.7500  0.7819  10.50000  0.05    0.43 
Q16   1   0.7245  0.9279  0.7283  11.00000  0.05    0.42 
Q17   1   0.8750  0.2500  0.3980  10.50000  0.05    0.42 
Q18   1   0.8124  0.0729  0.5291  11.00000  0.05    0.40 
Q19   1   0.7186  0.8508  0.5523  11.00000  0.05    0.40 
Q20   1   0.7719  0.7500  0.8327  10.50000  0.05    0.39 
;
_shelx_res_checksum              17065
_shelx_hkl_file
; 
   3   0   0 0.12699 0.37232   2 
  -3   0   0 0.93938 0.41697   2 
  -5   0   0 1.80530 0.61566   2 
   5   0   0 0.31990 0.53461   2 
  -6   0   0 96.4095 3.94484   2 
   6   0   0 83.7511 3.58655   2 
  -7   0   0 1.06458 0.63040   2 
   7   0   0 1.05353 0.77604   2 
   8   0   0 701.950 20.7712   2 
   9   0   0 0.12125 1.00287   2 
  -9   0   0 0.46306 0.61365   2 
  10   0   0 658.683 20.1324   2 
  11   0   0 2.10377 1.32745   2 
  12   0   0 237.763 9.93386   2 
  13   0   0 1.28524 1.33071   2 
 -13   0   0 -0.3158 0.64703   1 
 -13   0   0 1.74050 1.03014   3 
 -14   0   0 2.20982 1.10232   1 
 -14   0   0 3.34933 1.40773   3 
 -15   0   0 1.12852 1.02737   1 
 -15   0   0 -0.6495 0.86391   3 
 -16   0   0 312.176 11.7192   1 
 -16   0   0 328.171 12.1887   3 
 -17   0   0 0.28597 0.98427   1 
 -17   0   0 0.96148 1.16809   3 
 -18   0   0 16.3414 2.87696   3 
 -18   0   0 17.8663 2.68011   1 
 -19   0   0 3.40749 1.29875   1 
 -19   0   0 -0.6235 0.96794   3 
   0  -1   0 1.00581 0.45740   1 
   0   1   0 -0.2601 0.32980   1 
   1   1   0 0.41850 0.31548   3 
   1   1   0 0.25133 0.44087   1 
  -1   1   0 -0.0160 0.28723   1 
  -1  -1   0 0.48845 0.35832   1 
   1  -1   0 -0.0847 0.37145   1 
  -2   1   0 338.322 10.0104   1 
   2   1   0 346.406 9.52527   3 
  -2  -1   0 340.522 9.93239   1 
  -2  -1   0 337.278 9.50635   3 
   3  -1   0 -0.1418 0.45420   2 
  -3   1   0 0.52746 0.49383   1 
  -3   1   0 -0.1375 0.43230   2 
  -3  -1   0 0.53424 0.45437   1 
  -3  -1   0 0.49814 0.30071   3 
   3   1   0 0.31101 0.36913   1 
   3   1   0 0.60547 0.33304   3 
  -4  -1   0 321.701 9.72853   1 
  -4  -1   0 322.749 9.21861   3 
  -4   1   0 318.738 9.90970   2 
   4  -1   0 327.091 9.93800   2 
   4   1   0 333.361 9.76423   1 
  -5   1   0 0.50874 0.46619   2 
  -5  -1   0 -0.0920 0.38537   1 
  -5  -1   0 0.27034 0.35983   3 
   5  -1   0 -0.0079 0.57894   2 
  -5  -1   0 -0.0728 0.40566   2 
  -6  -1   0 787.328 21.8315   3 
  -6  -1   0 798.639 22.3762   1 
  -6   1   0 762.735 22.5830   2 
   6  -1   0 769.409 22.5442   2 
   7  -1   0 2.11143 0.98917   2 
  -7   1   0 0.21321 0.69269   2 
  -7  -1   0 0.19851 0.54687   1 
  -7  -1   0 1.29462 0.68466   2 
  -8   1   0 1137.76 33.0525   2 
  -8  -1   0 1149.21 32.6647   2 
  -8  -1   0 1157.95 32.6326   1 
   8  -1   0 1153.21 33.0013   2 
  -8  -1   0 1145.12 32.1499   3 
  -9  -1   0 -0.0382 0.53550   2 
   9  -1   0 0.18243 0.93469   2 
  -9  -1   0 1.35948 0.69779   3 
  -9  -1   0 0.53560 0.67604   1 
  10  -1   0 15.5466 2.16151   2 
 -10  -1   0 15.2756 1.53466   3 
 -10  -1   0 17.2518 1.77346   1 
 -11  -1   0 -0.5066 0.51763   3 
  11  -1   0 0.63326 1.13401   2 
 -11  -1   0 0.04936 0.71260   1 
 -12  -1   0 713.703 21.1729   3 
  12  -1   0 699.205 22.1216   2 
 -12  -1   0 705.975 21.5924   1 
 -13  -1   0 0.96102 0.86978   3 
  13  -1   0 -0.6698 1.13280   2 
 -13  -1   0 0.46100 0.74364   1 
  14  -1   0 6.82560 2.09366   2 
 -14  -1   0 8.84041 1.73811   3 
 -14  -1   0 9.50881 1.92562   1 
  15  -1   0 1.98422 1.77833   2 
 -15  -1   0 0.51989 0.87629   3 
  16  -1   0 195.814 9.09698   2 
 -16  -1   0 193.467 8.08337   1 
 -16  -1   0 194.475 7.75606   3 
 -17  -1   0 -0.0609 0.96776   3 
  17  -1   0 0.62762 1.36724   2 
 -17  -1   0 -0.7410 0.72586   1 
 -17   1   0 -0.8839 1.02694   3 
  18  -1   0 33.4348 3.73812   2 
 -18   1   0 26.4168 2.77964   1 
 -18   1   0 27.0375 3.45060   3 
 -18  -1   0 32.4116 2.82425   1 
 -19   1   0 1.43440 1.15866   3 
 -19   1   0 0.40393 0.89841   1 
 -19  -1   0 0.22297 1.04605   1 
 -20   1   0 -2.6891 1.19162   3 
   0  -2   0 9703.11 291.431   4 
   0   2   0 9999.99 293.403   4 
   1   2   0 -0.3053 0.40658   3 
  -1  -2   0 0.24584 0.45800   1 
   1  -2   0 0.57029 0.56482   1 
   1   2   0 0.51774 0.53430   1 
  -1   2   0 0.28591 0.44815   1 
  -2  -2   0 658.493 18.9107   1 
   2  -2   0 660.624 18.8988   2 
  -2   2   0 646.559 18.9821   1 
   2   2   0 649.949 18.2829   3 
   2  -2   0 621.040 18.9455   1 
   2   2   0 646.831 18.8626   1 
  -3   2   0 2.28190 0.80369   1 
   3   2   0 0.10868 0.52872   1 
  -3  -2   0 0.95988 0.59315   1 
   3  -2   0 -0.2170 0.60632   2 
  -4   2   0 1080.42 31.0804   1 
   4  -2   0 1064.57 31.0715   2 
   4   2   0 1132.94 30.0601   3 
  -4  -2   0 1081.94 30.9235   1 
   4   2   0 1095.15 30.9295   1 
   5  -2   0 -0.0254 0.67182   2 
   5   2   0 1.89298 0.53976   3 
   5   2   0 1.73851 0.85265   1 
  -5  -2   0 0.10619 0.54367   1 
   6  -2   0 64.1199 3.51709   2 
  -6  -2   0 64.5441 3.21736   1 
  -6   2   0 61.7575 3.28815   1 
   6   2   0 63.2341 3.18847   1 
  -7   2   0 -0.1245 0.56607   1 
   7  -2   0 0.48978 0.96001   2 
  -7  -2   0 0.60463 0.68220   1 
  -7  -2   0 -0.3297 0.49073   2 
  -7  -2   0 0.22864 0.34931   3 
   7   2   0 -1.1069 0.70084   1 
   8  -2   0 453.151 14.5055   2 
  -8  -2   0 427.796 13.8719   2 
  -8  -2   0 452.447 14.0449   1 
  -9  -2   0 -0.5582 0.50079   2 
   9  -2   0 -0.4002 0.96663   2 
  -9  -2   0 -0.2240 0.68754   1 
  10  -2   0 468.302 15.4958   2 
 -10  -2   0 460.981 14.8859   1 
 -11  -2   0 0.26708 0.81972   1 
  11  -2   0 1.16456 1.21585   2 
  12  -2   0 205.632 8.77105   2 
 -12  -2   0 202.103 7.98339   1 
 -13  -2   0 0.01261 0.65903   1 
  13  -2   0 0.56234 1.57079   2 
  14  -2   0 0.39348 1.60926   2 
 -14  -2   0 1.19618 0.88843   1 
  15  -2   0 -0.6892 1.44046   2 
 -15  -2   0 0.20792 0.82473   1 
 -16  -2   0 235.123 9.24854   1 
  16  -2   0 224.831 12.8924   2 
  17  -2   0 1.79328 1.89583   2 
 -17  -2   0 -0.4431 0.72606   1 
  18  -2   0 4.99673 2.60583   2 
 -18  -2   0 13.0397 2.15648   1 
 -19   2   0 0.13531 1.55989   3 
  19  -2   0 -0.4110 1.73772   2 
   0   3   0 0.28825 0.68965   3 
   0  -3   0 -0.2399 0.79737   1 
  -1  -3   0 1.02502 0.79930   1 
   1   3   0 0.17101 0.69345   3 
   1  -3   0 0.12124 0.67058   1 
  -2  -3   0 102.003 4.79529   1 
   2  -3   0 110.299 5.02492   1 
   2  -3   0 111.012 4.86884   2 
   2   3   0 105.358 4.25129   3 
   3   3   0 1.17652 0.87576   3 
   3  -3   0 -0.5585 0.80967   2 
  -3  -3   0 -0.6270 0.75946   1 
   4   3   0 120.671 4.41970   3 
   4  -3   0 121.512 5.43967   2 
  -4  -3   0 118.757 5.31616   1 
   5   3   0 0.59036 0.61536   3 
  -5  -3   0 -0.0190 0.74965   1 
   5  -3   0 0.01922 1.00505   2 
   6   3   0 588.172 17.1372   3 
   6  -3   0 534.062 18.5085   2 
  -7  -3   0 1.12821 1.10230   1 
   7  -3   0 -0.2910 1.94576   2 
   8  -3   0 656.352 20.9067   2 
  -8  -3   0 661.680 20.4994   1 
   9  -3   0 0.97233 1.36948   2 
  -9  -3   0 -0.1686 0.84962   1 
  10  -3   0 9.80822 2.49872   2 
 -10  -3   0 11.8478 2.28483   1 
 -11  -3   0 0.03927 0.86964   1 
  11  -3   0 2.36208 1.54320   2 
 -12  -3   0 460.729 15.5978   1 
  12  -3   0 458.921 16.4659   2 
  13  -3   0 1.59394 1.84748   2 
 -13  -3   0 -0.4007 0.87757   1 
  14  -3   0 8.98369 2.49383   2 
 -14  -3   0 6.30927 1.72874   1 
  15  -3   0 -1.0047 1.68744   2 
 -15  -3   0 0.95425 1.06447   1 
 -16  -3   0 132.962 6.43423   1 
  16  -3   0 129.077 7.72938   2 
  17  -3   0 0.45966 1.77664   2 
 -17  -3   0 0.39050 1.09604   1 
  18  -3   0 20.2673 3.69896   2 
   0  -4   0 3435.70 95.6792   1 
   1  -4   0 1.16620 1.04721   1 
   1  -4   0 1.35502 1.25607   2 
  -1  -4   0 -0.5981 1.14073   1 
  -2  -4   0 207.613 8.57309   1 
   2  -4   0 213.159 9.60391   2 
   2  -4   0 216.707 8.73804   1 
   2   4   0 204.395 7.57449   3 
  -3  -4   0 -0.5341 0.73369   1 
   3   4   0 -0.7668 0.81538   3 
   3  -4   0 0.34173 1.14337   2 
   4   4   0 375.525 11.8397   3 
  -4  -4   0 372.596 13.2764   1 
   4  -4   0 376.337 13.2271   2 
  -5  -4   0 0.38489 1.06712   1 
   5  -4   0 0.55489 1.35024   2 
   5   4   0 0.15803 0.76808   3 
   6  -4   0 14.8983 2.44580   2 
  -6  -4   0 17.0001 2.76860   1 
   6   4   0 14.4725 1.48691   3 
   7  -4   0 0.09392 1.39441   2 
  -7  -4   0 0.74576 1.10799   1 
   8  -4   0 181.555 8.40335   2 
  -8  -4   0 182.507 8.08712   1 
  -9  -4   0 -1.1822 1.06869   1 
   9  -4   0 0.93651 1.71134   2 
 -10  -4   0 200.546 8.86314   1 
  10  -4   0 208.615 9.51409   2 
 -11  -4   0 -1.1728 0.98424   1 
  11  -4   0 -1.4443 1.43064   2 
  12  -4   0 117.821 10.5481   2 
 -12  -4   0 104.091 5.94754   1 
  13  -4   0 0.06301 1.69360   2 
 -13  -4   0 -1.0914 0.98555   1 
  14  -4   0 0.66209 1.90351   2 
 -14  -4   0 0.33830 1.02875   1 
 -15  -4   0 0.90964 1.06787   1 
  15  -4   0 -1.4999 1.86267   2 
  16  -4   0 132.521 8.37764   2 
 -16  -4   0 126.761 7.23015   1 
   0  -5   0 2.04069 1.61969   1 
   0  -5   0 1.21897 1.46508   2 
  -1  -5   0 2.57607 1.59065   1 
   1  -5   0 -0.0440 1.20828   1 
   1  -5   0 -0.3909 1.25475   2 
  -1  -5   0 -0.2795 1.18198   2 
  -2  -5   0 38.6383 3.83220   1 
   2  -5   0 43.4210 3.84304   2 
  -3  -5   0 0.70911 1.41170   1 
   3  -5   0 0.39329 1.41268   2 
  -4  -5   0 50.6826 4.27418   1 
   4  -5   0 52.0047 4.42463   2 
   5  -5   0 0.41247 1.64008   2 
  -5  -5   0 -0.0070 1.23237   1 
   6  -5   0 155.756 7.94280   2 
  -6  -5   0 161.675 8.02774   1 
   7  -5   0 1.77219 1.99992   2 
  -7  -5   0 1.17943 1.34548   1 
   8  -5   0 314.465 12.8578   2 
  -8  -5   0 284.187 12.0524   1 
  -9  -5   0 -0.7702 1.44638   1 
   9  -5   0 -0.2352 2.16298   2 
  10  -5   0 11.1820 3.37871   2 
  11  -5   0 -0.7346 1.60660   2 
 -12  -5   0 219.639 9.98656   1 
  12  -5   0 211.163 10.5788   2 
 -13  -5   0 0.52450 1.52057   1 
  13  -5   0 -0.9877 1.85868   2 
 -14  -5   0 5.12423 1.83997   1 
  14  -5   0 3.64499 2.94385   2 
   0  -6   0 1141.62 35.3672   2 
  -1  -6   0 2.24628 1.83064   2 
   1  -6   0 -0.1454 1.69743   2 
  -2  -6   0 51.6695 4.43728   2 
   2  -6   0 46.8749 4.75640   2 
  -2  -6   0 62.0179 5.26743   1 
   3  -6   0 2.38856 3.50441   2 
  -3  -6   0 2.17213 1.97773   1 
  -3  -6   0 0.67998 1.42170   2 
  -4  -6   0 113.086 6.38480   2 
  -4  -6   0 114.452 7.30795   1 
   4  -6   0 98.8468 6.66195   2 
   5  -6   0 2.31958 2.03905   2 
  -5  -6   0 0.06352 1.47394   2 
  -5  -6   0 1.58131 1.81665   1 
   6  -6   0 0.55262 1.92534   2 
  -6  -6   0 0.25667 1.80938   1 
  -7  -6   0 0.56364 1.64979   1 
   7  -6   0 1.68076 2.35430   2 
   8  -6   0 45.0704 5.07405   2 
  -8  -6   0 52.7228 4.81657   1 
  -9  -6   0 1.38783 2.15553   1 
   9  -6   0 -0.4974 2.13755   2 
 -10  -6   0 68.5429 5.65072   1 
  10  -6   0 65.1655 5.96696   2 
   0  -7   0 2.82988 2.40030   2 
   1  -7   0 0.54433 2.20864   2 
  -1  -7   0 -2.7968 1.69151   2 
   2  -7   0 9.85266 3.01463   2 
  -2  -7   0 11.4281 2.55582   2 
   3  -7   0 0.12398 2.25221   2 
  -3  -7   0 0.49633 1.80056   2 
   1   0   1 1.96133 0.44469   2 
  -2   0  -1 0.29029 0.33255   2 
   2   0  -1 0.65975 0.28662   2 
  -2   0   1 1.39196 0.31469   2 
   2   0   1 0.21801 0.27749   2 
   3   0  -1 189.765 5.63788   2 
  -3   0   1 187.488 5.62203   2 
   3   0   1 185.617 5.82393   2 
  -3   0  -1 187.787 5.97782   2 
   4   0   1 880.811 24.5574   2 
  -4   0  -1 871.784 24.5231   2 
  -5   0  -1 162.310 5.52657   2 
   5   0  -1 163.113 5.36534   2 
  -5   0   1 161.920 5.33703   2 
   5   0   1 161.497 5.56226   2 
  -6   0  -1 136.067 4.99116   2 
   6   0   1 135.392 5.05373   2 
   6   0  -1 135.870 4.91578   2 
  -6   0   1 136.118 4.82786   2 
  -7   0   1 608.147 17.7785   2 
   7   0  -1 602.438 17.7715   2 
  -7   0  -1 611.371 17.9682   2 
   7   0   1 601.674 18.0120   2 
   8   0   1 139.824 5.64433   2 
  -8   0   1 150.501 5.51108   2 
  -8   0  -1 142.926 5.59496   2 
   8   0  -1 140.949 5.47846   2 
  -9   0   1 393.051 13.0784   2 
   9   0  -1 428.286 13.2800   2 
   9   0   1 422.518 13.4568   2 
  -9   0  -1 423.199 13.8615   2 
  10   0  -1 15.0970 2.02403   2 
  10   0   1 17.3448 2.17913   2 
  11   0   1 37.8026 3.04521   2 
  11   0  -1 38.6679 3.00178   2 
 -11   0  -1 41.8538 2.96090   3 
  12   0   1 21.0103 2.74266   2 
  12   0  -1 22.9348 2.60606   2 
 -12   0  -1 21.9886 2.36203   3 
 -13   0  -1 6.97779 1.70355   3 
  13   0   1 4.77046 1.72776   2 
 -13   0   1 5.60542 1.40793   1 
  13   0  -1 4.39566 1.48518   2 
  14   0  -1 3.87267 1.76329   2 
 -14   0   1 2.94193 1.14132   1 
 -15   0  -1 181.666 8.01696   3 
 -15   0   1 176.046 7.70828   3 
 -15   0   1 175.380 7.29376   1 
 -15   0  -1 175.891 7.84220   1 
 -16   0   1 2.56794 1.32760   3 
 -16   0  -1 6.84534 1.91113   1 
 -16   0  -1 6.22363 1.87419   3 
 -17   0   1 136.249 6.72643   3 
 -17   0  -1 133.454 6.91817   3 
 -17   0   1 134.088 6.14299   1 
 -17   0  -1 132.167 6.65789   1 
 -18   0  -1 77.9517 4.79436   1 
 -18   0  -1 76.4635 5.00190   3 
 -18   0   1 74.7448 4.80935   3 
 -18   0   1 79.8427 4.45539   1 
 -19   0   1 17.1797 2.50037   1 
 -19   0  -1 19.6834 2.50744   3 
 -19   0   1 16.2550 2.49387   3 
 -19   0  -1 19.3685 2.41602   1 
 -20   0  -1 25.7596 4.05059   1 
 -20   0  -1 21.5926 3.46012   3 
   0  -1   1 354.018 10.4461   1 
   0  -1  -1 374.285 10.5412   1 
   0   1  -1 366.151 10.7543   1 
   0   1   1 352.612 10.4012   3 
   1  -1   1 249.523 7.75190   2 
  -1  -1  -1 258.807 7.72858   3 
  -1  -1  -1 253.537 7.91583   1 
  -1   1   1 287.356 8.20884   1 
   1   1  -1 264.265 7.80467   1 
  -1  -1   1 260.616 7.79996   1 
  -1   1  -1 275.094 7.98754   1 
   1   1   1 266.169 7.94260   1 
   1   1   1 271.832 7.74549   3 
   2   1  -1 620.307 17.3420   3 
   2  -1   1 655.208 18.3199   2 
  -2   1   1 630.181 18.0069   1 
   2   1  -1 632.763 17.8481   1 
  -2  -1  -1 707.467 19.5902   1 
  -2  -1  -1 625.929 17.7484   3 
   2  -1  -1 650.500 18.4648   2 
  -2  -1   1 639.817 17.8576   1 
  -2   1  -1 621.981 18.0953   1 
  -2   1  -1 622.744 17.9977   2 
   2  -1  -1 631.423 18.0251   1 
   2   1   1 647.402 18.0934   1 
   2   1   1 633.871 17.7717   3 
  -3  -1  -1 92.4346 3.06122   3 
  -3  -1  -1 88.8489 3.36766   1 
   3  -1   1 87.7397 3.34694   2 
   3   1  -1 85.4513 3.31446   1 
  -3   1   1 88.1815 3.23729   1 
  -3  -1   1 90.3650 3.10019   1 
   3   1   1 89.9891 3.06198   3 
  -3   1  -1 85.1150 3.32346   2 
   3   1   1 87.4901 3.31222   1 
   3  -1  -1 90.7132 3.39049   2 
  -4  -1  -1 9.01448 0.93519   3 
   4   1  -1 9.71365 0.91013   1 
   4  -1   1 9.58381 1.15806   2 
  -4  -1  -1 9.11271 1.03935   1 
  -4   1   1 9.38792 1.05330   2 
  -4   1   1 8.93895 0.93881   1 
  -4   1  -1 10.3072 1.10743   2 
   4   1   1 9.65251 0.87432   3 
  -4  -1   1 10.0700 0.89788   1 
   4   1   1 10.8006 1.05446   1 
   4  -1  -1 10.0861 1.17172   2 
  -5  -1  -1 576.853 16.5001   1 
   5  -1   1 569.338 16.4795   2 
  -5   1   1 543.148 16.4065   2 
  -5  -1  -1 556.305 16.3326   2 
  -5   1   1 577.314 16.2250   1 
  -5  -1  -1 560.368 15.9973   3 
  -5  -1   1 561.064 15.9974   2 
  -5  -1   1 555.289 15.4372   3 
  -5   1  -1 549.942 16.4661   2 
   5  -1  -1 546.463 16.4120   2 
  -6   1   1 1083.95 31.7964   2 
   6  -1   1 1128.43 31.9149   2 
  -6  -1  -1 1126.15 31.8437   1 
  -6  -1  -1 1134.51 31.7857   2 
  -6  -1   1 1142.12 30.8688   3 
  -6  -1   1 1141.57 31.3718   1 
  -6  -1   1 1143.58 31.4291   2 
   6  -1  -1 1103.75 31.8132   2 
  -7  -1  -1 360.902 11.4579   1 
   7  -1   1 361.123 11.5444   2 
  -7  -1  -1 350.112 11.2936   2 
  -7  -1  -1 349.707 10.9579   3 
  -7  -1   1 368.137 11.0863   2 
  -7   1  -1 352.007 11.5193   2 
  -7  -1   1 367.712 10.5359   3 
  -7  -1   1 369.934 10.9893   1 
   7  -1  -1 357.098 11.4395   2 
  -8  -1  -1 12.9249 1.38557   3 
  -8  -1  -1 12.8643 1.53207   1 
  -8  -1  -1 10.7913 1.45937   2 
   8  -1   1 14.4534 2.12116   2 
  -8   1   1 11.7869 1.47101   2 
  -8  -1   1 11.4028 1.29236   2 
   8  -1  -1 16.9726 2.21194   2 
  -8   1  -1 13.5081 1.99449   2 
  -8  -1   1 10.9861 1.23427   1 
  -9  -1  -1 472.226 14.6171   3 
  -9  -1  -1 486.792 15.1531   1 
  -9  -1  -1 462.548 14.9807   2 
   9  -1   1 494.726 15.3378   2 
   9  -1  -1 473.601 15.1547   2 
  -9  -1   1 494.466 14.6323   1 
  -9  -1   1 470.726 14.1441   3 
  10  -1   1 1086.38 32.2364   2 
 -10  -1  -1 1131.39 32.1331   1 
 -10  -1  -1 1088.09 31.5377   3 
 -10  -1   1 1101.95 31.0565   3 
 -10  -1   1 1125.34 31.5174   1 
  10  -1  -1 1075.23 32.0844   2 
 -10  -1   1 1088.32 31.7119   2 
 -11  -1  -1 3.71964 1.31417   1 
 -11  -1  -1 1.55798 0.90071   3 
  11  -1  -1 3.29697 1.57048   2 
 -11  -1   1 2.46625 0.88772   3 
 -11  -1   1 1.22065 0.87845   1 
 -12  -1  -1 91.8075 4.47754   3 
 -12  -1  -1 91.1868 4.73239   1 
  12  -1   1 95.8179 5.25037   2 
  12  -1  -1 94.2366 5.14380   2 
 -12  -1   1 93.8759 4.36753   1 
 -12  -1   1 91.9438 4.14134   3 
 -13  -1  -1 209.621 8.16975   3 
  13  -1   1 216.500 9.09368   2 
 -13  -1  -1 224.659 8.67270   1 
 -13  -1   1 222.455 8.09080   1 
  13  -1  -1 210.956 8.85223   2 
 -13  -1   1 213.969 7.77057   3 
 -14  -1  -1 261.089 9.44769   3 
  14  -1   1 246.665 10.2847   2 
 -14  -1   1 254.143 9.00993   3 
 -14  -1   1 259.627 9.28577   1 
  14  -1  -1 245.268 10.2019   2 
  15  -1   1 15.6825 3.03247   2 
 -15  -1  -1 6.82695 1.69413   1 
 -15  -1  -1 9.21325 1.89323   3 
 -15  -1   1 12.6774 2.04149   3 
  15  -1  -1 12.4763 2.65251   2 
 -15  -1   1 7.62234 1.71760   1 
  16  -1   1 323.037 12.9877   2 
 -16  -1  -1 347.927 12.5965   3 
 -16  -1  -1 333.948 12.3433   1 
 -16  -1   1 336.289 12.9388   1 
 -16   1  -1 336.634 13.3329   3 
 -16  -1   1 326.542 11.2782   3 
  16  -1  -1 323.748 12.9546   2 
 -17  -1  -1 145.358 6.91396   1 
 -17  -1  -1 137.152 6.36324   3 
 -17   1  -1 144.283 7.58710   3 
 -17  -1   1 132.626 6.05435   1 
 -17  -1   1 133.107 5.78995   3 
  17  -1  -1 134.885 7.40333   2 
 -18   1   1 94.8085 6.14128   3 
 -18   1   1 101.030 5.44602   1 
 -18  -1  -1 98.9487 5.14223   3 
 -18  -1  -1 101.265 5.52378   1 
 -18   1  -1 108.198 7.50086   3 
 -18  -1   1 93.4258 4.84699   1 
  18  -1  -1 102.011 6.45719   2 
 -18   1  -1 93.4632 5.66309   1 
 -19  -1  -1 5.07039 1.56197   1 
 -19   1   1 3.15313 1.92681   3 
 -19   1   1 7.06376 1.61303   1 
 -19   1  -1 5.06077 1.75320   3 
 -20   1   1 88.7005 5.87326   3 
 -20   1  -1 83.9065 5.32666   1 
 -20   1  -1 89.1469 6.22545   3 
   0   2  -1 0.43518 0.46726   1 
   0  -2  -1 0.07414 0.54146   1 
   0  -2   1 0.63494 0.64109   1 
   0   2   1 0.56216 0.57808   1 
   0   2   1 0.17264 0.49877   3 
   1  -2   1 0.59122 0.53657   1 
   1  -2   1 0.27711 0.54634   2 
  -1   2   1 0.32261 0.50146   1 
   1   2  -1 -0.4264 0.43517   1 
  -1  -2  -1 0.26756 0.49755   1 
  -1  -2   1 1.28962 0.69867   1 
   1  -2  -1 1.08452 0.73248   1 
  -1   2  -1 -0.4861 0.47491   1 
   1   2   1 1.34116 0.75957   1 
   1   2   1 0.84663 0.53833   3 
   2   2  -1 0.93197 0.53475   1 
   2  -2   1 0.81228 0.67131   2 
  -2  -2  -1 0.34245 0.53614   1 
  -2   2   1 0.95851 0.59707   1 
  -2  -2   1 0.25850 0.48910   1 
   2   2   1 0.61167 0.52983   3 
   2  -2  -1 0.02099 0.60393   1 
  -2   2  -1 0.45149 0.48629   1 
   3  -2   1 112.941 4.39792   2 
  -3   2   1 103.012 4.33174   1 
   3   2  -1 107.660 3.50654   3 
   3   2  -1 109.367 4.22671   1 
  -3  -2  -1 106.226 4.36369   1 
   3  -2  -1 104.840 4.39383   2 
   3   2   1 110.333 4.37115   1 
  -3  -2   1 111.757 4.25779   1 
   3   2   1 110.141 3.87132   3 
   3  -2  -1 105.928 4.38202   1 
  -3   2  -1 102.595 4.34934   1 
   4   2  -1 445.255 13.5694   1 
   4   2  -1 461.141 12.5758   3 
  -4   2   1 458.573 13.8715   1 
  -4  -2  -1 443.035 13.8278   1 
   4  -2   1 442.176 13.7709   2 
   4   2   1 456.912 13.1433   3 
   4   2   1 443.496 13.8054   1 
  -4   2  -1 456.382 13.9879   1 
  -4  -2   1 455.133 13.6117   1 
   4  -2  -1 443.292 13.8796   2 
   5   2  -1 94.8497 3.96903   1 
  -5  -2  -1 95.7630 4.19615   1 
   5  -2   1 93.8619 4.26241   2 
  -5   2   1 94.4041 4.17482   1 
   5   2   1 104.037 3.62292   3 
  -5   2  -1 96.3435 4.28420   1 
   5  -2  -1 92.6458 4.31347   2 
  -5  -2   1 97.2272 3.98049   1 
   5   2   1 93.3827 4.11769   1 
   6   2  -1 77.2356 3.51587   1 
  -6   2   1 82.4192 3.79442   1 
  -6  -2  -1 81.2981 3.83810   1 
   6  -2   1 79.1310 3.97752   2 
  -6   2  -1 75.9066 3.79873   1 
   6  -2  -1 78.7830 3.95273   2 
  -6   2  -1 72.8086 3.78224   2 
   6   2   1 81.3535 3.08839   3 
  -6  -2   1 82.7819 3.60527   1 
  -7   2   1 412.256 13.1749   1 
   7  -2   1 421.604 13.4605   2 
  -7  -2  -1 365.117 12.8824   2 
  -7  -2  -1 415.372 13.2716   1 
   7   2  -1 432.026 12.9481   1 
  -7  -2   1 435.166 12.9293   1 
  -7  -2   1 403.713 12.6734   2 
   7  -2  -1 425.559 13.4972   2 
  -8   2   1 104.068 5.11680   1 
   8  -2   1 105.706 5.07176   2 
  -8  -2  -1 107.660 4.86256   1 
  -8  -2  -1 105.190 3.95472   3 
  -8  -2  -1 100.690 4.62465   2 
   8  -2  -1 105.433 5.09577   2 
  -8  -2   1 102.431 4.35754   2 
  -8  -2   1 112.561 4.58771   1 
  -9  -2  -1 306.696 10.5990   1 
  -9  -2  -1 311.409 9.39128   3 
   9  -2   1 311.068 10.9510   2 
  -9  -2   1 291.856 10.0671   2 
  -9  -2   1 312.074 10.2097   1 
   9  -2  -1 296.398 10.8131   2 
  10  -2   1 18.0912 2.53933   2 
 -10  -2  -1 12.5732 2.00385   1 
 -10  -2  -1 12.9730 1.33977   3 
 -10  -2   1 15.2524 1.73688   1 
  10  -2  -1 15.3103 2.41422   2 
 -10  -2   1 13.8013 1.71431   2 
  11  -2   1 30.7430 3.20950   2 
 -11  -2  -1 35.9917 2.87807   1 
 -11  -2  -1 30.5212 1.94488   3 
  11  -2  -1 29.7541 3.17601   2 
 -11  -2   1 32.0726 2.44492   1 
  12  -2   1 16.1862 2.49561   2 
 -12  -2  -1 16.2231 1.52156   3 
 -12  -2  -1 15.8665 2.10647   1 
  12  -2  -1 14.3613 2.40296   2 
 -12  -2   1 17.5340 1.92007   1 
  13  -2   1 4.59594 1.73382   2 
 -13  -2  -1 5.80409 1.63481   1 
 -13  -2  -1 3.60307 0.94813   3 
 -13  -2   1 3.79519 1.27746   1 
  13  -2  -1 10.0392 2.42455   2 
  14  -2   1 1.84457 1.67623   2 
 -14  -2  -1 1.86572 1.17488   1 
 -14  -2  -1 1.94111 0.75446   3 
 -14  -2   1 3.17257 1.13906   1 
  14  -2  -1 4.19918 1.92170   2 
 -15  -2  -1 135.024 6.59477   1 
 -15  -2  -1 133.692 4.96023   3 
  15  -2   1 138.306 7.50863   2 
  15  -2  -1 143.252 7.54544   2 
  16  -2   1 1.06817 2.62717   2 
 -16  -2  -1 3.91726 1.45687   1 
 -16  -2   1 3.81528 1.25743   1 
  16  -2  -1 3.70432 2.11107   2 
  17  -2   1 105.619 6.88334   2 
 -17  -2  -1 105.280 5.63626   1 
 -17  -2   1 103.845 5.12480   1 
  17  -2  -1 105.739 6.72815   2 
  18  -2   1 63.3330 5.28666   2 
 -18  -2  -1 62.5658 4.23261   1 
 -18   2  -1 50.6157 4.92416   3 
  18  -2  -1 57.8924 5.25844   2 
 -18  -2   1 54.6460 5.52836   1 
  19  -2   1 8.72288 2.33006   2 
 -19  -2  -1 13.1667 2.89266   1 
  19  -2  -1 14.3481 3.35672   2 
 -19   2  -1 20.4503 3.85276   3 
   0  -3   1 140.923 5.86990   1 
   0  -3  -1 146.732 5.97815   1 
   0   3   1 134.134 6.44847   3 
   1  -3   1 86.0131 4.02875   2 
  -1   3   1 81.1499 3.99587   3 
   1   3  -1 88.6491 3.73870   3 
   1  -3   1 84.4835 4.24478   1 
   1   3  -1 91.0526 4.68492   1 
  -1  -3  -1 82.2990 4.23643   1 
   1  -3  -1 85.6747 4.31630   1 
  -1  -3   1 84.5921 4.21404   1 
   1   3   1 83.1503 3.79197   3 
   2  -3   1 251.937 8.59551   2 
  -2  -3  -1 242.013 8.81941   1 
   2   3  -1 243.165 8.78919   1 
  -2  -3   1 251.726 8.75076   1 
   2  -3  -1 240.858 8.86373   1 
   2   3   1 233.306 8.07303   3 
   3  -3   1 25.3106 2.39032   2 
  -3  -3  -1 27.3590 2.38278   1 
   3   3  -1 26.4701 1.71977   3 
   3   3  -1 30.4638 2.35287   1 
   3  -3  -1 28.7639 2.61385   2 
   3  -3  -1 24.8693 2.41673   1 
   3   3   1 30.8459 2.01933   3 
  -3  -3   1 23.2836 2.17689   1 
   4  -3   1 3.09808 1.22147   2 
  -4  -3  -1 5.95740 1.56002   1 
   4   3  -1 4.39088 0.83470   3 
   4   3  -1 4.99060 1.92408   1 
  -4  -3   1 4.11624 1.15381   1 
   4  -3  -1 2.49782 1.27084   2 
   4   3   1 2.88808 1.49154   3 
   5   3  -1 209.802 7.65307   3 
  -5  -3  -1 245.338 8.87903   1 
   5  -3   1 238.038 8.76265   2 
   5   3   1 248.342 7.79490   3 
  -5  -3   1 239.755 8.63111   1 
   5  -3  -1 241.988 8.96743   2 
   6  -3   1 511.406 16.5552   2 
  -6  -3  -1 506.447 16.4861   1 
   6   3   1 543.787 15.2377   3 
  -6  -3   1 511.376 16.2297   1 
   6  -3  -1 501.121 16.5730   2 
  -7  -3  -1 188.004 7.61766   1 
   7   3   1 192.499 6.18358   3 
  -7  -3   1 187.209 7.31229   1 
   7  -3  -1 184.086 7.92366   2 
   8  -3   1 5.00837 1.68689   2 
  -8  -3  -1 1.62859 1.06483   1 
  -8  -3   1 2.41350 0.94648   2 
   8  -3  -1 1.99165 1.44103   2 
  -8  -3   1 0.87236 1.00492   1 
   9  -3   1 262.730 10.3961   2 
  -9  -3  -1 277.121 10.3328   1 
   9  -3  -1 268.067 10.5247   2 
  -9  -3   1 276.610 9.87491   1 
 -10  -3  -1 644.216 20.7770   1 
  10  -3   1 663.701 21.1988   2 
  10  -3  -1 644.365 21.1193   2 
 -10  -3   1 650.982 20.3132   1 
  11  -3   1 3.13785 1.88314   2 
 -11  -3  -1 2.53260 1.26905   1 
  11  -3  -1 5.43640 2.10769   2 
 -11  -3   1 1.68082 1.13772   1 
 -12  -3  -1 46.2196 3.63419   1 
  12  -3   1 54.6048 4.46233   2 
 -12  -3   1 47.7301 3.82706   1 
  12  -3  -1 50.2520 4.37820   2 
  13  -3   1 147.746 7.70752   2 
 -13  -3  -1 143.061 6.94385   1 
  13  -3  -1 151.329 7.84593   2 
 -13  -3   1 144.760 6.60943   1 
 -14  -3  -1 159.538 7.52094   1 
  14  -3   1 160.068 8.35100   2 
 -14  -3   1 163.489 7.15414   1 
  14  -3  -1 162.348 8.38518   2 
  15  -3   1 4.60681 2.16115   2 
 -15  -3  -1 4.86700 1.53928   1 
  15  -3  -1 8.37775 2.39618   2 
 -15  -3   1 3.66126 1.44998   1 
  16  -3   1 216.100 10.5211   2 
 -16  -3  -1 218.981 9.37762   1 
 -16  -3   1 218.082 8.77713   1 
  16  -3  -1 229.263 10.7412   2 
  17  -3   1 91.2693 6.79438   2 
 -17  -3  -1 93.8617 5.39021   1 
 -17  -3   1 93.6567 5.03920   1 
  17  -3  -1 95.0412 6.82924   2 
 -18  -3  -1 69.2516 4.75101   1 
  18  -3   1 69.0168 6.22562   2 
  18  -3  -1 67.7364 6.12708   2 
   0  -4   1 1.46117 1.54551   1 
   0  -4   1 1.64988 1.27282   2 
   0  -4  -1 0.74976 1.17011   1 
   1  -4   1 0.40154 1.02830   2 
   1  -4   1 1.14735 1.23118   1 
  -1  -4  -1 0.12748 0.93412   1 
   1   4  -1 -0.5137 0.88230   3 
   1  -4  -1 -0.3858 1.07494   1 
  -1  -4   1 1.73777 1.43856   1 
   2   4  -1 0.90907 0.89544   3 
  -2  -4  -1 0.50537 0.98587   1 
   2  -4   1 0.66025 1.15366   2 
   2  -4  -1 0.32455 1.18692   2 
  -2  -4   1 -0.1782 1.16108   1 
   2  -4  -1 0.09354 1.12824   1 
  -3  -4  -1 37.0035 3.18305   1 
   3  -4   1 30.8913 4.40674   2 
   3   4  -1 34.4161 2.36102   3 
   3   4   1 31.7517 2.55140   3 
   3  -4  -1 32.5198 3.18884   1 
   3  -4  -1 35.7667 3.24999   2 
  -3  -4   1 36.0271 3.15380   1 
   4  -4   1 195.216 8.00349   2 
   4   4  -1 183.588 6.58132   3 
  -4  -4  -1 186.236 8.10597   1 
  -4  -4   1 192.059 7.99352   1 
   4   4   1 189.816 7.56654   3 
   4  -4  -1 183.296 7.98845   2 
  -5  -4  -1 41.8878 3.43124   1 
   5   4  -1 40.9884 2.33648   3 
   5  -4   1 37.2887 3.38178   2 
   5   4   1 34.4898 2.52151   3 
  -5  -4   1 43.2346 3.43281   1 
   5  -4  -1 40.5265 3.64684   2 
  -6  -4  -1 27.1997 2.96526   1 
   6  -4   1 32.1517 3.32530   2 
   6   4   1 29.0919 2.14964   3 
   6  -4  -1 27.9690 3.17621   2 
  -6  -4   1 25.2701 2.76483   1 
  -7  -4  -1 210.292 8.95391   1 
   7  -4   1 207.245 8.94207   2 
   7  -4  -1 211.630 9.07609   2 
  -7  -4   1 210.506 8.65350   1 
   8  -4   1 67.9360 4.87586   2 
  -8  -4  -1 67.5610 4.57192   1 
  -8  -4   1 64.0523 4.26839   1 
   8  -4  -1 67.7586 4.93356   2 
   9  -4   1 152.325 7.89286   2 
  -9  -4  -1 180.667 7.96396   1 
   9  -4  -1 170.465 8.23897   2 
  -9  -4   1 159.550 7.43811   1 
 -10  -4  -1 8.53621 2.00306   1 
  10  -4   1 8.70063 2.41004   2 
  10  -4  -1 10.8217 2.63713   2 
 -10  -4   1 11.5938 2.25958   1 
 -11  -4  -1 17.0824 2.79115   1 
  11  -4   1 19.2565 3.44483   2 
  11  -4  -1 20.7237 3.62359   2 
 -11  -4   1 22.6639 3.24410   1 
 -12  -4  -1 15.3501 2.69908   1 
  12  -4   1 6.59485 3.19485   2 
  12  -4  -1 13.4865 3.58492   2 
 -12  -4   1 18.8507 2.89783   1 
  13  -4   1 2.06183 1.98784   2 
 -13  -4  -1 2.18098 1.35162   1 
  13  -4  -1 1.54756 1.74066   2 
 -13  -4   1 -0.0360 1.21284   1 
 -14  -4  -1 1.42310 1.21973   1 
  14  -4   1 2.78887 2.08225   2 
 -14  -4   1 1.62252 1.28443   1 
  14  -4  -1 0.94239 2.05325   2 
  15  -4   1 79.4133 6.46349   2 
  15  -4  -1 77.4653 6.23062   2 
 -15  -4   1 87.8718 5.01901   1 
  16  -4   1 2.05697 2.52251   2 
 -16  -4  -1 2.10959 1.56907   1 
 -16  -4   1 2.32518 1.63924   1 
  16  -4  -1 3.05978 2.59464   2 
   0  -5  -1 26.7168 3.18921   2 
   0  -5  -1 29.2937 3.37927   1 
   0  -5   1 26.9573 3.05129   2 
  -1  -5  -1 23.2382 3.09560   1 
   1  -5   1 26.1012 3.02959   2 
  -1  -5   1 24.1501 3.14879   1 
   1  -5  -1 26.8074 3.23033   2 
  -1  -5   1 25.1922 2.91510   2 
   1  -5  -1 24.8465 3.35201   1 
  -2  -5  -1 58.2794 4.53372   1 
   2  -5   1 51.7684 4.16233   2 
   2  -5  -1 55.2075 4.33025   2 
  -2  -5   1 54.0390 4.37378   1 
  -2  -5   1 51.4915 3.85925   2 
  -3  -5  -1 14.6940 2.96612   1 
   3  -5   1 16.4204 2.89089   2 
  -3  -5   1 19.4900 3.32759   1 
   3  -5  -1 12.0152 2.68868   2 
   4  -5   1 9.26253 2.32832   2 
  -4  -5  -1 8.24245 2.32951   1 
  -4  -5   1 11.2092 2.44440   1 
   4  -5  -1 11.6170 2.73373   2 
  -5  -5  -1 95.3634 5.97086   1 
   5  -5   1 92.4590 5.70938   2 
   5  -5  -1 91.5056 6.03548   2 
  -5  -5   1 90.2414 5.69895   1 
   6  -5   1 143.051 7.68648   2 
  -6  -5  -1 171.400 8.25135   1 
  -6  -5   1 162.333 7.91997   1 
   6  -5  -1 146.722 7.90017   2 
  -7  -5  -1 71.0653 5.27513   1 
   7  -5   1 74.2756 5.46333   2 
   7  -5  -1 80.3394 5.70224   2 
  -7  -5   1 69.6795 5.14261   1 
  -8  -5  -1 0.06462 1.22477   1 
   8  -5   1 1.12474 1.84847   2 
   8  -5  -1 3.52839 2.42083   2 
  -8  -5   1 0.96330 1.66214   1 
   9  -5   1 114.645 7.71756   2 
  -9  -5  -1 122.441 6.91507   1 
   9  -5  -1 105.341 7.18587   2 
  -9  -5   1 123.022 6.74310   1 
 -10  -5  -1 251.842 11.1485   1 
  10  -5   1 248.199 11.4478   2 
  10  -5  -1 270.293 11.8916   2 
 -10  -5   1 255.984 11.0441   1 
 -11  -5  -1 4.56218 2.36052   1 
  11  -5   1 0.01705 1.91168   2 
  11  -5  -1 -1.6619 2.07428   2 
 -11  -5   1 0.13763 1.59289   1 
 -12  -5  -1 16.1007 2.95991   1 
  12  -5   1 9.75156 2.73880   2 
  12  -5  -1 14.2937 3.14707   2 
  13  -5   1 71.4695 5.99436   2 
 -13  -5  -1 69.8780 5.14285   1 
  13  -5  -1 58.4234 5.73034   2 
 -13  -5   1 65.2966 4.92574   1 
 -14  -5  -1 61.0776 4.95330   1 
 -14  -5   1 81.2497 5.20478   1 
   0  -6   1 9.25082 2.33377   2 
  -1  -6  -1 -1.4075 1.58220   1 
   1  -6   1 0.29800 1.60167   2 
  -1  -6  -1 1.40745 1.81807   2 
   1  -6  -1 1.06656 1.86083   2 
  -1  -6   1 4.15038 1.93515   2 
   2  -6   1 2.35438 1.87983   2 
  -2  -6  -1 0.56603 1.66936   2 
  -2  -6  -1 0.30259 2.00732   1 
  -2  -6   1 0.76965 1.46319   2 
  -3  -6  -1 16.8600 3.44432   1 
  -3  -6  -1 14.0445 2.72190   2 
  -3  -6   1 13.0283 2.62185   2 
   3  -6  -1 18.4382 3.59713   2 
  -4  -6  -1 83.1928 6.15899   1 
   4  -6   1 73.8811 5.49469   2 
   4  -6  -1 82.0601 6.15653   2 
  -4  -6   1 72.8230 4.98067   2 
  -4  -6   1 78.0320 5.91472   1 
  -5  -6  -1 13.7500 2.92371   1 
   5  -6   1 12.1937 2.99605   2 
  -5  -6   1 14.3030 3.12443   1 
   5  -6  -1 16.0019 3.27521   2 
  -5  -6   1 16.5064 2.69509   2 
   6  -6   1 7.00719 2.96058   2 
  -6  -6  -1 10.4743 2.63850   1 
   6  -6  -1 7.74501 2.66555   2 
  -6  -6   1 11.2648 2.86095   1 
  -6  -6   1 6.56726 1.90427   2 
  -7  -6  -1 63.6605 5.51277   1 
   7  -6   1 75.4761 5.90902   2 
   7  -6  -1 66.0253 5.86232   2 
  -7  -6   1 72.2263 5.64140   1 
  -7  -6   1 68.5625 4.52447   2 
   8  -6   1 32.2107 4.73887   2 
  -8  -6  -1 31.0802 3.97094   1 
   8  -6  -1 27.5991 4.08636   2 
  -8  -6   1 29.0968 3.80407   1 
  -9  -6  -1 72.5019 5.67516   1 
   9  -6   1 60.5237 5.44958   2 
  -9  -6   1 61.0499 5.34344   1 
   9  -6  -1 72.4328 6.28334   2 
 -10  -6  -1 6.43566 2.15575   1 
  10  -6   1 5.09142 2.67770   2 
  10  -6  -1 5.49831 3.07311   2 
 -10  -6   1 2.30943 2.06641   1 
   0  -7   1 1.81352 2.12830   2 
   0  -7  -1 3.43864 2.37588   2 
  -1  -7  -1 4.51306 2.15539   2 
   1  -7   1 4.99082 2.69972   2 
  -1  -7   1 3.44759 2.09378   2 
   1  -7  -1 2.30224 2.45483   2 
   2  -7   1 11.4075 2.84732   2 
  -2  -7  -1 12.0865 3.20420   2 
   2  -7  -1 10.8589 2.85954   2 
  -2  -7   1 11.3985 2.84429   2 
  -3  -7  -1 6.65420 2.64044   2 
   3  -7   1 5.76823 2.57535   2 
   3  -7  -1 9.65513 4.06577   2 
  -3  -7   1 5.02017 2.33245   2 
   0   0  -2 728.388 19.7821   3 
   0   0   2 705.862 19.7769   3 
  -1   0   2 537.270 14.8864   3 
   1   0   2 524.287 15.0681   3 
   1   0  -2 546.607 14.6422   1 
  -1   0  -2 530.569 15.0770   3 
   1   0  -2 549.403 14.9008   3 
  -2   0  -2 247.358 7.43996   3 
   2   0  -2 244.802 7.03695   2 
   2   0   2 244.110 7.42497   3 
   2   0  -2 252.750 7.17547   3 
  -2   0   2 251.950 7.16675   3 
  -2   0  -2 248.121 7.37148   2 
  -3   0   2 60.9194 2.23763   3 
  -3   0  -2 60.9985 2.51699   3 
  -3   0   2 62.1653 2.18902   2 
   3   0  -2 60.4252 2.18914   2 
  -3   0  -2 62.3875 2.50512   2 
  -4   0   2 4840.69 139.272   4 
   4   0   2 4711.19 138.102   4 
  -4   0  -2 4713.07 138.097   4 
   4   0  -2 4856.59 138.528   4 
  -5   0  -2 284.232 8.97271   3 
   5   0   2 282.800 8.99225   2 
   5   0  -2 282.823 8.60960   2 
  -5   0   2 288.990 8.60104   2 
  -6   0  -2 1610.28 45.1434   2 
  -6   0  -2 1634.88 45.1592   3 
  -7   0   2 320.323 10.2599   2 
   7   0   2 343.131 10.8067   2 
   7   0  -2 326.778 10.3198   2 
  -7   0  -2 334.841 10.6907   3 
  -7   0  -2 337.676 10.7318   2 
   8   0  -2 652.052 19.2522   2 
  -8   0   2 658.454 19.2236   2 
  -8   0  -2 636.336 19.5755   2 
   8   0   2 649.078 19.6611   2 
  -8   0  -2 672.145 19.6642   3 
   9   0  -2 119.825 4.98396   2 
   9   0   2 118.007 5.27037   2 
  -9   0  -2 118.834 5.20646   3 
  -9   0   2 119.741 4.87467   2 
  10   0  -2 34.8710 2.64506   2 
 -10   0   2 31.8487 2.48769   2 
  10   0   2 30.0012 2.64810   2 
 -10   0  -2 30.1251 2.54865   3 
  11   0  -2 521.598 16.6488   2 
 -11   0  -2 534.789 16.9438   3 
  11   0   2 523.973 17.0555   2 
  12   0  -2 81.2900 4.54869   2 
 -12   0  -2 88.8163 4.72941   3 
 -12   0   2 81.6893 3.88681   1 
 -13   0   2 118.928 5.01939   1 
  13   0  -2 109.131 5.62692   2 
 -13   0  -2 112.217 5.74907   3 
 -14   0  -2 0.75760 0.94758   1 
  14   0  -2 0.49906 1.07908   2 
 -14   0  -2 0.15681 1.02402   3 
 -14   0   2 1.63349 0.89714   1 
  15   0  -2 333.601 12.6155   2 
 -15   0  -2 341.174 12.8640   3 
 -15   0   2 349.327 11.6379   1 
 -15   0  -2 351.791 12.9777   1 
 -16   0   2 3.38166 1.18099   1 
 -16   0   2 2.46661 1.30977   3 
 -16   0  -2 2.06890 1.35961   1 
 -16   0  -2 6.10405 2.00874   3 
 -17   0   2 46.2323 3.11206   1 
 -17   0  -2 40.2074 3.72328   3 
 -17   0   2 53.6933 3.76329   3 
 -17   0  -2 53.9913 4.06568   1 
 -18   0  -2 3.67119 1.46826   1 
 -18   0  -2 0.41245 1.02826   3 
 -18   0   2 -0.0096 1.00417   3 
 -19   0  -2 90.6592 5.64597   3 
 -19   0  -2 82.9113 5.85132   1 
 -19   0   2 89.4939 5.11171   3 
 -20   0  -2 52.2857 4.27900   3 
 -20   0  -2 58.3171 4.38763   1 
   0  -1  -2 0.21204 0.43011   1 
   0  -1   2 0.28735 0.31066   2 
   0   1   2 0.54911 0.50167   3 
   0  -1  -2 0.51199 0.45557   3 
   0   1   2 0.01184 0.39104   1 
   1   1  -2 733.793 20.5265   1 
  -1   1   2 732.778 20.6779   1 
   1  -1   2 722.816 20.4864   2 
  -1  -1  -2 737.285 20.6692   3 
  -1  -1  -2 781.104 21.6817   1 
  -1   1   2 735.472 20.7796   3 
  -1   1  -2 724.387 20.5000   2 
   1  -1  -2 734.973 20.6945   1 
   1   1   2 794.860 20.9622   3 
  -1  -1   2 704.586 20.4963   1 
   1   1   2 731.869 20.7847   1 
  -2   1   2 1353.78 37.3360   1 
   2   1  -2 1346.67 36.7372   3 
  -2   1   2 1338.08 37.5365   3 
  -2  -1  -2 1310.90 37.5597   1 
   2   1   2 1369.39 37.5455   1 
  -2   1  -2 1349.72 37.3613   2 
   2   1   2 1449.98 37.6818   3 
   3   1  -2 835.823 23.2619   1 
  -3  -1  -2 851.109 23.6035   3 
  -3   1   2 852.187 23.5702   1 
   3  -1   2 806.447 23.6534   2 
  -3  -1  -2 845.167 23.9376   1 
   3   1   2 879.978 23.6744   3 
  -3   1  -2 831.128 23.7129   2 
   3   1   2 861.819 23.8935   1 
  -3  -1   2 849.840 23.2749   1 
   3  -1  -2 821.900 23.7433   2 
   4  -1   2 849.473 24.8715   2 
  -4  -1  -2 888.403 25.1213   1 
   4   1  -2 871.449 24.3084   1 
  -4   1   2 899.653 24.6294   1 
  -4  -1   2 901.054 24.3205   1 
   4  -1  -2 846.990 24.8293   2 
  -4  -1   2 874.524 24.2189   2 
   4   1   2 910.582 24.7164   3 
  -5  -1  -2 132.886 5.04555   2 
   5  -1   2 131.886 5.07826   2 
  -5  -1  -2 138.691 5.21507   1 
  -5  -1  -2 134.348 4.84560   3 
  -5   1   2 144.071 4.76120   1 
   5  -1  -2 141.775 5.08326   2 
   5   1   2 145.228 4.82664   3 
  -5  -1   2 140.535 4.49777   2 
  -5  -1   2 139.364 4.45504   1 
  -5   1  -2 129.092 5.04585   2 
   6  -1   2 21.1982 1.87214   2 
  -6  -1  -2 20.1516 1.78819   1 
  -6  -1  -2 20.4462 1.61122   3 
  -6  -1  -2 21.5336 1.74588   2 
  -6   1   2 20.6004 1.43319   1 
  -6   1   2 23.9180 1.69627   2 
  -6   1  -2 21.8557 1.75794   2 
   6  -1  -2 20.3410 1.74297   2 
  -6  -1   2 19.5202 1.33129   2 
  -6  -1   2 19.2789 1.36934   1 
  -7  -1  -2 17.2560 2.15539   2 
  -7  -1  -2 13.8421 1.45593   3 
   7  -1   2 13.6757 1.77470   2 
  -7  -1  -2 13.7286 1.58554   1 
   7  -1  -2 11.6947 1.61620   2 
  -7  -1   2 12.1351 1.07280   1 
  -7  -1   2 13.7536 1.22659   2 
  -7   1  -2 11.8152 1.50512   2 
   8  -1   2 22.9897 2.28469   2 
  -8  -1  -2 22.0770 2.04637   1 
  -8   1   2 21.2370 1.61215   1 
  -8  -1  -2 20.2127 1.90197   2 
  -8   1   2 21.2557 1.82854   2 
  -8  -1  -2 21.4630 1.82542   3 
   8  -1  -2 25.2065 2.18942   2 
  -8  -1   2 23.7845 1.51325   1 
  -8  -1   2 21.7102 1.62678   2 
   9  -1   2 79.7810 4.30753   2 
  -9   1   2 88.5540 3.75107   1 
  -9  -1  -2 89.6483 4.39732   1 
  -9  -1  -2 80.6448 3.91851   3 
  -9  -1   2 88.1204 3.52792   1 
  -9  -1   2 81.6027 3.70294   2 
   9  -1  -2 85.4237 4.24981   2 
 -10  -1  -2 13.2668 1.94050   3 
 -10  -1  -2 12.3549 2.10596   1 
 -10   1   2 10.4673 1.33979   1 
  10  -1   2 16.6278 2.67968   2 
  10  -1  -2 11.5642 1.91250   2 
 -10  -1   2 11.7560 1.25536   1 
 -10  -1   2 11.5478 1.75746   2 
 -10  -1   2 9.61567 1.16414   3 
 -11  -1  -2 74.6919 3.94717   3 
  11  -1   2 73.1589 4.44299   2 
 -11   1   2 73.5839 3.64090   1 
 -11  -1  -2 77.6665 4.33809   1 
 -11  -1   2 71.4092 3.29209   3 
 -11  -1   2 74.2712 3.41889   1 
  11  -1  -2 74.5166 4.27642   2 
 -12   1   2 256.429 9.41004   1 
  12  -1   2 267.337 10.3014   2 
 -12  -1  -2 265.906 10.0639   1 
 -12  -1  -2 255.087 9.50989   3 
 -12  -1   2 269.237 8.78300   3 
  12  -1  -2 263.267 10.0096   2 
 -12  -1   2 271.166 8.93334   1 
  13  -1   2 26.5296 3.65045   2 
 -13  -1  -2 21.7822 2.30370   3 
  13  -1  -2 24.4145 3.26811   2 
 -13  -1   2 22.0360 1.83301   3 
 -13  -1   2 21.0888 1.83256   1 
  14  -1   2 4.93039 1.85473   2 
 -14  -1  -2 9.36420 1.92735   3 
 -14  -1  -2 3.87875 1.43547   1 
  14  -1  -2 4.08563 1.66886   2 
 -14  -1   2 5.05591 1.18389   3 
 -14  -1   2 6.82384 1.39280   1 
 -14   1  -2 5.46959 1.76952   3 
 -15  -1  -2 2.76575 1.32987   3 
 -15  -1  -2 1.99063 1.24558   1 
  15  -1   2 2.63046 1.69592   2 
 -15  -1   2 3.63663 1.10705   1 
  15  -1  -2 2.88225 1.68732   2 
 -15   1  -2 5.73349 2.11706   3 
 -15  -1   2 2.42150 0.98586   3 
 -16  -1  -2 144.539 6.73432   3 
  16  -1   2 141.901 7.67480   2 
 -16  -1  -2 152.840 7.30700   1 
 -16  -1   2 141.096 5.86103   1 
  16  -1  -2 142.691 7.47320   2 
 -16  -1   2 147.669 5.83960   3 
 -16   1  -2 145.535 7.71305   3 
 -17   1   2 109.306 5.43994   1 
 -17  -1  -2 118.819 6.27429   1 
 -17  -1  -2 112.533 5.72019   3 
  17  -1  -2 109.643 6.56081   2 
 -17  -1   2 106.067 4.71679   3 
 -17  -1   2 107.208 4.82115   1 
 -17   1  -2 112.851 6.75825   3 
 -18   1   2 37.3947 2.90971   1 
 -18  -1  -2 44.1963 3.31084   3 
 -18  -1  -2 36.1831 3.36762   1 
  18  -1  -2 36.1321 4.00561   2 
 -18   1  -2 33.7516 3.37738   1 
 -19  -1  -2 13.4495 2.69055   1 
 -19   1   2 10.6578 2.25213   3 
 -19   1  -2 14.1031 2.44565   1 
 -19   1  -2 19.6881 3.74974   3 
 -20   1   2 24.4690 3.19079   3 
 -20  -1  -2 35.8995 3.22562   1 
 -20   1  -2 31.9451 3.22789   1 
 -20   1  -2 36.2165 4.08479   3 
   0  -2   2 376.555 11.7993   1 
   0  -2  -2 377.852 11.9083   1 
   0  -2   2 395.858 11.4480   2 
   0   2  -2 387.015 11.8265   1 
   0   2   2 383.770 11.9042   1 
   0   2   2 390.182 12.4533   3 
   1  -2   2 269.652 8.50301   2 
   1   2  -2 276.752 8.73997   1 
  -1   2   2 272.148 8.81123   3 
  -1  -2  -2 279.451 8.96388   1 
  -1   2   2 268.712 8.82878   1 
  -1   2  -2 276.766 8.89067   1 
  -1  -2   2 270.850 8.75615   1 
   1   2   2 276.238 8.65229   3 
   1  -2  -2 274.564 8.91939   1 
   1   2   2 265.453 8.83145   1 
  -2   2   2 145.967 5.38212   1 
  -2   2   2 144.148 5.40981   3 
   2   2  -2 145.784 5.51645   1 
  -2  -2  -2 146.018 5.48552   1 
  -2  -2  -2 142.192 5.08810   3 
   2  -2   2 147.421 5.20589   2 
   2   2   2 148.456 5.44726   1 
  -2   2  -2 142.929 5.42200   1 
  -2  -2   2 143.112 5.20604   1 
   2  -2  -2 145.727 5.41676   1 
   2   2   2 149.269 5.11949   3 
   3   2  -2 14.7702 0.89622   3 
  -3  -2  -2 12.7683 1.47222   1 
  -3   2   2 12.8311 1.36282   1 
   3   2  -2 14.3539 1.44785   1 
  -3  -2  -2 12.5970 1.26662   3 
   3  -2   2 14.3779 1.51595   2 
  -3   2  -2 15.0072 1.51110   1 
   3  -2  -2 16.1701 1.57843   1 
   3   2   2 14.4752 1.34002   3 
   3   2   2 13.6257 1.43244   1 
  -3  -2   2 15.2527 1.36101   1 
  -4  -2  -2 2523.26 68.7178   3 
  -4  -2  -2 2564.18 69.5201   1 
   4  -2   2 2522.25 69.2447   2 
   4   2  -2 2471.61 69.2985   1 
  -4   2   2 2514.46 69.2390   1 
   4  -2  -2 2528.43 69.2825   1 
  -4   2  -2 2476.23 69.3089   2 
  -4  -2   2 2519.34 68.9369   1 
   4  -2  -2 2445.25 69.7204   2 
   4   2   2 2586.00 68.8182   3 
  -5   2   2 168.271 6.23009   1 
  -5  -2  -2 171.464 5.76688   3 
   5  -2   2 171.337 6.38694   2 
   5   2  -2 164.275 5.93782   1 
  -5  -2  -2 169.662 6.47978   1 
  -5  -2   2 172.329 5.95028   1 
   5   2   2 179.780 5.90919   3 
  -5   2  -2 168.176 6.48612   1 
  -5   2  -2 166.767 6.37406   2 
   6   2  -2 993.872 29.3035   1 
  -6  -2  -2 1050.05 30.0954   1 
  -6  -2  -2 1030.87 29.0881   3 
   6  -2   2 1027.25 29.9477   2 
  -6  -2   2 1060.50 29.3698   1 
  -6   2  -2 1022.98 30.0979   1 
   6   2   2 1070.44 29.1871   3 
   6   2   2 1030.40 29.9721   1 
  -6  -2   2 1026.48 29.0463   2 
  -6   2  -2 1061.86 30.6789   2 
   6  -2  -2 1018.88 30.0046   2 
  -7  -2  -2 218.829 7.11897   3 
  -7  -2  -2 220.151 8.02942   1 
   7  -2   2 215.960 7.96943   2 
  -7   2   2 208.032 7.55972   1 
   7   2  -2 213.029 7.31508   1 
  -7  -2   2 200.244 7.30337   2 
  -7  -2   2 221.576 7.31479   1 
  -8   2   2 432.035 13.9507   1 
  -8  -2  -2 453.414 14.4564   1 
  -8  -2  -2 440.340 13.2958   3 
   8  -2   2 445.452 14.4230   2 
  -8  -2   2 445.580 13.5260   1 
   8  -2  -2 439.307 14.3859   2 
  -8  -2   2 427.881 13.3823   2 
  -9  -2  -2 85.0841 3.69816   3 
   9  -2   2 85.0590 4.98321   2 
  -9  -2  -2 82.7343 4.46120   1 
  -9  -2   2 87.7450 3.85572   1 
  -9  -2   2 84.7913 3.81324   2 
   9  -2  -2 81.0713 4.56504   2 
  10  -2   2 19.6466 2.61822   2 
 -10  -2  -2 16.4155 1.65212   3 
 -10  -2  -2 17.6917 2.19371   1 
 -10  -2   2 16.6138 1.68498   1 
  10  -2  -2 14.5175 2.13959   2 
 -10  -2   2 22.0824 1.81243   2 
 -11  -2  -2 390.860 12.4063   3 
 -11  -2  -2 405.371 13.7735   1 
  11  -2   2 378.852 13.7543   2 
  11  -2  -2 392.066 13.7877   2 
 -11  -2   2 407.423 12.6544   1 
 -12  -2  -2 54.9799 3.09173   3 
  12  -2   2 56.2805 4.31048   2 
 -12  -2  -2 60.9197 4.02144   1 
 -12  -2   2 60.7523 3.30035   1 
  12  -2  -2 60.3661 4.40698   2 
  13  -2   2 90.5603 5.62179   2 
 -13  -2  -2 89.8683 4.18253   3 
 -13  -2  -2 91.8249 5.18912   1 
  13  -2  -2 95.3368 5.68891   2 
 -13  -2   2 94.1910 4.39725   1 
  14  -2   2 0.09698 1.45243   2 
 -14  -2  -2 1.78810 0.91940   3 
 -14  -2  -2 0.41168 1.10142   1 
 -14  -2   2 0.77770 0.85010   1 
  14  -2  -2 2.02493 1.61690   2 
  15  -2   2 262.949 11.4347   2 
 -15  -2  -2 266.677 10.7521   1 
 -15  -2  -2 265.451 9.11587   3 
  15  -2  -2 285.231 11.4781   2 
 -15  -2   2 265.039 9.48087   1 
 -16  -2  -2 1.93258 0.93449   3 
 -16  -2  -2 2.66245 1.50117   1 
  16  -2   2 4.25033 2.25166   2 
  16  -2  -2 4.96020 2.66414   2 
 -16  -2   2 4.41910 1.16687   1 
  17  -2   2 32.8087 4.05187   2 
 -17  -2  -2 38.6806 3.37637   1 
 -17  -2   2 40.3672 3.29915   1 
  17  -2  -2 35.6875 4.30105   2 
 -17   2  -2 37.7167 4.24149   3 
  18  -2   2 -0.4330 1.36270   2 
 -18  -2  -2 0.72855 1.03357   1 
  18  -2  -2 -0.9512 1.51468   2 
 -18   2  -2 0.83969 1.35151   3 
  19  -2   2 73.7125 5.91025   2 
 -19  -2  -2 63.9361 4.65671   1 
 -19   2  -2 77.2208 6.19128   3 
  19  -2  -2 62.3269 5.57370   2 
   0  -3   2 0.44335 0.75430   2 
   0  -3  -2 0.40959 0.76716   1 
   0  -3   2 0.77928 0.91654   1 
   0   3   2 1.16880 0.84713   3 
   1   3  -2 237.554 8.74396   1 
  -1  -3  -2 244.669 8.75393   1 
   1  -3   2 243.766 8.19090   2 
  -1   3   2 229.392 8.35045   3 
   1   3   2 231.724 8.77962   3 
   1  -3  -2 241.115 8.69926   1 
  -1  -3   2 227.813 8.43007   1 
   2   3  -2 453.140 14.8471   1 
   2   3  -2 521.421 14.5363   3 
   2  -3   2 483.392 14.7915   2 
  -2  -3  -2 484.968 15.2733   1 
   2   3   2 466.776 14.5212   3 
  -2  -3   2 461.402 14.9150   1 
   2  -3  -2 450.455 15.1491   1 
   3   3  -2 299.016 9.25939   3 
   3   3  -2 289.094 10.2296   1 
  -3  -3  -2 305.327 10.6530   1 
   3  -3   2 309.400 10.2888   2 
   3   3   2 299.786 9.85742   3 
   3  -3  -2 312.259 10.6723   2 
  -3  -3   2 313.398 10.3972   1 
   3  -3  -2 313.242 10.6935   1 
   4   3  -2 328.645 11.1109   3 
   4   3  -2 342.736 11.5018   1 
  -4  -3  -2 356.172 11.9990   1 
   4  -3   2 360.501 11.6972   2 
  -4  -3   2 355.520 11.6059   1 
   4  -3  -2 356.013 11.9764   2 
   4   3   2 355.090 11.0919   3 
   4  -3  -2 345.507 11.8704   1 
  -5  -3  -2 52.1505 3.47175   1 
   5  -3   2 52.9950 3.45015   2 
   5   3  -2 52.4118 3.22347   1 
   5   3   2 60.2187 2.98517   3 
   5  -3  -2 50.1508 3.53652   2 
  -5  -3   2 53.2809 3.18610   1 
   6  -3   2 12.0509 2.19076   2 
  -6  -3  -2 12.7287 2.19669   1 
   6   3  -2 9.13431 1.97106   1 
  -6  -3   2 10.3471 1.73534   1 
   6   3   2 13.0238 1.53413   3 
   6  -3  -2 13.8892 2.43987   2 
   7  -3   2 5.50898 1.98004   2 
  -7  -3  -2 8.70334 1.87641   1 
  -7  -3   2 6.86543 1.42343   1 
   7  -3  -2 7.16007 1.72310   2 
   7   3   2 10.3116 2.19086   3 
  -8  -3  -2 9.57418 2.00638   1 
   8  -3   2 13.3187 2.40216   2 
  -8  -3   2 10.6121 1.93580   2 
  -8  -3   2 11.6403 1.83103   1 
   8  -3  -2 14.9076 2.64795   2 
   9  -3   2 56.9773 4.22689   2 
  -9  -3  -2 57.5758 4.01590   1 
  -9  -3   2 62.8888 3.56432   1 
  -9  -3   2 52.4986 3.07834   2 
   9  -3  -2 74.9233 5.27499   2 
  10  -3   2 11.4637 2.59375   2 
 -10  -3  -2 5.76170 1.88432   1 
  10  -3  -2 9.20517 2.46416   2 
 -10  -3   2 6.23832 1.49205   1 
 -11  -3  -2 56.8806 4.10530   1 
  11  -3   2 52.9256 4.34565   2 
  11  -3  -2 53.6721 4.45231   2 
 -11  -3   2 55.6716 3.48565   1 
  12  -3   2 172.182 8.36991   2 
 -12  -3  -2 174.126 8.00449   1 
  12  -3  -2 177.820 8.34904   2 
 -12  -3   2 173.162 7.12188   1 
 -13  -3  -2 11.7956 2.45021   1 
  13  -3   2 17.4840 3.39099   2 
 -13  -3   2 13.5916 3.03718   1 
  13  -3  -2 15.0626 3.05969   2 
 -14  -3  -2 2.57727 1.31553   1 
  14  -3   2 0.59577 1.83468   2 
  14  -3  -2 2.03079 1.74436   2 
 -14  -3   2 4.15659 1.23976   1 
  15  -3   2 0.98386 1.92211   2 
 -15  -3  -2 -0.2052 1.17673   1 
  15  -3  -2 1.77301 1.84850   2 
 -15  -3   2 0.77417 0.99965   1 
  16  -3   2 108.662 7.06400   2 
 -16  -3  -2 102.034 6.05055   1 
 -16  -3   2 102.925 5.06635   1 
  16  -3  -2 108.373 7.04536   2 
  17  -3   2 73.1452 6.14332   2 
  17  -3  -2 75.2704 6.04662   2 
 -18  -3  -2 27.4521 2.80765   1 
  18  -3   2 17.9896 3.58874   2 
 -18   3  -2 25.2758 5.10262   3 
  18  -3  -2 17.4592 3.37752   2 
   0  -4   2 119.073 5.99320   1 
   0  -4  -2 120.318 6.07539   1 
   0  -4   2 128.154 5.55252   2 
  -1  -4  -2 76.6109 4.70925   1 
   1   4  -2 79.5228 4.02668   3 
   1  -4   2 85.7794 4.40980   2 
   1  -4  -2 76.4935 4.72121   1 
  -1  -4   2 81.7583 4.68963   1 
  -1  -4   2 86.3949 4.27731   2 
  -2  -4  -2 40.4498 3.41529   1 
   2  -4   2 56.0891 3.63316   2 
   2  -4  -2 49.1073 3.71377   2 
  -2  -4   2 55.8214 3.74389   1 
   2  -4  -2 45.8995 3.67843   1 
   3  -4   2 14.0249 2.93876   2 
  -3  -4  -2 11.3803 1.95711   1 
   3   4  -2 16.1613 1.67431   3 
  -3  -4   2 12.7770 2.18180   1 
   3  -4  -2 15.3746 2.27361   1 
   3  -4  -2 14.5040 2.39532   2 
   4  -4   2 988.208 29.2210   2 
  -4  -4  -2 978.446 29.7966   1 
   4  -4  -2 965.525 29.5996   2 
   4   4   2 958.404 28.4242   3 
  -4  -4   2 975.926 29.4281   1 
  -5  -4  -2 63.7281 4.31619   1 
   5  -4   2 57.4939 4.06845   2 
   5   4  -2 56.4919 2.59782   3 
  -5  -4   2 55.5987 3.88252   1 
   5  -4  -2 61.1408 4.35225   2 
   5   4   2 57.5574 3.37913   3 
  -6  -4  -2 425.003 14.9140   1 
   6  -4   2 399.061 14.5055   2 
   6  -4  -2 423.629 14.9945   2 
  -6  -4   2 432.093 14.4886   1 
  -7  -4  -2 79.5399 5.02566   1 
   7  -4   2 80.6230 5.08868   2 
   7   4   2 74.2078 3.69265   3 
   7  -4  -2 76.8981 5.15001   2 
  -7  -4   2 76.1254 4.57726   1 
  -8  -4  -2 190.734 8.64115   1 
   8  -4   2 190.613 8.67308   2 
  -8  -4   2 198.513 8.22342   1 
   8  -4  -2 198.507 8.89622   2 
  -9  -4  -2 33.1633 3.41248   1 
   9  -4   2 34.4796 3.68377   2 
   9  -4  -2 27.8270 3.71513   2 
  -9  -4   2 34.8353 3.10288   1 
 -10  -4  -2 6.03681 1.82785   1 
  10  -4   2 4.02005 1.92741   2 
  10  -4  -2 5.84381 2.34181   2 
 -10  -4   2 6.18476 1.86958   1 
  11  -4   2 195.827 9.39891   2 
 -11  -4  -2 208.063 9.23227   1 
  11  -4  -2 181.303 9.29609   2 
 -11  -4   2 201.033 8.42796   1 
 -12  -4  -2 20.8672 3.32432   1 
 -12  -4   2 22.2006 2.67181   1 
 -13  -4  -2 58.5717 4.52479   1 
  13  -4   2 63.7539 5.27560   2 
  13  -4  -2 51.6027 4.94388   2 
 -13  -4   2 57.4783 4.02125   1 
 -14  -4  -2 2.10081 1.65013   1 
  14  -4   2 -0.6676 2.11846   2 
 -14  -4   2 0.21502 1.10443   1 
  14  -4  -2 1.56290 2.52948   2 
 -15  -4  -2 146.312 7.74420   1 
  15  -4   2 139.553 8.50688   2 
 -15  -4   2 152.006 6.81719   1 
  15  -4  -2 141.290 8.52608   2 
 -16  -4  -2 -1.3034 1.28355   1 
  16  -4   2 -0.2850 2.18878   2 
  16  -4  -2 0.06396 1.65201   2 
   0  -5   2 2.81251 1.34616   2 
   0  -5  -2 1.80567 1.60450   1 
   1  -5   2 89.7561 5.34093   2 
  -1  -5  -2 84.5213 5.65620   1 
  -1  -5   2 100.336 5.22958   2 
   1  -5  -2 98.3771 6.04793   1 
   1  -5  -2 84.4129 5.50249   2 
   2  -5   2 175.545 8.05975   2 
  -2  -5  -2 174.804 8.79464   1 
   2  -5  -2 201.165 8.85988   2 
  -2  -5   2 189.776 8.70624   1 
  -2  -5   2 186.712 7.79769   2 
   2  -5  -2 197.809 9.03637   1 
   3  -5   2 126.885 6.47562   2 
  -3  -5  -2 116.452 6.80975   1 
  -3  -5   2 122.534 6.65757   1 
  -3  -5   2 123.282 5.92722   2 
   3  -5  -2 121.385 6.72795   2 
   4  -5   2 150.217 7.33352   2 
  -4  -5  -2 147.214 7.66629   1 
  -4  -5   2 152.312 7.54470   1 
  -4  -5   2 142.959 6.56966   2 
   4  -5  -2 145.083 7.59274   2 
   5  -5   2 22.9667 3.25733   2 
  -5  -5  -2 14.1801 2.60314   1 
   5  -5  -2 19.1330 3.39235   2 
  -5  -5   2 22.6303 2.95267   1 
   6  -5   2 3.19030 2.06336   2 
  -6  -5  -2 4.25558 2.10781   1 
   6  -5  -2 5.09120 2.37888   2 
  -6  -5   2 4.48719 1.95929   1 
  -7  -5  -2 2.10929 1.65788   1 
   7  -5   2 -0.2709 1.71269   2 
   7  -5  -2 0.75256 1.75705   2 
  -7  -5   2 3.84793 1.69495   1 
   8  -5   2 5.73748 2.32961   2 
  -8  -5  -2 5.66526 2.07831   1 
   8  -5  -2 5.24188 2.40637   2 
  -8  -5   2 6.05795 2.06788   1 
   9  -5   2 25.8298 4.66071   2 
  -9  -5  -2 27.7685 3.42899   1 
  -9  -5   2 26.3666 3.19041   1 
   9  -5  -2 22.8764 4.05253   2 
  10  -5   2 2.91182 2.08852   2 
 -10  -5   2 0.96043 1.38558   1 
  10  -5  -2 1.43215 2.02697   2 
 -11  -5  -2 29.7981 3.55079   1 
  11  -5   2 30.0863 4.48580   2 
  11  -5  -2 32.6425 4.48189   2 
 -11  -5   2 27.4579 3.16729   1 
  12  -5   2 74.5899 6.10495   2 
 -12  -5  -2 73.4022 5.44574   1 
 -12  -5   2 64.0975 4.90168   1 
  12  -5  -2 76.1289 6.06211   2 
 -13  -5  -2 2.13791 1.63976   1 
  13  -5   2 6.17962 2.64068   2 
  13  -5  -2 4.24358 2.32365   2 
 -13  -5   2 6.59322 1.81349   1 
 -14  -5  -2 2.37191 1.95328   1 
  14  -5  -2 2.96886 2.99400   2 
 -14  -5   2 2.58715 1.56823   1 
   0  -6  -2 30.6861 4.01449   1 
   0  -6   2 33.0276 3.69524   2 
   1  -6   2 24.4686 3.15257   2 
  -1  -6  -2 21.1698 3.72781   2 
  -1  -6  -2 16.2787 3.31608   1 
  -1  -6   2 15.3713 2.62349   2 
   1  -6  -2 18.6775 5.39347   2 
   2  -6   2 6.89037 2.15550   2 
  -2  -6  -2 11.5383 2.88126   1 
  -2  -6  -2 10.1647 2.57643   2 
   2  -6  -2 9.44695 2.64767   2 
  -2  -6   2 9.79545 2.19272   2 
   3  -6   2 6.34984 2.32149   2 
  -3  -6  -2 10.6725 3.16400   1 
   3  -6  -2 11.0370 2.79888   2 
  -3  -6   2 10.0036 2.30712   2 
  -4  -6  -2 335.929 14.3633   1 
   4  -6   2 330.605 13.9071   2 
   4  -6  -2 324.267 14.0080   2 
  -4  -6   2 332.627 12.2902   2 
  -5  -6  -2 17.2124 3.76294   1 
   5  -6   2 15.3595 3.06858   2 
   5  -6  -2 13.7113 3.49753   2 
  -5  -6   2 11.8271 2.26420   2 
   6  -6   2 152.599 8.29187   2 
  -6  -6  -2 149.208 8.53897   1 
   6  -6  -2 128.562 8.09130   2 
  -6  -6   2 143.067 6.71768   2 
  -7  -6  -2 25.0299 4.30268   1 
   7  -6   2 32.6551 4.28811   2 
  -7  -6   2 25.3872 3.40149   1 
  -7  -6   2 27.7827 2.89061   2 
   7  -6  -2 33.7064 4.52801   2 
   8  -6   2 60.1910 5.33103   2 
  -8  -6  -2 69.0531 5.77447   1 
  -8  -6   2 68.2897 4.35437   2 
   8  -6  -2 63.1455 5.93898   2 
  -8  -6   2 59.8783 4.89002   1 
  -9  -6  -2 6.07634 2.30572   1 
   9  -6   2 6.91913 2.44624   2 
   9  -6  -2 7.83983 3.06288   2 
  -9  -6   2 8.52602 2.26557   1 
  10  -6   2 -0.3778 1.96131   2 
 -10  -6  -2 -0.9700 1.82676   1 
 -10  -6   2 -1.9332 1.50841   1 
  10  -6  -2 -0.5003 3.38351   2 
   0  -7  -2 -0.2709 2.09873   2 
   0  -7   2 1.00942 2.10548   2 
   1  -7   2 28.7659 3.97602   2 
  -1  -7  -2 36.1182 4.57443   2 
  -1  -7   2 27.1039 3.78782   2 
   1  -7  -2 39.7876 4.68989   2 
   2  -7   2 51.9153 5.21563   2 
  -2  -7  -2 57.8656 5.26909   2 
   2  -7  -2 56.4142 6.40504   2 
  -2  -7   2 50.8068 4.61980   2 
   0   0  -3 0.28180 0.36787   3 
   0   0   3 0.59111 0.46108   3 
  -1   0  -3 19.4045 1.30138   3 
   1   0  -3 19.1631 0.93413   1 
   1   0  -3 19.4801 1.16484   3 
  -1   0   3 19.0318 1.14927   3 
  -2   0   3 152.560 4.86298   3 
  -2   0  -3 160.764 5.07260   2 
   2   0  -3 156.522 4.40257   1 
   2   0  -3 155.638 4.88782   3 
   2   0   3 154.441 5.18351   3 
  -3   0   3 105.590 3.64687   3 
   3   0   3 98.4004 3.73945   3 
   3   0  -3 97.1588 3.23410   2 
  -3   0  -3 100.275 3.71207   2 
  -3   0  -3 97.4861 3.76909   3 
   4   0   3 103.970 3.98539   2 
   4   0  -3 104.160 3.52169   2 
  -4   0   3 104.616 3.61671   3 
  -4   0  -3 105.071 4.05880   3 
  -5   0  -3 494.309 15.0120   2 
   5   0  -3 514.874 14.5108   2 
  -5   0   3 515.758 14.5511   3 
  -5   0  -3 496.637 15.0672   3 
  -5   0   3 503.755 14.4484   2 
   5   0   3 497.761 15.0208   2 
  -6   0   3 345.233 10.4531   2 
   6   0   3 348.136 11.0557   2 
  -6   0  -3 341.724 11.0025   2 
  -6   0  -3 355.501 11.1058   3 
   6   0  -3 349.864 10.4999   2 
   7   0   3 865.477 25.1300   2 
  -7   0   3 854.733 24.4713   2 
   7   0  -3 868.796 24.5256   2 
  -7   0  -3 854.304 25.0975   3 
   8   0   3 141.108 5.82183   2 
  -8   0  -3 145.278 5.81460   3 
   8   0  -3 142.209 5.32511   2 
  -8   0  -3 140.176 5.74619   2 
  -8   0   3 138.773 5.22432   2 
   9   0  -3 26.6256 2.17225   2 
   9   0   3 25.8912 2.44536   2 
  -9   0  -3 23.7761 2.24565   3 
  10   0   3 10.1609 1.90958   2 
 -10   0  -3 10.7611 1.89750   3 
 -10   0   3 9.93377 1.62529   2 
  10   0  -3 10.2410 1.71528   2 
  11   0  -3 1172.41 34.0124   2 
 -11   0  -3 1183.93 34.6474   3 
 -11   0   3 1165.93 33.0536   1 
 -12   0   3 21.6860 1.68668   1 
 -12   0  -3 23.9338 2.62266   3 
  12   0  -3 18.9375 2.39218   2 
 -13   0  -3 20.0235 3.31815   3 
 -13   0   3 20.8050 1.72734   1 
 -14   0  -3 -0.4192 0.81407   1 
 -14   0   3 1.04155 0.63102   1 
  14   0  -3 -0.4121 0.97174   2 
 -14   0  -3 0.95261 1.05292   3 
 -15   0  -3 26.5314 3.04563   3 
  15   0  -3 22.6815 2.92223   2 
 -15   0  -3 21.1360 2.70556   1 
 -15   0   3 21.2004 1.82131   1 
 -16   0  -3 14.2133 2.70208   3 
 -16   0   3 13.4883 1.49970   1 
 -16   0  -3 12.1237 2.64753   1 
 -17   0  -3 1.23773 1.35614   3 
 -17   0   3 4.57788 1.44071   3 
 -17   0  -3 4.87703 1.87310   1 
 -17   0   3 4.15347 1.03104   1 
 -18   0  -3 24.6404 2.97538   1 
 -18   0  -3 22.6587 2.91593   3 
 -18   0   3 23.8787 2.53243   3 
 -19   0   3 4.03250 1.55828   3 
 -19   0  -3 1.26961 1.51580   1 
 -20   0  -3 46.1782 4.01084   1 
 -20   0  -3 47.8949 4.08942   3 
   0   1   3 640.958 18.1646   3 
   0  -1  -3 622.578 18.0988   1 
   0  -1   3 618.156 17.5635   2 
   0  -1  -3 652.628 18.2265   3 
   0   1   3 657.223 18.1407   1 
   0   1  -3 649.241 17.6068   2 
   0   1  -3 621.277 17.9539   3 
  -1   1   3 3118.42 101.050   4 
   1  -1   3 2969.38 100.844   4 
   1   1   3 2931.20 100.435   4 
  -1  -1   3 3000.94 101.100   4 
  -1   1  -3 3122.95 101.118   4 
  -2   1   3 110.776 4.17264   3 
   2   1  -3 118.575 3.61618   3 
  -2  -1  -3 116.677 4.31466   1 
  -2   1   3 111.683 3.93138   1 
  -2  -1  -3 119.886 4.21131   3 
   2  -1   3 116.899 4.01940   2 
   2   1  -3 115.856 3.73590   1 
   2   1   3 114.122 4.23038   1 
   2   1   3 116.139 4.17540   3 
  -2   1  -3 114.030 3.98622   2 
  -3  -1  -3 655.688 18.8598   3 
   3   1  -3 648.984 18.1811   1 
  -3   1   3 640.412 18.8918   3 
  -3  -1  -3 676.267 19.1748   1 
   3  -1   3 639.305 18.7179   2 
  -3   1   3 654.740 18.5123   1 
  -3  -1   3 677.952 18.2019   1 
   3   1   3 670.887 18.8783   3 
   3   1   3 653.825 19.0027   1 
  -3   1  -3 642.808 18.7571   2 
   4   1  -3 400.334 11.1016   1 
  -4  -1  -3 375.982 11.7896   3 
  -4  -1  -3 387.522 12.1496   1 
  -4   1   3 389.118 11.4403   1 
   4  -1   3 391.767 11.8531   2 
  -4   1   3 397.571 12.0500   3 
   4  -1  -3 395.533 11.9174   1 
   4  -1  -3 407.840 12.4772   2 
  -4   1  -3 381.817 11.8759   2 
   4   1   3 390.659 11.8193   3 
  -4  -1   3 393.257 11.0601   1 
  -4  -1   3 387.975 10.9160   2 
  -5  -1  -3 1705.35 47.8441   3 
  -5  -1  -3 1756.76 48.3497   1 
  -5   1   3 1752.42 47.3761   1 
  -5  -1   3 1754.10 46.9691   2 
  -5   1  -3 1674.68 47.9587   2 
   5   1   3 1716.27 47.7542   3 
  -6   1   3 257.996 7.99454   1 
  -6  -1  -3 247.700 8.64880   2 
  -6  -1  -3 260.279 8.56401   3 
   6  -1   3 257.743 8.69246   2 
  -6  -1  -3 260.432 8.93825   1 
  -6  -1   3 262.794 7.59878   1 
   6  -1  -3 248.851 8.43957   2 
  -6  -1   3 264.147 7.78678   2 
  -7  -1  -3 16.4910 1.88361   1 
  -7  -1  -3 16.9755 1.73719   3 
  -7  -1  -3 17.6511 1.78587   2 
  -7   1   3 18.4616 1.34454   1 
   7  -1   3 17.1101 1.93337   2 
  -7  -1   3 18.2898 1.14168   1 
  -7  -1   3 19.0635 1.33871   2 
   7  -1  -3 20.2057 1.89141   2 
  -7  -1   3 17.6525 0.97823   3 
  -7   1  -3 18.5143 1.76203   2 
   8  -1   3 78.5768 4.10589   2 
  -8  -1  -3 78.4695 5.59488   2 
  -8  -1  -3 77.4628 4.18682   1 
  -8  -1  -3 77.6756 3.85999   3 
  -8  -1   3 82.9777 4.53345   2 
  -8  -1   3 82.2116 2.90010   3 
   8  -1  -3 83.7131 3.99422   2 
  -9  -1  -3 152.926 6.64367   1 
   9  -1   3 155.464 6.52691   2 
  -9  -1  -3 151.100 6.17964   3 
  -9   1   3 156.955 5.63665   1 
  -9  -1   3 155.255 5.21692   1 
  -9  -1   3 169.621 5.18512   3 
  -9  -1   3 158.904 5.70493   2 
   9  -1  -3 150.048 6.21636   2 
 -10  -1  -3 18.1659 2.00607   3 
 -10  -1  -3 17.3501 2.87778   1 
 -10   1   3 10.4662 1.29898   1 
  10  -1   3 13.4368 2.26103   2 
 -10  -1   3 11.6214 1.13290   1 
 -10  -1   3 11.1128 1.05383   3 
  10  -1  -3 15.4940 2.12678   2 
 -11  -1  -3 262.054 9.98055   1 
 -11  -1  -3 261.883 9.49551   3 
 -11   1   3 239.143 9.06308   1 
  11  -1   3 259.968 9.96797   2 
 -11  -1   3 262.499 8.17399   3 
 -11  -1   3 260.415 8.30340   3 
 -11  -1   3 267.268 9.06182   2 
  11  -1  -3 260.746 9.61518   2 
 -11  -1   3 261.861 8.27065   1 
 -12   1   3 182.773 6.81443   1 
 -12  -1  -3 184.879 7.53287   3 
 -12  -1   3 175.312 6.25342   1 
 -12  -1   3 186.938 6.41658   3 
  12  -1  -3 188.238 7.66384   2 
 -13  -1  -3 373.414 13.4463   1 
  13  -1   3 359.739 13.4214   2 
 -13   1   3 361.216 12.1004   1 
 -13  -1  -3 356.092 12.7905   3 
  13  -1  -3 368.615 13.0936   2 
 -13  -1   3 370.948 11.5455   3 
 -13  -1   3 361.183 11.4090   1 
 -13  -1   3 375.208 11.4910   3 
 -13   1  -3 380.789 13.8632   3 
 -14  -1  -3 207.872 8.91207   1 
  14  -1   3 207.714 9.10320   2 
 -14  -1  -3 200.816 8.39982   3 
 -14  -1   3 201.135 7.04626   1 
 -14  -1   3 216.810 7.28673   3 
  14  -1  -3 210.150 8.79524   2 
 -14  -1   3 189.421 6.91514   3 
 -14   1  -3 206.054 9.32539   3 
 -15  -1  -3 34.1099 3.36147   1 
  15  -1   3 26.6362 3.55992   2 
 -15  -1  -3 36.3793 3.12033   3 
 -15   1  -3 38.1375 3.77691   3 
 -15  -1   3 31.2312 2.05997   1 
 -15  -1   3 33.6737 2.19022   3 
  15  -1  -3 34.8006 3.65616   2 
 -16  -1  -3 6.79953 1.79092   3 
  16  -1   3 7.97919 2.49835   2 
 -16  -1  -3 10.1328 2.46771   1 
 -16  -1   3 8.62276 1.28512   3 
 -16  -1   3 8.74820 1.33690   1 
 -16   1  -3 7.51744 2.04787   3 
  16  -1  -3 5.80945 1.99722   2 
 -17  -1  -3 14.6255 3.00168   1 
 -17  -1  -3 14.1359 2.41182   3 
 -17  -1   3 17.6274 1.87912   1 
  17  -1  -3 14.0981 2.71017   2 
 -17   1  -3 20.6220 3.94492   3 
 -17  -1   3 19.6768 2.22743   3 
 -18   1   3 54.3001 3.56355   1 
 -18  -1  -3 62.2393 4.60944   1 
 -18  -1  -3 59.2692 4.14390   3 
  18  -1  -3 60.6045 4.80583   2 
 -18   1  -3 63.1517 5.18847   3 
 -19  -1  -3 128.113 7.02456   1 
 -19   1   3 118.428 6.87410   3 
 -19  -1  -3 141.471 7.31875   3 
 -19   1  -3 137.096 7.84492   3 
 -19   1  -3 117.972 7.04387   1 
  19  -1  -3 140.530 7.56838   2 
 -20  -1  -3 58.4805 4.48843   1 
 -20   1   3 49.2189 4.36714   3 
 -20   1  -3 54.6706 4.50289   1 
 -20   1  -3 58.0511 5.06716   3 
   0   2   3 0.01978 0.47702   1 
   0   2  -3 -0.0586 0.45928   1 
   0  -2   3 0.41556 0.48276   2 
   0   2   3 0.08251 0.48941   3 
   0  -2  -3 0.27346 0.62094   1 
  -1   2   3 14.8384 1.47897   3 
  -1  -2  -3 17.1925 1.61355   1 
   1  -2   3 14.5189 1.27233   2 
  -1   2   3 16.2532 1.48502   1 
   1   2  -3 15.7851 1.41351   1 
  -1  -2  -3 15.2604 1.48542   3 
   1   2   3 15.9927 1.50041   1 
  -1  -2   3 17.4619 1.48673   1 
  -1   2  -3 17.6504 1.52997   1 
   1   2   3 13.5782 1.42757   3 
   1  -2  -3 16.5544 1.55360   1 
  -2   2   3 70.9823 3.42594   3 
   2   2  -3 73.2998 3.44989   1 
  -2  -2  -3 71.5130 3.26079   3 
   2  -2   3 72.1013 3.14991   2 
  -2   2   3 75.2653 3.37331   1 
  -2  -2  -3 70.5945 3.47137   1 
   2   2   3 71.3767 3.41528   1 
  -2   2  -3 70.1892 3.39507   1 
   2  -2  -3 74.8554 3.41735   1 
   2   2   3 78.8253 3.33627   3 
  -2  -2   3 71.8204 3.14225   1 
  -3   2   3 48.3256 2.60899   1 
  -3   2   3 52.7802 3.17369   3 
   3  -2   3 49.1225 2.61825   2 
  -3  -2  -3 48.0585 2.55784   3 
  -3  -2  -3 48.1909 2.83903   1 
   3  -2  -3 49.9424 2.69888   1 
  -3   2  -3 48.3702 2.57741   2 
   3   2   3 49.2638 2.78227   1 
  -3   2  -3 53.4490 3.16943   1 
   3   2   3 49.6055 2.82249   3 
  -3  -2   3 47.0099 2.42507   1 
   4  -2   3 55.7827 3.01979   2 
  -4  -2  -3 62.2888 3.31323   1 
  -4   2   3 60.3440 3.19059   3 
   4   2  -3 54.0485 3.07382   1 
  -4   2   3 58.6475 2.94270   1 
  -4  -2  -3 56.3128 2.83139   3 
  -4   2  -3 63.2905 3.24291   1 
   4  -2  -3 62.0780 3.08450   1 
  -4  -2   3 58.3262 2.70822   1 
  -4   2  -3 52.8781 2.91770   2 
   4   2   3 55.5571 3.07853   1 
   4  -2  -3 58.1849 3.23084   2 
   5   2  -3 258.322 9.65749   1 
  -5  -2  -3 291.149 9.28267   3 
   5  -2   3 294.058 9.65073   2 
  -5  -2  -3 283.823 9.88822   1 
  -5   2   3 285.681 9.44929   1 
  -5  -2   3 305.283 9.12485   1 
   5   2   3 295.036 9.75273   3 
  -5   2  -3 290.502 9.72695   2 
   5  -2  -3 287.121 9.80503   2 
   5   2   3 295.789 9.87118   1 
  -6   2   3 228.077 8.55195   1 
  -6  -2  -3 240.487 8.00301   3 
   6  -2   3 237.695 8.46886   2 
  -6  -2  -3 239.774 8.72204   1 
   6  -2  -3 234.549 8.58983   2 
   6   2   3 242.940 8.05211   3 
  -6  -2   3 242.450 7.75186   1 
   6   2   3 239.540 8.57577   1 
  -6  -2   3 238.873 7.40400   2 
   7   2  -3 533.042 17.7281   1 
   7  -2   3 603.574 18.5348   2 
  -7  -2  -3 623.588 18.8587   1 
  -7  -2  -3 613.191 17.8722   3 
  -7   2   3 591.262 18.0836   1 
  -7  -2   3 603.083 17.2887   2 
  -7  -2   3 613.556 17.5556   1 
   7   2   3 608.804 17.8000   3 
   7  -2  -3 606.024 18.5833   2 
  -8  -2  -3 112.065 5.34141   1 
   8  -2   3 111.372 5.27001   2 
  -8  -2  -3 108.291 4.57275   3 
  -8   2   3 100.109 4.57509   1 
  -8  -2   3 113.585 4.30686   1 
   8  -2  -3 109.705 5.22976   2 
  -9   2   3 15.1340 1.67844   1 
  -9  -2  -3 17.0464 1.80044   3 
  -9  -2  -3 20.7288 2.32243   1 
  -9  -2   3 19.3770 1.57320   1 
   9  -2  -3 16.5899 2.31812   2 
  -9  -2   3 18.1014 1.56066   2 
 -10  -2  -3 5.23917 1.76850   1 
 -10  -2  -3 6.15648 1.43418   3 
  10  -2   3 11.1234 2.37955   2 
  10  -2  -3 8.73870 2.16760   2 
 -10  -2   3 8.67396 1.41682   2 
 -10  -2   3 7.51034 1.26479   1 
  11  -2   3 886.677 27.7565   2 
 -11  -2  -3 945.737 28.2986   1 
 -11  -2  -3 897.248 26.5255   3 
 -11  -2   3 886.160 26.3541   2 
 -11  -2   3 915.686 26.0642   1 
  11  -2  -3 896.658 27.6056   2 
 -12  -2  -3 15.1795 2.01565   3 
  12  -2   3 21.7248 3.27005   2 
 -12  -2  -3 18.2022 2.42990   1 
  12  -2  -3 25.1388 3.56644   2 
 -12  -2   3 16.9921 1.63395   1 
 -13  -2  -3 18.9184 3.16434   1 
  13  -2   3 17.5378 2.91372   2 
 -13  -2  -3 15.2635 2.25824   3 
  13  -2  -3 17.0038 3.08505   2 
 -13  -2   3 16.3195 1.62229   1 
 -14  -2  -3 0.42434 1.13321   1 
 -14  -2  -3 1.87330 1.10293   3 
  14  -2   3 0.82457 1.71321   2 
 -14  -2   3 -0.1761 0.66134   1 
  14  -2  -3 0.19586 1.20601   2 
 -15  -2  -3 21.4761 2.19442   3 
  15  -2   3 21.8306 3.29995   2 
 -15  -2  -3 20.4416 2.71938   1 
  15  -2  -3 23.8076 3.89446   2 
 -15  -2   3 18.6626 1.67521   1 
 -16  -2  -3 10.7714 1.77201   3 
 -16  -2  -3 13.3321 2.64468   1 
  16  -2   3 15.3301 3.34839   2 
 -16   2  -3 7.07709 3.09722   3 
  16  -2  -3 9.21327 2.68900   2 
 -16  -2   3 9.76892 1.39646   1 
 -17  -2  -3 4.34437 1.51631   1 
  17  -2   3 0.78237 1.45020   2 
 -17  -2  -3 3.22773 1.39998   3 
 -17   2  -3 2.28021 1.59908   3 
  17  -2  -3 6.49255 2.47685   2 
 -18  -2  -3 23.3679 2.92616   1 
  18  -2   3 19.6624 3.70415   2 
 -18   2  -3 20.7722 4.11521   3 
  18  -2  -3 19.8890 3.36177   2 
 -19  -2  -3 1.39089 1.29675   1 
 -19   2  -3 0.01320 2.13229   3 
  19  -2  -3 1.68446 2.07894   2 
   0  -3   3 209.029 7.10562   2 
   0   3   3 201.137 7.48661   3 
   1   3  -3 998.632 32.1646   1 
  -1   3   3 1226.25 33.1014   3 
   1  -3   3 1112.77 31.5762   2 
  -1  -3  -3 1098.07 32.3677   1 
   1  -3  -3 1115.44 32.3359   1 
   1   3   3 1097.38 31.8409   3 
  -1  -3   3 1136.25 31.3115   2 
  -1  -3   3 1084.22 32.0004   1 
   2  -3   3 47.6345 2.89373   2 
  -2  -3  -3 43.7515 3.12636   1 
   2   3  -3 47.6095 2.93786   1 
   2  -3  -3 48.8877 3.21922   1 
   2   3   3 48.0194 3.18092   3 
  -2  -3   3 49.9646 3.02642   1 
   3   3  -3 265.044 9.27335   1 
   3  -3   3 275.999 9.26230   2 
  -3  -3  -3 277.602 9.80497   1 
   3   3  -3 262.135 8.18868   3 
  -3  -3   3 272.316 9.31166   1 
   3  -3  -3 269.525 9.62902   1 
   3   3   3 247.865 9.80633   3 
  -4  -3  -3 167.276 6.96443   1 
   4   3  -3 174.947 5.35005   3 
   4   3  -3 159.032 6.36905   1 
   4  -3   3 161.819 6.50689   2 
   4  -3  -3 172.994 7.00894   2 
  -4  -3   3 165.311 6.42834   1 
   4  -3  -3 150.448 6.62307   1 
   4   3   3 162.836 6.19891   3 
   5   3  -3 775.526 23.4353   1 
   5  -3   3 789.219 23.7471   2 
  -5  -3  -3 779.043 24.2198   1 
   5   3   3 808.435 23.3144   3 
  -5  -3   3 788.401 23.4514   1 
   5  -3  -3 797.976 24.1561   2 
   5  -3  -3 803.224 24.0325   1 
  -6  -3  -3 123.419 5.77357   1 
   6  -3   3 117.811 5.49078   2 
  -6  -3  -3 111.175 4.69699   3 
   6   3  -3 109.080 5.00828   1 
  -6  -3   3 119.162 5.05767   1 
   6   3   3 119.541 4.88080   3 
   6  -3  -3 110.671 6.66485   2 
  -7  -3  -3 16.2659 1.68013   3 
   7   3  -3 19.9572 1.92688   1 
   7  -3   3 16.3234 2.58777   2 
  -7  -3  -3 18.9749 2.45155   1 
   7  -3  -3 17.4736 2.65917   2 
  -7  -3   3 15.3513 1.83028   1 
   7   3   3 16.0367 1.77931   3 
  -8  -3  -3 36.8769 3.28701   1 
  -8  -3  -3 35.6548 2.31892   3 
   8  -3   3 34.9900 3.26168   2 
   8   3   3 41.6131 2.49700   3 
  -8  -3   3 36.0733 2.23014   2 
   8  -3  -3 36.9808 3.41628   2 
  -8  -3   3 40.2576 2.66623   1 
  -9  -3  -3 71.7605 3.40179   3 
  -9  -3  -3 76.8262 4.71521   1 
   9  -3   3 69.3037 4.59984   2 
  -9  -3   3 57.4897 3.16357   2 
  -9  -3   3 79.9290 3.91361   1 
   9  -3  -3 75.1482 4.81843   2 
 -10  -3  -3 4.37003 1.00783   3 
 -10  -3  -3 4.25304 1.67178   1 
  10  -3   3 5.15787 1.85027   2 
 -10  -3   3 5.34457 1.37208   1 
  10  -3  -3 6.49750 1.97245   2 
 -10  -3   3 2.26844 0.83661   2 
 -11  -3  -3 151.167 7.43037   1 
 -11  -3  -3 147.462 5.62711   3 
  11  -3   3 158.295 7.65082   2 
 -11  -3   3 157.769 6.35164   1 
  11  -3  -3 155.414 7.64344   2 
  12  -3   3 105.060 6.36558   2 
 -12  -3  -3 121.630 6.47426   1 
 -12  -3  -3 104.774 4.35983   3 
 -12  -3   3 121.672 5.26716   1 
  12  -3  -3 111.330 6.40841   2 
  13  -3   3 231.212 10.4996   2 
 -13  -3  -3 240.993 10.3616   1 
 -13  -3   3 245.645 8.87748   1 
  13  -3  -3 248.987 10.6884   2 
 -14  -3  -3 127.422 7.01907   1 
 -14  -3   3 137.798 5.73722   1 
  14  -3  -3 135.479 7.65058   2 
 -15  -3  -3 15.6941 2.82478   1 
  15  -3   3 16.1020 3.25028   2 
  15  -3  -3 24.1536 4.06855   2 
 -15  -3   3 20.1882 2.01865   1 
 -16  -3  -3 3.08091 1.55210   1 
  16  -3   3 4.68204 2.42386   2 
  16  -3  -3 -0.8203 1.36051   2 
 -17  -3  -3 7.65052 2.15256   1 
  17  -3   3 10.8439 3.17504   2 
  17  -3  -3 10.6038 3.19573   2 
 -17   3  -3 8.03948 2.85636   3 
 -18  -3  -3 46.0322 4.03283   1 
  18  -3   3 38.5067 7.69398   2 
  18  -3  -3 51.6725 5.34461   2 
   0  -4  -3 0.26390 1.05654   1 
   0  -4   3 0.52265 0.93828   2 
  -1  -4  -3 2.52857 1.14633   1 
   1  -4   3 4.38503 1.40834   2 
   1  -4  -3 5.10557 1.78341   1 
  -1  -4   3 2.07686 1.20530   2 
  -2  -4  -3 23.1236 2.79329   1 
   2  -4   3 27.8828 2.63022   2 
  -2  -4   3 28.6657 2.34663   2 
  -2  -4   3 27.9208 2.84827   1 
   2  -4  -3 26.5493 2.92773   1 
  -3  -4  -3 21.7582 2.76531   1 
   3   4  -3 21.6426 1.82113   3 
   3  -4   3 18.5985 2.51163   2 
   3  -4  -3 24.2913 2.83006   1 
  -3  -4   3 22.2054 2.11070   2 
  -3  -4   3 21.0524 2.72338   1 
   3  -4  -3 23.1908 3.01186   2 
   4   4  -3 24.0514 1.78548   3 
   4  -4   3 21.3270 2.66286   2 
  -4  -4  -3 23.3171 3.26170   1 
  -4  -4   3 20.6281 2.65419   1 
   4  -4  -3 23.0954 2.86181   1 
   4  -4  -3 26.7351 3.19529   2 
  -5  -4  -3 129.185 6.62235   1 
   5  -4   3 134.503 6.37035   2 
  -5  -4   3 129.467 6.58035   1 
   5  -4  -3 131.537 6.67492   2 
  -6  -4  -3 117.697 6.37615   1 
   6  -4   3 117.964 6.12274   2 
   6  -4  -3 126.678 6.61239   2 
   6   4   3 117.779 5.30082   3 
  -6  -4   3 128.212 6.04075   1 
   7  -4   3 300.588 11.4139   2 
  -7  -4  -3 307.625 11.8891   1 
   7   4   3 282.508 10.2335   3 
   7  -4  -3 296.382 11.7605   2 
  -7  -4   3 302.960 11.0035   1 
   8  -4   3 61.0863 4.57889   2 
  -8  -4  -3 57.7268 4.55280   1 
  -8  -4   3 64.9078 4.14307   1 
   8  -4  -3 75.3722 5.88948   2 
   9  -4   3 11.3727 2.69496   2 
  -9  -4  -3 9.80703 2.05258   1 
  -9  -4   3 11.5090 2.16625   1 
   9  -4  -3 8.08954 2.38337   2 
 -10  -4  -3 4.42191 2.05225   1 
  10  -4   3 1.08191 1.76963   2 
 -10  -4   3 1.01780 1.17666   1 
  10  -4  -3 3.15993 1.89356   2 
  11  -4   3 488.139 17.9101   2 
 -11  -4  -3 507.782 18.0829   1 
 -11  -4   3 513.853 16.9616   1 
  11  -4  -3 500.318 18.2286   2 
 -12  -4  -3 11.4062 2.34565   1 
  12  -4   3 15.9617 3.74274   2 
  12  -4  -3 15.4520 5.36839   2 
 -12  -4   3 15.5126 2.38954   1 
  13  -4   3 4.04801 2.23615   2 
 -13  -4  -3 4.37165 1.74333   1 
  13  -4  -3 6.02767 2.60670   2 
 -13  -4   3 8.30720 1.89769   1 
  14  -4   3 -0.1208 1.78809   2 
 -14  -4  -3 0.82108 1.32867   1 
  14  -4  -3 0.11731 1.70209   2 
 -14  -4   3 1.04694 1.08919   1 
 -15  -4  -3 18.0641 3.11405   1 
  15  -4   3 17.7426 3.49328   2 
  15  -4  -3 11.0571 2.92453   2 
 -16  -4  -3 2.68112 1.59540   1 
  16  -4   3 3.48492 2.58449   2 
  16  -4  -3 3.36556 2.54118   2 
   0  -5  -3 116.402 6.70123   1 
   0  -5   3 109.543 5.70420   2 
   1  -5   3 378.541 13.5804   2 
  -1  -5  -3 386.926 14.8260   1 
  -1  -5   3 401.269 13.5076   2 
   1  -5  -3 392.996 14.8768   1 
  -2  -5  -3 8.90424 2.52501   1 
   2  -5   3 7.84327 2.00968   2 
  -2  -5   3 10.2184 2.07342   2 
   2  -5  -3 8.37272 2.30080   2 
   2  -5  -3 7.35945 2.05513   1 
  -3  -5  -3 79.0785 5.49625   1 
   3  -5   3 80.5904 5.00572   2 
   3  -5  -3 79.5721 5.52218   1 
  -3  -5   3 83.2610 5.05383   2 
   3  -5  -3 84.5828 5.61523   2 
  -4  -5  -3 50.9389 4.49922   1 
   4  -5   3 55.9149 4.24986   2 
   4  -5  -3 44.4929 4.35788   2 
  -4  -5   3 52.0833 4.25765   1 
  -5  -5  -3 295.848 11.8517   1 
   5  -5   3 269.014 11.0477   2 
  -5  -5   3 248.320 10.3982   2 
  -5  -5   3 269.784 10.9890   1 
   5  -5  -3 270.418 11.5221   2 
   6  -5   3 35.5565 3.80978   2 
  -6  -5  -3 35.8712 3.86629   1 
   6  -5  -3 31.9336 4.14159   2 
  -6  -5   3 29.8843 3.34761   1 
  -6  -5   3 30.3686 2.93995   2 
   7  -5   3 19.9968 3.45366   2 
  -7  -5  -3 12.1980 2.72801   1 
   7  -5  -3 19.3007 3.52154   2 
  -7  -5   3 15.9931 2.80170   1 
   8  -5   3 9.08176 2.52611   2 
  -8  -5  -3 11.0693 2.52243   1 
  -8  -5   3 8.36771 2.12964   1 
   9  -5   3 22.5304 4.01000   2 
  -9  -5   3 28.0091 3.11039   1 
   9  -5  -3 26.3460 4.48018   2 
  10  -5   3 0.36744 1.77788   2 
 -10  -5  -3 1.87098 1.58411   1 
  10  -5  -3 1.57342 2.49675   2 
 -10  -5   3 0.24443 1.06880   1 
  11  -5   3 52.7539 5.22342   2 
 -11  -5  -3 57.0915 4.89745   1 
  11  -5  -3 55.4013 5.48847   2 
 -11  -5   3 55.6146 4.20437   1 
  12  -5   3 42.2810 4.88598   2 
 -12  -5  -3 40.8600 4.17366   1 
  12  -5  -3 42.3820 5.02701   2 
 -12  -5   3 39.8683 3.54442   1 
 -13  -5  -3 121.280 7.27868   1 
  13  -5   3 104.140 7.16419   2 
  13  -5  -3 98.0807 7.10033   2 
 -13  -5   3 80.8983 6.48594   1 
  14  -5   3 36.9623 5.59356   2 
 -14  -5  -3 54.4321 4.89799   1 
  14  -5  -3 52.4147 6.03024   2 
   0  -6   3 -2.0301 1.33079   2 
   0  -6  -3 -0.0701 1.99396   1 
   0  -6  -3 -0.9084 1.85915   2 
   1  -6   3 3.46918 1.70885   2 
  -1  -6  -3 1.42295 1.74458   1 
  -1  -6  -3 2.10958 2.18043   2 
  -1  -6   3 3.05811 1.73695   2 
   1  -6  -3 1.12630 2.10942   1 
   1  -6  -3 -0.4549 1.73459   2 
  -2  -6  -3 8.76644 2.69705   1 
   2  -6   3 9.92631 2.40134   2 
  -2  -6   3 7.15652 2.15319   2 
   2  -6  -3 11.1269 3.04753   2 
   3  -6   3 4.92764 2.06150   2 
  -3  -6  -3 5.66721 2.58145   1 
  -3  -6   3 4.55360 1.73220   2 
   3  -6  -3 6.26398 2.59619   2 
  -4  -6  -3 8.46937 2.76139   1 
   4  -6  -3 11.5571 3.25956   2 
  -4  -6   3 6.77685 1.78898   2 
   5  -6   3 46.2963 4.45005   2 
  -5  -6  -3 46.0584 5.00395   1 
   5  -6  -3 47.0177 5.23679   2 
  -5  -6   3 47.1160 3.65997   2 
   6  -6   3 45.7128 4.67951   2 
  -6  -6  -3 44.5688 4.88135   1 
  -6  -6   3 44.9478 3.49922   2 
   6  -6  -3 45.5260 5.08218   2 
   7  -6   3 125.624 7.24284   2 
  -7  -6  -3 100.337 7.14320   1 
   7  -6  -3 93.8808 7.10321   2 
  -7  -6   3 107.451 5.71762   2 
   8  -6   3 22.5975 3.81168   2 
  -8  -6  -3 23.2022 4.00019   1 
   8  -6  -3 19.7491 3.97319   2 
  -9  -6  -3 5.07254 2.26433   1 
   9  -6   3 2.28504 2.12361   2 
   9  -6  -3 5.09492 2.83647   2 
 -10  -6  -3 3.66641 2.03780   1 
  10  -6   3 -1.9925 2.12767   2 
  10  -6  -3 -0.3250 3.95441   2 
   0  -7   3 32.7059 3.96732   2 
   0  -7  -3 36.3881 5.45492   2 
  -1  -7  -3 120.615 8.48237   2 
   1  -7   3 119.590 6.91262   2 
  -1  -7   3 108.120 6.52928   2 
   0   0   4 326.275 9.83898   3 
   1   0  -4 165.688 5.36366   3 
  -1   0  -4 144.503 5.13706   3 
  -1   0   4 145.294 4.97472   3 
   1   0  -4 146.693 4.64616   1 
   1   0   4 151.123 5.19918   3 
  -2   0  -4 2124.94 58.0780   2 
  -3   0   4 661.976 19.0318   3 
  -3   0  -4 685.548 19.3945   2 
   3   0  -4 684.820 18.7638   2 
   3   0   4 667.734 19.5114   3 
  -4   0  -4 3.24950 0.80563   3 
   4   0  -4 5.10967 0.77589   2 
  -4   0   4 4.56157 0.78284   3 
  -4   0  -4 4.55196 1.30599   2 
   5   0  -4 590.866 17.2520   2 
  -5   0  -4 600.234 17.8153   3 
  -5   0   4 596.022 17.0933   3 
   6   0  -4 38.4657 2.02170   2 
  -6   0   4 37.3569 1.99235   3 
  -6   0  -4 38.9308 2.51318   3 
  -6   0  -4 37.2714 2.59351   2 
  -7   0   4 173.889 5.00732   1 
   7   0  -4 172.782 5.90017   2 
  -7   0  -4 166.641 6.48992   2 
  -7   0  -4 168.819 6.57050   3 
  -8   0   4 76.3857 3.32064   3 
  -8   0   4 69.7798 3.21551   2 
  -8   0   4 74.7854 2.55916   1 
  -8   0  -4 75.8256 4.00225   3 
   8   0  -4 74.0682 3.42453   2 
   9   0  -4 1.75770 0.96144   2 
  -9   0   4 1.75419 0.74277   3 
  -9   0   4 1.96264 0.78186   2 
  -9   0  -4 1.86672 1.07289   3 
 -10   0  -4 7.14104 1.87387   3 
 -10   0   4 6.28004 1.32609   2 
 -10   0   4 7.41675 0.95855   1 
  10   0  -4 5.31333 1.39461   2 
 -10   0   4 6.11441 1.25097   3 
 -11   0   4 975.585 26.7189   1 
 -11   0   4 937.648 27.7385   3 
  11   0  -4 948.848 27.9099   2 
 -11   0   4 948.203 26.6021   1 
 -11   0  -4 947.726 28.8151   3 
  12   0  -4 69.2359 3.98098   2 
 -12   0   4 65.2932 2.75872   1 
 -12   0   4 62.3821 2.75552   1 
 -12   0  -4 60.5747 4.76127   3 
 -12   0   4 61.9764 3.82302   3 
 -13   0   4 299.689 9.58303   1 
 -13   0  -4 327.546 12.0503   3 
  13   0  -4 308.779 11.2552   2 
  14   0  -4 94.3814 5.12927   2 
 -14   0  -4 97.3732 5.69291   3 
 -14   0  -4 97.7615 5.74492   1 
 -14   0   4 93.5098 3.76959   1 
 -15   0  -4 592.822 20.6992   1 
  15   0  -4 614.203 19.8460   2 
 -15   0   4 601.073 17.7613   1 
 -15   0  -4 634.478 20.8070   3 
 -16   0  -4 20.7530 2.73866   3 
 -16   0   4 19.1815 1.40483   1 
 -16   0  -4 22.0293 2.83363   1 
 -17   0  -4 1.30907 0.97867   1 
 -17   0   4 1.84010 1.08991   3 
 -17   0  -4 0.63939 1.17594   3 
 -18   0   4 5.50879 1.33358   3 
 -18   0  -4 2.50972 1.63372   3 
 -19   0  -4 106.677 6.51509   1 
 -19   0  -4 108.043 6.50497   3 
 -20   0  -4 35.9749 3.75308   1 
 -20   0  -4 39.0175 3.96003   3 
   0   1   4 0.22254 0.42281   1 
   0  -1  -4 0.18128 0.52574   1 
   0   1  -4 1.49851 0.43849   2 
   0  -1   4 0.52357 0.36033   2 
   0   1   4 0.41119 0.51224   3 
   0  -1  -4 0.58227 0.60121   3 
   0   1  -4 0.06217 0.46071   3 
  -1  -1  -4 803.639 22.1792   3 
  -1  -1  -4 763.390 22.0896   1 
  -1   1   4 761.688 21.7886   1 
  -1   1   4 746.368 22.0157   3 
   1   1  -4 780.202 21.6795   3 
   1   1  -4 748.600 21.0327   2 
   1  -1   4 774.411 21.5283   2 
   1  -1  -4 771.721 22.1141   3 
  -1   1  -4 808.876 21.8429   2 
  -1   1  -4 741.358 21.9474   3 
   1   1   4 789.763 22.0600   1 
   1  -1  -4 795.601 21.8613   1 
   1   1   4 769.820 22.0655   3 
  -2  -1  -4 533.258 15.4706   3 
  -2  -1  -4 512.062 15.5538   1 
  -2   1   4 525.035 15.0117   1 
   2   1  -4 526.418 14.7245   1 
  -2   1   4 546.242 16.3184   3 
   2  -1   4 515.823 15.0223   2 
   2   1  -4 533.294 14.8029   3 
  -2   1  -4 515.791 15.0548   2 
  -2   1  -4 486.338 15.3841   3 
   2  -1  -4 525.437 15.0858   1 
   2  -1  -4 520.580 15.4461   3 
  -2  -1   4 503.467 14.7910   3 
   2   1   4 544.348 16.0515   1 
   2   1   4 537.103 15.4695   3 
   3   1  -4 328.601 9.08058   3 
  -3  -1  -4 319.669 9.98512   3 
  -3   1   4 308.728 9.85848   3 
   3  -1   4 312.943 9.66555   2 
   3   1  -4 316.165 9.03989   1 
  -3   1   4 314.853 9.40164   1 
  -3  -1  -4 321.345 10.1433   1 
  -3   1  -4 301.601 9.97990   3 
   3  -1  -4 314.264 9.86777   1 
  -3   1  -4 307.869 9.67842   2 
   3   1   4 336.303 10.0777   3 
  -3  -1   4 305.209 9.11025   3 
  -4  -1  -4 1.95175 0.74172   3 
  -4   1   4 3.45891 0.93083   3 
  -4   1   4 3.81451 0.69251   1 
  -4  -1  -4 2.68579 0.94450   1 
   4  -1   4 2.96432 0.90433   2 
   4   1  -4 4.59139 0.59786   1 
   4  -1  -4 3.06778 0.87805   1 
   4   1   4 3.93380 1.08884   3 
   4  -1  -4 3.28692 0.85612   2 
  -4   1  -4 2.82234 0.79011   2 
  -4  -1   4 3.97059 0.56748   3 
  -5   1   4 12.4519 1.38735   3 
  -5   1   4 14.7061 1.09350   1 
  -5  -1  -4 14.5252 1.59809   3 
  -5  -1  -4 13.4866 1.61300   1 
   5  -1   4 13.2847 1.55151   2 
  -5  -1   4 13.4455 0.86263   3 
   5   1   4 12.9160 1.41336   3 
  -5   1  -4 10.6476 1.35602   2 
  -5  -1   4 13.3143 0.77807   2 
   5  -1  -4 12.4612 1.44873   2 
  -6  -1  -4 0.26274 0.71601   3 
  -6   1   4 0.88770 0.66609   3 
   6  -1   4 0.95453 0.82560   2 
  -6   1   4 0.35619 0.41904   1 
  -6  -1  -4 3.14038 1.15132   1 
  -6  -1  -4 1.26732 0.75718   2 
   6   1   4 1.06424 0.77926   3 
  -6  -1   4 0.65751 0.31174   1 
  -6  -1   4 1.04877 0.39229   3 
  -6  -1   4 1.01819 0.71567   2 
   6  -1  -4 1.42232 0.79322   2 
  -6   1  -4 1.52780 0.83126   2 
  -7   1   4 399.728 13.0797   3 
  -7   1   4 411.048 12.2859   1 
   7  -1   4 424.213 13.3606   2 
  -7  -1  -4 420.713 13.7970   1 
  -7  -1  -4 413.198 13.2606   3 
  -7  -1   4 421.095 11.7861   3 
  -7   1  -4 427.524 13.8005   2 
  -7  -1   4 421.767 11.6640   1 
  -7  -1   4 418.398 12.1065   2 
   7  -1  -4 403.503 12.9753   2 
  -8  -1  -4 186.598 7.20222   3 
  -8   1   4 187.184 7.09929   3 
  -8   1   4 189.041 6.27285   1 
  -8  -1  -4 190.332 7.70133   1 
   8  -1   4 184.849 7.32920   2 
  -8  -1   4 191.298 5.88824   3 
   8  -1  -4 191.741 7.06711   2 
  -8  -1   4 191.527 6.22950   2 
  -8  -1   4 191.501 5.66506   1 
   9  -1   4 61.6318 4.22259   2 
  -9  -1  -4 47.8533 3.48047   1 
  -9  -1  -4 47.9566 3.19672   3 
  -9  -1   4 48.0023 2.45930   2 
   9  -1  -4 45.1512 3.09801   2 
  -9  -1   4 49.8086 1.95634   1 
 -10   1   4 380.870 11.6819   1 
 -10  -1  -4 358.999 12.6913   3 
 -10  -1  -4 382.501 13.4282   1 
 -10  -1   4 361.416 11.1070   3 
  10  -1  -4 382.572 12.6507   2 
 -10   1  -4 376.412 13.3460   3 
 -10  -1   4 378.823 11.8837   2 
 -10  -1   4 410.742 11.0909   1 
 -11  -1  -4 22.0641 2.39681   3 
 -11   1   4 19.4130 1.56715   1 
  11  -1   4 32.8392 3.98835   2 
 -11  -1  -4 19.7263 2.52449   1 
 -11  -1   4 23.1053 1.86441   2 
  11  -1  -4 21.9151 2.53862   2 
 -11   1  -4 19.8849 2.65312   3 
 -11  -1   4 18.8180 1.35874   3 
  12  -1   4 9.61778 2.18526   2 
 -12  -1  -4 9.97655 1.98863   3 
 -12  -1  -4 7.25205 2.04879   1 
 -12   1   4 9.71582 1.21419   1 
  12  -1  -4 12.4109 2.32365   2 
 -12  -1   4 9.45988 1.27374   1 
 -12   1  -4 9.26339 2.49678   3 
 -12  -1   4 9.44561 1.06180   3 
 -13  -1  -4 12.8235 2.37204   3 
 -13  -1  -4 6.42614 1.76525   1 
  13  -1   4 13.0949 2.69621   2 
  13  -1  -4 8.65194 2.14118   2 
 -13  -1   4 12.2590 1.25863   3 
 -13   1  -4 7.47010 2.01592   3 
 -13  -1   4 8.83459 1.11212   1 
 -14  -1  -4 93.4388 5.28981   3 
 -14  -1  -4 99.4055 5.73584   1 
 -14   1   4 90.3000 4.15910   1 
  14  -1   4 94.0505 5.82998   2 
 -14   1  -4 93.2026 5.87379   3 
 -14  -1   4 95.3720 3.91068   3 
  14  -1  -4 90.5614 5.39617   2 
 -15  -1  -4 171.405 8.15092   1 
 -15  -1  -4 157.681 7.54610   3 
  15  -1   4 166.605 8.25614   2 
  15  -1  -4 171.342 7.88692   2 
 -15  -1   4 159.774 5.85254   3 
 -15   1  -4 167.638 8.46845   3 
 -16   1   4 36.2148 2.45868   1 
 -16  -1  -4 39.0990 3.44219   3 
 -16  -1  -4 39.9151 3.77417   1 
  16  -1  -4 40.7491 3.86780   2 
 -16   1  -4 43.0935 4.18298   3 
 -17  -1  -4 9.80880 2.64246   1 
 -17   1   4 5.29584 1.18276   1 
 -17  -1  -4 10.0936 2.10698   3 
 -17   1  -4 9.92748 2.64232   3 
  17  -1  -4 9.46055 2.44290   2 
 -18  -1  -4 9.25242 1.83851   3 
  18  -1  -4 7.59421 2.26116   2 
 -18   1  -4 5.76344 1.78476   1 
 -18   1  -4 9.23975 2.68128   3 
 -19  -1  -4 30.1151 3.08492   3 
 -19  -1  -4 29.8201 3.31950   1 
  19  -1  -4 18.0652 2.84717   2 
 -19   1  -4 23.5231 3.10463   1 
 -19   1  -4 27.8250 3.58899   3 
 -20  -1  -4 6.68219 1.95950   1 
 -20   1   4 3.86500 1.50417   3 
 -20   1  -4 6.73262 2.29944   1 
 -20   1  -4 5.06545 2.15317   3 
   0   2  -4 182.975 6.42354   1 
   0   2   4 183.128 6.55900   3 
   0  -2   4 186.245 5.85918   2 
   0  -2  -4 178.401 6.58209   3 
   0  -2  -4 190.864 6.69102   1 
   0   2   4 178.664 6.51998   1 
  -1   2   4 116.222 4.75232   3 
   1  -2   4 117.993 4.23428   2 
  -1  -2  -4 122.795 4.81987   3 
  -1   2   4 115.707 4.66193   1 
  -1  -2  -4 112.861 4.78512   1 
   1   2  -4 112.495 4.46737   1 
   1   2   4 120.293 4.70357   3 
   1  -2  -4 117.536 4.75311   1 
  -1  -2   4 119.448 3.91179   2 
  -1   2  -4 118.113 4.72381   1 
   1   2   4 121.456 4.81904   1 
   2   2  -4 1098.18 31.2576   1 
  -2  -2  -4 1056.10 31.6058   1 
   2  -2   4 1086.63 30.7512   2 
   2   2  -4 1112.88 30.4072   3 
  -2  -2  -4 1074.44 31.1698   3 
  -2   2   4 1117.41 31.1942   1 
  -2  -2   4 1095.50 30.0555   2 
   2  -2  -4 1113.01 31.2836   1 
   2   2   4 1102.24 31.1504   3 
  -2   2  -4 1111.92 30.9027   2 
  -2   2  -4 1092.39 31.3385   1 
  -3   2   4 415.719 12.6081   1 
   3   2  -4 370.289 12.7223   1 
   3  -2   4 402.036 12.3792   2 
  -3  -2  -4 409.754 13.0429   1 
  -3   2   4 396.139 12.8320   3 
   3   2  -4 411.727 11.5766   3 
  -3  -2  -4 398.057 12.6013   3 
   3   2   4 421.707 12.9544   1 
  -3   2  -4 394.340 12.4331   2 
   3  -2  -4 402.172 12.6330   1 
   3   2   4 413.535 12.6187   3 
  -3   2  -4 429.611 13.0187   1 
  -3  -2   4 404.161 11.3989   2 
   4  -2   4 0.21152 0.76586   2 
  -4  -2  -4 1.94490 0.92528   1 
  -4   2   4 0.99180 0.70455   1 
   4   2  -4 1.97630 0.76872   1 
  -4  -2  -4 0.20889 0.74660   3 
  -4   2   4 1.21045 0.84305   3 
  -4  -2   4 1.55174 0.62923   1 
   4  -2  -4 1.27171 0.80179   1 
   4   2   4 1.49677 0.88007   1 
  -4   2  -4 1.40435 0.80904   2 
  -5  -2  -4 395.536 12.8172   1 
  -5   2   4 396.933 12.1016   1 
  -5   2   4 396.380 14.0680   3 
   5   2  -4 390.239 11.5844   1 
   5  -2   4 388.979 12.2800   2 
  -5  -2  -4 381.598 12.1325   3 
  -5  -2   4 383.167 11.5372   1 
  -5  -2   4 383.158 10.8773   2 
   5   2   4 378.074 12.5366   1 
   5  -2  -4 368.319 12.0399   1 
   5   2   4 389.670 12.1794   3 
  -5   2  -4 345.763 12.1660   2 
   5  -2  -4 390.918 12.5383   2 
   6   2  -4 27.8231 1.75101   1 
  -6  -2  -4 25.5504 2.38686   1 
  -6   2   4 25.1672 1.92170   1 
  -6  -2  -4 28.1332 2.22094   3 
   6  -2   4 27.0677 2.39188   2 
  -6  -2   4 27.0360 1.70042   1 
   6   2   4 26.2340 2.11845   3 
   6  -2  -4 26.2296 2.47494   2 
  -6  -2   4 23.5342 1.57497   2 
  -7  -2  -4 105.425 4.65630   3 
   7   2  -4 105.023 4.07628   1 
   7  -2   4 102.859 4.96659   2 
  -7   2   4 104.048 4.86786   1 
  -7  -2  -4 109.872 5.30772   1 
   7  -2  -4 108.038 5.10062   2 
  -7  -2   4 109.348 3.73009   2 
  -7  -2   4 106.232 4.01118   1 
   7   2   4 107.303 4.63382   3 
   8  -2   4 60.6746 3.71072   2 
  -8   2   4 52.2527 2.95539   1 
  -8  -2  -4 56.9787 3.25582   3 
  -8  -2  -4 53.6855 3.67454   1 
  -8  -2   4 54.4527 2.43092   2 
  -8  -2   4 55.8675 2.55969   1 
   8  -2  -4 54.8416 3.60491   2 
  -9   2   4 2.06242 0.78618   1 
  -9  -2  -4 3.05236 1.21797   1 
   9  -2   4 4.22652 1.54809   2 
  -9  -2  -4 3.81927 1.20826   3 
   9  -2  -4 2.71807 1.60829   2 
  -9  -2   4 2.26222 0.73105   1 
 -10  -2  -4 3.81122 1.33022   3 
  10  -2   4 3.26669 1.51098   2 
 -10  -2  -4 3.95423 1.65812   1 
 -10  -2   4 3.65040 0.88036   2 
 -10  -2   4 2.29968 0.75272   1 
  10  -2  -4 1.66365 1.35107   2 
  11  -2   4 714.107 22.8973   2 
 -11  -2  -4 752.379 23.4279   1 
 -11  -2  -4 711.722 21.9626   3 
 -11  -2   4 685.420 21.3327   2 
 -11  -2   4 738.237 20.7945   1 
  11  -2  -4 731.230 22.7991   2 
 -12  -2  -4 48.1111 3.43814   3 
 -12  -2  -4 54.4783 4.13655   1 
  12  -2   4 48.8710 4.15342   2 
 -12  -2   4 54.1779 2.56905   1 
  12  -2  -4 52.2562 4.16294   2 
 -12  -2   4 47.7746 2.86761   2 
  13  -2   4 237.067 10.2153   2 
 -13  -2  -4 244.525 10.2252   1 
 -13  -2  -4 225.922 8.92463   3 
  13  -2  -4 229.173 9.86421   2 
 -13  -2   4 247.249 7.72400   1 
  14  -2   4 76.7536 5.45082   2 
 -14  -2  -4 88.0589 5.44259   1 
 -14  -2  -4 79.3196 4.51723   3 
 -14  -2   4 79.7770 3.24441   1 
 -14   2  -4 74.8214 5.61183   3 
  14  -2  -4 74.3579 5.30391   2 
 -15  -2  -4 482.202 17.5926   1 
  15  -2   4 514.366 18.3385   2 
 -15  -2  -4 455.932 17.6440   3 
  15  -2  -4 507.606 17.6063   2 
 -15   2  -4 501.494 18.7090   3 
 -16  -2  -4 21.9742 2.50618   3 
 -16  -2  -4 21.5037 2.81610   1 
  16  -2   4 13.6841 2.89399   2 
 -16   2  -4 17.9484 4.39318   3 
  16  -2  -4 21.4807 3.57687   2 
  17  -2   4 -1.0357 1.43670   2 
 -17  -2  -4 0.83849 1.43782   1 
 -17  -2  -4 -0.8753 1.02321   3 
  17  -2  -4 0.97476 1.84885   2 
 -17   2  -4 0.15692 1.45885   3 
  18  -2   4 -0.8478 1.58058   2 
 -18  -2  -4 2.87434 1.65666   1 
 -18   2  -4 4.63771 2.25018   3 
  18  -2  -4 -0.5104 2.15096   2 
 -19  -2  -4 93.2445 5.99405   1 
  19  -2  -4 96.5335 6.73202   2 
 -19   2  -4 94.9112 7.15685   3 
   0  -3   4 -0.0287 0.65550   2 
   0  -3  -4 0.04389 0.74728   1 
  -1  -3  -4 296.901 10.4238   1 
   1  -3   4 283.917 9.43502   2 
   1   3  -4 310.585 11.9928   1 
  -1  -3   4 293.455 9.22602   2 
   1  -3  -4 289.997 10.3227   1 
   1   3   4 277.360 9.92725   3 
  -2  -3  -4 197.088 7.96656   1 
   2   3  -4 203.531 7.57396   1 
   2  -3   4 212.842 7.33996   2 
   2   3   4 201.784 7.53589   3 
  -2  -3   4 212.426 6.77815   2 
   2  -3  -4 200.062 7.89713   1 
  -3  -3  -4 134.711 6.02658   1 
   3   3  -4 122.102 5.31032   1 
   3  -3   4 132.960 5.41900   2 
   3  -3  -4 129.855 5.78684   1 
  -3  -3   4 132.637 4.63162   2 
  -3  -3   4 127.320 5.37986   1 
   3   3   4 130.007 5.51395   3 
   4  -3   4 2.39039 1.23341   2 
  -4  -3  -4 3.04681 1.14332   3 
  -4  -3  -4 4.68321 1.58222   1 
   4   3  -4 3.17917 1.21047   1 
   4  -3  -4 1.76948 1.29209   2 
   4   3   4 2.76299 1.13281   3 
  -4  -3   4 3.63815 1.09697   1 
   4  -3  -4 0.97681 0.96269   1 
   5  -3   4 10.2245 1.86385   2 
   5   3  -4 13.0052 1.84203   1 
  -5  -3  -4 9.59073 1.80682   1 
  -5  -3  -4 9.50676 1.63958   3 
   5  -3  -4 10.1282 2.00997   2 
  -5  -3   4 12.3578 1.65207   1 
   5   3   4 8.63674 1.49758   3 
   5  -3  -4 12.4290 2.28446   1 
  -6  -3  -4 0.71071 0.78765   3 
   6   3  -4 0.53773 0.81076   1 
   6  -3   4 1.32215 1.21197   2 
  -6  -3  -4 -0.4939 1.96547   1 
   6  -3  -4 -0.4529 1.04397   2 
   6   3   4 2.46578 0.98466   3 
  -6  -3   4 0.27158 0.76433   1 
  -7  -3  -4 248.721 8.80215   3 
  -7  -3  -4 264.732 10.1097   1 
   7   3  -4 243.006 8.76381   1 
   7  -3   4 254.107 9.63659   2 
   7   3   4 261.393 9.08253   3 
  -7  -3   4 229.669 7.86881   2 
   7  -3  -4 258.013 9.93531   2 
  -7  -3   4 261.236 8.83334   1 
   8   3  -4 113.610 5.01018   1 
   8  -3   4 116.718 5.93780   2 
  -8  -3  -4 116.175 6.13841   1 
  -8  -3  -4 120.482 5.09899   3 
  -8  -3   4 121.846 5.08452   1 
   8   3   4 118.377 5.15181   3 
  -9  -3  -4 23.4154 2.14663   3 
   9   3  -4 19.7106 2.05865   1 
   9  -3   4 23.2301 3.05162   2 
  -9  -3  -4 25.0375 2.89074   1 
   9  -3  -4 23.2641 3.00362   2 
  -9  -3   4 20.0795 1.61880   2 
  -9  -3   4 23.4825 2.06691   1 
 -10  -3  -4 260.361 10.4825   1 
 -10  -3  -4 237.507 8.67055   3 
  10  -3   4 246.959 10.0613   2 
 -10  -3   4 234.600 8.05315   2 
  10  -3  -4 249.562 10.2426   2 
 -10  -3   4 258.578 8.74630   1 
 -11  -3  -4 11.6569 2.52418   1 
 -11  -3  -4 13.3099 1.78151   3 
  11  -3   4 11.2903 2.60264   2 
 -11  -3   4 7.39665 1.24054   2 
  11  -3  -4 7.67741 2.13312   2 
 -11  -3   4 13.6037 1.70587   1 
 -12  -3  -4 3.87592 1.12738   3 
  12  -3   4 3.31795 1.88335   2 
 -12  -3  -4 3.14352 1.63529   1 
  12  -3  -4 5.21802 2.06420   2 
 -12  -3   4 5.76295 1.32388   1 
  13  -3   4 5.35140 2.37102   2 
 -13  -3  -4 2.23515 1.53283   1 
 -13  -3  -4 3.53561 1.12908   3 
  13  -3  -4 4.69887 1.89959   2 
 -13  -3   4 4.71551 1.20532   1 
  14  -3   4 64.3830 5.88039   2 
 -14  -3  -4 60.1166 4.74791   1 
 -14  -3  -4 57.1685 3.11745   3 
 -14  -3   4 62.0182 3.21845   1 
  14  -3  -4 71.0873 5.63499   2 
 -15  -3  -4 121.800 7.07590   1 
  15  -3   4 126.985 7.65511   2 
  15  -3  -4 130.238 7.64224   2 
  16  -3   4 32.8551 4.19955   2 
 -16  -3  -4 28.0575 3.55543   1 
 -16   3  -4 18.7102 3.87325   3 
  16  -3  -4 28.5892 3.87117   2 
  17  -3   4 4.31298 2.52439   2 
 -17  -3  -4 3.67109 1.67318   1 
 -17   3  -4 5.32303 2.86749   3 
  17  -3  -4 8.18679 2.81387   2 
  18  -3   4 3.27650 2.63295   2 
 -18  -3  -4 2.51060 1.99435   1 
  18  -3  -4 2.03613 2.25895   2 
   0  -4  -4 67.8497 4.43905   1 
   0  -4   4 66.8431 3.62554   2 
   1  -4   4 21.8530 2.29952   2 
  -1  -4  -4 24.4956 2.84016   1 
  -1  -4   4 27.6938 2.30015   2 
   1  -4  -4 19.9643 2.67837   1 
   2  -4   4 458.306 14.6162   2 
  -2  -4  -4 455.918 15.7287   1 
   2  -4  -4 437.380 15.5223   1 
  -2  -4   4 448.679 13.9856   2 
   3  -4   4 122.263 5.70119   2 
  -3  -4  -4 125.118 6.41797   1 
   3   4  -4 122.087 4.71888   3 
  -3  -4   4 128.578 5.03006   2 
   3  -4  -4 118.161 6.22631   1 
   4  -4   4 1.06665 1.27417   2 
   4   4  -4 1.98619 0.67907   3 
  -4  -4  -4 -0.2841 1.15934   1 
   4   4  -4 -0.2807 0.64320   3 
  -4  -4   4 0.36771 0.73907   2 
  -4  -4   4 1.05994 2.05032   1 
   4  -4  -4 2.47142 1.34392   1 
   4  -4  -4 5.08384 2.60536   2 
   5  -4   4 130.675 6.23733   2 
  -5  -4  -4 133.073 6.83748   1 
   5  -4  -4 128.703 6.61123   1 
   5  -4  -4 136.882 6.84117   2 
  -5  -4   4 128.124 5.05032   2 
  -6  -4  -4 19.4749 3.35615   1 
   6  -4   4 18.0959 2.73953   2 
   6  -4  -4 20.4047 3.31345   2 
   7  -4   4 33.0955 3.40024   2 
  -7  -4  -4 24.9724 3.20292   1 
   7  -4  -4 27.1486 3.51392   2 
  -7  -4   4 27.1772 2.95795   1 
  -8  -4  -4 22.4331 3.44093   1 
   8  -4   4 25.4699 3.27879   2 
  -8  -4   4 15.0380 1.97793   2 
   8  -4  -4 35.7686 4.88982   2 
  -8  -4   4 23.8667 2.53034   1 
  -9  -4  -4 5.57580 1.88448   1 
   9  -4   4 7.09433 2.34863   2 
   9  -4  -4 3.88679 2.17153   2 
  -9  -4   4 5.96517 1.55040   1 
  -9  -4   4 2.68454 1.28389   2 
 -10  -4  -4 0.98556 1.45797   1 
  10  -4   4 -1.0888 1.54468   2 
  10  -4  -4 -0.3710 1.55168   2 
 -10  -4   4 -0.4800 1.06750   1 
 -11  -4  -4 354.308 14.3214   1 
  11  -4   4 354.374 14.0744   2 
 -11  -4   4 377.205 12.7818   1 
  11  -4  -4 370.453 14.5784   2 
  12  -4   4 31.7284 4.17652   2 
 -12  -4  -4 25.1937 3.31267   1 
 -12  -4   4 26.5819 2.53551   1 
  12  -4  -4 28.4657 4.25847   2 
  13  -4   4 125.892 7.48426   2 
  13  -4  -4 127.239 7.48461   2 
 -13  -4   4 112.971 5.43589   1 
  14  -4   4 43.1988 4.86844   2 
 -14  -4  -4 47.0021 4.29911   1 
 -14  -4   4 44.2936 3.19968   1 
  14  -4  -4 39.1005 4.64846   2 
  15  -4   4 267.028 12.2249   2 
 -15  -4  -4 271.408 11.9559   1 
  15  -4  -4 248.763 12.0906   2 
 -16  -4  -4 13.9210 2.78410   1 
  16  -4   4 14.3818 4.14463   2 
  16  -4  -4 10.5408 3.25425   2 
 -16   4  -4 24.6694 6.62046   3 
   0  -5  -4 -0.2310 1.45485   1 
   0  -5   4 0.49664 1.17831   2 
   1  -5   4 111.696 5.72190   2 
  -1  -5  -4 120.003 6.90606   1 
   1  -5  -4 112.315 6.68331   1 
  -1  -5   4 113.541 5.53465   2 
  -2  -5  -4 81.3474 5.68480   1 
   2  -5   4 85.0866 4.97265   2 
   2  -5  -4 83.2854 5.66943   2 
   2  -5  -4 87.6361 5.82066   1 
  -3  -5  -4 59.3809 4.86047   1 
   3  -5   4 55.8592 4.25321   2 
  -3  -5   4 60.5960 3.73411   2 
   3  -5  -4 69.8063 5.11636   1 
   3  -5  -4 56.3659 4.97940   2 
   4   5  -4 0.28197 0.54099   3 
   4  -5   4 1.65337 1.52682   2 
  -4  -5  -4 0.31379 1.33669   1 
   4  -5  -4 0.26725 1.91204   1 
  -4  -5   4 3.16037 1.24978   2 
   4  -5  -4 -0.9698 1.74695   2 
  -5  -5  -4 9.24142 2.70004   1 
   5  -5   4 9.54077 2.56607   2 
  -5  -5   4 8.01073 1.59981   2 
   5  -5  -4 3.28255 2.20379   2 
  -6  -5  -4 -1.0999 1.08439   1 
   6  -5   4 1.55240 1.58565   2 
  -6  -5   4 -1.6244 0.87573   2 
   6  -5  -4 -0.9289 1.85120   2 
  -7  -5  -4 126.153 7.36925   1 
   7  -5   4 109.137 6.50487   2 
  -7  -5   4 119.764 5.03755   2 
   7  -5  -4 123.463 7.67091   2 
   8  -5   4 55.1897 4.76599   2 
  -8  -5  -4 56.6871 5.34038   1 
  -8  -5   4 51.9596 2.87688   2 
   8  -5  -4 42.4798 4.92401   2 
   9  -5   4 11.6711 2.83462   2 
  -9  -5  -4 6.93872 2.34481   1 
   9  -5  -4 7.04288 2.77411   2 
  -9  -5   4 5.73497 1.26703   2 
 -10  -5  -4 121.145 7.51466   1 
  10  -5   4 111.289 7.21186   2 
  10  -5  -4 128.192 7.88065   2 
  11  -5   4 2.10163 2.01108   2 
 -11  -5  -4 6.36576 1.86410   1 
  11  -5  -4 1.84533 2.16944   2 
 -12  -5  -4 0.65556 1.67061   1 
  12  -5   4 -1.1119 1.74554   2 
  12  -5  -4 1.07232 2.49359   2 
  13  -5   4 3.35527 2.61296   2 
 -13  -5  -4 1.24175 1.66907   1 
  13  -5  -4 3.41040 1.96699   2 
  14  -5   4 23.0988 4.02856   2 
 -14  -5  -4 22.7424 3.84153   1 
  14  -5  -4 16.8371 3.64230   2 
   0  -6  -4 25.0767 3.82220   2 
   0  -6  -4 25.1475 4.42440   1 
   0  -6   4 26.5241 3.03566   2 
   1  -6   4 3.79619 1.72635   2 
  -1  -6  -4 2.90896 2.22331   1 
  -1  -6   4 3.99385 1.65074   2 
   1  -6  -4 -0.1250 1.95838   2 
   1  -6  -4 2.90715 2.24678   1 
  -2  -6  -4 156.554 8.99835   1 
   2  -6   4 165.784 7.95882   2 
  -2  -6   4 160.659 7.33008   2 
   2  -6  -4 157.933 8.95777   1 
   2  -6  -4 158.460 8.82942   2 
  -3  -6  -4 35.2988 4.34967   1 
   3  -6   4 30.0700 3.51877   2 
   3  -6  -4 23.6393 3.98781   2 
  -3  -6   4 27.1428 2.86781   2 
  -4  -6  -4 -1.0195 1.58720   1 
  -4  -6   4 1.12069 1.29368   2 
   4  -6  -4 0.67895 2.30908   2 
  -5  -6  -4 26.2126 4.77627   1 
   5  -6   4 25.0850 3.52667   2 
   5  -6  -4 26.3486 4.33016   2 
  -5  -6   4 28.4206 2.69655   2 
  -6  -6  -4 6.56653 2.62014   1 
   6  -6   4 7.45582 2.34087   2 
   6  -6  -4 7.23306 3.06727   2 
  -6  -6   4 5.88942 2.12012   2 
  -7  -6  -4 7.06889 2.63278   1 
   7  -6   4 5.37966 2.21998   2 
   7  -6  -4 9.88141 3.01435   2 
  -8  -6  -4 3.45692 2.33062   1 
   8  -6   4 6.46804 2.81213   2 
   8  -6  -4 8.60606 2.98353   2 
  -9  -6  -4 4.04612 1.94259   1 
   9  -6   4 5.22988 2.62080   2 
   9  -6  -4 2.68050 2.77545   2 
 -10  -6  -4 1.96320 2.85192   1 
  10  -6   4 0.72335 2.65374   2 
  10  -6  -4 0.89004 2.52345   2 
   0   0   5 -0.1122 0.54311   3 
   0   0  -5 0.23360 0.61835   3 
   1   0   5 31.3120 1.98752   3 
   1   0  -5 31.5846 1.58833   1 
  -1   0  -5 32.6409 2.02771   3 
   1   0  -5 33.8714 1.90823   3 
  -1   0   5 33.6922 1.89861   3 
   2   0  -5 1354.71 36.6346   3 
  -2   0  -5 1319.19 36.9835   3 
   2   0  -5 1289.39 35.9735   1 
  -2   0  -5 1354.99 36.6774   2 
  -2   0   5 1278.75 36.5490   3 
   3   0  -5 1378.01 38.6188   3 
  -3   0  -5 1398.39 39.1455   3 
   3   0  -5 1418.22 37.7891   1 
   3   0   5 1413.09 39.1687   3 
  -3   0   5 1366.32 38.5724   3 
  -4   0  -5 11.7643 1.34723   2 
   4   0  -5 12.4228 1.25297   3 
   4   0  -5 12.7564 1.02207   2 
  -4   0   5 12.5549 1.16899   3 
   4   0   5 9.74719 1.33323   3 
  -4   0  -5 11.7481 1.49581   3 
   5   0  -5 135.555 4.70872   2 
  -5   0   5 143.681 4.98886   3 
  -5   0  -5 146.436 5.69960   3 
  -5   0  -5 142.307 5.45873   2 
  -6   0  -5 43.8693 2.70757   2 
  -6   0  -5 39.8506 2.72889   3 
   6   0  -5 45.3487 2.20447   2 
  -6   0   5 47.4236 2.56421   3 
  -7   0   5 238.498 7.75386   3 
   7   0  -5 244.169 7.62338   2 
  -7   0  -5 236.633 8.63131   3 
  -7   0  -5 218.978 8.65868   2 
   8   0  -5 165.317 5.91459   2 
  -8   0  -5 169.550 6.88662   3 
  -8   0   5 161.362 5.90571   3 
   9   0  -5 11.2385 1.69972   2 
  -9   0   5 7.19169 1.26121   3 
  -9   0  -5 8.38178 1.90829   3 
  10   0  -5 31.4095 2.44594   2 
 -10   0  -5 26.5672 2.75808   3 
 -11   0   5 90.0665 4.23578   3 
  11   0  -5 95.7637 4.53060   2 
 -11   0  -5 92.9897 5.21963   3 
 -12   0  -5 62.6766 4.31977   3 
  12   0  -5 61.6420 3.78763   2 
  13   0  -5 41.6492 3.25894   2 
 -13   0  -5 50.1948 3.94837   3 
 -14   0  -5 9.32699 2.68342   1 
 -14   0  -5 7.42447 2.18581   3 
  14   0  -5 7.07784 1.80806   2 
 -15   0  -5 244.380 10.7864   1 
 -15   0  -5 252.555 10.8138   3 
  15   0  -5 247.347 9.71134   2 
 -16   0  -5 11.5975 2.73893   3 
 -16   0  -5 7.76888 1.96666   1 
 -17   0  -5 42.5331 4.02699   1 
 -17   0  -5 44.7339 4.16009   3 
 -18   0   5 106.619 5.37911   3 
 -18   0  -5 112.935 6.82954   1 
 -19   0  -5 30.5947 3.58856   3 
 -19   0  -5 27.5659 3.52852   1 
 -20   0  -5 13.6747 2.45578   1 
 -20   0  -5 15.0585 2.90329   3 
   0   1  -5 310.217 9.38697   3 
   0  -1  -5 294.261 9.57572   3 
   0   1   5 292.931 9.49615   3 
   0   1  -5 299.693 8.69307   2 
   0  -1  -5 293.318 9.36787   1 
   0   1   5 307.688 9.36187   1 
  -1   1   5 818.212 23.5735   3 
  -1  -1  -5 831.658 23.6452   1 
  -1   1   5 828.611 23.2470   1 
   1   1  -5 843.249 22.4486   2 
   1   1  -5 854.768 23.2593   3 
  -1  -1  -5 815.446 23.6848   3 
   1  -1  -5 823.987 23.6702   3 
  -1  -1   5 821.995 23.2843   3 
  -1   1  -5 826.153 22.9706   2 
   1   1   5 832.627 23.6469   3 
  -1   1  -5 735.266 24.0660   3 
   1  -1  -5 830.156 23.2951   1 
   2   1  -5 0.44196 0.57825   3 
  -2   1   5 0.84855 0.64489   3 
  -2  -1  -5 0.59652 0.65560   3 
   2  -1   5 0.20587 0.49687   2 
  -2   1   5 0.47354 0.46119   1 
  -2  -1  -5 0.39985 0.56897   1 
   2   1   5 1.90055 0.71091   3 
   2  -1  -5 0.52371 0.48194   1 
  -2  -1   5 -0.2243 0.39413   3 
   2  -1  -5 1.12578 0.63696   3 
  -2   1  -5 0.89230 0.65896   3 
  -2   1  -5 0.76224 0.53127   2 
  -3  -1  -5 1548.00 42.0576   3 
  -3   1   5 1535.34 41.2374   1 
   3  -1   5 1513.29 41.5664   2 
  -3  -1  -5 1457.90 42.0844   1 
   3   1  -5 1561.30 41.0527   3 
   3   1  -5 1474.52 40.7620   1 
  -3   1   5 1467.05 41.7778   3 
   3  -1  -5 1531.77 41.2453   1 
   3   1   5 1504.65 41.9873   3 
  -3   1  -5 1387.51 41.8985   3 
   3  -1  -5 1483.66 41.8858   3 
  -4   1   5 90.7620 3.87565   3 
   4   1  -5 89.1526 3.12084   3 
  -4   1   5 90.6660 3.30671   1 
   4   1  -5 89.8755 2.82217   1 
  -4  -1  -5 87.8121 3.99536   3 
  -4  -1  -5 91.5736 4.24972   1 
   4  -1   5 89.6894 3.82700   2 
  -4   1  -5 85.7897 4.02463   3 
   4  -1  -5 90.3063 3.33709   1 
   4   1   5 87.2378 3.97239   3 
  -4   1  -5 88.6908 3.78843   2 
  -4  -1   5 82.8995 3.19798   3 
  -5  -1  -5 1801.54 49.1664   3 
  -5   1   5 1764.43 48.0040   1 
  -5  -1  -5 1764.83 49.4834   1 
   5  -1   5 1747.17 48.8799   2 
  -5   1   5 1697.17 48.8173   3 
   5   1   5 1752.63 49.0456   3 
  -5  -1   5 1773.40 47.8456   3 
  -5   1  -5 1764.73 49.3367   3 
  -5   1  -5 1749.75 49.0410   2 
   5  -1  -5 1704.16 47.9984   1 
  -6   1   5 758.144 21.2335   1 
  -6  -1  -5 757.488 22.4688   3 
  -6  -1  -5 771.066 22.9708   1 
   6  -1   5 769.950 22.3470   2 
  -6  -1  -5 692.726 22.2829   2 
  -6   1  -5 733.335 22.3071   2 
  -6  -1   5 740.191 20.9901   3 
   6   1   5 771.091 22.3942   3 
  -6   1  -5 764.603 22.7408   3 
   6  -1  -5 770.222 22.0475   2 
   7  -1   5 1023.72 29.7839   2 
  -7   1   5 1020.22 28.5111   1 
  -7  -1  -5 1012.36 29.8419   3 
  -7   1   5 989.996 29.5517   3 
  -7  -1  -5 1030.60 30.4601   1 
   7  -1  -5 1041.16 29.3960   2 
  -7  -1   5 1044.16 28.5746   3 
  -7   1  -5 1017.65 30.2135   3 
  -8   1   5 393.363 11.5802   1 
  -8   1   5 383.873 12.8105   3 
  -8  -1  -5 388.532 12.9903   3 
   8  -1   5 394.332 12.9835   2 
  -8  -1  -5 394.225 13.5518   1 
   8  -1  -5 387.197 12.5152   2 
  -8  -1   5 386.781 11.4608   2 
  -8   1  -5 388.959 13.3277   3 
  -9  -1  -5 690.316 21.8390   1 
  -9  -1  -5 688.930 21.2146   3 
  -9   1   5 671.065 19.5774   1 
   9  -1   5 683.938 21.2359   2 
   9  -1  -5 672.622 20.6250   2 
  -9  -1   5 717.665 19.4810   3 
  -9   1  -5 666.355 21.5452   3 
 -10  -1  -5 45.8663 3.43808   3 
 -10  -1  -5 52.0723 3.87439   1 
  10  -1   5 50.5800 3.69359   2 
 -10  -1   5 47.7916 2.17792   3 
 -10  -1   5 47.5193 2.50971   2 
  10  -1  -5 50.2303 3.38943   2 
  11  -1   5 3.63485 1.53197   2 
 -11   1   5 5.35333 1.19204   1 
 -11  -1  -5 1.24616 1.15375   3 
 -11  -1  -5 2.81447 1.31255   1 
 -11  -1   5 3.61564 0.75826   3 
  11  -1  -5 4.19590 1.47226   2 
 -11   1  -5 2.40811 1.38606   3 
 -12  -1  -5 12.6945 2.34580   3 
 -12   1   5 15.8197 1.32235   1 
 -12  -1  -5 14.1406 2.75369   1 
  12  -1   5 19.0353 3.10356   2 
 -12  -1   5 12.8232 1.47503   2 
  12  -1  -5 17.2203 2.64066   2 
 -12   1  -5 14.6097 2.86055   3 
 -12  -1   5 13.2731 1.18735   3 
  13  -1   5 76.1681 5.06781   2 
 -13  -1  -5 79.2912 4.81786   3 
 -13   1   5 71.3867 3.23437   1 
 -13  -1  -5 72.8590 4.99458   1 
 -13   1  -5 74.8052 5.15470   3 
  13  -1  -5 74.0471 4.58833   2 
 -13  -1   5 70.0797 3.20429   3 
 -14   1   5 1.44840 0.66336   1 
 -14  -1  -5 1.26758 1.13367   3 
 -14  -1  -5 -0.4992 0.89949   1 
 -14  -1   5 0.14757 0.49734   3 
  14  -1  -5 -0.3523 1.34517   2 
 -14   1  -5 -0.3646 1.30607   3 
 -15  -1  -5 17.0416 2.77618   3 
 -15  -1  -5 19.8481 3.56487   1 
 -15   1  -5 16.4765 2.91668   3 
  15  -1  -5 20.6674 2.88446   2 
 -16  -1  -5 1.05983 1.26984   3 
 -16  -1  -5 0.72577 1.42035   1 
 -16   1   5 0.20323 0.56279   1 
  16  -1  -5 -1.2804 1.33865   2 
 -16   1  -5 -0.4261 1.24168   3 
 -17  -1  -5 66.2066 4.69362   3 
 -17  -1  -5 69.5089 5.21274   1 
  17  -1  -5 70.4916 5.04341   2 
 -18  -1  -5 43.2224 3.70088   3 
 -18  -1  -5 45.9359 4.26517   1 
 -18   1  -5 43.2294 4.50504   3 
  18  -1  -5 47.6078 4.13732   2 
 -18   1  -5 35.2782 3.91592   1 
 -19  -1  -5 12.7445 2.60956   1 
 -19   1  -5 14.1096 3.19530   3 
 -19   1  -5 7.08133 2.01756   1 
  19  -1  -5 14.6083 2.67256   2 
   0  -2  -5 0.45923 0.92011   3 
   0   2  -5 0.46331 0.60591   1 
   0  -2   5 0.14380 0.46338   2 
   0  -2  -5 -0.2851 0.54719   1 
   0   2  -5 0.58867 0.64088   3 
  -1   2   5 16.7809 1.59206   1 
  -1   2   5 19.6136 1.85635   3 
   1   2  -5 16.3849 1.51672   3 
   1  -2   5 15.5017 1.36002   2 
  -1  -2  -5 17.3000 1.83409   3 
   1   2  -5 17.6984 1.50283   1 
  -1  -2  -5 16.5780 1.77037   1 
   1  -2  -5 17.1185 1.86825   3 
   1  -2  -5 17.7723 1.74762   1 
  -1   2  -5 19.0993 1.68886   1 
   1   2   5 19.6838 2.09369   3 
   1   2   5 17.1387 1.76636   1 
  -1  -2   5 17.5597 1.12370   2 
  -1   2  -5 15.9635 1.64749   3 
  -2  -2  -5 718.121 21.9110   3 
  -2   2   5 720.177 21.9745   3 
  -2  -2  -5 759.932 22.2112   1 
  -2   2   5 746.122 21.7472   1 
   2   2  -5 753.049 21.4309   1 
   2   2  -5 771.052 21.1361   3 
   2  -2   5 753.625 21.3335   2 
   2   2   5 745.382 21.9841   3 
  -2  -2   5 714.032 20.3947   2 
  -2   2  -5 786.865 23.0278   1 
   2   2   5 723.503 21.9837   1 
   2  -2  -5 732.792 21.7815   1 
  -2   2  -5 733.995 21.3598   2 
  -3   2   5 823.722 23.8162   1 
  -3  -2  -5 825.562 24.4383   1 
   3   2  -5 825.085 22.8916   3 
   3  -2   5 795.415 23.5514   2 
  -3   2   5 809.733 24.2051   3 
  -3  -2  -5 820.406 24.0611   3 
   3   2   5 847.124 24.2142   3 
   3   2   5 842.922 24.3242   1 
   3  -2  -5 794.278 23.8423   1 
  -3   2  -5 817.248 23.7047   2 
  -4   2   5 8.76671 2.03203   3 
  -4  -2  -5 7.61284 1.44003   1 
  -4   2   5 9.84634 1.46987   1 
   4  -2   5 9.38583 1.50285   2 
  -4  -2  -5 9.65519 1.74470   3 
   4   2  -5 8.07515 1.07638   1 
   4  -2  -5 8.18910 1.42278   1 
   4   2   5 7.79266 1.85095   3 
   4   2   5 9.45535 1.80842   1 
  -5  -2  -5 100.930 4.61277   3 
   5  -2   5 96.8045 4.45814   2 
  -5  -2  -5 103.920 5.00272   1 
  -5   2   5 98.0782 4.19211   1 
   5   2  -5 98.7601 3.77771   1 
   5  -2  -5 107.253 4.86180   2 
   5  -2  -5 97.8473 4.31038   1 
  -5   2  -5 94.6538 4.47448   2 
  -6   2   5 29.6232 2.16214   1 
  -6  -2  -5 30.3360 2.50965   3 
  -6  -2  -5 30.4595 2.71340   1 
   6   2  -5 31.0749 1.80831   1 
   6  -2   5 31.4199 2.52807   2 
   6  -2  -5 25.9729 2.53381   2 
   6   2   5 31.6444 2.47756   3 
   7   2  -5 172.369 5.80042   1 
   7  -2   5 183.548 7.14248   2 
  -7  -2  -5 167.994 7.44790   1 
  -7  -2  -5 169.190 6.83893   3 
   7  -2  -5 179.491 7.21645   2 
   7   2   5 180.382 6.92542   3 
  -7  -2   5 176.324 5.17485   2 
  -8  -2  -5 129.267 6.18140   1 
  -8   2   5 117.032 4.91548   1 
  -8  -2  -5 118.854 5.36929   3 
   8  -2   5 121.897 5.67279   2 
  -8  -2   5 116.929 4.15570   1 
   8   2   5 122.746 5.38215   3 
   8  -2  -5 109.655 5.47809   2 
  -9  -2  -5 6.42222 1.98607   1 
  -9  -2  -5 6.36550 1.57146   3 
   9  -2   5 3.44816 1.58258   2 
  -9   2   5 5.65477 1.23978   1 
  -9  -2   5 6.43082 0.84270   2 
  -9  -2   5 7.62775 1.01698   1 
   9  -2  -5 6.54018 1.92557   2 
 -10  -2  -5 28.4641 2.61506   3 
 -10   2   5 24.1089 1.96880   1 
 -10  -2  -5 22.9021 2.79417   1 
  10  -2   5 23.8883 2.93365   2 
 -10  -2   5 25.0853 1.62100   2 
 -10  -2   5 25.9969 1.69896   1 
  10  -2  -5 23.8225 2.89987   2 
  11  -2   5 68.5188 4.72772   2 
 -11  -2  -5 75.9566 4.97119   1 
 -11  -2  -5 73.5205 4.28369   3 
 -11  -2   5 65.7558 3.01758   2 
  11  -2  -5 68.9796 4.64137   2 
 -12  -2  -5 51.9448 3.65799   3 
  12  -2   5 48.8278 4.23263   2 
 -12  -2  -5 52.3979 4.24615   1 
  12  -2  -5 53.2673 4.13440   2 
 -12  -2   5 47.5200 2.60149   2 
 -12   2  -5 49.2457 4.35835   3 
 -13  -2  -5 37.7806 3.72854   1 
  13  -2   5 38.9748 3.97585   2 
 -13  -2  -5 42.4992 3.47990   3 
  13  -2  -5 40.8156 3.87466   2 
 -13  -2   5 39.6780 2.55576   2 
 -13   2  -5 36.2569 4.03446   3 
  14  -2   5 9.47792 2.55283   2 
 -14  -2  -5 5.73907 1.77176   3 
 -14  -2  -5 3.54309 1.70007   1 
 -14   2  -5 3.76064 1.87813   3 
  14  -2  -5 3.46529 1.79587   2 
 -15  -2  -5 202.122 9.58585   1 
 -15  -2  -5 196.088 8.35380   3 
  15  -2  -5 201.218 9.27246   2 
 -15   2  -5 207.424 10.2081   3 
 -16  -2  -5 9.14087 2.23643   1 
  16  -2   5 4.56621 2.10990   2 
 -16  -2  -5 6.07531 1.70249   3 
  16  -2  -5 7.08903 3.01923   2 
 -16   2  -5 6.90266 2.45292   3 
 -17  -2  -5 39.4234 3.94717   1 
  17  -2   5 45.8875 4.59139   2 
 -17  -2  -5 38.3824 3.15284   3 
  17  -2  -5 37.5695 4.28472   2 
 -17   2  -5 41.6844 4.70480   3 
 -18  -2  -5 94.7881 6.20967   1 
  18  -2  -5 101.727 6.81162   2 
 -18   2  -5 93.5819 7.13476   3 
 -19  -2  -5 25.2909 3.18554   1 
 -19   2  -5 38.6608 5.13429   3 
  19  -2  -5 23.9090 4.07408   2 
   0  -3   5 123.615 4.61039   2 
   0  -3  -5 114.016 5.50244   1 
   1  -3   5 366.751 11.5804   2 
  -1  -3  -5 375.600 12.7889   1 
  -1  -3   5 364.821 11.2316   2 
   1  -3  -5 382.687 12.7612   1 
   2   3  -5 -1.2961 0.63789   1 
   2   3  -5 2.42101 0.92176   3 
  -2  -3  -5 1.32540 1.18479   1 
   2  -3   5 0.30492 0.78093   2 
  -2  -3   5 0.59631 0.56103   2 
   2  -3  -5 2.66496 1.38533   1 
   3   3  -5 706.706 20.8068   1 
  -3  -3  -5 688.623 21.6299   1 
   3   3  -5 685.179 19.7243   3 
  -3  -3  -5 684.100 21.0225   3 
   3  -3   5 680.544 20.5466   2 
  -3  -3   5 687.683 19.5091   2 
   3  -3  -5 702.142 21.2886   1 
   4   3  -5 47.1594 2.92573   1 
   4  -3   5 48.1596 3.14519   2 
  -4  -3  -5 46.6604 3.18589   3 
  -4  -3  -5 48.8213 3.58154   1 
   4  -3  -5 49.8402 3.40550   1 
  -5  -3  -5 857.173 25.6188   3 
   5   3  -5 860.479 25.1896   1 
   5  -3   5 873.600 25.6037   2 
  -5  -3   5 813.028 23.9178   2 
   5  -3  -5 893.349 25.9643   1 
  -6  -3  -5 412.276 13.6242   3 
   6   3  -5 392.606 13.1371   1 
   6  -3   5 426.629 13.9437   2 
   6  -3  -5 434.732 14.4687   2 
  -6  -3   5 419.455 13.1434   1 
  -7  -3  -5 540.703 17.1603   3 
   7   3  -5 511.133 16.7512   1 
   7  -3   5 556.333 17.6564   2 
  -7  -3  -5 564.739 18.4978   1 
   7  -3  -5 541.511 17.9551   2 
  -7  -3   5 562.403 16.6534   1 
   8  -3   5 247.961 9.61934   2 
   8   3  -5 221.219 8.62199   1 
  -8  -3  -5 242.320 10.1166   1 
  -8  -3  -5 242.603 8.96463   3 
   8  -3  -5 260.953 10.0569   2 
  -8  -3   5 251.988 8.43142   1 
  -9  -3  -5 386.600 14.0996   1 
   9  -3   5 378.409 13.3947   2 
  -9  -3  -5 376.529 12.6138   3 
  -9  -3   5 381.033 11.9409   1 
   9  -3  -5 370.675 13.5953   2 
  -9  -3   5 358.596 11.1634   2 
  10  -3   5 34.7309 3.58451   2 
 -10  -3  -5 29.8830 3.36928   1 
 -10  -3  -5 33.1770 2.78890   3 
 -10  -3   5 33.5090 2.22990   1 
  10  -3  -5 34.1691 3.64011   2 
 -10  -3   5 31.8759 1.68972   2 
 -11  -3  -5 1.69972 1.44488   1 
 -11  -3  -5 -0.0640 1.03125   3 
  11  -3   5 1.70511 1.61865   2 
 -11  -3   5 0.27433 0.74548   1 
 -11  -3   5 0.01281 0.68151   2 
  11  -3  -5 1.11227 1.82175   2 
 -12  -3  -5 11.8658 2.00047   3 
 -12  -3  -5 12.0454 2.76830   1 
  12  -3   5 7.92443 2.36029   2 
  12  -3  -5 17.1380 3.49450   2 
  13  -3   5 40.3182 4.31450   2 
 -13  -3  -5 39.3219 2.93679   3 
 -13  -3  -5 41.6544 3.99783   1 
  13  -3  -5 41.6388 4.16694   2 
 -14  -3  -5 0.80014 1.00242   3 
 -14  -3  -5 -0.5209 0.91020   1 
  14  -3   5 2.13256 2.14125   2 
  14  -3  -5 3.42508 2.89023   2 
 -14   3  -5 1.06946 1.91073   3 
 -15  -3  -5 13.0411 1.91974   3 
  15  -3   5 14.6658 3.07026   2 
 -15   3  -5 15.7371 3.63371   3 
  15  -3  -5 12.6787 2.59291   2 
 -16  -3  -5 1.53199 1.39307   1 
  16  -3   5 -0.2741 2.01151   2 
  16  -3  -5 2.73131 2.00294   2 
 -16   3  -5 0.70174 1.89948   3 
  17  -3   5 45.1807 4.91128   2 
 -17  -3  -5 38.5539 4.16851   1 
 -17   3  -5 40.6586 5.07281   3 
  17  -3  -5 46.9794 5.05668   2 
 -18  -3  -5 32.2491 3.96874   1 
  18  -3   5 38.3203 4.54490   2 
 -18   3  -5 44.9975 7.56189   3 
   0  -4  -5 0.65834 1.32624   1 
   0  -4   5 -0.5395 0.79053   2 
   1  -4   5 6.86506 1.55532   2 
  -1  -4  -5 6.98905 1.78371   1 
  -1  -4   5 6.35749 1.35563   2 
   1  -4  -5 4.54206 1.65245   1 
  -2  -4  -5 315.453 12.2734   1 
   2  -4   5 333.113 11.1172   2 
   2  -4  -5 321.880 12.1519   1 
  -2  -4   5 324.556 10.3773   2 
   3   4  -5 337.179 10.9293   3 
   3  -4   5 354.488 12.0156   2 
   3   4  -5 329.898 10.9261   3 
  -3  -4  -5 376.457 13.3660   1 
  -3  -4   5 355.742 10.9986   2 
   3  -4  -5 363.552 13.0387   1 
  -4  -4  -5 4.38100 1.67215   1 
   4  -4   5 5.15709 1.62519   2 
   4   4  -5 2.17631 0.76640   3 
   4  -4  -5 4.74724 1.86537   1 
   4  -4  -5 3.35537 1.71988   2 
  -4  -4   5 5.16120 1.06472   2 
   5  -4   5 52.2773 3.72318   2 
  -5  -4  -5 45.5123 4.03895   1 
   5  -4  -5 46.2134 4.07832   2 
   5  -4  -5 49.4944 3.97608   1 
  -5  -4   5 47.5503 2.44482   2 
   6  -4   5 16.3932 2.62270   2 
  -6  -4  -5 14.5608 2.94970   1 
  -6  -4   5 15.8522 1.36271   2 
   6  -4  -5 12.8868 2.70845   2 
   7  -4   5 90.1464 5.26661   2 
  -7  -4  -5 85.3000 5.57012   1 
  -7  -4   5 68.6748 3.84851   2 
   7  -4  -5 92.4822 5.80341   2 
  -7  -4   5 82.1193 3.23500   2 
   8  -4   5 62.2159 4.60070   2 
  -8  -4  -5 61.1334 4.78518   1 
   8  -4  -5 65.2407 5.08235   2 
  -9  -4  -5 0.92312 1.10429   1 
   9  -4   5 1.00460 1.72670   2 
   9  -4  -5 2.03675 1.89298   2 
  10  -4   5 10.5959 2.59948   2 
 -10  -4  -5 12.7076 2.89727   1 
  10  -4  -5 10.8797 2.92286   2 
 -11  -4  -5 33.6794 3.88415   1 
  11  -4   5 32.6531 4.03747   2 
  11  -4  -5 36.5218 4.69762   2 
 -12  -4  -5 15.7759 3.17059   1 
  12  -4   5 19.1889 3.34196   2 
  12  -4  -5 28.1434 4.26799   2 
  13  -4   5 18.2730 3.64170   2 
 -13  -4  -5 14.5506 2.68704   1 
  13  -4  -5 22.7672 4.14296   2 
  14  -4   5 2.50934 2.09313   2 
 -14  -4  -5 2.31097 1.64907   1 
 -14   4  -5 -0.4346 1.97035   3 
  14  -4  -5 1.42607 1.73500   2 
 -15  -4  -5 117.551 7.36014   1 
  15  -4   5 120.642 7.87981   2 
 -15   4  -5 115.299 8.32612   3 
  15  -4  -5 115.467 7.70110   2 
 -16  -4  -5 4.04208 2.11975   1 
  16  -4   5 6.37443 4.13150   2 
 -16   4  -5 2.23834 4.35128   3 
  16  -4  -5 10.0108 4.47272   2 
   0  -5  -5 46.2867 4.41446   1 
   0  -5   5 49.0967 3.50972   2 
  -1  -5  -5 117.751 6.88525   1 
   1  -5   5 116.768 5.71188   2 
   1  -5  -5 109.452 6.69529   1 
   2   5  -5 0.29108 0.72968   3 
  -2  -5  -5 -0.8222 1.33776   1 
   2  -5   5 2.98696 1.49017   2 
   2  -5  -5 -0.6091 1.18018   1 
  -2  -5   5 0.18989 1.00882   2 
   3  -5   5 238.865 9.56991   2 
  -3  -5  -5 235.579 10.7281   1 
  -3  -5   5 234.553 8.51401   2 
   3  -5  -5 253.045 10.8399   2 
   3  -5  -5 223.779 10.4073   1 
  -4  -5  -5 15.2251 2.96919   1 
   4  -5   5 20.0812 3.03903   2 
   4  -5  -5 15.7487 3.09980   2 
   4  -5  -5 19.7403 3.45302   1 
  -4  -5   5 21.0306 2.08883   2 
   5  -5   5 303.114 11.9837   2 
  -5  -5  -5 322.388 13.3091   1 
   5  -5  -5 333.382 13.2369   2 
  -5  -5   5 306.465 10.3284   2 
   6  -5   5 205.300 8.82496   2 
  -6  -5  -5 178.028 9.41227   1 
  -6  -5   5 176.061 6.54144   2 
   6  -5  -5 183.364 9.28025   2 
  -7  -5  -5 209.275 10.7789   1 
   7  -5   5 219.402 9.48658   2 
  -7  -5   5 187.154 6.75668   2 
  -8  -5  -5 119.376 7.80211   1 
   8  -5   5 100.050 6.38768   2 
  -8  -5   5 104.747 4.48170   2 
   8  -5  -5 95.3771 6.87207   2 
   9  -5   5 132.495 7.60905   2 
  -9  -5  -5 149.435 8.46641   1 
   9  -5  -5 145.255 8.37614   2 
  10  -5   5 14.5362 3.31126   2 
 -10  -5  -5 14.8485 3.29775   1 
  10  -5  -5 11.5469 3.32441   2 
  11  -5   5 0.01610 1.75098   2 
 -11  -5  -5 -0.3742 1.47862   1 
  11  -5  -5 -0.3555 2.29082   2 
  12  -5   5 7.17119 2.76884   2 
 -12  -5  -5 5.31638 2.10105   1 
  12  -5  -5 2.83595 2.53059   2 
 -13  -5  -5 11.2685 3.04979   1 
  13  -5   5 14.3619 3.52735   2 
  13  -5  -5 12.7340 3.71798   2 
   0  -6  -5 0.51883 1.78430   2 
   0  -6  -5 -2.1476 1.45743   1 
   0  -6   5 -0.7796 1.20243   2 
   1   6  -5 2.16251 1.49590   3 
   1  -6   5 3.26159 1.52459   2 
  -1  -6  -5 4.77185 2.44430   1 
  -1  -6   5 0.28002 1.41430   2 
   1  -6  -5 2.89923 2.11938   2 
   1  -6  -5 4.42700 2.38851   1 
  -2  -6  -5 124.578 7.92119   1 
   2  -6   5 116.281 6.52177   2 
  -2  -6   5 119.323 5.86752   2 
   2  -6  -5 112.448 7.44421   1 
   2  -6  -5 132.065 7.96661   2 
  -3  -6  -5 144.280 8.80127   1 
   3  -6   5 150.413 7.53846   2 
   3  -6  -5 136.764 8.35307   2 
  -3  -6   5 143.856 6.35792   2 
  -4  -6  -5 -2.7477 1.54974   1 
   4  -6  -5 0.39697 1.97374   2 
  -4  -6   5 -0.5352 1.19284   2 
  -5  -6  -5 23.1281 4.34305   1 
   5  -6   5 21.1695 3.10718   2 
   5  -6  -5 19.4494 3.65041   2 
  -6  -6  -5 4.76708 2.82808   1 
   6  -6   5 4.05092 2.13092   2 
   6  -6  -5 5.46243 2.72016   2 
   7  -6   5 24.9625 3.65027   2 
  -7  -6  -5 34.9799 4.68940   1 
   7  -6  -5 37.3928 5.01819   2 
  -8  -6  -5 27.2363 4.88282   1 
   8  -6   5 21.6856 3.47374   2 
   8  -6  -5 16.3876 3.70596   2 
   9  -6   5 -1.6369 1.98025   2 
  -9  -6  -5 -3.5685 1.46736   1 
   9  -6  -5 4.09948 3.25945   2 
   0   0  -6 1759.25 49.3818   3 
   0   0   6 1803.89 49.5989   3 
   1   0  -6 83.9086 3.76048   3 
  -1   0  -6 80.8557 3.67293   3 
   1   0   6 84.2392 3.76085   3 
  -2   0   6 20.2765 1.79083   3 
  -2   0  -6 22.8510 1.89775   3 
   2   0  -6 22.2317 1.86858   3 
   2   0   6 21.9390 1.81575   3 
   2   0  -6 17.7213 1.17598   1 
  -3   0   6 280.887 9.23890   3 
  -3   0  -6 274.220 9.33650   3 
  -3   0  -6 274.828 9.03005   2 
   3   0  -6 277.279 8.03020   1 
   3   0   6 276.417 9.36435   3 
   3   0  -6 289.134 8.94889   3 
  -4   0  -6 541.274 16.8560   3 
   4   0  -6 576.475 16.3291   3 
  -4   0  -6 528.418 16.5588   2 
   4   0   6 557.639 16.9105   3 
  -5   0  -6 0.95188 0.79073   2 
  -5   0   6 2.41191 0.78811   3 
  -5   0  -6 1.89119 0.89020   3 
   5   0  -6 2.05351 0.68142   2 
  -6   0  -6 57.5435 3.52605   3 
   6   0  -6 60.0412 2.63878   2 
  -6   0   6 61.2667 2.85435   3 
  -6   0  -6 54.8581 3.20323   2 
  -7   0   6 1055.72 30.2428   3 
  -7   0  -6 1064.57 31.4215   3 
   7   0  -6 1078.46 29.9452   2 
   8   0  -6 1.79508 0.88173   2 
  -8   0  -6 0.14640 0.86863   3 
  -8   0   6 0.30291 0.56365   3 
   9   0  -6 728.212 20.7546   2 
  -9   0   6 680.874 20.8620   3 
  -9   0  -6 710.161 22.1908   3 
 -10   0  -6 6.43163 1.87731   3 
 -10   0   6 5.22627 1.19521   3 
  10   0  -6 7.14034 1.44505   2 
  11   0  -6 58.4848 3.43491   2 
 -11   0  -6 64.9788 4.39896   3 
 -11   0   6 57.8510 3.22565   3 
  12   0  -6 269.856 9.67231   2 
 -12   0  -6 277.993 11.0634   3 
 -13   0  -6 68.9984 4.89712   3 
 -13   0  -6 70.0702 5.00301   1 
  13   0  -6 68.0448 4.02489   2 
 -14   0  -6 29.5884 3.36226   1 
  14   0  -6 28.1002 2.80653   2 
 -14   0  -6 25.1963 3.25177   3 
  15   0  -6 95.5016 5.01198   2 
 -15   0  -6 91.9316 5.96714   3 
 -15   0  -6 85.9285 5.89678   1 
 -16   0  -6 50.7028 4.35845   3 
 -16   0  -6 46.3785 4.34548   1 
 -17   0  -6 275.796 13.7293   1 
 -17   0  -6 271.436 11.8885   3 
 -18   0  -6 39.8292 4.07400   3 
 -18   0  -6 29.7974 3.66267   1 
 -19   0  -6 338.410 13.8384   3 
 -19   0  -6 308.107 13.7029   1 
   0  -1  -6 1.25391 0.69404   1 
   0   1   6 -0.1996 0.52000   3 
   0   1  -6 0.62952 0.67824   3 
   0  -1  -6 0.07491 0.65796   3 
   0   1   6 0.45281 0.50919   1 
  -1  -1  -6 128.842 5.00275   1 
   1   1  -6 125.492 4.71151   3 
  -1   1   6 125.185 4.95439   3 
  -1   1   6 131.325 4.70358   1 
   1   1  -6 128.439 3.93173   2 
  -1  -1  -6 122.664 5.08756   3 
  -1   1  -6 123.132 4.38083   2 
  -1   1  -6 129.364 6.52121   3 
   1  -1  -6 131.326 4.73021   1 
   1   1   6 128.242 5.06446   3 
  -1  -1   6 124.707 4.72869   3 
   1  -1  -6 126.890 5.09256   3 
   2   1  -6 3.24450 0.84746   3 
  -2   1   6 2.90484 0.75092   1 
  -2   1   6 3.45724 0.89952   3 
  -2  -1  -6 3.17205 0.89718   1 
  -2  -1  -6 3.48946 1.10414   3 
   2  -1   6 3.08007 0.83208   2 
   2  -1  -6 2.22570 0.85819   3 
  -2  -1   6 3.91760 0.86391   3 
   2  -1  -6 2.41836 0.78671   1 
  -2   1  -6 1.14355 0.84278   3 
   2   1   6 2.45689 0.92550   3 
  -2   1  -6 3.54132 0.78961   2 
  -3  -1  -6 19.4783 1.89510   1 
   3  -1   6 20.1350 1.65996   2 
  -3   1   6 18.5313 1.32938   1 
  -3   1   6 19.3652 1.73576   3 
   3   1  -6 19.2360 1.48227   3 
   3   1  -6 20.7641 1.15405   1 
  -3  -1  -6 19.6925 1.95221   3 
  -3   1  -6 18.4650 1.56510   2 
  -3  -1   6 20.1950 1.47613   3 
   3   1   6 18.7818 1.84616   3 
   3  -1  -6 19.7248 1.45300   1 
  -3   1  -6 20.0721 1.92102   3 
   3  -1  -6 17.9577 1.87119   3 
  -4  -1  -6 111.541 4.89364   3 
  -4   1   6 111.400 3.99178   1 
  -4  -1  -6 109.033 5.09193   1 
  -4   1   6 114.242 4.75170   3 
   4  -1   6 111.889 4.55674   2 
   4   1  -6 116.403 3.45526   1 
   4   1  -6 100.059 4.26072   3 
  -4   1  -6 105.526 4.47156   2 
   4  -1  -6 112.996 4.03258   1 
  -4   1  -6 107.851 4.89655   3 
   4   1   6 121.244 5.48694   3 
  -4  -1   6 110.206 4.08675   3 
  -5  -1  -6 111.620 5.26058   1 
  -5  -1  -6 114.819 5.04941   3 
   5  -1   6 119.557 4.90168   2 
  -5   1   6 122.576 5.14424   3 
  -5   1   6 118.089 4.05256   1 
  -5   1  -6 112.762 5.17500   3 
   5  -1  -6 113.211 4.06992   1 
  -5   1  -6 108.116 4.75598   2 
   5  -1  -6 108.977 4.59750   2 
   5   1   6 108.940 4.99983   3 
  -5  -1   6 114.995 4.10157   3 
   6  -1   6 28.2004 2.40800   2 
  -6  -1  -6 30.0771 2.71307   1 
  -6  -1  -6 28.0690 2.47683   3 
  -6   1   6 25.4705 2.10291   3 
  -6   1   6 27.4218 1.52596   1 
  -6   1  -6 28.3305 2.55125   3 
  -6   1  -6 28.6616 2.22873   2 
   6   1   6 26.2675 2.26798   3 
  -6  -1   6 27.4828 1.59064   3 
   6  -1  -6 24.3915 2.14582   2 
  -7   1   6 85.1681 3.17315   1 
  -7  -1  -6 89.5357 4.56366   3 
  -7  -1  -6 84.9767 4.74267   1 
   7  -1   6 85.8138 4.38320   2 
  -7   1   6 80.2388 4.06068   3 
   7   1   6 82.9738 4.29810   3 
   7  -1  -6 91.6011 4.12187   2 
  -7  -1   6 80.0155 3.18376   3 
  -7   1  -6 82.7144 4.55656   3 
  -8  -1  -6 109.502 5.72065   1 
  -8  -1  -6 110.123 5.37454   3 
   8  -1   6 113.519 5.36097   2 
  -8   1   6 111.391 3.93098   1 
  -8   1  -6 114.093 5.63643   3 
   8  -1  -6 108.178 4.87105   2 
  -8  -1   6 112.288 3.97694   3 
  -9  -1  -6 14.0792 2.50361   1 
   9  -1   6 16.7555 4.21004   2 
  -9  -1  -6 12.7896 2.35415   3 
  -9   1   6 15.8538 1.16054   1 
   9  -1  -6 15.8793 2.13766   2 
  -9  -1   6 13.5702 1.15493   3 
  -9   1  -6 17.3044 2.79645   3 
 -10  -1  -6 9.11536 2.41832   1 
 -10  -1  -6 9.11667 2.03420   3 
  10  -1   6 8.38794 1.95633   2 
 -10   1   6 9.11167 0.96709   1 
 -10   1  -6 7.16972 1.91179   3 
  10  -1  -6 11.9288 2.16513   2 
 -10  -1   6 9.40892 1.04550   3 
 -11   1   6 469.580 13.7029   1 
  11  -1   6 469.352 16.0576   2 
 -11  -1  -6 482.601 16.6891   1 
 -11  -1  -6 456.428 15.9212   3 
 -11  -1   6 452.785 13.6975   3 
 -11   1  -6 485.555 16.6357   3 
  11  -1  -6 466.866 15.2959   2 
 -12  -1  -6 277.386 11.4675   1 
 -12  -1  -6 277.516 10.9623   3 
  12  -1   6 283.263 11.1292   2 
 -12   1   6 286.348 8.73571   1 
 -12  -1   6 278.528 8.74629   3 
  12  -1  -6 295.461 10.5674   2 
 -12   1  -6 273.844 11.4640   3 
 -13  -1  -6 0.84390 1.19109   3 
 -13   1   6 2.53938 0.62790   1 
 -13  -1  -6 1.11799 1.39854   1 
 -13   1  -6 2.31036 1.64270   3 
  13  -1  -6 2.78256 1.66826   2 
 -14  -1  -6 156.027 7.67781   3 
 -14  -1  -6 157.475 8.18128   1 
  14  -1  -6 164.354 7.48189   2 
 -14   1  -6 163.430 8.41215   3 
 -15  -1  -6 133.517 7.57076   1 
 -15  -1  -6 145.433 7.38033   3 
 -15   1  -6 147.918 8.13187   3 
  15  -1  -6 148.492 7.13583   2 
 -16  -1  -6 4.17589 1.64793   1 
 -16  -1  -6 3.35947 1.47250   3 
 -16   1  -6 2.14666 1.54098   3 
  16  -1  -6 4.65328 2.10043   2 
 -17  -1  -6 0.30968 1.17061   1 
 -17  -1  -6 5.10219 1.69833   3 
  17  -1  -6 3.86862 1.73835   2 
 -17   1  -6 3.62403 1.74853   3 
 -18  -1  -6 16.0860 3.15129   3 
 -18  -1  -6 16.6743 3.31180   1 
 -18   1  -6 20.4078 3.78278   1 
  18  -1  -6 25.8103 2.95189   2 
 -18   1  -6 12.7453 2.81317   3 
 -19  -1  -6 4.89964 2.20537   1 
 -19  -1  -6 4.65141 1.80719   3 
 -19   1  -6 5.09389 2.28519   3 
 -19   1  -6 5.10115 2.46067   1 
   0  -2  -6 1018.96 30.0975   3 
   0  -2  -6 1086.28 30.0321   1 
   0   2   6 1018.58 29.9276   3 
   0   2  -6 1024.77 29.5049   3 
   0   2   6 1003.22 29.7458   1 
   0  -2   6 1054.20 28.7556   2 
   0   2  -6 1030.73 29.5763   1 
   1   2  -6 59.9785 2.88600   3 
  -1  -2  -6 57.2903 3.27418   1 
  -1  -2  -6 54.0242 3.30573   3 
  -1   2   6 54.3816 3.19566   3 
   1   2  -6 51.7088 2.76797   1 
   1  -2   6 54.9980 2.57031   2 
  -1   2   6 56.4181 3.36141   1 
  -1  -2   6 56.4972 2.17005   2 
  -1   2  -6 54.4868 2.54101   2 
   1  -2  -6 59.4739 3.20361   1 
  -1   2  -6 57.4320 3.12274   3 
   1   2   6 51.3120 3.01027   1 
   1  -2  -6 53.8113 3.33779   3 
   1   2   6 47.7665 3.06869   3 
  -2  -2  -6 8.28312 1.42461   1 
   2   2  -6 11.7989 1.29700   1 
   2   2  -6 12.8219 1.40833   3 
  -2   2   6 13.2980 1.72566   3 
   2  -2   6 10.5449 1.38475   2 
  -2  -2  -6 13.9183 2.11680   3 
   2  -2  -6 12.1156 1.79346   1 
  -2   2  -6 9.25155 1.57239   3 
  -2   2  -6 11.9341 1.30929   2 
   2   2   6 8.90318 1.46106   3 
   2   2   6 12.6318 1.59103   1 
   3  -2   6 170.082 6.10712   2 
   3   2  -6 144.097 6.01871   3 
  -3  -2  -6 178.842 6.95285   1 
  -3  -2  -6 171.736 6.70268   3 
  -3   2   6 171.441 6.63844   1 
   3   2   6 170.669 6.65592   3 
   3  -2  -6 176.146 6.40494   1 
  -3   2  -6 159.734 6.60541   3 
  -3   2  -6 173.883 6.20115   2 
   4   2  -6 376.673 10.6510   3 
  -4  -2  -6 359.644 12.1480   3 
  -4   2   6 359.160 11.6299   1 
   4   2  -6 357.476 11.0731   1 
  -4  -2  -6 373.585 12.5745   1 
   4  -2   6 367.706 11.7068   2 
   4  -2  -6 383.328 11.8197   1 
  -4   2  -6 367.719 12.3539   3 
   4   2   6 345.990 12.0604   3 
  -4   2  -6 371.326 11.8880   2 
  -5  -2  -6 2.85323 1.25612   1 
  -5  -2  -6 2.57312 1.15895   3 
   5   2  -6 0.58793 0.63904   1 
   5  -2   6 2.20485 1.05168   2 
  -5   2   6 2.72251 0.84804   1 
   5  -2  -6 1.57478 0.89559   1 
  -5   2  -6 3.03172 1.34007   3 
   5   2   6 1.56448 0.92871   3 
   5  -2  -6 1.45143 1.10740   2 
  -5   2  -6 2.65169 0.87655   2 
   6  -2   6 37.2584 2.88979   2 
  -6  -2  -6 45.0130 3.41687   1 
  -6   2   6 39.2472 2.67207   1 
  -6  -2  -6 41.8446 3.10344   3 
   6   2  -6 45.4347 2.10620   1 
  -6   2  -6 40.3719 3.23164   3 
   6  -2  -6 47.8466 3.25974   2 
   6  -2  -6 40.2638 2.60744   1 
   6   2   6 38.3842 3.31586   3 
  -7  -2  -6 751.326 23.5891   1 
   7  -2   6 757.940 22.6804   2 
  -7  -2  -6 757.025 22.7812   3 
   7   2  -6 688.240 20.8806   1 
   7  -2  -6 755.478 22.7394   2 
  -7   2  -6 766.452 23.4163   3 
  -8  -2  -6 0.82418 1.09525   3 
  -8   2   6 0.04894 0.70445   1 
  -8  -2  -6 0.94684 1.26286   1 
   8  -2  -6 2.75595 1.35638   2 
  -8   2  -6 1.74544 1.32934   3 
  -9  -2  -6 521.570 17.1761   3 
  -9  -2  -6 530.330 18.2112   1 
   9  -2   6 530.458 17.4264   2 
  -9   2   6 505.446 16.1692   1 
  -9   2  -6 538.469 18.1211   3 
   9  -2  -6 564.642 19.5210   2 
  10  -2   6 4.61043 1.70651   2 
 -10  -2  -6 2.82992 1.38384   3 
 -10   2   6 4.13094 1.06071   1 
 -10  -2  -6 3.56301 1.62295   1 
  10  -2  -6 5.72124 1.67770   2 
 -10   2  -6 4.51343 1.70861   3 
  11  -2   6 37.7255 3.61241   2 
 -11  -2  -6 36.1252 3.24523   3 
 -11   2   6 38.0640 2.58611   1 
 -11  -2  -6 44.7291 3.95740   1 
 -11   2  -6 42.1966 4.06822   3 
  11  -2  -6 43.3026 3.72555   2 
  12  -2   6 213.011 9.44337   2 
 -12  -2  -6 216.526 9.93145   1 
  12  -2  -6 219.202 9.21578   2 
 -12   2  -6 219.354 10.0246   3 
  13  -2   6 52.6235 4.55000   2 
 -13  -2  -6 49.0904 4.35746   1 
 -13  -2  -6 47.6609 3.85951   3 
 -13   2  -6 51.3486 4.65152   3 
  13  -2  -6 54.3682 4.38820   2 
  14  -2   6 26.5797 4.02137   2 
 -14  -2  -6 19.2489 3.30769   1 
 -14  -2  -6 24.5156 2.93649   3 
  14  -2  -6 24.2521 3.36473   2 
 -14   2  -6 21.9277 3.81865   3 
 -15  -2  -6 79.7451 5.75907   1 
 -15  -2  -6 82.8850 5.01803   3 
  15  -2   6 86.7431 6.13980   2 
  15  -2  -6 80.0516 5.52922   2 
 -16  -2  -6 36.3881 3.33553   3 
  16  -2   6 41.6058 4.45219   2 
 -16  -2  -6 40.1795 4.89665   1 
 -16   2  -6 41.7876 4.74138   3 
 -17  -2  -6 225.656 9.32064   3 
 -17  -2  -6 229.043 10.7923   1 
 -17   2  -6 230.587 11.5473   3 
  17  -2  -6 223.186 10.4221   2 
 -18  -2  -6 31.2680 3.91363   1 
 -18   2  -6 33.4073 4.57972   3 
  18  -2  -6 31.1139 4.56515   2 
   0  -3   6 0.41099 0.66987   2 
   0   3  -6 -0.6450 0.76121   3 
   0  -3  -6 1.85443 1.12354   1 
  -1  -3  -6 68.2398 4.14830   1 
   1   3  -6 68.2483 3.48074   3 
   1  -3   6 67.1358 3.23497   2 
  -1   3  -6 64.8194 3.71839   3 
  -1  -3   6 71.1910 2.93141   2 
   1  -3  -6 65.8247 4.00184   1 
  -2  -3  -6 1.06106 1.20211   1 
   2  -3   6 1.47654 0.96576   2 
   2   3  -6 2.17494 0.95694   3 
  -2  -3  -6 1.01153 1.06001   3 
   2  -3  -6 2.21113 1.01209   1 
  -2  -3   6 0.86114 0.56905   2 
   3   3  -6 11.5785 1.40087   3 
   3   3  -6 12.6444 1.86578   1 
  -3  -3  -6 10.6626 2.05824   3 
  -3  -3  -6 6.83719 1.75583   1 
   3  -3   6 13.6779 2.02362   2 
   3  -3  -6 9.56631 1.64817   1 
  -3  -3   6 11.9539 0.97355   2 
  -4  -3  -6 55.6175 3.72065   3 
  -4  -3  -6 70.3771 5.33755   1 
   4   3  -6 61.8361 3.36423   1 
   4   3  -6 61.2325 2.49060   3 
   4  -3   6 61.5400 3.59131   2 
   4  -3  -6 57.4318 3.74432   1 
   5  -3   6 59.9108 3.70508   2 
  -5  -3  -6 55.4987 3.65477   3 
   5   3  -6 53.2948 3.11071   1 
  -5  -3  -6 56.1762 4.08483   1 
   5  -3  -6 55.9547 3.68368   1 
   5  -3  -6 48.4765 4.04568   2 
  -6  -3  -6 13.4669 2.27166   3 
   6  -3   6 14.5503 2.34990   2 
  -6  -3  -6 15.0391 2.85319   1 
   6   3  -6 19.2353 2.37076   1 
   6  -3  -6 12.4311 2.19829   2 
   6  -3  -6 16.2523 2.41588   1 
  -7  -3  -6 60.4570 4.40699   1 
   7  -3   6 61.4638 4.03885   2 
  -7  -3  -6 58.2991 3.79370   3 
   7  -3  -6 56.8101 4.21918   2 
   8   3  -6 56.4179 3.37616   1 
   8  -3   6 73.7842 4.58194   2 
  -8  -3  -6 66.7683 4.11297   3 
  -8  -3  -6 68.1895 4.75448   1 
   8  -3  -6 69.3957 4.74543   2 
  -9  -3  -6 14.0579 2.22936   3 
   9  -3   6 13.8665 2.59472   2 
  -9  -3  -6 9.15437 2.10739   1 
   9  -3  -6 13.0251 2.60764   2 
 -10  -3  -6 3.21083 1.48455   3 
  10  -3   6 3.72196 1.83548   2 
 -10  -3  -6 4.48294 2.01324   1 
  10  -3  -6 3.37727 2.08222   2 
 -11  -3  -6 327.477 13.3064   1 
  11  -3   6 332.513 12.6786   2 
 -11  -3  -6 318.697 11.7772   3 
  11  -3  -6 326.745 12.7489   2 
 -11   3  -6 321.788 13.3606   3 
 -12  -3  -6 181.999 9.32841   1 
  12  -3   6 198.705 9.27433   2 
 -12   3  -6 194.188 9.80353   3 
  12  -3  -6 200.484 9.25177   2 
  13  -3   6 2.81942 2.03889   2 
 -13  -3  -6 1.40064 1.32418   1 
 -13  -3  -6 0.29848 1.24420   3 
  13  -3  -6 2.02661 1.49152   2 
 -13   3  -6 -0.8628 1.61428   3 
 -14  -3  -6 102.941 7.74323   1 
  14  -3   6 111.390 6.91642   2 
 -14  -3  -6 101.144 5.27846   3 
 -14   3  -6 116.146 7.65018   3 
  14  -3  -6 104.795 10.3869   2 
 -15  -3  -6 90.8419 4.88789   3 
 -15  -3  -6 107.476 6.80864   1 
  15  -3   6 91.8246 6.57219   2 
 -15   3  -6 97.8239 7.13096   3 
  15  -3  -6 93.8264 6.52346   2 
 -16  -3  -6 2.86027 1.68678   1 
  16  -3   6 1.56088 1.71493   2 
 -16   3  -6 0.15068 1.96775   3 
  16  -3  -6 0.41639 2.05700   2 
 -17  -3  -6 2.53705 1.76120   1 
  17  -3   6 2.98219 2.12447   2 
 -17   3  -6 3.19754 2.42079   3 
  17  -3  -6 1.98843 2.47037   2 
   0  -4   6 435.871 13.5045   2 
   0  -4  -6 424.507 15.2546   1 
   1   4  -6 7.40239 1.64206   3 
   1  -4   6 10.6013 1.78065   2 
  -1  -4  -6 6.73308 1.98701   1 
  -1  -4   6 9.23751 1.46449   2 
   1  -4  -6 7.91591 1.87636   1 
   2   4  -6 7.75678 1.55000   3 
  -2  -4  -6 6.43294 2.00729   1 
   2  -4   6 9.29848 1.78428   2 
   2  -4  -6 11.1262 2.47363   1 
  -2  -4   6 8.12518 1.33261   2 
  -3  -4  -6 45.6238 3.97177   1 
   3   4  -6 50.9522 2.78533   3 
   3  -4   6 47.9438 3.36949   2 
  -3  -4   6 46.6263 2.44449   2 
   3  -4  -6 53.1216 4.12964   1 
   4  -4   6 160.932 6.92562   2 
  -4  -4  -6 166.278 8.03607   1 
  -4  -4   6 148.703 5.34740   2 
   4  -4  -6 182.855 8.46125   2 
   4  -4  -6 160.878 7.63690   1 
  -5  -4  -6 7.75924 2.36695   1 
   5  -4   6 7.60281 2.03595   2 
   5  -4  -6 6.88880 2.08832   2 
  -5  -4   6 5.33147 1.11432   2 
   5  -4  -6 4.39001 1.67665   1 
  -6  -4  -6 24.9781 3.30702   1 
   6  -4   6 25.8445 3.06333   2 
   6  -4  -6 27.9967 3.59838   2 
  -7  -4  -6 363.653 14.0423   1 
   7  -4   6 346.766 12.8532   2 
   7  -4  -6 344.668 13.5255   2 
   8  -4   6 1.30607 1.68316   2 
  -8  -4  -6 2.88347 1.71376   1 
   8  -4  -6 4.88248 2.21956   2 
   9  -4   6 241.015 10.3653   2 
  -9  -4  -6 258.982 11.3782   1 
   9  -4  -6 245.659 10.9748   2 
  10  -4   6 -0.1607 1.54447   2 
 -10  -4  -6 0.13151 1.30824   1 
  10  -4  -6 1.14304 1.48520   2 
 -11  -4  -6 17.5890 3.81919   1 
  11  -4   6 11.6768 2.89680   2 
  11  -4  -6 15.9557 5.39842   2 
 -12  -4  -6 116.305 7.46951   1 
  12  -4   6 127.572 7.48904   2 
  12  -4  -6 121.378 7.57647   2 
 -12   4  -6 120.135 7.85823   3 
 -13  -4  -6 24.3101 4.11600   1 
  13  -4   6 19.8648 3.75790   2 
  13  -4  -6 22.4548 3.91130   2 
 -13   4  -6 28.2498 4.71852   3 
 -14  -4  -6 9.03628 2.28675   1 
  14  -4   6 9.50533 3.11870   2 
 -14   4  -6 12.6674 3.61838   3 
  14  -4  -6 5.92663 2.03137   2 
 -15  -4  -6 44.9089 4.58301   1 
  15  -4   6 33.7424 4.55939   2 
  15  -4  -6 35.2686 5.25482   2 
 -15   4  -6 39.7560 5.20034   3 
 -16  -4  -6 15.1709 3.13643   1 
  16  -4  -6 14.7159 3.90614   2 
 -16   4  -6 22.6246 4.82457   3 
   0   5  -6 0.65499 1.16043   3 
   0  -5  -6 -0.3485 1.46490   1 
   0  -5   6 -0.5573 1.91180   2 
   1  -5   6 31.5695 2.93412   2 
  -1  -5  -6 20.7508 3.09822   1 
  -1  -5   6 32.7977 2.74708   2 
   1  -5  -6 32.8892 3.88805   1 
   2  -5   6 -0.1843 1.32520   2 
   2   5  -6 1.53072 0.71571   3 
  -2  -5  -6 1.33804 1.83884   1 
   2  -5  -6 0.48648 1.51455   1 
  -2  -5   6 1.28363 1.06559   2 
  -3  -5  -6 4.23190 2.46147   1 
   3  -5   6 8.35397 2.08074   2 
   3  -5  -6 6.85325 2.25884   2 
   3  -5  -6 5.85287 2.19770   1 
  -3  -5   6 5.08426 1.33937   2 
  -4  -5  -6 28.1374 3.70174   1 
   4  -5   6 25.9883 3.12806   2 
   4  -5  -6 28.7372 4.00580   2 
  -4  -5   6 25.7752 2.03911   2 
   4  -5  -6 28.6525 3.78951   1 
  -5  -5  -6 19.7293 3.39385   1 
   5  -5   6 22.7915 3.04304   2 
  -5  -5   6 17.2079 1.59527   2 
   5  -5  -6 17.4776 3.21619   2 
   6  -5   6 5.29474 1.98745   2 
  -6  -5  -6 11.3095 3.94019   1 
  -6  -5   6 6.74015 1.12907   2 
   7  -5   6 34.6942 3.76003   2 
  -7  -5  -6 22.7094 3.69273   1 
   7  -5  -6 27.9603 4.23958   2 
  -8  -5  -6 36.4302 4.32041   1 
   8  -5   6 39.7661 4.44306   2 
   8  -5  -6 37.0746 4.76418   2 
  -9  -5  -6 14.8911 3.50611   1 
   9  -5   6 6.92396 2.21424   2 
   9  -5  -6 9.62219 2.87546   2 
  10  -5   6 1.28428 1.91818   2 
 -10  -5  -6 3.58834 2.12702   1 
  10  -5  -6 1.94266 2.29554   2 
  11  -5   6 170.476 9.11454   2 
 -11  -5  -6 165.056 9.49488   1 
  11  -5  -6 160.696 9.42305   2 
 -11   5  -6 175.091 10.1383   3 
  12  -5   6 84.8811 6.40039   2 
 -12  -5  -6 96.3176 6.99363   1 
 -12   5  -6 97.8611 7.78071   3 
  12  -5  -6 72.3087 6.51913   2 
 -13  -5  -6 2.48596 1.81741   1 
  13  -5   6 3.35957 3.02583   2 
  13  -5  -6 -1.7447 3.53531   2 
   0  -6  -6 157.582 8.97970   1 
   0  -6   6 146.774 6.73146   2 
  -1  -6  -6 -0.3403 1.75196   1 
   1   6  -6 3.74068 1.43827   3 
   1  -6   6 -0.6236 1.44219   2 
  -1  -6   6 1.84532 1.38687   2 
   1  -6  -6 -0.7891 1.76843   1 
  -1   6  -6 -1.0925 1.22184   3 
   1  -6  -6 0.81392 2.16878   2 
  -2  -6  -6 2.64630 2.15936   1 
   2  -6   6 3.76057 1.85384   2 
   2  -6  -6 3.42771 2.35086   2 
   2  -6  -6 7.64766 2.70389   1 
  -2  -6   6 4.49882 1.59812   2 
  -3  -6  -6 7.71340 2.95728   1 
   3  -6  -6 8.75766 2.88025   2 
  -3   6  -6 16.6303 3.03957   3 
   3  -6  -6 2.67688 2.03650   1 
  -3  -6   6 7.48482 1.87644   2 
  -4  -6  -6 58.0298 5.51665   1 
   4  -6  -6 53.1819 5.39427   2 
   5  -6   6 5.24556 2.06293   2 
  -5  -6  -6 2.63366 2.16671   1 
   5  -6  -6 4.89240 2.66009   2 
  -6  -6  -6 12.5285 3.19924   1 
   6  -6   6 15.3352 3.01069   2 
   6  -6  -6 16.1048 3.67941   2 
  -7  -6  -6 111.751 7.91348   1 
   7  -6   6 114.118 6.93699   2 
   7  -6  -6 107.312 7.78121   2 
  -8  -6  -6 4.07916 2.29280   1 
   8  -6   6 0.79054 2.00782   2 
   8  -6  -6 7.84749 3.29953   2 
  -8   6  -6 0.06457 2.61478   3 
   9  -6   6 66.5213 5.91128   2 
  -9   6  -6 81.7942 7.85377   3 
   9  -6  -6 77.7700 6.93822   2 
   0   0   7 0.67550 0.66325   3 
   0   0  -7 0.64382 0.69632   3 
   0   0  -7 1.15005 0.63139   1 
  -1   0   7 292.651 9.67719   3 
  -1   0  -7 283.123 9.69607   3 
   1   0  -7 297.583 9.65909   3 
   1   0   7 292.872 9.89024   3 
   1   0  -7 307.804 9.19726   1 
   2   0  -7 286.274 9.54861   3 
  -2   0   7 290.214 9.56765   3 
  -2   0  -7 292.668 9.90763   3 
  -2   0  -7 299.113 9.47168   2 
   2   0   7 303.393 10.0229   3 
   3   0   7 52.5800 4.48525   3 
   3   0  -7 46.2985 2.62604   3 
  -3   0   7 41.3369 2.45802   3 
  -3   0  -7 43.9752 2.57434   2 
   3   0  -7 41.4836 1.84155   1 
  -3   0  -7 46.4518 2.98595   3 
  -4   0   7 193.491 6.80986   3 
   4   0   7 198.812 7.44399   3 
  -4   0  -7 194.147 7.43593   3 
   4   0  -7 195.791 5.70601   1 
   4   0  -7 196.563 6.88580   3 
   5   0   7 169.818 6.80910   3 
  -5   0   7 168.805 6.11669   3 
  -5   0  -7 169.623 6.89295   3 
  -5   0  -7 159.839 6.48473   2 
   5   0  -7 176.910 6.28000   3 
   5   0  -7 175.815 5.62821   2 
  -6   0  -7 93.4069 4.73146   3 
   6   0  -7 91.1254 3.52751   2 
  -6   0   7 87.9143 3.88138   3 
   7   0  -7 89.8592 3.60289   2 
  -7   0   7 84.1666 3.82775   3 
  -7   0  -7 87.8737 4.71476   3 
   8   0  -7 6.88711 1.26097   2 
  -8   0  -7 4.46663 1.63480   3 
  -8   0   7 5.88314 1.27595   3 
  -9   0  -7 737.372 22.8499   3 
  -9   0   7 685.656 21.2580   3 
   9   0  -7 732.771 21.0066   2 
  10   0  -7 64.2967 3.27701   2 
 -10   0  -7 55.7269 4.17156   3 
 -10   0   7 61.5541 3.31485   3 
  11   0  -7 19.4310 2.08725   2 
 -11   0  -7 16.1775 2.55843   3 
  12   0  -7 57.6195 3.47382   2 
 -12   0  -7 57.9404 4.43132   3 
  13   0  -7 76.4799 4.21947   2 
 -13   0  -7 81.8734 5.53901   1 
 -13   0  -7 73.3683 5.19591   3 
 -14   0  -7 82.8457 5.47754   3 
 -14   0  -7 80.9967 5.56787   1 
  14   0  -7 61.3175 4.36776   2 
 -15   0  -7 114.281 7.04319   1 
 -15   0  -7 117.001 6.88705   3 
 -16   0  -7 21.6466 4.03206   1 
 -16   0  -7 25.9080 3.39023   3 
 -17   0  -7 13.9170 2.71695   1 
 -17   0  -7 19.6499 4.27002   3 
 -18   0  -7 8.21513 2.39215   3 
 -18   0  -7 6.81514 2.62292   1 
 -19   0  -7 2.03614 1.94503   3 
 -19   0  -7 2.97183 1.73016   1 
   0   1  -7 271.550 8.12183   2 
   0  -1  -7 266.867 8.86360   1 
   0   1  -7 270.524 8.95104   3 
   0  -1   7 264.202 8.99759   3 
   0  -1  -7 261.241 10.6349   3 
  -1  -1  -7 1649.42 47.5277   3 
   1   1  -7 1715.33 46.0138   2 
  -1   1   7 1658.40 46.8922   1 
   1   1  -7 1702.26 47.0358   3 
  -1  -1  -7 1661.62 47.3381   1 
  -1  -1   7 1668.18 47.1363   3 
   1   1   7 1782.26 49.0089   3 
   1  -1  -7 1732.11 47.5484   3 
  -1   1  -7 1711.32 46.5760   2 
  -1   1  -7 1622.92 47.2621   3 
   1  -1  -7 1686.15 46.9311   1 
   2   1  -7 1098.70 30.5696   3 
  -2  -1  -7 1049.65 31.2386   3 
   2   1  -7 1076.48 29.3520   2 
  -2   1   7 1078.08 31.8128   3 
  -2  -1  -7 1051.99 31.1699   1 
   2   1   7 1088.11 31.3702   3 
   2  -1  -7 1071.77 30.4409   1 
  -2   1  -7 1106.23 31.2632   3 
  -2   1  -7 1107.95 30.9107   2 
   2  -1  -7 1083.50 31.1992   3 
  -3   1   7 1298.88 35.4219   1 
  -3  -1  -7 1280.91 36.5130   1 
   3   1  -7 1306.37 35.5059   3 
  -3  -1  -7 1342.36 36.5657   3 
  -3   1   7 1252.61 36.1290   3 
   3   1  -7 1195.04 35.8837   1 
  -3   1  -7 1274.49 35.7998   2 
   3  -1  -7 1280.29 36.3088   3 
   3   1   7 1282.09 36.4984   3 
   3  -1  -7 1245.93 35.3479   1 
  -3   1  -7 1240.27 36.3774   3 
  -3  -1   7 1234.04 35.6369   3 
  -4   1   7 138.609 5.60556   3 
  -4  -1  -7 148.794 6.17587   1 
  -4   1   7 141.121 4.86362   1 
   4   1  -7 139.468 5.01331   3 
   4   1  -7 140.627 4.29728   1 
  -4  -1  -7 137.009 5.90434   3 
   4  -1  -7 137.323 5.74346   3 
  -4   1  -7 148.535 6.01358   2 
   4  -1  -7 140.331 4.91102   1 
  -4  -1   7 135.809 5.09850   3 
   4   1   7 133.722 5.84049   3 
  -4   1  -7 140.302 5.99580   3 
  -5   1   7 1.96329 0.63183   1 
  -5  -1  -7 -0.0044 0.97552   1 
   5   1  -7 1.83628 0.81741   3 
   5  -1   7 1.57159 0.99106   2 
  -5  -1  -7 -0.0543 0.89666   3 
  -5   1   7 0.25497 0.62224   3 
   5   1   7 2.80169 1.03778   3 
  -5  -1   7 1.93868 0.69803   3 
   5  -1  -7 1.46498 0.64959   1 
  -5   1  -7 1.87947 0.82066   2 
  -5   1  -7 4.87009 1.42187   3 
  -6  -1  -7 102.330 5.03301   3 
   6  -1   7 103.375 4.79355   2 
  -6  -1  -7 98.4064 5.23492   1 
  -6   1   7 96.1177 4.76090   3 
  -6   1   7 102.652 3.69904   1 
  -6  -1   7 102.158 3.95837   3 
  -6   1  -7 103.864 5.21403   3 
   6  -1  -7 108.379 4.58484   2 
   7  -1   7 394.804 13.0626   2 
  -7  -1  -7 396.818 13.8585   1 
  -7  -1  -7 382.619 13.2867   3 
  -7   1   7 394.836 11.5225   1 
  -7   1  -7 391.748 13.5622   3 
  -7  -1   7 384.138 11.8047   3 
   7  -1  -7 400.651 12.6367   2 
  -8  -1  -7 19.5176 2.56264   1 
  -8  -1  -7 15.4404 2.29378   3 
  -8   1   7 20.7575 1.26687   1 
   8  -1   7 17.0252 2.36294   2 
   8  -1  -7 20.9595 2.11774   2 
  -8   1  -7 17.2952 2.51476   3 
  -8  -1   7 20.8080 1.48113   3 
  -9   1   7 239.890 8.53585   1 
  -9  -1  -7 275.795 10.9503   1 
   9  -1   7 271.657 10.2209   2 
  -9  -1  -7 289.330 10.5645   3 
  -9  -1   7 268.738 8.54444   3 
   9  -1  -7 283.680 9.68745   2 
  -9   1  -7 282.807 10.7870   3 
 -10  -1  -7 340.798 14.7938   3 
 -10  -1  -7 398.856 14.2526   1 
 -10  -1   7 368.615 11.3381   3 
  10  -1  -7 379.862 12.6302   2 
 -10   1  -7 392.794 13.9801   3 
 -11  -1  -7 36.2456 3.37981   3 
 -11  -1  -7 35.9302 3.58777   1 
  11  -1  -7 34.0390 3.05264   2 
 -11  -1   7 32.5506 1.94408   3 
 -11   1  -7 37.5009 3.70775   3 
 -12  -1  -7 21.2381 2.80996   3 
 -12  -1  -7 14.3031 2.87179   1 
  12  -1  -7 21.6472 2.68185   2 
 -12   1  -7 21.9528 3.65642   3 
 -12  -1   7 20.3675 1.59677   3 
 -13  -1  -7 121.914 7.07978   1 
 -13  -1  -7 118.482 6.54092   3 
 -13   1  -7 134.752 7.33239   3 
  13  -1  -7 121.257 6.09269   2 
 -14  -1  -7 142.704 7.80734   1 
 -14  -1  -7 138.765 7.33773   3 
 -14   1  -7 145.916 8.00309   3 
  14  -1  -7 139.261 6.84213   2 
 -15  -1  -7 3.95027 1.94465   1 
 -15  -1  -7 3.90155 1.66399   3 
  15  -1  -7 5.08694 1.91615   2 
 -15   1  -7 3.67148 2.02445   3 
 -16  -1  -7 41.6045 3.99702   3 
  16  -1  -7 41.2863 3.88140   2 
 -16   1  -7 54.5800 8.29703   3 
 -17  -1  -7 3.33222 1.71157   1 
 -17  -1  -7 3.47634 1.62753   3 
 -17   1  -7 4.82095 1.99962   3 
  17  -1  -7 0.69925 1.24839   2 
 -17   1  -7 3.04886 1.68217   1 
 -18  -1  -7 47.7229 4.80867   1 
 -18  -1  -7 56.6361 4.47132   3 
 -18   1  -7 52.6035 5.14835   3 
 -19  -1  -7 3.03589 1.75700   1 
 -19  -1  -7 3.81739 1.92408   3 
 -19   1  -7 5.25065 1.96646   1 
 -19   1  -7 8.10602 2.53441   3 
   0   2  -7 -0.1505 0.75168   1 
   0  -2   7 0.61921 0.59927   2 
   0  -2  -7 -0.0069 0.90185   1 
   0   2  -7 -0.6532 0.71512   3 
   0  -2  -7 -0.0406 1.00554   3 
   0   2   7 0.07375 0.70631   1 
  -1  -2  -7 195.195 7.47678   1 
   1   2  -7 199.530 6.98123   3 
  -1   2   7 193.036 7.13093   1 
  -1  -2  -7 202.732 7.69854   3 
   1  -2   7 200.064 6.52919   2 
   1   2  -7 195.753 6.89627   1 
  -1   2  -7 197.750 7.32611   3 
  -1   2  -7 192.569 6.48713   2 
   1  -2  -7 197.760 7.69279   3 
   1  -2  -7 180.857 7.17198   1 
   1   2   7 190.480 7.64574   1 
   2   2  -7 194.555 6.73438   3 
  -2  -2  -7 192.097 7.61522   3 
  -2  -2  -7 198.993 7.67192   1 
   2   2  -7 191.657 6.70439   1 
  -2   2   7 187.825 7.05681   1 
   2  -2   7 203.181 6.76085   2 
   2  -2  -7 198.079 7.23952   1 
  -2   2  -7 195.419 6.70234   2 
   2  -2  -7 188.727 7.60809   3 
  -2   2  -7 187.910 7.36912   3 
  -3  -2  -7 26.3270 2.59844   3 
   3   2  -7 28.4161 1.90911   3 
  -3  -2  -7 27.7728 2.60672   1 
   3   2  -7 27.5420 1.91630   1 
   3  -2   7 29.1392 2.19165   2 
  -3   2   7 25.1533 1.98597   1 
  -3   2  -7 28.3012 2.09900   2 
  -3   2  -7 27.4979 2.54176   3 
   3  -2  -7 28.1772 2.24855   1 
   4   2  -7 145.169 5.01572   1 
  -4   2   7 131.048 5.86510   1 
  -4  -2  -7 136.652 6.11897   3 
   4  -2   7 148.440 5.68740   2 
   4   2  -7 124.129 5.14813   3 
  -4  -2  -7 144.357 6.41983   1 
   4  -2  -7 147.183 5.66815   1 
  -4   2  -7 134.927 5.58712   2 
  -4   2  -7 145.291 6.23729   3 
   5  -2   7 136.182 5.64930   2 
   5   2  -7 134.186 4.63197   1 
   5   2  -7 127.862 4.26758   3 
  -5  -2  -7 128.701 5.96055   3 
  -5  -2  -7 136.687 6.33903   1 
  -5   2  -7 125.693 5.99884   3 
   5  -2  -7 131.574 5.34491   1 
  -6  -2  -7 61.1860 3.99768   3 
   6  -2   7 66.9524 3.89409   2 
   6   2  -7 65.0668 2.67716   1 
  -6  -2  -7 69.6506 4.41842   1 
   6  -2  -7 65.8369 4.04059   2 
   6  -2  -7 73.0580 3.54579   1 
  -6   2  -7 64.7034 4.14934   3 
   7  -2   7 64.9468 4.03275   2 
  -7  -2  -7 65.4968 4.11165   3 
  -7  -2  -7 71.8705 4.77664   1 
   7  -2  -7 69.2822 4.16661   2 
  -7   2  -7 65.6230 4.46137   3 
  -8   2   7 4.68862 1.22766   1 
   8  -2   7 2.22170 1.53172   2 
  -8  -2  -7 4.47753 1.79891   1 
  -8  -2  -7 5.22853 1.60302   3 
   8  -2  -7 1.87352 1.42597   2 
  -8   2  -7 4.02430 1.66106   3 
  -9   2   7 515.383 16.8933   1 
  -9  -2  -7 567.498 19.3377   1 
  -9  -2  -7 565.825 18.3734   3 
   9  -2   7 554.295 18.2545   2 
  -9   2  -7 547.122 18.8959   3 
   9  -2  -7 612.896 18.4286   2 
  10  -2   7 51.6720 4.02399   2 
 -10   2   7 47.1141 2.72472   1 
 -10  -2  -7 50.5703 4.24593   1 
 -10   2  -7 45.6610 4.08895   3 
  10  -2  -7 53.0190 3.99604   2 
 -11   2   7 14.7817 1.57763   1 
 -11  -2  -7 13.6066 2.94838   1 
 -11  -2  -7 17.7066 2.79329   3 
  11  -2   7 16.9922 3.06168   2 
 -11   2  -7 14.7652 2.65107   3 
  11  -2  -7 21.9104 3.50152   2 
 -12   2   7 53.6475 2.92604   1 
 -12  -2  -7 57.4602 4.78955   1 
  12  -2   7 54.6195 4.42505   2 
 -12  -2  -7 56.8624 4.14724   3 
 -12   2  -7 51.5593 4.64806   3 
  12  -2  -7 54.2102 4.32139   2 
 -13  -2  -7 63.4540 5.13946   1 
  13  -2   7 65.7358 5.04135   2 
 -13  -2  -7 64.1099 4.56041   3 
  13  -2  -7 64.7095 4.79142   2 
 -13   2  -7 62.0325 5.23400   3 
 -14  -2  -7 64.8505 5.29215   1 
  14  -2   7 70.4788 5.47351   2 
 -14  -2  -7 63.6046 4.59394   3 
 -14   2  -7 70.8324 5.70391   3 
  14  -2  -7 68.9341 5.03355   2 
 -15  -2  -7 89.0040 5.50110   3 
 -15  -2  -7 87.7338 9.62368   1 
  15  -2  -7 96.4551 6.04337   2 
 -15   2  -7 98.8239 6.90077   3 
 -16  -2  -7 16.7987 2.54413   3 
 -16  -2  -7 26.1380 4.37130   1 
  16  -2  -7 19.4655 3.24543   2 
 -16   2  -7 28.0261 4.65960   3 
 -17  -2  -7 6.76677 2.16279   1 
 -17  -2  -7 12.7351 2.44150   3 
  17  -2  -7 15.5987 2.95600   2 
 -17   2  -7 16.0271 3.86782   3 
 -18  -2  -7 4.78992 1.95774   1 
  18  -2  -7 5.57494 2.32425   2 
 -18   2  -7 12.2399 3.47529   3 
   0   3  -7 130.826 5.54769   3 
   0  -3  -7 122.302 5.96716   1 
   0  -3   7 124.573 4.66287   2 
  -1  -3  -7 876.683 26.5745   1 
   1  -3   7 868.706 24.8403   2 
  -1  -3  -7 873.643 26.4491   3 
   1   3  -7 892.578 25.3913   3 
  -1   3  -7 853.891 25.7450   3 
   1  -3  -7 861.316 26.2474   1 
  -1  -3   7 830.467 24.2694   2 
   2   3  -7 498.445 15.3527   3 
  -2  -3  -7 530.581 16.8205   3 
   2  -3   7 499.091 15.3584   2 
   2  -3  -7 520.547 16.6097   1 
  -2   3  -7 513.262 16.3134   3 
  -2  -3   7 471.056 14.7835   2 
   3  -3   7 681.839 20.2464   2 
   3   3  -7 647.944 19.6039   3 
   3   3  -7 691.898 20.7278   1 
  -3  -3  -7 683.960 21.3531   3 
  -3  -3  -7 682.727 21.7001   1 
   3  -3  -7 674.091 21.1044   1 
  -3   3  -7 681.144 21.2375   3 
  -4  -3  -7 92.6597 5.38296   1 
   4  -3   7 95.8766 4.57157   2 
   4   3  -7 91.9565 4.28341   1 
  -4  -3  -7 91.5927 5.04429   3 
  -4   3  -7 87.2830 5.02445   3 
   4  -3  -7 95.1338 4.92703   1 
  -5  -3  -7 2.70059 1.35534   3 
   5   3  -7 0.97861 1.11935   1 
  -5  -3  -7 0.75768 1.03919   1 
   5  -3   7 2.95149 1.42852   2 
   5  -3  -7 1.77691 1.19921   1 
  -5   3  -7 2.88114 1.34193   3 
  -6  -3  -7 44.6100 3.53360   3 
  -6  -3  -7 48.6008 4.00979   1 
   6  -3  -7 51.3536 3.52147   1 
  -6   3  -7 40.7737 3.66916   3 
   6  -3  -7 47.8933 3.90086   2 
   7  -3   7 213.983 8.46555   2 
   7   3  -7 198.775 7.27654   1 
  -7  -3  -7 219.609 8.69507   3 
  -7  -3  -7 190.071 9.06489   1 
  -7   3  -7 199.008 9.00232   3 
   7  -3  -7 226.006 9.13288   2 
  -8  -3  -7 5.13126 2.00211   3 
  -8  -3  -7 7.67128 2.12159   1 
   8  -3   7 7.76526 2.09451   2 
   8   3  -7 4.72687 0.99573   1 
  -8   3  -7 6.00923 1.85383   3 
   8  -3  -7 7.80663 2.17475   2 
  -9  -3  -7 153.671 8.09580   1 
  -9  -3  -7 152.737 8.43811   3 
   9  -3   7 163.118 7.47456   2 
  -9   3  -7 160.833 8.12419   3 
   9  -3  -7 157.373 7.72102   2 
  10  -3   7 232.372 9.93930   2 
 -10  -3  -7 237.558 10.7577   1 
 -10  -3  -7 227.967 9.42017   3 
  10  -3  -7 239.377 10.1360   2 
 -10   3  -7 240.844 10.7835   3 
 -11  -3  -7 16.5965 3.55253   1 
 -11  -3  -7 20.0231 2.69393   3 
  11  -3   7 23.8636 3.64309   2 
 -11   3  -7 21.5947 3.74289   3 
  11  -3  -7 19.1422 3.58912   2 
 -12  -3  -7 16.7208 3.50616   1 
  12  -3   7 12.6215 2.91284   2 
 -12  -3  -7 11.0530 2.16194   3 
  12  -3  -7 7.44581 2.48063   2 
 -12   3  -7 12.7916 3.17453   3 
 -13  -3  -7 85.5627 6.12852   1 
 -13  -3  -7 82.9261 4.88463   3 
  13  -3   7 65.7355 6.07150   2 
 -13   3  -7 74.4517 6.08762   3 
  13  -3  -7 79.1926 5.79039   2 
  14  -3   7 90.2713 6.37186   2 
 -14  -3  -7 89.8842 5.15279   3 
 -14  -3  -7 86.8105 6.34163   1 
 -14   3  -7 85.5467 6.60585   3 
  14  -3  -7 90.4503 6.29661   2 
 -15  -3  -7 3.45359 1.77796   1 
  15  -3   7 0.18606 1.93625   2 
 -15  -3  -7 2.31321 1.40136   3 
 -15   3  -7 2.03833 2.36342   3 
  15  -3  -7 1.62771 1.47637   2 
  16  -3   7 25.9859 4.15791   2 
 -16  -3  -7 27.9612 3.72269   1 
  16  -3  -7 19.7127 3.41261   2 
 -16   3  -7 17.3930 3.64875   3 
 -17  -3  -7 4.35196 1.96511   1 
  17  -3   7 0.32701 3.46535   2 
  17  -3  -7 0.63224 2.26517   2 
   0   4  -7 0.62201 1.14935   3 
   0  -4   7 -0.1283 0.86864   2 
   0  -4  -7 0.51175 1.31154   1 
  -1  -4  -7 102.622 5.90941   1 
   1  -4   7 100.168 4.53176   2 
   1   4  -7 102.533 4.87753   3 
  -1  -4   7 94.9709 4.06784   2 
   1  -4  -7 91.0212 5.58514   1 
  -1   4  -7 98.0991 5.22631   3 
   2  -4   7 95.5468 4.63119   2 
  -2  -4  -7 102.765 5.94102   1 
   2   4  -7 93.0086 4.39170   3 
  -2  -4   7 88.0028 3.72150   2 
   2  -4  -7 99.5109 5.76942   1 
  -2   4  -7 102.474 6.28727   3 
   3  -4   7 14.5969 2.23961   2 
  -3  -4  -7 17.6211 2.91302   1 
   3  -4  -7 14.1073 2.49654   1 
  -3   4  -7 11.3787 2.29819   3 
  -3  -4   7 13.7054 1.28401   2 
   4  -4   7 70.9275 4.26582   2 
  -4  -4  -7 70.3408 5.14646   1 
  -4   4  -7 72.1530 4.84012   3 
   4  -4  -7 74.9521 4.94285   1 
  -5  -4  -7 71.8366 5.19290   1 
   5  -4   7 70.6648 4.33569   2 
   5  -4  -7 62.5823 4.91548   2 
   5  -4  -7 69.2152 4.75833   1 
  -5   4  -7 66.2848 4.84319   3 
  -6  -4  -7 36.1262 3.86167   1 
   6  -4   7 27.3368 3.11012   2 
  -6   4  -7 39.2650 3.93070   3 
   6  -4  -7 27.0704 3.36998   1 
   6  -4  -7 35.5992 3.91655   2 
  -7  -4  -7 44.0298 4.25021   1 
   7  -4   7 33.6894 3.46113   2 
  -7   4  -7 37.1839 3.97382   3 
   7  -4  -7 46.8651 4.40412   2 
   8  -4   7 3.26373 1.84285   2 
  -8  -4  -7 0.29464 1.36168   1 
  -8   4  -7 -0.9835 1.39002   3 
   8  -4  -7 2.53562 1.94932   2 
   9  -4   7 295.278 12.0373   2 
  -9  -4  -7 292.660 13.0776   1 
   9  -4  -7 309.862 12.7908   2 
  -9   4  -7 323.314 13.2332   3 
  10  -4   7 24.8606 3.86134   2 
 -10  -4  -7 28.1776 4.57291   1 
  10  -4  -7 30.6951 3.98420   2 
 -10   4  -7 29.9031 4.70859   3 
  11  -4   7 9.50744 4.09688   2 
 -11  -4  -7 10.9516 3.16723   1 
 -11   4  -7 10.9073 3.09211   3 
  11  -4  -7 15.0962 3.33606   2 
  12  -4   7 28.9325 4.28820   2 
 -12  -4  -7 25.5140 4.33092   1 
 -12   4  -7 35.7775 4.66342   3 
  12  -4  -7 37.0462 5.09638   2 
  13  -4   7 31.8427 4.32184   2 
 -13  -4  -7 33.0487 4.13054   1 
 -13   4  -7 22.1803 4.02039   3 
  13  -4  -7 29.3680 4.44086   2 
  14  -4   7 38.0340 4.59193   2 
 -14   4  -7 38.6349 5.03486   3 
  14  -4  -7 33.9606 4.56403   2 
 -15  -4  -7 49.1208 5.09098   1 
  15  -4   7 60.3424 5.76592   2 
  15  -4  -7 50.5531 5.41484   2 
 -15   4  -7 69.9033 9.57646   3 
   0  -5  -7 34.0338 4.04812   1 
   0  -5   7 34.1696 2.96304   2 
  -1  -5  -7 324.624 13.3359   1 
   1  -5   7 308.295 11.1973   2 
  -1  -5   7 306.075 10.6870   2 
  -1   5  -7 337.737 12.1934   3 
   2  -5   7 202.570 7.82341   2 
  -2  -5  -7 176.511 9.26459   1 
   2  -5  -7 181.485 9.15802   1 
  -2   5  -7 193.775 8.61329   3 
  -2  -5   7 168.089 6.65410   2 
   3  -5   7 278.915 10.1763   2 
  -3  -5  -7 264.189 11.8496   1 
   3  -5  -7 252.982 11.3443   1 
  -3   5  -7 274.525 11.1291   3 
  -3  -5   7 236.514 8.35138   2 
   3  -5  -7 259.449 11.5932   2 
  -4  -5  -7 49.5165 4.86782   1 
   4  -5   7 66.9673 4.34583   2 
  -4   5  -7 60.0389 4.77385   3 
   4  -5  -7 51.6382 5.17048   2 
   4  -5  -7 59.8348 5.02830   1 
  -4  -5   7 49.7260 2.53655   2 
   5  -5   7 3.43486 1.73463   2 
   5  -5  -7 6.41730 2.60117   1 
  -5   5  -7 2.35763 2.02240   3 
   6  -5   7 16.9460 2.89117   2 
  -6  -5  -7 8.34679 2.38814   1 
   6  -5  -7 15.3075 3.39222   2 
  -6   5  -7 11.8198 2.86858   3 
   7  -5   7 77.0989 5.12197   2 
  -7  -5  -7 83.8112 6.41763   1 
   7  -5  -7 82.2457 6.31296   2 
  -8  -5  -7 -0.0234 1.38687   1 
   8  -5  -7 0.50423 2.26782   2 
  -8   5  -7 -1.9274 1.69004   3 
   9  -5   7 59.3704 5.01409   2 
  -9  -5  -7 59.4157 5.59262   1 
  -9   5  -7 60.2272 5.66490   3 
   9  -5  -7 56.1457 5.54702   2 
 -10  -5  -7 101.261 7.24659   1 
  10  -5   7 90.3114 6.36688   2 
  10  -5  -7 94.1276 6.98639   2 
 -10   5  -7 99.8606 7.54420   3 
  11  -5   7 8.63066 2.68303   2 
 -11  -5  -7 4.80141 2.52913   1 
 -11   5  -7 9.34512 3.48356   3 
  11  -5  -7 2.89335 2.68430   2 
 -12  -5  -7 3.36888 2.53985   1 
  12  -5   7 2.58070 2.33811   2 
  12  -5  -7 -1.6338 2.03079   2 
 -12   5  -7 3.46821 3.05502   3 
   0   6  -7 2.54633 1.43608   3 
   0  -6  -7 -0.0945 1.67176   1 
   0  -6   7 1.27762 1.49553   2 
   1  -6   7 36.7890 3.23329   2 
  -1  -6  -7 38.3075 4.67083   1 
   1  -6  -7 39.3156 4.68740   2 
   1  -6  -7 35.9697 4.42423   1 
  -1  -6   7 32.1050 2.94311   2 
  -2  -6  -7 39.7021 4.77199   1 
   2  -6   7 31.7394 3.30985   2 
   2  -6  -7 40.0310 4.88282   2 
   2  -6  -7 29.3937 4.25057   1 
  -3  -6  -7 4.01174 2.29712   1 
   3  -6   7 6.63553 1.85604   2 
   3  -6  -7 2.02443 2.51186   2 
   3  -6  -7 6.89171 2.47790   1 
  -4  -6  -7 30.6209 5.10669   1 
  -4   6  -7 38.1026 4.41468   3 
   4  -6  -7 23.7543 4.14113   2 
  -5  -6  -7 18.6493 3.59947   1 
   5  -6   7 19.6556 2.95831   2 
  -5   6  -7 25.7911 4.42108   3 
   5  -6  -7 18.2071 3.65444   2 
  -6  -6  -7 13.4097 3.09898   1 
   6  -6   7 7.55904 2.15117   2 
   6  -6  -7 11.6639 3.40572   2 
  -6   6  -7 14.3001 3.48211   3 
   7  -6   7 13.2809 3.05137   2 
  -7  -6  -7 11.3095 3.35039   1 
   7  -6  -7 9.74202 3.30955   2 
  -7   6  -7 11.5958 3.33335   3 
   8  -6   7 0.65713 2.09227   2 
   8  -6  -7 -1.2957 3.02604   2 
  -8   6  -7 2.92338 2.78658   3 
   0   0  -8 914.083 26.8896   3 
   0   0  -8 932.703 26.4765   1 
   1   0  -8 35.5830 2.50979   3 
  -1   0  -8 35.5385 2.61748   3 
  -1   0   8 34.4526 2.47464   3 
   1   0   8 32.3198 2.49601   3 
   1   0  -8 34.6608 2.09527   1 
   2   0   8 311.235 10.7194   3 
  -2   0  -8 313.561 10.6279   3 
  -2   0  -8 321.552 10.1466   2 
  -2   0   8 310.373 10.3404   3 
   2   0  -8 309.878 9.51327   1 
   2   0  -8 302.285 10.2700   3 
   3   0  -8 194.751 7.01721   3 
   3   0  -8 208.665 6.33174   1 
  -3   0   8 188.562 6.98489   3 
   3   0   8 191.340 7.48425   3 
  -3   0  -8 162.498 7.29882   2 
  -3   0  -8 203.439 7.54243   3 
  -4   0  -8 577.093 18.6229   2 
   4   0  -8 643.583 18.5984   3 
   4   0  -8 614.926 17.1551   1 
  -4   0  -8 638.172 19.2843   3 
  -4   0   8 605.698 18.4380   3 
  -5   0   8 0.51919 0.71574   3 
  -5   0  -8 1.80097 1.12683   3 
   5   0  -8 0.71765 0.65115   2 
   5   0  -8 2.69044 1.05423   3 
   6   0  -8 118.736 4.36329   2 
  -6   0  -8 119.882 5.76001   3 
  -7   0   8 6.70702 1.55933   3 
   7   0  -8 7.92383 1.22750   2 
  -7   0  -8 7.43470 1.70150   3 
  -8   0   8 1538.36 44.4836   3 
  -8   0  -8 1583.59 45.9497   3 
   8   0  -8 1613.98 43.8871   2 
   9   0  -8 41.8317 2.53623   2 
  -9   0  -8 40.0064 3.56098   3 
  -9   0   8 40.6131 2.69413   3 
  10   0  -8 22.0618 1.96943   2 
 -10   0  -8 20.2145 2.83979   3 
 -11   0  -8 28.0662 3.27054   3 
  11   0  -8 22.8544 2.18650   2 
  12   0  -8 23.3219 2.19749   2 
 -12   0  -8 15.8499 2.79581   1 
 -12   0  -8 17.7615 3.27274   3 
 -13   0  -8 709.623 24.1081   3 
 -13   0  -8 739.633 24.6280   1 
 -14   0  -8 6.05912 1.96500   3 
 -14   0  -8 8.75690 2.75719   1 
 -15   0  -8 17.3159 3.04341   3 
 -15   0  -8 28.3749 3.61845   1 
 -16   0  -8 20.5731 3.99073   1 
 -16   0  -8 21.9480 4.55675   3 
 -17   0  -8 58.0960 5.09736   3 
 -17   0  -8 46.0564 4.73005   1 
 -18   0  -8 125.939 7.63976   3 
 -18   0  -8 113.480 7.46082   1 
 -19   0  -8 4.45640 2.46866   3 
 -19   0  -8 3.42571 1.97800   1 
   0   1  -8 -0.1536 0.80038   3 
   0  -1  -8 -0.0342 0.68785   1 
   0   1   8 1.15938 0.83355   3 
   0  -1   8 -0.3255 0.63992   3 
   0   1  -8 1.23961 0.61794   2 
   0  -1  -8 1.76162 0.98298   3 
   1   1  -8 307.268 9.83083   3 
   1   1  -8 266.449 9.69536   2 
  -1  -1  -8 301.887 10.3376   3 
  -1   1   8 278.004 9.96764   3 
   1  -1   8 304.363 10.4676   3 
  -1  -1  -8 289.828 9.99909   1 
   1  -1  -8 306.587 10.2746   3 
  -1   1  -8 300.467 9.28051   2 
  -1  -1   8 291.676 9.90937   3 
  -1   1  -8 310.694 10.1709   3 
   1  -1  -8 297.934 9.65292   1 
   1   1   8 292.554 10.2470   3 
  -2  -1  -8 48.3827 3.23029   3 
   2   1  -8 50.1606 1.85363   2 
  -2  -1  -8 45.9347 3.03040   1 
   2   1  -8 49.9484 2.83836   3 
  -2   1   8 47.4834 2.99750   3 
   2   1   8 53.2899 3.34057   3 
   2  -1  -8 48.9901 2.63382   1 
  -2   1  -8 50.8318 2.64796   2 
   2  -1  -8 48.5312 3.18071   3 
  -2  -1   8 48.4728 2.84462   3 
  -2   1  -8 43.5209 3.07260   3 
  -3  -1  -8 6.92303 1.43986   1 
   3   1  -8 5.16637 1.14376   3 
  -3  -1  -8 5.13762 1.47253   3 
  -3   1   8 4.81015 1.23922   3 
   3  -1  -8 6.11911 1.14697   1 
  -3  -1   8 5.66064 1.17968   3 
  -3   1  -8 4.66294 1.42122   3 
   3  -1  -8 4.38130 1.25912   3 
  -3   1  -8 5.86463 1.17218   2 
   4   1  -8 424.122 12.7552   3 
  -4  -1  -8 428.874 14.0112   1 
  -4  -1  -8 421.436 13.8645   3 
   4   1  -8 423.456 11.7722   1 
  -4   1   8 406.910 12.4162   1 
   4  -1  -8 409.371 13.5214   3 
   4  -1  -8 412.784 12.4201   1 
  -4   1  -8 413.458 13.8612   3 
  -4  -1   8 408.895 12.8702   3 
  -4   1  -8 396.836 13.1367   2 
  -5   1   8 313.078 9.58067   1 
  -5  -1  -8 317.759 11.3228   1 
   5   1  -8 331.326 9.95874   3 
  -5  -1  -8 319.036 11.1599   3 
  -5   1  -8 324.352 11.2915   2 
  -5   1  -8 294.757 11.0785   3 
  -5  -1   8 293.866 10.4477   3 
   5  -1  -8 302.017 9.52554   1 
  -6  -1  -8 55.2902 3.85841   1 
  -6  -1  -8 57.0226 3.75530   3 
  -6   1   8 51.0494 2.32188   1 
   6  -1  -8 57.8826 3.23551   2 
  -6   1  -8 47.8827 3.61670   3 
  -7  -1  -8 70.6857 4.60157   1 
  -7   1   8 73.1554 2.84233   1 
  -7  -1  -8 72.4921 4.41054   3 
  -7   1  -8 72.2288 4.52810   3 
   7  -1  -8 75.2840 3.87328   2 
  -8  -1  -8 148.837 7.05114   3 
  -8  -1  -8 159.667 7.58186   1 
  -8  -1   8 171.596 7.37374   3 
   8  -1  -8 153.043 6.27824   2 
  -8   1  -8 154.311 7.33897   3 
  -9  -1  -8 18.3799 3.22607   1 
  -9  -1   8 15.9619 2.21297   3 
   9  -1  -8 17.9012 2.24501   2 
  -9   1  -8 13.9929 2.35765   3 
 -10  -1  -8 30.6051 3.35534   1 
 -10  -1  -8 31.3393 3.25510   3 
 -10   1  -8 29.6815 3.39052   3 
 -10  -1   8 38.5808 2.99047   3 
  10  -1  -8 29.1002 2.77615   2 
 -11  -1  -8 19.4182 3.31132   1 
 -11  -1  -8 23.1869 2.98515   3 
 -11   1  -8 25.3611 4.00254   3 
  11  -1  -8 21.0573 2.58197   2 
 -12  -1  -8 0.42091 1.19743   3 
 -12  -1  -8 1.74194 1.56152   1 
 -12   1  -8 0.72017 1.33889   3 
 -12  -1   8 2.56746 1.02768   3 
  12  -1  -8 0.68786 1.20072   2 
 -13  -1  -8 34.5793 3.83216   1 
 -13  -1  -8 32.5287 3.62731   3 
 -13   1  -8 35.6816 4.02434   3 
  13  -1  -8 36.9422 3.39005   2 
 -14  -1  -8 111.688 6.91940   1 
 -14  -1  -8 104.413 6.32989   3 
 -14   1  -8 112.107 7.04468   3 
  14  -1  -8 99.7728 5.64073   2 
 -15  -1  -8 9.94270 2.41840   3 
 -15  -1  -8 9.82895 3.15864   1 
 -15   1  -8 7.89315 2.73205   3 
  15  -1  -8 14.3019 2.62421   2 
 -16  -1  -8 203.993 9.76718   3 
 -16  -1  -8 213.827 10.5196   1 
 -16   1  -8 206.670 10.5601   3 
 -17  -1  -8 68.4668 5.62333   1 
 -17  -1  -8 69.2990 5.19772   3 
 -17   1  -8 69.9728 5.87837   3 
 -17   1  -8 53.8067 5.02176   1 
 -18  -1  -8 5.44932 2.11186   3 
 -18  -1  -8 3.98228 1.96593   1 
 -18   1  -8 4.63791 2.01390   3 
 -18   1  -8 1.70742 1.77495   1 
   0   2  -8 642.833 18.3330   2 
   0  -2  -8 631.673 19.7708   1 
   0   2  -8 646.004 19.4017   1 
   0  -2  -8 640.031 20.1686   3 
   0   2  -8 659.728 19.5777   3 
  -1  -2  -8 18.0150 2.40050   3 
  -1   2   8 18.7458 1.79630   1 
   1   2  -8 17.6202 1.79028   1 
   1   2  -8 20.3011 2.05713   3 
  -1  -2  -8 17.0532 2.15665   1 
   1  -2  -8 19.1082 2.09482   1 
  -1   2  -8 19.0783 2.25081   3 
   1  -2  -8 18.0085 2.38819   3 
  -2   2   8 212.259 8.03003   1 
   2   2  -8 225.126 7.83399   3 
   2   2  -8 224.003 7.71909   1 
  -2  -2  -8 232.813 8.76379   1 
  -2  -2  -8 229.263 8.81442   3 
   2  -2   8 241.242 7.77106   2 
  -2   2  -8 225.141 7.71192   2 
   2  -2  -8 230.743 8.27618   1 
   2  -2  -8 223.447 8.80518   3 
  -2   2  -8 232.652 8.61961   3 
   3  -2   8 132.961 5.26687   2 
  -3  -2  -8 136.737 6.18972   1 
   3   2  -8 132.889 4.93417   1 
  -3  -2  -8 119.539 5.92708   3 
  -3   2   8 126.801 5.25708   1 
   3   2  -8 134.702 5.01966   3 
  -3   2  -8 123.202 5.87037   3 
   3  -2  -8 131.970 5.46226   1 
  -4   2   8 419.435 13.4275   1 
   4   2  -8 370.602 13.0756   1 
   4  -2   8 452.327 13.6555   2 
  -4  -2  -8 417.434 14.3231   3 
  -4  -2  -8 426.771 14.5912   1 
   4   2  -8 457.016 12.8327   3 
  -4   2  -8 409.132 14.2421   3 
  -4   2  -8 429.508 13.6782   2 
   4  -2  -8 442.284 13.5793   1 
  -5  -2  -8 -0.6548 0.97553   3 
   5   2  -8 2.90464 0.77023   1 
  -5  -2  -8 1.35348 1.11412   1 
  -5   2   8 2.62498 0.88091   1 
   5  -2   8 2.49649 1.25560   2 
   5   2  -8 3.36445 0.86384   3 
   5  -2  -8 2.77526 1.10931   1 
  -5   2  -8 1.44765 1.14761   3 
  -6  -2  -8 80.4151 5.00534   1 
  -6   2   8 79.1171 3.82733   1 
  -6  -2  -8 83.4346 4.82797   3 
   6  -2   8 87.4065 4.51721   2 
   6  -2  -8 81.8903 4.59697   2 
   6  -2  -8 85.9136 4.01568   1 
  -6   2  -8 70.6672 5.93241   3 
   7  -2   8 8.33001 2.04677   2 
  -7  -2  -8 4.74493 1.60708   1 
  -7  -2  -8 6.57692 1.76956   3 
  -7   2   8 6.34821 1.47315   1 
   7  -2  -8 6.49788 1.69893   2 
  -7   2  -8 6.80770 1.87477   3 
   8  -2   8 1237.11 36.4707   2 
  -8  -2  -8 1262.29 37.8299   1 
  -8   2  -8 1213.97 37.2997   3 
   9  -2   8 32.5536 3.33007   2 
  -9  -2  -8 25.9838 3.22207   1 
  -9  -2  -8 26.9383 3.05419   3 
   9  -2  -8 29.8711 3.16987   2 
  -9   2  -8 27.6919 3.35616   3 
 -10  -2  -8 13.1614 2.38724   3 
 -10  -2  -8 10.8454 2.22826   1 
  10  -2   8 12.3714 2.54743   2 
 -10   2  -8 13.3470 2.75275   3 
  10  -2  -8 20.4114 3.10771   2 
 -11  -2  -8 20.8724 2.78648   3 
 -11  -2  -8 11.8288 2.28990   1 
  11  -2   8 22.1287 3.30490   2 
  11  -2  -8 21.8805 3.25783   2 
 -11   2  -8 15.9402 3.02823   3 
 -12  -2  -8 11.1051 2.45030   3 
 -12  -2  -8 18.4677 3.80168   1 
  12  -2   8 11.1518 2.49136   2 
 -12   2  -8 13.3976 3.14969   3 
  12  -2  -8 14.5341 2.61236   2 
 -13  -2  -8 602.694 20.6932   3 
  13  -2   8 600.956 21.0358   2 
 -13   2  -8 636.385 22.1822   3 
  13  -2  -8 629.977 20.5976   2 
 -14  -2  -8 3.77260 1.77722   1 
 -14  -2  -8 5.22709 1.80885   3 
  14  -2  -8 2.83876 1.69710   2 
 -15  -2  -8 24.7116 3.07426   3 
 -15  -2  -8 27.9890 3.75617   1 
 -15   2  -8 19.0829 3.68698   3 
  15  -2  -8 27.3433 3.51310   2 
 -16  -2  -8 15.9544 2.59589   3 
 -16  -2  -8 16.0166 3.47273   1 
  16  -2  -8 16.1614 3.00004   2 
 -16   2  -8 14.1150 3.35089   3 
 -17  -2  -8 46.2953 4.76494   1 
 -17   2  -8 40.2343 4.81024   3 
  17  -2  -8 44.7763 4.44310   2 
 -18  -2  -8 94.4516 6.89726   1 
  18  -2  -8 104.249 6.63577   2 
   0   3  -8 0.29067 1.03047   3 
   0  -3   8 0.17359 0.69793   2 
  -1  -3  -8 180.856 9.16509   3 
   1   3  -8 169.661 6.79654   3 
  -1  -3  -8 173.235 7.74861   1 
   1  -3   8 180.795 6.28817   2 
  -1  -3   8 174.448 5.79615   2 
   1  -3  -8 176.357 7.73209   1 
  -1   3  -8 170.764 7.16248   3 
  -2  -3  -8 26.4526 3.16662   1 
   2  -3   8 33.2369 2.40283   2 
   2   3  -8 30.8610 2.43301   3 
   2  -3  -8 32.6315 3.01254   1 
  -2   3  -8 32.8163 3.03303   3 
   3  -3   8 3.07412 1.28167   2 
   3   3  -8 1.41468 0.91552   3 
  -3  -3  -8 4.18453 1.78122   1 
  -3   3  -8 2.99592 1.49872   3 
   3  -3  -8 3.49856 1.44945   1 
   4  -3   8 253.259 9.06718   2 
  -4  -3  -8 257.453 10.4034   1 
   4   3  -8 243.908 8.81718   1 
   4   3  -8 236.047 7.96222   3 
   4  -3  -8 251.501 9.60285   1 
  -4   3  -8 283.327 10.7595   3 
   5  -3   8 204.882 7.73005   2 
  -5  -3  -8 193.584 8.78551   1 
   5   3  -8 182.814 7.19109   1 
  -5  -3  -8 199.821 9.01681   3 
  -5   3  -8 190.964 8.39321   3 
   5  -3  -8 190.412 7.94541   1 
   6  -3   8 36.1607 3.10699   2 
  -6  -3  -8 26.5075 3.05259   3 
  -6  -3  -8 32.0565 3.45171   1 
   6   3  -8 25.5890 3.41956   1 
  -6   3  -8 31.4751 3.33839   3 
   6  -3  -8 33.3684 3.50625   2 
   6  -3  -8 30.0397 2.92904   1 
  -7  -3  -8 53.2898 4.43634   1 
  -7  -3  -8 54.8624 4.10424   3 
   7  -3   8 54.6280 3.94702   2 
   7   3  -8 44.4201 2.62996   1 
  -7   3  -8 55.6799 4.35358   3 
   7  -3  -8 52.4352 4.29303   2 
  -8  -3  -8 99.0021 6.23977   1 
  -8  -3  -8 91.6617 5.48195   3 
   8  -3   8 94.4280 5.42395   2 
   8  -3  -8 93.3561 5.72053   2 
  -8   3  -8 99.0988 5.97330   3 
  -9  -3  -8 6.72618 2.34621   1 
  -9  -3  -8 10.3671 2.19932   3 
   9  -3   8 10.2532 2.32578   2 
  -9   3  -8 10.1822 2.58799   3 
   9  -3  -8 12.1861 2.77492   2 
 -10  -3  -8 21.3163 2.89399   3 
 -10  -3  -8 20.8661 3.34861   1 
  10  -3   8 22.5211 3.41397   2 
 -10   3  -8 21.0963 3.57253   3 
  10  -3  -8 16.6417 2.78338   2 
 -11  -3  -8 10.1943 2.68315   1 
 -11  -3  -8 11.3400 2.32742   3 
  11  -3   8 11.4840 2.66652   2 
 -11   3  -8 10.6128 2.59068   3 
  11  -3  -8 18.7381 3.54474   2 
 -12  -3  -8 0.03452 1.16215   1 
  12  -3   8 -0.9325 1.41113   2 
 -12  -3  -8 -1.5174 1.15530   3 
 -12   3  -8 -0.4418 3.05755   3 
  12  -3  -8 0.34358 1.64273   2 
 -13  -3  -8 28.9866 3.16441   3 
  13  -3   8 22.1616 3.85771   2 
 -13  -3  -8 22.2793 3.72021   1 
 -13   3  -8 21.8170 3.74741   3 
  13  -3  -8 20.7389 3.59670   2 
 -14  -3  -8 77.0608 6.06752   1 
  14  -3   8 68.6587 5.60595   2 
 -14  -3  -8 65.1664 4.55170   3 
 -14   3  -8 58.5220 5.78690   3 
  14  -3  -8 71.4098 5.53383   2 
 -15  -3  -8 8.64420 2.90157   1 
  15  -3   8 8.94342 2.66004   2 
 -15  -3  -8 4.81177 1.78604   3 
  15  -3  -8 6.46253 2.39145   2 
 -15   3  -8 6.60678 2.94102   3 
 -16  -3  -8 147.049 8.78443   1 
  16  -3  -8 138.990 8.29295   2 
 -16   3  -8 147.367 9.37309   3 
 -17  -3  -8 67.0808 10.4965   1 
  17  -3  -8 42.6681 5.01304   2 
 -17   3  -8 42.1077 5.52477   3 
   0   4  -8 271.938 10.1153   3 
   0  -4  -8 278.138 11.3536   1 
   0  -4   8 273.613 9.09707   2 
   1   4  -8 3.77369 1.44204   3 
  -1  -4  -8 2.62430 1.69691   1 
  -1   4  -8 5.31644 2.11642   3 
  -1  -4   8 4.04800 1.02777   2 
   1  -4  -8 3.46032 1.63329   1 
  -2  -4  -8 85.5051 5.63721   1 
   2  -4   8 87.3715 4.35652   2 
   2  -4  -8 86.2080 5.42996   1 
  -2  -4   8 92.8000 3.52480   2 
  -2   4  -8 85.7814 5.11264   3 
  -3  -4  -8 52.4936 4.50709   1 
   3  -4   8 51.2641 3.42745   2 
   3  -4  -8 45.3231 4.03744   1 
  -3   4  -8 53.6725 4.11172   3 
  -4  -4  -8 188.421 9.09445   1 
   4  -4   8 185.173 7.56701   2 
  -4   4  -8 188.502 8.52075   3 
   4  -4  -8 180.115 8.47081   1 
  -5  -4  -8 3.70118 1.67289   1 
   5  -4   8 3.17241 1.42397   2 
   5  -4  -8 4.89098 2.17102   2 
   5  -4  -8 3.54702 1.73242   1 
  -5   4  -8 5.77768 2.03823   3 
  -6  -4  -8 27.6791 3.67551   1 
   6  -4   8 34.5504 3.27450   2 
   6  -4  -8 29.2426 3.85032   2 
  -6   4  -8 26.1357 3.55601   3 
   6  -4  -8 31.5335 3.46965   1 
  -7  -4  -8 6.73782 1.95324   3 
  -7  -4  -8 10.3173 2.55024   1 
   7  -4   8 11.6165 2.53626   2 
  -7   4  -8 12.8622 3.15920   3 
   7  -4  -8 13.1309 2.70284   2 
  -8  -4  -8 650.760 22.7769   1 
   8  -4   8 628.075 20.8705   2 
  -8  -4  -8 632.652 21.0251   3 
   8  -4  -8 642.684 22.0479   2 
  -8   4  -8 629.856 22.1612   3 
   9  -4   8 9.02959 2.54940   2 
  -9  -4  -8 12.6822 2.96469   1 
  -9  -4  -8 9.22862 2.08057   3 
   9  -4  -8 10.9049 2.88443   2 
  -9   4  -8 12.8200 2.93860   3 
 -10  -4  -8 5.26636 1.72319   3 
  10  -4   8 4.00825 2.14903   2 
 -10  -4  -8 5.63652 2.54009   1 
 -10   4  -8 1.42758 2.27424   3 
  10  -4  -8 3.29063 4.30474   2 
  11  -4   8 9.19038 2.57501   2 
 -11  -4  -8 6.18228 1.85864   3 
 -11  -4  -8 6.82633 2.82185   1 
  11  -4  -8 8.74142 2.73261   2 
 -11   4  -8 6.17990 2.60055   3 
 -12  -4  -8 2.27203 1.48575   3 
 -12  -4  -8 6.17291 2.45914   1 
  12  -4   8 11.5630 3.05018   2 
 -12   4  -8 3.18833 2.18172   3 
  12  -4  -8 3.45082 2.51168   2 
 -13  -4  -8 345.777 14.9830   1 
  13  -4   8 309.858 13.6658   2 
  13  -4  -8 341.130 14.3201   2 
 -13   4  -8 334.843 15.1144   3 
  14  -4   8 5.30662 2.65550   2 
 -14  -4  -8 1.20505 1.76180   1 
 -14   4  -8 5.05219 2.89383   3 
  14  -4  -8 9.96065 3.29034   2 
 -15  -4  -8 12.9190 3.46440   1 
  15  -4   8 11.4820 3.32079   2 
 -15   4  -8 11.2650 3.31034   3 
  15  -4  -8 14.2166 4.73076   2 
   0  -5   8 1.19907 1.14281   2 
   0  -5  -8 -0.3559 1.26864   1 
   0   5  -8 -0.7042 0.94544   3 
   1  -5   8 75.2811 4.60258   2 
  -1  -5  -8 77.9393 5.75343   1 
  -1  -5   8 72.0594 3.53311   2 
   1  -5  -8 81.8898 5.90360   1 
  -1   5  -8 59.6688 4.44848   3 
  -2  -5  -8 9.33903 2.36083   1 
   2  -5   8 9.52431 1.99354   2 
   2  -5  -8 6.19023 2.09858   1 
  -2  -5   8 11.1951 1.47220   2 
  -2   5  -8 12.9533 2.72426   3 
   3  -5   8 0.56513 1.33058   2 
   3   5  -8 -0.3413 0.77118   3 
  -3  -5  -8 1.36389 2.99902   1 
  -3   5  -8 2.49638 1.63613   3 
   3  -5  -8 -1.5883 1.21056   1 
   4  -5   8 97.5675 5.59972   2 
   4  -5  -8 114.698 8.14697   2 
   4  -5  -8 105.057 6.66653   1 
  -4   5  -8 101.663 6.35557   3 
  -5  -5  -8 101.662 6.89998   1 
   5  -5   8 93.4111 5.54312   2 
  -5   5  -8 85.9509 6.22368   3 
   5  -5  -8 94.6411 6.38603   1 
   5  -5  -8 88.3958 6.51386   2 
  -6  -5  -8 13.2390 2.98194   1 
   6  -5   8 15.2449 2.64412   2 
   6  -5  -8 17.4810 3.71897   2 
  -6   5  -8 12.4365 3.14428   3 
  -7  -5  -8 17.3455 3.71035   1 
   7  -5   8 21.5619 3.65207   2 
  -7   5  -8 25.6481 4.08642   3 
   7  -5  -8 24.3976 4.07457   2 
   8  -5   8 35.3404 4.03361   2 
  -8  -5  -8 45.5709 5.02669   1 
  -8   5  -8 39.8642 4.80234   3 
   8  -5  -8 37.9750 4.79146   2 
  -9  -5  -8 2.28351 2.06455   1 
   9  -5   8 1.42123 1.90153   2 
  -9   5  -8 4.30607 2.36464   3 
   9  -5  -8 -0.0914 2.25995   2 
 -10  -5  -8 13.2672 3.65135   1 
  10  -5   8 7.10276 2.46069   2 
  10  -5  -8 9.48171 3.38897   2 
 -10   5  -8 12.9705 3.31721   3 
 -11  -5  -8 2.10770 2.45205   1 
  11  -5   8 4.75620 2.54451   2 
  11  -5  -8 8.37413 2.91543   2 
 -11   5  -8 4.60545 2.58454   3 
 -12  -5  -8 2.39652 3.70011   1 
  12  -5   8 1.94348 2.37543   2 
  -1  -6  -8 2.56373 1.96856   1 
  -1   6  -8 4.02146 1.50636   3 
   1  -6  -8 4.02431 2.46045   2 
   1  -6  -8 2.39213 2.40807   1 
   2  -6   8 21.9158 2.68756   2 
  -2  -6  -8 18.7886 3.82200   1 
   2  -6  -8 15.6095 3.32200   1 
   2  -6  -8 17.9289 3.78012   2 
  -3  -6  -8 11.2478 2.79514   1 
   3  -6   8 13.2423 2.34827   2 
   3  -6  -8 11.3735 3.33235   2 
   3  -6  -8 8.16949 2.74526   1 
   4  -6   8 68.8930 6.18482   2 
  -4  -6  -8 62.0186 6.12733   1 
  -4   6  -8 64.5252 5.25118   3 
   4  -6  -8 61.3597 5.83324   2 
  -5  -6  -8 1.06930 1.78454   1 
   5  -6   8 1.91883 1.91806   2 
  -5   6  -8 5.95698 2.42449   3 
   5  -6  -8 5.35994 2.50317   2 
  -6  -6  -8 12.7246 3.52968   1 
   6  -6   8 5.87393 2.24051   2 
   6  -6  -8 9.16647 3.38359   2 
  -6   6  -8 7.61299 3.10438   3 
  -7  -6  -8 6.25763 5.16794   1 
   7  -6   8 0.28434 1.88949   2 
  -7   6  -8 8.08632 3.26450   3 
   7  -6  -8 2.21698 3.50240   2 
   0   0  -9 -0.1469 0.97878   3 
   0   0   9 -0.5279 0.80068   3 
   0   0  -9 0.09033 0.69837   1 
   1   0  -9 493.415 14.4161   1 
   1   0   9 453.511 15.2448   3 
  -1   0  -9 467.198 15.1425   3 
  -1   0  -9 476.664 14.8139   1 
   1   0  -9 470.813 14.9801   3 
  -1   0   9 479.787 15.1218   3 
   2   0  -9 6.74873 1.59615   3 
  -2   0  -9 6.48934 1.51908   3 
  -2   0  -9 5.52033 1.53424   2 
  -2   0   9 6.64539 1.45687   3 
   2   0  -9 7.68300 1.19640   1 
  -3   0  -9 78.8077 4.28787   3 
   3   0  -9 73.9305 3.03460   1 
  -3   0  -9 75.7240 3.81570   2 
   3   0  -9 77.3936 3.97381   3 
  -3   0   9 72.4207 3.79270   3 
  -4   0  -9 229.023 10.0241   2 
   4   0  -9 239.886 8.45343   3 
   4   0  -9 229.821 7.00922   1 
  -4   0  -9 233.686 8.93770   3 
  -4   0   9 224.496 8.26916   3 
   5   0  -9 221.231 7.77512   3 
   5   0  -9 195.760 6.67265   2 
  -5   0   9 197.750 7.47061   3 
  -5   0  -9 204.522 8.31103   3 
  -6   0  -9 66.8346 4.43530   3 
   6   0  -9 76.5924 3.18855   2 
  -6   0   9 72.5340 3.68366   3 
  -7   0   9 128.979 5.55124   3 
  -7   0  -9 135.073 7.87977   3 
   7   0  -9 140.465 4.97271   2 
  -8   0   9 86.9377 4.78620   3 
  -8   0  -9 99.8412 5.57326   3 
   8   0  -9 99.4309 3.97969   2 
  -9   0  -9 125.899 6.62726   3 
   9   0  -9 131.000 4.98846   2 
  10   0  -9 -1.0711 0.77422   2 
 -10   0  -9 2.32849 1.80159   3 
 -11   0  -9 17.1501 2.95176   1 
  11   0  -9 23.5538 1.99953   2 
 -11   0  -9 16.2465 2.94137   3 
 -12   0  -9 148.690 8.05121   1 
 -12   0  -9 147.860 7.80599   3 
 -13   0  -9 60.1351 5.03779   1 
 -13   0  -9 55.2739 4.82106   3 
 -14   0  -9 97.3942 6.65630   1 
 -14   0  -9 102.794 6.66029   3 
 -15   0  -9 3.54785 1.85767   3 
 -15   0  -9 5.25045 1.96751   1 
 -16   0  -9 0.35434 1.55613   3 
 -16   0  -9 2.02264 1.33282   1 
 -17   0  -9 13.0339 2.94483   1 
 -17   0  -9 14.1521 3.00891   3 
 -18   0  -9 37.3705 4.42509   3 
 -18   0  -9 32.5702 4.06757   1 
   0  -1  -9 230.234 8.46012   3 
   0   1  -9 217.503 7.06253   2 
   0   1  -9 214.743 7.98655   3 
   0  -1  -9 218.528 7.88342   1 
   0  -1   9 205.371 8.02442   3 
  -1  -1  -9 5.63413 1.50485   1 
   1  -1   9 5.40356 1.30996   3 
   1   1  -9 5.37090 1.30883   3 
   1   1  -9 4.31695 0.81183   2 
  -1  -1  -9 3.97580 1.32832   3 
  -1   1  -9 3.51600 1.38304   3 
   1  -1  -9 3.77370 1.08482   1 
  -1   1  -9 6.27760 1.13548   2 
   1  -1  -9 2.53840 1.20961   3 
  -1  -1   9 4.40995 1.11257   3 
   2   1  -9 394.077 12.3091   3 
  -2  -1  -9 377.010 12.9019   3 
  -2  -1  -9 385.650 12.7995   1 
   2   1  -9 379.634 10.9405   2 
  -2   1  -9 396.442 12.8994   3 
   2  -1  -9 391.922 12.0091   1 
  -2  -1   9 363.205 12.9466   3 
   2  -1  -9 362.028 12.7285   3 
  -2   1  -9 377.215 11.9511   2 
   3   1  -9 402.331 12.3845   3 
  -3  -1  -9 376.310 13.1132   3 
  -3  -1  -9 384.075 13.0598   1 
   3  -1  -9 394.204 13.0482   3 
  -3   1  -9 390.235 13.1525   3 
   3  -1  -9 378.037 11.9050   1 
  -3  -1   9 378.153 12.4891   3 
  -4  -1  -9 180.609 7.47100   3 
  -4  -1  -9 183.844 7.56834   1 
   4   1  -9 176.319 6.54011   3 
  -4   1  -9 166.734 6.74974   2 
  -4  -1   9 170.783 6.62379   3 
   4  -1  -9 178.352 6.14266   1 
   4  -1  -9 189.784 7.44663   3 
  -4   1  -9 170.929 7.35688   3 
  -5  -1  -9 304.695 11.1636   3 
  -5  -1  -9 315.039 11.3668   1 
   5   1  -9 312.977 9.97910   3 
  -5   1  -9 307.405 11.2527   3 
   5  -1  -9 284.743 9.35082   1 
  -5  -1   9 298.312 10.0653   3 
  -6  -1  -9 413.283 14.3739   3 
   6   1  -9 424.069 12.9392   3 
   6  -1  -9 424.320 12.3219   1 
  -6   1  -9 421.163 15.1615   3 
  -6  -1   9 394.991 13.0566   3 
   6  -1  -9 425.939 13.4356   2 
  -7  -1  -9 178.355 8.02699   1 
   7  -1  -9 181.814 6.84060   2 
  -7  -1   9 165.702 6.35936   3 
  -7   1  -9 170.929 7.87217   3 
  -8  -1  -9 518.245 17.3158   3 
  -8  -1  -9 519.470 17.8275   1 
  -8  -1   9 487.716 15.4895   3 
  -8   1  -9 514.055 17.6699   3 
   8  -1  -9 525.660 16.1811   2 
  -9  -1  -9 57.3306 4.25119   3 
  -9  -1  -9 56.3255 4.42757   1 
  -9  -1   9 47.6186 2.74229   3 
  -9   1  -9 53.5957 4.34908   3 
   9  -1  -9 51.7712 3.44342   2 
 -10  -1  -9 57.8345 4.44250   3 
 -10  -1  -9 61.1826 4.67928   1 
 -10   1  -9 52.1338 4.47627   3 
  10  -1  -9 60.0316 3.75057   2 
 -10  -1   9 49.5886 2.76403   3 
 -11  -1  -9 29.5077 3.40681   3 
 -11  -1  -9 32.8437 3.63685   1 
 -11   1  -9 29.6400 3.63676   3 
 -11  -1   9 21.9978 2.05229   3 
  11  -1  -9 26.1408 3.16926   2 
 -12  -1  -9 67.9764 5.27681   1 
 -12  -1  -9 64.3901 4.93347   3 
  12  -1  -9 69.1069 4.25783   2 
 -12   1  -9 68.5074 5.27419   3 
 -13  -1  -9 5.15791 2.19867   3 
 -13  -1  -9 1.97306 1.48994   1 
  13  -1  -9 3.70681 1.48915   2 
 -13   1  -9 1.63211 1.72196   3 
 -14  -1  -9 154.770 8.64811   1 
 -14  -1  -9 155.812 8.19431   3 
 -14   1  -9 166.051 8.93847   3 
 -15  -1  -9 6.62776 2.17121   3 
 -15  -1  -9 6.25056 2.24194   1 
 -15   1  -9 3.68122 2.14411   3 
 -16  -1  -9 10.2994 2.93035   1 
 -16   1  -9 20.5460 4.24653   3 
 -17  -1  -9 96.7565 6.81458   1 
 -17  -1  -9 90.5273 6.10288   3 
 -17   1  -9 80.8381 6.47317   3 
 -17   1  -9 74.4721 6.16647   1 
 -18  -1  -9 236.769 11.0177   3 
 -18  -1  -9 223.844 11.6843   1 
 -18   1  -9 236.670 11.8464   1 
 -18   1  -9 250.973 12.1432   3 
   0   2  -9 0.42120 0.54008   2 
   0  -2  -9 -0.3530 0.80608   1 
   0  -2  -9 0.13413 1.15975   3 
   0   2  -9 0.27642 1.00403   3 
   1   2  -9 362.826 11.7142   3 
  -1  -2  -9 347.163 12.1948   1 
   1   2  -9 360.449 11.6385   1 
  -1  -2  -9 351.052 12.5201   3 
   1  -2  -9 357.995 12.5884   3 
   1  -2  -9 341.161 11.8383   1 
  -1   2  -9 352.619 12.0190   3 
  -1   2  -9 341.687 10.8301   2 
  -2  -2  -9 2.90406 1.27802   1 
   2   2  -9 4.44127 1.18042   1 
   2   2  -9 3.10366 1.21990   3 
  -2  -2  -9 4.54803 1.43464   3 
  -2   2  -9 5.39986 1.63479   3 
   2  -2  -9 6.06616 1.94812   3 
   2  -2  -9 4.71141 1.51232   1 
  -2   2  -9 3.67249 1.00674   2 
  -3  -2  -9 55.4798 3.89190   1 
  -3   2   9 58.6105 3.28138   1 
  -3  -2  -9 53.7127 3.93378   3 
   3   2  -9 64.2234 3.28829   3 
   3   2  -9 59.3764 2.94077   1 
  -3   2  -9 62.4431 3.99874   3 
  -3   2  -9 58.2297 3.26458   2 
   3  -2  -9 61.2824 3.51295   1 
   3  -2  -9 60.8238 4.11080   3 
   4  -2   9 189.156 7.04771   2 
  -4  -2  -9 177.024 9.08221   1 
  -4   2   9 173.522 6.73841   1 
   4   2  -9 189.135 6.49691   3 
  -4  -2  -9 178.198 7.81029   3 
  -4   2  -9 169.329 7.64553   3 
   4  -2  -9 185.657 7.00729   1 
  -5   2   9 149.580 6.00320   1 
   5   2  -9 146.688 5.16416   1 
  -5  -2  -9 138.893 7.08847   1 
   5  -2   9 152.669 6.42583   2 
   5   2  -9 156.193 5.50825   3 
  -5  -2  -9 183.856 8.20903   3 
   5  -2  -9 152.162 6.13150   1 
  -5   2  -9 168.967 10.5835   3 
   6  -2   9 63.9226 4.02513   2 
  -6   2   9 66.7014 3.37439   1 
  -6  -2  -9 72.9490 7.25066   3 
  -6  -2  -9 62.4989 4.54450   1 
   6  -2  -9 69.6600 3.61394   1 
  -6   2  -9 63.7019 4.49994   3 
   6  -2  -9 63.7177 4.24011   2 
   7  -2   9 111.845 5.58890   2 
  -7   2   9 104.893 4.56657   1 
  -7  -2  -9 102.933 6.13607   1 
  -7  -2  -9 107.337 5.87202   3 
  -7   2  -9 106.263 6.05307   3 
  -8  -2  -9 83.2935 5.15455   3 
  -8  -2  -9 84.6784 5.59193   1 
   8  -2   9 81.6320 4.90973   2 
  -8   2  -9 80.6425 5.39341   3 
   8  -2  -9 79.1957 5.19395   2 
  -9  -2  -9 99.7131 6.29050   1 
  -9  -2  -9 97.7468 5.82746   3 
   9  -2   9 109.374 5.85789   2 
   9  -2  -9 110.091 5.76086   2 
  -9   2  -9 100.088 6.21476   3 
 -10  -2  -9 4.31525 1.70168   3 
  10  -2   9 1.50413 1.49375   2 
 -10   2   9 1.36282 0.95616   1 
 -10  -2  -9 1.42352 1.26040   1 
 -10   2  -9 2.25352 1.55118   3 
  10  -2  -9 1.08114 1.46352   2 
 -11  -2  -9 12.6066 2.53365   3 
 -11   2   9 10.6461 1.31837   1 
 -11  -2  -9 14.4837 2.68527   1 
 -11   2  -9 15.6465 3.47506   3 
  11  -2  -9 19.5925 3.30659   2 
 -12  -2  -9 120.869 7.61517   1 
 -12  -2  -9 126.331 6.98753   3 
  12  -2  -9 134.510 6.87800   2 
 -12   2  -9 136.890 7.85989   3 
 -13  -2  -9 44.0367 4.66066   1 
 -13  -2  -9 45.4588 4.06849   3 
 -13   2  -9 53.3646 5.15728   3 
  13  -2  -9 50.1868 4.19072   2 
 -14  -2  -9 81.2775 6.25030   1 
 -14  -2  -9 74.1238 5.28415   3 
  14  -2  -9 82.5554 5.44933   2 
 -14   2  -9 80.6813 6.33293   3 
 -15  -2  -9 5.06405 1.79708   3 
 -15  -2  -9 2.26632 1.65605   1 
  15  -2  -9 0.58937 1.72325   2 
 -15   2  -9 0.55010 1.81693   3 
 -16  -2  -9 2.48977 1.84735   1 
 -16   2  -9 1.78090 1.96243   3 
  16  -2  -9 9.45894 2.36189   2 
 -17  -2  -9 13.8474 2.70540   3 
 -17  -2  -9 17.0067 3.64860   1 
 -17   2  -9 10.9523 3.33224   3 
   0   3  -9 165.280 7.05880   3 
   0  -3  -9 171.535 7.64008   1 
   0  -3  -9 177.526 7.97580   3 
   1   3  -9 5.44756 1.49031   3 
  -1  -3  -9 3.29770 1.61652   1 
   1  -3   9 4.23643 1.12040   2 
  -1  -3  -9 3.24284 1.52715   3 
   1  -3  -9 2.46953 1.49126   1 
  -1   3  -9 0.87678 1.13202   3 
  -2  -3  -9 191.053 8.35619   3 
  -2  -3  -9 179.822 8.15777   1 
   2   3  -9 177.729 6.98373   3 
   2  -3   9 193.893 6.89828   2 
   2  -3  -9 185.357 9.05749   1 
  -2   3  -9 182.012 7.83390   3 
  -3  -3  -9 237.162 9.82616   1 
   3  -3   9 236.622 8.32017   2 
  -3  -3  -9 228.331 9.58664   3 
   3   3  -9 207.783 7.80746   3 
  -3   3  -9 242.512 11.1545   3 
  -4  -3  -9 82.7492 5.15230   3 
   4   3  -9 70.6485 3.95241   1 
  -4  -3  -9 74.2426 5.11924   1 
   4   3  -9 82.6084 3.52097   3 
   4  -3   9 86.6050 4.37270   2 
   4  -3  -9 78.5580 5.42076   1 
  -4   3  -9 84.2370 5.13797   3 
   5  -3   9 186.711 7.52066   2 
  -5  -3  -9 188.048 8.74593   1 
  -5  -3  -9 191.958 8.47771   3 
   5   3  -9 177.445 7.00937   1 
   5  -3  -9 180.241 8.24265   1 
  -5   3  -9 180.271 8.32065   3 
   6  -3   9 221.135 8.65394   2 
  -6  -3  -9 221.040 9.87954   1 
  -6  -3  -9 237.077 9.62381   3 
   6   3  -9 186.320 7.41973   1 
  -6   3  -9 225.637 9.66653   3 
   6  -3  -9 207.789 9.11847   1 
   6  -3  -9 235.651 9.64661   2 
   7  -3   9 112.653 5.81419   2 
  -7  -3  -9 121.303 6.90549   1 
  -7  -3  -9 106.674 6.15743   3 
   7  -3  -9 101.119 5.93413   1 
  -7   3  -9 99.7739 6.23851   3 
   7  -3  -9 120.726 6.45098   2 
   8  -3   9 305.829 11.5184   2 
  -8  -3  -9 293.751 11.8742   3 
  -8  -3  -9 318.227 12.9959   1 
  -8   3  -9 295.353 12.3355   3 
  -9  -3  -9 40.5399 3.79085   3 
   9  -3   9 35.5129 3.67940   2 
  -9  -3  -9 34.1779 3.99608   1 
   9  -3  -9 31.0160 3.92236   2 
  -9   3  -9 31.0678 3.85148   3 
  10  -3   9 31.3928 3.54596   2 
 -10  -3  -9 34.2127 4.07688   1 
 -10  -3  -9 29.8256 3.44075   3 
  10  -3  -9 28.1320 3.64035   2 
 -10   3  -9 31.3620 4.01044   3 
  11  -3   9 20.0287 3.31611   2 
 -11  -3  -9 16.8206 3.65673   1 
 -11  -3  -9 16.1699 2.87405   3 
 -11   3  -9 18.5890 3.79537   3 
  11  -3  -9 14.6411 3.12487   2 
 -12  -3  -9 51.7813 6.14260   1 
 -12  -3  -9 37.6117 3.71113   3 
 -12   3  -9 37.8653 4.46928   3 
  12  -3  -9 37.2334 4.23955   2 
 -13  -3  -9 1.76957 1.57821   1 
  13  -3   9 4.90207 2.34995   2 
 -13  -3  -9 4.96488 1.80885   3 
 -13   3  -9 4.07205 2.47211   3 
  13  -3  -9 3.91058 2.88732   2 
 -14  -3  -9 90.8883 5.61653   3 
  14  -3   9 88.3137 6.36901   2 
 -14  -3  -9 89.7186 6.80813   1 
  14  -3  -9 90.5558 6.25892   2 
 -14   3  -9 94.7311 7.05624   3 
 -15  -3  -9 -0.5313 1.57300   1 
 -15  -3  -9 5.63011 1.77837   3 
 -15   3  -9 4.23554 2.53975   3 
  15  -3  -9 2.35727 1.96280   2 
 -16  -3  -9 6.79679 3.23172   3 
 -16  -3  -9 7.19030 2.18248   1 
 -16   3  -9 11.9356 5.63490   3 
  16  -3  -9 7.99690 2.48540   2 
   0  -4   9 0.97256 0.89927   2 
   0  -4  -9 -0.7619 1.35564   1 
   0   4  -9 -0.3070 1.28377   3 
   1  -4   9 197.209 6.91407   2 
   1   4  -9 175.254 7.35474   3 
  -1  -4  -9 172.133 8.54289   1 
  -1   4  -9 180.625 7.92798   3 
  -1  -4   9 183.711 6.12284   2 
   1  -4  -9 176.218 8.46859   1 
   2  -4   9 2.70703 1.23310   2 
  -2  -4  -9 0.68613 1.63411   1 
   2  -4  -9 1.58018 1.68268   1 
  -2   4  -9 2.20362 1.64193   3 
  -3  -4  -9 34.9739 3.82812   1 
   3  -4   9 33.6400 2.86717   2 
  -3   4  -9 32.0581 3.53386   3 
   3  -4  -9 28.2175 3.48592   1 
   4  -4   9 91.2852 4.86120   2 
  -4  -4  -9 91.4213 6.21144   1 
  -4   4  -9 98.3061 5.93313   3 
   4  -4  -9 93.1969 5.75930   1 
  -5  -4  -9 90.5933 6.16276   1 
   5  -4   9 92.2272 5.07683   2 
  -5   4  -9 90.5379 5.87370   3 
   5  -4  -9 88.9712 6.05010   2 
   5  -4  -9 93.2675 5.76192   1 
  -6  -4  -9 40.0240 4.36992   1 
   6  -4   9 36.9807 3.47243   2 
  -6  -4  -9 39.9371 3.93273   3 
   6  -4  -9 39.4605 3.87675   1 
  -6   4  -9 40.0793 4.23199   3 
   6  -4  -9 37.8332 4.23087   2 
  -7  -4  -9 59.0071 5.30980   1 
   7  -4   9 59.8176 4.42887   2 
  -7  -4  -9 62.6161 4.70158   3 
   7  -4  -9 58.0342 5.12843   2 
  -7   4  -9 53.8762 4.83882   3 
  -8  -4  -9 49.0156 4.24245   3 
  -8  -4  -9 55.5997 5.28851   1 
   8  -4   9 51.4873 4.33216   2 
   8  -4  -9 53.0639 5.00196   2 
  -8   4  -9 43.0979 4.60916   3 
  -9  -4  -9 65.0583 6.36841   1 
   9  -4   9 62.3325 4.81339   2 
  -9  -4  -9 61.7284 4.67551   3 
   9  -4  -9 71.3331 8.63365   2 
 -10  -4  -9 1.04465 1.74871   1 
 -10  -4  -9 -0.2061 1.26399   3 
 -10   4  -9 2.21980 2.01691   3 
  10  -4  -9 -0.8853 1.66587   2 
 -11  -4  -9 6.19759 1.96753   3 
  11  -4   9 6.32224 2.59342   2 
 -11  -4  -9 10.6893 3.17603   1 
  11  -4  -9 2.94502 1.88524   2 
 -11   4  -9 7.60399 2.56700   3 
 -12  -4  -9 71.0971 4.78944   3 
  12  -4   9 62.2549 5.43509   2 
 -12  -4  -9 72.2495 6.27952   1 
  12  -4  -9 73.1100 6.03307   2 
 -12   4  -9 64.8715 6.19588   3 
 -13  -4  -9 21.7395 4.17854   1 
 -13  -4  -9 32.4725 3.37212   3 
  13  -4   9 23.9617 4.03180   2 
 -13   4  -9 33.7534 5.65578   3 
  13  -4  -9 36.2487 4.86315   2 
  14  -4   9 35.0692 4.51081   2 
 -14  -4  -9 43.1066 5.26952   1 
 -14   4  -9 56.5980 9.90698   3 
  14  -4  -9 43.3039 5.23833   2 
   0  -5  -9 145.096 10.6256   1 
   0  -5   9 105.420 4.89248   2 
   1   5  -9 -1.4281 0.95926   3 
   1  -5   9 -0.0571 1.55227   2 
  -1  -5   9 0.41808 1.02008   2 
   1  -5  -9 4.88000 2.03969   1 
   2  -5   9 48.8440 3.58239   2 
  -2  -5  -9 57.9559 5.76888   1 
   2  -5  -9 62.0388 5.85477   1 
  -2   5  -9 64.5600 4.69862   3 
   3  -5   9 96.8952 5.09944   2 
  -3  -5  -9 101.352 6.91199   1 
   3  -5  -9 93.1069 6.86402   1 
  -3   5  -9 103.061 6.27118   3 
  -4  -5  -9 15.9133 3.33995   1 
   4  -5   9 19.5592 2.72525   2 
  -4   5  -9 22.3664 3.56083   3 
   4  -5  -9 27.2348 4.53244   2 
   4  -5  -9 17.5477 4.01021   1 
   5  -5   9 72.9658 4.72855   2 
  -5  -5  -9 69.7543 6.07203   1 
  -5   5  -9 86.4464 6.27942   3 
   5  -5  -9 71.3899 6.01989   2 
  -6  -5  -9 88.7932 6.76333   1 
   6  -5   9 85.5522 5.48740   2 
   6  -5  -9 88.7088 6.61709   2 
  -6   5  -9 96.0804 8.19452   3 
   7  -5   9 46.9222 4.41583   2 
  -7  -5  -9 47.9818 5.15435   1 
  -7   5  -9 50.3955 5.08839   3 
   7  -5  -9 52.8501 5.26492   2 
  -8  -5  -9 124.359 8.43935   1 
   8  -5   9 135.164 7.49395   2 
   8  -5  -9 124.021 8.09064   2 
  -8   5  -9 136.036 8.27189   3 
  -9  -5  -9 18.2839 3.99722   1 
   9  -5   9 16.1098 3.44096   2 
  -9   5  -9 13.6476 3.61500   3 
   9  -5  -9 15.0566 3.47225   2 
 -10  -5  -9 12.3613 3.30541   1 
  10  -5   9 7.65851 2.45739   2 
 -10   5  -9 12.9241 3.66376   3 
  10  -5  -9 11.2829 3.38079   2 
  11  -5   9 5.31948 2.23268   2 
 -11  -5  -9 13.1627 3.84652   1 
 -11   5  -9 5.10121 3.21602   3 
  11  -5  -9 11.8147 3.47957   2 
   0   6  -9 -4.2274 1.87208   3 
   0  -6  -9 4.81751 2.21165   1 
  -1  -6  -9 69.2864 6.28163   1 
   1  -6  -9 69.6596 6.30546   1 
  -2  -6  -9 -0.1557 1.67428   1 
   2  -6  -9 0.06745 2.23781   2 
   2  -6  -9 2.25145 2.56023   1 
  -3  -6  -9 9.46850 3.12314   1 
   3  -6   9 10.8794 2.32228   2 
   3  -6  -9 8.82440 3.04146   1 
   3  -6  -9 10.3408 3.24681   2 
   4  -6   9 32.4296 3.79773   2 
  -4  -6  -9 40.3729 6.15437   1 
   4  -6  -9 25.8392 4.13021   1 
   4  -6  -9 28.4983 4.66760   2 
  -5  -6  -9 30.5181 5.05512   1 
   5  -6   9 37.0767 3.83346   2 
   5  -6  -9 36.3674 5.77891   2 
  -5   6  -9 36.5012 4.89073   3 
   6  -6   9 6.02621 2.55075   2 
  -6  -6  -9 16.0819 5.02291   1 
  -6   6  -9 12.3103 3.41187   3 
   6  -6  -9 14.8227 5.57925   2 
   0   0 -10 238.801 8.38791   1 
   0   0 -10 237.848 8.90302   3 
  -1   0 -10 166.771 7.07132   3 
  -1   0 -10 181.985 6.85141   1 
   1   0 -10 169.918 6.98704   3 
   1   0 -10 169.752 6.27704   1 
   2   0 -10 1285.87 36.3233   1 
  -2   0 -10 1343.59 37.4727   1 
   2   0 -10 1334.40 37.4640   3 
  -2   0 -10 1272.28 37.6601   3 
  -2   0 -10 1238.52 36.8535   2 
  -3   0 -10 167.316 7.36701   2 
  -3   0 -10 171.925 7.21848   3 
   3   0 -10 162.746 5.72809   1 
  -3   0 -10 163.155 6.97827   1 
   3   0 -10 177.048 6.92947   3 
  -4   0 -10 977.761 30.2669   3 
   4   0 -10 1042.96 29.7976   3 
  -5   0 -10 159.275 7.27546   3 
   5   0 -10 164.852 6.70501   3 
   5   0 -10 154.618 5.58145   2 
   6   0 -10 240.060 7.96112   2 
  -6   0 -10 257.108 10.1971   3 
  -7   0 -10 7.66585 2.02024   3 
   7   0 -10 5.84974 1.13356   2 
   8   0 -10 151.794 5.53296   2 
  -8   0 -10 158.736 7.61008   3 
  -9   0 -10 23.7361 3.19036   3 
  -9   0 -10 24.2887 3.16476   1 
   9   0 -10 31.3340 2.07327   2 
 -10   0 -10 9.91934 2.49861   1 
 -10   0 -10 11.4540 2.87170   3 
 -11   0 -10 29.4396 3.62459   1 
 -11   0 -10 40.3551 4.09192   3 
 -12   0 -10 330.917 13.5420   1 
 -12   0 -10 312.448 13.1400   3 
 -13   0 -10 4.80891 2.10745   3 
 -13   0 -10 2.85775 1.59371   1 
 -15   0 -10 16.2329 3.35532   3 
 -15   0 -10 15.3465 3.20784   1 
 -16   0 -10 5.87111 1.94407   1 
 -16   0 -10 9.16919 2.84495   3 
 -17   0 -10 66.2589 5.56227   3 
 -17   0 -10 57.6043 5.32477   1 
 -18   0 -10 -3.2383 2.46100   1 
 -18   0 -10 1.20837 2.03956   3 
   0  -1 -10 0.27066 0.96063   1 
   0   1 -10 0.35342 0.95614   3 
   0  -1 -10 -0.3936 0.98141   3 
  -1  -1 -10 1.02459 0.99384   1 
   1   1 -10 1.07593 1.02680   3 
  -1  -1 -10 2.85448 1.52563   3 
   1   1 -10 3.25530 0.76527   2 
   1  -1 -10 2.10307 1.29620   3 
   1  -1 -10 1.39621 0.92133   1 
  -1   1 -10 2.93727 0.88459   2 
  -1  -1  10 1.89250 0.93914   3 
  -1   1 -10 2.20749 1.18720   3 
  -2  -1 -10 17.7199 2.44295   3 
   2   1 -10 17.8602 2.16748   3 
  -2  -1 -10 17.7968 2.25332   1 
   2  -1 -10 18.6648 1.88762   1 
  -2   1 -10 17.1849 2.35873   3 
  -2  -1  10 16.7981 1.97278   3 
   2  -1 -10 19.1113 2.49946   3 
  -2   1 -10 20.5277 1.81052   2 
  -3  -1 -10 256.665 9.51569   1 
  -3  -1 -10 259.707 9.70990   3 
   3   1 -10 267.959 8.96412   3 
   3  -1 -10 242.450 9.41663   3 
   3  -1 -10 236.847 8.29599   1 
  -3   1 -10 242.434 8.72766   2 
  -3   1 -10 241.856 9.50377   3 
  -3  -1  10 239.879 8.92463   3 
   4   1 -10 159.807 5.10003   1 
   4   1 -10 157.567 6.19067   3 
   4   1 -10 163.196 5.48882   1 
  -4  -1 -10 151.831 6.88662   1 
  -4  -1 -10 151.710 6.97679   3 
  -4  -1  10 144.370 6.15630   3 
   4  -1 -10 143.572 5.52877   1 
   4  -1 -10 154.393 6.85282   3 
  -4   1 -10 151.433 6.93839   3 
  -5  -1 -10 72.6381 5.28089   1 
   5   1 -10 80.6092 3.96452   3 
   5  -1 -10 80.6794 4.63194   3 
   5  -1 -10 72.1871 3.24266   1 
   6   1 -10 33.1951 2.58147   3 
  -6  -1 -10 31.6964 3.22116   1 
  -6  -1 -10 29.4044 3.19099   3 
  -6   1 -10 35.6084 3.39576   3 
   6  -1 -10 33.4809 1.89173   1 
   6  -1 -10 33.2986 2.73435   2 
  -7  -1 -10 25.5031 3.05352   1 
  -7  -1 -10 26.9412 3.09614   3 
   7  -1 -10 29.9382 2.62679   2 
  -7  -1  10 22.1803 2.28052   3 
  -7   1 -10 22.7597 2.99031   3 
  -8  -1 -10 93.0140 5.48471   3 
  -8  -1 -10 95.8764 5.76557   1 
  -8  -1  10 82.1088 4.26618   3 
  -8   1 -10 89.4675 5.61395   3 
   8  -1 -10 89.7177 4.57589   2 
  -9  -1 -10 428.365 15.6757   3 
  -9  -1 -10 452.609 16.3440   1 
  -9   1 -10 458.908 16.2707   3 
   9  -1 -10 467.792 14.5000   2 
  -9  -1  10 398.016 13.7904   3 
 -10  -1 -10 503.453 17.8582   3 
 -10  -1 -10 529.798 18.6369   1 
  10  -1 -10 531.825 16.4884   2 
 -10  -1  10 454.960 15.5689   3 
 -10   1 -10 541.096 18.5615   3 
 -11  -1 -10 0.43885 1.23667   1 
 -11  -1 -10 1.08466 1.64385   3 
 -11   1 -10 1.63933 1.75663   3 
 -11  -1  10 0.54188 0.83407   3 
 -12  -1 -10 66.2270 5.43671   1 
 -12  -1 -10 75.2200 5.40616   3 
 -12   1 -10 73.8162 5.70255   3 
  12  -1 -10 78.5924 4.47015   2 
 -13  -1 -10 35.0256 3.81618   3 
 -13  -1 -10 33.6123 4.03597   1 
 -13   1 -10 40.6975 4.43259   3 
 -14  -1 -10 47.0562 5.10958   1 
 -14  -1 -10 37.7761 4.00746   3 
 -14   1 -10 45.0718 5.84072   3 
 -15  -1 -10 2.81691 2.17424   1 
 -15   1 -10 2.98389 2.11555   3 
 -16  -1 -10 10.8327 2.48372   3 
 -16  -1 -10 9.30899 2.59325   1 
 -16   1 -10 9.97796 2.88682   3 
 -16   1 -10 8.22553 2.47975   1 
 -17  -1 -10 18.7397 4.22356   1 
 -17  -1 -10 12.1133 2.76152   3 
 -17   1 -10 18.3581 4.39115   1 
 -17   1 -10 16.1688 3.77684   3 
 -18  -1 -10 3.95891 3.07192   1 
 -18  -1 -10 9.99112 2.87161   3 
 -18   1 -10 4.93768 2.66278   1 
   0  -2 -10 168.516 8.42845   3 
   0  -2 -10 162.055 6.88864   1 
   0   2 -10 150.485 5.34146   2 
   0   2 -10 164.126 6.81435   3 
  -1  -2 -10 132.180 6.14362   1 
   1   2 -10 126.073 5.35464   1 
  -1  -2 -10 131.149 7.85668   3 
   1   2 -10 125.253 5.66523   3 
   1  -2 -10 128.155 5.83808   1 
  -1   2 -10 121.974 5.89102   3 
   1  -2 -10 137.445 7.07947   3 
  -1   2 -10 127.169 4.85584   2 
  -2  -2 -10 979.362 29.9898   1 
  -2  -2 -10 1023.86 31.1362   3 
   2   2 -10 979.818 28.9809   3 
  -2   2 -10 986.857 28.6670   2 
   2  -2 -10 984.420 29.3431   1 
   2  -2 -10 996.130 30.3758   3 
  -2   2 -10 1018.52 29.9279   3 
  -3  -2 -10 148.671 9.85455   1 
  -3  -2 -10 127.575 6.57689   3 
   3   2 -10 139.447 5.61486   3 
   3   2 -10 130.904 5.15490   1 
  -3   2 -10 136.455 6.53065   3 
   3  -2 -10 135.039 5.83731   1 
   3  -2 -10 124.564 6.48540   3 
  -3   2 -10 134.462 5.53916   2 
   4   2 -10 796.503 22.5142   3 
   4   2 -10 706.082 22.2175   1 
  -4  -2 -10 743.073 24.1909   1 
  -4  -2 -10 772.848 24.2614   3 
   4  -2 -10 756.718 22.9297   1 
  -4   2 -10 813.636 24.6545   3 
  -5  -2 -10 123.822 6.41892   3 
  -5   2  10 111.901 5.09635   1 
   5   2 -10 119.827 4.29322   1 
  -5  -2 -10 115.347 6.34895   1 
   5   2 -10 125.747 4.89658   3 
  -5   2 -10 127.136 6.46477   3 
   5  -2 -10 124.575 5.32787   1 
  -6  -2 -10 181.571 8.25399   3 
  -6   2  10 171.724 6.73612   1 
   6   2 -10 175.980 6.23310   3 
  -6  -2 -10 190.799 8.66246   1 
  -6   2 -10 190.562 8.44354   3 
   6  -2 -10 179.342 6.86647   1 
  -7   2  10 4.87068 1.16444   1 
  -7  -2 -10 4.00609 1.79485   3 
  -7  -2 -10 3.23715 1.78937   1 
   7  -2 -10 0.95685 1.44082   2 
  -7   2 -10 6.18694 2.18202   3 
  -8  -2 -10 109.303 6.24639   3 
  -8  -2 -10 107.133 6.58104   1 
  -8   2 -10 114.827 6.61083   3 
   8  -2 -10 117.880 5.95942   2 
  -9  -2 -10 25.1548 3.37832   1 
  -9  -2 -10 15.7660 2.88582   3 
  -9   2  10 19.3470 1.97675   1 
   9  -2 -10 23.5587 3.09732   2 
  -9   2 -10 18.3113 3.20239   3 
 -10  -2 -10 3.92788 2.00247   1 
 -10  -2 -10 8.55862 2.31101   3 
 -10   2  10 6.74598 1.06595   1 
  10  -2 -10 4.39087 1.93112   2 
 -10   2 -10 7.82925 2.39615   3 
 -11  -2 -10 30.3051 3.53727   3 
 -11  -2 -10 21.4946 3.95164   1 
 -11   2 -10 27.3430 3.83096   3 
  11  -2 -10 31.8908 3.47080   2 
 -12  -2 -10 225.110 10.3595   3 
 -12  -2 -10 254.121 11.7548   1 
  12  -2 -10 235.216 9.93846   2 
 -12   2 -10 236.423 11.2884   3 
 -13  -2 -10 4.74909 2.37145   1 
 -13  -2 -10 4.67618 1.75700   3 
 -13   2 -10 -0.0130 1.97385   3 
  13  -2 -10 4.07537 1.79255   2 
 -14  -2 -10 140.539 8.89926   1 
 -14  -2 -10 173.365 8.61201   3 
  14  -2 -10 172.520 8.12403   2 
 -14   2 -10 160.615 9.30552   3 
 -15  -2 -10 14.0821 2.89584   1 
 -15   2 -10 27.8912 4.75158   3 
 -16  -2 -10 9.36651 2.71077   1 
 -16  -2 -10 10.0788 2.45198   3 
 -16   2 -10 18.0409 3.96933   3 
 -17  -2 -10 46.4987 4.52834   3 
 -17  -2 -10 48.7382 5.64290   1 
   0  -3 -10 0.55543 1.25357   1 
   0   3 -10 1.74083 1.38740   3 
   0  -3 -10 0.04855 1.15941   3 
  -1  -3 -10 -0.3398 1.14643   3 
   1   3 -10 2.06961 1.31728   3 
  -1  -3 -10 2.33308 1.32152   1 
   1  -3 -10 1.41276 1.46918   1 
  -1   3 -10 -0.7563 1.10335   3 
   2   3 -10 10.8259 1.97398   3 
  -2  -3 -10 13.7963 2.50281   1 
  -2  -3 -10 12.2182 2.79560   3 
   2  -3 -10 13.2199 2.26888   1 
  -2   3 -10 13.0721 2.74902   3 
  -3  -3 -10 157.711 7.73083   1 
   3  -3  10 162.528 6.39014   2 
   3   3 -10 150.588 6.06804   3 
  -3  -3 -10 149.201 7.59021   3 
  -3   3 -10 155.294 7.35080   3 
   3  -3 -10 157.741 7.16352   1 
  -4  -3 -10 95.6454 5.93131   3 
   4  -3  10 109.104 5.06059   2 
   4   3 -10 91.5140 4.79215   1 
  -4  -3 -10 104.569 6.13318   1 
  -4   3 -10 104.317 5.93718   3 
   4  -3 -10 102.036 5.39790   1 
   5   3 -10 49.9714 3.19116   1 
  -5  -3 -10 52.5080 4.43263   1 
  -5  -3 -10 46.1200 4.16575   3 
  -5   3 -10 55.9489 4.43782   3 
   5  -3 -10 49.5731 4.01891   1 
  -6  -3 -10 26.2084 3.43393   1 
   6   3 -10 14.3872 1.81615   1 
  -6  -3 -10 18.6138 3.02794   3 
   6  -3  10 24.4370 2.80828   2 
   6  -3 -10 13.0239 2.90612   1 
   6  -3 -10 20.2808 3.24755   2 
  -6   3 -10 24.9673 3.30284   3 
  -7  -3 -10 16.9583 3.26247   1 
  -7  -3 -10 13.9217 2.73427   3 
   7  -3  10 13.5010 2.57175   2 
  -7   3 -10 12.0398 2.66066   3 
   7  -3 -10 16.4616 4.25231   1 
   7  -3 -10 19.9569 3.41113   2 
  -8  -3 -10 55.3141 4.60217   3 
  -8  -3 -10 56.6566 5.05230   1 
   8  -3  10 61.4620 4.43723   2 
   8  -3 -10 64.2315 4.94393   2 
  -8   3 -10 53.2562 4.74076   3 
  -9  -3 -10 293.220 13.1113   1 
  -9  -3 -10 314.507 12.4263   3 
   9  -3  10 307.995 11.8912   2 
  -9   3 -10 288.505 12.6777   3 
   9  -3 -10 308.318 12.3818   2 
 -10  -3 -10 337.385 14.6188   1 
  10  -3  10 333.966 13.1824   2 
 -10  -3 -10 343.456 13.5386   3 
 -10   3 -10 352.399 14.4633   3 
  10  -3 -10 360.859 13.8005   2 
 -11  -3 -10 2.51695 2.34541   1 
 -11  -3 -10 -1.8974 1.25219   3 
  11  -3  10 0.80333 1.62448   2 
 -11   3 -10 1.72570 2.09226   3 
  11  -3 -10 2.88064 1.83812   2 
 -12  -3 -10 44.3222 4.22876   3 
 -12  -3 -10 47.6724 5.08598   1 
  12  -3 -10 50.7691 5.04190   2 
 -12   3 -10 47.5377 5.03350   3 
 -13  -3 -10 24.1569 4.75503   1 
 -13  -3 -10 26.6996 3.48827   3 
 -13   3 -10 33.5297 5.20802   3 
  13  -3 -10 19.5176 3.19940   2 
 -14  -3 -10 19.8065 3.64344   1 
 -14   3 -10 25.9012 4.75184   3 
  14  -3 -10 20.8902 3.73294   2 
 -15  -3 -10 4.31819 2.19243   1 
 -15  -3 -10 4.15611 1.83057   3 
 -15   3 -10 1.51271 2.27167   3 
  15  -3 -10 1.15571 2.27142   2 
 -16  -3 -10 4.81427 4.03713   1 
 -16  -3 -10 8.08266 3.58160   3 
 -16   3 -10 7.93352 2.83290   3 
  16  -3 -10 4.50120 2.39992   2 
   0   4 -10 68.8995 5.13320   3 
   0  -4 -10 68.7150 5.03430   1 
   1  -4  10 76.8286 3.66645   2 
  -1  -4 -10 66.4149 5.18814   1 
   1  -4 -10 62.1524 4.92826   1 
  -1   4 -10 69.7736 4.76399   3 
   2  -4  10 496.241 15.2637   2 
  -2  -4 -10 480.531 17.6146   1 
  -2   4 -10 474.507 16.6376   3 
   2  -4 -10 465.267 17.0642   1 
   3  -4  10 76.6340 4.27526   2 
  -3  -4 -10 80.2196 5.68083   1 
  -3   4 -10 67.6420 5.10932   3 
   3  -4 -10 64.6562 4.99021   1 
  -4  -4 -10 369.313 14.7150   1 
   4  -4  10 368.529 12.5901   2 
   4  -4 -10 362.784 13.7889   1 
  -4   4 -10 354.770 13.8868   3 
  -5  -4 -10 71.7943 5.36433   3 
   5  -4  10 72.3471 4.48711   2 
  -5  -4 -10 70.6511 5.60773   1 
  -5   4 -10 67.3501 5.20416   3 
   5  -4 -10 63.5927 5.34380   2 
   5  -4 -10 71.7563 5.05945   1 
   6  -4  10 79.3888 4.91414   2 
  -6  -4 -10 72.5357 5.33682   3 
  -6  -4 -10 78.4166 6.05760   1 
  -6   4 -10 82.2015 5.75304   3 
   6  -4 -10 79.8456 5.89638   2 
   6  -4 -10 73.7658 5.13898   1 
  -7  -4 -10 0.96647 1.64070   1 
  -7  -4 -10 1.15114 1.55243   3 
   7  -4  10 -0.2625 1.36900   2 
   7  -4 -10 -0.6133 1.95262   2 
  -7   4 -10 1.46209 1.78722   3 
  -8  -4 -10 43.1942 4.24612   3 
  -8  -4 -10 50.9838 5.15958   1 
   8  -4  10 53.1219 4.20507   2 
  -8   4 -10 47.9444 5.02515   3 
   8  -4 -10 51.9156 6.39291   2 
  -9  -4 -10 10.0015 2.31890   3 
   9  -4  10 12.6632 2.67916   2 
  -9  -4 -10 11.0357 2.80841   1 
  -9   4 -10 14.2946 3.37256   3 
   9  -4 -10 14.8423 3.70650   2 
 -10  -4 -10 3.14700 1.70989   3 
 -10  -4 -10 1.46211 1.96414   1 
  10  -4  10 0.74922 1.76569   2 
 -10   4 -10 1.36564 1.82519   3 
  10  -4 -10 2.27973 2.58692   2 
 -11  -4 -10 16.0315 2.70498   3 
 -11  -4 -10 17.4044 4.01357   1 
  11  -4  10 11.3365 2.79273   2 
  11  -4 -10 20.8091 3.98634   2 
 -11   4 -10 15.5414 3.64400   3 
  12  -4  10 122.052 7.37944   2 
 -12  -4 -10 98.3716 7.68519   3 
 -12  -4 -10 120.558 8.25159   1 
 -12   4 -10 120.151 8.43873   3 
  12  -4 -10 124.773 7.89197   2 
 -13  -4 -10 3.25145 2.67554   1 
  13  -4  10 5.34453 2.31373   2 
  13  -4 -10 4.59068 3.40668   2 
 -13   4 -10 2.57461 2.34370   3 
 -14  -4 -10 96.3723 8.08710   1 
  14  -4 -10 90.0395 8.75943   2 
 -14   4 -10 92.5123 7.89346   3 
   0  -5 -10 -0.7039 1.64512   1 
   1  -5  10 2.91245 1.28256   2 
  -1  -5 -10 1.68938 1.72854   1 
   1   5 -10 0.50996 0.93979   3 
  -1   5 -10 1.08584 1.07318   3 
   1  -5 -10 0.72959 1.61809   1 
   2  -5  10 4.45483 1.57177   2 
   2   5 -10 1.03320 1.10153   3 
  -2  -5 -10 8.46432 2.71506   1 
  -2   5 -10 4.21884 1.89893   3 
   2  -5 -10 3.21630 2.24013   1 
   3  -5  10 70.5312 4.25945   2 
  -3  -5 -10 62.0908 5.65056   1 
  -3   5 -10 80.1933 5.58800   3 
   3  -5 -10 77.9455 6.02960   1 
   4  -5  10 37.9606 3.29219   2 
  -4  -5 -10 40.9961 4.74432   1 
   4  -5 -10 46.7636 4.97813   2 
  -4   5 -10 35.3378 4.24603   3 
   4  -5 -10 37.4658 4.34412   1 
  -5  -5 -10 16.6422 3.57803   1 
   5  -5  10 22.5534 2.80300   2 
   5  -5 -10 26.1899 4.18101   2 
   5  -5 -10 24.2624 3.70905   1 
   6  -5  10 6.10357 1.92981   2 
  -6  -5 -10 10.5666 3.28949   1 
  -6   5 -10 7.94309 2.67479   3 
   6  -5 -10 4.96137 2.73895   2 
  -7  -5 -10 8.31012 3.08421   1 
  -7   5 -10 6.89623 2.47215   3 
   7  -5 -10 12.9435 3.34312   2 
   8  -5  10 26.8551 3.41412   2 
  -8  -5 -10 35.8578 4.73777   1 
   8  -5 -10 23.4000 4.15378   2 
  -8   5 -10 32.8184 4.56749   3 
   9  -5  10 139.494 7.66221   2 
  -9  -5 -10 150.152 9.46118   1 
   9  -5 -10 135.684 8.75368   2 
  -9   5 -10 155.867 9.33062   3 
  10  -5  10 146.793 8.06826   2 
 -10  -5 -10 160.236 10.0177   1 
  10  -5 -10 154.754 9.27570   2 
 -10   5 -10 142.432 9.56917   3 
  11  -5  10 3.72088 2.32130   2 
 -11  -5 -10 -0.3901 2.02899   1 
 -11   5 -10 -3.3145 3.04144   3 
  11  -5 -10 -1.7510 2.91825   2 
   0  -6 -10 25.9155 4.77592   1 
  -1  -6 -10 27.5951 4.89552   1 
   1  -6 -10 11.4697 3.07864   1 
  -2  -6 -10 172.883 10.0502   1 
   2  -6 -10 166.766 9.89392   2 
   2  -6 -10 157.718 9.49758   1 
  -3  -6 -10 26.1292 5.43150   1 
   3  -6 -10 28.8461 5.08594   1 
   3  -6 -10 19.7182 5.40639   2 
   4  -6 -10 41.4324 6.66601   2 
   5  -6  10 26.9391 4.32537   2 
  -5  -6 -10 32.7071 5.47524   1 
   5  -6 -10 39.2056 5.37336   2 
  -5   6 -10 45.3086 5.07711   3 
   0   0 -11 0.53695 0.85287   1 
   0   0 -11 1.51705 1.23198   3 
  -1   0 -11 102.698 4.60818   2 
   1   0 -11 101.577 5.21354   3 
   1   0 -11 101.528 4.51163   1 
  -1   0 -11 108.354 4.98783   1 
  -1   0 -11 95.4366 5.21387   3 
   2   0 -11 74.0024 3.55964   1 
  -2   0 -11 74.7712 4.26159   1 
  -2   0 -11 77.2131 4.64222   3 
   2   0 -11 79.1480 4.48135   3 
   3   0 -11 498.869 15.8943   3 
  -3   0 -11 491.906 16.0306   1 
  -3   0 -11 490.752 16.4454   3 
   3   0 -11 464.609 14.4394   1 
   4   0 -11 53.7170 2.50231   1 
   4   0 -11 54.7591 3.74238   3 
  -4   0 -11 58.7462 3.92763   1 
  -4   0 -11 60.2477 4.62195   3 
   5   0 -11 64.5637 4.01788   3 
   5   0 -11 54.9708 2.82887   2 
  -5   0 -11 52.2939 4.12174   3 
  -5   0 -11 57.3601 4.88486   1 
  -6   0 -11 221.883 9.15558   1 
  -6   0 -11 210.188 9.03697   3 
   6   0 -11 191.815 6.90263   2 
   6   0 -11 211.203 8.29986   3 
  -7   0 -11 73.5558 4.94784   1 
   7   0 -11 68.9835 3.18798   2 
  -7   0 -11 72.8965 4.93488   3 
  -8   0 -11 4.92443 1.98143   3 
  -8   0 -11 6.13129 2.13243   1 
   8   0 -11 5.27162 1.07433   2 
  -9   0 -11 1.46258 1.29752   3 
  -9   0 -11 0.18755 1.23244   1 
 -10   0 -11 11.0468 2.45441   1 
 -10   0 -11 12.4781 2.82260   3 
 -11   0 -11 23.6384 3.69568   1 
 -11   0 -11 16.2240 2.83714   3 
 -12   0 -11 8.56947 2.24811   1 
 -12   0 -11 4.33511 1.89347   3 
 -13   0 -11 11.0167 2.93969   3 
 -13   0 -11 14.4344 3.70856   1 
 -14   0 -11 46.9515 4.82652   1 
 -14   0 -11 41.9721 4.92631   3 
 -15   0 -11 15.0050 3.47402   1 
 -15   0 -11 7.74502 2.52218   3 
 -16   0 -11 10.0701 2.60453   1 
 -16   0 -11 8.58284 2.55003   3 
 -17   0 -11 10.3507 2.73444   1 
 -17   0 -11 10.7141 2.72370   3 
   0  -1 -11 223.229 9.14712   3 
   0   1 -11 230.160 7.67834   2 
   0  -1 -11 232.909 8.58586   1 
   0   1 -11 230.954 8.83819   3 
   1   1 -11 61.8917 3.79961   3 
   1   1 -11 54.7644 2.59194   2 
  -1  -1 -11 55.2349 3.58646   1 
  -1  -1 -11 53.5022 4.43927   3 
  -1   1 -11 55.4675 2.98667   2 
   1  -1 -11 53.1374 3.29672   1 
  -1   1 -11 56.4454 3.78395   3 
   1  -1 -11 55.4705 3.90151   3 
   2   1 -11 96.9278 4.80299   3 
   2   1 -11 97.1904 3.39408   2 
  -2  -1 -11 88.5163 4.88087   1 
   2  -1 -11 84.9916 4.98770   3 
  -2   1 -11 87.2979 4.99556   3 
  -2   1 -11 90.1924 4.20222   2 
   2  -1 -11 86.1688 4.21529   1 
   3   1 -11 219.663 8.09390   3 
   3   1 -11 208.230 6.19546   2 
   3   1 -11 200.980 6.90785   1 
  -3  -1 -11 200.267 8.68437   3 
  -3  -1 -11 215.059 8.61944   1 
   3  -1 -11 198.201 7.35015   1 
  -3   1 -11 204.165 9.50282   3 
   3  -1 -11 223.598 8.78590   3 
   4   1 -11 181.196 7.07062   3 
   4   1 -11 179.375 5.73348   1 
   4   1 -11 177.632 6.14306   1 
  -4  -1 -11 175.269 7.86801   3 
  -4   1 -11 181.327 7.95862   3 
   4  -1 -11 159.779 6.22350   1 
   4  -1 -11 177.020 8.48340   3 
   5   1 -11 81.7430 4.24156   3 
  -5  -1 -11 80.5000 5.04899   3 
  -5  -1 -11 83.2636 4.98239   1 
  -5   1 -11 79.6597 5.03741   3 
   5  -1 -11 77.1829 3.44372   1 
  -5  -1  11 71.2314 4.06679   3 
  -6  -1 -11 9.23516 2.04158   3 
   6   1 -11 8.74234 1.77508   3 
  -6  -1 -11 6.85823 1.96395   1 
   6  -1 -11 8.49512 1.79166   2 
  -6   1 -11 10.1696 2.43204   3 
   6  -1 -11 8.79240 1.20163   1 
  -6  -1  11 8.74819 1.54074   3 
  -7  -1 -11 22.7458 3.78950   1 
  -7  -1 -11 22.2939 3.09826   3 
  -7  -1  11 18.3070 2.02270   3 
  -7   1 -11 22.9263 3.19109   3 
   7  -1 -11 24.0454 2.50536   2 
  -8  -1 -11 55.8132 4.48439   3 
  -8  -1 -11 56.6220 4.61289   1 
  -8  -1  11 52.2791 3.19344   3 
  -8   1 -11 50.9124 4.38436   3 
   8  -1 -11 61.5505 3.70498   2 
  -9  -1 -11 23.6074 3.32769   3 
  -9  -1 -11 28.0444 3.46329   1 
  -9  -1  11 18.4407 2.00119   3 
   9  -1 -11 20.9286 2.39935   2 
  -9   1 -11 20.5726 3.09997   3 
 -10  -1 -11 42.3472 4.14732   3 
 -10  -1 -11 41.0218 4.22768   1 
 -10   1 -11 46.8173 4.40076   3 
  10  -1 -11 37.5035 3.13985   2 
 -11  -1 -11 37.3449 3.97337   3 
 -11  -1 -11 37.3321 4.09984   1 
 -11   1 -11 36.1170 4.10759   3 
  11  -1 -11 36.7135 3.57663   2 
 -12  -1 -11 483.106 18.3231   1 
 -12  -1 -11 485.578 17.6638   3 
 -12   1 -11 451.427 17.7964   3 
 -13  -1 -11 312.248 13.2989   3 
 -13  -1 -11 330.245 18.7684   1 
 -14  -1 -11 292.467 13.2114   1 
 -14   1 -11 278.479 13.0222   3 
 -15  -1 -11 18.3952 3.49582   1 
 -15  -1 -11 20.5452 3.45850   3 
 -15   1 -11 31.0757 4.29017   3 
 -15   1 -11 23.7860 4.61332   1 
 -16  -1 -11 86.6784 6.18248   3 
 -16  -1 -11 85.0898 6.66509   1 
 -16   1 -11 74.9988 6.35682   1 
 -16   1 -11 77.0345 6.52236   3 
 -17  -1 -11 9.64001 2.65084   3 
 -17  -1 -11 15.2727 3.25719   1 
 -17   1 -11 14.1387 3.85673   1 
 -17   1 -11 13.3502 3.71388   3 
   0  -2 -11 0.01375 1.03433   1 
   0   2 -11 0.07074 0.58494   2 
   0   2 -11 -0.2346 1.07008   3 
   0  -2 -11 -1.1024 1.26432   3 
  -1  -2 -11 76.8450 5.07912   3 
  -1  -2 -11 77.5804 5.65436   1 
   1   2 -11 82.4585 4.47497   3 
   1  -2 -11 83.9222 5.20333   3 
   1  -2 -11 78.5688 4.49351   1 
  -1   2 -11 81.5159 4.80790   3 
  -1   2 -11 76.9141 3.50129   2 
  -2  -2 -11 58.7963 4.43925   3 
   2   2 -11 63.0768 3.82725   3 
   2   2 -11 51.4741 3.22597   1 
  -2  -2 -11 62.0807 4.25883   1 
  -2   2 -11 61.8516 5.20811   3 
   2  -2 -11 61.6906 3.82382   1 
   2  -2 -11 56.6914 4.38486   3 
  -2   2 -11 53.9728 3.32385   2 
  -3  -2 -11 389.206 14.1436   1 
  -3  -2 -11 398.839 14.4213   3 
   3   2 -11 383.280 12.3657   1 
   3   2 -11 399.796 12.9724   3 
   3  -2 -11 392.657 13.1917   1 
  -3   2 -11 384.392 13.9886   3 
  -3   2 -11 437.467 15.6573   2 
   3  -2 -11 381.974 14.2061   3 
   4   2 -11 49.8884 2.68490   1 
  -4  -2 -11 46.0207 4.04831   3 
  -4  -2 -11 47.7010 3.98253   1 
   4   2 -11 49.1478 3.17736   3 
  -4   2 -11 46.1022 3.90553   3 
   4  -2 -11 49.0811 3.26564   1 
  -5  -2 -11 43.6627 3.96884   3 
  -5  -2 -11 43.1513 3.88269   1 
   5   2 -11 37.9725 2.07691   1 
   5   2 -11 46.1078 2.92989   3 
  -5   2 -11 48.4277 4.05944   3 
   5  -2 -11 45.1649 3.03963   1 
  -6  -2 -11 167.514 8.18377   3 
  -6  -2 -11 171.863 8.43231   1 
   6   2 -11 164.774 6.19857   3 
   6  -2 -11 168.855 7.76114   2 
  -6   2 -11 186.482 8.51923   3 
   6  -2 -11 178.028 6.79828   1 
  -7  -2 -11 59.0381 4.79370   1 
  -7  -2 -11 58.5345 4.68584   3 
   7  -2 -11 60.4394 4.36617   2 
  -7   2 -11 56.5436 4.68305   3 
   7  -2 -11 58.1381 3.20675   1 
  -8  -2 -11 3.93298 2.05544   3 
  -8  -2 -11 1.48476 1.57897   1 
  -8   2 -11 0.75762 1.34298   3 
   8  -2 -11 3.47724 1.74524   2 
  -9  -2 -11 1.73844 1.55290   1 
  -9  -2 -11 0.86112 1.61769   3 
  -9   2 -11 -0.7149 1.42187   3 
   9  -2 -11 -1.3807 1.36659   2 
 -10  -2 -11 12.7384 2.74546   3 
 -10  -2 -11 19.5319 4.02091   1 
  10  -2 -11 10.8267 2.27507   2 
 -10   2 -11 14.8936 3.43242   3 
 -11  -2 -11 22.4575 4.12920   1 
 -11  -2 -11 12.1535 2.63673   3 
 -11   2 -11 18.8696 3.66392   3 
  11  -2 -11 21.4023 3.21517   2 
 -12  -2 -11 3.51523 1.77440   3 
 -12  -2 -11 2.70803 1.91663   1 
 -12   2 -11 5.71120 2.46146   3 
  12  -2 -11 10.3514 2.58593   2 
 -13  -2 -11 10.6161 2.46023   3 
 -13  -2 -11 19.5791 4.28349   1 
 -13   2 -11 16.0583 3.49817   3 
  13  -2 -11 16.5066 2.99341   2 
 -14  -2 -11 37.9189 4.60959   1 
 -14  -2 -11 37.4439 4.10700   3 
 -14   2 -11 36.2624 4.65094   3 
 -15  -2 -11 6.42707 2.24545   3 
 -15  -2 -11 8.60951 3.25417   1 
 -15   2 -11 6.31940 2.77092   3 
 -16  -2 -11 8.60498 2.31593   3 
 -16  -2 -11 10.6260 3.36805   1 
 -16   2 -11 12.4118 3.30594   3 
   0   3 -11 115.616 5.85212   3 
   0  -3 -11 110.684 6.09941   1 
   0  -3 -11 110.919 6.44466   3 
  -1  -3 -11 40.9859 4.02290   3 
  -1  -3 -11 41.9313 3.83440   1 
   1   3 -11 43.3863 3.42993   3 
   1  -3 -11 48.8700 4.31918   3 
  -1   3 -11 46.5568 3.99051   3 
   1  -3 -11 45.3696 3.84684   1 
   2   3 -11 43.2639 3.16356   3 
  -2  -3 -11 38.0097 3.74394   1 
  -2  -3 -11 42.3874 4.09257   3 
   2  -3 -11 38.3360 3.52544   1 
  -2   3 -11 42.1556 3.82523   3 
  -3  -3 -11 128.766 7.04104   1 
  -3  -3 -11 120.746 6.87920   3 
   3   3 -11 131.811 5.49747   3 
  -3   3 -11 124.407 6.66967   3 
   3  -3 -11 121.455 6.32893   1 
  -4  -3 -11 82.6022 5.58998   1 
  -4  -3 -11 89.1533 5.80008   3 
   4  -3 -11 75.9628 4.80485   1 
  -4   3 -11 91.8871 5.71265   3 
  -5  -3 -11 45.7759 4.27276   1 
   5   3 -11 48.4692 3.23883   1 
  -5  -3 -11 40.3895 4.05274   3 
   5  -3 -11 40.9660 3.51044   1 
  -5   3 -11 39.9019 4.06844   3 
  -6  -3 -11 11.7460 2.59643   3 
  -6  -3 -11 13.5064 3.19210   1 
  -6   3 -11 12.3396 2.70967   3 
   6  -3 -11 12.1719 2.45761   1 
   6  -3 -11 11.8897 2.84975   2 
  -7  -3 -11 11.2905 2.83240   3 
  -7  -3 -11 12.9180 2.98679   1 
   7  -3 -11 12.1390 2.24538   1 
   7  -3 -11 7.00774 2.41850   2 
  -7   3 -11 12.8991 2.73350   3 
  -8  -3 -11 20.7836 3.30167   3 
  -8  -3 -11 31.8002 4.05289   1 
   8  -3 -11 19.2052 3.07501   2 
  -8   3 -11 22.4094 3.86054   3 
  -9  -3 -11 15.1001 2.89056   3 
  -9  -3 -11 14.2836 3.45748   1 
   9  -3 -11 15.0425 3.26635   2 
  -9   3 -11 12.2066 3.11859   3 
 -10  -3 -11 26.3779 4.03955   3 
 -10  -3 -11 28.3096 5.87377   1 
  10  -3 -11 22.2022 3.76533   2 
 -11  -3 -11 17.2241 3.00830   3 
 -11  -3 -11 22.1522 4.03021   1 
 -11   3 -11 24.8888 4.19390   3 
  11  -3 -11 26.2473 3.66349   2 
 -12  -3 -11 315.977 13.1398   3 
 -12  -3 -11 297.344 14.1703   1 
 -12   3 -11 321.542 14.3329   3 
  12  -3 -11 327.893 13.6639   2 
 -13  -3 -11 202.402 10.9730   1 
 -13  -3 -11 190.385 9.81504   3 
  13  -3 -11 192.805 9.59778   2 
 -13   3 -11 203.280 10.9839   3 
 -14  -3 -11 188.541 9.24149   3 
 -14  -3 -11 186.946 10.6038   1 
 -14   3 -11 182.476 10.6434   3 
  14  -3 -11 176.588 9.16957   2 
 -15  -3 -11 17.2167 5.65491   1 
 -15  -3 -11 13.7995 2.94703   3 
  15  -3 -11 17.9121 3.70385   2 
   0  -4 -11 -0.3464 1.25321   1 
   0   4 -11 2.49627 1.47307   3 
  -1  -4 -11 42.0412 4.25466   1 
   1  -4 -11 37.8513 3.97743   1 
  -1   4 -11 46.9819 3.96738   3 
  -2  -4 -11 33.7635 4.06481   1 
   2  -4 -11 34.3743 3.83720   1 
  -2   4 -11 34.9554 3.78677   3 
  -3  -4 -11 221.554 10.3397   1 
   3  -4 -11 206.629 9.57975   1 
  -3   4 -11 207.242 9.57531   3 
  -4  -4 -11 33.7922 4.10814   3 
  -4  -4 -11 27.0100 3.87545   1 
   4  -4  11 34.1899 3.17032   2 
   4  -4 -11 26.9716 3.54627   1 
  -4   4 -11 28.0347 3.74057   3 
  -5  -4 -11 19.7622 3.45685   1 
  -5  -4 -11 24.1331 3.88376   3 
   5  -4  11 24.1432 2.95134   2 
   5  -4 -11 27.3049 4.01825   1 
   5  -4 -11 19.7531 3.39186   2 
  -5   4 -11 21.4253 3.65252   3 
  -6  -4 -11 100.188 6.55265   3 
   6  -4  11 103.386 5.62792   2 
   6  -4 -11 106.814 6.14026   1 
  -6   4 -11 102.552 6.71273   3 
   6  -4 -11 99.7940 6.77477   2 
  -7  -4 -11 26.6474 3.73458   3 
   7  -4  11 30.1804 3.28468   2 
  -7  -4 -11 33.9589 4.32777   1 
  -7   4 -11 26.7596 4.02793   3 
   8  -4  11 0.82845 1.68950   2 
  -8  -4 -11 1.59871 1.82202   1 
  -8  -4 -11 0.23238 1.44428   3 
   8  -4 -11 -1.7294 1.70125   2 
  -8   4 -11 -0.3230 1.49179   3 
  -9  -4 -11 2.76082 1.61142   3 
  -9  -4 -11 0.84692 1.95624   1 
   9  -4  11 -0.4360 1.88572   2 
  -9   4 -11 1.40526 2.01484   3 
   9  -4 -11 0.62054 1.82369   2 
 -10  -4 -11 10.2248 3.27006   1 
  10  -4  11 1.85020 1.77435   2 
  10  -4 -11 4.26338 2.59015   2 
 -10   4 -11 2.18724 2.04145   3 
 -11  -4 -11 5.80230 2.71579   1 
 -11  -4 -11 2.24221 1.71276   3 
  11  -4  11 4.96692 2.00326   2 
  11  -4 -11 2.67076 2.40801   2 
 -11   4 -11 6.98067 2.60795   3 
 -12  -4 -11 2.84595 1.76937   3 
 -12  -4 -11 3.35596 2.18538   1 
  12  -4 -11 1.02981 2.34205   2 
 -12   4 -11 4.36971 2.51194   3 
 -13  -4 -11 4.83576 1.96277   3 
 -13  -4 -11 4.24723 3.15273   1 
 -13   4 -11 6.44169 4.62099   3 
  13  -4 -11 7.25612 3.18898   2 
  -1  -5 -11 15.8651 3.37386   1 
   1  -5 -11 32.5838 4.92985   1 
   2   5 -11 -1.2024 1.35506   3 
  -2  -5 -11 8.63880 2.46134   1 
   2  -5 -11 7.36967 2.66777   1 
   3  -5  11 52.4926 3.66166   2 
  -3  -5 -11 38.8174 4.68316   1 
   3  -5 -11 49.4983 4.85556   1 
  -3   5 -11 47.4608 4.68443   3 
  -4  -5 -11 22.8885 3.64080   1 
   4  -5  11 29.5065 2.91437   2 
   4  -5 -11 39.1057 5.31451   1 
   4  -5 -11 25.4152 4.13391   2 
  -5  -5 -11 21.1812 4.26258   1 
   5  -5  11 16.0742 2.39428   2 
   5  -5 -11 19.7147 4.01031   2 
   5  -5 -11 16.8906 3.70494   1 
  -5   5 -11 16.4494 3.45978   3 
  -6  -5 -11 4.22980 2.72675   1 
   6  -5  11 12.2703 2.33088   2 
   6  -5 -11 10.6279 3.05554   2 
  -7  -5 -11 7.54310 3.04859   1 
   7  -5 -11 8.88234 2.92098   2 
  -7   5 -11 -0.0283 2.27739   3 
  -8  -5 -11 4.45395 2.80304   1 
   8  -5  11 7.82665 2.22291   2 
   8  -5 -11 9.59062 3.40274   2 
  -8   5 -11 6.62505 2.62078   3 
   9  -5  11 0.40597 1.97537   2 
  -9  -5 -11 5.45391 3.25313   1 
   9  -5 -11 3.44313 2.79359   2 
  -9   5 -11 5.35352 2.65367   3 
 -10  -5 -11 15.5447 3.73220   1 
  10  -5  11 9.50832 3.86041   2 
  10  -5 -11 12.4740 6.02161   2 
   0  -6 -11 -1.0081 3.93415   1 
   1  -6 -11 18.9657 5.09268   1 
  -2  -6 -11 19.8274 4.25571   1 
   2  -6 -11 13.2565 3.74803   2 
   2  -6 -11 19.0690 5.97472   1 
  -3  -6 -11 75.6872 6.86853   1 
   3  -6 -11 80.0380 6.93245   2 
   3  -6 -11 69.5977 11.0565   1 
   0   0 -12 455.067 14.2208   1 
   0   0 -12 439.272 15.9413   3 
   0   0 -12 420.310 13.7987   2 
   1   0 -12 37.6956 3.34740   3 
   1   0 -12 35.6945 2.61152   1 
  -1   0 -12 33.9212 4.20748   3 
  -1   0 -12 35.2848 2.93143   1 
  -2   0 -12 673.047 20.7001   1 
   2   0 -12 650.076 19.5470   1 
   2   0 -12 674.582 20.8709   3 
  -2   0 -12 627.008 20.9187   3 
   3   0 -12 401.402 12.9845   1 
   3   0 -12 449.889 14.6835   3 
  -3   0 -12 422.909 14.9430   3 
  -3   0 -12 438.688 14.7461   1 
  -4   0 -12 35.9807 3.53470   3 
  -4   0 -12 42.0202 3.48841   1 
   4   0 -12 37.7043 3.33354   3 
   4   0 -12 32.7470 1.99842   1 
   5   0 -12 153.247 6.82443   3 
  -5   0 -12 139.729 7.06471   3 
   5   0 -12 139.026 5.31775   2 
  -5   0 -12 141.448 6.98270   1 
  -6   0 -12 569.838 18.6407   1 
   6   0 -12 558.630 17.6815   3 
  -6   0 -12 544.993 18.5432   3 
   6   0 -12 486.483 15.8382   2 
  -7   0 -12 413.640 14.8635   1 
  -7   0 -12 374.688 14.5116   3 
  -8   0 -12 87.4007 5.74552   1 
  -8   0 -12 89.4661 5.78580   3 
  -9   0 -12 16.0579 2.86538   1 
  -9   0 -12 14.5286 3.01436   3 
 -10   0 -12 277.692 12.1486   1 
 -10   0 -12 275.669 12.0028   3 
 -11   0 -12 3.21621 1.98825   1 
  11   0 -12 0.50232 0.54718   2 
 -11   0 -12 0.48400 1.56995   3 
 -12   0 -12 14.4881 2.90841   3 
 -12   0 -12 18.6109 4.31866   1 
 -13   0 -12 36.7641 4.50915   3 
 -13   0 -12 45.2632 4.74319   1 
 -14   0 -12 0.37208 1.19597   1 
 -14   0 -12 1.20144 1.74412   3 
 -15   0 -12 1.72501 2.06975   1 
 -15   0 -12 3.22678 2.09936   3 
 -16   0 -12 8.50169 2.82557   3 
 -16   0 -12 8.76844 2.61868   1 
 -17   0 -12 0.84940 2.43743   3 
 -17   0 -12 -1.0205 1.75527   1 
   0   1 -12 -0.3665 1.12176   3 
   0   1 -12 -0.3232 0.78897   2 
   0  -1 -12 0.40036 1.28508   3 
   0  -1 -12 1.60613 1.16701   1 
  -1  -1 -12 35.6836 3.47384   3 
   1   1 -12 29.8480 2.67189   2 
   1   1 -12 44.5525 3.39837   3 
  -1  -1 -12 38.4852 3.12833   1 
  -1   1 -12 40.4578 4.23070   3 
   1  -1 -12 37.4250 2.88713   1 
   1  -1 -12 39.8025 3.53833   3 
  -1   1 -12 28.5475 3.06310   2 
   2   1 -12 7.77572 1.91842   3 
  -2  -1 -12 6.52494 2.13064   3 
   2   1 -12 8.92247 1.09288   2 
   2   1 -12 8.98090 1.50741   1 
  -2  -1 -12 5.05095 1.61147   1 
  -2   1 -12 7.02458 1.89461   3 
   2  -1 -12 6.29290 1.47935   1 
   2  -1 -12 7.32058 2.01808   3 
  -2   1 -12 3.25318 1.19103   2 
  -3  -1 -12 162.900 7.59854   3 
   3   1 -12 158.252 5.79466   1 
   3   1 -12 167.169 7.03160   3 
  -3  -1 -12 166.408 7.55774   1 
   3  -1 -12 165.451 7.54717   3 
   3  -1 -12 152.401 6.18688   1 
  -3   1 -12 163.935 7.56522   3 
   4   1 -12 4.47215 0.83316   1 
   4   1 -12 1.78953 1.26919   3 
  -4  -1 -12 1.20355 1.24890   3 
  -4  -1 -12 1.56640 1.34494   1 
   4   1 -12 2.58575 0.71873   1 
  -4   1 -12 1.92261 1.38601   3 
   4  -1 -12 1.26335 0.84985   1 
   4  -1 -12 1.52625 1.59403   3 
  -5  -1 -12 102.582 5.87259   3 
  -5  -1 -12 99.4125 5.76780   1 
   5   1 -12 98.1133 5.03003   3 
   5  -1 -12 102.362 5.73270   3 
   5  -1 -12 92.9083 4.07735   1 
  -5   1 -12 100.919 5.90714   3 
  -6  -1 -12 363.633 14.1314   1 
  -6  -1 -12 361.164 14.0677   3 
   6   1 -12 397.703 12.9756   3 
  -6   1 -12 392.795 14.4835   3 
   6  -1 -12 395.861 12.9372   2 
  -7  -1 -12 236.389 10.3522   1 
  -7  -1 -12 230.859 10.1815   3 
  -7   1 -12 232.072 10.3325   3 
   7  -1 -12 244.354 8.92655   2 
  -8  -1 -12 36.4423 3.84316   1 
  -8  -1 -12 40.2667 4.11068   3 
  -8   1 -12 33.4896 3.94156   3 
   8  -1 -12 33.3710 2.96782   2 
  -9  -1 -12 37.8134 4.10907   3 
  -9  -1 -12 31.8366 3.77300   1 
   9  -1 -12 35.4978 2.90534   2 
  -9   1 -12 37.0407 4.13266   3 
 -10  -1 -12 29.4022 3.73021   3 
 -10  -1 -12 39.2800 4.13878   1 
 -10   1 -12 28.5118 3.90501   3 
 -11  -1 -12 32.9356 3.96460   1 
 -11  -1 -12 27.8646 3.69054   3 
 -11   1 -12 25.0360 3.81927   3 
 -12  -1 -12 3.97947 1.94672   3 
  12  -1 -12 -0.7828 0.80323   2 
 -13  -1 -12 11.7649 3.26675   1 
 -13  -1 -12 11.5295 4.47815   3 
 -13   1 -12 12.0954 3.52222   3 
 -14  -1 -12 129.110 7.76356   3 
 -14  -1 -12 136.055 8.40428   1 
 -14   1 -12 124.112 8.23444   3 
 -14   1 -12 115.599 7.82697   1 
 -15  -1 -12 16.6824 3.19202   3 
 -15  -1 -12 19.5387 3.59011   1 
 -15   1 -12 15.6055 3.45723   1 
 -15   1 -12 14.8363 3.43165   3 
 -16  -1 -12 10.6173 3.22717   1 
 -16  -1 -12 14.9470 3.29720   3 
 -16   1 -12 14.7827 3.16253   1 
 -16   1 -12 16.2405 3.41760   3 
   0  -2 -12 332.240 13.0357   3 
   0   2 -12 317.130 10.9482   2 
   0  -2 -12 357.156 13.7964   1 
   0   2 -12 375.680 12.6915   3 
   1   2 -12 32.8512 3.22527   3 
  -1  -2 -12 31.5919 3.19025   1 
  -1  -2 -12 36.0627 3.73308   3 
  -1   2 -12 32.8246 2.19648   2 
   1  -2 -12 35.7735 3.17643   1 
   1  -2 -12 29.4834 3.53759   3 
  -1   2 -12 37.2248 3.63792   3 
   2   2 -12 522.402 16.3724   3 
  -2  -2 -12 489.307 17.4651   3 
   2   2 -12 482.738 15.6881   1 
  -2  -2 -12 521.260 17.1975   1 
   2  -2 -12 495.001 16.3495   1 
  -2   2 -12 491.026 15.5286   2 
   2  -2 -12 511.172 17.5987   3 
  -2   2 -12 501.330 17.0726   3 
  -3  -2 -12 303.635 12.4867   3 
  -3  -2 -12 341.152 12.5775   1 
   3   2 -12 342.434 11.4078   3 
   3  -2 -12 327.549 11.4485   1 
  -3   2 -12 318.261 12.3444   3 
   3  -2 -12 315.142 12.5538   3 
  -4  -2 -12 27.9709 3.29440   1 
   4   2 -12 31.7029 2.78944   3 
   4   2 -12 30.0904 2.05571   1 
  -4  -2 -12 31.7811 3.57597   3 
   4  -2 -12 23.9407 2.50253   1 
  -4   2 -12 32.7789 3.49998   3 
  -5  -2 -12 124.979 6.74731   3 
  -5  -2 -12 111.386 6.45010   1 
   5   2 -12 112.059 5.11922   3 
  -5   2 -12 105.979 6.34451   3 
   5  -2 -12 110.503 5.15086   1 
  -6  -2 -12 434.158 16.1570   1 
  -6  -2 -12 418.597 15.8458   3 
  -6   2 -12 437.629 15.9441   3 
   6  -2 -12 425.837 13.8488   1 
   6  -2 -12 442.122 15.1982   2 
  -7  -2 -12 322.943 13.0634   3 
  -7  -2 -12 324.863 13.4024   1 
   7  -2 -12 332.641 12.2895   2 
  -7   2 -12 327.152 13.1319   3 
  -8  -2 -12 59.8418 5.10165   1 
  -8  -2 -12 56.7438 4.89586   3 
  -8   2 -12 63.4555 5.15815   3 
   8  -2 -12 72.6820 4.72398   2 
  -9  -2 -12 10.5722 2.62550   3 
  -9  -2 -12 14.0980 3.66691   1 
   9  -2 -12 13.9294 2.85528   2 
  -9   2 -12 9.91653 2.59548   3 
 -10  -2 -12 231.970 11.2642   1 
 -10  -2 -12 214.738 10.3798   3 
 -10   2 -12 228.225 10.9875   3 
  10  -2 -12 234.908 9.66712   2 
 -11  -2 -12 0.13808 1.68624   3 
 -11  -2 -12 2.40729 2.93456   1 
 -11   2 -12 3.37272 2.28554   3 
  11  -2 -12 3.42141 1.73666   2 
 -12  -2 -12 12.7560 2.99248   3 
 -12  -2 -12 17.9268 3.94162   1 
  12  -2 -12 18.8488 3.11479   2 
 -12   2 -12 14.1042 3.53445   3 
 -13  -2 -12 36.1781 4.06477   3 
 -13  -2 -12 37.4562 4.55585   1 
 -13   2 -12 24.1777 4.17241   3 
 -14  -2 -12 0.32138 1.45566   3 
 -14  -2 -12 1.40339 1.58877   1 
 -14   2 -12 -0.2478 1.72355   3 
  14  -2 -12 -1.2893 1.12504   2 
 -15  -2 -12 2.95306 1.89539   1 
 -15  -2 -12 4.29311 2.09930   3 
 -15   2 -12 6.93307 2.97088   3 
  15  -2 -12 -1.4206 1.49856   2 
 -16  -2 -12 4.59852 2.24291   3 
 -16  -2 -12 4.15706 2.59527   1 
  16  -2 -12 -0.4352 1.90638   2 
 -16   2 -12 10.0618 3.70411   3 
   0   3 -12 -1.3109 1.26001   3 
   0  -3 -12 -0.0472 1.30377   1 
   0  -3 -12 -0.9967 1.16139   3 
   1   3 -12 27.1812 3.04674   3 
  -1  -3 -12 28.5421 3.62149   3 
  -1  -3 -12 24.8563 3.86317   1 
  -1   3 -12 29.9199 3.45270   3 
   1  -3 -12 23.1356 3.10487   1 
   1  -3 -12 24.7986 3.47794   3 
  -2  -3 -12 4.69487 1.99698   1 
  -2  -3 -12 3.02238 1.74104   3 
   2   3 -12 6.27788 1.66621   3 
  -2   3 -12 6.62977 2.09289   3 
   2  -3 -12 3.91745 1.66663   1 
  -3  -3 -12 104.284 6.52308   3 
  -3  -3 -12 103.940 6.39911   1 
   3  -3 -12 103.276 5.85663   1 
  -3   3 -12 109.438 6.27974   3 
  -4  -3 -12 1.77847 1.41385   1 
  -4  -3 -12 1.56689 1.70297   3 
   4  -3 -12 1.64584 1.40748   1 
  -4   3 -12 2.83411 1.50236   3 
  -5  -3 -12 64.4185 5.20692   1 
  -5  -3 -12 68.3055 5.25309   3 
  -5   3 -12 75.6753 5.44134   3 
   5  -3 -12 65.5820 4.47772   1 
  -6  -3 -12 260.125 11.4345   3 
  -6  -3 -12 259.735 11.6703   1 
   6  -3 -12 260.413 10.0422   1 
  -6   3 -12 249.810 11.2368   3 
   6  -3 -12 259.546 11.0593   2 
  -7  -3 -12 157.932 8.61726   3 
  -7  -3 -12 175.132 9.24630   1 
  -7   3 -12 176.522 8.98416   3 
   7  -3 -12 159.064 8.28429   2 
  -8  -3 -12 25.0945 4.46434   1 
  -8  -3 -12 20.1320 3.71507   3 
   8  -3 -12 17.6425 3.34997   2 
  -8   3 -12 24.1543 4.19956   3 
  -9  -3 -12 22.0077 3.53272   3 
  -9  -3 -12 21.8063 4.06931   1 
   9  -3 -12 22.3437 4.04122   2 
 -10  -3 -12 24.3851 4.57309   1 
 -10  -3 -12 17.3453 3.10033   3 
 -10   3 -12 23.8381 3.97599   3 
  10  -3 -12 21.3626 3.52027   2 
 -11  -3 -12 32.4160 5.50663   1 
 -11   3 -12 21.6494 4.11081   3 
  11  -3 -12 11.4904 4.43632   2 
 -12  -3 -12 5.33368 2.16208   3 
 -12  -3 -12 4.26493 2.17661   1 
  12  -3 -12 2.53385 2.21628   2 
 -12   3 -12 1.77190 2.11583   3 
 -13  -3 -12 6.97494 2.66746   1 
 -13  -3 -12 3.20218 2.21190   3 
  13  -3 -12 4.97063 2.24255   2 
 -13   3 -12 5.85743 2.82785   3 
 -14  -3 -12 75.4365 5.95295   3 
 -14  -3 -12 94.5587 7.90458   1 
  14  -3 -12 93.0733 6.34353   2 
 -14   3 -12 100.015 8.40384   3 
   0  -4 -12 156.536 8.23700   1 
  -1  -4 -12 28.2745 4.13044   1 
  -1   4 -12 34.8517 3.65466   3 
   1  -4 -12 23.0039 3.34713   1 
  -2  -4 -12 257.549 11.5379   1 
  -2   4 -12 251.351 10.7680   3 
   2  -4 -12 242.804 10.8403   1 
  -3  -4 -12 150.394 8.48074   1 
   3  -4 -12 146.696 7.83330   1 
  -3   4 -12 159.814 8.08379   3 
  -4  -4 -12 11.1845 3.07553   3 
  -4  -4 -12 12.2051 3.00756   1 
  -4   4 -12 13.4897 3.07288   3 
   4  -4 -12 16.0683 3.21213   1 
  -5  -4 -12 54.8702 5.28395   1 
  -5  -4 -12 53.2789 5.01695   3 
   5  -4 -12 52.1169 8.19786   2 
   5  -4 -12 55.3231 4.50513   1 
  -5   4 -12 53.0910 4.93207   3 
  -6  -4 -12 231.054 11.3746   1 
  -6  -4 -12 232.116 10.9189   3 
  -6   4 -12 221.628 11.3759   3 
   6  -4 -12 215.253 9.72872   1 
   6  -4 -12 239.735 11.9985   2 
  -7  -4 -12 177.608 9.80587   1 
  -7  -4 -12 157.832 10.9417   3 
  -7   4 -12 172.714 9.25901   3 
   7  -4 -12 160.760 8.93779   2 
  -8  -4 -12 29.0543 4.91278   3 
  -8  -4 -12 31.7584 5.17726   1 
  -8   4 -12 31.0953 4.19924   3 
   8  -4 -12 25.5234 3.72923   2 
  -9  -4 -12 5.35973 2.06178   3 
  -9  -4 -12 5.73974 2.87756   1 
   9  -4 -12 2.49796 2.25079   2 
  -9   4 -12 4.94454 2.57270   3 
 -10  -4 -12 108.866 6.96727   3 
 -10  -4 -12 121.706 8.41153   1 
 -10   4 -12 123.367 8.33210   3 
  10  -4 -12 106.919 7.53984   2 
 -11  -4 -12 2.51862 2.42061   1 
 -11  -4 -12 -0.4770 1.41818   3 
  11  -4 -12 1.15482 2.08183   2 
 -11   4 -12 -2.4742 2.33022   3 
 -12  -4 -12 5.69231 2.17700   3 
  12  -4 -12 7.38950 3.00106   2 
   0   5 -12 -0.2660 1.32270   3 
   0  -5 -12 2.04807 1.84166   1 
  -1  -5 -12 9.84715 2.55230   1 
   1  -5 -12 12.3658 3.48862   1 
  -2  -5 -12 2.78397 2.12437   1 
   2  -5 -12 3.92015 2.36609   1 
  -3  -5 -12 47.7140 5.15832   1 
   3  -5 -12 54.2585 4.98176   1 
  -4  -5 -12 3.17666 1.90858   1 
  -4   5 -12 0.89505 1.77785   3 
   4  -5 -12 4.91418 2.46149   2 
   4  -5 -12 2.43121 1.80408   1 
  -5  -5 -12 27.5097 4.72427   1 
   5  -5 -12 31.9644 4.89174   2 
   5  -5 -12 24.6572 3.73792   1 
  -5   5 -12 37.6251 4.49446   3 
  -6  -5 -12 110.992 8.18945   1 
  -6   5 -12 116.169 7.66360   3 
   6  -5 -12 110.265 6.95649   1 
   6  -5 -12 108.173 7.63527   2 
  -7  -5 -12 77.4260 6.90143   1 
  -7   5 -12 74.4465 6.48482   3 
   7  -5 -12 68.1338 6.27743   2 
  -8  -5 -12 10.3361 4.68459   1 
   8  -5 -12 9.09661 3.11716   2 
  -8   5 -12 7.80010 3.14675   3 
  -9  -5 -12 3.09526 2.80400   1 
   9  -5 -12 6.37278 3.83268   2 
   0   0 -13 1.24951 1.34593   3 
   0   0 -13 1.00177 1.05346   1 
   1   0 -13 44.0302 3.82110   3 
  -1   0 -13 42.0170 3.73339   3 
  -1   0 -13 46.2265 3.37786   1 
   1   0 -13 45.1183 3.08160   1 
   2   0 -13 -0.2621 0.89212   1 
  -2   0 -13 0.94210 1.34390   3 
   2   0 -13 1.35191 1.51584   3 
  -2   0 -13 1.85904 1.24785   1 
   3   0 -13 -1.0426 0.67559   1 
  -3   0 -13 -1.4289 1.05348   3 
  -3   0 -13 -0.2814 1.19823   1 
   3   0 -13 1.09165 1.36342   3 
  -4   0 -13 7.56863 1.87776   1 
   4   0 -13 6.09536 1.13024   1 
   4   0 -13 7.99262 2.22787   3 
  -4   0 -13 7.26643 2.12996   3 
  -5   0 -13 18.4780 2.89419   1 
   5   0 -13 22.8735 1.82017   2 
  -5   0 -13 20.8686 3.38849   3 
   5   0 -13 18.3922 2.76538   3 
  -6   0 -13 22.6620 3.19578   3 
  -6   0 -13 28.6118 3.38089   1 
   6   0 -13 25.4738 3.19164   3 
  -7   0 -13 32.8182 3.69693   1 
  -7   0 -13 31.0712 3.62551   3 
  -8   0 -13 16.9842 3.29395   3 
  -8   0 -13 21.0019 3.88076   1 
  -9   0 -13 50.5087 4.65708   3 
  -9   0 -13 43.0390 4.43984   1 
 -10   0 -13 615.464 21.7402   1 
 -10   0 -13 585.424 21.2345   3 
  11   0 -13 0.01687 0.67399   2 
 -11   0 -13 0.24415 1.64002   3 
 -11   0 -13 0.31058 1.47074   1 
 -12   0 -13 2.50180 1.95279   3 
 -12   0 -13 0.49555 1.56202   1 
 -13   0 -13 5.14671 2.24986   3 
 -13   0 -13 7.79028 2.84870   1 
 -14   0 -13 18.8037 3.69509   3 
 -14   0 -13 36.7593 5.97806   1 
 -15   0 -13 43.7587 4.96741   3 
 -15   0 -13 45.7447 4.96616   1 
 -16   0 -13 165.357 9.63999   3 
   0  -1 -13 194.366 8.71314   3 
   0  -1 -13 192.441 7.87415   1 
   0   1 -13 184.854 7.08960   2 
   0   1 -13 208.654 8.49928   3 
  -1  -1 -13 270.376 11.2504   3 
  -1  -1 -13 289.925 11.1116   1 
   1   1 -13 287.218 9.99712   1 
   1   1 -13 293.135 9.28705   2 
   1   1 -13 295.439 11.7123   3 
  -1   1 -13 288.489 9.83363   2 
  -1   1 -13 305.725 11.2900   3 
   1  -1 -13 283.355 10.2973   1 
   1  -1 -13 286.607 11.3907   3 
  -2  -1 -13 285.391 11.6427   3 
   2   1 -13 294.431 9.93836   1 
  -2  -1 -13 304.938 11.2982   1 
   2   1 -13 292.037 9.14907   2 
   2  -1 -13 288.365 11.5309   3 
   2  -1 -13 296.376 10.3401   1 
  -2   1 -13 318.024 11.6491   3 
   3   1 -13 230.856 9.07701   3 
   3   1 -13 204.301 7.46979   1 
  -3  -1 -13 227.253 9.77457   3 
  -3  -1 -13 234.462 9.53656   1 
   3  -1 -13 217.690 8.08883   1 
  -3   1 -13 225.520 9.58736   3 
   3  -1 -13 232.072 9.67898   3 
  -4  -1 -13 33.8576 3.46591   1 
  -4  -1 -13 27.2920 3.35944   3 
   4   1 -13 33.3275 3.22245   3 
   4   1 -13 39.3543 2.16226   1 
   4  -1 -13 29.3480 2.36675   1 
   4  -1 -13 36.7894 3.66912   3 
  -4   1 -13 38.4744 3.79216   3 
   5   1 -13 35.0539 3.22080   3 
  -5  -1 -13 36.5667 3.64903   1 
  -5  -1 -13 32.8619 3.58254   3 
  -5   1 -13 26.6674 3.51613   3 
   5  -1 -13 35.8088 3.64660   3 
  -6  -1 -13 33.2538 3.61322   1 
  -6  -1 -13 25.7114 3.41290   3 
   6   1 -13 28.9059 2.95977   3 
   6  -1 -13 25.0206 2.74881   2 
  -6   1 -13 28.6491 3.52693   3 
  -7  -1 -13 151.023 8.04088   3 
  -7  -1 -13 152.167 8.00049   1 
  -7   1 -13 160.257 8.25469   3 
   7  -1 -13 159.816 6.71624   2 
  -8  -1 -13 228.273 10.3000   3 
  -8  -1 -13 234.178 10.4824   1 
  -8   1 -13 227.617 10.4641   3 
   8  -1 -13 198.860 8.22437   2 
  -9  -1 -13 154.229 8.31546   3 
  -9  -1 -13 157.490 8.45885   1 
  -9   1 -13 146.954 8.33629   3 
 -10  -1 -13 61.9494 5.25034   1 
 -10  -1 -13 48.6755 4.78700   3 
 -10   1 -13 60.4373 5.34122   3 
 -11  -1 -13 18.5349 3.31691   3 
 -12  -1 -13 -1.8253 1.58169   3 
 -12  -1 -13 0.53270 1.52637   1 
  12  -1 -13 0.43266 0.99211   2 
 -12   1 -13 1.62288 1.86104   3 
 -13  -1 -13 44.0291 5.00716   3 
 -13  -1 -13 53.2293 5.18972   1 
 -13   1 -13 40.2768 4.86537   3 
 -13   1 -13 48.0135 5.02801   1 
 -14  -1 -13 25.7841 4.61105   1 
 -14  -1 -13 33.4663 4.28877   3 
 -14   1 -13 19.6603 3.85043   1 
 -14   1 -13 19.6801 3.63553   3 
 -15  -1 -13 5.14006 2.35970   3 
 -15  -1 -13 5.47693 2.47164   1 
 -15   1 -13 3.13563 2.02477   1 
 -15   1 -13 7.84860 2.83957   3 
 -16  -1 -13 189.872 10.2105   3 
 -16  -1 -13 196.926 12.1002   1 
 -16   1 -13 183.484 10.9032   1 
   0  -2 -13 2.09362 1.36336   1 
   0  -2 -13 0.54950 1.42997   3 
   0   2 -13 0.62111 1.53034   3 
   1   2 -13 35.1612 3.90671   3 
  -1  -2 -13 39.2224 3.96891   3 
  -1  -2 -13 39.7458 3.64774   1 
  -1   2 -13 33.2430 3.57587   3 
   1  -2 -13 35.7020 3.91517   3 
   1  -2 -13 35.7161 3.31373   1 
  -1   2 -13 29.9949 2.36889   2 
  -2  -2 -13 1.23304 1.41639   1 
  -2  -2 -13 -0.4692 1.61585   3 
   2   2 -13 -0.4274 1.22755   3 
   2  -2 -13 -0.0405 1.47004   3 
  -2   2 -13 1.77922 1.16338   2 
  -2   2 -13 1.89575 1.66755   3 
   3   2 -13 1.29413 1.11747   1 
  -3  -2 -13 1.28438 1.60343   1 
   3   2 -13 1.50980 1.39891   3 
  -3  -2 -13 3.23864 1.63009   3 
  -3   2 -13 0.30632 1.36992   3 
   3  -2 -13 0.41230 1.28908   3 
   3  -2 -13 0.52968 1.09257   1 
  -4  -2 -13 5.93548 2.08040   1 
   4   2 -13 2.70942 1.01523   1 
  -4  -2 -13 2.62883 1.78791   3 
   4   2 -13 4.90274 1.58049   3 
  -4   2 -13 1.59871 1.88820   3 
   4  -2 -13 4.81063 1.46219   1 
  -5  -2 -13 17.9999 3.38531   3 
  -5  -2 -13 17.5753 3.28423   1 
   5  -2 -13 17.6533 2.09789   1 
  -5   2 -13 13.5950 3.06451   3 
  -6  -2 -13 15.6812 2.80189   3 
  -6  -2 -13 18.4637 3.55979   1 
  -6   2 -13 20.1767 3.32998   3 
   6  -2 -13 10.2376 2.39835   2 
  -7  -2 -13 23.2887 4.00861   3 
  -7  -2 -13 27.7139 3.71943   1 
  -7   2 -13 21.3808 3.45771   3 
   7  -2 -13 26.7830 3.34047   2 
  -8  -2 -13 15.4772 3.32555   1 
  -8  -2 -13 15.5691 3.08110   3 
  -8   2 -13 14.6958 3.06985   3 
   8  -2 -13 13.6540 2.61871   2 
  -9  -2 -13 36.7435 4.32234   3 
  -9  -2 -13 37.7395 4.40454   1 
   9  -2 -13 39.1337 3.85159   2 
  -9   2 -13 44.6180 4.67370   3 
 -10  -2 -13 470.786 18.5904   3 
 -10  -2 -13 507.168 20.2238   1 
  10  -2 -13 499.554 17.4236   2 
 -10   2 -13 562.541 21.0725   3 
 -11  -2 -13 1.21797 1.87377   1 
 -11   2 -13 -0.2415 1.78165   3 
  11  -2 -13 -0.3371 1.29101   2 
 -12  -2 -13 -1.9925 1.85302   1 
 -12  -2 -13 0.17018 1.58736   3 
  12  -2 -13 0.89127 1.00164   2 
 -12   2 -13 -0.6293 1.53583   3 
 -13  -2 -13 5.40597 2.36332   1 
 -13  -2 -13 5.18557 2.25554   3 
 -13   2 -13 4.52192 2.58150   3 
 -14  -2 -13 29.5071 5.03911   1 
 -14  -2 -13 21.2542 3.78254   3 
 -14   2 -13 26.4045 4.66830   3 
   0  -3 -13 117.184 7.15692   3 
   0  -3 -13 114.515 6.52861   1 
   0   3 -13 118.820 6.28089   3 
   1   3 -13 169.368 7.59176   3 
  -1  -3 -13 178.622 8.53022   1 
  -1  -3 -13 177.471 9.03794   3 
   1  -3 -13 167.951 8.87465   3 
  -1   3 -13 178.454 8.17711   3 
   1  -3 -13 167.837 8.11933   1 
  -2  -3 -13 223.903 10.5456   3 
  -2  -3 -13 218.415 9.97581   1 
  -2   3 -13 230.278 9.89962   3 
   2  -3 -13 214.537 9.37507   1 
  -3  -3 -13 136.250 7.60157   1 
  -3  -3 -13 135.725 7.81250   3 
  -3   3 -13 149.548 7.63496   3 
   3  -3 -13 128.928 6.84423   1 
  -4  -3 -13 15.2358 3.13534   1 
  -4  -3 -13 18.7429 3.32706   3 
   4  -3 -13 22.9872 2.91979   1 
  -4   3 -13 16.4194 3.11880   3 
  -5  -3 -13 17.7291 3.69196   1 
  -5  -3 -13 15.8542 2.99177   3 
  -5   3 -13 19.5087 3.47854   3 
   5  -3 -13 18.6404 3.06518   1 
  -6  -3 -13 13.1408 2.83175   1 
  -6  -3 -13 23.5912 3.97862   3 
   6  -3 -13 13.7396 3.23666   2 
  -6   3 -13 15.8832 3.11652   3 
  -7  -3 -13 95.6732 7.38314   1 
  -7  -3 -13 91.3712 6.52422   3 
  -7   3 -13 92.0260 6.52033   3 
   7  -3 -13 93.1414 6.16829   2 
  -8  -3 -13 150.667 8.87824   1 
  -8  -3 -13 165.996 8.85036   3 
  -8   3 -13 114.048 10.4976   3 
   8  -3 -13 155.202 8.16608   2 
  -9  -3 -13 97.6970 7.16928   1 
   9  -3 -13 97.5877 6.47989   2 
  -9   3 -13 100.827 7.11517   3 
 -10  -3 -13 29.9211 4.32192   3 
 -10  -3 -13 33.5453 4.54130   1 
 -10   3 -13 39.2567 4.70515   3 
 -11  -3 -13 12.0161 3.25024   1 
 -11  -3 -13 18.5105 3.61812   3 
 -11   3 -13 11.4623 3.29223   3 
  11  -3 -13 6.31717 1.91742   2 
 -12  -3 -13 0.80858 1.89157   1 
 -12  -3 -13 -0.7009 1.79193   3 
 -12   3 -13 -1.9036 1.97444   3 
  12  -3 -13 -0.6980 2.08828   2 
 -13  -3 -13 25.2446 4.03618   3 
 -13  -3 -13 24.6048 4.61091   1 
 -13   3 -13 24.5708 4.72417   3 
  13  -3 -13 35.1584 4.34726   2 
   0  -4 -13 0.65689 1.66571   1 
   0   4 -13 -2.2373 0.84433   3 
  -1  -4 -13 19.3287 3.73659   1 
  -1   4 -13 25.1937 3.23667   3 
   1  -4 -13 20.1062 3.31447   1 
  -2  -4 -13 -0.0014 2.34875   1 
   2   4 -13 1.89809 1.04508   3 
   2  -4 -13 1.52008 1.77885   1 
  -2   4 -13 2.73503 1.96837   3 
  -3  -4 -13 -0.3814 1.67637   1 
   3   4 -13 -0.5126 0.97490   3 
   3  -4 -13 -0.2075 1.50879   1 
  -3   4 -13 1.07853 1.68501   3 
   4   4 -13 -1.0264 0.95495   3 
  -4  -4 -13 1.43237 1.95385   3 
  -4  -4 -13 0.49780 1.56145   1 
  -4   4 -13 0.95125 1.96674   3 
   4  -4 -13 4.04401 1.93022   1 
  -5  -4 -13 7.14131 2.53950   3 
  -5  -4 -13 6.82674 2.47725   1 
   5  -4 -13 6.47313 2.12304   1 
  -5   4 -13 7.06193 2.75445   3 
   5  -4 -13 5.88865 2.53551   2 
  -6  -4 -13 5.59232 2.46077   3 
  -6  -4 -13 7.85780 2.73176   1 
   6  -4 -13 8.99536 2.24260   1 
  -6   4 -13 8.99196 2.87413   3 
   6  -4 -13 8.02650 2.50138   2 
  -7  -4 -13 14.3041 3.53410   1 
  -7  -4 -13 8.79238 2.68136   3 
  -7   4 -13 11.3624 2.99495   3 
   7  -4 -13 9.67287 2.72025   2 
  -8  -4 -13 7.12779 2.23629   3 
  -8  -4 -13 6.21278 3.19771   1 
  -8   4 -13 9.27760 2.90899   3 
   8  -4 -13 10.1793 2.86810   2 
  -9  -4 -13 18.5880 4.13614   1 
  -9  -4 -13 14.9636 3.09397   3 
  -9   4 -13 21.1436 4.10307   3 
   9  -4 -13 17.8907 3.46767   2 
 -10  -4 -13 284.939 13.8676   1 
 -10  -4 -13 269.164 12.3452   3 
  10  -4 -13 251.004 12.3148   2 
 -10   4 -13 266.818 13.0943   3 
 -11  -4 -13 -0.2730 1.68476   3 
 -11  -4 -13 3.29517 3.60869   1 
 -11   4 -13 2.74211 3.52214   3 
  11  -4 -13 -2.7003 2.19781   2 
  -1  -5 -13 72.1320 6.16036   1 
   1  -5 -13 61.4770 5.73949   1 
  -2  -5 -13 121.149 7.93114   1 
   2  -5 -13 98.3070 6.99785   1 
  -3  -5 -13 54.4941 5.64629   1 
   3  -5 -13 51.4865 5.06899   1 
  -4  -5 -13 12.9535 3.54317   1 
   4  -5 -13 4.70099 2.74119   2 
   4  -5 -13 7.09776 2.69612   1 
  -4   5 -13 7.04725 2.55365   3 
  -5  -5 -13 6.20685 2.93183   1 
   5  -5 -13 2.19592 2.28081   1 
  -5   5 -13 4.63122 2.63767   3 
   5  -5 -13 1.47581 3.03311   2 
  -6  -5 -13 4.27883 2.88684   1 
   6  -5 -13 4.43708 2.78402   2 
  -6   5 -13 7.92299 2.72909   3 
  -7  -5 -13 40.8005 8.41220   1 
   7  -5 -13 47.1204 7.92126   2 
  -7   5 -13 30.1916 5.11129   3 
   0   0 -14 70.3603 4.14688   1 
   0   0 -14 69.7087 4.96296   3 
   1   0 -14 527.745 16.5345   1 
   1   0 -14 509.386 17.6198   3 
  -1   0 -14 518.644 17.7840   3 
  -1   0 -14 513.545 18.2550   1 
  -2   0 -14 128.046 6.65547   3 
   2   0 -14 121.064 6.40337   3 
   2   0 -14 117.131 5.14152   1 
   2   0 -14 96.0900 5.04135   2 
  -2   0 -14 125.706 6.08335   1 
  -3   0 -14 13.3582 2.86389   3 
  -3   0 -14 11.4799 2.44583   1 
   3   0 -14 11.3234 2.48453   3 
  -4   0 -14 5.90532 2.17319   1 
   4   0 -14 6.03158 1.98523   3 
  -4   0 -14 5.59912 2.01343   3 
  -5   0 -14 -0.5745 1.36131   1 
   5   0 -14 2.11163 1.61053   3 
  -5   0 -14 2.94611 1.89080   3 
  -6   0 -14 275.804 11.6962   1 
   6   0 -14 296.836 11.3114   3 
  -6   0 -14 278.528 11.8657   3 
  -7   0 -14 12.8693 3.08472   1 
  -7   0 -14 8.89257 2.41609   3 
  -8   0 -14 81.4770 5.83150   1 
  -8   0 -14 71.7949 5.65087   3 
  -9   0 -14 227.970 10.6522   3 
  -9   0 -14 216.009 10.5475   1 
 -10   0 -14 117.774 8.06913   3 
 -10   0 -14 114.411 8.30576   1 
 -11   0 -14 107.863 7.29809   3 
 -11   0 -14 126.415 7.79767   1 
 -12   0 -14 17.0208 3.26521   1 
 -12   0 -14 14.7290 3.31969   3 
 -13   0 -14 89.9009 6.79927   3 
 -13   0 -14 103.263 7.37334   1 
 -14   0 -14 0.18738 1.55750   1 
 -14   0 -14 -0.1704 1.64320   3 
 -15   0 -14 84.0821 6.72218   3 
 -15   0 -14 78.8992 7.89882   1 
   0   1 -14 -1.3606 0.93925   1 
   0   1 -14 0.77631 1.35610   3 
   0  -1 -14 -1.9019 1.33619   3 
  -1  -1 -14 121.075 6.02775   1 
   1   1 -14 103.593 4.45513   2 
   1   1 -14 115.789 6.16450   3 
   1   1 -14 114.215 5.26214   1 
  -1  -1 -14 111.081 6.48506   3 
  -1   1 -14 116.386 6.35517   3 
   1  -1 -14 110.534 5.48754   1 
   1  -1 -14 120.584 6.68757   3 
   2   1 -14 84.7991 5.17492   3 
   2   1 -14 75.4581 3.98651   1 
  -2  -1 -14 83.2592 5.54933   3 
  -2  -1 -14 82.6457 5.08631   1 
  -2   1 -14 84.8241 5.45781   3 
   2  -1 -14 81.5725 4.39784   1 
   2  -1 -14 83.8360 5.50445   3 
  -3  -1 -14 164.296 8.13789   3 
  -3  -1 -14 170.181 7.82796   1 
   3   1 -14 167.660 7.50663   3 
   3  -1 -14 154.323 6.42366   1 
  -3   1 -14 148.816 7.73006   3 
   3  -1 -14 155.365 7.85771   3 
   4   1 -14 26.8831 3.20352   3 
  -4  -1 -14 29.9343 3.43406   1 
  -4  -1 -14 23.7173 3.87451   3 
  -4   1 -14 26.2931 3.45270   3 
   4  -1 -14 26.0495 3.66893   3 
  -5  -1 -14 32.8969 3.67930   1 
   5   1 -14 36.2963 3.56168   3 
  -5  -1 -14 44.3785 4.24278   3 
   5  -1 -14 32.2297 3.86854   3 
  -5   1 -14 39.7938 4.09907   3 
   6   1 -14 152.710 8.42580   3 
  -6  -1 -14 156.219 8.13259   1 
  -6  -1 -14 151.782 8.13854   3 
  -6   1 -14 155.179 8.18958   3 
   6  -1 -14 170.392 6.96153   2 
  -7  -1 -14 102.371 6.59396   3 
  -7  -1 -14 102.587 6.52117   1 
  -7   1 -14 109.556 6.84323   3 
  -8  -1 -14 -0.2598 1.36876   1 
  -8  -1 -14 1.88123 1.81123   3 
  -8   1 -14 0.67920 1.83881   3 
   8  -1 -14 -1.2135 0.61882   2 
  -9  -1 -14 2.23235 2.02350   1 
  -9  -1 -14 -0.1200 1.87020   3 
  -9   1 -14 -1.0746 1.37341   3 
   9  -1 -14 5.32840 1.80379   2 
 -10  -1 -14 49.7717 6.79239   3 
 -10  -1 -14 64.4751 6.99949   1 
 -10   1 -14 54.7518 5.83400   3 
 -11  -1 -14 2.15671 2.09844   3 
 -11  -1 -14 1.41378 1.76762   1 
  11  -1 -14 -0.3223 0.92524   2 
 -11   1 -14 0.78308 1.61524   1 
 -11   1 -14 0.73502 1.75466   3 
 -12  -1 -14 30.2763 5.07031   1 
 -12  -1 -14 33.8359 4.44291   3 
 -12   1 -14 21.2546 4.08625   1 
 -12   1 -14 25.6514 4.09318   3 
 -13  -1 -14 0.95578 1.92699   3 
 -13  -1 -14 0.84416 1.85161   1 
 -13   1 -14 1.41468 2.15480   1 
  13  -1 -14 -1.1629 1.38494   2 
 -13   1 -14 1.98613 2.18568   3 
 -14  -1 -14 8.03113 2.54165   1 
 -14  -1 -14 5.87249 2.61674   3 
 -14   1 -14 6.48169 2.76739   3 
 -14   1 -14 3.87516 2.37886   1 
 -15  -1 -14 -1.1599 2.00923   1 
 -15  -1 -14 4.33301 2.02264   3 
 -15   1 -14 6.54071 4.05506   1 
   0   2 -14 63.6866 4.71653   3 
   0  -2 -14 62.1620 5.10985   3 
   0  -2 -14 62.9771 4.45684   1 
  -1  -2 -14 408.537 14.8724   1 
   1   2 -14 423.075 14.6992   3 
  -1  -2 -14 410.892 15.6996   3 
   1  -2 -14 419.866 15.7961   3 
  -1   2 -14 421.043 14.9878   3 
   1  -2 -14 412.366 14.5025   1 
   2   2 -14 96.4164 5.50681   3 
  -2  -2 -14 105.149 6.09141   1 
  -2  -2 -14 100.007 6.50155   3 
  -2   2 -14 109.358 6.28631   3 
   2  -2 -14 93.5608 6.31847   3 
   2  -2 -14 96.5065 5.33806   1 
   3   2 -14 9.13930 2.10710   3 
   3   2 -14 6.90558 1.76198   1 
  -3  -2 -14 6.65991 2.17175   3 
  -3  -2 -14 9.85685 2.68757   1 
  -3   2 -14 7.58445 2.38560   3 
   3  -2 -14 6.17135 2.16851   3 
   3  -2 -14 7.17323 2.22550   1 
  -4  -2 -14 3.29371 1.81600   3 
  -4  -2 -14 5.99182 2.27851   1 
   4   2 -14 4.50925 1.65991   3 
   4  -2 -14 6.53384 1.59410   1 
  -4   2 -14 3.29884 1.88609   3 
   5   2 -14 -0.6544 0.80965   3 
  -5  -2 -14 1.50307 1.59057   3 
  -5  -2 -14 1.29017 1.37576   1 
  -5   2 -14 1.03517 1.64467   3 
   5  -2 -14 -0.5511 0.54436   1 
  -6  -2 -14 222.063 10.5632   3 
  -6  -2 -14 220.685 10.4700   1 
  -6   2 -14 224.875 10.5698   3 
   6  -2 -14 236.398 9.80857   2 
  -7  -2 -14 5.64915 2.17835   3 
  -7  -2 -14 6.25074 2.59387   1 
  -7   2 -14 6.67099 2.73145   3 
   7  -2 -14 6.04501 1.99010   2 
  -8  -2 -14 66.9710 5.50672   3 
  -8  -2 -14 69.0876 5.69598   1 
  -8   2 -14 54.9976 5.38017   3 
   8  -2 -14 71.2652 4.86632   2 
  -9  -2 -14 179.850 9.77746   1 
  -9  -2 -14 163.020 11.7669   3 
   9  -2 -14 189.110 8.39800   2 
  -9   2 -14 177.092 9.74692   3 
 -10  -2 -14 84.9391 6.64440   1 
 -10  -2 -14 94.7777 6.72683   3 
 -10   2 -14 84.9621 6.67991   3 
 -11  -2 -14 90.4521 6.65857   3 
 -11  -2 -14 97.2450 7.19142   1 
 -11   2 -14 92.3076 7.04096   3 
 -12  -2 -14 16.9267 4.02115   1 
 -12  -2 -14 21.0453 3.79821   3 
 -12   2 -14 16.6195 3.67997   3 
 -13  -2 -14 84.1310 6.47831   3 
 -13  -2 -14 88.6846 7.16458   1 
 -13   2 -14 81.9322 6.97719   3 
 -14  -2 -14 3.57054 2.16096   3 
  14  -2 -14 -1.8981 1.69354   2 
   0   3 -14 -0.9082 1.40938   3 
   0  -3 -14 -0.5720 1.53313   3 
   0  -3 -14 0.75478 1.62534   1 
   1   3 -14 80.2220 5.09697   3 
  -1  -3 -14 74.7893 5.54417   1 
  -1  -3 -14 87.6572 6.36060   3 
   1  -3 -14 85.1199 6.28661   3 
  -1   3 -14 81.9590 5.44786   3 
   1  -3 -14 78.3698 5.33329   1 
  -2  -3 -14 62.4019 4.93083   1 
  -2  -3 -14 60.6035 5.39471   3 
   2  -3 -14 56.1496 4.42475   1 
  -2   3 -14 55.8323 4.69919   3 
  -3  -3 -14 120.090 7.45868   3 
  -3  -3 -14 108.944 6.83520   1 
   3  -3 -14 109.436 6.22284   1 
  -3   3 -14 116.767 6.88836   3 
  -4  -3 -14 24.1732 3.93524   1 
  -4  -3 -14 14.8862 3.41500   3 
  -4   3 -14 13.3977 2.97414   3 
   4  -3 -14 13.9290 2.43681   1 
  -5  -3 -14 21.1643 3.59870   1 
  -5  -3 -14 26.4545 4.19098   3 
  -5   3 -14 25.4331 3.97735   3 
  -6  -3 -14 119.685 9.00619   3 
   6  -3 -14 98.2604 6.55259   2 
  -6   3 -14 111.181 7.25341   3 
  -7  -3 -14 74.5416 5.98044   1 
  -7  -3 -14 77.1220 6.53906   3 
  -7   3 -14 68.1639 6.44053   3 
   7  -3 -14 70.2205 5.55636   2 
  -8  -3 -14 1.99532 1.93657   3 
  -8  -3 -14 0.27653 1.53166   1 
  -8   3 -14 3.68474 2.01060   3 
   8  -3 -14 2.23702 2.16890   2 
  -9  -3 -14 1.12823 1.89065   1 
  -9  -3 -14 1.92889 2.03811   3 
  -9   3 -14 -1.9145 1.53206   3 
   9  -3 -14 0.17099 3.80606   2 
 -10  -3 -14 36.9906 4.91473   1 
 -10  -3 -14 31.1209 4.69708   3 
 -10   3 -14 27.2475 4.52233   3 
  10  -3 -14 35.3969 4.25076   2 
 -11  -3 -14 -1.5197 2.11728   3 
 -11  -3 -14 -0.5313 1.94124   1 
  11  -3 -14 -0.4465 1.96506   2 
 -11   3 -14 2.31040 2.07256   3 
 -12  -3 -14 18.7534 3.67823   3 
 -12  -3 -14 23.6574 4.78997   1 
  12  -3 -14 15.4279 2.92692   2 
 -12   3 -14 18.4343 4.02325   3 
 -13  -3 -14 -1.3801 1.94932   1 
 -13  -3 -14 -1.6332 2.18535   3 
 -13   3 -14 -3.2556 1.85023   3 
  13  -3 -14 2.41522 1.93248   2 
   0   4 -14 1.20262 1.11182   3 
  -1  -4 -14 224.840 10.9071   1 
   1  -4 -14 224.101 13.6575   1 
  -2  -4 -14 53.3076 5.11504   1 
  -2   4 -14 59.3235 4.89076   3 
   2  -4 -14 63.4607 5.32518   1 
  -3  -4 -14 1.41546 1.87043   1 
   3  -4 -14 5.19203 2.20075   1 
  -3   4 -14 2.64798 2.23959   3 
  -4  -4 -14 4.30036 2.02621   1 
  -4  -4 -14 3.29715 2.27661   3 
   4  -4 -14 1.33109 1.52469   1 
  -5  -4 -14 5.50429 2.54559   1 
  -5  -4 -14 3.40558 2.00880   3 
   5  -4 -14 2.12281 1.82057   1 
  -5   4 -14 -0.3029 1.92491   3 
   5  -4 -14 2.64857 2.10506   2 
  -6  -4 -14 136.078 8.42333   1 
  -6  -4 -14 120.015 7.89061   3 
  -6   4 -14 129.297 7.86792   3 
   6  -4 -14 122.212 7.76818   2 
  -7  -4 -14 1.43123 1.83467   3 
  -7  -4 -14 2.64104 2.04306   1 
  -7   4 -14 -0.9069 1.94639   3 
   7  -4 -14 -1.2821 2.41442   2 
  -8  -4 -14 35.5729 4.81673   1 
  -8  -4 -14 36.8825 4.52192   3 
  -8   4 -14 36.3233 4.98623   3 
   8  -4 -14 38.8237 5.47054   2 
  -9  -4 -14 81.7665 7.18736   1 
  -9  -4 -14 78.1435 6.35720   3 
  -9   4 -14 94.3034 7.08721   3 
   9  -4 -14 85.1375 6.78306   2 
 -10  -4 -14 65.1922 11.0370   1 
 -10  -4 -14 52.5220 5.27279   3 
 -10   4 -14 55.5982 7.70418   3 
  10  -4 -14 44.2230 6.18883   2 
   0  -5 -14 -0.1104 2.04514   1 
   0   5 -14 -3.9229 1.66573   3 
  -1  -5 -14 28.9964 4.38229   1 
   1  -5 -14 37.3597 5.69559   1 
  -2  -5 -14 24.8231 4.54430   1 
   2  -5 -14 31.9021 5.04685   1 
  -3  -5 -14 45.9049 5.52368   1 
   3  -5 -14 50.5650 5.05734   1 
  -4  -5 -14 5.85234 2.85804   1 
  -4   5 -14 4.86437 2.50523   3 
   4  -5 -14 11.3761 3.42401   2 
   4  -5 -14 6.65787 3.04425   1 
  -5  -5 -14 4.91125 4.31334   1 
   5  -5 -14 5.86335 5.34133   2 
   5  -5 -14 14.7384 3.66863   1 
  -5   5 -14 17.7799 3.69926   3 
   0   0 -15 -0.1608 1.32902   3 
   1   0 -15 112.096 5.38893   1 
  -1   0 -15 111.911 6.54028   3 
   1   0 -15 113.529 6.48319   3 
  -1   0 -15 122.220 5.93666   1 
   2   0 -15 3.67632 1.17638   1 
   2   0 -15 -0.6244 1.52342   3 
  -2   0 -15 2.33275 1.74511   3 
  -2   0 -15 2.64344 1.75241   1 
  -3   0 -15 40.2394 3.64793   1 
   3   0 -15 30.3391 3.14296   2 
   3   0 -15 34.0432 3.85910   3 
  -3   0 -15 36.5381 3.95085   3 
  -4   0 -15 123.627 6.75454   1 
  -4   0 -15 124.834 7.14062   3 
   4   0 -15 120.300 6.74175   3 
   5   0 -15 91.4488 5.73848   3 
  -5   0 -15 82.8322 5.63116   1 
  -5   0 -15 82.5240 5.91116   3 
   6   0 -15 107.276 6.32182   3 
  -6   0 -15 114.152 6.75853   1 
  -6   0 -15 115.343 7.15236   3 
  -7   0 -15 50.5048 4.65957   1 
  -7   0 -15 55.9715 5.09174   3 
   8   0 -15 -0.8902 0.72951   2 
  -8   0 -15 2.30818 1.90064   3 
  -8   0 -15 0.75568 1.56141   1 
  -9   0 -15 44.5790 7.37696   3 
 -10   0 -15 5.71447 2.44051   1 
 -10   0 -15 4.67942 2.49749   3 
 -11   0 -15 24.4763 3.98324   3 
 -11   0 -15 23.4323 3.92911   1 
 -12   0 -15 67.4595 5.97015   3 
 -12   0 -15 62.0722 5.81149   1 
 -13   0 -15 64.3490 6.09495   3 
 -13   0 -15 63.3189 5.86317   1 
 -14   0 -15 176.203 10.6229   1 
 -14   0 -15 156.153 9.59154   3 
   0   1 -15 13.7110 1.92225   2 
   0   1 -15 18.0757 3.11221   3 
   0  -1 -15 14.2559 2.85649   3 
   0  -1 -15 13.0001 2.59937   1 
   1   1 -15 393.007 14.4058   3 
  -1  -1 -15 392.422 14.0024   1 
  -1  -1 -15 382.410 14.8816   3 
   1   1 -15 386.836 13.1416   1 
  -1   1 -15 403.497 13.8089   1 
  -1   1 -15 406.786 14.7208   3 
   1  -1 -15 399.016 15.0030   3 
   1  -1 -15 382.816 14.4481   1 
  -2  -1 -15 105.754 5.98154   1 
   2   1 -15 102.813 6.02179   3 
  -2  -1 -15 100.253 6.38789   3 
  -2   1 -15 111.155 5.81584   1 
  -2   1 -15 107.395 6.38105   3 
   2  -1 -15 97.0452 6.27329   3 
   2  -1 -15 96.1455 5.04225   1 
  -3  -1 -15 140.513 7.68136   3 
  -3  -1 -15 130.243 7.03906   1 
   3   1 -15 141.566 7.10015   3 
   3  -1 -15 136.193 7.46059   3 
  -3   1 -15 146.086 7.12054   1 
  -3   1 -15 135.518 7.43008   3 
  -4  -1 -15 24.5247 4.07670   3 
   4   1 -15 17.8107 2.75862   3 
  -4  -1 -15 22.5664 3.43719   1 
   4  -1 -15 16.0271 3.15973   3 
  -4   1 -15 19.4526 3.39319   3 
  -5  -1 -15 225.289 10.5469   3 
  -5  -1 -15 231.969 10.3765   1 
   5   1 -15 238.647 9.63121   3 
  -5   1 -15 228.090 10.4041   3 
   5  -1 -15 215.571 10.1338   3 
   6   1 -15 101.174 5.65602   3 
  -6  -1 -15 87.1249 6.06374   1 
  -6  -1 -15 89.9061 6.24673   3 
  -6   1 -15 84.3419 6.13860   3 
  -7  -1 -15 144.964 8.02788   1 
  -7  -1 -15 122.543 7.59945   3 
  -7   1 -15 134.824 7.92538   3 
  -8  -1 -15 134.710 8.11875   1 
  -8  -1 -15 158.730 8.98369   3 
  -8   1 -15 141.185 8.14334   1 
  -8   1 -15 147.585 10.1764   3 
  -9  -1 -15 36.2554 4.41141   1 
  -9  -1 -15 42.0384 4.82443   3 
  -9   1 -15 38.4745 4.68658   1 
  -9   1 -15 32.9971 4.41334   3 
 -10  -1 -15 3.45620 2.17501   1 
 -10  -1 -15 3.83002 2.31556   3 
 -10   1 -15 6.71124 2.71357   3 
 -10   1 -15 8.80024 2.98685   1 
  10  -1 -15 0.94199 0.98895   2 
 -11  -1 -15 181.844 9.78206   3 
 -11  -1 -15 179.010 9.95780   1 
 -11   1 -15 166.244 9.61727   3 
 -11   1 -15 170.812 9.61464   1 
 -12  -1 -15 101.897 7.37346   3 
 -12  -1 -15 103.522 7.68116   1 
 -12   1 -15 109.137 7.54779   1 
 -12   1 -15 110.444 7.78238   3 
 -13  -1 -15 10.0901 3.50757   1 
 -13  -1 -15 3.44886 2.36113   3 
 -13   1 -15 8.30581 3.37136   1 
 -13   1 -15 7.60230 2.89277   3 
 -14  -1 -15 28.7937 4.46153   3 
 -14   1 -15 15.1098 4.23272   1 
   0  -2 -15 0.47998 1.43096   1 
   0   2 -15 -1.3309 1.47305   3 
   0  -2 -15 -1.2542 1.55298   3 
  -1  -2 -15 95.1592 5.81263   1 
   1   2 -15 96.6627 5.80162   3 
  -1  -2 -15 97.4398 6.51331   3 
   1  -2 -15 94.9984 5.48098   1 
  -1   2 -15 100.531 6.09926   3 
   1  -2 -15 95.1088 6.47941   3 
  -2  -2 -15 1.56895 1.90002   3 
  -2  -2 -15 0.80479 1.57790   1 
   2   2 -15 1.89275 1.62356   3 
   2  -2 -15 -0.7578 1.58739   3 
   2  -2 -15 -0.0015 1.39197   1 
  -2   2 -15 1.42057 1.88521   3 
  -3  -2 -15 29.5498 4.06020   3 
   3   2 -15 29.8269 3.35112   3 
  -3  -2 -15 31.1276 3.64365   1 
  -3   2 -15 32.2435 3.82224   3 
   3  -2 -15 32.1009 4.02209   3 
   3  -2 -15 34.0390 3.01890   1 
  -6  -2 -15 97.5770 6.69039   3 
  -6  -2 -15 93.3976 6.34851   1 
  -6   2 -15 92.1271 6.55744   3 
   6  -2 -15 84.6548 5.54405   2 
   7  -2 -15 52.8035 4.32463   2 
  -8  -2 -15 1.26979 1.91854   3 
  -8  -2 -15 0.92528 1.58450   1 
   8  -2 -15 0.09649 1.47951   2 
  -8   2 -15 -0.0991 1.77437   3 
  -9  -2 -15 29.8020 4.18000   3 
  -9  -2 -15 37.3779 4.43487   1 
  -9   2 -15 30.4371 4.81763   3 
 -10  -2 -15 3.19843 2.23196   1 
 -10  -2 -15 3.19712 2.15790   3 
 -10   2 -15 4.79654 2.34328   3 
 -11  -2 -15 21.8987 4.01869   3 
 -11  -2 -15 16.6852 3.87249   1 
 -11   2 -15 20.2666 4.04724   3 
 -12  -2 -15 50.9171 5.29821   3 
 -12  -2 -15 60.1992 5.98400   1 
 -12   2 -15 52.6982 5.73959   3 
 -13  -2 -15 41.3408 4.92355   3 
 -13   2 -15 41.8196 7.80491   3 
   0  -3 -15 10.3987 2.38090   1 
   0   3 -15 13.1058 2.71297   3 
   1   3 -15 214.962 9.59054   3 
  -1  -3 -15 250.074 10.7770   1 
   1  -3 -15 238.945 10.3412   1 
  -1   3 -15 255.829 10.4916   3 
  -2  -3 -15 67.3981 5.42335   1 
   2  -3 -15 70.4216 4.95236   1 
  -2   3 -15 70.4104 5.32538   3 
  -3  -3 -15 91.1142 7.39083   3 
  -3  -3 -15 97.8783 6.40969   1 
   3  -3 -15 78.2821 5.27895   1 
  -3   3 -15 84.8919 6.01303   3 
   4   3 -15 2.69972 1.06323   3 
  -4  -3 -15 9.74302 2.75778   3 
  -4   3 -15 11.0005 2.91136   3 
  -6  -3 -15 68.3731 5.88977   1 
  -6  -3 -15 72.0085 5.98175   3 
  -6   3 -15 55.0652 5.53653   3 
   6  -3 -15 65.1471 5.63849   2 
  -7  -3 -15 94.5320 6.81439   3 
  -7  -3 -15 91.8605 6.82461   1 
  -7   3 -15 87.2291 6.72537   3 
  -8  -3 -15 99.0608 7.11393   3 
  -8  -3 -15 100.485 7.20201   1 
   8  -3 -15 98.1721 6.53521   2 
  -8   3 -15 92.9680 7.08941   3 
  -9  -3 -15 16.8264 3.68863   1 
  -9  -3 -15 20.1795 3.70894   3 
   9  -3 -15 15.4365 3.29527   2 
  -9   3 -15 22.2526 4.12901   3 
 -10  -3 -15 3.16704 2.42757   3 
 -10  -3 -15 0.91025 2.49615   1 
 -10   3 -15 4.67153 2.60152   3 
  10  -3 -15 1.40359 1.92199   2 
 -11  -3 -15 113.444 7.90209   3 
 -11  -3 -15 122.876 8.96582   1 
 -11   3 -15 130.208 8.91743   3 
   0  -4 -15 -1.6770 1.50360   1 
   0   4 -15 0.42748 1.19246   3 
   2   4 -15 -1.7303 1.36543   3 
  -2  -4 -15 -0.9411 1.61899   1 
  -2   4 -15 0.70535 1.67630   3 
   2  -4 -15 1.19320 1.51623   1 
  -3  -4 -15 20.8616 4.13650   1 
   3  -4 -15 13.5515 3.06094   1 
  -3   4 -15 19.6210 3.59232   3 
  -4  -4 -15 52.8604 5.38387   1 
  -4  -4 -15 50.9893 5.46260   3 
  -4   4 -15 57.7135 5.12719   3 
   4  -4 -15 51.1757 5.66515   1 
  -5  -4 -15 40.3813 4.92041   1 
  -5  -4 -15 43.5698 4.95514   3 
  -5   4 -15 36.8646 4.84156   3 
   5  -4 -15 32.3379 4.43524   2 
  -6  -4 -15 60.6194 5.86182   1 
  -6  -4 -15 46.9447 5.24177   3 
   6  -4 -15 44.4395 5.09133   2 
  -6   4 -15 48.8536 5.57075   3 
  -7  -4 -15 21.1595 3.69915   3 
  -7  -4 -15 21.3967 4.19102   1 
  -7   4 -15 17.3435 3.89823   3 
   7  -4 -15 13.2607 3.34703   2 
  -8  -4 -15 -3.3787 1.79843   3 
  -8  -4 -15 1.57770 2.30426   1 
   8  -4 -15 0.11038 2.12017   2 
  -8   4 -15 3.08531 2.23523   3 
  -9  -4 -15 16.6126 3.27702   3 
  -9  -4 -15 23.7430 4.96829   1 
   9  -4 -15 16.4298 3.51717   2 
   0  -5 -15 7.49151 2.44175   1 
  -1  -5 -15 109.464 8.54890   1 
   1  -5 -15 115.561 7.86848   1 
  -2  -5 -15 28.3518 7.97141   1 
   2  -5 -15 23.4497 3.80402   1 
   0   0 -16 23.0357 2.72435   1 
   0   0 -16 29.9653 4.15319   3 
  -1   0 -16 13.3032 2.51283   1 
  -1   0 -16 13.0370 3.03348   3 
   1   0 -16 8.88965 2.32760   3 
   2   0 -16 0.00218 0.63832   1 
   2   0 -16 2.78628 1.80017   3 
  -2   0 -16 1.23057 1.48303   3 
  -2   0 -16 1.54064 1.38213   1 
  -3   0 -16 1.78352 1.94148   3 
   3   0 -16 0.42911 0.68649   1 
   3   0 -16 0.29612 1.46543   3 
  -3   0 -16 -0.7411 1.19841   1 
  -4   0 -16 1.65491 1.93296   1 
   4   0 -16 0.64158 0.57726   1 
   4   0 -16 0.53141 1.71738   3 
  -4   0 -16 0.49517 1.81330   3 
   5   0 -16 590.476 19.7238   3 
  -5   0 -16 552.497 20.1467   3 
  -5   0 -16 547.427 19.5541   1 
  -6   0 -16 3.13927 2.12063   3 
   6   0 -16 0.96800 0.69114   2 
   6   0 -16 0.84444 1.56908   3 
  -6   0 -16 2.28022 1.88305   1 
  -7   0 -16 16.4084 3.05845   1 
  -8   0 -16 78.8960 8.34703   1 
  -8   0 -16 55.4822 5.46977   3 
  -9   0 -16 54.5721 5.13132   1 
  -9   0 -16 58.4475 5.57627   3 
 -10   0 -16 10.2954 3.25937   1 
 -10   0 -16 13.2915 3.07021   3 
 -11   0 -16 33.4554 4.30799   1 
 -11   0 -16 36.6945 4.69182   3 
 -12   0 -16 3.76593 2.39373   1 
 -12   0 -16 1.54238 2.46371   3 
 -13   0 -16 64.0360 6.60665   1 
 -13   0 -16 65.8308 6.33624   3 
   0   1 -16 -0.2144 1.46995   3 
   0   1 -16 2.82487 1.50111   1 
   0  -1 -16 -1.0067 1.51819   3 
   0  -1 -16 2.75176 1.50427   1 
  -1  -1 -16 32.4557 4.02526   3 
  -1  -1 -16 27.0636 3.19338   1 
   1   1 -16 31.5280 3.80787   3 
  -1   1 -16 28.1032 3.79468   3 
  -1   1 -16 34.4260 3.25147   1 
   1  -1 -16 37.1186 4.10936   3 
   1  -1 -16 26.0766 2.95068   1 
   2   1 -16 7.38078 2.10266   3 
  -2  -1 -16 9.73104 2.54817   3 
  -2  -1 -16 10.9978 2.44533   1 
  -2   1 -16 7.69227 2.38503   3 
   2  -1 -16 8.25982 2.63362   3 
  -2   1 -16 11.7179 2.56959   1 
  -3  -1 -16 159.773 8.04843   1 
   3   1 -16 159.320 7.87283   3 
  -3  -1 -16 161.397 8.61810   3 
   3  -1 -16 158.846 8.44296   3 
  -3   1 -16 158.965 8.38529   3 
  -3   1 -16 176.897 8.06211   1 
  -4  -1 -16 -0.6856 1.68370   3 
   4   1 -16 -2.2405 1.48584   3 
  -4  -1 -16 -0.5545 1.30595   1 
   4   1 -16 0.11053 0.60711   1 
   4  -1 -16 -1.5802 1.38253   3 
  -4   1 -16 -0.1135 1.45935   1 
  -4   1 -16 1.55212 1.85110   3 
   4  -1 -16 -1.8411 0.65772   1 
   5   1 -16 83.7535 5.43154   3 
  -5  -1 -16 83.9107 5.80604   1 
  -5  -1 -16 84.4978 6.21934   3 
   5  -1 -16 74.0065 5.81302   3 
  -5   1 -16 78.7512 5.56627   1 
  -5   1 -16 84.4836 6.12482   3 
  -6  -1 -16 -1.4911 1.38633   1 
   6   1 -16 1.63190 1.45379   3 
  -6  -1 -16 -3.1336 2.64439   3 
   6  -1 -16 0.12636 0.79638   2 
  -6   1 -16 2.32543 1.74703   3 
  -6   1 -16 0.03359 1.42575   1 
  -7  -1 -16 -0.9524 1.70930   1 
  -7  -1 -16 -2.0943 1.67324   3 
  -7   1 -16 -2.1090 1.42213   1 
  -7   1 -16 -0.7270 1.77905   3 
   7  -1 -16 -0.2394 0.92143   2 
  -8  -1 -16 3.28510 2.39732   3 
  -8  -1 -16 0.58582 1.73937   1 
  -8   1 -16 0.37769 1.94288   3 
  -8   1 -16 0.87951 1.63854   1 
   8  -1 -16 1.00409 0.99261   2 
  -9  -1 -16 272.214 12.7231   1 
  -9  -1 -16 276.926 12.6247   3 
  -9   1 -16 264.343 12.4870   3 
  -9   1 -16 267.714 12.3732   1 
 -10  -1 -16 31.4553 4.39432   3 
 -10  -1 -16 38.2148 5.70983   1 
 -10   1 -16 29.5905 4.74497   3 
 -10   1 -16 31.4700 4.21288   1 
 -11  -1 -16 22.0586 4.13234   3 
 -11  -1 -16 14.9021 3.40117   1 
 -11   1 -16 11.9857 3.51228   1 
 -11   1 -16 16.5365 3.93355   3 
 -12  -1 -16 1.99077 2.53235   3 
 -12  -1 -16 3.53685 2.68918   1 
 -12   1 -16 1.64500 2.14430   1 
 -12   1 -16 -0.5899 2.15719   3 
 -13  -1 -16 1.08522 2.45364   1 
 -13  -1 -16 8.45182 3.27174   3 
 -13   1 -16 7.18952 4.95332   3 
   0   2 -16 19.2576 3.20123   3 
   0  -2 -16 17.9866 3.02708   1 
   0  -2 -16 17.3529 3.24789   3 
  -1  -2 -16 14.2068 3.26884   3 
  -1  -2 -16 17.8208 3.10584   1 
   1   2 -16 13.0313 2.58125   3 
   1  -2 -16 9.64607 2.18773   1 
  -1   2 -16 19.1313 3.42864   3 
   1  -2 -16 16.4250 3.07382   3 
  -2  -2 -16 1.21366 1.96844   3 
   2   2 -16 3.30708 1.80590   3 
  -2  -2 -16 0.53845 1.78707   1 
   2  -2 -16 0.02279 1.30886   1 
   2  -2 -16 3.03201 1.97598   3 
  -2   2 -16 0.68246 1.71524   3 
   3   2 -16 -0.1454 0.81890   1 
  -3  -2 -16 0.03022 2.03748   3 
   3   2 -16 0.48044 1.43292   3 
  -3  -2 -16 0.09330 1.38686   1 
   3  -2 -16 1.00318 1.74197   3 
   3  -2 -16 0.26172 0.96694   1 
  -3   2 -16 1.33296 1.86604   3 
  -4  -2 -16 1.08633 1.87354   1 
   4   2 -16 0.41910 0.73368   1 
  -4   2 -16 -0.6023 1.63974   3 
   4  -2 -16 -1.6894 0.81777   1 
  -5  -2 -16 465.787 18.2993   3 
  -5  -2 -16 484.360 18.2439   1 
  -5   2 -16 472.673 18.9870   3 
   6   2 -16 0.19189 1.10444   3 
  -6  -2 -16 1.58365 1.78717   1 
  -6  -2 -16 2.16252 2.00237   3 
   6  -2 -16 1.62460 1.83835   2 
   6  -2 -16 1.03040 0.95469   1 
  -6   2 -16 0.13155 1.80431   3 
  -7  -2 -16 16.8353 3.50599   3 
  -7  -2 -16 16.3609 3.17675   1 
  -7   2 -16 17.4163 3.47868   3 
  -8  -2 -16 43.6151 4.74853   1 
  -8  -2 -16 52.8691 5.26057   3 
  -8   2 -16 43.6046 4.91010   3 
  -9  -2 -16 40.8580 4.68847   1 
  -9  -2 -16 37.9969 4.78385   3 
  -9   2 -16 40.2152 4.82269   3 
 -10  -2 -16 6.30142 2.70409   3 
 -10  -2 -16 11.6802 3.36249   1 
 -10   2 -16 11.0266 3.34431   3 
 -11  -2 -16 30.7165 5.31529   1 
 -11  -2 -16 19.5651 3.50657   3 
 -11   2 -16 23.4127 4.43627   3 
 -12  -2 -16 1.67446 4.43417   1 
 -12  -2 -16 0.22186 1.98472   3 
  12  -2 -16 -1.2686 1.99435   2 
 -12   2 -16 0.56612 3.29020   3 
   0  -3 -16 0.34170 1.50781   1 
   0  -3 -16 -1.1816 1.70896   3 
   0   3 -16 0.76038 1.64032   3 
  -1  -3 -16 23.3967 3.76366   1 
  -1  -3 -16 16.8971 3.82089   3 
  -1   3 -16 17.6049 3.08655   3 
   1  -3 -16 14.5869 3.28831   3 
   1  -3 -16 18.0276 3.27418   1 
  -2  -3 -16 4.87322 2.73505   3 
   2  -3 -16 8.44577 2.41647   1 
  -2   3 -16 6.70069 2.24933   3 
  -4  -3 -16 -0.4610 1.66652   3 
  -4  -3 -16 -1.4786 1.85720   1 
   4   3 -16 0.42727 1.20090   3 
  -4   3 -16 2.87370 2.05586   3 
   4  -3 -16 0.12840 1.04954   1 
  -5  -3 -16 53.6068 5.27154   1 
  -6  -3 -16 2.14137 2.29103   1 
  -6  -3 -16 -2.9620 1.83239   3 
  -6   3 -16 0.40504 1.89065   3 
   6  -3 -16 -1.2844 2.06091   2 
   6  -3 -16 2.88863 1.32214   1 
  -7  -3 -16 -0.9256 1.75491   3 
  -7  -3 -16 -1.7263 1.97752   1 
  -7   3 -16 0.64854 1.98294   3 
   7  -3 -16 0.48717 1.85161   2 
  -8  -3 -16 -0.0593 1.98581   3 
  -8  -3 -16 2.14157 2.27874   1 
   8  -3 -16 -4.3331 1.75554   2 
  -8   3 -16 -0.1002 2.15531   3 
  -9  -3 -16 195.246 10.5572   3 
  -9  -3 -16 199.877 10.8557   1 
   9  -3 -16 184.620 9.22446   2 
  -9   3 -16 170.423 10.3319   3 
 -10  -3 -16 18.5872 3.80615   3 
 -10  -3 -16 24.9108 5.92597   1 
 -10   3 -16 38.8018 8.08723   3 
   0  -4 -16 12.1936 2.84859   1 
  -1  -4 -16 4.94421 2.50271   1 
   1  -4 -16 9.05061 2.30653   1 
   2   4 -16 2.58779 1.98694   3 
  -2  -4 -16 1.33537 2.09427   1 
   2  -4 -16 -0.3258 1.60709   1 
  -2   4 -16 1.69435 1.46707   3 
  -3  -4 -16 0.76074 2.20555   1 
  -3   4 -16 -2.0366 1.76313   3 
   3  -4 -16 1.06650 1.92360   1 
  -4  -4 -16 2.78421 2.25861   3 
  -4  -4 -16 2.34758 2.75723   1 
   4  -4 -16 -3.0432 1.22845   1 
  -4   4 -16 -0.0100 2.14873   3 
  -5  -4 -16 261.541 12.6322   3 
  -5  -4 -16 245.934 12.3431   1 
   5  -4 -16 233.022 11.5749   2 
  -5   4 -16 240.214 11.6370   3 
  -6  -4 -16 -0.2440 2.22279   1 
  -6  -4 -16 -0.6021 2.16153   3 
   6  -4 -16 -2.8783 1.67749   1 
   6  -4 -16 4.75598 2.71081   2 
  -6   4 -16 3.73445 2.88381   3 
  -7  -4 -16 3.80805 3.60909   1 
  -7  -4 -16 10.5249 3.62526   3 
  -7   4 -16 13.8868 3.76669   3 
   7  -4 -16 6.49749 3.37706   2 
   0   0 -17 0.28899 1.04927   1 
   0   0 -17 1.37847 1.66457   3 
   1   0 -17 247.239 10.8538   3 
  -1   0 -17 239.966 9.83976   1 
  -1   0 -17 232.800 10.8233   3 
   2   0 -17 5.35050 2.62213   3 
  -2   0 -17 5.42122 2.07867   3 
  -2   0 -17 4.13474 1.93998   1 
   3   0 -17 1.44317 0.86070   1 
  -3   0 -17 0.73114 1.81987   3 
  -3   0 -17 2.06201 1.58352   1 
   3   0 -17 0.45052 1.86638   3 
  -4   0 -17 37.7305 4.80448   3 
   4   0 -17 34.0409 4.12072   3 
  -4   0 -17 46.1058 4.17486   1 
   5   0 -17 74.4200 5.61200   3 
  -5   0 -17 75.1323 5.45115   1 
  -5   0 -17 68.8521 6.39236   3 
  -6   0 -17 1.45818 1.88892   1 
   6   0 -17 2.62123 1.97230   3 
  -6   0 -17 0.89256 1.96824   3 
   6   0 -17 0.20789 0.94106   2 
  -7   0 -17 1.26819 1.92698   3 
  -7   0 -17 1.77946 2.05019   1 
  -8   0 -17 14.4062 3.66701   1 
  -8   0 -17 17.8604 3.60466   3 
  -9   0 -17 28.5257 4.69661   1 
  -9   0 -17 38.9948 4.89450   3 
 -10   0 -17 53.0297 5.48457   1 
 -10   0 -17 61.0134 5.74407   3 
 -11   0 -17 48.0186 5.43653   3 
 -11   0 -17 48.1907 5.31096   1 
 -12   0 -17 105.129 9.87792   1 
 -12   0 -17 110.509 10.8427   3 
   0   1 -17 206.604 9.78151   3 
   0  -1 -17 214.490 10.3232   3 
   0  -1 -17 208.718 8.91421   1 
  -1  -1 -17 86.4642 6.11657   3 
   1   1 -17 73.0183 5.44776   3 
  -1  -1 -17 71.9697 4.97395   1 
  -1   1 -17 74.3860 4.80873   1 
   1  -1 -17 76.2633 5.87715   3 
  -1   1 -17 73.9297 5.59872   3 
   2   1 -17 34.8759 3.98164   3 
  -2  -1 -17 35.7818 3.63423   1 
  -2  -1 -17 43.0641 4.68789   3 
  -2   1 -17 35.3115 4.30077   3 
  -2   1 -17 44.2392 3.87334   1 
   2  -1 -17 42.3678 4.59944   3 
  -3  -1 -17 129.549 7.12754   1 
  -3  -1 -17 117.076 11.4976   3 
   3   1 -17 136.969 7.32823   3 
  -3   1 -17 139.991 7.93934   3 
   3  -1 -17 130.935 7.83980   3 
  -3   1 -17 133.805 7.07675   1 
  -4  -1 -17 106.886 6.64846   1 
  -4  -1 -17 117.179 8.30891   3 
   4   1 -17 101.403 6.30380   3 
   4  -1 -17 111.779 7.22104   3 
  -4   1 -17 101.843 8.31861   3 
  -4   1 -17 113.256 6.59167   1 
   5   1 -17 297.756 12.0579   3 
  -5  -1 -17 298.068 13.2314   3 
  -5  -1 -17 307.313 12.8695   1 
  -5   1 -17 309.281 12.6516   1 
  -5   1 -17 300.360 13.7412   3 
   5  -1 -17 292.481 12.9011   3 
  -6  -1 -17 9.87445 3.18994   1 
  -6  -1 -17 6.63831 2.40464   3 
  -6   1 -17 8.67125 2.72174   3 
  -6   1 -17 12.1010 3.83572   1 
  -7  -1 -17 83.2302 6.20030   1 
  -7  -1 -17 78.7421 6.28055   3 
  -7   1 -17 82.9024 6.37251   3 
  -7   1 -17 75.8923 5.88945   1 
  -8  -1 -17 15.3423 3.57574   3 
  -8  -1 -17 10.6190 3.17254   1 
  -8   1 -17 15.5421 3.56471   1 
  -8   1 -17 12.9403 3.30851   3 
  -9  -1 -17 0.58842 2.33608   1 
  -9  -1 -17 2.65252 2.18933   3 
   9  -1 -17 1.96371 1.84888   2 
  -9   1 -17 -0.6984 2.05526   1 
  -9   1 -17 0.01398 2.06245   3 
 -10  -1 -17 29.6179 5.16562   1 
 -10  -1 -17 20.4778 3.80716   3 
 -10   1 -17 28.1960 4.57104   3 
 -10   1 -17 26.1092 4.80344   1 
 -11  -1 -17 98.5275 7.15636   3 
 -11  -1 -17 95.9430 7.32817   1 
 -11   1 -17 81.3046 6.89848   1 
 -11   1 -17 86.7061 7.12978   3 
 -12  -1 -17 94.7012 8.80600   1 
 -12   1 -17 123.759 10.8995   1 
 -12   1 -17 105.543 8.30305   3 
   0   2 -17 0.32187 1.60721   3 
   0   2 -17 -0.2725 0.86294   1 
   0  -2 -17 2.17346 2.14753   3 
   0  -2 -17 0.11541 1.41769   1 
  -1  -2 -17 212.109 10.5419   3 
  -1  -2 -17 211.201 9.44735   1 
   1   2 -17 206.265 9.46658   3 
  -1   2 -17 205.914 9.70028   3 
   1  -2 -17 182.470 8.63279   1 
   1  -2 -17 202.068 10.4099   3 
   2   2 -17 4.70044 1.88477   3 
  -2  -2 -17 2.32498 1.75951   1 
   2   2 -17 2.83873 1.69430   1 
  -2  -2 -17 4.00758 2.16375   3 
  -2   2 -17 -1.0264 1.84239   3 
   2  -2 -17 3.88670 2.38115   3 
  -3  -2 -17 2.75455 1.81044   1 
  -3  -2 -17 2.66004 2.34929   3 
   3   2 -17 0.99179 0.97845   1 
   3  -2 -17 -0.8798 1.68548   3 
  -3   2 -17 0.99186 2.63687   3 
   3  -2 -17 -0.2659 0.96769   1 
  -4  -2 -17 31.7677 4.46046   3 
  -5  -2 -17 58.7154 5.61977   3 
  -5  -2 -17 55.8449 5.24221   1 
  -5   2 -17 69.4676 5.66950   3 
  -6  -2 -17 -0.2199 2.04693   3 
   6   2 -17 -1.7030 1.29195   3 
  -6  -2 -17 3.01203 2.11645   1 
  -6   2 -17 2.69235 1.89842   3 
   6  -2 -17 0.35723 1.41023   1 
   6  -2 -17 0.75527 1.07330   2 
  -7  -2 -17 -2.1487 1.66556   1 
  -7  -2 -17 0.43366 2.08005   3 
   7  -2 -17 -1.1671 1.20735   2 
  -7   2 -17 0.31924 2.02347   3 
  -8  -2 -17 16.1522 3.75608   1 
  -8  -2 -17 11.8651 3.43780   3 
  -8   2 -17 17.9923 3.81077   3 
  -9  -2 -17 33.5705 4.56427   3 
  -9  -2 -17 24.1737 4.25971   1 
  -9   2 -17 27.7717 4.57915   3 
 -10  -2 -17 42.5799 5.16373   3 
 -10  -2 -17 33.4919 5.00611   1 
 -10   2 -17 43.0532 5.33482   3 
 -11  -2 -17 39.5225 5.92981   1 
 -11   2 -17 44.2585 5.99613   3 
 -11   2 -17 44.3167 8.53802   1 
   0  -3 -17 139.180 10.0548   1 
   0  -3 -17 146.766 8.91790   3 
  -1  -3 -17 45.9950 4.49477   1 
  -1  -3 -17 53.6269 5.65459   3 
   1  -3 -17 45.6734 5.00428   1 
   1  -3 -17 48.0277 5.29781   3 
  -1   3 -17 50.9802 7.84313   3 
  -2  -3 -17 17.4888 3.53563   3 
  -2  -3 -17 21.7474 3.73421   1 
  -2   3 -17 24.6616 4.18237   3 
  -4  -3 -17 54.6041 5.33281   1 
  -4  -3 -17 69.1114 6.26892   3 
  -4   3 -17 66.9538 5.71079   3 
  -5  -3 -17 191.540 10.5906   3 
  -5  -3 -17 193.659 10.2593   1 
  -5   3 -17 203.491 10.2064   3 
   5  -3 -17 176.023 9.26229   2 
  -6  -3 -17 5.41161 2.73671   3 
  -6  -3 -17 4.40677 2.85713   1 
   6  -3 -17 -2.2762 1.72939   1 
   6  -3 -17 3.51566 2.27502   2 
  -6   3 -17 3.50842 2.67752   3 
  -7  -3 -17 54.1862 5.73085   3 
  -7  -3 -17 53.7475 5.73595   1 
   7  -3 -17 58.0304 5.10818   2 
  -7   3 -17 59.9719 6.06709   3 
  -8  -3 -17 10.7465 3.68996   1 
  -8  -3 -17 5.21664 2.74411   3 
  -8   3 -17 8.02523 3.27241   3 
  -9  -3 -17 3.11816 2.75887   1 
   9  -3 -17 1.11858 2.04317   2 
  -9   3 -17 2.13364 3.65958   3 
   0   4 -17 -0.3598 1.80851   3 
   0  -4 -17 0.12645 1.74016   1 
  -1  -4 -17 125.805 7.81824   1 
   1  -4 -17 103.685 7.14586   1 
  -2  -4 -17 2.86935 2.69641   1 
   2  -4 -17 2.51700 1.99492   1 
  -3  -4 -17 -2.9598 2.14149   1 
   3  -4 -17 -1.4999 1.35631   1 
  -3   4 -17 5.16517 2.25328   3 
  -4  -4 -17 16.9378 4.27254   1 
  -4   4 -17 22.0821 4.07326   3 
  -5  -4 -17 49.6756 9.54256   1 
  -5  -4 -17 31.5522 5.44668   3 
  -5   4 -17 32.8939 4.93840   3 
   5  -4 -17 28.4948 4.44167   2 
   1   0 -18 39.0092 4.54905   3 
  -1   0 -18 39.1121 3.54702   1 
  -2   0 -18 74.0546 5.09839   1 
   2   0 -18 71.8416 5.74517   3 
  -2   0 -18 71.5255 6.19142   3 
  -3   0 -18 6.35657 2.18967   1 
   3   0 -18 6.84293 2.36011   3 
  -3   0 -18 9.12531 2.51021   3 
  -4   0 -18 77.9423 6.13391   3 
   4   0 -18 78.1067 5.86820   3 
  -4   0 -18 65.6918 5.22542   1 
   5   0 -18 3.30888 2.06140   3 
  -5   0 -18 5.49984 2.52859   3 
  -6   0 -18 150.177 8.84765   3 
  -6   0 -18 151.807 8.29287   1 
  -7   0 -18 21.4839 4.37885   3 
  -7   0 -18 25.6174 4.12637   1 
  -8   0 -18 42.2474 5.12693   3 
  -8   0 -18 37.4377 4.55845   1 
  -9   0 -18 30.4561 4.93421   3 
  -9   0 -18 31.7563 5.13041   1 
 -10   0 -18 68.7718 6.28963   1 
 -10   0 -18 88.5656 7.02391   3 
 -11   0 -18 18.0158 4.17471   3 
 -11   0 -18 7.34266 3.83510   1 
   0  -1 -18 1.12082 1.78740   3 
   0   1 -18 2.22064 1.06925   1 
   0   1 -18 -2.4903 1.62516   3 
  -1  -1 -18 69.7416 5.93174   3 
   1   1 -18 66.9564 5.48878   3 
  -1  -1 -18 71.9720 4.93017   1 
   1  -1 -18 63.8366 5.71884   3 
  -1   1 -18 75.8300 8.41467   3 
  -2  -1 -18 59.8014 4.64470   1 
   2   1 -18 54.2033 4.99125   3 
  -2  -1 -18 50.4459 5.19967   3 
   2  -1 -18 65.6462 5.62981   3 
  -2   1 -18 50.6161 4.19438   1 
  -2   1 -18 57.0127 6.30936   3 
   3   1 -18 34.6711 4.78095   3 
  -3  -1 -18 34.3913 4.52338   3 
  -3  -1 -18 32.9792 3.70651   1 
   3  -1 -18 31.7951 4.38413   3 
  -3   1 -18 31.9751 4.43444   3 
  -3   1 -18 29.5124 3.51688   1 
   4   1 -18 40.5839 4.21659   3 
  -4  -1 -18 63.4749 10.5438   1 
  -4  -1 -18 26.2066 4.11298   3 
  -4   1 -18 44.9486 4.23587   1 
   4  -1 -18 29.0599 4.27951   3 
  -4   1 -18 41.4128 4.83841   3 
  -5  -1 -18 102.537 7.25930   3 
  -5  -1 -18 103.161 6.73773   1 
  -5   1 -18 100.755 7.22485   3 
  -5   1 -18 109.284 7.12547   1 
   6   1 -18 0.07428 1.25356   3 
  -6  -1 -18 3.30233 2.14427   3 
  -6  -1 -18 4.86795 2.35276   1 
  -6   1 -18 3.41141 2.41648   3 
   6  -1 -18 1.11752 1.27253   2 
  -6   1 -18 -0.7101 1.84726   1 
  -7  -1 -18 11.5340 3.43527   1 
  -7  -1 -18 8.81978 2.95462   3 
  -7   1 -18 10.3806 3.17955   1 
  -7   1 -18 13.7174 3.55534   3 
  -8  -1 -18 1.71680 2.15672   3 
  -8  -1 -18 0.06401 1.81710   1 
  -8   1 -18 0.50036 2.26056   3 
  -8   1 -18 2.60877 2.24023   1 
  -9  -1 -18 12.4746 3.70398   1 
  -9  -1 -18 10.7665 2.98443   3 
  -9   1 -18 16.7792 4.32989   1 
  -9   1 -18 13.1839 3.51632   3 
 -10  -1 -18 63.5094 6.04334   3 
 -10  -1 -18 64.5607 6.15447   1 
 -10   1 -18 53.9304 6.64051   3 
 -10   1 -18 45.0170 5.41652   1 
 -11  -1 -18 1.83022 2.58444   1 
 -11   1 -18 0.27586 3.09246   1 
   0  -2 -18 25.7269 4.42970   3 
   0   2 -18 33.6973 6.23496   3 
   0  -2 -18 37.2240 3.74340   1 
  -1  -2 -18 27.6014 4.12547   3 
   1   2 -18 28.1895 3.89842   3 
  -1  -2 -18 26.9210 3.97706   1 
  -1   2 -18 27.9140 5.09709   3 
   1  -2 -18 23.7102 4.06668   3 
  -2  -2 -18 57.3176 5.67731   3 
   2   2 -18 54.4886 4.63507   3 
   2  -2 -18 57.9139 5.66100   3 
  -2   2 -18 57.8260 5.37543   3 
  -3  -2 -18 3.23637 2.12947   3 
  -3  -2 -18 7.45312 2.52662   1 
  -3   2 -18 6.99170 2.68908   3 
   3  -2 -18 13.9918 3.54104   3 
  -3   2 -18 6.51587 2.05775   1 
  -4  -2 -18 47.0229 4.83299   1 
  -4  -2 -18 58.0683 5.80051   3 
  -4   2 -18 63.9469 4.93632   1 
  -4   2 -18 53.4139 5.39759   3 
  -5  -2 -18 7.97333 2.89767   1 
  -5  -2 -18 8.84771 3.04151   3 
  -5   2 -18 7.97682 2.80315   3 
   5  -2 -18 -1.7477 1.70229   1 
  -5   2 -18 4.61001 2.02133   1 
  -6  -2 -18 133.178 8.52629   3 
  -6  -2 -18 132.434 8.12064   1 
  -6   2 -18 130.451 7.77015   1 
  -6   2 -18 131.145 8.34950   3 
  -7  -2 -18 15.8670 3.38262   3 
  -7  -2 -18 21.1799 4.21803   1 
  -7   2 -18 16.6323 3.41781   1 
  -7   2 -18 19.2411 3.85153   3 
  -8  -2 -18 31.6476 4.90854   1 
  -8  -2 -18 29.3103 4.54298   3 
  -8   2 -18 40.5451 5.68722   3 
  -8   2 -18 42.1421 4.78550   1 
  -9  -2 -18 24.1040 6.23489   3 
  -9  -2 -18 26.5464 5.33850   1 
  -9   2 -18 25.4201 4.99130   1 
  -9   2 -18 38.5020 7.89590   3 
   0  -3 -18 1.78462 2.25112   3 
   0  -3 -18 -2.7991 1.55429   1 
  -1  -3 -18 45.4658 5.33072   3 
  -1  -3 -18 44.8572 4.56504   1 
  -2  -3 -18 25.3491 4.12424   1 
  -2  -3 -18 37.1294 4.81167   3 
  -2   3 -18 39.1935 4.68097   3 
  -3  -3 -18 15.8689 3.90312   3 
  -3  -3 -18 23.4571 3.95072   1 
  -3   3 -18 19.2351 3.90716   3 
  -4  -3 -18 29.0674 4.68713   1 
  -4  -3 -18 24.9445 4.39217   3 
  -4   3 -18 27.9377 4.44785   3 
  -5  -3 -18 63.4367 6.32667   3 
  -5  -3 -18 76.1645 6.31825   1 
   5  -3 -18 68.0060 5.62389   2 
  -5   3 -18 60.6609 6.09508   3 
  -6  -3 -18 2.52651 2.51704   1 
  -6  -3 -18 4.95309 3.08191   3 
  -6   3 -18 -1.1305 2.39838   3 
   6  -3 -18 3.72273 2.34851   2 
  -7  -3 -18 1.46901 2.76458   3 
  -7  -3 -18 3.69513 5.16173   1 
   7  -3 -18 1.82425 1.91653   2 
   0   0 -19 -0.9880 1.70151   3 
   0   0 -19 -1.9115 0.97170   1 
   1   0 -19 15.4288 3.33449   3 
  -1   0 -19 14.0965 3.18476   3 
   2   0 -19 16.8228 3.18936   3 
  -2   0 -19 30.4982 4.82022   3 
  -2   0 -19 27.9173 3.41497   1 
  -3   0 -19 32.6876 4.43511   3 
  -3   0 -19 34.4382 4.49193   1 
   3   0 -19 32.1085 4.30094   3 
  -4   0 -19 1.01689 2.38503   3 
   4   0 -19 3.30147 2.27550   3 
  -4   0 -19 1.53447 1.84172   1 
  -5   0 -19 37.7612 4.54135   1 
   5   0 -19 46.7378 4.86711   3 
  -5   0 -19 42.0557 4.98623   3 
  -6   0 -19 1.08790 2.04390   1 
  -6   0 -19 5.18512 2.61314   3 
  -7   0 -19 28.5702 4.53642   3 
  -7   0 -19 33.8330 4.18836   1 
  -8   0 -19 -1.9001 1.90733   1 
  -8   0 -19 -2.0161 1.82544   3 
  -9   0 -19 75.4511 6.57916   1 
  -2  -1 -19 18.1242 3.41302   3 
  -2  -1 -19 21.2334 4.10379   1 
   2   1 -19 21.5006 3.71596   3 
   2  -1 -19 24.4222 4.45327   3 
  -2   1 -19 15.2331 3.47862   3 
  -3  -1 -19 26.8255 4.21352   3 
  -3  -1 -19 29.2062 3.73985   1 
   3   1 -19 36.0822 4.82919   3 
   3  -1 -19 27.6269 4.64934   3 
  -3   1 -19 30.9770 4.46373   3 
  -4  -1 -19 159.388 9.11014   3 
   4   1 -19 141.608 9.83909   3 
  -4  -1 -19 139.328 7.87597   1 
  -4   1 -19 147.946 7.85734   1 
   4  -1 -19 143.823 8.55153   3 
  -4   1 -19 134.425 8.47327   3 
  -5  -1 -19 25.4857 4.07678   1 
  -5  -1 -19 17.8357 4.19547   3 
  -5   1 -19 22.4343 3.94549   1 
  -5   1 -19 15.9679 3.58718   3 
  -6  -1 -19 62.4348 5.54828   1 
  -6  -1 -19 72.5498 6.40023   3 
  -6   1 -19 72.2424 6.34635   3 
  -6   1 -19 75.4695 5.83632   1 
  -7  -1 -19 20.6344 4.18928   1 
  -7  -1 -19 17.1897 3.58332   3 
  -7   1 -19 16.0880 3.67588   1 
  -7   1 -19 18.0204 3.74799   3 
  -8  -1 -19 82.6527 6.87847   1 
  -8  -1 -19 90.2825 7.92972   3 
  -8   1 -19 83.9216 6.75852   1 
  -8   1 -19 100.157 7.62287   3 
  -9  -1 -19 11.7731 3.27879   3 
  -9   1 -19 16.5782 4.11474   3 
  -9   1 -19 14.8955 4.98886   1 
   0   2 -19 -1.1191 1.33216   1 
   0  -2 -19 -0.4629 2.02290   3 
   0   2 -19 -0.9334 1.64680   3 
  -1  -2 -19 15.3552 3.61102   3 
   1   2 -19 13.7668 3.06917   3 
  -1  -2 -19 13.0366 2.72667   1 
  -1   2 -19 10.5467 2.85283   3 
   1  -2 -19 8.56312 2.73298   3 
  -2  -2 -19 17.9716 3.79442   3 
  -2  -2 -19 22.4568 3.81124   1 
  -2   2 -19 32.1600 4.25059   3 
   2  -2 -19 23.9301 4.32258   3 
  -3  -2 -19 25.1888 4.65982   3 
  -3  -2 -19 27.5066 4.20266   1 
  -3   2 -19 26.8525 4.43066   3 
   3  -2 -19 22.8969 4.26669   3 
  -3   2 -19 22.1704 3.46965   1 
  -4  -2 -19 0.87700 1.96966   1 
  -4  -2 -19 2.78558 2.35490   3 
  -4   2 -19 0.64462 2.05311   1 
  -4   2 -19 0.61364 2.10697   3 
  -5  -2 -19 30.8282 4.64624   1 
  -5  -2 -19 38.6570 5.00433   3 
  -5   2 -19 35.8521 4.21995   1 
  -5   2 -19 35.4609 4.86784   3 
  -6  -2 -19 1.04741 2.53481   3 
  -6  -2 -19 1.19370 2.52864   1 
  -6   2 -19 1.32126 2.51357   3 
   6  -2 -19 1.42911 1.85743   2 
  -6   2 -19 4.95944 2.61065   1 
  -7  -2 -19 28.5600 4.91831   1 
  -7   2 -19 24.1638 4.31870   1 
  -7   2 -19 46.1525 8.53730   3 
  -1   3 -19 44.3384 4.80756   3 
  -2  -3 -19 10.9335 3.13975   1 
  -2   3 -19 14.9228 3.48574   3 
   2  -3 -19 2.72039 1.42578   1 
  -3  -3 -19 22.6459 5.74764   3 
  -3  -3 -19 16.8014 3.70314   1 
  -3   3 -19 11.1070 3.33004   3 
  -4  -3 -19 105.818 7.49751   1 
  -4  -3 -19 92.4609 7.59259   3 
  -4   3 -19 93.0963 7.30505   3 
   2   0 -20 141.169 8.48170   3 
  -2   0 -20 137.091 8.68811   3 
   3   0 -20 2.96974 2.37625   3 
  -3   0 -20 5.49086 2.19047   1 
  -3   0 -20 2.46168 2.16249   3 
  -4   0 -20 1.56481 2.19538   1 
   4   0 -20 2.01030 2.08512   3 
  -4   0 -20 0.39387 2.12158   3 
  -5   0 -20 22.7496 4.08378   3 
   5   0 -20 16.4255 3.32903   3 
  -5   0 -20 29.2446 4.50936   1 
  -6   0 -20 182.797 9.87218   1 
  -6   0 -20 191.103 10.8810   3 
  -7   0 -20 13.4235 3.78777   1 
   0  -1 -20 -0.3292 1.30719   1 
   0   1 -20 -0.2785 2.00520   3 
   0   1 -20 -1.4867 1.42975   1 
   0  -1 -20 3.71063 2.45953   3 
  -1  -1 -20 7.12740 2.80436   3 
   1   1 -20 2.85004 2.63542   3 
   1   1 -20 -2.0575 1.70081   1 
  -1  -1 -20 2.04162 1.30737   1 
   1  -1 -20 -0.1842 1.48988   1 
  -1   1 -20 7.36171 2.88505   3 
  -1   1 -20 -0.6892 1.39034   1 
   1  -1 -20 8.50743 2.84240   3 
  -2  -1 -20 1.30825 2.13384   3 
  -2  -1 -20 -1.9533 1.41777   1 
   2   1 -20 0.66139 1.86510   3 
   2  -1 -20 0.15249 2.19110   3 
  -2   1 -20 -2.4218 1.73193   3 
  -2   1 -20 2.10363 1.43634   1 
  -3  -1 -20 7.28766 2.79673   3 
  -3  -1 -20 3.27475 2.27544   1 
   3   1 -20 2.91992 2.25321   3 
   3  -1 -20 3.94312 2.65025   3 
  -3   1 -20 6.20736 2.67602   3 
  -4  -1 -20 -1.2795 1.88362   1 
   4   1 -20 -0.4118 1.71774   3 
  -4  -1 -20 0.30853 2.01166   3 
  -4   1 -20 4.74383 1.87748   1 
   4  -1 -20 3.23610 2.52098   3 
  -4   1 -20 0.94214 2.11698   3 
   5   1 -20 2.96915 1.66042   3 
  -5  -1 -20 1.83930 2.54720   3 
  -5  -1 -20 3.76967 2.27241   1 
  -5   1 -20 -2.0718 2.09379   3 
  -5   1 -20 0.30884 1.94714   1 
  -6  -1 -20 113.868 7.53301   1 
  -6   1 -20 100.440 7.22233   1 
  -6   1 -20 114.038 10.1442   3 
  -7  -1 -20 45.3357 5.43598   3 
  -7  -1 -20 42.2484 5.69046   1 
  -7   1 -20 41.1303 5.14723   1 
  -7   1 -20 35.3047 5.63948   3 
   0   2 -20 46.4724 5.04246   3 
   0  -2 -20 53.1846 5.85951   3 
  -1   2 -20 52.1576 5.43264   3 
  -2  -2 -20 140.186 9.71878   3 
  -2  -2 -20 118.740 7.28879   1 
  -2   2 -20 112.988 7.72778   3 
   2  -2 -20 122.671 8.44885   3 
   3   2 -20 -2.2681 1.58094   3 
  -3  -2 -20 4.32029 2.48478   1 
  -3   2 -20 -1.8799 1.50090   1 
  -3   2 -20 4.24067 2.49800   3 
  -4  -2 -20 -2.7418 1.93569   1 
  -4  -2 -20 1.17385 3.96497   3 
   4   2 -20 1.87895 2.02615   3 
  -4   2 -20 6.41873 2.42540   1 
  -4   2 -20 2.51490 2.44439   3 
  -5  -2 -20 18.2632 4.02812   1 
  -5  -2 -20 18.2504 4.06501   3 
   5   2 -20 1.43266 3.61488   3 
  -5   2 -20 20.8693 4.03724   1 
   0   0 -21 5.07753 2.54951   3 
  -1   0 -21 -2.3920 1.55777   1 
   1   0 -21 5.44458 2.52864   3 
  -1   0 -21 2.57574 2.72239   3 
   2   0 -21 57.2105 5.95250   3 
  -2   0 -21 42.7326 5.55269   3 
   3   0 -21 119.063 8.08023   3 
  -3   0 -21 122.764 9.92484   3 
  -4   0 -21 9.72510 4.62166   3 
  -4   0 -21 3.74326 2.23232   1 
   4   0 -21 3.19798 2.53651   3 
   0   1 -21 115.348 7.77736   3 
   0  -1 -21 117.925 9.70136   3 
  -1  -1 -21 55.4592 8.79455   3 
   1   1 -21 38.2450 5.11682   3 
  -1   1 -21 42.0681 5.29029   3 
   1  -1 -21 34.0422 5.36713   3 
   2   1 -21 6.69041 2.74765   3 
  -2  -1 -21 -1.9047 1.64180   1 
   2  -1 -21 2.15642 2.54514   3 
  -2   1 -21 2.13249 1.77849   1 
  -2   1 -21 4.64026 2.80726   3 
   3   1 -21 12.9840 3.30765   3 
  -3  -1 -21 3.77240 2.41798   1 
  -3  -1 -21 14.5034 3.78280   3 
   3  -1 -21 11.4202 3.82428   3 
  -3   1 -21 11.5377 5.00803   3 
   0   0   0    0.00    0.00   0 
  
 _exptl_absorpt_process_details 
) 
 SADABS 2016/2: Krause, L., Herbst-Irmer, R., Sheldrick G.M. & Stalke D., 
 J. Appl. Cryst. 48 (2015) 3-10 
) 
 _exptl_absorpt_correction_type   multi-scan 
 _exptl_absorpt_correction_T_max  0.7474 
 _exptl_absorpt_correction_T_min  0.5509 
 _exptl_special_details 
) 
 The following wavelength and cell were deduced by SADABS from the 
 direction cosines etc. They are given here for emergency use only: 
 CELL 0.71105   11.945    4.111   12.518   89.990   89.976   89.967 
) 
  
;
_shelx_hkl_checksum              22221
loop_
_space_group_symop_operation_xyz
'x, y, z'
'-x+1/2, -y, z+1/2'
'-x, y+1/2, -z'
'x+1/2, -y+1/2, -z+1/2'
'-x, -y, -z'
'x-1/2, y, -z-1/2'
'x, -y-1/2, z'
'-x-1/2, y-1/2, z-1/2'
loop_
_atom_site_label
_atom_site_type_symbol
_atom_site_fract_x
_atom_site_fract_y
_atom_site_fract_z
_atom_site_U_iso_or_equiv
_atom_site_adp_type
_atom_site_occupancy
_atom_site_site_symmetry_order
_atom_site_calc_flag
_atom_site_refinement_flags_posn
_atom_site_refinement_flags_adp
_atom_site_refinement_flags_occupancy
_atom_site_disorder_assembly
_atom_site_disorder_group
Cu1 Cu 0.75408(2) 0.750000 0.69905(2) 0.01139(5) Uani 1 2 d S T P . .
Cl1 Cl 0.63409(3) 0.750000 0.55196(3) 0.00982(7) Uani 1 2 d S T P . .
K1 K 0.82716(3) 0.250000 0.48236(3) 0.01028(6) Uani 1 2 d S T P . .
K2 K 0.48778(3) 0.250000 0.67425(3) 0.01011(6) Uani 1 2 d S T P . .
Cl2 Cl 0.72323(3) 0.250000 0.79223(3) 0.00917(7) Uani 1 2 d S T P . .
Cl3 Cl 0.94091(3) 0.750000 0.64054(3) 0.00989(7) Uani 1 2 d S T P . .
loop_
_atom_site_aniso_label
_atom_site_aniso_U_11
_atom_site_aniso_U_22
_atom_site_aniso_U_33
_atom_site_aniso_U_23
_atom_site_aniso_U_13
_atom_site_aniso_U_12
Cu1 0.00970(9) 0.01355(10) 0.01091(9) 0.000 -0.00050(7) 0.000
Cl1 0.00847(13) 0.01225(15) 0.00875(14) 0.000 -0.00056(11) 0.000
K1 0.01025(12) 0.01016(13) 0.01042(13) 0.000 -0.00026(10) 0.000
K2 0.00876(12) 0.01120(14) 0.01038(13) 0.000 0.00056(10) 0.000
Cl2 0.00906(13) 0.00903(14) 0.00941(14) 0.000 -0.00029(11) 0.000
Cl3 0.00767(13) 0.01156(15) 0.01043(15) 0.000 0.00035(11) 0.000
loop_
_atom_type_symbol
_atom_type_description
_atom_type_scat_dispersion_real
_atom_type_scat_dispersion_imag
_atom_type_scat_source
Cl Cl 0.1484 0.1585 'International Tables Vol C Tables 4.2.6.8 and 6.1.1.4'
K K 0.2009 0.2494 'International Tables Vol C Tables 4.2.6.8 and 6.1.1.4'
Cu Cu 0.3201 1.2651 'International Tables Vol C Tables 4.2.6.8 and 6.1.1.4'
loop_
_geom_angle_atom_site_label_1
_geom_angle_atom_site_label_2
_geom_angle_atom_site_label_3
_geom_angle
_geom_angle_site_symmetry_1
_geom_angle_site_symmetry_3
_geom_angle_publ_flag
Cl1 Cu1 Cl3 109.736(16) . . ?
Cl1 Cu1 Cl2 106.853(11) . 1_565 ?
Cl3 Cu1 Cl2 107.357(11) . 1_565 ?
Cl1 Cu1 Cl2 106.853(11) . . ?
Cl3 Cu1 Cl2 107.357(11) . . ?
Cl2 Cu1 Cl2 118.521(18) 1_565 . ?
Cl1 Cu1 K1 62.847(10) . . ?
Cl3 Cu1 K1 61.529(10) . . ?
Cl2 Cu1 K1 156.563(11) 1_565 . ?
Cl2 Cu1 K1 84.915(10) . . ?
Cl1 Cu1 K1 62.846(10) . 1_565 ?
Cl3 Cu1 K1 61.530(10) . 1_565 ?
Cl2 Cu1 K1 84.915(9) 1_565 1_565 ?
Cl2 Cu1 K1 156.563(11) . 1_565 ?
K1 Cu1 K1 71.648(9) . 1_565 ?
Cl1 Cu1 K1 126.789(13) . 2_665 ?
Cl3 Cu1 K1 123.475(13) . 2_665 ?
Cl2 Cu1 K1 59.287(9) 1_565 2_665 ?
Cl2 Cu1 K1 59.286(9) . 2_665 ?
K1 Cu1 K1 144.098(5) . 2_665 ?
K1 Cu1 K1 144.098(4) 1_565 2_665 ?
Cl1 Cu1 K2 54.646(9) . . ?
Cl3 Cu1 K2 140.333(8) . . ?
Cl2 Cu1 K2 112.086(12) 1_565 . ?
Cl2 Cu1 K2 56.342(10) . . ?
K1 Cu1 K2 80.106(8) . . ?
K1 Cu1 K2 117.491(9) 1_565 . ?
K1 Cu1 K2 81.826(8) 2_665 . ?
Cl1 Cu1 K2 54.647(9) . 1_565 ?
Cl3 Cu1 K2 140.333(8) . 1_565 ?
Cl2 Cu1 K2 56.343(10) 1_565 1_565 ?
Cl2 Cu1 K2 112.084(12) . 1_565 ?
K1 Cu1 K2 117.492(9) . 1_565 ?
K1 Cu1 K2 80.106(7) 1_565 1_565 ?
K1 Cu1 K2 81.826(8) 2_665 1_565 ?
K2 Cu1 K2 65.522(7) . 1_565 ?
Cl1 Cu1 K2 141.074(8) . 6_667 ?
Cl3 Cu1 K2 55.531(9) . 6_667 ?
Cl2 Cu1 K2 56.388(11) 1_565 6_667 ?
Cl2 Cu1 K2 111.945(12) . 6_667 ?
K1 Cu1 K2 117.054(9) . 6_667 ?
K1 Cu1 K2 79.828(8) 1_565 6_667 ?
K1 Cu1 K2 78.002(8) 2_665 6_667 ?
K2 Cu1 K2 159.826(7) . 6_667 ?
K2 Cu1 K2 110.784(4) 1_565 6_667 ?
Cl1 Cu1 K2 141.074(8) . 6_657 ?
Cl3 Cu1 K2 55.531(9) . 6_657 ?
Cl2 Cu1 K2 111.945(12) 1_565 6_657 ?
Cl2 Cu1 K2 56.389(11) . 6_657 ?
K1 Cu1 K2 79.827(7) . 6_657 ?
K1 Cu1 K2 117.055(9) 1_565 6_657 ?
K1 Cu1 K2 78.002(8) 2_665 6_657 ?
K2 Cu1 K2 110.784(4) . 6_657 ?
K2 Cu1 K2 159.825(7) 1_565 6_657 ?
K2 Cu1 K2 65.289(7) 6_667 6_657 ?
Cu1 Cl1 K2 87.524(12) . . ?
Cu1 Cl1 K2 87.524(12) . 1_565 ?
K2 Cl1 K2 83.037(13) . 1_565 ?
Cu1 Cl1 K2 169.304(18) . 5_666 ?
K2 Cl1 K2 100.438(12) . 5_666 ?
K2 Cl1 K2 100.439(12) 1_565 5_666 ?
Cu1 Cl1 K1 76.867(11) . 1_565 ?
K2 Cl1 K1 164.385(16) . 1_565 ?
K2 Cl1 K1 96.537(7) 1_565 1_565 ?
K2 Cl1 K1 94.998(12) 5_666 1_565 ?
Cu1 Cl1 K1 76.866(11) . . ?
K2 Cl1 K1 96.537(7) . . ?
K2 Cl1 K1 164.384(16) 1_565 . ?
K2 Cl1 K1 94.999(12) 5_666 . ?
K1 Cl1 K1 79.672(12) 1_565 . ?
Cl3 K1 Cl3 81.164(13) 1_545 . ?
Cl3 K1 Cl3 85.884(12) 1_545 5_766 ?
Cl3 K1 Cl3 85.885(12) . 5_766 ?
Cl3 K1 Cl2 97.372(8) 1_545 2_654 ?
Cl3 K1 Cl2 164.558(15) . 2_654 ?
Cl3 K1 Cl2 78.674(11) 5_766 2_654 ?
Cl3 K1 Cl2 164.557(15) 1_545 2_664 ?
Cl3 K1 Cl2 97.372(8) . 2_664 ?
Cl3 K1 Cl2 78.674(11) 5_766 2_664 ?
Cl2 K1 Cl2 79.917(12) 2_654 2_664 ?
Cl3 K1 Cl1 73.865(10) 1_545 1_545 ?
Cl3 K1 Cl1 123.748(15) . 1_545 ?
Cl3 K1 Cl1 139.442(7) 5_766 1_545 ?
Cl2 K1 Cl1 69.830(10) 2_654 1_545 ?
Cl2 K1 Cl1 118.555(14) 2_664 1_545 ?
Cl3 K1 Cl1 123.749(15) 1_545 . ?
Cl3 K1 Cl1 73.864(10) . . ?
Cl3 K1 Cl1 139.442(7) 5_766 . ?
Cl2 K1 Cl1 118.555(14) 2_654 . ?
Cl2 K1 Cl1 69.830(10) 2_664 . ?
Cl1 K1 Cl1 79.671(12) 1_545 . ?
Cl3 K1 Cu1 90.242(11) 1_545 . ?
Cl3 K1 Cu1 40.773(8) . . ?
Cl3 K1 Cu1 126.289(10) 5_766 . ?
Cl2 K1 Cu1 154.521(13) 2_654 . ?
Cl2 K1 Cu1 98.682(7) 2_664 . ?
Cl1 K1 Cu1 89.258(11) 1_545 . ?
Cl1 K1 Cu1 40.287(8) . . ?
Cl3 K1 Cu1 40.775(8) 1_545 1_545 ?
Cl3 K1 Cu1 90.242(11) . 1_545 ?
Cl3 K1 Cu1 126.289(10) 5_766 1_545 ?
Cl2 K1 Cu1 98.682(7) 2_654 1_545 ?
Cl2 K1 Cu1 154.521(13) 2_664 1_545 ?
Cl1 K1 Cu1 40.286(8) 1_545 1_545 ?
Cl1 K1 Cu1 89.258(10) . 1_545 ?
Cu1 K1 Cu1 71.648(9) . 1_545 ?
Cl3 K1 Cu1 135.842(8) 1_545 2_664 ?
Cl3 K1 Cu1 135.842(8) . 2_664 ?
Cl3 K1 Cu1 76.266(10) 5_766 2_664 ?
Cl2 K1 Cu1 39.971(6) 2_654 2_664 ?
Cl2 K1 Cu1 39.971(6) 2_664 2_664 ?
Cl1 K1 Cu1 94.133(10) 1_545 2_664 ?
Cl1 K1 Cu1 94.133(10) . 2_664 ?
Cu1 K1 Cu1 132.755(7) . 2_664 ?
Cu1 K1 Cu1 132.754(7) 1_545 2_664 ?
Cl3 K1 K1 49.419(6) 1_545 1_545 ?
Cl3 K1 K1 130.583(6) . 1_545 ?
Cl3 K1 K1 90.0 5_766 1_545 ?
Cl2 K1 K1 50.041(6) 2_654 1_545 ?
Cl2 K1 K1 129.958(6) 2_664 1_545 ?
Cl1 K1 K1 50.164(6) 1_545 1_545 ?
Cl1 K1 K1 129.835(6) . 1_545 ?
Cu1 K1 K1 125.825(4) . 1_545 ?
Cu1 K1 K1 54.176(4) 1_545 1_545 ?
Cu1 K1 K1 90.0 2_664 1_545 ?
Cl3 K1 K1 130.583(6) 1_545 1_565 ?
Cl3 K1 K1 49.419(6) . 1_565 ?
Cl3 K1 K1 90.0 5_766 1_565 ?
Cl2 K1 K1 129.958(6) 2_654 1_565 ?
Cl2 K1 K1 50.041(6) 2_664 1_565 ?
Cl1 K1 K1 129.835(6) 1_545 1_565 ?
Cl1 K1 K1 50.164(6) . 1_565 ?
Cu1 K1 K1 54.176(4) . 1_565 ?
Cu1 K1 K1 125.825(4) 1_545 1_565 ?
Cu1 K1 K1 90.0 2_664 1_565 ?
K1 K1 K1 180.0 1_545 1_565 ?
Cl1 K2 Cl1 83.038(13) . 1_545 ?
Cl1 K2 Cl3 91.740(8) . 6_557 ?
Cl1 K2 Cl3 153.660(15) 1_545 6_557 ?
Cl1 K2 Cl3 153.660(15) . 6_547 ?
Cl1 K2 Cl3 91.740(8) 1_545 6_547 ?
Cl3 K2 Cl3 81.550(13) 6_557 6_547 ?
Cl1 K2 Cl2 74.372(11) . . ?
Cl1 K2 Cl2 74.372(11) 1_545 . ?
Cl3 K2 Cl2 79.351(11) 6_557 . ?
Cl3 K2 Cl2 79.351(11) 6_547 . ?
Cl1 K2 Cl1 79.562(12) . 5_666 ?
Cl1 K2 Cl1 79.562(12) 1_545 5_666 ?
Cl3 K2 Cl1 124.986(11) 6_557 5_666 ?
Cl3 K2 Cl1 124.986(10) 6_547 5_666 ?
Cl2 K2 Cl1 144.910(15) . 5_666 ?
Cl1 K2 Cl2 128.556(10) . 6_557 ?
Cl1 K2 Cl2 128.556(10) 1_545 6_557 ?
Cl3 K2 Cl2 74.151(11) 6_557 6_557 ?
Cl3 K2 Cl2 74.151(11) 6_547 6_557 ?
Cl2 K2 Cl2 144.737(12) . 6_557 ?
Cl1 K2 Cl2 70.353(12) 5_666 6_557 ?
Cl1 K2 Cu1 85.846(10) . 1_545 ?
Cl1 K2 Cu1 37.829(8) 1_545 1_545 ?
Cl3 K2 Cu1 116.237(12) 6_557 1_545 ?
Cl3 K2 Cu1 74.649(8) 6_547 1_545 ?
Cl2 K2 Cu1 38.832(6) . 1_545 ?
Cl1 K2 Cu1 117.086(10) 5_666 1_545 ?
Cl2 K2 Cu1 144.978(6) 6_557 1_545 ?
Cl1 K2 Cu1 37.829(8) . . ?
Cl1 K2 Cu1 85.846(10) 1_545 . ?
Cl3 K2 Cu1 74.649(8) 6_557 . ?
Cl3 K2 Cu1 116.237(12) 6_547 . ?
Cl2 K2 Cu1 38.831(6) . . ?
Cl1 K2 Cu1 117.086(10) 5_666 . ?
Cl2 K2 Cu1 144.978(6) 6_557 . ?
Cu1 K2 Cu1 65.522(7) 1_545 . ?
Cl1 K2 Cu1 167.193(11) . 6_547 ?
Cl1 K2 Cu1 105.070(6) 1_545 6_547 ?
Cl3 K2 Cu1 85.180(10) 6_557 6_547 ?
Cl3 K2 Cu1 37.945(8) 6_547 6_547 ?
Cl2 K2 Cu1 117.059(10) . 6_547 ?
Cl1 K2 Cu1 92.012(10) 5_666 6_547 ?
Cl2 K2 Cu1 38.691(6) 6_557 6_547 ?
Cu1 K2 Cu1 106.674(5) 1_545 6_547 ?
Cu1 K2 Cu1 150.543(10) . 6_547 ?
Cl1 K2 Cu1 105.070(6) . 6_557 ?
Cl1 K2 Cu1 167.193(11) 1_545 6_557 ?
Cl3 K2 Cu1 37.945(8) 6_557 6_557 ?
Cl3 K2 Cu1 85.180(10) 6_547 6_557 ?
Cl2 K2 Cu1 117.059(10) . 6_557 ?
Cl1 K2 Cu1 92.012(10) 5_666 6_557 ?
Cl2 K2 Cu1 38.691(6) 6_557 6_557 ?
Cu1 K2 Cu1 150.543(10) 1_545 6_557 ?
Cu1 K2 Cu1 106.674(5) . 6_557 ?
Cu1 K2 Cu1 65.288(7) 6_547 6_557 ?
Cl1 K2 K2 48.482(6) . 1_565 ?
Cl1 K2 K2 131.519(6) 1_545 1_565 ?
Cl3 K2 K2 49.225(6) 6_557 1_565 ?
Cl3 K2 K2 130.774(6) 6_547 1_565 ?
Cl2 K2 K2 90.0 . 1_565 ?
Cl1 K2 K2 90.000(1) 5_666 1_565 ?
Cl2 K2 K2 90.0 6_557 1_565 ?
Cu1 K2 K2 122.762(3) 1_545 1_565 ?
Cu1 K2 K2 57.239(4) . 1_565 ?
Cu1 K2 K2 122.643(3) 6_547 1_565 ?
Cu1 K2 K2 57.356(3) 6_557 1_565 ?
Cu1 Cl2 Cu1 118.521(18) 1_545 . ?
Cu1 Cl2 K2 84.826(11) 1_545 . ?
Cu1 Cl2 K2 84.826(11) . . ?
Cu1 Cl2 K2 84.920(11) 1_545 6_657 ?
Cu1 Cl2 K2 84.919(11) . 6_657 ?
K2 Cl2 K2 159.861(14) . 6_657 ?
Cu1 Cl2 K1 160.583(14) 1_545 2_665 ?
Cu1 Cl2 K1 80.742(8) . 2_665 ?
K2 Cl2 K1 100.313(12) . 2_665 ?
K2 Cl2 K1 95.079(12) 6_657 2_665 ?
Cu1 Cl2 K1 80.742(8) 1_545 2_655 ?
Cu1 Cl2 K1 160.583(14) . 2_655 ?
K2 Cl2 K1 100.313(12) . 2_655 ?
K2 Cl2 K1 95.079(12) 6_657 2_655 ?
K1 Cl2 K1 79.918(12) 2_665 2_655 ?
Cu1 Cl3 K2 86.525(12) . 6_667 ?
Cu1 Cl3 K2 86.525(12) . 6_657 ?
K2 Cl3 K2 81.551(13) 6_667 6_657 ?
Cu1 Cl3 K1 77.697(11) . . ?
K2 Cl3 K1 164.198(15) 6_667 . ?
K2 Cl3 K1 96.458(7) 6_657 . ?
Cu1 Cl3 K1 77.697(11) . 1_565 ?
K2 Cl3 K1 96.459(7) 6_667 1_565 ?
K2 Cl3 K1 164.198(15) 6_657 1_565 ?
K1 Cl3 K1 81.163(13) . 1_565 ?
Cu1 Cl3 K1 169.129(18) . 5_766 ?
K2 Cl3 K1 101.647(12) 6_667 5_766 ?
K2 Cl3 K1 101.647(12) 6_657 5_766 ?
K1 Cl3 K1 94.116(12) . 5_766 ?
K1 Cl3 K1 94.116(12) 1_565 5_766 ?
loop_
_geom_bond_atom_site_label_1
_geom_bond_atom_site_label_2
_geom_bond_distance
_geom_bond_site_symmetry_2
_geom_bond_publ_flag
Cu1 Cl1 2.3319(4) . ?
Cu1 Cl3 2.3475(4) . ?
Cu1 Cl2 2.3916(2) 1_565 ?
Cu1 Cl2 2.3916(2) . ?
Cu1 K1 3.5120(3) . ?
Cu1 K1 3.5121(3) 1_565 ?
Cu1 K1 3.6744(4) 2_665 ?
Cu1 K2 3.7987(4) . ?
Cu1 K2 3.7987(4) 1_565 ?
Cu1 K2 3.8107(3) 6_667 ?
Cu1 K2 3.8107(3) 6_657 ?
Cl1 K2 3.1011(4) . ?
Cl1 K2 3.1011(4) 1_565 ?
Cl1 K2 3.1820(5) 5_666 ?
Cl1 K1 3.2089(4) 1_565 ?
Cl1 K1 3.2089(4) . ?
K1 Cl3 3.1598(4) 1_545 ?
K1 Cl3 3.1599(4) . ?
K1 Cl3 3.1670(5) 5_766 ?
K1 Cl2 3.2007(4) 2_654 ?
K1 Cl2 3.2007(4) 2_664 ?
K1 K1 4.1112(2) 1_545 ?
K1 K1 4.11120(19) 1_565 ?
K2 Cl3 3.1475(4) 6_557 ?
K2 Cl3 3.1475(4) 6_547 ?
K2 Cl2 3.1748(5) . ?
K2 Cl2 3.1862(5) 6_557 ?
K2 K2 4.11120(19) 1_565 ?
