#------------------------------------------------------------------------------
#$Date: 2019-11-22 23:35:01 +0200 (Fri, 22 Nov 2019) $
#$Revision: 231578 $
#$URL: file:///home/coder/svn-repositories/cod/cif/4/00/34/4003404.cif $
#------------------------------------------------------------------------------
#
# This file is available in the Crystallography Open Database (COD),
# http://www.crystallography.net/
#
# All data on this site have been placed in the public domain by the
# contributors.
#
data_4003404
loop_
_publ_author_name
'Oswald, Iain W. H.'
'Koegel, Alexandra A.'
'Neilson, James R.'
_publ_section_title
;
 General Synthesis Principles for Ruddlesden--Popper Hybrid Perovskite
 Halides from a Dynamic Equilibrium
;
_journal_issue                   23
_journal_name_full               'Chemistry of Materials'
_journal_page_first              8606
_journal_paper_doi               10.1021/acs.chemmater.8b03817
_journal_volume                  30
_journal_year                    2018
_chemical_formula_sum            'C8 H24 I4 N2 Pb'
_chemical_formula_weight         863.08
_space_group_crystal_system      monoclinic
_space_group_IT_number           14
_space_group_name_Hall           '-P 2ybc'
_space_group_name_H-M_alt        'P 1 21/c 1'
_atom_sites_solution_hydrogens   geom
_audit_creation_method           SHELXL-2017/1
_audit_update_record
;
2018-06-26 # Formatted by publCIF

;
_cell_angle_alpha                90
_cell_angle_beta                 108.245(8)
_cell_angle_gamma                90
_cell_formula_units_Z            2
_cell_length_a                   13.799(3)
_cell_length_b                   8.966(2)
_cell_length_c                   8.758(2)
_cell_measurement_reflns_used    2576
_cell_measurement_temperature    298(2)
_cell_measurement_theta_max      25.37
_cell_measurement_theta_min      3.11
_cell_volume                     1029.1(4)
_computing_cell_refinement       'Bruker SAINT'
_computing_data_collection       'APEX3 (Bruker-AXS, 2015)'
_computing_data_reduction        'Bruker SAINT'
_computing_molecular_graphics    'VESTA (Momma and Izumi, 2017)'
_computing_publication_material  'publCIF (Westrip, 2010)'
_computing_structure_refinement  'SHELXL-2017/1 (Sheldrick, 2017)'
_computing_structure_solution    'SHELXT 2014/5 (Sheldrick, 2014)'
_diffrn_ambient_temperature      298(2)
_diffrn_measured_fraction_theta_full 0.999
_diffrn_measured_fraction_theta_max 0.998
_diffrn_measurement_device_type  'Bruker D8 Quest ECO CMOS'
_diffrn_measurement_method       '\f and \w scans'
_diffrn_radiation_monochromator  'HELIOS optics'
_diffrn_radiation_type           MoK\a
_diffrn_radiation_wavelength     0.71073
_diffrn_reflns_av_R_equivalents  0.0751
_diffrn_reflns_av_unetI/netI     0.0490
_diffrn_reflns_Laue_measured_fraction_full 0.999
_diffrn_reflns_Laue_measured_fraction_max 0.998
_diffrn_reflns_limit_h_max       17
_diffrn_reflns_limit_h_min       -17
_diffrn_reflns_limit_k_max       11
_diffrn_reflns_limit_k_min       -11
_diffrn_reflns_limit_l_max       10
_diffrn_reflns_limit_l_min       -10
_diffrn_reflns_number            12997
_diffrn_reflns_point_group_measured_fraction_full 0.999
_diffrn_reflns_point_group_measured_fraction_max 0.998
_diffrn_reflns_theta_full        25.242
_diffrn_reflns_theta_max         26.510
_diffrn_reflns_theta_min         2.752
_diffrn_source                   'I\ms microfocus tube'
_exptl_absorpt_coefficient_mu    14.180
_exptl_absorpt_correction_T_max  0.7454
_exptl_absorpt_correction_T_min  0.5358
_exptl_absorpt_correction_type   multi-scan
_exptl_absorpt_process_details   SADABS
_exptl_crystal_colour            orange
_exptl_crystal_density_diffrn    2.785
_exptl_crystal_description       Plate
_exptl_crystal_F_000             760
_exptl_crystal_size_max          0.09
_exptl_crystal_size_mid          0.07
_exptl_crystal_size_min          0.01
_refine_diff_density_max         1.621
_refine_diff_density_min         -1.513
_refine_diff_density_rms         0.196
_refine_ls_extinction_method     none
_refine_ls_goodness_of_fit_ref   1.022
_refine_ls_hydrogen_treatment    constr
_refine_ls_matrix_type           full
_refine_ls_number_parameters     46
_refine_ls_number_reflns         2127
_refine_ls_number_restraints     0
_refine_ls_restrained_S_all      1.022
_refine_ls_R_factor_all          0.0697
_refine_ls_R_factor_gt           0.0396
_refine_ls_shift/su_max          0.000
_refine_ls_shift/su_mean         0.000
_refine_ls_structure_factor_coef Fsqd
_refine_ls_weighting_details
'w=1/[\s^2^(Fo^2^)+(0.0432P)^2^+3.8270P] where P=(Fo^2^+2Fc^2^)/3'
_refine_ls_weighting_scheme      calc
_refine_ls_wR_factor_gt          0.0881
_refine_ls_wR_factor_ref         0.0996
_reflns_Friedel_coverage         0.000
_reflns_number_gt                1530
_reflns_number_total             2127
_reflns_threshold_expression     'I > 2\s(I)'
_cod_data_source_file            cm8b03817_si_002.cif
_cod_data_source_block           shelx
_cod_original_sg_symbol_H-M      'P 21/c'
_cod_database_code               4003404
_shelx_shelxl_version_number     2017/1
_shelx_space_group_comment
;
The symmetry employed for this shelxl refinement is uniquely defined
by the following loop, which should always be used as a source of
symmetry information in preference to the above space-group names.
They are only intended as comments.
;
_shelx_res_file
;
TITL jrn040_P21c_a.res in P2(1)/c
    shelx.res
    created by SHELXL-2017/1 at 13:01:38 on 26-Jun-2018
CELL  0.71073  13.7991   8.9665   8.7577   90.000  108.245   90.000
ZERR     2.00   0.0031   0.0021   0.0020    0.000    0.008    0.000
LATT   1
SYMM  - X, 1/2 + Y, 1/2 - Z
SFAC  C    I    N    PB   H
UNIT  16 8 4 2 48
MERG   2
EADP N1 C1 C2 C3 C4
FMAP   2
PLAN   20
ACTA
LIST   4
L.S.  60
TEMP   298.00
WGHT    0.043200    3.827000
FVAR       0.22756
PB1   4    0.500000    1.000000    0.500000    10.50000    0.05573    0.03299 =
         0.03386    0.00009    0.01584    0.00008
I1    2    0.510138    0.800150    0.806687    11.00000    0.07970    0.04487 =
         0.04255    0.01329    0.01773   -0.01032
I2    2    0.258360    0.963012    0.365175    11.00000    0.05581    0.07029 =
         0.06871    0.00726    0.01991    0.00750
N1    3    0.305842    0.575085    0.474257    11.00000    0.09154    0.12363 =
         0.11330   -0.02902    0.02112   -0.00681
AFIX  33
H1A   5    0.372411    0.555633    0.504353    11.00000   -1.50000
H1B   5    0.294726    0.667217    0.434818    11.00000   -1.50000
H1C   5    0.283440    0.567277    0.558808    11.00000   -1.50000
AFIX   0
C1    1    0.251223    0.467875    0.349966    11.00000    0.09154    0.12363 =
         0.11330   -0.02902    0.02112   -0.00681
AFIX  23
H1D   5    0.278857    0.475732    0.261164    11.00000   -1.20000
H1E   5    0.266733    0.368371    0.394361    11.00000   -1.20000
AFIX   0
C2    1    0.141830    0.481442    0.285631    11.00000    0.09154    0.12363 =
         0.11330   -0.02902    0.02112   -0.00681
AFIX  13
H2    5    0.134383    0.569950    0.217258    11.00000   -1.20000
AFIX   0
C3    1    0.099038    0.360012    0.162442    11.00000    0.09154    0.12363 =
         0.11330   -0.02902    0.02112   -0.00681
AFIX  33
H3A   5    0.145519    0.341549    0.102786    11.00000   -1.50000
H3B   5    0.090120    0.270280    0.216332    11.00000   -1.50000
H3C   5    0.034381    0.391328    0.090217    11.00000   -1.50000
AFIX   0
C4    1    0.085401    0.515549    0.373099    11.00000    0.09154    0.12363 =
         0.11330   -0.02902    0.02112   -0.00681
AFIX  33
H4A   5    0.015225    0.518721    0.307214    11.00000   -1.50000
H4B   5    0.093699    0.441873    0.455754    11.00000   -1.50000
H4C   5    0.105235    0.611465    0.421501    11.00000   -1.50000
AFIX   0
HKLF    4




REM  jrn040_P21c_a.res in P2(1)/c
REM R1 =  0.0396 for    1530 Fo > 4sig(Fo)  and  0.0697 for all    2127 data
REM     46 parameters refined using      0 restraints

END

WGHT      0.0434      3.1829

REM Highest difference peak  1.621,  deepest hole -1.513,  1-sigma level  0.196
Q1    1   0.4815  0.6973  0.6896  11.00000  0.05    1.34
Q2    1   0.2619  1.0489  0.3606  11.00000  0.05    1.07
Q3    1   0.2588  0.9592  0.4607  11.00000  0.05    0.94
Q4    1   0.0762  0.6066  0.2763  11.00000  0.05    0.81
Q5    1   0.5079  0.7986  0.8878  11.00000  0.05    0.71
Q6    1   0.5032  1.0910  0.5013  11.00000  0.05    0.70
Q7    1   0.1447  0.4393  0.3758  11.00000  0.05    0.67
Q8    1   0.4348  0.9832  0.4776  11.00000  0.05    0.67
Q9    1   0.5027  1.0052  0.3992  11.00000  0.05    0.66
Q10   1   0.5811  0.7982  0.8176  11.00000  0.05    0.65
Q11   1   0.4487  0.9124  0.3751  11.00000  0.05    0.62
Q12   1   0.2663  0.6859  0.1759  11.00000  0.05    0.62
Q13   1   0.1025  0.0966  0.2578  11.00000  0.05    0.62
Q14   1   0.5116  1.0712  0.4412  11.00000  0.05    0.60
Q15   1   0.2803  0.7470  0.6554  11.00000  0.05    0.59
Q16   1   0.4737  0.7158  0.8386  11.00000  0.05    0.57
Q17   1   0.3064  0.9526  0.3797  11.00000  0.05    0.57
Q18   1   0.2078  0.4152  0.3001  11.00000  0.05    0.56
Q19   1   0.0643  0.3873  0.3496  11.00000  0.05    0.53
Q20   1   0.0784  0.7962  0.2887  11.00000  0.05    0.52
;
_shelx_res_checksum              89371
_shelx_hkl_file
;
   0   0  -1    7.30    3.70
   0   0   1   -3.80    3.60
   0   0  -1    5.50    1.90
   0   0  -2   40.50    7.10
   0   0   2   47.00    8.00
   0   0  -2   52.29    6.90
   0   0   2   52.49    4.80
   0   0   3    1.00    8.30
   0   0  -3   -8.60    4.80
   0   0  -3    5.80    6.90
   0   0  -3    3.10    7.60
   0   0   3    9.40    4.20
   0   0  -4   24.70    6.00
   0   0   4   25.30    5.20
   0   0   4   13.60    9.80
   0   0  -4   16.20    9.50
   0   0  -4   20.60    9.80
   0   0  -5    1.20    6.00
   0   0   5   -6.70    5.10
   0   0  -5   -3.80    9.90
   0   0  -5   -9.30    8.50
   0   0   6 1227.38   67.19
   0   0  -6 1111.89   70.69
   0   0  -6 1278.37   69.49
   0   0  -6 1249.07   67.89
   0   0   6 1279.87   71.99
   0   0   7    6.90   14.60
   0   0   7    3.40    7.40
   0   0  -7   14.00    8.30
   0   0  -7   -6.40   11.70
   0   0   8   37.30   18.10
   0   0   8   88.39   10.90
   0   0  -8   49.50   10.90
   0   0  -8   42.60   14.90
   0   0  -9   -0.90   15.90
   0   0  -9   20.50   11.30
   0   0 -10  143.29   16.80
   0   0 -10   95.29   22.00
   0   1   0    2.80    3.90
   0  -1   0   -6.90    1.90
   0  -1   0   -2.40    3.90
   0  -1   0    2.30    3.40
   0   1  -1 2183.58  117.39
   0   1  -1 2331.17  116.69
   0   1   1 2167.08  117.69
   0   1  -1 2225.18  117.39
   0   1   1 2342.27  117.69
   0  -1  -1 2185.78  117.19
   0  -1  -1 2373.46  117.59
   0  -1  -1 2065.99  117.59
   0  -1   1 2228.88  116.99
   0  -1  -1 2129.09  116.69
   0  -1   1 2010.40  118.09
   0   1   2 1407.66   74.59
   0   1  -2 1397.76   73.99
   0   1   2 1334.17   74.19
   0  -1   2 1403.56   73.29
   0  -1  -2 1322.27   73.49
   0  -1  -2 1223.08   74.09
   0  -1  -2 1477.35   72.79
   0  -1   2 1331.67   72.79
   0  -1   2 1390.46   74.49
   0   1   3  171.58   17.50
   0   1   3  183.18   16.60
   0   1  -3  170.18   17.70
   0  -1  -3  162.58   13.40
   0  -1   3  183.88   16.10
   0  -1  -3  137.89   16.10
   0  -1   3  169.68   13.00
   0   1   4  811.72   49.00
   0   1  -4  863.41   49.40
   0  -1  -4  829.72   48.60
   0  -1   4  843.62   49.50
   0  -1   4  828.02   46.30
   0  -1  -4  842.52   46.70
   0   1  -5   18.10    6.10
   0   1  -5   37.10   12.30
   0  -1   5   25.30   11.30
   0  -1  -5   10.80    6.70
   0  -1   5   20.20    6.30
   0  -1  -5   26.70   10.20
   0   1   6  177.08   18.50
   0   1  -6  156.88   15.30
   0   1  -6  205.18   19.10
   0   1  -6  178.38   15.20
   0  -1   6  175.58   15.50
   0  -1  -6  175.58   17.40
   0  -1  -6  169.98   16.10
   0   1  -7  690.63   41.80
   0   1   7  671.03   46.30
   0   1  -7  668.93   39.00
   0  -1  -7  712.13   44.20
   0  -1  -7  559.24   41.80
   0  -1   7  653.43   38.90
   0   1  -8   12.10   12.80
   0   1   8   13.40   17.00
   0   1  -8    8.20    8.60
   0  -1  -8   -0.40   15.00
   0  -1  -8   14.70   10.10
   0  -1   8   -1.80    8.90
   0   1   9  123.39   23.30
   0   1  -9  122.49   18.10
   0   1  -9  137.29   16.70
   0  -1   9  104.79   14.50
   0  -1  -9  115.89   15.90
   0  -1  -9  124.99   20.60
   0   1 -10  -11.80   17.90
   0   1 -10    4.90   12.10
   0   1  10    1.80   22.00
   0  -1 -10   -9.20   13.20
   0  -1  10    3.70   12.80
   0  -1 -10  -29.90   19.60
   0  -1 -10   11.50   10.10
   0   2   0 2666.13  143.59
   0   2   0 2673.03  144.09
   0  -2   0 2735.63  142.89
   0  -2   0 2611.64  144.09
   0  -2   0 2763.52  142.99
   0   2   1   13.10    7.60
   0   2  -1   19.50    8.60
   0   2  -1   16.80    6.90
   0   2   1   30.90    9.40
   0  -2   1   24.00    5.30
   0  -2   1   25.30    4.40
   0  -2  -1   16.10    8.80
   0  -2  -1   25.80    6.20
   0  -2  -1   30.40    4.20
   0  -2   1   16.50    8.10
   0   2   2 2515.95  131.69
   0   2   2 2497.85  131.99
   0   2  -2 2528.35  130.99
   0   2  -2 2450.15  131.19
   0  -2  -2 2396.66  130.59
   0  -2  -2 2107.89  132.69
   0  -2   2 2520.15  131.29
   0  -2   2 2500.35  130.39
   0  -2   2 2482.35  129.49
   0  -2  -2 2420.36  129.59
   0   2  -3  230.58   20.00
   0   2   3  229.08   20.50
   0   2   3  241.48   21.30
   0   2  -3  235.28   18.60
   0  -2  -3  258.37   14.60
   0  -2   3  216.48   22.80
   0  -2   3  243.28   16.90
   0  -2  -3  242.38   20.80
   0  -2   3  228.78   14.60
   0  -2  -3  245.88   17.80
   0   2   4    4.50   10.40
   0   2   4   -5.80    9.20
   0   2  -4   18.40    8.40
   0  -2   4    2.40   15.50
   0  -2  -4    3.90    9.60
   0  -2  -4    1.80    5.30
   0  -2   4   10.90    6.20
   0  -2  -4    2.60    6.90
   0   2   5   27.40   13.20
   0   2  -5   24.90   10.00
   0  -2   5   19.60    9.40
   0  -2   5   15.90    7.00
   0  -2  -5   33.60    6.00
   0  -2  -5   19.00    8.10
   0  -2  -5   25.10   11.30
   0   2  -6  192.58   21.80
   0   2  -6  204.58   15.30
   0   2   6  211.28   20.30
   0  -2  -6  197.78   19.30
   0  -2   6  194.88   17.80
   0  -2  -6  198.18   15.50
   0   2  -7   59.09   21.20
   0   2  -7   61.89   12.70
   0   2  -7   96.99   10.20
   0   2   7  103.09   18.30
   0  -2  -7   72.09   12.20
   0  -2   7   75.49   11.00
   0  -2  -7   87.39   16.70
   0  -2  -7   99.49    9.50
   0   2  -8  711.93   44.00
   0   2   8  655.23   50.29
   0   2  -8  683.53   40.50
   0  -2   8  651.43   42.10
   0  -2  -8  703.43   40.30
   0  -2  -8  721.73   49.10
   0  -2  -8  668.23   43.60
   0   2  -9   46.60   11.20
   0   2  -9   36.50   14.90
   0   2   9   48.60   21.20
   0  -2  -9   60.19   19.70
   0  -2  -9   37.50   14.20
   0  -2  -9   60.39   11.10
   0  -2   9   43.50   12.70
   0   2  10  -25.80   21.80
   0   2 -10    2.80   11.30
   0   2 -10   29.00   17.10
   0  -2  10   17.40   13.70
   0  -2 -10   -7.30   14.50
   0  -2 -10  -18.30    9.90
   0  -2 -10   16.70   21.80
   0   3   0   -8.60    9.90
   0   3   0   -1.20    8.40
   0  -3   0    2.60    5.20
   0  -3   0   -0.40    9.90
   0  -3   0    0.30    6.00
   0   3  -1 3134.89  155.48
   0   3  -1 2833.32  154.68
   0   3   1 2888.21  154.78
   0   3   1 3058.79  155.88
   0  -3  -1 2876.01  153.58
   0  -3  -1 2823.02  155.78
   0  -3  -1 2916.91  154.28
   0  -3   1 2840.12  153.88
   0  -3   1 2531.05  155.38
   0  -3   1 2984.40  153.58
   0   3  -2   70.19   11.20
   0   3   2   64.89   12.20
   0   3   2   65.99   10.40
   0   3  -2   44.90    9.30
   0  -3  -2   57.19    5.80
   0  -3   2   61.79    6.80
   0  -3  -2   52.99    8.00
   0  -3   2   57.99    7.40
   0  -3  -2   43.10   11.40
   0  -3   2   46.80   10.80
   0   3   3   50.49   14.10
   0   3   3  109.29   14.20
   0   3  -3   79.39   11.60
   0   3  -3   76.89   11.10
   0  -3  -3   69.99    9.50
   0  -3  -3   77.69   13.20
   0  -3   3   79.39    7.80
   0  -3  -3   83.19    7.70
   0  -3   3   77.19   11.70
   0  -3   3   83.79    8.80
   0   3   4  118.49   15.00
   0   3  -4  145.49   13.50
   0   3  -4  145.39   16.70
   0  -3   4  126.99   16.50
   0  -3  -4  121.19    9.90
   0  -3   4  140.39   10.00
   0  -3  -4  151.18   16.10
   0  -3   4  139.69   11.80
   0  -3  -4  117.19   12.00
   0   3  -5  802.72   49.00
   0   3   5  805.62   50.49
   0   3  -5  830.62   47.70
   0  -3  -5  841.02   50.89
   0  -3   5  762.12   46.10
   0  -3  -5  806.62   44.00
   0  -3   5  800.12   48.50
   0   3  -6  257.27   16.80
   0   3   6  243.28   23.10
   0   3  -6  262.07   24.70
   0   3  -6  257.77   26.60
   0  -3   6  246.28   24.10
   0  -3   6  257.97   21.10
   0  -3  -6  245.78   16.60
   0  -3  -6  290.17   29.30
   0  -3  -6  244.68   22.30
   0   3  -7  188.88   15.30
   0   3  -7  133.29   20.00
   0   3   7  223.58   22.50
   0  -3   7  170.68   15.80
   0  -3  -7  178.78   14.30
   0  -3  -7  172.48   21.90
   0  -3  -7  178.18   17.50
   0   3   8   53.89   19.20
   0   3  -8   15.60   13.20
   0   3  -8   -3.60   15.50
   0   3  -8   29.10    8.60
   0  -3   8   46.70   11.70
   0  -3  -8   55.79   19.40
   0  -3  -8   61.39   14.40
   0  -3  -8   32.40    7.30
   0   3   9   49.40   22.40
   0   3  -9   95.59   16.20
   0   3  -9   66.69   10.70
   0   3  -9   31.80   19.40
   0  -3  -9   86.39   16.40
   0  -3  -9   69.59   22.70
   0  -3  -9   65.99    8.80
   0  -3   9   38.80   13.20
   0   3 -10   -9.30   16.10
   0   3  10   -2.60   22.90
   0   3 -10   37.50   20.50
   0  -3 -10   41.90   17.20
   0  -3 -10  -13.40   21.90
   0  -3  10  -10.20   13.80
   0   4   0 3016.40  154.38
   0   4   0 2772.82  153.18
   0  -4   0 2735.93  154.38
   0  -4   0 2822.42  151.98
   0  -4   0 2895.21  152.28
   0   4  -1 2165.68  110.49
   0   4  -1 1946.31  109.29
   0   4   1 1952.40  109.29
   0  -4  -1 1959.40  110.79
   0  -4  -1 1975.90  107.59
   0  -4   1 2024.10  108.19
   0  -4  -1 2005.20  108.49
   0  -4   1 1968.60  110.29
   0  -4   1 2083.59  107.69
   0   4   2  203.48   20.10
   0   4  -2  193.78   22.20
   0   4  -2  180.88   19.60
   0  -4  -2  165.98   17.70
   0  -4   2  206.38   21.60
   0  -4   2  195.78   15.70
   0  -4  -2  201.28   14.00
   0  -4   2  217.38   14.60
   0  -4  -2  184.48   17.40
   0   4  -3    6.60   15.00
   0   4   3   -4.30   10.60
   0   4  -3    3.00   10.90
   0  -4   3   14.60    5.00
   0  -4   3    5.60    6.90
   0  -4  -3   -8.20   11.50
   0  -4  -3    2.10    7.50
   0  -4  -3   -3.30    4.50
   0  -4   3    1.80   10.70
   0   4  -4  196.48   16.50
   0   4  -4  126.19   15.00
   0  -4   4  131.69   10.50
   0  -4   4  148.99   16.10
   0  -4  -4  152.58   11.10
   0  -4  -4  122.69   17.30
   0  -4   4  129.29   12.40
   0   4   5  194.38   21.40
   0   4  -5  234.48   25.30
   0   4  -5  252.97   24.10
   0  -4   5  228.78   23.00
   0  -4  -5  267.97   29.10
   0  -4  -5  255.87   15.40
   0  -4   5  205.68   19.80
   0  -4  -5  229.88   21.50
   0   4   6  235.78   24.60
   0   4  -6  280.97   28.70
   0  -4   6  277.07   27.20
   0  -4   6  291.67   22.40
   0  -4  -6  261.67   25.90
   0  -4  -6  263.67   24.60
   0  -4  -6  263.87   17.30
   0   4  -7   52.19   16.50
   0   4   7   23.60   17.70
   0  -4  -7   71.59    7.30
   0  -4   7   28.50   14.00
   0  -4  -7   48.00   13.80
   0  -4   7   52.29   11.70
   0  -4  -7   64.79   20.10
   0   4  -8  121.39   21.00
   0   4   8  124.69   22.80
   0  -4  -8  138.29   10.70
   0  -4   8  121.39   15.50
   0  -4  -8  147.29   24.60
   0  -4  -8  129.79   18.30
   0   4  -9   -8.30   15.10
   0   4   9   32.20   22.40
   0   4  -9   -5.70   19.20
   0  -4  -9   25.80   22.30
   0  -4  -9   45.10   16.10
   0  -4  -9   12.30    7.90
   0  -4   9   10.80   13.10
   0   5   0   10.30   10.30
   0  -5   0  -16.90   11.90
   0  -5   0    4.30    7.30
   0  -5   0   -5.70    6.50
   0   5   1  378.46   28.50
   0   5  -1  368.96   28.20
   0  -5  -1  395.36   32.80
   0  -5   1  412.86   25.40
   0  -5  -1  367.06   23.80
   0  -5   1  349.37   31.30
   0  -5  -1  414.86   26.00
   0  -5   1  401.56   24.70
   0   5  -2  219.58   22.40
   0   5   2  219.48   22.40
   0  -5   2  230.38   18.60
   0  -5  -2  223.78   22.00
   0  -5   2  246.98   17.00
   0  -5   2  224.78   24.30
   0  -5  -2  246.68   20.10
   0  -5  -2  234.08   16.50
   0   5   3 1171.88   71.89
   0   5  -3 1247.68   69.19
   0  -5   3 1242.88   65.89
   0  -5   3 1234.18   69.79
   0  -5   3 1128.69   68.99
   0  -5  -3  947.61   73.19
   0  -5  -3 1255.27   71.49
   0  -5  -3 1282.27   65.39
   0   5  -4    5.60   11.60
   0   5   4   12.00   15.00
   0  -5   4    9.60    5.10
   0  -5  -4   12.00   10.20
   0  -5   4   -5.40    8.10
   0  -5  -4    4.20    5.50
   0  -5  -4   16.80   15.20
   0  -5   4    5.00   12.70
   0   5  -5   20.60   13.70
   0   5   5   -2.50   14.10
   0  -5  -5   13.50   11.40
   0  -5   5    3.20    9.50
   0  -5  -5    6.80    5.60
   0  -5  -5   27.30   17.80
   0  -5   5   34.50   15.60
   0   5   6   49.80   17.50
   0   5  -6    2.10   14.50
   0  -5   6   23.20   10.70
   0  -5   6   31.80   16.40
   0  -5  -6   67.59   20.40
   0  -5  -6   26.30    6.60
   0  -5  -6   18.30   12.60
   0   5   7  411.16   38.20
   0   5  -7  384.16   37.00
   0  -5   7  338.37   34.60
   0  -5  -7  394.06   23.70
   0  -5   7  376.06   29.90
   0  -5  -7  421.36   33.10
   0  -5  -7  369.76   35.20
   0   5  -8    8.10   18.00
   0   5   8  -23.90   19.50
   0  -5  -8   19.00   22.00
   0  -5   8   -7.60   12.00
   0  -5   8  -16.80   15.70
   0  -5  -8    5.50   15.00
   0  -5  -8    7.30    6.40
   0   5  -9   40.30   20.60
   0   5   9   74.79   24.50
   0  -5   9   46.10   15.00
   0  -5  -9   53.39   18.50
   0   6   0  768.12   49.60
   0  -6   0  824.32   53.29
   0  -6   0  853.31   47.50
   0  -6   0  817.62   46.70
   0   6  -1   46.00   12.50
   0   6   1   61.79   12.70
   0  -6   1   25.40    8.50
   0  -6  -1   28.60    9.50
   0  -6  -1   51.99   16.30
   0  -6   1   41.80   14.70
   0  -6  -1   29.90    7.80
   0   6   2  153.18   17.00
   0   6  -2  173.78   17.50
   0  -6  -2  148.89   20.60
   0  -6   2  184.28   15.80
   0  -6   2  162.38   19.10
   0  -6  -2  182.88   15.00
   0  -6  -2  185.98   16.20
   0  -6   2  159.58   14.70
   0   6  -3  273.27   25.90
   0   6   3  242.68   21.50
   0  -6  -3  254.47   17.70
   0  -6  -3  208.18   24.50
   0  -6   3  239.08   21.30
   0  -6   3  182.88   19.20
   0  -6  -3  272.07   22.90
   0  -6   3  318.77   28.70
   0   6   4  115.79   19.50
   0   6  -4  103.19   17.10
   0  -6   4  145.29   18.50
   0  -6  -4  120.99   21.00
   0  -6   4  116.69   12.10
   0  -6   4  102.99   13.60
   0  -6  -4  110.29   15.10
   0  -6  -4  120.39   10.50
   0   6   5   49.60   17.20
   0   6  -5   41.10   15.70
   0  -6  -5   46.20   13.00
   0  -6   5   39.00   11.50
   0  -6  -5   24.80    7.40
   0  -6  -5   47.50   21.00
   0  -6   5   14.80   16.90
   0   6  -6  177.68   23.30
   0   6   6  167.28   24.10
   0  -6  -6  215.08   28.40
   0  -6   6  277.97   28.60
   0  -6  -6  210.38   16.60
   0  -6   6  206.38   19.10
   0  -6  -6  244.78   22.60
   0   6   7   51.49   21.10
   0   6  -7   78.99   20.10
   0  -6  -7   42.90   27.80
   0  -6   7   82.69   19.80
   0  -6   7   82.29   14.30
   0  -6  -7   78.09   17.00
   0  -6  -7   56.59    8.40
   0   6  -8   37.70   20.20
   0   6   8   46.00   22.20
   0  -6   8   41.10   19.50
   0  -6  -8   20.30   16.70
   0  -6   8   36.20   14.50
   0   7   0  -17.20   12.20
   0  -7   0   -3.10    8.40
   0  -7   0  -11.30   16.20
   0  -7   0   -3.40    9.90
   0   7  -1  432.86   34.80
   0   7   1  412.46   34.60
   0  -7  -1  439.66   40.30
   0  -7   1  489.05   39.70
   0  -7  -1  422.46   31.10
   0  -7  -1  461.75   29.70
   0  -7   1  461.75   30.40
   0  -7   1  479.55   30.10
   0   7  -2  337.77   30.00
   0   7   2  306.47   29.80
   0  -7   2  313.97   25.10
   0  -7  -2  328.77   26.30
   0  -7  -2  324.57   22.80
   0  -7   2  316.67   23.50
   0  -7   2  279.67   27.80
   0  -7  -2  342.07   37.70
   0   7   3   29.10   14.60
   0   7  -3   38.40   15.60
   0  -7  -3   30.90    8.40
   0  -7   3   45.40   10.20
   0  -7   3   21.60   16.90
   0  -7  -3   28.80   12.50
   0  -7  -3   22.00   19.20
   0  -7   3   39.00   11.50
   0   7  -4   75.59   17.50
   0   7   4   90.89   18.60
   0  -7  -4   89.09   23.30
   0  -7  -4  100.09   10.30
   0  -7   4   90.79   13.70
   0  -7  -4   80.99   14.80
   0  -7   4   85.79   19.50
   0  -7   4   85.79   10.20
   0   7  -5  417.76   38.20
   0   7   5  357.86   33.70
   0  -7   5  411.46   31.50
   0  -7  -5  406.56   33.80
   0  -7   5  406.26   40.00
   0  -7  -5  358.86   36.60
   0  -7  -5  423.56   26.10
   0   7   6    9.10   18.20
   0   7  -6  -29.30   16.60
   0  -7  -6   13.50   14.90
   0  -7   6  -22.80   20.90
   0  -7  -6    2.00    7.70
   0  -7   6   13.60   12.40
   0   7  -7   42.00   20.50
   0   7   7    3.00   20.30
   0  -7   7   11.30   13.00
   0  -7   7    8.00   21.80
   0  -7  -7    7.80   16.40
   0  -7  -7  -10.10    7.50
   0   7   8    6.50   21.40
   0   7  -8  -14.20   22.20
   0  -7   8   -3.90   20.80
   0  -7   8  -11.90   14.40
   0  -7  -8   24.90   18.00
   0   8   0    2.30   14.60
   0  -8   0  -10.10    9.50
   0  -8   0   20.20   12.00
   0  -8   0   -4.40   19.90
   0   8  -1  205.48   22.30
   0   8   1  200.08   22.40
   0  -8  -1  228.98   21.30
   0  -8  -1  235.28   24.30
   0  -8  -1  231.28   27.30
   0  -8   1  196.98   21.60
   0  -8   1  233.68   22.30
   0  -8   1  218.38   27.00
   0   8   2  382.36   35.90
   0   8  -2  363.86   36.50
   0  -8   2  428.46   41.80
   0  -8  -2  466.55   28.70
   0  -8  -2  380.16   31.50
   0  -8   2  409.96   29.30
   0  -8   2  444.76   30.70
   0  -8  -2  345.17   35.70
   0   8  -3   10.30   16.50
   0   8   3   14.70   15.60
   0  -8  -3    6.30    9.00
   0  -8   3   10.80   11.80
   0  -8  -3   -0.70   12.40
   0  -8  -3  -15.30   20.50
   0  -8   3   26.90   19.50
   0  -8   3  -12.90   10.30
   0   8  -4  137.19   21.90
   0   8   4  141.19   21.90
   0  -8  -4  126.79   18.60
   0  -8  -4  161.08   14.30
   0  -8   4  170.38   14.50
   0  -8   4  140.69   24.50
   0  -8   4  142.19   17.50
   0   8   5   -5.10   20.50
   0   8  -5   13.60   18.80
   0  -8   5  -25.00   12.00
   0  -8   5   22.60   21.10
   0  -8  -5    9.00   15.20
   0   8  -6   10.00   20.00
   0   8   6   -1.30   19.50
   0  -8  -6   -3.40   16.00
   0  -8   6   24.30   14.40
   0  -8   6   49.30   24.30
   0  -8  -6    9.10    9.30
   0   8   7  -13.00   21.70
   0   8  -7   32.80   21.70
   0  -8   7  -18.30   14.30
   0  -8  -7   -4.20    9.50
   0  -8  -7   34.90   18.60
   0  -8   7    8.40   28.80
   0   9   0   19.00   16.60
   0  -9   0    6.20   13.30
   0  -9   0   -4.50   11.00
   0  -9   0   -9.10   26.10
   0   9   1   64.89   18.70
   0   9  -1   64.09   18.60
   0  -9   1   67.29   14.40
   0  -9   1   81.89   14.00
   0  -9   1   67.49   24.00
   0  -9  -1   82.09   13.00
   0  -9  -1   66.29   15.70
   0   9   2    7.60   16.90
   0   9  -2  -17.20   16.40
   0  -9  -2   -4.80   10.50
   0  -9   2  -14.50   21.00
   0  -9   2    0.30   11.70
   0  -9  -2    5.50   14.00
   0  -9   2   -4.00   11.80
   0   9  -3  195.88   25.00
   0   9   3  174.98   23.70
   0  -9  -3  237.58   22.10
   0  -9   3  229.18   28.70
   0  -9   3  200.08   19.00
   0  -9  -3  159.78   20.50
   0  -9   3  201.38   20.20
   0   9   4   38.00   20.10
   0   9  -4   13.60   20.30
   0  -9   4   55.39   15.40
   0  -9   4   25.80   22.80
   0  -9  -4   47.80   17.10
   0  -9  -4   37.10   11.20
   0  -9   4   55.09   12.40
   0   9  -5   43.70   21.70
   0   9   5   -2.70   23.60
   0  -9   5   62.39   23.80
   0  -9  -5   25.50   11.10
   0  -9  -5   19.30   17.00
   0  -9   5   26.50   15.50
   0   9  -6   28.40   22.90
   0   9   6   23.20   22.70
   0  -9   6   34.50   16.20
   0  -9  -6   47.80   11.70
   0  -9  -6   37.70   20.40
   0  -9   6    3.50   25.20
   0  10   0  175.38   24.80
   0 -10   0  181.58   19.40
   0 -10   0  219.58   21.40
   0  10  -1   16.70   18.70
   0  10   1   14.50   19.00
   0 -10   1  -17.70   12.70
   0 -10  -1    6.10   15.30
   0 -10  -1   22.70   12.40
   0 -10   1  -26.60   13.70
   0  10  -2  -29.90   18.60
   0  10   2   -1.00   18.90
   0 -10  -2   -4.60   11.80
   0 -10   2   11.90   14.60
   0 -10  -2   -4.80   15.50
   0 -10   2    7.20   13.90
   0  10  -3   27.20   20.90
   0  10   3   15.60   19.10
   0 -10   3    9.80   14.90
   0 -10   3   11.70   14.80
   0 -10  -3    2.30   17.40
   0 -10  -3   -9.40   11.90
   0  10   4  126.09   25.90
   0  10  -4   97.49   24.40
   0 -10   4  137.69   16.70
   0 -10  -4  123.39   15.40
   0 -10   4  116.89   19.50
   0 -10  -4   77.59   20.80
   0  11   0   25.30   21.40
   0 -11   0    8.70   17.00
   0 -11   0   -4.20   14.50
   0  11   1   35.60   22.20
   0  11  -1   28.80   21.40
   0 -11  -1   -0.60   17.30
   0 -11   1   29.00   16.90
   0 -11   1   37.00   15.80
   0 -11  -1   38.30   15.10
   0  11  -2  -14.60   21.40
   0  11   2   38.90   22.00
   0 -11  -2   21.70   18.90
   0 -11  -2   21.90   14.30
   0 -11   2   27.30   17.30
   0 -11   2   15.50   16.20
   1   0 -10  343.07   39.20
   1   0 -10  373.86   30.10
   1   0  -9    7.90   10.60
   1   0  -9   18.70   16.60
   1   0  -8   32.50   14.60
  -1   0   8    4.50   16.00
   1   0  -8   25.50   10.00
  -1   0   7    4.60    7.50
  -1   0   7   10.60   13.80
   1   0  -7   -7.80    7.70
   1   0  -7    2.40   11.70
  -1   0   6  191.98   19.30
   1   0  -6  243.28   22.00
   1   0  -6  224.78   17.50
  -1   0   6  227.98   16.80
  -1   0   5   -2.70   10.00
  -1   0   5   -0.60    5.50
   1   0  -5    4.60    8.90
   1   0  -5   -3.30   10.60
   1   0  -4  681.63   39.80
   1   0  -4  700.83   41.30
  -1   0   4  688.23   40.80
  -1   0   4  643.04   37.50
  -1   0   3    2.90    4.70
  -1   0   3   -0.60    6.00
  -1   0   3  -10.20    8.00
   1   0  -3   -4.40    8.50
  -1   0   2 2938.31  155.78
  -1   0   2 2873.11  155.08
   1   0  -2 3002.20  156.18
  -1   0   2 2887.61  155.38
  -1   0   1   -6.00    4.00
  -1   0   1   -3.60    2.90
   1   0  -1   -0.60    4.50
   1   0  -1    0.50    2.80
  -1   0  -1    1.40    5.60
   1   0   1    4.40    5.30
  -1   0  -1   -2.50    2.80
  -1   0  -1    2.30    2.20
  -1   0  -2 1375.26   73.09
  -1   0  -2 1304.77   73.19
   1   0   2 1431.76   72.79
   1   0   2 1349.07   74.69
   1   0   3    0.80    4.00
  -1   0  -3   -4.70    4.40
   1   0   3  -10.10    8.60
  -1   0  -3   -7.00    6.10
  -1   0  -4 1035.80   57.79
   1   0   4 1036.00   55.89
   1   0   4 1026.20   59.79
  -1   0  -4 1027.50   56.39
  -1   0  -4 1034.00   57.29
  -1   0  -5    9.70   10.00
  -1   0  -5   -0.60    8.70
  -1   0  -5   -7.40    5.70
   1   0   5    6.00   11.00
   1   0   5   -7.80    4.90
   1   0   6 1631.04   95.39
  -1   0  -6 1701.93   92.29
  -1   0  -6 1750.62   93.39
  -1   0  -6 1683.93   91.19
   1   0   6 1609.14   90.49
  -1   0  -7  -13.40    8.00
   1   0   7  -14.90    7.20
  -1   0  -7  -14.20   16.40
  -1   0  -7   -5.20   11.80
   1   0   7    1.50   15.40
   1   0   8    9.90    9.00
   1   0   8  -22.60   17.10
  -1   0  -8    8.90   14.00
  -1   0  -8   35.60   16.20
   1   0   9   -9.50   20.20
  -1   0  -9   -1.70   10.90
  -1   0  -9   -5.20   16.10
  -1   0 -10   78.49   14.70
  -1   0 -10   80.49   20.30
   1   1 -10    0.00   11.40
   1   1 -10  -10.80   18.20
   1  -1 -10   -9.80   10.30
   1  -1 -10    0.30   12.80
   1  -1 -10  -26.10   20.00
  -1  -1  10  -11.30   12.50
   1   1  -9  209.08   21.80
  -1   1   9  227.28   26.00
   1   1  -9  192.28   21.00
   1  -1  -9  185.28   23.90
   1  -1  -9  295.37   23.30
  -1  -1   9  194.58   18.40
  -1   1   8   -0.80   15.70
   1   1  -8    7.00   13.50
   1   1  -8   31.00    9.60
  -1  -1   8   24.60    9.50
   1  -1  -8   44.90   10.80
   1  -1  -8   -1.50   14.80
   1   1  -7  192.08   17.90
  -1   1   7  198.98   20.50
   1   1  -7  179.28   17.20
  -1  -1   7  169.18   17.20
   1  -1  -7  161.28   16.20
   1  -1  -7  187.48   19.50
  -1   1   6  222.38   20.50
   1   1  -6  252.77   28.60
   1  -1  -6  244.68   24.10
  -1  -1   6  231.28   18.20
   1  -1  -6  253.37   19.10
  -1   1   5   26.80   10.60
   1   1  -5   22.70   13.40
  -1  -1   5   18.10    6.30
   1  -1  -5   30.90    9.90
   1  -1  -5   25.20    7.20
   1  -1  -5   27.30   11.40
   1   1  -4  542.05   36.20
  -1   1   4  519.45   32.70
  -1  -1   4  503.35   33.10
  -1  -1   4  516.85   30.20
  -1  -1   4  528.25   30.10
   1  -1  -4  514.55   32.80
   1   1  -3 2975.30  147.89
  -1   1   3 2793.52  146.79
   1  -1  -3 2326.47  148.09
  -1  -1   3 2724.53  145.89
  -1  -1   3 2836.92  147.39
  -1  -1   3 2773.62  145.79
  -1   1   2  409.46   24.70
   1   1  -2  422.06   24.80
   1   1  -2  405.86   26.40
  -1   1   2  403.56   25.80
   1  -1  -2  436.66   22.90
  -1  -1   2  394.06   23.30
  -1  -1   2  392.26   23.00
   1  -1  -2  376.46   25.60
  -1  -1   2  340.57   28.00
   1   1  -1 2719.23  142.09
  -1   1   1 2593.24  142.29
   1   1  -1 2771.82  142.49
   1  -1  -1 2764.62  141.59
   1  -1  -1 2430.86  142.29
   1  -1  -1 2854.71  141.69
  -1  -1   1 2764.52  141.69
  -1  -1   1 2604.74  142.49
  -1  -1   1 2538.05  142.09
  -1   1   0   43.10    4.10
   1   1   0   46.20    6.40
  -1   1   0   55.99    5.40
   1   1   0   56.79    5.60
   1  -1   0   52.39    5.20
  -1  -1   0   50.99    6.00
  -1  -1   0   45.10    4.80
  -1  -1   0   54.89    4.60
   1  -1   0   59.99    6.20
  -1  -1   0   47.30    6.00
   1   1   1  160.48   14.40
  -1   1  -1  114.09    9.80
   1   1   1   99.89    9.70
   1  -1   1  122.29    9.30
  -1  -1  -1  117.69   10.20
  -1  -1  -1  117.29   12.80
   1   1   2  669.53   39.20
  -1   1  -2  704.23   37.90
  -1   1  -2  716.73   37.00
   1   1   2  709.93   40.90
  -1   1  -2  673.33   37.60
  -1  -1  -2  726.13   36.80
   1  -1   2  664.43   38.10
  -1  -1  -2  679.23   38.40
  -1  -1  -2  630.24   39.10
   1  -1   2  710.33   37.80
   1  -1   2  679.73   40.10
  -1   1  -3  327.27   18.60
  -1   1  -3  319.97   20.80
   1   1   3  323.67   21.80
   1   1   3  330.97   24.30
  -1  -1  -3  306.77   20.00
   1  -1   3  339.27   19.70
   1  -1   3  307.17   24.00
  -1  -1  -3  294.87   21.80
   1   1   4  844.82   50.69
  -1   1  -4  908.61   48.40
  -1   1  -4  844.72   46.50
   1  -1   4  858.41   50.49
  -1  -1  -4  839.32   47.50
  -1  -1  -4  805.52   48.70
   1  -1   4  857.21   47.00
  -1   1  -5  761.82   44.60
  -1   1  -5  789.72   43.50
  -1   1  -5  806.42   46.10
   1   1   5  736.53   48.60
   1  -1   5  794.62   43.90
  -1  -1  -5  800.62   46.40
   1  -1   5  787.82   48.70
  -1  -1  -5  778.62   44.50
  -1   1  -6  268.97   23.30
   1   1   6  238.08   22.40
  -1   1  -6  221.78   20.50
  -1   1  -6  231.58   17.80
  -1  -1  -6  257.97   23.70
  -1  -1  -6  269.27   23.90
   1  -1   6  234.28   18.20
  -1  -1  -6  257.27   19.70
   1  -1   6  237.38   22.60
  -1   1  -7  393.16   28.10
  -1   1  -7  386.56   25.30
   1   1   7  382.26   36.00
  -1   1  -7  361.86   30.60
   1  -1   7  365.46   35.50
  -1  -1  -7  325.27   30.10
  -1  -1  -7  358.46   31.40
   1  -1   7  393.36   25.40
  -1   1  -8   -0.80    9.10
  -1   1  -8  -12.80   12.30
   1   1   8   -4.40   17.50
  -1   1  -8    2.80   18.70
   1  -1   8   -4.60    9.20
  -1  -1  -8    2.00   10.60
  -1  -1  -8  -23.90   14.50
   1   1   9    6.10   21.00
  -1   1  -9   51.59   15.70
  -1   1  -9   36.50   14.40
  -1  -1  -9   21.60   12.60
   1  -1   9   22.30   11.50
  -1  -1  -9   53.89   18.10
   1   1  10    6.20   23.20
  -1   1 -10  -10.80   11.40
  -1  -1 -10   10.30   14.00
  -1  -1 -10   -3.40    9.60
   1  -1  10   22.10   13.00
  -1  -1 -10  -34.60   19.70
   1   2 -10   28.30   18.10
  -1   2  10   28.10   22.10
   1   2 -10   12.30   12.00
   1   2 -10  -11.70   19.00
   1  -2 -10   23.30   12.30
   1  -2 -10   29.70   21.80
   1  -2 -10   27.60   14.50
  -1  -2  10   21.60   13.90
   1   2  -9   41.50   10.70
   1   2  -9   27.20   15.50
  -1   2   9   17.70   18.90
   1  -2  -9   10.00   19.30
  -1  -2   9   30.30   12.00
   1  -2  -9   58.69   13.20
   1  -2  -9   27.20   10.70
   1   2  -8  635.14   42.00
   1   2  -8  605.74   37.20
  -1   2   8  573.24   45.70
   1  -2  -8  603.54   40.10
  -1  -2   8  590.64   38.80
   1  -2  -8  673.63   45.60
   1  -2  -8  640.54   37.40
  -1   2   7  142.19   18.50
   1   2  -7  131.39   12.40
   1  -2  -7  157.98   15.20
   1  -2  -7  144.69   14.80
   1  -2  -7  182.88   19.80
  -1  -2   7  150.68   13.90
  -1   2   6   10.60   11.80
  -1  -2   6   -4.70    7.30
   1  -2  -6   13.90    6.50
   1  -2  -6    4.40   12.30
  -1   2   5   45.80   11.40
   1   2  -5   43.80   11.60
   1  -2  -5   46.70    9.10
  -1  -2   5   50.39    7.40
  -1  -2   5   87.19   12.40
   1  -2  -5   47.00    7.30
   1  -2  -5   75.29   12.60
  -1  -2   5   52.79    8.20
   1   2  -4  141.69   14.00
   1   2  -4  164.08   14.10
  -1   2   4  157.48   14.70
  -1   2   4  156.48   13.80
   1  -2  -4  128.29   14.30
  -1  -2   4  148.59   12.20
  -1  -2   4  144.79   15.00
  -1  -2   4  122.39   11.20
   1  -2  -4  129.49   12.10
   1  -2  -4  129.79   11.00
   1   2  -3  530.85   33.00
  -1   2   3  528.85   33.30
   1   2  -3  529.35   32.90
  -1   2   3  560.04   33.80
   1  -2  -3  505.45   34.00
  -1  -2   3  527.75   31.00
   1  -2  -3  519.25   31.40
  -1  -2   3  533.45   30.00
   1  -2  -3  556.94   30.10
   1   2  -2 9466.65  465.45
  -1   2   2 8843.81  465.55
   1   2  -2 8760.02  465.15
  -1   2   2 8470.35  465.15
  -1  -2   2 8727.53  464.55
   1  -2  -2 8237.38  465.55
  -1  -2   2 9156.68  464.25
   1  -2  -2 8618.94  464.15
   1  -2  -2 8677.43  464.75
  -1  -2   2 8827.32  465.55
  -1   2   1 1083.59   59.79
   1   2  -1 1122.09   60.19
   1   2  -1 1068.29   58.99
  -1   2   1 1137.79   58.59
   1  -2  -1 1051.69   58.19
  -1  -2   1 1052.39   59.89
  -1  -2   1 1074.29   57.99
   1  -2  -1  956.10   59.79
  -1  -2   1 1124.49   57.99
   1  -2  -1 1049.79   57.69
   1   2   0   26.20    8.10
  -1   2   0   25.50    8.30
   1   2   0   20.60    9.00
  -1   2   0   17.70    6.40
  -1  -2   0   14.70    5.70
   1  -2   0   20.60    5.00
   1  -2   0   12.80    4.70
   1  -2   0   11.10    7.90
  -1  -2   0   15.90    9.00
  -1  -2   0   15.40    4.20
   1   2   1  243.58   18.40
  -1   2  -1  235.68   17.80
  -1   2  -1  221.68   16.90
   1   2   1  231.28   19.60
   1  -2   1  192.58   13.40
  -1  -2  -1  185.98   20.40
  -1  -2  -1  223.58   13.10
   1  -2   1  233.98   17.30
  -1  -2  -1  214.38   16.00
   1  -2   1  214.98   14.80
  -1   2  -2  323.77   19.40
   1   2   2  274.07   22.10
   1   2   2  205.68   23.90
  -1   2  -2  265.07   20.40
   1  -2   2  271.57   17.80
  -1  -2  -2  268.27   15.20
   1  -2   2  281.57   19.50
  -1  -2  -2  248.68   18.90
   1   2   3   29.80   10.90
   1   2   3   64.19   10.30
  -1   2  -3   42.40    7.70
   1  -2   3   55.79   10.30
  -1  -2  -3   55.89    8.10
  -1  -2  -3   50.99    4.20
   1  -2   3   53.09    7.10
  -1  -2  -3   45.60   10.00
   1   2   4  636.34   39.70
  -1   2  -4  647.34   35.30
   1   2   4  635.04   41.50
  -1   2  -4  690.03   37.70
  -1  -2  -4  614.94   37.80
  -1  -2  -4  685.73   35.40
   1  -2   4  648.24   37.10
  -1  -2  -4  616.44   39.60
   1  -2   4  633.44   38.00
  -1   2  -5   10.80    8.50
   1   2   5   -2.90   12.20
  -1   2  -5    4.40    4.90
  -1  -2  -5    2.90    5.20
  -1  -2  -5  -12.50   10.10
   1  -2   5   13.60    6.90
  -1  -2  -5   -9.40    7.40
  -1   2  -6  352.96   27.30
  -1   2  -6  400.06   23.50
   1   2   6  400.56   33.20
  -1   2  -6  361.36   25.80
  -1  -2  -6  387.16   30.70
   1  -2   6  382.16   25.30
  -1  -2  -6  385.66   23.20
   1   2   7   27.50   16.70
  -1   2  -7   14.40   10.10
  -1   2  -7   11.90    7.70
  -1   2  -7   17.70   12.00
  -1  -2  -7   16.30    7.00
  -1  -2  -7   46.70   15.20
  -1  -2  -7   16.40   10.90
   1  -2   7    3.70    8.50
  -1   2  -8  240.48   19.30
  -1   2  -8  231.88   23.90
   1   2   8  231.58   26.80
  -1   2  -8  239.68   21.20
  -1  -2  -8  200.28   18.90
  -1  -2  -8  246.18   24.70
   1  -2   8  240.58   22.00
  -1  -2  -8  259.97   24.40
   1   2   9   16.50   21.90
  -1   2  -9   17.00   14.20
  -1   2  -9   15.20    9.90
  -1  -2  -9    5.10   18.50
   1  -2   9   28.90   12.00
  -1  -2  -9   14.20    8.90
  -1  -2  -9   50.99   14.00
   1   2  10  -24.20   22.90
  -1  -2 -10   21.50   22.80
   1  -2  10   12.50   13.60
  -1  -2 -10   -0.60   14.90
   1   3 -10   18.70   20.10
  -1   3  10   -7.40   22.30
   1   3 -10   -4.00   17.80
   1   3 -10   16.80   12.30
   1  -3 -10   23.50    9.00
   1  -3 -10  -10.90   15.30
  -1  -3  10  -14.10   13.30
   1  -3 -10  -27.00   21.00
  -1   3   9  138.79   23.40
   1   3  -9  149.88   13.80
   1   3  -9  136.79   19.20
   1   3  -9  124.39   22.30
   1  -3  -9  140.79   18.40
   1  -3  -9  151.98   12.60
   1  -3  -9  136.89   24.70
  -1  -3   9  108.59   16.20
   1   3  -8    1.30   15.70
   1   3  -8    2.20    7.70
  -1   3   8  -14.50   16.00
   1  -3  -8    8.20   12.00
  -1  -3   8    0.80   10.30
   1  -3  -8    7.10    7.40
   1  -3  -8  -16.60   18.20
   1   3  -7    0.20   13.80
  -1   3   7   20.90   14.90
   1  -3  -7   31.10   17.00
   1  -3  -7   19.30   11.20
   1  -3  -7   30.70    7.30
  -1  -3   7    6.80    9.60
  -1   3   6  180.98   19.20
   1   3  -6  183.88   19.00
   1  -3  -6  180.08   16.30
   1  -3  -6  183.58   20.40
   1  -3  -6  175.88   14.60
  -1  -3   6  174.78   15.20
  -1  -3   6  209.58   19.10
   1   3  -5  662.83   42.10
   1   3  -5  678.53   41.20
  -1  -3   5  675.13   42.80
   1  -3  -5  597.54   41.80
   1  -3  -5  695.43   37.00
   1  -3  -5  641.64   43.70
  -1  -3   5  627.14   38.90
  -1  -3   5  668.13   37.10
   1   3  -4  557.34   42.20
  -1   3   4  672.13   40.40
   1   3  -4  687.13   39.90
   1  -3  -4  649.74   35.60
  -1  -3   4  583.74   43.10
   1  -3  -4  654.93   42.00
  -1  -3   4  629.74   37.40
   1  -3  -4  633.24   38.10
  -1  -3   4  665.53   35.90
   1   3  -3  214.48   20.00
   1   3  -3  171.58   15.40
  -1   3   3  129.69   16.20
  -1  -3   3  187.58   13.10
  -1  -3   3  191.78   15.40
  -1  -3   3  202.98   21.20
   1  -3  -3  180.98   12.60
   1  -3  -3  191.68   17.70
   1  -3  -3  185.28   16.00
   1   3  -2  132.69   13.70
  -1   3   2  107.49   12.70
  -1   3   2  127.99   11.90
   1   3  -2  117.19   11.90
   1  -3  -2  111.09   13.70
   1  -3  -2  116.09   10.60
   1  -3  -2  105.69   10.20
  -1  -3   2  109.39    9.90
  -1  -3   2  132.69   12.90
  -1  -3   2  125.49   13.50
  -1   3   1 3608.74  180.78
   1   3  -1 3537.65  180.58
   1   3  -1 3418.96  179.88
  -1   3   1 3407.86  179.38
  -1  -3   1 3182.08  180.28
  -1  -3   1 3358.16  178.78
   1  -3  -1 3235.58  180.38
  -1  -3   1 3335.77  178.78
   1  -3  -1 3215.68  178.58
   1  -3  -1 3330.47  178.98
   1   3   0  679.93   39.00
   1   3   0  651.93   40.60
  -1   3   0  626.44   38.00
  -1   3   0  690.23   40.00
  -1  -3   0  633.24   36.20
   1  -3   0  684.63   36.50
  -1  -3   0  658.83   37.20
   1  -3   0  602.54   39.80
  -1  -3   0  623.24   40.40
   1  -3   0  664.23   36.70
   1   3   1  757.02   45.80
   1   3   1  767.82   44.70
  -1   3  -1  716.73   43.80
  -1   3  -1  847.62   44.80
  -1  -3  -1  718.63   43.10
   1  -3   1  809.32   41.70
  -1  -3  -1  730.53   46.30
   1  -3   1  748.93   42.50
  -1  -3  -1  769.32   41.70
   1   3   2  123.59   14.20
  -1   3  -2  135.19   12.60
  -1   3  -2  118.99   12.20
   1   3   2  127.49   13.70
   1  -3   2  134.69   12.40
  -1  -3  -2  119.59    9.40
   1  -3   2  142.09   12.40
  -1  -3  -2  119.69   11.20
   1  -3   2  110.39    9.20
  -1  -3  -2  124.69   14.40
  -1   3  -3  135.59   13.60
   1   3   3  131.39   15.30
  -1   3  -3  130.09   12.80
   1   3   3  126.19   15.80
   1  -3   3  142.59   13.20
  -1  -3  -3  143.89    9.30
   1  -3   3  131.89   11.20
  -1  -3  -3  108.59   15.00
  -1  -3  -3  126.39   12.20
  -1   3  -4   10.70   10.10
  -1   3  -4    4.00    9.20
  -1  -3  -4   -0.40   11.20
  -1  -3  -4   21.30    3.60
  -1  -3  -4   15.10    8.70
   1  -3   4   16.80    7.00
   1   3   5 1818.42  101.99
  -1   3  -5 1952.60   98.69
  -1   3  -5 1784.32  100.69
   1  -3   5 1774.92   98.59
  -1  -3  -5 1927.31  101.29
  -1  -3  -5 1485.35  103.69
  -1  -3  -5 1867.81   96.09
   1  -3   5 1753.72   98.19
  -1   3  -6   37.60   11.40
   1   3   6    5.10   14.70
  -1  -3  -6   17.50    4.70
  -1  -3  -6   31.90   11.40
  -1  -3  -6   27.80   14.80
   1  -3   6   30.80    8.90
   1   3   7  122.49   20.30
  -1   3  -7   95.19   14.70
  -1   3  -7  109.69   11.20
   1  -3   7  108.39   12.90
  -1  -3  -7  107.29    8.50
  -1  -3  -7  100.39   14.80
  -1  -3  -7  101.59   19.10
  -1   3  -8    2.90   16.10
  -1   3  -8   20.70   14.00
  -1   3  -8   57.39   12.10
   1   3   8   43.30   20.50
  -1   3  -8   47.30    7.80
  -1  -3  -8   21.20   18.10
   1  -3   8   23.90   11.10
  -1  -3  -8   39.70    6.40
  -1  -3  -8   32.00   14.00
  -1   3  -9   19.80   19.50
   1   3   9   39.30   23.40
  -1  -3  -9   36.10   21.40
   1  -3   9   26.80   12.70
  -1  -3  -9   34.90   15.30
   1   4  -9   70.99   20.30
   1   4  -9   70.89    9.90
  -1   4   9   43.60   21.40
   1  -4  -9   62.39   17.20
   1  -4  -9   42.50    8.70
   1  -4  -9   -6.20   21.00
  -1  -4   9   39.60   13.70
   1   4  -8  121.69   10.10
  -1   4   8  116.09   20.80
   1   4  -8   70.69   19.40
  -1  -4   8  105.49   14.70
   1  -4  -8   89.79   16.50
   1  -4  -8   93.89   10.00
   1  -4  -8  100.89   23.50
  -1   4   7   16.10   15.80
   1   4  -7    9.90   15.20
   1  -4  -7   22.30    6.60
  -1  -4   7   16.30   10.40
  -1  -4   7   -5.50   15.00
   1  -4  -7   -4.30   18.50
   1  -4  -7   17.20   12.30
  -1   4   6   78.79   15.90
   1   4  -6   77.39   15.30
   1  -4  -6   77.69    7.80
   1  -4  -6   59.89   18.30
  -1  -4   6   71.69   16.10
  -1  -4   6   76.89    8.20
   1  -4  -6   59.49   12.70
  -1  -4   6   70.39   11.40
   1   4  -5  -13.20   11.40
  -1   4   5  -14.50   12.10
   1  -4  -5    4.00   14.50
  -1  -4   5    5.50    8.40
   1  -4  -5    2.60    4.90
   1  -4  -5    6.50    9.40
  -1  -4   5   -2.20   15.90
  -1  -4   5   -1.40    5.90
  -1   4   4  323.87   30.40
   1   4  -4  447.56   29.80
   1  -4  -4  411.66   23.70
  -1  -4   4  395.36   31.90
  -1  -4   4  392.56   26.40
   1  -4  -4  341.17   28.20
   1  -4  -4  464.45   33.50
  -1  -4   4  419.26   23.90
  -1   4   3   29.90   11.00
   1   4  -3   15.70   15.40
   1   4  -3   25.20   11.70
  -1  -4   3   27.00    7.50
   1  -4  -3   40.90   13.50
  -1  -4   3   25.70   12.00
   1  -4  -3   27.40    5.50
   1  -4  -3   30.90    8.70
  -1  -4   3   26.70    6.90
   1   4  -2 1095.59   61.29
  -1   4   2 1088.29   60.89
   1   4  -2 1120.19   62.69
   1  -4  -2 1040.80   62.79
  -1  -4   2 1048.30   62.49
   1  -4  -2 1026.20   58.49
  -1  -4   2 1073.19   59.49
   1  -4  -2 1069.79   59.79
  -1  -4   2 1122.69   59.09
  -1   4   1  268.47   20.90
   1   4  -1  252.07   24.40
   1   4  -1  262.97   21.60
   1  -4  -1  253.47   17.00
  -1  -4   1  222.28   23.70
   1  -4  -1  222.38   23.50
  -1  -4   1  253.97   17.60
   1  -4  -1  228.38   18.20
  -1  -4   1  225.98   17.00
  -1   4   0 1373.36   77.29
   1   4   0 1400.06   77.99
  -1   4   0 1530.25   79.19
   1   4   0 1271.47   81.89
   1  -4   0 1473.55   76.19
   1  -4   0 1388.96   76.19
   1  -4   0 1388.76   79.19
  -1  -4   0 1409.06   79.59
  -1  -4   0 1412.56   76.69
  -1  -4   0 1366.96   75.99
  -1   4  -1 1516.15   87.59
   1   4   1 1651.63   88.39
  -1   4  -1 1774.62   88.89
  -1  -4  -1 1560.44   85.79
   1  -4   1 1510.05   88.49
   1  -4   1 1689.03   85.89
   1  -4   1 1597.14   86.69
  -1  -4  -1 1528.85   89.89
  -1  -4  -1 1554.64   87.09
  -1   4  -2   20.40   10.80
   1   4   2    2.00   10.00
  -1   4  -2   19.90    9.30
   1  -4   2    6.10    6.60
   1  -4   2   -5.10    9.80
   1  -4   2   11.30    4.90
  -1  -4  -2    8.80    7.70
  -1  -4  -2   14.70    4.90
  -1  -4  -2   20.40   12.80
  -1   4  -3  737.03   41.50
   1   4   3  687.83   43.90
  -1  -4  -3  681.13   36.70
   1  -4   3  657.93   41.30
  -1  -4  -3  600.84   39.70
  -1  -4  -3  636.64   44.00
   1  -4   3  669.83   38.90
  -1   4  -4  621.54   34.40
   1   4   4  494.35   37.20
  -1   4  -4  497.65   35.00
  -1  -4  -4  512.65   37.60
   1  -4   4  498.15   32.50
   1  -4   4  471.25   34.40
  -1  -4  -4  412.96   33.00
  -1  -4  -4  517.15   28.20
   1   4   5   75.99   17.10
  -1   4  -5  100.09   15.70
  -1   4  -5  123.49   14.70
  -1  -4  -5   99.69   13.40
  -1  -4  -5  106.39   18.00
  -1  -4  -5  126.09    9.30
   1  -4   5  109.69   15.60
   1  -4   5  106.59   12.10
   1   4   6  385.76   38.30
  -1   4  -6  435.36   36.10
  -1   4  -6  481.35   33.40
   1  -4   6  440.36   32.30
   1  -4   6  448.36   30.40
  -1  -4  -6  407.46   39.20
  -1  -4  -6  455.75   32.70
  -1  -4  -6  449.16   25.20
  -1   4  -7  209.58   23.60
   1   4   7  196.78   25.50
  -1   4  -7  243.98   26.30
  -1  -4  -7  231.28   25.80
  -1  -4  -7  277.67   25.50
   1  -4   7  167.78   17.80
  -1   4  -8   33.40   16.50
   1   4   8   52.39   20.80
  -1   4  -8   14.50   17.70
  -1  -4  -8   35.20   21.60
  -1  -4  -8   49.90   15.20
   1  -4   8   28.00   12.30
  -1   4  -9    1.20   20.20
   1   4   9   -3.60   23.20
  -1  -4  -9   22.90   23.70
   1  -4   9   36.00   13.70
  -1  -4  -9   42.50   16.90
   1   5  -9   48.80   21.30
  -1   5   9   49.30   23.10
  -1  -5   9   67.49   15.20
   1  -5  -9   41.40    8.90
   1  -5  -9   68.59   18.50
  -1   5   8  -15.80   17.90
   1   5  -8   17.80   18.50
   1  -5  -8   14.90   22.80
  -1  -5   8   34.20   13.20
   1  -5  -8   22.20    7.80
   1  -5  -8   27.00   15.30
  -1  -5   8   19.80   17.60
  -1   5   7  300.57   28.40
   1   5  -7  256.87   27.80
   1  -5  -7  368.06   40.80
  -1  -5   7  320.57   34.00
   1  -5  -7  327.67   21.50
  -1  -5   7  346.37   27.40
   1  -5  -7  322.37   29.90
  -1   5   6   15.90   15.40
   1   5  -6    5.50   14.70
  -1  -5   6   61.59   19.40
   1  -5  -6   16.50   19.40
   1  -5  -6   -2.70    6.20
  -1  -5   6    5.30    6.00
  -1  -5   6    0.70   10.10
   1  -5  -6    4.00   11.80
   1   5  -5   10.40   12.90
  -1   5   5   28.60   14.20
   1  -5  -5   29.50    6.60
   1  -5  -5   27.00   16.90
  -1  -5   5   33.70   10.00
  -1  -5   5   12.90   15.60
   1  -5  -5   19.50   11.00
  -1  -5   5   16.70    6.60
  -1   5   4  112.49   18.50
   1   5  -4  164.68   16.90
   1  -5  -4  137.09   14.40
  -1  -5   4  152.78   13.00
  -1  -5   4  130.29   13.30
  -1  -5   4  170.98   18.50
   1  -5  -4  126.59   12.80
   1  -5  -4  144.39   19.70
  -1   5   3 1898.41  100.59
   1   5  -3 1778.72  100.79
   1  -5  -3 1670.33  105.19
  -1  -5   3 1891.31  101.89
   1  -5  -3 1828.52  102.69
   1  -5  -3 1800.22   97.69
  -1   5   2  -12.70    9.50
   1   5  -2    1.60   10.30
  -1  -5   2    3.90    7.00
   1  -5  -2   -4.60    5.80
  -1  -5   2   -0.20   12.10
   1  -5  -2    1.10    8.20
   1  -5  -2    2.10   12.40
  -1  -5   2   -5.10    6.60
  -1   5   1  444.26   31.10
   1   5  -1  456.35   31.80
   1  -5  -1  463.45   27.70
  -1  -5   1  439.46   34.30
  -1  -5   1  471.95   28.10
  -1  -5   1  452.55   28.10
   1  -5  -1  464.55   29.10
   1  -5  -1  442.66   34.40
   1   5   0  378.46   29.80
  -1   5   0  381.96   28.80
  -1  -5   0  442.56   25.70
   1  -5   0  425.66   26.10
  -1  -5   0  416.36   27.30
   1  -5   0  409.46   25.80
  -1  -5   0  453.85   33.70
   1  -5   0  406.96   33.00
  -1   5  -1   61.49   11.40
   1   5   1   47.80   12.30
  -1  -5  -1   74.99   10.50
  -1  -5  -1   71.59    7.70
   1  -5   1   73.29    8.30
  -1  -5  -1   69.79   15.40
   1  -5   1   73.19   13.90
   1  -5   1   42.80    8.50
  -1   5  -2   -3.00   10.70
   1  -5   2   11.50    7.70
   1  -5   2   -0.30    5.50
  -1  -5  -2   -4.10    8.00
  -1  -5  -2   -4.80    5.20
   1  -5   2  -10.70   11.00
  -1  -5  -2   10.70   13.60
  -1   5  -3 1008.50   60.79
   1   5   3  995.10   62.09
   1  -5   3 1182.78   56.49
  -1  -5  -3 1055.89   63.99
   1  -5   3 1003.00   58.39
   1  -5   3 1001.60   60.99
  -1  -5  -3 1039.30   56.49
  -1  -5  -3  971.70   59.19
   1   5   4  126.19   19.60
  -1   5  -4  105.39   16.20
   1  -5   4  123.39   16.10
  -1  -5  -4  162.28   20.00
   1  -5   4  118.89   13.00
  -1  -5  -4  138.99   11.20
  -1  -5  -4  134.49   14.50
   1   5   5    7.70   15.30
  -1   5  -5   -6.70   13.30
   1  -5   5    5.70    9.40
   1  -5   5   -3.60   14.40
  -1  -5  -5   32.50   18.50
  -1  -5  -5   12.20    5.20
  -1  -5  -5   30.90   11.90
   1   5   6    2.50   17.30
  -1   5  -6    8.50   15.20
   1  -5   6   15.50   10.50
  -1  -5  -6    1.30   19.60
  -1  -5  -6   24.40   13.20
   1  -5   6    4.80   14.00
  -1  -5  -6    2.80    5.00
   1   5   7  293.97   29.50
  -1   5  -7  254.57   27.50
  -1  -5  -7  327.27   29.90
   1  -5   7  316.27   30.10
   1  -5   7  295.37   25.90
  -1  -5  -7  267.97   31.40
  -1   5  -8    7.60   18.40
   1   5   8  -17.60   20.90
  -1  -5  -8   -9.50   22.30
   1  -5   8   -0.20   12.20
  -1  -5  -8    7.00   15.10
   1   5   9   18.50   24.40
  -1   5  -9   10.40   22.90
   1  -5   9   65.89   15.50
  -1  -5  -9   35.20   17.60
  -1  -6   9   55.69   22.30
   1   6  -8   49.60   20.70
  -1   6   8   37.30   20.80
   1  -6  -8   22.60   16.60
  -1  -6   8   28.20   14.10
  -1  -6   8   -7.40   19.50
   1  -6  -8   23.40    8.50
   1   6  -7  163.28   22.30
  -1   6   7  141.59   23.00
   1  -6  -7  119.49   11.50
  -1  -6   7  113.09   22.40
   1  -6  -7  113.19   19.00
  -1  -6   7  126.39   16.40
   1   6  -6  194.78   23.30
  -1   6   6  220.78   23.50
  -1  -6   6  178.18   27.80
   1  -6  -6  194.18   20.50
   1  -6  -6  185.98   27.20
  -1  -6   6  166.78   17.90
   1  -6  -6  222.58   17.00
  -1   6   5   -8.60   14.70
   1   6  -5    8.80   14.60
  -1  -6   5    3.30   16.90
   1  -6  -5    5.60   19.30
  -1  -6   5   13.70    7.00
   1  -6  -5   22.00    7.40
  -1  -6   5   28.90   11.50
   1  -6  -5   15.10   12.10
  -1   6   4  176.18   20.40
   1   6  -4  130.39   18.50
  -1  -6   4  208.38   16.30
   1  -6  -4  148.49   22.10
  -1  -6   4  163.58   15.80
  -1  -6   4  181.78   21.00
   1  -6  -4  171.48   17.20
   1  -6  -4  202.38   15.70
  -1   6   3  538.35   37.30
   1   6  -3  497.05   38.00
  -1  -6   3  533.55   40.40
   1  -6  -3  511.25   32.10
   1  -6  -3  545.05   35.80
  -1  -6   3  537.95   33.80
   1  -6  -3  598.64   42.70
  -1  -6   3  586.14   34.70
  -1   6   2  286.87   26.10
   1   6  -2  261.87   25.80
   1  -6  -2  300.97   31.10
  -1  -6   2  324.57   30.40
   1  -6  -2  287.67   20.30
  -1  -6   2  300.27   21.40
  -1  -6   2  266.57   22.00
   1   6  -1  864.31   51.99
  -1   6   1  668.43   53.59
  -1  -6   1  858.01   54.49
  -1  -6   1  865.91   48.80
  -1  -6   1  890.21   49.00
   1  -6  -1  858.21   48.30
   1  -6  -1  835.12   54.89
   1  -6  -1  914.01   49.40
   1   6   0  637.74   41.80
  -1   6   0  611.94   40.70
   1  -6   0  676.93   38.20
   1  -6   0  663.23   45.00
  -1  -6   0  593.64   45.80
  -1  -6   0  622.84   37.50
  -1  -6   0  641.44   39.00
   1  -6   0  667.83   38.40
  -1   6  -1   27.60   11.70
   1   6   1   31.00   12.60
  -1  -6  -1   50.89   10.60
   1  -6   1   36.50    8.60
   1  -6   1   43.60   15.00
  -1  -6  -1   56.09   16.60
   1  -6   1   46.00    9.30
  -1  -6  -1   48.40    8.00
  -1   6  -2  162.58   16.60
   1   6   2  106.59   15.90
  -1  -6  -2  140.89   14.80
  -1  -6  -2  122.99   20.10
  -1  -6  -2  140.49   13.40
   1  -6   2  124.19   12.70
   1  -6   2  144.19   13.90
   1  -6   2  108.19   17.30
   1   6   3   28.20   13.80
  -1   6  -3    9.50   12.30
  -1  -6  -3   23.80   11.20
  -1  -6  -3   -6.90   16.20
  -1  -6  -3   11.00    6.40
   1  -6   3   21.10    9.40
   1  -6   3   22.50   14.10
   1  -6   3   12.00    7.70
  -1   6  -4  150.68   18.30
   1   6   4  145.49   21.60
  -1  -6  -4  152.58   12.90
   1  -6   4  115.09   14.00
  -1  -6  -4  166.08   23.00
   1  -6   4  135.79   19.20
  -1  -6  -4  130.29   16.00
  -1   6  -5    4.20   14.80
   1   6   5   20.50   17.20
   1  -6   5    8.90   10.40
   1  -6   5   -1.00   15.60
  -1  -6  -5    6.60   20.00
  -1  -6  -5   14.90   12.90
  -1  -6  -5   -5.00    6.00
  -1   6  -6  247.88   26.00
   1   6   6  228.88   27.20
   1  -6   6  300.67   25.50
  -1  -6  -6  258.27   30.20
  -1  -6  -6  264.17   17.20
   1  -6   6  193.08   27.00
  -1  -6  -6  306.37   29.00
  -1   6  -7   16.60   19.00
   1   6   7   11.20   20.70
  -1  -6  -7   -3.30   24.20
   1  -6   7    9.30   12.10
  -1  -6  -7   -1.90   15.20
   1  -6   7    1.30   16.40
   1   6   8   23.50   23.10
  -1   6  -8   18.40   19.90
   1  -6   8   35.00   14.20
   1  -6   8   39.40   17.60
  -1  -6  -8   -5.60   16.20
  -1   7   8    2.60   20.60
   1   7  -8   13.10   20.70
   1  -7  -8   20.30   17.60
   1  -7  -8   12.10    9.00
  -1  -7   8    3.70   14.40
  -1  -7   8    8.20   22.90
   1   7  -7   28.00   19.80
  -1   7   7  -23.00   18.20
  -1  -7   7  -11.60   13.40
  -1  -7   7    4.60   23.60
   1  -7  -7  -12.10    8.70
   1  -7  -7   15.80   16.10
   1   7  -6   28.00   18.30
  -1   7   6  -19.20   16.80
   1  -7  -6   26.50   14.60
  -1  -7   6  -15.20   12.40
   1  -7  -6   10.10    8.50
  -1  -7   6  -46.10   20.70
  -1   7   5  466.85   44.60
   1   7  -5  521.35   42.30
  -1  -7   5  563.64   37.70
   1  -7  -5  494.15   49.40
  -1  -7   5  568.04   32.70
   1  -7  -5  548.35   33.40
  -1  -7   5  516.35   45.60
   1  -7  -5  547.65   39.60
   1   7  -4    2.20   15.10
  -1   7   4    5.00   15.00
   1  -7  -4    6.60    8.00
  -1  -7   4  -23.70    8.60
   1  -7  -4  -19.20   11.70
   1  -7  -4   -3.10   19.20
  -1  -7   4  -12.40   17.00
  -1  -7   4   -5.30   10.30
   1   7  -3   58.69   15.80
  -1   7   3   36.30   14.10
  -1  -7   3   33.50   10.80
   1  -7  -3   32.40   12.70
  -1  -7   3   74.69   18.40
   1  -7  -3   20.00   18.60
  -1  -7   3   12.80   10.90
   1   7  -2   65.69   16.10
  -1   7   2   51.49   14.70
   1  -7  -2   75.69   19.30
  -1  -7   2   47.50   11.10
   1  -7  -2   67.59   12.50
   1  -7  -2   81.19   10.20
  -1  -7   2   77.99   11.30
  -1  -7   2   73.69   18.60
   1   7  -1  356.56   30.80
  -1   7   1  360.66   30.30
  -1  -7   1  332.67   25.70
   1  -7  -1  304.97   35.70
  -1  -7   1  334.07   24.80
   1  -7  -1  316.67   26.40
   1  -7  -1  362.66   24.50
  -1  -7   1  366.06   36.20
   1   7   0  111.29   17.10
  -1   7   0  112.39   16.10
   1  -7   0  122.09   12.80
  -1  -7   0  126.49   12.40
   1  -7   0  131.09   13.30
   1  -7   0  117.59   20.70
  -1  -7   0  103.49   14.60
  -1  -7   0  150.28   22.00
  -1   7  -1  491.35   36.30
   1   7   1  465.85   37.60
  -1  -7  -1  506.35   34.20
  -1  -7  -1  420.36   32.30
   1  -7   1  517.75   41.40
   1  -7   1  530.05   33.10
   1  -7   1  529.45   32.20
  -1  -7  -1  556.04   43.60
   1   7   2   58.49   15.70
  -1   7  -2   27.40   14.40
  -1  -7  -2   20.40   18.40
   1  -7   2   34.20    9.40
   1  -7   2   44.60   10.70
  -1  -7  -2   62.89   12.70
   1  -7   2   53.39   17.60
  -1  -7  -2   59.49    9.00
   1   7   3   17.60   15.10
  -1   7  -3   18.70   15.00
  -1  -7  -3   12.20   19.70
   1  -7   3    7.10   16.00
  -1  -7  -3   25.70   12.60
   1  -7   3    7.30    8.70
   1  -7   3   28.70   11.00
  -1  -7  -3   21.80    7.70
   1   7   4  234.08   25.20
  -1   7  -4  190.48   23.00
   1  -7   4  240.88   23.70
   1  -7   4  256.27   16.30
  -1  -7  -4  193.68   28.20
   1  -7   4  207.68   24.50
  -1  -7  -4  239.58   22.20
  -1  -7  -4  252.07   18.30
   1   7   5  399.16   32.50
  -1   7  -5  342.67   35.70
  -1  -7  -5  324.17   21.40
  -1  -7  -5  347.97   30.90
  -1  -7  -5  260.27   32.40
   1  -7   5  238.78   28.30
   1  -7   5  331.47   28.50
  -1   7  -6  -15.90   18.20
   1   7   6    9.00   19.50
   1  -7   6    9.00   12.80
  -1  -7  -6   17.00    7.10
   1  -7   6  -26.50   20.80
  -1  -7  -6  -10.30   14.50
  -1   7  -7   13.60   19.90
   1   7   7   60.19   23.40
   1  -7   7   -1.00   12.80
   1  -7   7   25.00   20.20
  -1  -7  -7    4.70   16.80
  -1   8   7  -12.00   20.70
   1   8  -7   24.40   21.80
  -1  -8   7  -23.60   28.90
  -1  -8   7   17.10   15.90
   1  -8  -7  -15.30   17.50
  -1   8   6   -4.90   18.70
   1   8  -6   -2.90   19.80
  -1  -8   6   19.70   23.80
   1  -8  -6   30.60   10.00
  -1  -8   6   -7.50   13.60
   1  -8  -6   39.40   17.70
  -1   8   5   -5.00   19.80
   1   8  -5   -5.70   18.20
   1  -8  -5    4.50   15.30
  -1  -8   5  -23.60   19.70
  -1  -8   5   13.80   13.20
  -1  -8   5   15.10    9.20
   1  -8  -5   15.00    9.70
  -1   8   4  116.29   20.60
   1   8  -4  134.69   21.40
   1  -8  -4  143.49   18.80
   1  -8  -4  145.09   14.00
  -1  -8   4  137.29   24.00
  -1  -8   4  126.79   16.90
  -1  -8   4  161.88   15.50
   1   8  -3    5.20   16.50
  -1   8   3    7.30   15.20
   1  -8  -3   13.80   13.30
   1  -8  -3   10.40   20.00
   1  -8  -3    9.80    9.20
  -1  -8   3    9.30   19.60
  -1  -8   3    2.80   11.60
  -1  -8   3    7.20   11.10
  -1   8   2  287.27   26.50
   1   8  -2  318.17   33.50
   1  -8  -2  282.77   30.90
  -1  -8   2  316.37   28.60
  -1  -8   2  292.37   31.10
   1  -8  -2  324.67   27.80
   1  -8  -2  345.07   25.00
  -1  -8   2  337.97   27.00
  -1   8   1    0.90   14.70
   1   8  -1  -17.70   15.00
  -1  -8   1   12.90   19.80
   1  -8  -1  -15.60   18.50
  -1  -8   1    8.50   11.30
  -1  -8   1    2.50   10.20
   1  -8  -1   11.00   10.00
   1  -8  -1   -5.30   10.90
  -1   8   0   12.00   14.90
   1   8   0    7.70   15.20
   1  -8   0    2.00   10.00
   1  -8   0    7.00   11.10
  -1  -8   0   25.30   20.20
  -1  -8   0    8.20    9.60
   1  -8   0   14.30   19.10
  -1  -8   0   22.50   12.60
   1   8   1  187.48   21.80
  -1   8  -1  188.58   20.70
  -1  -8  -1  135.99   25.10
  -1  -8  -1  150.48   18.50
   1  -8   1  188.48   25.40
  -1  -8  -1  173.58   15.30
   1  -8   1  188.78   17.30
   1  -8   1  182.48   16.70
  -1   8  -2  474.55   38.00
   1   8   2  483.15   39.60
  -1  -8  -2  430.76   45.70
   1  -8   2  464.05   33.60
   1  -8   2  453.25   31.30
  -1  -8  -2  486.05   30.60
   1  -8   2  466.55   43.50
  -1  -8  -2  433.36   35.40
  -1   8  -3   41.70   18.00
   1   8   3   70.79   18.40
   1  -8   3   62.49   11.70
  -1  -8  -3   96.29   12.90
  -1  -8  -3   55.99   15.20
  -1  -8  -3   56.99   23.80
   1  -8   3   95.59   14.10
   1  -8   3   81.69   21.20
   1   8   4  114.69   21.60
  -1   8  -4  102.79   20.70
   1  -8   4  123.69   10.50
  -1  -8  -4   73.69   16.50
   1  -8   4   78.29   15.10
  -1  -8  -4   97.89   11.40
   1  -8   4  100.49   22.70
  -1   8  -5    6.90   18.80
   1   8   5    2.50   21.60
  -1  -8  -5   14.80    8.50
   1  -8   5    6.40   20.10
   1  -8   5   -7.80   12.50
  -1  -8  -5   -6.30   15.30
  -1   8  -6   14.10   20.90
   1   8   6   33.30   21.50
   1  -8   6   19.50   23.10
  -1  -8  -6    2.10   16.90
   1  -8   6   -6.40   13.90
  -1  -8  -6    1.70    8.00
  -1   8  -7   25.70   23.20
   1   8   7    5.90   23.30
  -1  -8  -7   28.20   18.10
   1  -8   7   28.40   26.40
   1  -8   7   22.40   15.50
   1   9  -6   22.30   22.10
  -1   9   6  -18.70   20.40
   1  -9  -6   46.10   19.30
  -1  -9   6   29.50   16.10
   1  -9  -6   16.20   11.80
  -1   9   5   50.29   24.00
   1   9  -5  103.29   23.60
   1  -9  -5   86.19   19.40
  -1  -9   5   45.50   11.30
   1  -9  -5   64.69   12.90
  -1  -9   5   46.80   16.10
  -1   9   4  137.79   23.20
   1   9  -4  153.48   24.40
  -1  -9   4  146.59   18.80
  -1  -9   4  197.38   17.40
   1  -9  -4  132.19   19.80
   1  -9  -4  130.79   15.40
  -1  -9   4   88.99   27.70
   1   9  -3  136.89   22.40
  -1   9   3  112.19   20.20
   1  -9  -3   79.49   17.20
  -1  -9   3   73.29   24.70
  -1  -9   3  111.89   16.50
   1  -9  -3  112.79   14.20
  -1  -9   3  122.49   16.70
  -1   9   2   52.49   17.40
   1   9  -2   38.70   18.20
   1  -9  -2   15.00   13.70
  -1  -9   2   29.00   22.90
  -1  -9   2   43.00   13.40
  -1  -9   2   26.20   13.00
   1  -9  -2   42.30   11.80
   1   9  -1   45.50   18.30
  -1   9   1   66.89   18.60
   1  -9  -1   70.89   13.30
   1  -9  -1   72.69   15.40
  -1  -9   1   98.59   15.40
  -1  -9   1   14.90   27.10
  -1  -9   1   61.39   13.80
  -1   9   0   36.50   17.10
   1   9   0   32.70   17.60
  -1  -9   0   21.60   11.70
   1  -9   0   54.09   13.90
   1  -9   0   31.40   23.00
  -1  -9   0   19.20   13.90
   1  -9   0   16.50   11.90
  -1   9  -1  141.99   21.00
   1   9   1  120.09   22.00
   1  -9   1  118.39   25.10
   1  -9   1  154.58   17.10
  -1  -9  -1  150.68   15.50
   1  -9   1  153.78   16.80
  -1  -9  -1  155.98   19.20
   1   9   2   54.99   18.40
  -1   9  -2   34.10   17.70
   1  -9   2   76.19   14.40
   1  -9   2   -3.60   21.90
   1  -9   2   34.10   18.40
  -1  -9  -2   39.00   15.60
  -1  -9  -2   53.89   11.50
  -1   9  -3  124.79   22.50
   1   9   3  124.29   22.80
  -1  -9  -3  124.19   20.10
   1  -9   3  131.09   15.60
  -1  -9  -3  165.08   14.70
   1  -9   3  153.38   17.80
   1  -9   3  108.09   25.10
  -1   9  -4   14.40   20.00
   1   9   4    6.30   19.80
  -1  -9  -4    6.20    9.80
   1  -9   4   25.90   14.30
   1  -9   4   17.20    9.80
   1  -9   4  -29.40   21.70
  -1  -9  -4   38.90   16.70
   1   9   5   11.00   24.40
  -1   9  -5   19.50   21.50
   1  -9   5   -6.20   14.80
  -1  -9  -5   15.10   10.20
  -1  -9  -5   -7.10   17.10
   1  -9   5   11.60   22.80
   1   9   6    8.70   22.50
  -1   9  -6   -7.70   23.70
   1  -9   6   40.20   16.90
   1  -9   6  -11.90   25.00
  -1  -9  -6   19.60   10.80
  -1  10   4   80.29   23.40
   1  10  -4   46.30   22.80
  -1 -10   4   82.59   19.00
  -1 -10   4   85.39   17.60
   1 -10  -4   94.29   20.50
   1 -10  -4  126.49   16.10
   1  10  -3    1.20   20.80
  -1  10   3   10.70   18.70
  -1 -10   3   12.10   14.80
  -1 -10   3   51.29   16.20
   1 -10  -3   10.90   12.70
   1 -10  -3    7.80   15.50
  -1  10   2   -3.90   17.80
   1  10  -2   -2.20   18.80
   1 -10  -2  -21.00   15.20
  -1 -10   2    1.10   14.50
  -1 -10   2   12.80   14.10
   1 -10  -2   -4.80   12.40
   1  10  -1   13.80   19.20
  -1  10   1  -21.80   17.50
   1 -10  -1  -28.70   12.00
   1 -10  -1   12.70   14.80
  -1 -10   1   10.30   13.30
  -1 -10   1  -10.00   14.50
  -1  10   0  272.97   28.30
   1  10   0  283.07   28.70
   1 -10   0  341.07   30.90
  -1 -10   0  297.17   28.20
  -1 -10   0  225.68   24.70
   1 -10   0  287.27   28.10
  -1  10  -1   -6.10   18.50
   1  10   1  -13.10   18.70
   1 -10   1   19.60   13.50
  -1 -10  -1   13.60   12.70
   1 -10   1   26.80   14.10
  -1 -10  -1  -10.30   15.70
  -1  10  -2   36.90   20.60
   1  10   2   23.90   19.50
   1 -10   2   58.19   15.20
   1 -10   2   51.49   15.80
  -1 -10  -2   61.09   18.50
  -1 -10  -2   34.70   12.60
   1  10   3   -8.60   20.00
  -1  10  -3   21.70   21.00
  -1 -10  -3  -27.80   11.00
   1 -10   3  -12.60   14.40
   1 -10   3   -3.40   14.20
  -1 -10  -3    1.60   17.60
   1  10   4   58.09   23.60
  -1  10  -4   36.60   22.90
  -1 -10  -4   31.20   12.30
   1 -10   4   30.50   16.90
  -1 -10  -4   57.99   20.50
  -1  11   2    6.10   21.30
   1  11  -2    4.90   20.60
   1 -11  -2    0.50   17.20
  -1 -11   2    6.10   17.30
  -1 -11   2   17.70   16.20
   1 -11  -2    6.80   14.10
   1  11  -1   17.60   21.50
  -1  11   1   35.60   22.30
  -1 -11   1   15.90   17.00
   1 -11  -1   27.60   14.80
   1 -11  -1   12.90   17.30
  -1 -11   1    3.10   14.90
   1  11   0   -3.40   20.90
  -1  11   0   29.00   21.70
   1 -11   0  -12.30   14.60
  -1 -11   0    6.80   17.80
  -1 -11   0   -0.20   14.50
   1 -11   0   28.60   16.70
  -1  11  -1    4.60   21.70
   1  11   1   61.39   22.60
   1 -11   1   74.19   17.40
   1 -11   1   67.69   18.50
  -1 -11  -1   62.39   16.10
  -1 -11  -1   50.29   19.40
   2   0 -10  321.87   30.40
   2   0 -10  349.47   28.60
   2   0  -9  -15.50    9.60
   2   0  -9   10.00   15.60
   2   0  -8   44.40   15.20
   2   0  -8   35.70   10.20
  -2   0   7   -4.70    7.40
   2   0  -7   -5.10   11.90
  -2   0   6  361.96   29.30
  -2   0   6  369.16   24.10
   2   0  -6  399.66   28.50
  -2   0   5  -14.50    9.40
   2   0  -5    5.90   11.80
  -2   0   5    3.20    5.60
  -2   0   4 3505.25  192.88
   2   0  -4 3843.62  194.28
  -2   0   4 3543.55  192.28
  -2   0   4 3578.34  193.48
  -2   0   3    0.50    7.50
  -2   0   3    1.60    5.30
   2   0  -3   -1.30    9.00
  -2   0   3    4.80    6.60
  -2   0   2   26.10    8.90
  -2   0   2   12.10    5.00
   2   0  -2   20.30    5.90
  -2   0   2   26.40    6.40
   2   0  -2   26.50    9.00
   2   0  -1   -5.50    6.80
   2   0  -1   -1.80    3.00
  -2   0   1    6.40    6.50
  -2   0   1    9.70    4.40
  -2   0   0  670.13   38.40
   2   0   0  559.64   38.60
   2   0   0  760.22   38.00
  -2   0   0  720.23   38.30
  -2   0   0  732.73   37.90
  -2   0  -1   -0.50    4.30
   2   0   1    5.50    3.00
   2   0   1    4.00    4.20
  -2   0  -1    5.10    4.70
   2   0   1   10.40    7.30
   2   0   2   18.80    3.70
  -2   0  -2   21.70    5.00
   2   0   2   11.90    8.80
  -2   0  -3   -4.00    5.50
   2   0   3    1.80    9.40
   2   0   3   -2.60    3.90
  -2   0  -3    0.30    4.70
   2   0   4 1926.81  106.29
  -2   0  -4 1936.91  103.09
  -2   0  -4 1877.01  103.19
   2   0   4 1965.00  102.49
  -2   0  -4 1894.71  103.49
   2   0   5   -3.30   12.10
  -2   0  -5    5.00    9.30
  -2   0  -5   -2.30    5.90
  -2   0  -5    2.80    8.00
   2   0   5   -7.50    5.00
  -2   0  -6  467.45   29.90
  -2   0  -6  489.25   33.60
   2   0   6  482.65   38.60
   2   0   6  497.35   28.80
  -2   0  -6  492.75   31.80
   2   0   7  -22.30    7.10
  -2   0  -7    4.70   11.30
  -2   0  -7   -1.10   14.30
  -2   0  -7   -8.70    8.10
   2   0   7    1.50   16.80
   2   0   8   32.90   19.60
  -2   0  -8   27.20   18.40
   2   0   8   50.69   10.00
  -2   0  -8   47.10   13.80
  -2   0  -9   -2.30   15.60
   2   0   9   22.20   22.70
  -2   0  -9    1.00   10.90
   2   1 -10   30.50   18.40
   2   1 -10  -11.50   11.10
   2  -1 -10  -20.00   19.10
   2  -1 -10  -21.00   10.10
   2  -1 -10   43.50   13.10
   2   1  -9   92.29   17.90
  -2   1   9   82.99   19.70
   2   1  -9   82.69   12.30
  -2  -1   9   69.89   13.20
   2  -1  -9   85.49   18.90
   2  -1  -9   76.29   13.20
   2   1  -8   40.90   10.20
   2   1  -8   57.69   15.30
  -2   1   8    7.00   15.10
  -2  -1   8   39.80   10.50
   2  -1  -8   39.80   10.90
   2  -1  -8   39.60   15.30
  -2   1   7   48.80   14.20
   2   1  -7   40.90   13.30
   2  -1  -7   43.60   13.70
   2  -1  -7   69.89   10.40
  -2   1   6  407.06   29.70
  -2  -1   6  371.06   25.00
   2  -1  -6  403.36   30.00
   2   1  -5  409.76   36.10
  -2   1   5  500.25   31.00
   2  -1  -5  468.55   31.50
  -2  -1   5  473.75   28.80
  -2  -1   5  463.65   28.20
  -2   1   4  697.33   40.50
  -2  -1   4  666.53   39.20
   2  -1  -4  672.73   41.20
  -2  -1   4  686.03   38.70
  -2  -1   4  714.13   42.50
   2   1  -3 4220.28  217.08
   2   1  -3 3643.54  218.18
  -2   1   3 4265.77  216.78
  -2   1   3 4118.39  216.98
   2  -1  -3 4232.88  216.28
   2  -1  -3 4113.59  217.68
  -2  -1   3 4236.58  216.48
  -2  -1   3 3652.33  219.78
  -2  -1   3 4156.18  216.48
  -2   1   2  135.29   14.20
   2   1  -2  163.38   13.80
   2   1  -2  174.38   19.10
  -2   1   2  146.09   12.30
   2  -1  -2  156.48   12.20
   2  -1  -2  163.28   13.40
  -2  -1   2  164.48   12.20
   2  -1  -2  127.69   12.90
  -2  -1   2  156.28   16.00
  -2  -1   2  160.18   12.80
  -2   1   1  475.65   27.90
  -2   1   1  457.65   26.60
   2   1  -1  484.75   27.10
   2   1  -1  504.25   29.20
  -2  -1   1  473.45   28.90
   2  -1  -1  439.26   27.60
  -2  -1   1  373.66   27.10
   2  -1  -1  483.75   26.10
  -2  -1   1  466.85   25.80
   2   1   0    7.70    7.20
   2   1   0   13.20    6.40
  -2   1   0   -2.20    3.80
  -2   1   0    5.70    4.60
  -2   1   0    9.70    5.30
   2  -1   0    9.50    4.10
  -2  -1   0    3.40    3.00
   2  -1   0    2.30    5.00
  -2  -1   0   12.30    7.00
  -2  -1   0   12.90    5.30
   2   1   1   32.30    7.90
   2   1   1   40.80   10.30
  -2   1  -1   50.49    4.50
  -2  -1  -1   43.00    8.40
   2  -1   1   36.20    4.70
   2  -1   1   40.00    5.30
   2  -1   1   32.90    7.40
  -2  -1  -1   50.09    6.80
  -2   1  -2  376.76   20.30
   2   1   2  267.97   25.90
   2   1   2  370.66   23.50
   2  -1   2  367.46   25.10
   2  -1   2  386.56   21.10
  -2  -1  -2  360.96   22.20
  -2  -1  -2  346.87   23.40
  -2   1  -3 3156.48  165.08
   2   1   3 3093.99  167.88
   2   1   3 3144.69  166.18
   2   1   3 3288.67  164.78
  -2  -1  -3 3059.79  166.08
   2  -1   3 3076.49  167.58
   2  -1   3 3143.69  165.58
  -2  -1  -3 2932.41  166.18
   2   1   4  591.54   34.90
  -2   1  -4  576.84   32.30
   2   1   4  561.44   38.40
   2   1   4  605.84   31.80
  -2  -1  -4  578.14   33.80
   2  -1   4  568.54   33.00
   2  -1   4  544.75   38.50
   2   1   5  550.14   38.80
  -2   1  -5  548.05   32.60
  -2   1  -5  563.54   31.90
   2   1   5  588.94   31.30
   2  -1   5  575.14   32.40
  -2  -1  -5  538.55   33.40
   2  -1   5  549.05   38.80
  -2  -1  -5  535.45   34.70
  -2   1  -6  211.48   16.40
  -2   1  -6  197.38   19.90
   2   1   6  216.48   22.80
  -2  -1  -6  215.68   24.40
   2  -1   6  251.07   17.40
  -2  -1  -6  202.38   18.80
   2  -1   6  215.38   22.20
  -2  -1  -6  229.08   22.10
  -2   1  -7   39.00    8.70
  -2   1  -7   46.20   11.60
   2   1   7   49.80   18.70
   2  -1   7   26.70   17.90
  -2  -1  -7   50.79   11.00
  -2  -1  -7   27.00   13.10
   2  -1   7   50.99    9.10
   2   1   8   15.40   19.70
  -2   1  -8   13.40    9.10
  -2  -1  -8   41.00   14.70
  -2  -1  -8   15.30   11.30
  -2   1  -9   33.10   11.50
   2   1   9   39.00   23.70
   2  -1   9   40.90   12.20
  -2  -1  -9   58.99    9.20
  -2  -1  -9   62.39   14.20
  -2  -1  -9   69.59   18.60
   2   2 -10   11.20   19.50
   2   2 -10   10.90   11.60
   2   2 -10   41.90   19.00
  -2   2  10   27.00   21.00
   2  -2 -10   20.10   13.10
  -2  -2  10   13.60   13.40
   2  -2 -10   42.70   13.00
   2  -2 -10   36.70   21.20
   2   2  -9   14.20   16.40
   2   2  -9   21.60   17.60
  -2   2   9    0.80   17.10
   2  -2  -9    5.00   17.90
   2  -2  -9   10.10   10.20
  -2  -2   9    7.80   11.20
   2  -2  -9   24.30   12.30
   2   2  -8  232.68   23.70
  -2   2   8  250.27   23.90
   2  -2  -8  232.78   22.70
   2  -2  -8  240.78   24.60
   2  -2  -8  200.48   20.30
  -2  -2   8  264.47   22.10
  -2   2   7   34.80   13.80
   2   2  -7   39.10   14.10
  -2  -2   7   38.20    9.60
   2  -2  -7   46.60   14.90
   2  -2  -7   39.00   10.70
   2  -2  -7   34.80    8.40
  -2   2   6   24.30   11.40
   2   2  -6   39.90   12.00
  -2  -2   6   42.20   13.00
  -2  -2   6   31.60    8.30
  -2  -2   6   28.90    8.30
   2  -2  -6   25.90    7.40
   2  -2  -6   32.00   13.20
  -2   2   5  167.78   15.00
   2   2  -5  195.88   21.60
   2   2  -5  158.48   19.60
   2  -2  -5  179.38   16.80
   2  -2  -5  143.19   14.10
   2  -2  -5  168.18   16.10
  -2  -2   5  150.38   17.00
  -2  -2   5  175.98   15.20
  -2  -2   5  155.98   14.80
  -2   2   4 1485.15   83.49
   2   2  -4 1509.85   84.19
   2   2  -4 1620.94   84.99
  -2  -2   4 1566.14   85.89
   2  -2  -4 1479.15   84.99
  -2  -2   4 1536.95   82.39
  -2  -2   4 1482.45   82.79
  -2   2   3   59.29   10.50
  -2   2   3   71.19    9.10
   2   2  -3   74.69    9.60
   2   2  -3   74.89   11.10
   2  -2  -3   41.50   10.80
  -2  -2   3   63.69   14.20
  -2  -2   3   45.80    7.20
  -2  -2   3   64.89    7.40
   2  -2  -3   56.59    6.80
   2   2  -2 3844.72  190.58
  -2   2   2 3369.96  189.28
  -2   2   2 3641.14  190.28
   2   2  -2 3562.44  189.68
   2  -2  -2 3717.93  188.88
  -2  -2   2 3042.50  191.98
   2  -2  -2 3414.16  190.38
  -2  -2   2 3786.42  189.18
  -2  -2   2 3597.94  188.98
  -2   2   1 1330.07   73.69
   2   2  -1 1384.36   74.49
  -2   2   1 1426.96   72.29
   2   2  -1 1382.16   73.49
   2  -2  -1 1362.16   72.19
   2  -2  -1 1177.98   73.69
  -2  -2   1 1378.56   72.69
  -2  -2   1 1314.87   72.09
   2  -2  -1 1409.36   72.19
  -2  -2   1 1248.48   74.29
  -2   2   0 1690.03   88.39
  -2   2   0 1602.24   87.59
   2   2   0 1668.83   88.69
   2   2   0 1666.73   89.39
  -2  -2   0 1483.75   89.19
   2  -2   0 1615.54   88.39
  -2  -2   0 1667.73   87.09
  -2  -2   0 1674.43   87.99
   2  -2   0 1624.54   87.39
   2   2   1 1158.98   60.69
  -2   2  -1 1108.69   59.09
  -2   2  -1 1082.39   59.29
   2   2   1 1068.89   60.19
  -2  -2  -1 1066.99   59.29
   2  -2   1 1065.79   59.19
  -2  -2  -1 1001.30   61.09
  -2  -2  -1 1079.59   57.59
   2  -2   1 1089.59   57.89
   2  -2   1 1074.99   58.69
   2   2   2 2120.69  125.39
  -2   2  -2 2327.17  122.89
   2   2   2 2423.36  124.49
   2  -2   2 2322.17  123.09
  -2  -2  -2 2321.37  123.69
   2  -2   2 2295.97  122.99
   2   2   3   -0.40   10.70
   2   2   3   15.40    9.20
  -2  -2  -3   11.70    7.00
   2  -2   3    2.10    5.40
  -2  -2  -3   -2.50    9.30
   2   2   4 1410.16   75.99
  -2  -2  -4 1372.16   76.19
  -2  -2  -4 1332.47   75.09
   2  -2   4 1347.57   74.19
   2   2   5  156.78   15.90
  -2   2  -5  147.09   10.70
   2   2   5  106.99   16.90
  -2  -2  -5  124.79   14.60
   2  -2   5  135.99   11.70
  -2  -2  -5  138.19   13.20
  -2  -2  -5  149.49   10.00
   2   2   6   18.10   15.10
  -2   2  -6    9.20    5.80
  -2  -2  -6   17.70   12.60
  -2  -2  -6   23.60    5.60
   2  -2   6    6.50    7.80
  -2  -2  -6   13.30    9.70
   2   2   7   10.40   18.00
  -2   2  -7   37.30    7.60
  -2  -2  -7   35.80   11.40
   2  -2   7   37.00    9.40
  -2  -2  -7    9.80    6.40
  -2  -2  -7   25.80   14.70
  -2   2  -8  169.38   13.50
   2   2   8  156.98   25.70
  -2  -2  -8  145.39   17.00
  -2  -2  -8  149.99   13.90
   2  -2   8  141.19   15.00
  -2  -2  -8  131.39   20.60
   2   2   9   29.70   23.30
  -2   2  -9   36.90   10.40
  -2  -2  -9  -33.60   12.80
  -2  -2  -9   52.59   20.50
   2  -2   9   28.40   12.20
   2   3 -10  -31.20   18.70
   2   3 -10   12.80   19.40
   2   3 -10   -7.30   11.00
  -2   3  10   16.20   20.80
  -2  -3  10   48.00   13.90
   2  -3 -10  -18.20   13.40
   2  -3 -10   -7.70    9.50
   2   3  -9   65.69   10.90
   2   3  -9   65.79   19.30
  -2   3   9   74.79   19.60
  -2  -3   9   46.30   13.20
   2  -3  -9   72.39   21.50
   2  -3  -9   57.29   14.90
  -2   3   8   -4.80   15.40
   2   3  -8   14.70   16.30
   2  -3  -8    3.50   17.40
  -2  -3   8  -11.10   10.20
   2  -3  -8    4.10   11.20
   2  -3  -8    3.50    8.20
  -2   3   7   -8.10   13.20
   2   3  -7   10.90   14.10
   2  -3  -7    8.00    7.50
   2  -3  -7    3.60   10.30
   2  -3  -7  -25.40   15.30
  -2  -3   7    8.70   14.10
  -2  -3   7   -2.40    9.30
  -2   3   6   20.30   11.80
   2   3  -6   12.30   12.40
   2  -3  -6   20.70    7.00
   2  -3  -6   18.60   14.30
  -2  -3   6   37.80   14.20
  -2  -3   6   21.80    8.80
   2  -3  -6   10.70    9.70
  -2  -3   6   23.70    8.00
   2   3  -5 1905.81  103.79
  -2   3   5 1806.22  102.99
  -2  -3   5 1964.00  101.19
   2  -3  -5 1953.00  105.49
   2  -3  -5 1645.54  103.89
   2  -3  -5 1953.70  100.99
  -2  -3   5 1908.81  105.29
  -2  -3   5 1852.51  101.99
   2   3  -4  279.27   23.20
  -2   3   4  299.67   23.00
   2   3  -4  277.17   25.60
  -2  -3   4  297.67   18.60
   2  -3  -4  249.68   26.20
   2  -3  -4  269.57   21.30
  -2  -3   4  278.77   25.10
  -2  -3   4  278.77   19.90
   2  -3  -4  276.47   18.00
   2   3  -3  469.95   31.80
  -2   3   3  420.56   30.50
   2   3  -3  432.46   29.20
  -2  -3   3  457.85   27.40
   2  -3  -3  438.66   28.40
   2  -3  -3  473.65   26.30
  -2  -3   3  437.06   26.90
  -2  -3   3  464.15   32.70
   2  -3  -3  453.65   31.90
  -2   3   2  813.22   48.80
   2   3  -2  824.82   47.80
  -2   3   2  905.31   47.10
   2   3  -2  861.31   49.50
  -2  -3   2  901.71   47.10
  -2  -3   2  805.82   49.70
   2  -3  -2  791.22   45.60
   2  -3  -2  763.12   49.10
  -2  -3   2  797.02   46.20
   2  -3  -2  833.92   46.80
  -2   3   1  501.75   29.30
  -2   3   1  524.05   32.10
   2   3  -1  490.25   30.80
   2   3  -1  514.35   33.60
  -2  -3   1  467.45   28.90
  -2  -3   1  476.85   32.90
   2  -3  -1  487.35   27.80
   2  -3  -1  492.65   28.60
  -2  -3   1  453.75   28.10
   2  -3  -1  456.75   32.00
   2   3   0   63.49   12.00
  -2   3   0   73.79   10.90
   2   3   0   63.19   10.40
  -2   3   0   70.59    8.70
   2  -3   0   80.09    7.10
  -2  -3   0   63.99    8.60
  -2  -3   0   56.49   12.10
  -2  -3   0   58.59    6.50
   2  -3   0   59.79    7.20
   2  -3   0   56.09   10.60
  -2   3  -1  466.65   30.50
  -2   3  -1  504.35   31.30
   2   3   1  534.25   33.40
   2   3   1  490.75   32.20
   2  -3   1  501.55   29.20
   2  -3   1  534.15   27.60
  -2  -3  -1  485.15   30.10
  -2  -3  -1  490.35   27.50
   2  -3   1  458.35   31.20
  -2  -3  -1  476.75   34.30
  -2   3  -2  664.73   41.90
   2   3   2  725.63   43.30
   2   3   2  758.32   43.60
  -2   3  -2  748.23   41.00
  -2  -3  -2  685.53   41.20
   2  -3   2  709.13   40.20
  -2  -3  -2  729.63   38.30
   2  -3   2  672.13   41.00
  -2  -3  -2  686.33   44.20
   2   3   3  227.28   22.90
  -2   3  -3  241.78   18.00
   2   3   3  236.58   24.60
  -2   3  -3  198.28   19.60
   2  -3   3  192.08   18.20
   2  -3   3  211.68   16.10
  -2  -3  -3  216.98   18.20
  -2  -3  -3  176.38   18.30
   2   3   4  201.28   19.70
  -2   3  -4  217.48   18.00
  -2  -3  -4  202.08   18.50
  -2  -3  -4  212.78   19.30
   2  -3   4  191.48   18.80
   2  -3   4  218.28   17.00
  -2  -3  -5 1274.17   74.79
  -2  -3  -5 1425.16   77.19
   2  -3   5 1310.67   73.59
   2  -3   5 1341.47   73.39
   2   3   6   13.30   16.00
   2  -3   6   13.40    8.40
  -2  -3  -6   -2.60   10.20
  -2  -3  -6   -8.00   14.30
   2   3   7   24.00   18.20
  -2  -3  -7   11.50   12.20
  -2  -3  -7  -24.30   16.20
   2  -3   7    8.60    9.70
   2   3   8   27.10   21.20
  -2  -3  -8    2.90   19.40
  -2  -3  -8    4.80   13.30
   2  -3   8   -7.00   10.50
   2   3   9   35.60   24.30
   2  -3   9   18.90   12.60
  -2  -3  -9   28.70   15.70
  -2  -3  -9   17.40   22.50
   2   4 -10   91.69   22.60
   2   4 -10   49.10   21.70
  -2   4  10   80.29   23.60
  -2  -4  10   42.90   15.90
   2  -4 -10  108.29   14.40
   2  -4 -10  123.59   19.40
  -2   4   9  122.59   22.50
   2   4  -9   90.19   21.50
   2   4  -9  105.69   11.70
   2  -4  -9   79.19   16.90
   2  -4  -9   75.89   31.00
  -2  -4   9  132.29   16.50
   2  -4  -9  108.99   11.30
  -2   4   8   42.50   17.40
   2   4  -8   29.20   17.10
   2  -4  -8   27.50   13.40
   2  -4  -8   39.30   21.50
  -2  -4   8   46.00   17.70
   2  -4  -8   23.50    8.10
  -2  -4   8   37.00   12.50
  -2   4   7  120.99   18.20
   2   4  -7  118.39   19.10
  -2  -4   7  138.89   12.20
  -2  -4   7  137.59   15.20
   2  -4  -7  147.49   23.40
  -2  -4   7  127.59   19.50
   2  -4  -7  141.49   16.70
   2  -4  -7  132.39   11.30
  -2   4   6  118.09   16.70
   2   4  -6  117.99   18.00
   2  -4  -6  143.09   21.80
  -2  -4   6  145.89   12.30
   2  -4  -6  138.69   15.40
  -2  -4   6  140.09   20.00
   2  -4  -6  194.98   13.80
  -2  -4   6  125.49   14.00
   2   4  -5  101.19   14.70
  -2   4   5  121.49   17.50
   2  -4  -5  108.69   13.10
   2  -4  -5  108.79    9.30
  -2  -4   5  107.49   20.90
  -2  -4   5  108.99   12.40
  -2  -4   5  107.49   10.20
   2  -4  -5  123.79   18.40
   2   4  -4 1373.46   78.49
  -2   4   4 1402.46   78.49
   2  -4  -4 1435.46   80.99
  -2  -4   4 1444.96   75.69
   2  -4  -4 1288.07   77.29
  -2  -4   4 1422.96   76.69
   2  -4  -4 1357.46   75.29
  -2  -4   4 1407.96   80.39
  -2   4   3  433.66   29.70
   2   4  -3  353.76   30.00
  -2  -4   3  425.76   32.60
  -2  -4   3  448.66   27.20
   2  -4  -3  431.16   25.60
  -2  -4   3  470.45   27.20
   2  -4  -3  406.76   32.70
   2  -4  -3  434.46   27.80
   2   4  -2  344.67   26.30
  -2   4   2  382.56   24.90
   2  -4  -2  319.97   28.10
  -2  -4   2  361.76   29.20
   2  -4  -2  348.77   23.60
  -2  -4   2  351.66   22.60
  -2  -4   2  367.06   23.20
   2  -4  -2  323.77   21.70
   2   4  -1   93.59   12.60
  -2   4   1  103.89   11.30
  -2  -4   1   92.19    9.00
   2  -4  -1  103.49    9.90
  -2  -4   1  109.99   10.20
  -2  -4   1   94.39   14.30
   2  -4  -1  100.89    8.90
   2  -4  -1   70.29   13.30
   2   4   0  279.37   24.50
  -2   4   0  290.47   22.20
  -2   4   0  358.86   25.80
   2  -4   0  310.77   19.60
  -2  -4   0  278.97   21.50
  -2  -4   0  283.97   19.20
   2  -4   0  311.97   19.90
   2  -4   0  301.07   25.90
  -2  -4   0  306.97   27.10
  -2   4  -1   37.70   11.00
   2   4   1   25.20   10.80
  -2   4  -1   29.80    9.00
   2  -4   1   28.20   10.80
  -2  -4  -1   26.90    5.30
   2  -4   1   34.70    6.00
  -2  -4  -1   32.40    9.00
  -2  -4  -1   36.80   13.30
   2  -4   1   24.00    6.80
   2   4   2  340.27   27.80
  -2   4  -2  347.87   26.10
  -2   4  -2  395.96   26.70
  -2  -4  -2  321.17   24.60
   2  -4   2  373.66   23.80
   2  -4   2  386.46   20.70
   2  -4   2  340.17   26.50
  -2  -4  -2  395.46   31.20
  -2  -4  -2  356.56   21.10
  -2   4  -3  281.87   22.90
  -2   4  -3  289.57   24.00
   2   4   3  328.37   28.40
   2  -4   3  292.47   20.20
   2  -4   3  285.07   23.50
  -2  -4  -3  277.77   16.80
  -2  -4  -3  280.27   21.70
  -2  -4  -3  295.87   28.40
  -2   4  -4  852.21   48.60
  -2   4  -4  767.22   50.79
   2   4   4  822.52   52.99
  -2  -4  -4  841.02   49.00
   2  -4   4  862.61   49.30
  -2  -4  -4  820.42   53.09
  -2   4  -5   10.40   13.10
  -2   4  -5   11.20   10.80
   2   4   5    3.80   15.40
  -2  -4  -5   13.40   15.40
   2  -4   5   11.90    8.30
  -2  -4  -5   23.90   10.70
   2  -4   5   11.40   10.70
  -2   4  -6  152.78   19.80
  -2   4  -6  191.38   16.50
   2   4   6  121.19   22.20
   2  -4   6  182.68   15.70
  -2  -4  -6  179.98   22.20
   2  -4   6  172.68   15.40
  -2  -4  -6  136.69   17.00
  -2   4  -7  116.89   19.60
   2   4   7   90.79   22.30
  -2  -4  -7  130.59   22.70
  -2  -4  -7  135.39   17.10
   2  -4   7  116.09   14.10
  -2   4  -8   37.50   18.70
   2   4   8  -18.90   20.00
  -2  -4  -8  -12.20   22.60
  -2  -4  -8   14.10   15.00
   2  -4   8    5.70   11.80
  -2   4  -9   18.00   19.80
   2   4   9   82.29   27.20
  -2  -4  -9   86.59   26.50
   2  -4   9   44.70   14.30
  -2  -4  -9   51.19   18.00
   2   5  -9   56.59   21.70
  -2   5   9   37.60   21.10
  -2  -5   9   37.80   14.50
   2  -5  -9   60.89   10.00
   2  -5  -9   21.40   17.10
   2   5  -8   25.30   18.50
  -2   5   8   56.79   18.20
   2  -5  -8   46.00   15.20
   2  -5  -8   23.50   28.60
  -2  -5   8   10.90   18.50
  -2  -5   8   -0.30   12.20
   2  -5  -8   23.20    8.20
  -2   5   7  288.77   26.40
   2   5  -7  279.97   27.50
  -2  -5   7  285.27   21.40
  -2  -5   7  317.27   29.00
  -2  -5   7  287.97   27.10
   2  -5  -7  284.67   28.50
   2  -5  -7  321.67   21.20
   2  -5  -7  298.17   30.90
   2   5  -6   59.59   15.90
  -2   5   6   71.79   16.10
  -2  -5   6   72.39   12.40
  -2  -5   6   83.29    9.70
   2  -5  -6   47.10   13.50
   2  -5  -6   77.79   20.80
  -2  -5   6   73.59   21.40
   2  -5  -6   67.69    8.90
   2   5  -5    8.60   13.00
  -2   5   5   18.10   12.70
   2  -5  -5   20.10   10.80
  -2  -5   5   -4.60    7.00
  -2  -5   5    3.40   16.60
   2  -5  -5   10.50    6.60
  -2  -5   5   -0.50    9.10
   2  -5  -5    9.50   16.60
  -2   5   4   14.00   13.50
   2   5  -4   31.50   12.40
   2  -5  -4   24.30   10.00
   2  -5  -4   19.00    6.50
   2  -5  -4    6.60   14.80
  -2  -5   4   30.00    7.70
  -2  -5   4   26.30    9.10
  -2  -5   4    9.70   13.60
   2   5  -3 1823.62   98.09
  -2   5   3 1768.32   96.99
   2  -5  -3 1770.02   99.59
  -2  -5   3 1769.42   99.29
   2  -5  -3 1690.13   96.69
   2  -5  -3 1729.53   94.89
   2   5  -2  411.96   30.00
  -2   5   2  416.76   28.30
   2  -5  -2  404.16   24.50
  -2  -5   2  361.76   32.50
  -2  -5   2  415.46   25.90
   2  -5  -2  365.06   26.40
   2  -5  -2  365.76   31.80
  -2  -5   2  417.76   25.70
  -2   5   1  108.59   13.10
   2  -5  -1  116.59   11.20
  -2  -5   1  121.09   10.90
   2  -5  -1  138.29   13.10
   2  -5  -1  133.99   16.10
  -2  -5   1  117.29   16.50
  -2  -5   1  119.29   11.70
  -2   5   0    7.80    9.50
   2   5   0    1.70   17.20
  -2  -5   0   -2.10    5.80
   2  -5   0    1.60    6.70
   2  -5   0   -7.70    6.80
  -2  -5   0    2.80    8.50
   2  -5   0  -16.70   11.80
  -2  -5   0  -23.30   12.30
  -2   5  -1   14.00    9.60
   2   5   1   11.10   14.10
  -2  -5  -1   21.10    5.70
  -2  -5  -1   -7.30    8.30
   2  -5   1    8.40    6.30
   2  -5   1    1.30    7.00
   2  -5   1   20.10   11.90
  -2  -5  -1   10.40   13.40
   2   5   2  227.18   24.30
  -2   5  -2  240.68   23.10
  -2  -5  -2  261.67   29.10
  -2  -5  -2  242.38   16.40
   2  -5   2  278.87   16.20
   2  -5   2  256.07   21.10
  -2  -5  -2  236.88   21.20
   2  -5   2  210.28   23.80
  -2   5  -3 1502.35   85.19
   2   5   3 1545.85   86.69
  -2   5  -3 1431.46   87.29
  -2  -5  -3 1542.85   81.19
   2  -5   3 1524.95   83.29
  -2  -5  -3 1495.65   84.09
  -2  -5  -3 1566.54   88.09
   2  -5   3 1481.15   84.89
   2   5   4  -17.50   15.30
  -2   5  -4   15.50   12.90
  -2   5  -4   20.60   12.30
   2  -5   4    9.80   12.20
  -2  -5  -4   18.90   16.10
   2  -5   4    3.50    8.70
  -2  -5  -4   -4.50    4.30
  -2  -5  -4   17.90   10.80
  -2   5  -5   -2.00   13.60
  -2   5  -5    6.50   12.90
   2   5   5    5.60   16.30
  -2  -5  -5    6.90   18.20
   2  -5   5    8.20    9.20
   2  -5   5   26.70   14.40
  -2  -5  -5   26.80   11.80
  -2   5  -6   49.99   14.20
  -2   5  -6   50.29   16.70
   2   5   6   63.99   20.20
   2  -5   6   46.70   11.70
   2  -5   6   38.80   13.50
  -2  -5  -6   33.70   14.00
  -2  -5  -6   47.80   21.20
  -2   5  -7  122.29   21.50
   2   5   7  114.59   23.10
  -2  -5  -7  119.89   26.20
   2  -5   7  162.28   16.20
  -2  -5  -7  133.99   18.60
   2  -5   7  157.68   16.60
   2   5   8   25.60   23.60
  -2   5  -8   21.00   19.30
  -2  -5  -8   36.00   16.60
  -2  -5  -8    9.90   24.50
   2  -5   8    1.80   12.40
   2   6  -9   -8.80   20.40
  -2   6   9   39.90   21.90
  -2  -6   9   20.20   15.40
   2  -6  -9  -11.80   17.40
  -2  -6   9   -1.30   22.00
   2  -6  -9   19.40   10.50
  -2   6   8   21.40   19.30
   2   6  -8   -0.90   19.50
  -2  -6   8    1.60   20.90
  -2  -6   8   17.40   14.10
   2  -6  -8    1.80   15.60
   2  -6  -8   22.40    9.30
  -2   6   7   24.50   17.30
   2   6  -7   10.00   17.60
  -2  -6   7    2.30   12.50
   2  -6  -7   26.60    8.60
  -2  -6   7   33.50   21.50
  -2  -6   7   17.60    8.10
   2  -6  -7   23.10   14.90
   2   6  -6  268.57   26.30
  -2   6   6  243.08   25.60
   2  -6  -6  295.37   21.30
  -2  -6   6  282.67   26.40
  -2  -6   6  241.78   32.30
   2  -6  -6  252.57   30.40
   2  -6  -6  319.97   28.40
  -2  -6   6  333.07   21.40
  -2   6   5   81.89   17.00
   2   6  -5   67.09   17.00
   2  -6  -5   90.99   10.40
  -2  -6   5  112.19   10.90
  -2  -6   5   75.99   20.10
   2  -6  -5   87.99   15.30
   2  -6  -5  113.99   21.90
  -2  -6   5   96.69   13.40
  -2   6   4  248.48   23.50
   2   6  -4  233.68   23.20
  -2  -6   4  290.87   22.50
  -2  -6   4  260.37   25.00
   2  -6  -4  277.37   24.40
  -2  -6   4  290.27   21.30
   2  -6  -4  252.57   19.20
   2  -6  -4  246.68   26.20
   2   6  -3   27.10   13.60
  -2   6   3    6.30   13.30
   2  -6  -3    9.60   15.00
   2  -6  -3    4.80    7.20
  -2  -6   3   18.90   10.20
   2  -6  -3   13.60   10.00
  -2  -6   3   21.00   15.10
  -2  -6   3   27.40    9.50
  -2   6   2  226.48   23.80
   2   6  -2  242.88   25.60
  -2  -6   2  250.37   19.90
   2  -6  -2  227.08   23.40
   2  -6  -2  227.78   18.30
  -2  -6   2  244.18   19.80
  -2  -6   2  224.28   23.00
  -2   6   1  985.10   59.79
   2   6  -1  988.10   60.89
   2  -6  -1 1107.29   58.19
   2  -6  -1  986.60   57.49
  -2  -6   1 1042.30   58.19
  -2  -6   1 1020.60   63.69
   2  -6  -1 1061.79   63.29
  -2  -6   1 1003.90   57.59
   2   6   0  509.75   37.30
  -2  -6   0  587.74   42.00
   2  -6   0  544.85   40.20
  -2  -6   0  535.35   34.90
  -2  -6   0  521.05   32.30
   2  -6   0  552.94   33.10
   2   6   1  783.92   49.30
  -2   6  -1  784.62   47.60
  -2  -6  -1  707.73   47.10
   2  -6   1  767.82   50.19
  -2  -6  -1  773.92   52.79
  -2  -6  -1  770.52   43.70
   2  -6   1  811.92   45.30
   2  -6   1  782.82   44.00
  -2   6  -2  196.38   18.10
   2   6   2  154.28   18.50
   2  -6   2  201.98   14.80
  -2  -6  -2  170.18   21.60
  -2  -6  -2  151.48   15.90
   2  -6   2  167.88   15.30
  -2  -6  -2  187.38   14.50
   2  -6   2  170.48   19.40
  -2   6  -3    7.30   12.20
   2   6   3    2.60   14.00
  -2  -6  -3    4.40    5.70
   2  -6   3    2.90   13.60
  -2  -6  -3    3.10    9.90
  -2  -6  -3   13.60   17.40
   2  -6   3    6.10    6.70
   2  -6   3   -7.50    8.70
  -2   6  -4  216.98   21.70
   2   6   4  162.08   24.30
  -2  -6  -4  191.98   19.30
  -2  -6  -4  214.08   25.90
   2  -6   4  217.08   21.50
  -2  -6  -4  234.38   15.20
   2  -6   4  221.48   21.60
  -2   6  -5  106.89   18.90
   2   6   5   86.99   20.60
  -2  -6  -5   83.59   23.00
   2  -6   5   88.69   13.10
  -2  -6  -5   89.49   16.10
  -2  -6  -5  107.49    8.20
   2  -6   5   82.59   17.60
  -2   6  -6  204.38   24.70
   2   6   6  181.98   26.30
  -2  -6  -6  224.48   22.40
   2  -6   6  196.08   18.80
  -2  -6  -6  170.28   28.00
   2  -6   6  251.87   23.60
  -2   6  -7   21.20   19.10
   2   6   7   23.60   22.40
   2  -6   7   19.80   15.40
  -2  -6  -7   41.20   16.30
  -2  -6  -7   -6.80   26.30
   2  -6   7    2.30   12.00
   2   6   8    4.00   23.50
  -2   6  -8    6.90   20.70
  -2  -6  -8   26.60   17.40
   2  -6   8   37.50   14.30
   2   7  -8    5.90   20.50
  -2   7   8   -2.60   19.80
   2  -7  -8    9.90   10.50
  -2  -7   8  -20.50   23.70
   2  -7  -8   24.40   17.80
  -2  -7   8    7.40   15.00
  -2   7   7   20.90   18.70
   2   7  -7  -12.40   19.00
  -2  -7   7   13.20   14.50
   2  -7  -7    6.20    9.50
   2  -7  -7   -7.20   16.00
  -2  -7   7   -9.80   25.30
   2   7  -6   82.69   20.40
  -2   7   6  102.69   19.60
  -2  -7   6   91.09   25.50
   2  -7  -6   92.79   11.60
  -2  -7   6   94.09   15.70
  -2  -7   6   88.49   11.10
   2  -7  -6   78.59   17.60
   2   7  -5  502.55   42.00
  -2   7   5  341.57   41.70
  -2  -7   5  524.25   32.30
  -2  -7   5  530.35   45.80
   2  -7  -5  527.15   37.60
   2  -7  -5  397.86   47.50
  -2  -7   5  563.24   35.70
   2  -7  -5  558.54   32.20
   2   7  -4   31.20   15.80
  -2   7   4   19.30   14.90
  -2  -7   4   18.50   11.20
   2  -7  -4   30.90    9.00
   2  -7  -4   35.40   20.00
  -2  -7   4   53.59   18.50
  -2  -7   4   18.70   10.50
   2  -7  -4   26.40   13.30
  -2   7   3    7.20   13.10
   2   7  -3   33.00   15.50
   2  -7  -3   23.30   18.50
  -2  -7   3   19.30   11.00
   2  -7  -3   19.10   11.70
  -2  -7   3   26.10   17.50
  -2  -7   3   15.30   10.80
   2  -7  -3   25.20    8.80
   2   7  -2    7.00   14.20
  -2   7   2   -3.90   12.60
  -2  -7   2   11.00    9.80
   2  -7  -2    7.00    8.50
  -2  -7   2   23.00   17.20
  -2  -7   2    0.10    9.10
   2  -7  -2   15.60   17.30
   2  -7  -2  -10.10   10.10
  -2   7   1  341.37   29.00
   2   7  -1  336.37   31.20
   2  -7  -1  313.97   23.80
   2  -7  -1  278.07   28.20
  -2  -7   1  360.86   36.60
  -2  -7   1  339.07   23.90
   2  -7  -1  282.47   28.30
  -2   7   0    2.00   12.10
   2   7   0   -0.50   13.50
  -2  -7   0    0.20    8.30
   2  -7   0  -10.60    9.10
   2  -7   0   17.20   16.30
  -2  -7   0   11.00   11.00
   2  -7   0    7.40    8.80
  -2  -7   0    5.20   17.90
   2   7   1  325.87   33.90
  -2   7  -1  394.66   31.50
  -2  -7  -1  440.36   41.20
  -2  -7  -1  385.26   25.50
   2  -7   1  396.26   26.50
  -2  -7  -1  389.56   30.20
   2  -7   1  383.56   37.10
   2  -7   1  383.26   27.90
   2   7   2   -1.50   14.20
  -2   7  -2    5.70   13.50
   2  -7   2    7.20   16.00
   2  -7   2   27.80    8.40
   2  -7   2    1.40    9.80
  -2  -7  -2   14.90   12.40
  -2  -7  -2   14.90    7.50
  -2  -7  -2   24.40   19.10
   2   7   3    8.50   15.50
  -2   7  -3   14.70   14.10
   2  -7   3    8.70   10.70
   2  -7   3   14.60   16.40
  -2  -7  -3   -1.40    6.80
  -2  -7  -3   -0.90   19.40
   2  -7   3   -3.70    7.80
  -2  -7  -3    1.20   12.30
   2   7   4   24.00   19.60
  -2   7  -4   26.30   16.30
  -2  -7  -4    0.10   20.60
   2  -7   4   23.40   11.20
  -2  -7  -4   20.10   13.70
   2  -7   4   20.20   17.40
  -2  -7  -4   19.70    7.20
   2   7   5  311.27   31.10
  -2   7  -5  364.96   35.80
   2  -7   5  318.97   35.80
  -2  -7  -5  321.77   20.40
  -2  -7  -5  350.36   31.00
   2  -7   5  316.67   27.70
  -2  -7  -5  196.08   31.80
   2   7   6   66.89   21.80
  -2   7  -6   36.70   19.90
   2  -7   6   73.29   22.80
  -2  -7  -6   38.80   16.00
   2  -7   6   43.70   13.60
   2   7   7   -6.80   22.50
  -2   7  -7   28.10   21.00
   2  -7   7   19.90   13.60
  -2  -7  -7   34.80   17.40
   2  -7   7   15.40   18.30
   2   8  -7    9.00   20.80
  -2   8   7   -6.30   19.80
  -2  -8   7   11.60   29.60
  -2  -8   7   -3.70   14.80
   2  -8  -7   -7.50   10.50
   2  -8  -7   13.50   18.10
  -2   8   6   27.90   18.20
   2   8  -6   58.09   21.80
  -2  -8   6   46.80   24.50
   2  -8  -6   54.09   11.20
   2  -8  -6   19.80   16.30
  -2  -8   6   18.70   10.10
  -2  -8   6   12.00   14.50
  -2   8   5   31.40   20.60
   2   8  -5   56.29   19.40
  -2  -8   5    6.10   13.30
   2  -8  -5   39.80   11.00
  -2  -8   5   56.49   11.20
   2  -8  -5   48.60   16.50
  -2  -8   5   57.09   22.20
   2   8  -4   64.79   19.70
  -2   8   4   55.09   18.00
   2  -8  -4   67.79   16.10
  -2  -8   4   87.19   15.00
  -2  -8   4   79.79   22.60
   2  -8  -4   79.49   12.10
  -2  -8   4   90.29   14.30
  -2   8   3   85.19   17.10
   2   8  -3   88.89   19.50
   2  -8  -3   88.89   15.80
  -2  -8   3   96.39   14.50
   2  -8  -3   67.69   22.80
  -2  -8   3   93.79   16.40
   2  -8  -3  105.19   12.60
  -2  -8   3   85.89   22.10
   2   8  -2  363.26   37.20
  -2   8   2  405.06   35.30
  -2  -8   2  355.66   30.50
  -2  -8   2  401.76   43.30
   2  -8  -2  390.66   43.30
  -2  -8   2  436.56   30.80
   2  -8  -2  437.46   31.40
   2  -8  -2  465.25   29.30
   2   8  -1  -22.60   15.00
  -2   8   1  -16.40   13.60
  -2  -8   1    2.10   11.80
  -2  -8   1   11.40   10.40
  -2  -8   1  -12.20   19.70
   2  -8  -1  -35.60   18.40
   2  -8  -1   18.80   11.30
   2  -8  -1    0.20    9.90
   2   8   0   64.29   17.30
  -2   8   0   62.39   15.60
   2  -8   0   35.50   20.10
  -2  -8   0   13.70   20.80
  -2  -8   0   31.10   13.20
  -2  -8   0   -0.70    9.90
   2  -8   0   26.40   11.10
   2  -8   0   37.60   11.10
   2   8   1  -11.00   15.50
  -2   8  -1    3.00   14.60
  -2  -8  -1    1.00   13.10
   2  -8   1    1.90   10.60
  -2  -8  -1    9.00    9.10
   2  -8   1   -7.50   10.20
  -2  -8  -1   22.40   20.90
   2  -8   1   34.50   20.50
  -2   8  -2  255.57   25.50
   2   8   2  269.37   26.20
   2  -8   2  280.87   23.10
  -2  -8  -2  319.77   22.10
  -2  -8  -2  323.97   29.10
   2  -8   2  289.07   29.30
   2  -8   2  309.97   26.50
  -2  -8  -2  191.68   30.70
  -2   8  -3   48.40   17.70
   2   8   3   50.19   17.90
  -2  -8  -3   74.19   38.70
   2  -8   3   42.30   20.30
  -2  -8  -3   51.39   15.80
   2  -8   3   53.29   10.60
   2  -8   3   81.79   14.30
  -2  -8  -3   63.99    9.90
   2   8   4  142.49   23.20
  -2   8  -4   61.99   19.60
   2  -8   4   95.09   15.40
   2  -8   4   85.29   22.10
  -2  -8  -4   83.59   18.60
  -2  -8  -4   99.39   10.90
  -2   8  -5   17.30   19.40
   2   8   5   28.20   22.50
   2  -8   5   15.00   13.20
  -2  -8  -5   16.60    8.30
  -2  -8  -5  -10.00   14.60
   2  -8   5   41.20   20.90
  -2   8  -6   36.40   21.70
   2   8   6   30.70   22.70
   2  -8   6   21.60   14.70
   2  -8   6  -11.50   22.50
  -2  -8  -6    7.30   17.50
   2   9  -6   44.70   22.50
  -2   9   6    7.10   19.90
   2  -9  -6    4.00   18.20
   2  -9  -6   -6.50   11.40
  -2  -9   6    5.60   16.30
  -2   9   5   35.80   22.00
   2   9  -5   18.00   21.10
  -2  -9   5   45.60   16.00
   2  -9  -5    7.70   11.70
  -2  -9   5   22.10   12.00
   2  -9  -5   29.70   17.40
   2   9  -4   76.09   21.70
  -2   9   4   77.09   20.40
   2  -9  -4   69.39   17.30
  -2  -9   4  111.29   16.90
   2  -9  -4   97.29   14.00
  -2  -9   4   85.39   16.70
  -2   9   3   66.79   18.00
   2   9  -3   75.69   20.90
   2  -9  -3   70.59   13.30
  -2  -9   3   69.69   15.40
  -2  -9   3   55.29   15.40
   2  -9  -3   65.29   16.10
   2   9  -2   62.99   19.80
  -2   9   2  120.39   19.80
  -2  -9   2  120.79   16.20
   2  -9  -2   98.69   14.20
  -2  -9   2   93.09   15.20
   2  -9  -2   62.99   15.80
  -2   9   1  174.18   22.20
   2   9  -1  185.48   23.40
  -2  -9   1  147.09   17.20
  -2  -9   1  143.19   18.60
   2  -9  -1  183.08   17.40
   2  -9  -1  169.38   18.10
   2   9   0    9.50   17.90
  -2   9   0  -12.50   15.60
   2  -9   0  -17.70   22.00
  -2  -9   0    1.90   13.90
   2  -9   0   12.00   12.40
  -2  -9   0   -4.40   11.00
   2  -9   0    9.40   12.00
  -2   9  -1   80.39   19.60
   2   9   1  105.49   21.20
  -2  -9  -1  125.09   14.50
   2  -9   1  140.69   25.70
  -2  -9  -1  116.19   18.70
   2  -9   1  119.59   16.30
   2  -9   1  124.39   15.70
   2   9   2   77.29   20.90
  -2   9  -2  128.89   21.00
  -2  -9  -2  127.79   13.90
  -2  -9  -2   86.39   18.50
   2  -9   2  112.39   25.40
   2  -9   2  140.59   15.20
   2  -9   2  111.49   16.70
  -2   9  -3   33.60   19.90
   2   9   3   73.49   20.70
   2  -9   3   56.99   14.50
   2  -9   3   52.99   23.80
  -2  -9  -3   92.39   12.00
  -2  -9  -3   55.19   18.00
  -2   9  -4   29.80   20.80
   2   9   4   16.60   21.90
   2  -9   4  103.39   16.40
  -2  -9  -4   59.99   11.10
   2  -9   4    0.70   23.50
  -2  -9  -4   31.30   17.80
   2   9   5   53.99   25.90
  -2   9  -5   80.09   23.50
  -2  -9  -5   27.60   10.00
   2  -9   5   -0.40   14.80
   2  -9   5   41.50   24.10
  -2  -9  -5   19.80   18.70
  -2 -10   5   -5.10   16.00
   2 -10  -5   21.00   14.00
   2  10  -4   23.50   22.50
  -2  10   4   32.40   21.80
   2 -10  -4   70.89   19.00
  -2 -10   4   52.49   17.00
  -2 -10   4   39.10   16.60
   2 -10  -4   85.79   15.00
   2  10  -3   -7.20   20.70
  -2  10   3  -11.00   18.00
   2 -10  -3   -0.80   15.80
  -2 -10   3  -11.30   15.90
  -2 -10   3   -6.20   14.50
   2 -10  -3   11.70   12.70
  -2  10   2   -3.20   17.90
   2  10  -2    3.80   19.70
   2 -10  -2   12.50   13.20
  -2 -10   2   13.30   15.00
   2 -10  -2  -10.00   14.40
  -2 -10   2   -1.40   13.30
  -2  10   1   -9.80   18.10
   2  10  -1   -1.70   19.30
  -2 -10   1    7.10   13.10
   2 -10  -1   17.50   14.60
   2 -10  -1    8.20   13.20
  -2 -10   1   19.60   15.50
  -2  10   0  366.66   38.70
   2  10   0  319.67   33.70
  -2 -10   0  459.25   32.40
  -2 -10   0  430.46   36.40
   2 -10   0  413.16   33.30
   2 -10   0  372.86   33.80
   2  10   1    0.60   19.60
  -2  10  -1   10.30   18.70
   2 -10   1   10.60   13.70
   2 -10   1  -15.00   13.00
  -2 -10  -1   -1.50   11.80
  -2 -10  -1  -14.20   15.70
  -2  10  -2    5.90   19.70
   2  10   2   36.10   20.40
  -2 -10  -2   11.00   17.60
   2 -10   2   -2.50   13.30
   2 -10   2    5.10   14.40
  -2 -10  -2   34.90   12.20
  -2  10  -3   14.00   21.10
   2  10   3   20.10   20.50
   2 -10   3   23.60   14.70
  -2 -10  -3  -21.00   17.80
  -2 -10  -3    2.50   11.50
   2 -10   3  -11.50   13.20
   2  10   4   60.69   24.40
  -2  10  -4   31.50   23.30
   2 -10   4   13.90   16.20
  -2 -10  -4   10.00   19.40
  -2 -10  -4   26.30   12.40
  -2  11   2   28.10   21.30
   2  11  -2  -29.90   20.60
   2 -11  -2   -4.70   14.60
  -2 -11   2   20.60   17.90
   2 -11  -2   -1.10   17.40
  -2 -11   2    2.00   15.10
  -2  11   1   13.20   21.20
   2  11  -1   69.29   23.30
   2 -11  -1   52.29   16.00
  -2 -11   1   40.30   18.50
  -2 -11   1   59.29   16.20
   2 -11  -1   38.60   17.60
  -2  11   0   -3.40   21.20
   2  11   0  -12.30   20.70
  -2 -11   0    8.10   14.40
  -2 -11   0  -42.50   17.00
   2 -11   0   -8.30   16.70
   2 -11   0   22.70   14.90
   2  11   1   26.90   21.80
  -2  11  -1   79.59   23.20
   2 -11   1   75.29   17.20
  -2 -11  -1   42.50   15.60
  -2 -11  -1   65.49   20.30
   2 -11   1   48.90   17.90
   3   0 -10  182.88   18.50
   3   0 -10  194.48   24.30
   3   0  -9    1.30   16.60
   3   0  -9   -3.80   10.30
   3   0  -8   41.40   15.10
   3   0  -7    0.90   12.30
   3   0  -6 1590.04   87.09
  -3   0   6 1515.15   84.39
  -3   0   5   -1.80    7.90
  -3   0   5  -10.40    5.90
  -3   0   4 2002.40  110.89
  -3   0   4 2037.70  111.69
   3   0  -4 2171.68  113.49
  -3   0   3   -4.20    5.10
   3   0  -3   -4.20   10.20
  -3   0   3   -3.40   10.20
  -3   0   3    3.40    7.00
   3   0  -2 2706.03  137.39
  -3   0   2 2419.26  135.69
   3   0  -2 2594.44  135.09
  -3   0   2 2452.15  137.29
   3   0  -1   -5.70    9.00
   3   0  -1    3.50    4.70
  -3   0   1   -0.60    5.70
  -3   0   1    3.50    4.70
   3   0  -1   10.00    4.60
  -3   0   1    0.60    8.80
   3   0   0 4360.66  230.08
   3   0   0 4328.17  230.78
  -3   0   0 4383.06  230.58
  -3   0   0 4489.25  230.58
  -3   0   0 4054.09  230.78
   3   0   0 4446.26  230.48
   3   0   1   -3.80    5.70
  -3   0  -1    5.80    5.80
  -3   0  -1   -3.60    5.80
   3   0   1    5.00    8.50
   3   0   1   -2.40    3.70
   3   0   2 1485.15   80.49
   3   0   2 1445.06   77.39
  -3   0  -2 1430.86   78.19
   3   0   3   10.10    4.10
  -3   0  -3   -7.70    5.70
   3   0   3   10.30   10.10
  -3   0  -4  248.28   17.40
   3   0   4  256.07   15.70
   3   0   4  241.48   25.10
  -3   0  -5    3.50    8.30
  -3   0  -5  -10.80    6.90
  -3   0  -5   -7.40    6.10
   3   0   5    7.40   12.90
   3   0   5   -1.40    5.00
   3   0   6  138.49   20.30
  -3   0  -6  160.28   17.10
  -3   0  -6  169.88   16.00
   3   0   6  175.48   14.10
   3   0   7    9.90   18.60
   3   0   7    9.40    7.40
  -3   0  -7   -4.50    8.60
   3   0   8   13.00    8.90
   3   0   8  -24.20   19.90
  -3   0  -8    5.40   12.50
   3   0   9  -15.70   22.80
  -3   0  -9    2.40   11.90
   3   1 -10   48.00   19.40
   3   1 -10   11.40   11.70
   3   1 -10   11.50   19.30
   3  -1 -10   -8.00   11.70
   3  -1 -10  -13.20   18.80
   3  -1 -10   -0.40   10.60
   3   1  -9   35.50   16.80
   3   1  -9   24.60   10.60
   3  -1  -9    9.40   11.10
   3  -1  -9    9.70   17.10
   3  -1  -9   23.00    9.80
  -3  -1   9   44.30   11.60
  -3   1   8    2.80   14.70
   3   1  -8    4.90   14.30
   3  -1  -8   25.10   14.60
  -3  -1   8   23.90   10.00
   3  -1  -8   19.90    9.80
  -3   1   7  492.75   36.10
  -3  -1   7  474.75   31.50
   3  -1  -7  516.75   36.70
  -3   1   6  357.66   29.00
  -3  -1   6  393.86   26.00
  -3  -1   6  365.26   24.50
   3  -1  -6  370.46   28.80
  -3   1   5 1131.99   63.19
  -3  -1   5 1099.89   61.69
   3  -1  -5 1122.69   64.29
  -3  -1   5 1102.79   65.29
  -3  -1   5 1138.89   62.39
   3   1  -4  926.41   60.89
  -3   1   4 1002.30   57.09
   3   1  -4 1015.10   56.79
  -3   1   4 1033.00   56.69
  -3  -1   4  997.10   55.89
  -3  -1   4 1081.49   60.09
   3  -1  -4 1039.50   58.79
   3  -1  -4 1000.60   58.19
  -3  -1   4 1021.90   56.29
   3   1  -3  705.03   40.50
  -3   1   3  723.63   40.20
  -3   1   3  701.13   41.30
   3   1  -3  793.52   45.90
  -3  -1   3  703.53   44.70
  -3  -1   3  721.53   40.00
  -3  -1   3  684.23   40.30
   3  -1  -3  704.43   39.80
   3   1  -2  207.28   18.90
   3   1  -2  238.18   16.40
  -3   1   2  210.68   14.30
  -3   1   2  224.38   17.20
   3  -1  -2  258.37   16.80
  -3  -1   2  256.47   16.80
   3  -1  -2  222.68   14.60
  -3  -1   2  225.88   15.60
   3   1  -1   33.00   10.00
   3   1  -1   19.80    7.10
  -3   1   1   24.10    6.20
   3  -1  -1   16.20    7.80
  -3  -1   1   25.30    7.70
  -3  -1   1   20.00    4.80
  -3  -1   1   23.30    9.60
   3  -1  -1    4.60    5.60
  -3   1   0  364.96   22.80
  -3   1   0  401.76   22.60
   3   1   0  387.96   26.10
   3   1   0  379.26   24.10
   3  -1   0  405.16   22.60
   3  -1   0  386.16   22.70
  -3  -1   0  354.06   25.50
  -3  -1   0  386.36   24.00
   3  -1   0  382.56   23.50
   3   1   1 2843.32  144.19
   3   1   1 2739.83  146.69
   3   1   1 2655.73  145.59
   3  -1   1 2722.43  144.79
  -3  -1  -1 2637.64  145.69
   3  -1   1 2749.72  145.69
  -3  -1  -1 2716.83  145.39
  -3   1  -2  582.74   30.80
   3   1   2  552.34   32.60
   3   1   2  510.65   35.50
   3  -1   2  550.34   31.00
  -3  -1  -2  538.85   33.30
  -3  -1  -2  571.74   32.40
   3  -1   2  547.35   34.50
   3   1   3 2756.12  140.79
  -3   1  -3 2740.23  139.89
   3   1   3 2382.46  142.79
  -3  -1  -3 2610.64  140.79
   3  -1   3 2716.83  142.79
  -3  -1  -3 2593.34  140.89
   3  -1   3 2593.54  139.99
   3   1   4  266.67   27.90
   3   1   4  328.87   22.40
   3   1   4  360.16   18.00
  -3   1  -4  298.97   19.60
  -3  -1  -4  281.67   21.10
   3  -1   4  282.67   27.30
   3  -1   4  317.57   19.90
  -3  -1  -4  312.77   22.50
   3   1   5    1.40    4.40
   3   1   5    1.70   12.80
  -3   1  -5    3.20    5.80
   3  -1   5   12.90    6.20
  -3  -1  -5    4.60    7.60
  -3  -1  -5   13.40    9.00
   3  -1   5    8.80   13.20
   3   1   6   78.79   18.40
  -3   1  -6   85.29    9.40
  -3  -1  -6   49.99   13.50
  -3  -1  -6   85.39   12.50
  -3  -1  -6   87.19   11.30
   3  -1   6   55.29   17.90
   3  -1   6   94.29    9.60
   3   1   7   66.39   20.80
  -3   1  -7   66.89   10.40
  -3  -1  -7   58.49   13.80
  -3  -1  -7   69.09   16.20
   3  -1   7   52.99   20.10
   3  -1   7   72.99   10.20
  -3  -1  -7   67.59   11.60
   3   1   8  -36.90   19.80
  -3   1  -8   -4.10    9.60
   3  -1   8   18.60   10.70
  -3  -1  -8   26.80   15.00
  -3  -1  -8   -4.10   10.80
   3  -1   8  -14.40   19.90
  -3   1  -9  103.29   14.60
   3   1   9   97.39   27.00
  -3  -1  -9   83.59   19.30
  -3  -1  -9  129.39   14.10
   3  -1   9  115.09   14.30
  -3  -1  -9  142.29   17.30
   3   2 -10   -4.20   11.10
   3   2 -10   18.30   19.70
   3   2 -10   -9.20   18.80
  -3   2  10   15.00   19.40
   3  -2 -10    5.70   12.70
  -3  -2  10    4.80   13.30
   3  -2 -10  -12.90   11.90
   3  -2 -10    1.30   19.50
   3   2  -9   34.20   17.60
   3   2  -9   32.80   17.70
  -3   2   9   11.40   16.80
   3  -2  -9   32.80   11.00
   3  -2  -9   22.10   17.70
  -3  -2   9   30.50   12.30
   3  -2  -9   37.50   12.60
   3   2  -8  289.37   30.00
  -3   2   8  220.18   22.90
   3  -2  -8  255.67   25.30
   3  -2  -8  251.37   23.80
  -3  -2   8  238.68   22.50
   3   2  -7    7.80   12.90
  -3   2   7    9.30   12.00
   3  -2  -7   -1.90    7.60
  -3  -2   7   -6.80    9.20
  -3  -2   7    4.40    8.50
   3  -2  -7   -3.10   13.20
   3  -2  -7   -2.70    9.20
  -3   2   6  586.84   38.40
   3   2  -6  574.94   38.90
  -3  -2   6  595.14   36.30
   3  -2  -6  633.14   40.50
   3  -2  -6  616.94   35.40
  -3  -2   6  561.84   41.30
   3   2  -5    9.50    9.50
  -3   2   5   -6.30    8.40
  -3  -2   5   11.80   12.90
   3  -2  -5    2.40   10.40
   3  -2  -5   -8.20    6.10
  -3  -2   5   -0.90    6.60
  -3  -2   5   -3.80    7.10
   3   2  -4  535.25   33.40
  -3   2   4  555.44   32.20
   3   2  -4  604.24   37.20
  -3  -2   4  550.64   31.70
  -3  -2   4  550.34   38.30
   3  -2  -4  470.55   32.10
  -3  -2   4  518.55   31.80
   3  -2  -4  538.85   35.70
  -3   2   3    9.30    7.90
   3   2  -3   10.90    7.80
   3   2  -3   10.30   11.00
  -3   2   3   19.00    6.70
  -3  -2   3   17.30    6.30
   3  -2  -3   -2.30    9.10
  -3  -2   3   26.70   14.60
   3  -2  -3    5.40    6.00
  -3  -2   3   18.20    6.90
   3   2  -2  483.15   31.60
  -3   2   2  493.25   27.20
  -3   2   2  476.05   30.40
   3   2  -2  431.26   28.80
  -3   2   2  442.76   28.40
   3  -2  -2  393.26   29.60
  -3  -2   2  449.95   26.90
   3  -2  -2  461.95   27.00
  -3  -2   2  420.96   28.20
  -3  -2   2  460.15   31.80
   3  -2  -2  491.45   26.10
   3   2  -1   89.59   10.50
  -3   2   1   88.39   10.60
   3   2  -1   81.79   12.60
  -3   2   1   82.69    9.10
  -3   2   1  104.49    9.50
  -3  -2   1   69.59   12.00
   3  -2  -1   86.29    8.00
  -3  -2   1   87.19    7.60
   3  -2  -1   90.39    8.70
  -3  -2   1  101.99    9.60
  -3   2   0   36.70    6.20
  -3   2   0   33.50    6.40
   3   2   0   37.20   10.70
   3   2   0   47.10    9.30
  -3   2   0   27.80    8.00
  -3  -2   0   30.30    7.40
   3  -2   0   33.80    5.80
  -3  -2   0   25.00   12.60
   3  -2   0   24.70    7.80
  -3  -2   0   40.30    4.90
  -3   2  -1  771.92   42.40
  -3   2  -1  780.42   41.30
   3   2   1  715.03   44.60
   3   2   1  801.72   45.00
   3  -2   1  773.12   42.20
  -3  -2  -1  760.92   43.40
   3  -2   1  765.52   42.60
  -3  -2  -1  596.64   47.60
  -3  -2  -1  824.62   40.90
   3   2   2 4165.48  220.18
   3   2   2 4195.38  218.78
  -3  -2  -2 4121.89  218.38
   3  -2   2 4030.40  217.68
  -3  -2  -2 3980.60  218.98
   3   2   3  262.07   24.00
   3   2   3  276.87   21.90
  -3  -2  -3  248.38   19.20
   3  -2   3  246.78   17.60
  -3  -2  -3  274.27   22.90
   3   2   4  323.87   29.20
   3   2   4  354.26   24.90
  -3  -2  -4  312.07   22.70
  -3  -2  -4  312.37   25.80
   3  -2   4  319.67   21.00
  -3   2  -5   81.99    7.40
   3   2   5   58.69   16.00
   3   2   5   85.39   12.70
  -3  -2  -5   71.29   10.90
  -3  -2  -5   71.79   13.30
   3  -2   5   72.09    9.00
   3   2   6   13.90   16.50
  -3   2  -6   31.10    7.00
  -3  -2  -6    1.70    9.80
   3  -2   6   18.30    8.10
  -3  -2  -6    8.40   13.00
   3   2   7   67.39   21.50
  -3   2  -7   80.09    9.60
  -3  -2  -7   76.29   13.70
   3  -2   7   70.79   10.90
  -3  -2  -7   82.59   17.00
  -3   2  -8  296.47   23.20
   3   2   8  308.17   33.60
  -3  -2  -8  294.97   28.60
   3  -2   8  350.16   26.00
  -3  -2  -8  370.36   34.80
   3   2   9    3.90   23.50
   3  -2   9    7.60   12.20
  -3  -2  -9    5.40   15.10
  -3  -2  -9   24.80   20.70
   3   3 -10   27.10   20.30
   3   3 -10   10.80   11.20
   3   3 -10   44.90   20.60
  -3   3  10   42.20   20.40
   3  -3 -10    9.50   10.30
   3  -3 -10   -4.90   13.70
  -3  -3  10  -14.70   13.00
  -3   3   9   42.90   17.90
   3   3  -9   27.40   18.50
   3  -3  -9   38.10   13.70
  -3  -3   9   24.60   12.80
   3  -3  -9   32.80   10.50
   3  -3  -9   32.90   19.60
  -3   3   8   41.30   15.70
   3   3  -8   46.50   16.80
  -3  -3   8   47.70   12.10
   3  -3  -8   59.39   19.00
   3  -3  -8   48.20   13.40
  -3   3   7   56.29   14.30
   3   3  -7   83.79   16.20
  -3  -3   7   62.59   11.60
   3  -3  -7   46.50   17.50
   3  -3  -7   84.29   10.30
  -3  -3   7   48.50   10.70
  -3  -3   7   84.29   17.20
   3  -3  -7   65.09   12.90
   3   3  -6   65.49   13.10
  -3  -3   6   49.20    9.80
   3  -3  -6   53.29    8.60
  -3  -3   6   40.50   16.10
   3  -3  -6   49.70   11.10
   3  -3  -6   49.60   15.40
  -3  -3   6   48.70    9.50
   3   3  -5 2251.07  126.49
  -3   3   5 2358.56  125.59
   3  -3  -5 2372.36  124.39
  -3  -3   5 2391.36  128.99
   3  -3  -5 2390.76  128.19
  -3  -3   5 2334.47  124.49
  -3  -3   5 2095.49  126.09
   3   3  -4   -8.10    8.80
  -3   3   4    5.30    8.20
  -3  -3   4    7.50    7.20
   3  -3  -4    7.50    6.00
  -3  -3   4    2.50    6.50
   3  -3  -4   -6.60   11.00
  -3  -3   4    4.00   15.60
  -3   3   3   11.30    8.50
   3   3  -3   -4.00    8.90
   3   3  -3   -4.00   14.10
   3  -3  -3   20.30   11.40
   3  -3  -3   13.70    6.00
  -3  -3   3   25.50   12.30
  -3  -3   3   15.50    7.10
  -3  -3   3    0.80    6.50
  -3   3   2  123.69   13.80
   3   3  -2  134.59   15.00
   3   3  -2  141.19   13.20
  -3   3   2  127.79   13.60
  -3  -3   2  127.69   15.10
   3  -3  -2  111.69   13.30
  -3  -3   2  145.59   12.90
  -3  -3   2  127.39   13.10
   3  -3  -2  135.09   12.40
   3   3  -1  203.38   19.30
  -3   3   1  211.58   15.40
  -3   3   1  190.68   19.20
   3   3  -1  211.78   22.90
   3  -3  -1  201.48   14.30
  -3  -3   1  176.88   16.20
  -3  -3   1  165.18   17.10
  -3  -3   1  167.58   13.90
   3  -3  -1  170.08   19.30
  -3   3   0  234.88   17.30
  -3   3   0  249.18   20.10
   3   3   0  253.47   23.00
   3   3   0  221.98   20.50
  -3  -3   0  221.18   18.30
   3  -3   0  195.98   20.20
  -3  -3   0  232.48   15.20
   3  -3   0  249.68   16.50
  -3  -3   0  238.28   23.70
   3   3   1 2422.96  133.69
   3   3   1 2635.74  134.29
  -3   3  -1 2559.34  132.69
  -3   3  -1 2393.86  132.69
   3  -3   1 2450.85  132.09
   3  -3   1 2361.36  132.79
  -3  -3  -1 2473.65  131.09
  -3  -3  -1 2390.56  132.79
  -3  -3  -1 2542.95  134.59
  -3   3  -2  214.48   19.20
   3   3   2  222.18   19.00
  -3   3  -2  187.78   16.70
   3   3   2  243.68   21.80
   3  -3   2  202.08   15.90
   3  -3   2  215.78   17.40
  -3  -3  -2  204.38   12.00
  -3  -3  -2  193.68   18.20
  -3  -3  -2  188.68   18.30
  -3   3  -3  252.17   16.50
   3   3   3  192.28   21.90
  -3  -3  -3  247.78   17.90
  -3  -3  -3  193.48   18.70
   3  -3   3  215.78   16.50
   3  -3   3  153.38   16.70
   3   3   4  458.65   35.20
   3  -3   4  458.45   27.80
  -3  -3  -4  418.76   29.50
  -3  -3  -4  462.85   33.70
   3   3   5  376.76   35.40
  -3  -3  -5  429.86   28.40
  -3  -3  -5  412.66   33.20
   3  -3   5  367.46   25.90
   3   3   6   44.20   18.40
  -3  -3  -6   63.89   17.30
   3  -3   6   82.19   10.80
  -3  -3  -6   63.59   12.80
   3   3   7   -7.90   18.70
  -3  -3  -7   -2.80   17.40
  -3  -3  -7    5.80   12.20
   3  -3   7   15.80   10.00
   3   3   8   10.80   22.30
  -3  -3  -8    3.00   13.80
  -3  -3  -8   -6.90   19.70
   3  -3   8    8.80   10.80
   3   3   9    3.20   24.80
   3  -3   9   43.50   14.00
  -3  -3  -9   18.10   23.90
  -3  -3  -9   34.10   16.70
  -3   4  10   75.89   23.40
   3   4 -10   70.09   22.00
   3   4 -10   72.69   12.00
  -3  -4  10   53.79   16.40
   3  -4 -10   40.80   10.90
   3  -4 -10   57.09   16.80
  -3   4   9   32.00   18.40
   3   4  -9   31.40   19.10
   3  -4  -9   60.79   10.20
  -3  -4   9   60.99   14.80
   3  -4  -9   62.39   15.90
  -3   4   8   54.59   16.60
   3   4  -8   31.50   17.70
   3  -4  -8   45.60   20.90
  -3  -4   8   57.19   13.00
   3  -4  -8   44.10   14.00
  -3  -4   8   37.50   18.40
   3   4  -7  289.87   30.70
  -3   4   7  263.17   28.00
   3  -4  -7  385.26   37.20
  -3  -4   7  234.78   26.40
  -3  -4   7  259.87   24.70
   3  -4  -7  279.97   26.70
   3  -4  -7  293.47   20.70
  -3  -4   7  302.57   22.60
  -3   4   6  383.16   32.10
   3   4  -6  426.36   33.90
  -3  -4   6  452.75   28.30
   3  -4  -6  426.96   31.50
  -3  -4   6  430.26   30.40
  -3  -4   6  442.36   39.40
   3  -4  -6  435.76   27.10
   3  -4  -6  463.65   38.70
  -3   4   5   29.20   11.20
   3   4  -5   16.40   11.70
  -3  -4   5   15.90    8.90
   3  -4  -5   18.30    6.80
  -3  -4   5   24.40   18.80
   3  -4  -5   21.20   10.10
   3  -4  -5   30.10   15.00
  -3  -4   5   14.80    7.50
   3   4  -4  900.21   53.59
  -3   4   4  941.61   52.69
   3  -4  -4  875.11   53.99
   3  -4  -4  919.11   55.89
  -3  -4   4  907.81   50.69
  -3  -4   4  871.31   52.89
  -3  -4   4  949.40   56.89
   3  -4  -4  874.01   50.29
  -3   4   3  807.32   52.89
   3   4  -3  847.82   56.59
  -3  -4   3  981.20   52.29
  -3  -4   3  989.20   56.29
   3  -4  -3  983.60   53.09
   3  -4  -3  987.50   51.59
  -3  -4   3  827.62   52.49
   3  -4  -3  991.40   56.29
   3   4  -2   18.50   10.30
  -3   4   2    3.70    8.30
  -3  -4   2    6.70   12.00
  -3  -4   2    9.60    6.20
  -3  -4   2    6.30    8.10
   3  -4  -2    5.10   11.30
   3  -4  -2   -9.50    5.70
   3  -4  -2   11.50    7.50
  -3   4   1 1479.55   76.49
   3   4  -1 1426.76   78.19
   3  -4  -1 1320.87   78.49
  -3  -4   1 1389.46   75.59
  -3  -4   1 1383.26   79.69
   3  -4  -1 1333.67   75.79
   3  -4  -1 1443.26   76.09
  -3  -4   1 1377.76   76.59
  -3   4   0  988.40   53.79
  -3   4   0  902.61   51.79
   3   4   0  899.61   53.49
   3  -4   0  956.90   50.49
   3  -4   0  919.01   53.89
  -3  -4   0  883.61   50.29
  -3  -4   0  901.91   52.19
   3  -4   0  878.31   50.99
  -3  -4   0  928.91   55.89
  -3   4  -1   53.69   11.00
  -3   4  -1   43.80    9.50
   3   4   1   64.19   12.20
  -3  -4  -1   41.30   14.60
  -3  -4  -1   51.19    6.10
   3  -4   1   56.39    8.20
   3  -4   1   59.29    6.30
   3  -4   1   44.90   11.30
  -3  -4  -1   51.29    9.90
  -3   4  -2  769.72   46.40
  -3   4  -2  832.32   46.20
  -3  -4  -2  797.82   46.30
  -3  -4  -2  760.32   42.60
  -3  -4  -2  862.61   50.29
   3  -4   2  746.23   44.70
   3  -4   2  760.22   46.20
  -3   4  -3   40.30   10.00
   3   4   3   24.80   14.60
  -3   4  -3   27.40   11.40
   3  -4   3   46.60   12.30
   3  -4   3   36.80    8.10
  -3  -4  -3   48.20   14.80
  -3   4  -4  348.57   24.20
   3   4   4  369.96   31.80
  -3   4  -4  303.17   28.50
  -3  -4  -4  326.77   25.60
   3  -4   4  340.87   25.20
   3  -4   4  330.27   23.20
  -3  -4  -4  337.87   32.00
  -3   4  -5   -9.20   13.20
   3   4   5   30.20   17.10
  -3  -4  -5   12.60   10.90
  -3  -4  -5    5.70   16.10
   3  -4   5    2.80    8.40
   3   4   6   41.60   19.90
  -3   4  -6   63.99   16.40
  -3  -4  -6   58.69   19.10
  -3  -4  -6   65.59   13.90
   3  -4   6   43.30   10.80
   3   4   7   26.70   20.50
  -3   4  -7    4.60   16.40
  -3  -4  -7    8.90   13.60
   3  -4   7   13.60   10.60
  -3  -4  -7   -6.30   19.80
   3   4   8   14.50   22.90
  -3   4  -8   20.60   19.40
  -3  -4  -8   67.09   24.80
  -3  -4  -8   42.70   15.90
   3  -4   8   38.00   12.60
  -3   5   9   15.40   19.00
   3   5  -9    9.80   19.80
   3  -5  -9   23.70   16.10
   3  -5  -9   40.20    9.70
  -3  -5   9   31.20   14.40
  -3  -5   9   52.29   21.80
   3   5  -8   -8.80   16.80
  -3   5   8   -5.50   15.70
   3  -5  -8   14.90   14.40
  -3  -5   8    1.40   12.50
  -3  -5   8    7.80    9.60
   3  -5  -8    4.00    7.90
  -3  -5   8  -16.80   19.50
   3   5  -7  453.45   40.30
  -3   5   7  513.65   38.80
   3  -5  -7  478.35   47.10
   3  -5  -7  448.16   32.10
  -3  -5   7  541.15   32.20
   3  -5  -7  464.05   36.60
  -3  -5   7  510.75   45.20
  -3  -5   7  530.85   35.70
  -3   5   6   23.30   13.40
   3   5  -6   21.70   15.00
  -3  -5   6   30.30   21.90
  -3  -5   6   40.20   11.60
   3  -5  -6   42.00   13.00
  -3  -5   6   30.50    9.10
   3  -5  -6   20.00    8.00
   3  -5  -6   29.50   19.80
   3   5  -5   14.10   13.30
  -3  -5   5   -3.20    9.30
  -3  -5   5   11.10    8.20
   3  -5  -5  -17.70    6.70
   3  -5  -5   16.20   16.50
  -3  -5   5   18.40   17.70
   3  -5  -5    9.40   10.90
  -3   5   4   77.69   14.80
   3   5  -4   84.09   14.50
  -3  -5   4   81.99   16.80
  -3  -5   4   97.09   11.80
  -3  -5   4  104.69   11.00
   3  -5  -4   84.19   17.30
   3  -5  -4   81.39   12.70
   3  -5  -4  105.49    9.80
   3   5  -3 1065.59   57.99
  -3   5   3  973.00   55.79
  -3  -5   3  991.90   60.09
  -3  -5   3  870.21   55.99
   3  -5  -3  969.30   53.99
   3  -5  -3  985.90   56.19
   3  -5  -3  943.61   59.59
   3   5  -2   44.20   12.40
  -3   5   2   71.19   10.70
  -3  -5   2   63.39    8.70
  -3  -5   2   47.90    9.40
   3  -5  -2   51.29    9.50
   3  -5  -2   41.20    7.60
  -3  -5   2   48.00   14.80
   3  -5  -2   41.20   13.40
  -3   5   1  105.59   11.80
   3   5  -1   78.39   13.50
   3  -5  -1  110.29   10.50
   3  -5  -1   81.19   14.60
  -3  -5   1   90.89   11.00
  -3  -5   1   87.79    9.40
  -3  -5   1   86.79   15.70
   3  -5  -1   84.79    9.50
   3   5   0  308.77   27.70
  -3   5   0  345.97   24.80
  -3  -5   0  306.57   24.70
  -3  -5   0  359.96   31.70
   3  -5   0  340.87   28.70
   3  -5   0  328.17   22.50
   3  -5   0  374.16   22.10
  -3  -5   0  328.47   21.40
   3   5   1   90.29   14.30
  -3   5  -1  108.59   12.80
   3  -5   1  114.29   15.00
  -3  -5  -1   77.49   17.30
  -3  -5  -1  111.89   13.30
   3  -5   1   99.89   10.70
  -3  -5  -1  122.69   11.20
   3  -5   1  113.49   11.80
  -3   5  -2    6.40   13.20
  -3   5  -2    7.30   10.00
   3   5   2    1.00   11.50
  -3  -5  -2   -0.30   14.50
  -3  -5  -2    6.50    9.80
   3  -5   2    7.90    4.60
   3  -5   2   -0.10   11.00
   3  -5   2  -10.60    7.30
  -3  -5  -2    8.60    5.00
   3   5   3 1487.75   85.79
  -3   5  -3 1625.94   83.19
  -3   5  -3 1489.75   84.09
  -3  -5  -3 1390.36   82.89
  -3  -5  -3 1504.65   86.89
  -3  -5  -3 1511.05   79.29
   3  -5   3 1413.16   81.79
   3  -5   3 1423.36   82.99
  -3   5  -4   90.69   15.40
   3   5   4   73.89   18.80
  -3   5  -4   84.29   13.70
  -3  -5  -4   98.69   19.40
   3  -5   4   76.49   11.40
   3  -5   4   86.49   14.00
  -3  -5  -4   91.89   13.40
  -3   5  -5   17.20   14.70
   3   5   5   22.40   17.30
  -3   5  -5   24.20   11.90
  -3  -5  -5   20.40   19.00
   3  -5   5    1.60    9.20
  -3  -5  -5    8.70   11.50
   3  -5   5  -10.30   13.50
   3   5   6   24.50   19.70
  -3   5  -6    1.70   16.60
  -3  -5  -6   -6.10   20.10
   3  -5   6   -6.30   10.00
  -3  -5  -6   -6.50   12.80
  -3   5  -7  108.29   20.80
   3   5   7   85.69   22.90
   3  -5   7   98.59   14.20
  -3  -5  -7  103.59   25.50
  -3  -5  -7   97.79   17.40
   3   5   8   30.00   24.10
  -3   5  -8   22.00   20.10
  -3  -5  -8    6.30   17.20
   3  -5   8    6.90   12.60
  -3  -5  -8   18.30   24.80
  -3   6   9   -8.40   19.80
   3   6  -9   20.40   20.40
  -3  -6   9   31.60   23.90
  -3  -6   9   40.40   15.80
   3  -6  -9   43.80   18.00
   3  -6  -9   63.69   11.60
  -3   6   8   32.60   17.80
   3   6  -8    9.30   19.50
   3  -6  -8    9.80   15.70
   3  -6  -8   27.30    9.70
  -3  -6   8   42.30   10.50
  -3  -6   8   14.10   14.00
  -3  -6   8    0.00   22.90
   3   6  -7   -8.20   16.60
  -3   6   7   16.40   15.30
  -3  -6   7   -4.90    9.60
  -3  -6   7  -19.80   12.10
  -3  -6   7    8.50   22.80
   3  -6  -7   10.20    8.70
   3  -6  -7   -6.20   13.20
   3   6  -6  330.47   35.10
  -3   6   6  326.57   32.80
  -3  -6   6  367.06   28.80
   3  -6  -6  361.66   24.90
   3  -6  -6  308.27   33.00
   3  -6  -6  381.26   31.00
  -3  -6   6  283.27   35.30
  -3  -6   6  382.66   25.10
  -3   6   5    7.00   13.50
   3   6  -5   17.80   14.50
   3  -6  -5   35.70   19.40
  -3  -6   5    7.20    8.90
  -3  -6   5   23.00   11.00
   3  -6  -5    5.00   12.10
  -3  -6   5    9.10   17.60
  -3   6   4  149.69   21.50
   3   6  -4  224.18   20.90
   3  -6  -4  191.18   18.60
  -3  -6   4  208.38   20.80
   3  -6  -4  218.48   21.00
   3  -6  -4  203.18   24.00
  -3  -6   4  171.58   21.70
  -3  -6   4  252.67   20.50
  -3   6   3   14.00   10.90
   3   6  -3    5.80   13.10
   3  -6  -3    9.80    8.40
  -3  -6   3    6.20    9.10
  -3  -6   3  -23.60   14.70
   3  -6  -3   -4.10   14.30
  -3  -6   3    6.90   10.70
   3  -6  -3   -0.50    9.40
  -3   6   2  153.88   15.20
   3   6  -2  171.68   17.90
  -3  -6   2  121.99   13.00
   3  -6  -2  121.69   15.40
  -3  -6   2  138.99   19.40
   3  -6  -2  148.99   19.50
  -3  -6   2  131.79   13.60
  -3   6   1   69.79   12.50
   3   6  -1   64.49   14.50
  -3  -6   1   91.69   17.60
   3  -6  -1   65.99   16.00
   3  -6  -1   93.29   10.60
   3  -6  -1   91.49   10.80
  -3  -6   1   70.19    9.70
  -3  -6   1   74.59   11.40
   3   6   0  590.84   39.90
  -3   6   0  544.15   40.30
   3  -6   0  547.45   41.40
   3  -6   0  581.94   34.80
  -3  -6   0  609.24   43.50
  -3  -6   0  537.25   33.90
   3  -6   0  588.84   34.60
   3   6   1  640.04   43.90
  -3   6  -1  644.54   41.70
  -3  -6  -1  657.43   47.80
  -3  -6  -1  638.34   37.50
  -3  -6  -1  662.53   41.60
   3  -6   1  630.14   39.30
   3  -6   1  712.83   38.00
   3  -6   1  629.74   44.60
  -3   6  -2  231.18   24.70
   3   6   2  207.88   21.50
  -3  -6  -2  258.47   17.30
   3  -6   2  244.08   21.20
   3  -6   2  261.87   17.20
  -3  -6  -2  261.07   23.60
   3  -6   2  237.88   22.30
  -3  -6  -2  232.28   25.20
   3   6   3  151.58   20.50
  -3   6  -3  172.68   18.70
  -3  -6  -3  134.59   16.50
   3  -6   3  150.28   15.10
  -3  -6  -3  174.28   13.50
   3  -6   3  185.18   19.40
  -3  -6  -3  193.78   23.20
  -3   6  -4  155.38   19.70
   3   6   4  113.79   23.10
   3  -6   4  107.19   18.10
   3  -6   4  166.98   15.80
  -3  -6  -4  141.09   16.80
  -3  -6  -4  163.58   11.90
  -3  -6  -4  173.48   24.40
  -3   6  -5   50.99   18.30
   3   6   5   96.49   20.40
   3  -6   5   77.99   16.50
  -3  -6  -5   67.39   22.30
   3  -6   5   56.29   12.10
  -3  -6  -5   47.70   14.20
  -3   6  -6  123.89   19.60
   3   6   6  123.39   23.90
  -3   6  -6  100.39   20.80
   3  -6   6  108.99   15.20
  -3  -6  -6  109.59   25.40
  -3  -6  -6  127.69   18.30
   3  -6   6  118.09   17.00
  -3   6  -7   55.89   21.50
   3   6   7   80.79   25.10
  -3  -6  -7   90.99   18.60
  -3  -6  -7   62.79   29.30
   3  -6   7   98.59   15.00
   3   6   8  -22.80   23.40
  -3   6  -8   29.10   34.50
  -3  -6  -8   16.60   18.60
   3  -6   8   18.40   13.80
  -3   7   8  -34.20   18.40
   3   7  -8   -8.40   20.60
  -3  -7   8   -8.50   24.70
  -3  -7   8    9.40   15.50
   3  -7  -8   32.90   18.00
   3  -7  -8   -2.50   10.50
  -3   7   7    4.30   17.50
   3   7  -7   13.80   19.30
   3  -7  -7   15.20   10.10
  -3  -7   7  -14.60   13.30
   3  -7  -7    6.50   16.00
  -3  -7   7   10.20   10.40
  -3  -7   7    9.00   27.30
  -3   7   6   61.89   17.20
   3   7  -6   34.50   19.00
  -3  -7   6   63.79   11.10
   3  -7  -6   41.60   10.30
  -3  -7   6   95.19   25.50
  -3  -7   6   37.60   14.30
   3  -7  -6   57.29   16.10
  -3   7   5  403.46   37.00
   3   7  -5  499.85   38.90
  -3  -7   5  406.96   29.00
   3  -7  -5  299.07   35.40
   3  -7  -5  442.86   28.10
  -3  -7   5  417.66   42.80
   3  -7  -5  399.46   33.70
  -3  -7   5  424.56   32.20
  -3   7   4  263.77   23.30
   3   7  -4  230.28   24.70
  -3  -7   4  247.48   24.10
   3  -7  -4  282.07   26.10
  -3  -7   4  256.57   24.50
   3  -7  -4  190.48   26.40
   3  -7  -4  261.67   20.90
  -3  -7   4  262.17   26.70
  -3   7   3   35.10   13.30
   3   7  -3   32.50   16.20
   3  -7  -3   27.20   18.90
  -3  -7   3   37.10   18.50
  -3  -7   3   32.90   12.30
   3  -7  -3   35.20   12.10
  -3  -7   3   13.30   10.10
   3  -7  -3   24.70    9.30
   3   7  -2    7.50   15.20
  -3   7   2   -1.90   12.10
   3  -7  -2    8.50   10.10
  -3  -7   2    5.30    9.40
   3  -7  -2    5.60    8.50
  -3  -7   2   20.90   18.20
   3  -7  -2  -23.60   16.20
  -3   7   1  227.68   20.60
   3   7  -1  211.48   22.70
  -3  -7   1  232.18   22.80
  -3  -7   1  217.68   26.00
  -3  -7   1  240.48   20.70
   3  -7  -1  244.18   25.60
   3  -7  -1  274.87   21.20
  -3   7   0  129.99   16.70
   3   7   0  126.69   18.90
  -3  -7   0  122.19   16.20
   3  -7   0  149.99   14.30
   3  -7   0  129.69   20.80
  -3  -7   0  152.98   23.50
   3  -7   0  166.18   14.10
   3   7   1  368.96   34.90
  -3   7  -1  378.06   32.20
   3  -7   1  346.87   37.00
   3  -7   1  416.26   28.50
  -3  -7  -1  396.66   31.60
  -3  -7  -1  389.06   40.90
   3  -7   1  408.36   26.30
  -3  -7  -1  388.66   25.90
   3   7   2   31.40   15.70
  -3   7  -2   25.00   14.40
   3  -7   2   43.60    8.50
   3  -7   2   24.90   16.60
  -3  -7  -2   48.60    8.30
  -3  -7  -2   32.60   21.40
   3  -7   2   27.10   10.80
  -3  -7  -2   23.60   13.30
  -3   7  -3    4.40   15.00
   3   7   3   24.00   16.90
  -3  -7  -3   14.60   13.50
   3  -7   3   36.20   16.80
   3  -7   3    7.80   11.00
  -3  -7  -3    8.20   20.10
  -3  -7  -3   20.60    7.40
   3   7   4    4.10   19.40
  -3   7  -4   21.00   16.10
  -3  -7  -4   -8.80   20.60
  -3  -7  -4   -2.70    6.40
   3  -7   4  -11.90   16.60
  -3  -7  -4    0.10   14.20
   3  -7   4   -8.80   10.90
   3   7   5  284.07   30.70
  -3   7  -5  264.27   28.10
   3  -7   5  308.27   27.60
  -3  -7  -5  255.67   32.70
  -3  -7  -5  275.47   25.80
   3  -7   5  320.87   27.10
   3   7   6  -28.90   20.20
  -3   7  -6   19.80   19.00
   3  -7   6    1.20   20.10
  -3  -7  -6   -4.20   16.90
   3  -7   6    5.60   12.70
   3   7   7    9.90   23.30
  -3   7  -7  -16.10   19.70
  -3  -7  -7  -45.20   17.40
   3  -7   7    8.10   14.00
  -3   8   7   25.30   19.10
   3   8  -7   19.60   21.00
   3  -8  -7    6.50   11.20
  -3  -8   7   11.80   11.50
   3  -8  -7   14.80   17.60
  -3  -8   7   33.40   16.10
   3   8  -6    8.00   19.80
  -3   8   6   -1.90   16.60
  -3  -8   6  -26.50   23.30
  -3  -8   6   -2.50   14.60
   3  -8  -6    3.60   10.60
  -3  -8   6   18.60   11.10
   3  -8  -6   15.20   16.90
  -3   8   5   10.00   18.90
   3   8  -5  -19.20   18.40
   3  -8  -5  -12.10   10.10
  -3  -8   5  -10.50   11.00
  -3  -8   5   -4.60   12.70
   3  -8  -5  -16.30   14.40
  -3  -8   5   31.50   20.90
  -3   8   4  100.59   18.40
   3   8  -4   79.19   20.40
  -3  -8   4   42.50   20.90
   3  -8  -4   81.59   16.50
  -3  -8   4   69.99   14.10
   3  -8  -4   88.39   12.50
  -3   8   3  189.98   20.30
   3   8  -3  126.39   21.30
   3  -8  -3   87.39   23.20
  -3  -8   3  166.28   16.90
   3  -8  -3  169.98   15.50
   3  -8  -3  140.89   18.00
  -3  -8   3  158.68   25.10
  -3  -8   3  168.58   17.90
  -3   8   2  503.65   39.90
   3   8  -2  517.15   42.70
   3  -8  -2  544.65   47.70
   3  -8  -2  563.04   37.30
  -3  -8   2  422.56   47.70
   3  -8  -2  560.94   35.10
  -3  -8   2  572.94   36.00
  -3  -8   2  547.35   37.10
   3   8  -1  142.09   20.30
  -3   8   1  138.99   18.00
  -3  -8   1  146.19   14.80
  -3  -8   1   80.79   23.80
   3  -8  -1  122.29   14.30
   3  -8  -1  135.49   15.30
  -3  -8   1  123.29   16.60
   3  -8  -1  165.98   23.90
   3   8   0    1.20   16.00
  -3   8   0   22.00   14.40
   3  -8   0   -2.20   12.40
  -3  -8   0   -7.50   20.00
   3  -8   0   14.80   10.70
   3  -8   0    3.90   19.30
  -3  -8   0   -7.30   13.10
  -3  -8   0    8.10    9.50
  -3   8  -1  -18.20   14.20
   3   8   1  -41.70   15.10
  -3  -8  -1   -3.00   20.20
   3  -8   1   -7.40    9.60
  -3  -8  -1   17.30   14.20
   3  -8   1   25.20   19.90
  -3  -8  -1    6.50    9.00
   3  -8   1   -9.70   10.20
  -3   8  -2  220.58   22.60
   3   8   2  190.58   23.40
  -3  -8  -2  221.88   21.50
  -3  -8  -2  147.09   27.80
   3  -8   2  197.48   25.80
   3  -8   2  206.98   19.40
   3  -8   2  208.48   19.70
  -3   8  -3   24.70   16.90
   3   8   3    5.20   17.80
   3  -8   3    3.50   19.40
  -3  -8  -3   21.90    8.60
  -3  -8  -3   -8.40   15.00
   3  -8   3   -4.80    8.40
   3  -8   3    7.40   12.00
   3   8   4  147.49   25.50
  -3   8  -4  128.89   21.70
   3  -8   4   80.19   15.40
   3  -8   4  109.39   23.10
  -3  -8  -4  139.29   11.70
  -3  -8  -4   92.79   19.10
   3   8   5    3.10   22.50
  -3   8  -5    8.60   19.90
   3  -8   5   26.30   20.60
  -3  -8  -5   -5.20    6.50
  -3  -8  -5   -2.70   16.90
   3  -8   5   15.70   14.10
   3   8   6   22.50   22.90
  -3   8  -6   16.40   22.10
  -3  -8  -6  -19.70   18.30
   3  -8   6  -21.00   22.30
   3  -8   6   44.40   15.50
  -3   9   6  -17.80   18.60
   3   9  -6   29.30   23.20
   3  -9  -6   42.10   13.30
  -3  -9   6   39.50   13.40
  -3  -9   6    5.30   16.10
   3  -9  -6   14.50   18.70
   3   9  -5   34.40   21.10
  -3   9   5   24.20   20.60
  -3  -9   5   24.70   15.40
   3  -9  -5   12.50   17.00
  -3  -9   5   17.50   13.00
   3  -9  -5   11.90   12.30
   3   9  -4   29.30   20.20
  -3   9   4  -18.20   16.80
   3  -9  -4   31.00   12.10
  -3  -9   4   11.30   15.00
  -3  -9   4    3.00   13.50
   3  -9  -4  -27.20   14.60
  -3   9   3  144.39   20.00
   3   9  -3   99.89   22.00
  -3  -9   3   94.49   16.30
   3  -9  -3  141.09   15.50
   3  -9  -3  126.59   18.20
  -3  -9   3  113.69   17.90
  -3   9   2   32.60   17.00
   3   9  -2   37.20   19.30
   3  -9  -2   -1.20   13.20
   3  -9  -2   17.10   11.60
  -3  -9   2   46.90   13.10
  -3  -9   2   37.10   14.50
   3   9  -1  173.88   25.00
  -3   9   1  202.08   22.70
   3  -9  -1  225.78   19.20
  -3  -9   1  182.18   18.30
   3  -9  -1  217.38   19.90
  -3  -9   1  183.08   20.90
   3   9   0   13.90   18.90
  -3   9   0   26.90   16.50
   3  -9   0   54.09   22.60
  -3  -9   0   26.10   11.30
   3  -9   0   18.30   12.20
   3  -9   0   14.90   12.00
  -3  -9   0   20.90   15.70
   3   9   1   16.40   18.40
  -3   9  -1   50.29   17.90
  -3  -9  -1   48.60   11.40
   3  -9   1   31.70   12.90
   3  -9   1   80.59   25.10
  -3  -9  -1   17.70   15.70
   3  -9   1   25.00   14.50
   3   9   2   29.60   19.20
  -3   9  -2   36.50   18.20
  -3  -9  -2   38.10   16.90
  -3  -9  -2   50.49   10.80
   3  -9   2   11.00   23.30
   3  -9   2   48.00   12.10
   3  -9   2   45.30   14.40
   3   9   3   35.80   20.90
  -3   9  -3   59.69   20.80
  -3  -9  -3   84.59   12.00
   3  -9   3  109.79   25.50
   3  -9   3  100.59   16.30
   3  -9   3   86.69   12.30
  -3  -9  -3   89.69   19.90
   3   9   4  106.19   25.80
  -3   9  -4   85.39   23.40
  -3  -9  -4  104.39   12.20
  -3  -9  -4   72.89   20.30
   3  -9   4  116.09   17.70
   3  -9   4   94.49   26.30
   3   9   5   25.80   25.80
  -3   9  -5   35.30   23.10
   3  -9   5  -14.80   23.70
  -3  -9  -5   41.20   19.70
   3  -9   5   68.69   17.00
   3 -10  -5   43.20   14.70
  -3  10   4   77.29   21.40
   3  10  -4   53.99   23.40
   3 -10  -4   61.19   19.10
   3 -10  -4   73.59   15.00
  -3 -10   4   65.29   17.60
  -3 -10   4   56.09   18.20
  -3  10   3  -18.10   17.10
   3  10  -3   57.19   21.60
  -3 -10   3    5.50   17.00
  -3 -10   3    3.20   14.70
   3 -10  -3    6.00   15.70
   3 -10  -3  -10.10   12.70
   3  10  -2   36.30   21.30
  -3  10   2   10.00   18.70
   3 -10  -2   19.70   13.40
  -3 -10   2    8.70   15.60
   3 -10  -2   17.90   15.10
  -3 -10   2   10.70   14.10
  -3  10   1  -26.50   17.00
   3  10  -1   16.40   20.40
  -3 -10   1    5.30   15.90
   3 -10  -1    4.30   13.00
  -3 -10   1    6.90   12.80
   3 -10  -1    5.90   13.80
   3  10   0  256.97   28.50
  -3  10   0  180.88   25.10
   3 -10   0  216.38   21.50
   3 -10   0  230.28   22.00
  -3 -10   0  234.38   25.00
  -3 -10   0  233.58   20.40
   3  10   1  -15.10   19.30
  -3  10  -1    9.10   19.20
  -3 -10  -1   -7.00   16.90
   3 -10   1    3.00   13.60
  -3 -10  -1   12.30   12.10
   3 -10   1    8.50   13.60
  -3  10  -2   -0.10   19.60
   3  10   2    6.60   19.80
   3 -10   2   -7.80   13.80
  -3 -10  -2   -8.20   17.60
  -3 -10  -2   -5.20   11.60
  -3  10  -3    6.00   21.40
   3  10   3   17.50   21.50
  -3 -10  -3    0.50   19.20
   3 -10   3   11.50   15.20
  -3 -10  -3    5.50   11.40
   3  11  -1   33.20   23.00
  -3  11   1   78.99   23.20
   3 -11  -1   47.90   17.70
  -3 -11   1   63.19   16.40
  -3 -11   1   37.30   19.70
   3 -11  -1   75.59   16.70
   3  11   0   -5.90   21.40
  -3  11   0   39.50   21.60
  -3 -11   0   17.10   14.40
  -3 -11   0   -1.90   18.30
   3 -11   0   10.00   16.90
   3 -11   0   22.20   15.60
   4   0 -10  119.59   22.60
   4   0 -10  170.48   17.40
   4   0  -9   -2.50   15.80
   4   0  -8   73.09   16.30
   4   0  -7  -17.90   11.70
  -4   0   6 1085.89   62.19
  -4   0   5   -1.00    8.40
   4   0  -4   75.79    8.60
  -4   0   4   83.19   10.30
   4   0  -3    4.20   10.90
   4   0  -3   -2.30    5.20
  -4   0   3    8.20    7.40
  -4   0   3   -8.50   10.70
  -4   0   2  192.28   16.00
   4   0  -2  192.98   13.40
   4   0  -2  230.68   22.20
  -4   0   2  183.18   17.80
  -4   0   2  214.08   13.80
  -4   0   1   -0.70   10.30
   4   0  -1   -0.80    5.00
   4   0  -1   -0.90    5.00
  -4   0   1   -6.20    6.70
   4   0  -1   13.00   11.30
  -4   0   1    6.20    5.90
   4   0   0 9809.92  508.35
  -4   0   0 9190.98  508.65
  -4   0   0 9540.15  508.45
   4   0   0 9999.00  508.75
   4   0   0 9483.55  507.85
  -4   0  -1   -0.80    6.40
   4   0   1   -0.10    4.40
   4   0   1   -1.80    6.90
  -4   0  -1   -2.20    8.10
   4   0   1   -6.60    8.90
   4   0   2  198.78   12.90
   4   0   2  221.18   21.20
  -4   0  -2  195.18   15.60
   4   0   3    6.60   10.60
  -4   0  -3   -5.60    6.60
   4   0   3   -2.20    4.00
   4   0   4    7.10    4.70
  -4   0  -4   13.50    7.00
   4   0   4    3.00   12.70
  -4   0  -5   -2.20    7.60
   4   0   5    4.60    5.30
   4   0   5    0.70   14.10
  -4   0  -6  640.54   39.20
   4   0   6  676.23   37.20
   4   0   6  615.04   48.70
  -4   0  -7   -2.30   10.00
   4   0   7   -4.10    7.30
   4   0   7  -11.00   19.30
  -4   0  -8   26.00   12.10
   4   0   8   19.20   22.90
   4   0   8   18.70    8.80
   4   0   9  -27.40   23.60
  -4   0  -9   -8.20   13.20
   4   1 -10   14.20   17.80
   4   1 -10  -25.90   11.00
   4   1 -10   14.80   19.30
   4  -1 -10   17.90   18.80
   4  -1 -10   16.90   10.80
   4  -1 -10   -2.90   11.80
   4   1  -9  120.09   19.30
   4   1  -9  157.68   21.40
   4  -1  -9  132.39   20.50
  -4  -1   9  127.49   15.20
   4  -1  -9  122.89   15.30
   4  -1  -9  131.79   14.10
   4   1  -8   26.60   13.80
  -4  -1   8   16.30   10.00
   4  -1  -8   13.00   14.70
   4   1  -7  941.31   54.99
  -4  -1   7  878.81   53.99
   4  -1  -7  910.81   56.59
  -4  -1   7  930.61   52.79
   4   1  -6  224.18   21.00
  -4   1   6  247.08   22.90
  -4  -1   6  245.98   19.30
   4  -1  -6  267.07   25.10
  -4  -1   6  229.78   21.40
   4   1  -5   87.79   10.50
  -4   1   5   74.69   10.80
  -4   1   5   70.89   11.40
  -4  -1   5   66.59    9.10
  -4  -1   5   82.79   10.50
   4  -1  -5   75.59   12.60
  -4  -1   5   94.19   15.40
  -4   1   4  647.24   35.50
  -4   1   4  580.94   36.80
   4   1  -4  623.84   35.40
   4  -1  -4  581.64   38.20
  -4  -1   4  600.54   35.00
   4  -1  -4  582.74   34.60
  -4  -1   4  601.54   35.70
  -4  -1   4  601.54   41.50
   4   1  -3  113.69   12.30
  -4   1   3  119.69   11.50
   4   1  -3  128.69   16.60
  -4  -1   3  135.89   11.90
   4  -1  -3  119.69   11.90
   4  -1  -3  140.39   14.20
  -4  -1   3   78.29   15.00
   4  -1  -3  120.19   12.20
  -4  -1   3  114.99   10.80
  -4   1   2  439.06   28.80
   4   1  -2  534.45   33.90
   4   1  -2  494.35   28.30
  -4  -1   2  461.95   27.50
  -4  -1   2  455.15   28.60
   4  -1  -2  464.45   28.70
   4  -1  -2  484.95   31.60
  -4  -1   2  475.15   34.00
   4   1  -1 1954.90  117.89
  -4   1   1 2149.28  116.29
   4   1  -1 2270.67  116.39
   4  -1  -1 2173.68  115.99
   4  -1  -1 2242.08  117.29
  -4  -1   1 2233.58  116.89
  -4  -1   1 2162.78  115.79
   4   1   0  121.29   11.10
   4   1   0  116.19   12.80
  -4   1   0  119.89   12.60
   4  -1   0  139.19   11.60
   4  -1   0  129.29   12.70
  -4  -1   0  104.59   12.40
   4  -1   0  118.29   11.40
  -4  -1   0  142.89   11.60
  -4   1  -1 1862.31  102.29
   4   1   1 1894.61  104.19
   4   1   1 1966.90  103.49
   4   1   1 1975.40  101.59
   4  -1   1 1923.91  103.49
   4  -1   1 1871.41  102.09
   4  -1   1 1868.71  101.99
   4  -1   1 2013.60  102.49
  -4  -1  -1 1892.71  102.99
  -4  -1  -1 1838.52  103.29
   4   1   2  655.53   40.10
  -4   1  -2  726.23   39.20
   4   1   2  714.03   37.40
   4   1   2  723.83   43.10
   4  -1   2  687.33   38.70
  -4  -1  -2  680.23   40.70
   4  -1   2  726.93   42.40
  -4  -1  -2  683.23   40.10
   4   1   3  148.29   17.30
   4   1   3  173.18   15.80
  -4   1  -3  161.28   13.10
  -4  -1  -3  178.18   16.90
   4  -1   3  164.98   12.40
  -4  -1  -3  161.18   15.60
   4  -1   3  149.39   16.40
  -4   1  -4  402.96   23.70
   4   1   4  342.77   31.60
   4   1   4  421.36   25.40
  -4  -1  -4  353.76   26.00
   4  -1   4  376.16   30.80
   4  -1   4  398.16   23.20
  -4  -1  -4  352.66   25.30
   4   1   5    6.50   14.40
  -4   1  -5    5.50    7.00
   4  -1   5   11.60    6.40
  -4  -1  -5    6.00    8.40
   4  -1   5    8.70   15.10
   4   1   6   28.30   17.80
  -4   1  -6   38.30    9.00
  -4  -1  -6   17.90   10.20
  -4  -1  -6   40.50   11.50
   4  -1   6   38.60    8.40
   4  -1   6   50.69   18.30
  -4   1  -7  259.17   21.50
   4   1   7  215.58   28.70
  -4  -1  -7  256.77   24.00
   4  -1   7  272.27   29.10
   4  -1   7  270.27   20.70
  -4   1  -8  -12.70   10.90
   4   1   8   20.70   23.10
  -4  -1  -8    0.80   12.20
   4  -1   8   -7.10    9.50
   4  -1   8  -15.00   22.40
  -4   1  -9   53.79   13.90
   4   1   9   81.09   26.70
  -4  -1  -9   73.99   16.00
   4  -1   9   69.59   12.80
   4   2 -10   38.70   20.80
   4   2 -10  -11.90   18.20
   4  -2 -10   16.40   12.20
   4  -2 -10   30.00   13.70
  -4  -2  10   20.30   13.50
  -4   2   9   55.29   17.50
   4   2  -9   76.69   18.40
   4  -2  -9   80.99   14.00
  -4  -2   9   70.79   13.70
   4  -2  -9   53.99   18.80
   4  -2  -9   49.40   11.80
  -4   2   8  650.13   45.40
   4   2  -8  740.43   47.00
   4  -2  -8  721.93   48.40
   4  -2  -8  629.64   41.00
   4  -2  -8  703.83   42.70
  -4  -2   8  662.73   42.10
  -4  -2   8  636.94   46.40
  -4   2   7   29.30   13.20
   4   2  -7   57.19   13.70
   4  -2  -7   41.90   14.60
  -4  -2   7   68.09   17.10
  -4  -2   7   39.90   11.50
  -4  -2   7   68.79   10.60
   4  -2  -7   59.89   11.40
   4   2  -6  482.75   33.80
  -4   2   6  478.95   32.70
  -4  -2   6  480.55   38.90
   4  -2  -6  512.85   30.90
  -4  -2   6  486.25   31.50
  -4  -2   6  514.95   32.20
   4  -2  -6  530.25   37.10
   4   2  -5   67.79   10.90
  -4   2   5   74.59   10.10
  -4  -2   5   68.29    9.50
  -4  -2   5   55.99   15.50
   4  -2  -5   49.90   13.00
  -4  -2   5   79.89    9.70
   4  -2  -5   74.09    9.20
  -4   2   4   71.19    8.60
   4   2  -4   73.99    9.70
  -4   2   4   60.39   10.40
   4  -2  -4   73.79    9.40
  -4  -2   4   55.09   15.40
  -4  -2   4   45.20    8.60
  -4  -2   4   67.49    8.50
   4  -2  -4   54.39   12.00
   4   2  -3  190.08   17.60
   4   2  -3  189.28   18.50
  -4   2   3  232.68   18.70
  -4   2   3  217.48   14.20
   4  -2  -3  247.88   16.60
   4  -2  -3  182.58   15.30
  -4  -2   3  235.48   17.40
  -4  -2   3  194.78   16.00
   4  -2  -3  173.58   20.70
  -4  -2   3  162.78   20.80
  -4   2   2 1665.23   87.79
   4   2  -2 1654.73   87.79
   4   2  -2 1824.22   90.19
  -4  -2   2 1655.03   86.99
  -4  -2   2 1471.25   87.89
   4  -2  -2 1442.86   86.99
  -4  -2   2 1600.94   89.99
   4  -2  -2 1611.94   88.89
   4   2  -1   86.79   13.00
  -4   2   1  130.69    9.10
  -4   2   1  102.69    9.80
   4   2  -1   98.99   10.90
  -4   2   1  101.79    9.50
  -4  -2   1   84.59   12.40
  -4  -2   1   97.49    8.50
   4  -2  -1   93.19   11.60
   4  -2  -1  104.69    9.40
  -4  -2   1  132.39   11.60
  -4   2   0  948.51   52.49
   4   2   0  931.71   54.29
   4   2   0 1027.90   55.99
  -4  -2   0  956.80   55.69
   4  -2   0 1024.70   52.79
   4  -2   0  886.61   53.49
  -4  -2   0  934.21   53.79
  -4  -2   0  974.10   51.89
  -4   2  -1    7.30    4.90
   4   2   1    6.40    9.40
   4   2   1   -1.50    9.40
  -4  -2  -1    5.00    7.80
  -4  -2  -1   -6.60   10.10
   4  -2   1    5.00    6.60
   4  -2   1    8.30    5.70
   4   2   2 1594.64   86.29
   4   2   2 1617.74   87.99
  -4   2  -2 1661.03   83.89
   4  -2   2 1531.55   84.79
  -4  -2  -2 1519.85   85.79
   4  -2   2 1533.75   86.69
  -4  -2  -2 1530.55   86.69
   4   2   3   96.19   12.30
   4   2   3   91.79   16.90
  -4   2  -3  116.59    8.70
  -4  -2  -3   96.89   13.10
  -4  -2  -3   94.79   11.00
   4  -2   3   89.09    8.70
   4  -2   3   89.69   13.70
   4   2   4   19.00   14.00
   4   2   4   13.70   10.10
  -4   2  -4    7.60    5.50
  -4  -2  -4   14.60    8.70
   4  -2   4   18.70   12.80
   4  -2   4   12.60    6.20
  -4  -2  -4   29.40   11.30
   4   2   5   -3.80   11.00
  -4   2  -5   -3.70    5.50
   4   2   5    0.60   15.50
   4  -2   5   -9.10   14.60
  -4  -2  -5  -13.20   11.60
  -4  -2  -5   12.60   10.90
   4  -2   5    3.70    7.00
   4   2   6   57.19   18.80
  -4   2  -6   62.79    7.80
   4  -2   6   57.09    9.40
  -4  -2  -6   39.10   11.90
  -4  -2  -6   46.40   14.40
  -4   2  -7   48.20    9.20
   4   2   7   45.50   21.20
  -4  -2  -7   24.40   15.90
  -4  -2  -7   41.10   13.40
   4  -2   7   25.50   10.00
   4   2   8  233.08   33.20
  -4   2  -8  344.57   23.90
  -4  -2  -8  350.36   31.30
   4  -2   8  376.26   26.90
  -4  -2  -8  337.57   35.90
   4   2   9   -3.90   25.20
  -4  -2  -9   66.69   20.70
  -4  -2  -9    5.00   16.30
   4  -2   9   18.70   12.30
   4   3 -10    1.60   19.20
  -4   3  10  -28.00   18.10
   4  -3 -10   -7.80   10.90
  -4  -3  10   -2.00   13.60
   4  -3 -10   19.40   14.40
  -4   3   9  101.69   19.40
   4   3  -9  118.89   20.60
   4  -3  -9  111.29   16.80
  -4  -3   9   85.19   14.80
   4  -3  -9  120.09   13.60
   4  -3  -9  100.09   22.10
   4   3  -8  118.39   18.00
  -4   3   8   66.39   15.90
   4  -3  -8   83.19   11.80
   4  -3  -8   61.69   13.80
   4  -3  -8   47.40   19.20
  -4  -3   8   73.39   13.50
  -4  -3   8   70.59   19.20
  -4  -3   8   81.59   13.70
   4   3  -7  171.98   19.10
  -4   3   7  180.98   17.60
  -4  -3   7  157.68   22.60
   4  -3  -7  164.78   17.00
  -4  -3   7  211.58   20.10
  -4  -3   7  148.59   15.50
   4  -3  -7  164.58   22.10
   4   3  -6  253.97   24.90
  -4   3   6  222.78   22.40
   4  -3  -6  244.78   23.70
  -4  -3   6  274.17   20.70
  -4  -3   6  263.37   25.00
   4  -3  -6  227.28   19.50
  -4  -3   6  259.57   21.30
  -4   3   5 1035.10   56.89
   4   3  -5 1072.69   58.49
   4  -3  -5 1048.90   61.39
  -4  -3   5 1032.50   56.49
  -4  -3   5  846.02   58.89
   4  -3  -5  993.30   56.39
   4   3  -4   45.80   10.50
  -4   3   4   65.59    8.70
  -4  -3   4   47.20    8.40
   4  -3  -4   42.60   12.70
  -4  -3   4   41.90    9.00
   4  -3  -4   49.20    8.00
  -4  -3   4   57.09   18.30
  -4   3   3  118.79    9.80
   4   3  -3   97.09   12.40
  -4  -3   3   90.89   15.40
   4  -3  -3   92.99   13.70
  -4  -3   3   88.89   10.00
  -4  -3   3   91.49   10.90
   4  -3  -3   98.19    9.90
  -4   3   2  168.88   13.00
  -4   3   2  125.79   17.10
   4   3  -2  143.89   13.70
  -4   3   2  132.09   12.50
  -4  -3   2  134.99   15.60
  -4  -3   2  118.79   14.20
   4  -3  -2  126.89   14.20
  -4  -3   2  154.68   13.50
   4  -3  -2  134.69   11.40
  -4   3   1 1500.85   80.79
   4   3  -1 1591.24   84.89
  -4   3   1 1507.55   81.59
  -4   3   1 1543.65   83.09
   4   3  -1 1517.25   82.89
  -4  -3   1 1470.05   82.09
  -4  -3   1 1464.35   80.79
  -4  -3   1 1496.55   84.59
   4  -3  -1 1480.55   81.19
   4  -3  -1 1437.86   82.99
  -4   3   0   -0.70    6.50
  -4   3   0    4.40    6.30
  -4   3   0    2.80    8.50
   4   3   0   -4.20   11.70
   4   3   0    5.00    9.40
   4  -3   0   -4.50    5.90
  -4  -3   0    2.50   11.80
   4  -3   0   -7.70    8.80
  -4  -3   0    8.10    8.10
  -4  -3   0    7.20    4.70
   4   3   1 2907.61  158.38
  -4   3  -1 3054.09  157.08
   4   3   1 3019.20  158.78
  -4   3  -1 2912.71  157.18
  -4   3  -1 3019.80  155.98
   4  -3   1 2858.31  156.68
  -4  -3  -1 2900.11  158.98
  -4  -3  -1 2955.70  155.58
  -4  -3  -1 2894.01  157.58
   4  -3   1 2807.62  157.08
   4   3   2    1.20   12.20
   4   3   2  -10.40   10.40
  -4   3  -2    4.70    6.70
  -4  -3  -2   -0.40   11.70
   4  -3   2   -2.50    6.30
  -4  -3  -2    4.30    8.40
   4  -3   2    3.20    7.20
   4   3   3   63.09   14.30
   4  -3   3   70.59    8.30
  -4  -3  -3   60.89   14.10
  -4  -3  -3   69.19   10.60
   4   3   4   49.80   15.20
  -4  -3  -4   39.30   14.00
   4  -3   4   70.29    8.60
  -4  -3  -4   51.69   13.40
   4   3   5  291.37   28.40
  -4  -3  -5  343.37   31.10
  -4  -3  -5  335.27   26.10
   4   3   6   63.29   20.80
  -4  -3  -6   87.99   18.40
  -4  -3  -6  103.39   14.90
   4  -3   6  111.69   12.20
   4   3   7   73.49   22.30
   4  -3   7   98.99   13.00
  -4  -3  -7   87.69   20.50
  -4  -3  -7  118.79   16.70
   4   3   8  -28.10   23.10
   4  -3   8   -6.20   10.90
  -4  -3  -8  -32.30   20.20
  -4  -3  -8  -20.40   14.50
  -4   4  10   61.79   21.10
   4   4 -10   33.10   22.20
   4  -4 -10   81.09   18.00
   4  -4 -10   56.39   11.80
  -4  -4  10   43.10   16.00
   4   4  -9   16.40   18.70
  -4   4   9   42.80   17.40
  -4  -4   9   16.20   13.20
   4  -4  -9   33.30   15.20
   4  -4  -9   12.50    9.30
   4   4  -8  140.39   20.60
  -4   4   8  146.99   19.20
  -4  -4   8  112.79   23.50
  -4  -4   8  151.88   17.00
   4  -4  -8  159.08   24.60
  -4  -4   8  174.48   16.60
   4  -4  -8  187.88   17.70
   4  -4  -8  139.89   18.00
  -4   4   7   40.70   13.60
   4   4  -7   41.70   15.40
  -4  -4   7   52.89   12.20
   4  -4  -7   66.79   10.00
   4  -4  -7   29.20   19.00
  -4  -4   7   93.29   20.70
  -4  -4   7   32.60   11.20
   4  -4  -7   56.59   13.70
  -4   4   6  284.57   25.90
   4   4  -6  372.46   29.40
  -4  -4   6  351.86   25.20
   4  -4  -6  297.87   26.60
   4  -4  -6  332.97   22.60
   4  -4  -6  335.07   34.40
  -4  -4   6  294.27   23.30
  -4  -4   6  285.67   29.10
   4   4  -5  156.18   17.20
  -4   4   5  195.88   19.40
  -4  -4   5  157.38   14.20
  -4  -4   5  170.78   25.30
   4  -4  -5  192.48   18.80
  -4  -4   5  177.48   17.90
   4  -4  -5  186.78   16.20
   4  -4  -5  166.08   20.20
  -4   4   4  215.28   18.90
   4   4  -4  230.18   22.40
   4  -4  -4  187.38   20.30
  -4  -4   4  200.38   21.90
   4  -4  -4  215.18   17.40
  -4  -4   4  241.38   18.70
  -4   4   3   82.99   10.50
  -4  -4   3   80.39   11.30
   4  -4  -3   86.89    9.20
   4  -4  -3   51.69   14.00
  -4  -4   3   56.19   14.40
  -4  -4   3   72.69    9.20
  -4   4   2   85.69    9.90
   4   4  -2   64.09   12.20
  -4  -4   2   92.29   11.70
  -4  -4   2   65.19   14.90
  -4  -4   2   79.99    9.00
   4  -4  -2   70.69   13.90
   4  -4  -2   85.09    9.20
  -4   4   1 1576.54   83.69
   4   4  -1 1568.34   85.89
  -4  -4   1 1539.95   84.59
  -4  -4   1 1570.84   83.29
   4  -4  -1 1481.15   86.19
  -4  -4   1 1535.95   87.59
   4  -4  -1 1500.25   83.69
   4   4   0 1859.61  103.59
  -4   4   0 1963.80  102.99
  -4   4   0 1861.51  101.59
   4  -4   0 1820.52  101.39
  -4  -4   0 1849.11  102.29
  -4  -4   0 1898.71  100.59
  -4  -4   0 1935.01  105.19
   4  -4   0 1825.22  103.09
  -4   4  -1 1031.00   59.29
  -4   4  -1 1112.79   59.69
  -4  -4  -1 1018.30   59.89
   4  -4   1 1038.40   60.19
  -4  -4  -1 1076.29   63.29
   4  -4   1 1099.59   56.99
   4  -4   1 1000.60   58.49
  -4  -4  -1 1034.10   56.89
   4   4   2  321.47   28.20
  -4   4  -2  287.47   25.10
  -4   4  -2  357.36   23.60
   4  -4   2  314.77   21.90
  -4  -4  -2  317.67   18.40
  -4  -4  -2  312.07   30.70
   4  -4   2  307.27   23.90
  -4  -4  -2  335.27   24.30
  -4   4  -3   47.60    8.80
   4   4   3   21.70   15.60
  -4   4  -3   32.30   11.80
   4  -4   3   29.40    9.30
   4  -4   3   24.10    9.40
  -4  -4  -3   47.50   15.20
  -4  -4  -3   35.10   10.70
   4   4   4   45.60   16.00
  -4   4  -4   29.70   13.70
   4  -4   4   51.09    8.90
  -4  -4  -4   41.00   11.60
  -4  -4  -4   31.00   16.00
  -4   4  -5  144.79   19.10
   4   4   5  131.89   21.40
  -4  -4  -5  132.59   16.00
   4  -4   5  130.29   13.10
  -4  -4  -5  111.19   20.10
  -4   4  -6  126.89   20.10
   4   4   6  116.59   23.30
  -4  -4  -6  150.08   22.50
   4  -4   6  124.39   13.80
  -4  -4  -6  140.99   17.20
  -4   4  -7   24.40   18.60
   4   4   7   35.90   22.40
  -4  -4  -7   43.80   15.80
  -4  -4  -7   -6.50   21.30
   4  -4   7   16.90   10.80
  -4   4  -8   73.99   21.20
   4   4   8   66.09   25.20
  -4  -4  -8   35.60   24.80
   4  -4   8   36.80   13.30
  -4  -4  -8   45.90   18.00
   4   5  -9   45.70   20.20
  -4   5   9   25.20   18.20
   4  -5  -9   37.40   16.10
   4  -5  -9   29.20   10.20
  -4  -5   9   31.40   15.10
  -4  -5   9   84.39   24.20
   4   5  -8   -0.60   17.60
  -4   5   8    4.60   15.50
   4  -5  -8   -6.90   13.40
  -4  -5   8   -3.40   11.00
   4  -5  -8    2.30    8.50
  -4  -5   8   17.10   21.50
  -4  -5   8   -1.50   12.50
  -4   5   7  576.64   40.50
   4   5  -7  555.94   43.10
  -4  -5   7  555.84   50.29
  -4  -5   7  586.14   36.60
  -4  -5   7  563.74   38.80
   4  -5  -7  542.95   49.00
   4  -5  -7  589.04   35.10
   4  -5  -7  522.45   40.00
  -4   5   6   47.90   13.00
   4   5  -6   34.40   14.90
  -4  -5   6   30.00    9.80
   4  -5  -6   24.00   12.90
  -4  -5   6   50.19   23.70
  -4  -5   6   31.20   11.70
   4  -5  -6   22.00    8.70
   4  -5  -6    0.80   18.60
  -4   5   5   19.50   11.10
   4   5  -5   -0.90   12.90
   4  -5  -5   19.30   17.10
   4  -5  -5   15.00   11.10
  -4  -5   5    9.20    9.60
  -4  -5   5   26.30   19.20
   4  -5  -5    4.30    9.00
  -4  -5   5   17.70    9.30
  -4   5   4   18.40   12.00
   4   5  -4   12.80   12.60
   4  -5  -4   17.00    7.60
   4  -5  -4   19.40   10.20
  -4  -5   4   19.70    9.50
   4  -5  -4   14.20   15.20
  -4  -5   4    9.50    8.90
  -4  -5   4   13.50   15.20
  -4   5   3  724.53   43.40
   4   5  -3  780.92   46.60
   4  -5  -3  674.33   46.60
  -4  -5   3  674.03   48.90
  -4  -5   3  717.63   48.90
   4  -5  -3  758.92   42.50
  -4  -5   3  773.42   45.20
   4  -5  -3  733.73   48.70
   4   5  -2  185.48   18.00
  -4   5   2  197.28   18.50
  -4  -5   2  180.28   18.50
   4  -5  -2  185.38   17.60
  -4  -5   2  185.28   20.30
   4  -5  -2  185.78   19.50
   4  -5  -2  186.58   16.00
  -4  -5   2  166.58   16.10
  -4   5   1  430.06   27.60
   4   5  -1  395.96   30.90
  -4  -5   1  410.76   25.30
   4  -5  -1  385.56   26.00
  -4  -5   1  409.16   28.00
  -4  -5   1  413.96   34.70
   4  -5  -1  381.96   31.70
   4  -5  -1  419.16   26.20
   4   5   0   49.10   12.60
  -4   5   0   52.49   10.10
  -4  -5   0   32.60    6.60
  -4  -5   0    8.70   14.70
   4  -5   0   30.90    7.20
   4  -5   0   21.90    7.70
  -4  -5   0   33.70   10.20
   4  -5   0   43.10   12.80
   4   5   1  192.38   18.80
  -4   5  -1  188.28   19.50
  -4  -5  -1  184.48   13.80
   4  -5   1  190.08   14.20
  -4  -5  -1  179.98   20.90
   4  -5   1  194.48   18.20
   4  -5   1  158.68   15.90
  -4   5  -2  207.38   17.80
  -4   5  -2  215.38   21.70
   4   5   2  196.28   20.20
   4  -5   2  208.78   22.70
   4  -5   2  206.28   13.20
  -4  -5  -2  170.88   17.10
  -4  -5  -2  186.98   13.60
   4  -5   2  190.78   18.00
  -4  -5  -2  174.28   22.00
  -4   5  -3  778.52   50.39
   4   5   3  745.93   53.49
  -4   5  -3  865.61   48.40
   4  -5   3  836.92   49.00
   4  -5   3  800.82   47.30
  -4  -5  -3  797.42   54.79
  -4  -5  -3  796.42   49.50
  -4   5  -4    1.60   10.40
  -4   5  -4    2.30   14.00
   4   5   4   10.10   17.30
  -4  -5  -4  -19.20   11.60
   4  -5   4   27.00   11.20
   4  -5   4    1.60    8.90
  -4  -5  -4   -1.30   17.60
   4   5   5    2.00   17.60
  -4   5  -5    8.50   15.90
  -4  -5  -5   -9.80   12.80
   4  -5   5   -1.40    9.40
  -4  -5  -5    4.40   19.00
   4   5   6    2.90   20.40
  -4   5  -6   28.90   17.80
   4  -5   6   36.10   11.30
  -4  -5  -6   36.10   15.40
  -4  -5  -6   17.50   21.60
  -4   5  -7  117.19   23.40
   4   5   7  112.59   25.40
  -4  -5  -7  160.98   21.10
  -4  -5  -7  185.28   27.70
   4  -5   7   93.69   15.20
  -4   5  -8   -1.20   20.20
   4   5   8  -35.80   22.90
   4  -5   8  -33.20   12.50
  -4  -5  -8   -4.90   17.90
  -4  -5  -8  -10.80   25.40
   4   6  -9   85.89   22.90
  -4   6   9   94.79   21.50
   4  -6  -9   81.19   18.60
  -4  -6   9   91.49   18.10
   4  -6  -9   93.09   13.10
  -4  -6   9   65.29   29.80
   4   6  -8   51.99   20.50
  -4   6   8    6.70   16.70
  -4  -6   8   30.30   14.90
   4  -6  -8   40.50   10.60
  -4  -6   8   29.40   24.40
  -4  -6   8   43.30   12.30
   4  -6  -8   33.20   16.60
   4   6  -7   25.20   18.10
  -4   6   7   33.10   15.20
   4  -6  -7   29.90    9.80
  -4  -6   7   32.00   11.50
  -4  -6   7   48.60   14.10
  -4  -6   7   61.49   24.80
   4  -6  -7   45.80   15.30
  -4   6   6  290.87   29.80
   4   6  -6  388.96   34.30
  -4  -6   6  297.77   36.90
   4  -6  -6  309.37   24.40
  -4  -6   6  340.97   28.50
   4  -6  -6  314.77   29.70
  -4  -6   6  353.56   25.00
   4  -6  -6  246.98   31.80
  -4   6   5  147.79   17.00
   4   6  -5  144.69   19.50
   4  -6  -5  136.89   17.00
  -4  -6   5  123.09   22.50
   4  -6  -5  121.99   13.10
  -4  -6   5  154.28   14.50
  -4  -6   5  135.09   15.60
   4  -6  -5  144.89   24.10
  -4   6   4  156.18   16.80
   4   6  -4  122.79   18.50
   4  -6  -4  103.89   20.20
   4  -6  -4  122.49   15.20
  -4  -6   4  131.09   14.30
  -4  -6   4  109.09   14.40
   4  -6  -4  136.09   12.40
  -4  -6   4  117.29   20.30
  -4   6   3  265.97   24.10
   4   6  -3  241.58   23.90
  -4  -6   3  305.87   22.70
  -4  -6   3  282.37   26.40
   4  -6  -3  304.07   24.30
  -4  -6   3  267.17   26.20
   4  -6  -3  284.97   32.20
   4  -6  -3  293.67   21.30
  -4   6   2  154.28   15.20
   4   6  -2  159.88   18.20
  -4  -6   2  147.09   14.80
  -4  -6   2  136.29   20.40
   4  -6  -2  111.09   18.40
  -4  -6   2  126.29   12.90
   4  -6  -2  153.18   16.50
   4  -6  -2  183.28   16.20
  -4   6   1   13.80   10.70
   4   6  -1   15.80   13.50
   4  -6  -1    3.20    8.40
   4  -6  -1    6.60   14.10
  -4  -6   1   12.20   18.90
  -4  -6   1   18.10    7.50
   4  -6  -1   16.70    8.60
  -4  -6   1   27.30   16.70
   4   6   0  608.74   41.40
  -4   6   0  554.74   37.80
   4  -6   0  605.04   34.90
  -4  -6   0  609.94   45.10
   4  -6   0  577.24   35.90
  -4  -6   0  601.84   38.50
  -4  -6   0  567.14   34.40
   4  -6   0  573.64   41.90
   4   6   1    8.50   13.00
  -4   6  -1   19.70   11.40
  -4  -6  -1   14.40   11.80
   4  -6   1    2.10    7.40
  -4  -6  -1   11.80   16.70
  -4  -6  -1   12.00    6.50
   4  -6   1    7.70   14.40
   4  -6   1   13.60    8.50
  -4   6  -2  180.88   18.60
   4   6   2  164.18   19.50
   4  -6   2  209.58   14.30
  -4  -6  -2  193.18   18.70
   4  -6   2  167.98   15.70
  -4  -6  -2  180.48   14.40
   4  -6   2  187.98   20.10
  -4  -6  -2  173.38   23.90
   4   6   3  106.49   19.10
  -4   6  -3  118.59   17.00
   4  -6   3  137.89   13.90
  -4  -6  -3  118.69   16.50
  -4  -6  -3   97.49   23.00
   4  -6   3  134.49   17.50
  -4  -6  -3  117.89   11.20
   4   6   4   42.70   20.80
  -4   6  -4   61.89   17.00
   4  -6   4   65.29   11.50
  -4  -6  -4   35.80   21.30
   4  -6   4   74.59   15.50
  -4  -6  -4   42.10   14.80
  -4   6  -5  -20.00   13.20
  -4   6  -5    4.20   16.50
   4   6   5    9.80   19.10
  -4  -6  -5   25.80   14.90
  -4  -6  -5  -12.50   20.90
   4  -6   5   20.10   14.10
   4  -6   5    9.30   10.70
   4   6   6   42.20   23.10
  -4   6  -6   98.99   21.20
  -4  -6  -6  110.09   19.00
  -4  -6  -6  106.59   25.30
   4  -6   6  100.59   14.70
  -4   6  -7   10.70   20.20
   4   6   7   24.60   24.00
  -4  -6  -7   33.10   18.50
   4  -6   7   51.49   13.80
  -4   7   8   11.00   18.40
   4   7  -8   22.00   20.60
   4  -7  -8    3.30   10.80
  -4  -7   8    8.90   15.80
  -4  -7   8    4.70   12.00
   4  -7  -8    8.00   16.40
   4   7  -7   -5.00   19.20
  -4   7   7   17.60   16.90
  -4  -7   7    0.60   14.30
   4  -7  -7   14.50   10.40
  -4  -7   7    8.40   27.50
   4  -7  -7  -15.30   14.80
  -4  -7   7  -19.80   10.90
  -4   7   6  -14.90   14.40
   4   7  -6  -27.80   17.10
  -4  -7   6  -11.90   10.50
  -4  -7   6  -10.70   12.60
  -4  -7   6   11.20   24.00
   4  -7  -6   25.20   15.00
   4  -7  -6   -9.10    9.50
   4   7  -5  417.46   38.60
  -4   7   5  370.56   34.90
  -4  -7   5  390.86   31.70
  -4  -7   5  410.96   29.70
   4  -7  -5  405.66   28.30
  -4  -7   5  422.26   42.80
   4  -7  -5  423.46   33.30
   4  -7  -5  307.07   36.80
   4   7  -4  109.99   19.60
  -4   7   4  103.79   16.90
   4  -7  -4  140.09   13.40
   4  -7  -4  131.39   16.40
   4  -7  -4  117.59   22.40
  -4  -7   4  110.59   14.90
  -4  -7   4  136.09   22.30
  -4   7   3   66.69   13.80
   4   7  -3   54.59   17.50
   4  -7  -3   74.79   11.00
  -4  -7   3   63.59   14.10
   4  -7  -3   63.59   19.10
  -4  -7   3   53.29   19.90
  -4  -7   3   76.39   12.20
   4  -7  -3   42.80   12.80
   4   7  -2  233.78   23.10
  -4   7   2  220.98   20.40
  -4  -7   2  251.07   20.80
   4  -7  -2  219.18   18.90
  -4  -7   2  214.68   19.50
  -4  -7   2  219.08   26.50
   4  -7  -2  219.08   20.70
   4  -7  -2  241.58   25.40
   4   7  -1  185.08   20.80
  -4   7   1  202.18   18.70
  -4  -7   1  176.58   24.60
  -4  -7   1  190.68   18.40
   4  -7  -1  171.58   22.10
  -4  -7   1  152.68   17.50
   4  -7  -1  175.98   16.00
  -4   7   0   13.20   12.70
   4   7   0   17.70   15.80
  -4  -7   0   27.20   19.20
  -4  -7   0    1.70   12.40
   4  -7   0   23.90   17.70
   4  -7   0   30.40    9.90
   4  -7   0   12.60    9.30
  -4   7  -1  407.46   32.90
   4   7   1  387.56   36.50
   4  -7   1  419.96   38.30
  -4  -7  -1  402.16   26.70
  -4  -7  -1  420.76   33.40
   4  -7   1  435.86   27.50
   4  -7   1  436.46   29.80
  -4  -7  -1  373.26   43.10
  -4   7  -2  231.28   21.90
   4   7   2  237.48   24.30
   4  -7   2  256.27   18.00
  -4  -7  -2  196.18   20.90
   4  -7   2  236.68   22.90
  -4  -7  -2  208.18   17.70
  -4  -7  -2  216.08   27.70
   4  -7   2  217.18   24.30
   4   7   3    9.80   17.90
  -4   7  -3    5.30   15.00
  -4  -7  -3    8.50   14.00
  -4  -7  -3   22.50    7.10
  -4  -7  -3   -6.60   21.30
   4  -7   3   27.20   16.90
   4  -7   3   15.80   11.50
   4   7   4   41.80   21.90
  -4   7  -4   10.10   16.60
  -4  -7  -4   44.00   22.80
  -4  -7  -4    5.60    5.50
  -4  -7  -4   31.60   15.70
   4  -7   4    5.80   16.90
   4  -7   4   23.90   11.60
  -4   7  -5  175.98   24.20
   4   7   5  176.58   27.10
   4  -7   5  171.98   18.40
   4  -7   5  244.48   23.00
  -4  -7  -5  155.18   21.80
   4   7   6   21.30   22.80
  -4   7  -6    3.00   19.80
   4  -7   6   -5.80   12.70
   4  -7   6   -6.20   16.40
  -4  -7  -6   -9.30   17.00
  -4   7  -7   10.10   21.50
  -4   8   7   18.70   17.90
   4   8  -7   -7.70   20.80
  -4  -8   7   12.90   15.90
   4  -8  -7   10.30   17.40
   4  -8  -7    1.40   11.30
  -4  -8   7   -0.10   12.30
  -4   8   6   49.80   17.30
   4   8  -6    1.30   20.10
  -4  -8   6   18.00   16.20
   4  -8  -6   16.50   16.00
   4  -8  -6   21.40   11.50
  -4  -8   6   19.50   14.90
  -4   8   5   -0.20   17.50
   4   8  -5   11.70   19.10
  -4  -8   5    3.30   24.00
  -4  -8   5   10.70   12.50
   4  -8  -5   -5.50   14.60
   4  -8  -5   14.80   10.80
  -4  -8   5  -12.30   13.40
  -4   8   4   68.29   17.40
   4   8  -4  141.99   21.50
  -4  -8   4  106.69   15.80
  -4  -8   4   70.89   22.10
   4  -8  -4  101.99   16.50
  -4  -8   4  109.39   16.60
   4  -8  -4  132.29   14.20
  -4   8   3    6.10   13.80
   4   8  -3    9.30   17.70
   4  -8  -3    6.10   10.40
   4  -8  -3  -37.80   18.70
  -4  -8   3    7.30   13.70
  -4  -8   3   -5.10   20.50
  -4  -8   3  -13.20   11.10
   4  -8  -3   12.60   12.80
  -4   8   2  415.46   34.00
   4   8  -2  426.96   38.40
  -4  -8   2  433.56   32.70
  -4  -8   2  315.27   35.80
   4  -8  -2  435.56   30.30
   4  -8  -2  453.95   31.50
   4  -8  -2  391.76   41.90
  -4  -8   2  416.96   30.20
   4   8  -1  158.98   22.10
  -4   8   1  219.68   20.80
   4  -8  -1  156.48   17.00
   4  -8  -1  211.88   26.40
  -4  -8   1  175.98   27.40
  -4  -8   1  172.78   16.20
   4  -8  -1  180.98   17.10
  -4  -8   1  186.08   19.60
  -4   8   0   22.40   14.80
   4   8   0   -6.10   16.70
   4  -8   0   15.20   20.30
  -4  -8   0  -11.80   20.80
  -4  -8   0    1.60   13.90
   4  -8   0    8.90   10.70
  -4  -8   0    1.90    9.10
   4   8   1   52.39   18.30
  -4   8  -1   55.69   16.70
   4  -8   1   71.19   21.40
  -4  -8  -1   63.89   10.40
  -4  -8  -1   45.80   23.50
   4  -8   1   51.79   12.50
   4  -8   1   64.19   11.10
  -4  -8  -1   70.09   16.70
   4   8   2  208.18   25.60
  -4   8  -2  235.28   24.30
  -4  -8  -2  274.97   20.20
   4  -8   2  244.38   20.40
   4  -8   2  251.77   27.90
  -4  -8  -2  235.18   23.50
   4  -8   2  212.48   20.10
   4   8   3   23.50   19.60
  -4   8  -3   -6.00   16.60
   4  -8   3   -3.10   12.40
   4  -8   3   11.40   19.80
  -4  -8  -3   11.50    8.30
  -4  -8  -3   33.40   15.90
  -4   8  -4  111.49   22.30
   4   8   4  110.79   26.10
   4  -8   4  112.19   16.30
  -4  -8  -4  100.29   20.50
   4  -8   4   42.40   21.50
  -4  -8  -4  122.69   10.50
  -4   8  -5   30.20   21.40
   4   8   5    5.30   23.60
  -4  -8  -5   23.90   18.10
   4  -8   5   18.20   20.40
   4  -8   5   11.30   13.60
  -4   8  -6   34.40   22.00
   4   8   6  -22.00   22.50
  -4  -8  -6   30.20   19.60
   4  -8   6   15.90   31.70
   4  -8   6    9.00   14.50
   4   9  -6    6.30   22.90
  -4   9   6   78.09   19.90
   4  -9  -6   68.59   20.70
  -4  -9   6   86.89   16.20
   4  -9  -6   55.89   14.60
  -4  -9   6   62.69   18.50
  -4   9   5   34.00   20.90
   4   9  -5   65.89   22.80
   4  -9  -5   32.90   17.70
  -4  -9   5   43.80   14.90
  -4  -9   5   37.50   16.70
   4  -9  -5   41.20   13.10
  -4   9   4    9.80   16.70
   4   9  -4   24.50   20.80
   4  -9  -4   21.10   16.30
  -4  -9   4   19.50   14.50
  -4  -9   4   47.00   16.10
   4  -9  -4   14.60   12.20
  -4   9   3  159.48   20.70
   4   9  -3  175.48   24.60
   4  -9  -3  159.88   19.60
  -4  -9   3  135.49   20.00
  -4  -9   3  139.59   17.50
   4  -9  -3  151.08   16.90
  -4   9   2  -34.80   15.30
   4   9  -2    2.50   18.30
   4  -9  -2   14.20   11.80
  -4  -9   2   12.80   11.70
   4  -9  -2    2.10   13.00
  -4  -9   2    4.70   14.10
  -4   9   1   74.49   18.20
   4   9  -1   75.29   20.80
  -4  -9   1   83.39   13.60
  -4  -9   1   77.49   17.20
   4  -9  -1   89.49   14.00
   4  -9  -1   85.49   15.00
  -4   9   0    8.30   16.30
   4   9   0   14.20   18.80
   4  -9   0    4.00   12.00
  -4  -9   0  -14.90   10.10
  -4  -9   0  -12.60   14.90
   4  -9   0   -1.00   11.60
   4  -9   0   31.30   22.80
   4   9   1   29.20   19.70
  -4   9  -1   15.80   16.90
   4  -9   1   33.80   23.90
   4  -9   1   59.19   14.30
  -4  -9  -1    9.60   16.70
   4  -9   1   33.70   14.00
  -4  -9  -1   19.50   10.70
  -4   9  -2    1.00   17.80
   4   9   2   13.40   19.50
   4  -9   2   31.00   23.60
  -4  -9  -2   21.30   16.80
  -4  -9  -2   -2.30    9.70
   4  -9   2  -10.20   10.60
   4  -9   2   -1.00   13.40
  -4   9  -3  133.39   23.40
   4   9   3  133.89   25.00
  -4  -9  -3  127.49   22.10
   4  -9   3  154.48   27.60
   4  -9   3  146.99   18.70
   4   9   4   35.50   25.10
  -4   9  -4   39.70   22.20
   4  -9   4   81.99   25.60
   4  -9   4   34.70   15.60
  -4  -9  -4   31.90   19.40
  -4  -9  -4   41.40    9.80
  -4  10   4   58.09   24.00
   4  10  -4   86.39   24.80
  -4 -10   4  114.39   18.90
   4 -10  -4  158.88   21.30
   4 -10  -4  120.99   16.50
  -4 -10   4   90.49   20.40
   4  10  -3  -21.70   19.80
  -4  10   3   -5.00   17.90
  -4 -10   3  -14.20   17.30
   4 -10  -3   36.70   14.00
   4 -10  -3    6.40   15.80
  -4 -10   3   -4.10   14.70
  -4  10   2  -21.10   18.10
   4  10  -2    9.80   20.60
  -4 -10   2   33.40   16.90
   4 -10  -2   25.10   13.50
  -4 -10   2    3.30   13.60
   4 -10  -2  -15.80   14.30
   4  10  -1   10.90   21.40
  -4  10   1   -1.40   18.30
   4 -10  -1   18.50   13.60
  -4 -10   1   22.10   12.80
   4 -10  -1   21.50   14.50
  -4 -10   1   34.40   17.20
  -4  10   0  153.88   23.10
   4  10   0  107.69   24.40
  -4 -10   0  138.49   21.80
   4 -10   0  140.79   18.00
  -4 -10   0  146.09   16.90
   4 -10   0  144.19   18.70
  -4  10  -1    0.30   18.70
   4  10   1  -21.80   20.20
  -4 -10  -1  -17.10   17.50
  -4 -10  -1   26.40   12.40
   4 -10   1    2.20   13.70
   4 -10   1    5.90   14.50
   4  10   2   41.50   21.60
  -4  10  -2   38.10   21.30
   4 -10   2   13.10   14.50
   4 -10   2   20.60   13.30
  -4 -10  -2    6.80   18.70
  -4 -10  -2   19.10   12.10
   4  10   3   12.90   22.80
  -4  10  -3    6.00   22.30
  -4 -10  -3   -9.00   19.80
  -4 -10  -3   -2.40   11.50
   4 -10   3   -3.00   15.00
   5   0 -10  305.87   30.10
   5   0 -10  367.46   35.60
   5   0  -9    2.00   16.60
   5   0  -8   68.49   16.60
  -5   0   7  -21.70   10.90
  -5   0   6  113.89   13.50
   5   0  -6   94.99   11.60
   5   0  -5   -1.80    6.70
  -5   0   5   -2.10    8.60
  -5   0   4  551.24   38.50
  -5   0   4  529.95   33.40
   5   0  -4  540.65   31.30
   5   0  -3   -1.20   11.30
  -5   0   3   -7.40   11.50
  -5   0   3   -0.40    7.50
   5   0  -3    0.40    5.00
   5   0  -2  997.00   56.19
  -5   0   2 1027.30   57.39
  -5   0   2  869.31   59.99
   5   0  -2 1151.08   60.59
   5   0  -2 1037.20   55.59
  -5   0   2 1077.09   55.59
  -5   0   1   -5.20    7.20
  -5   0   1   -9.10   10.90
   5   0  -1    3.90    6.00
   5   0  -1    2.40   12.70
   5   0  -1    2.50    6.00
   5   0   0 5817.72  310.57
  -5   0   0 5595.84  311.67
  -5   0   0 5831.02  311.37
   5   0   0 6161.28  311.87
   5   0   0 5911.21  311.27
   5   0   1   -9.40    4.80
   5   0   1    0.70    9.20
  -5   0  -1    0.60    8.20
  -5   0  -1   -0.30    8.00
   5   0   1    3.30    8.00
  -5   0  -2  261.77   19.40
   5   0   2  215.48   23.50
   5   0   2  284.27   16.30
   5   0   3   -6.20    4.10
  -5   0  -3   -6.20    7.30
   5   0   4  180.08   20.20
   5   0   4  196.48   13.20
  -5   0  -4  171.88   16.80
   5   0   5   18.50   16.40
  -5   0  -5   16.10    8.80
   5   0   5   -2.40    5.40
   5   0   6  973.10   64.59
  -5   0  -6  880.01   55.49
   5   0   6 1038.60   53.39
   5   0   7   14.70    7.50
   5   0   7    0.00   21.30
  -5   0  -7   -1.90   11.00
   5   0   8  -10.90    8.30
  -5   0  -8  -17.50   11.80
   5   0   8   -1.80   23.40
   5   1 -10  -12.30   17.90
   5   1 -10   -0.80   16.80
   5  -1 -10   11.00   10.70
   5  -1 -10   -4.60   11.90
   5   1  -9  271.37   26.70
   5   1  -9  246.58   24.00
   5  -1  -9  264.97   22.20
   5  -1  -9  213.38   25.50
   5   1  -8   80.09   14.50
  -5  -1   8   66.49   14.50
  -5  -1   8   43.00   11.30
   5  -1  -8   60.79   17.10
   5  -1  -8   62.59   10.00
   5   1  -7  308.07   25.40
   5  -1  -7  286.67   21.70
  -5  -1   7  259.77   25.90
   5  -1  -7  324.97   30.00
  -5  -1   7  283.27   22.90
   5   1  -6  241.58   20.60
  -5   1   6  195.78   22.50
   5  -1  -6  224.48   25.70
  -5  -1   6  243.08   21.70
   5  -1  -6  257.27   18.10
  -5  -1   6  247.88   23.30
  -5  -1   6  223.38   19.40
  -5   1   5   32.20   10.20
   5   1  -5   13.20    7.60
  -5  -1   5   19.40    7.20
  -5  -1   5   17.40    8.60
   5  -1  -5   28.70   11.80
   5  -1  -5   11.50    6.40
  -5  -1   5   22.10   14.30
  -5   1   4  283.87   22.20
   5   1  -4  276.27   19.20
  -5  -1   4  317.47   29.50
   5  -1  -4  284.17   18.90
  -5  -1   4  240.68   20.50
  -5  -1   4  284.97   19.70
   5   1  -3 1425.46   76.09
  -5   1   3 1342.67   76.99
   5   1  -3 1473.15   85.89
   5  -1  -3 1416.96   74.69
  -5  -1   3 1383.16   76.99
  -5  -1   3 1331.37   80.39
   5  -1  -3 1538.45   74.89
   5  -1  -3 1429.36   76.29
   5  -1  -3 1251.67   82.99
  -5  -1   3 1358.46   75.99
   5   1  -2  231.48   17.10
  -5   1   2  223.48   17.60
   5   1  -2  233.18   25.10
  -5  -1   2  185.78   19.40
   5  -1  -2  251.67   23.00
  -5  -1   2  212.68   18.20
   5  -1  -2  230.48   18.10
  -5   1   1 2638.74  131.59
   5   1  -1 2470.95  134.49
   5   1  -1 2484.35  132.59
  -5   1   1 2421.46  132.69
   5  -1  -1 2526.25  133.89
   5  -1  -1 2412.66  132.29
  -5  -1   1 2157.38  134.99
  -5  -1   1 2531.95  133.39
   5  -1  -1 2607.54  131.59
  -5   1   0   -2.50    6.90
   5   1   0    7.70    9.90
   5   1   0    4.10    4.60
   5   1   0    5.70    8.30
  -5  -1   0    6.80   11.60
   5  -1   0   -2.10    8.70
   5  -1   0   11.90    5.90
  -5  -1   0    5.20    8.60
   5  -1   0    5.50    7.00
   5   1   1   12.80    9.80
   5   1   1    8.80    9.50
   5   1   1   15.20    4.50
  -5   1  -1   17.20    6.50
   5  -1   1   13.90    8.90
  -5  -1  -1   20.90    9.00
  -5  -1  -1    2.70    7.60
   5  -1   1   18.80    8.00
   5  -1   1    4.70    5.50
   5   1   2  481.15   25.80
   5   1   2  463.75   32.90
  -5   1  -2  478.25   28.30
   5   1   2  469.45   29.50
   5  -1   2  452.15   32.30
  -5  -1  -2  426.86   29.90
   5  -1   2  468.55   27.20
  -5  -1  -2  488.85   29.50
  -5   1  -3  103.99    9.70
   5   1   3  114.29   15.30
   5   1   3  113.29   10.80
   5  -1   3  102.69    8.40
  -5  -1  -3   84.49   10.80
  -5  -1  -3   84.49   11.20
   5   1   4  433.46   26.30
   5   1   4  400.36   34.20
  -5   1  -4  386.16   24.90
  -5  -1  -4  362.66   27.10
   5  -1   4  423.36   34.30
   5  -1   4  411.36   24.10
  -5  -1  -4  393.46   26.90
   5   1   5  202.78   25.30
  -5   1  -5  287.07   21.10
   5  -1   5  263.07   27.10
  -5  -1  -5  294.97   23.10
  -5  -1  -5  304.77   22.90
   5  -1   5  332.67   19.90
   5   1   6   49.80   20.10
  -5   1  -6   55.79   10.40
  -5  -1  -6   58.49   20.80
   5  -1   6   61.19    8.90
   5  -1   6   54.89   19.60
   5   1   7  121.99   26.70
  -5   1  -7  176.58   16.00
   5  -1   7  166.78   26.40
   5  -1   7  188.48   18.20
  -5  -1  -7  197.48   17.90
   5   1   8   28.60   24.50
  -5   1  -8    9.80   12.50
  -5  -1  -8    5.70   13.40
   5  -1   8  -21.00   24.50
   5  -1   8   -5.30    9.50
   5   2 -10   13.90   18.20
   5   2 -10  -12.70   18.80
   5  -2 -10   14.10   13.40
   5  -2 -10    9.00   12.60
  -5  -2  10   27.30   13.70
   5   2  -9   38.10   16.90
   5  -2  -9   11.30   11.80
   5  -2  -9   54.09   17.30
   5  -2  -9   42.50   11.70
  -5  -2   9   19.90   12.40
   5   2  -8  693.73   45.30
   5  -2  -8  633.24   47.50
  -5  -2   8  677.63   43.30
   5  -2  -8  672.23   40.90
  -5  -2   8  626.74   42.10
   5   2  -7  127.39   16.30
  -5   2   7   98.49   23.80
  -5  -2   7  134.19   21.20
   5  -2  -7  146.89   19.90
  -5  -2   7  153.18   17.80
  -5  -2   7  146.69   14.60
   5  -2  -7  151.78   13.40
  -5   2   6   24.00   10.20
   5   2  -6   22.10   10.30
   5  -2  -6   24.90    8.30
   5  -2  -6    3.40   13.20
  -5  -2   6   15.60    9.50
  -5  -2   6   14.30    8.60
  -5  -2   6   20.80   16.50
   5   2  -5   -0.20    8.10
  -5   2   5   -1.80   10.00
  -5   2   5    7.20    8.00
  -5  -2   5   -3.00    7.80
  -5  -2   5   14.10   14.70
   5  -2  -5  -11.70    7.30
   5  -2  -5    4.80   11.70
  -5  -2   5   -1.40    7.30
   5   2  -4    8.40    8.20
  -5   2   4    3.60    6.40
  -5   2   4   11.00    9.40
   5  -2  -4   20.70    8.30
  -5  -2   4    9.00    7.90
  -5  -2   4    9.70   14.10
   5  -2  -4    9.30   10.80
  -5  -2   4   15.50    7.20
   5   2  -3  441.56   28.50
  -5   2   3  439.96   29.10
  -5  -2   3  451.55   28.70
  -5  -2   3  459.55   27.50
   5  -2  -3  443.96   27.70
  -5  -2   3  397.86   37.50
   5  -2  -3  450.85   31.80
   5   2  -2 5682.63  292.27
   5   2  -2 5527.05  290.27
  -5   2   2 5350.16  290.27
   5  -2  -2 5475.95  291.37
  -5  -2   2 5419.86  289.67
   5  -2  -2 5119.29  289.77
  -5  -2   2 5563.54  292.37
  -5  -2   2 5531.85  290.67
   5   2  -1  570.34   38.10
   5   2  -1  557.14   34.70
  -5   2   1  592.14   31.60
  -5   2   1  581.64   31.30
  -5   2   1  571.04   33.60
  -5  -2   1  559.24   37.40
   5  -2  -1  570.84   33.10
  -5  -2   1  569.14   32.40
  -5  -2   1  563.84   35.70
   5  -2  -1  523.55   35.20
  -5   2   0  189.98   14.90
   5   2   0  195.68   18.40
   5   2   0  182.38   17.20
   5  -2   0  202.38   15.20
  -5  -2   0  159.18   16.40
   5  -2   0  185.58   17.30
  -5  -2   0  185.08   18.00
  -5   2  -1   10.00    5.90
   5   2   1   12.80   10.70
   5   2   1    2.10    3.60
   5   2   1   -6.40   10.40
   5  -2   1    7.90    6.10
   5  -2   1    6.10    7.10
   5  -2   1    3.20    8.40
  -5  -2  -1   10.10    8.40
   5  -2   1   -2.70    6.60
  -5  -2  -1   14.00   10.80
  -5   2  -2  106.89    8.80
   5   2   2   80.79   14.00
   5   2   2  120.69   12.60
  -5  -2  -2   92.79   13.30
   5  -2   2   99.29    9.20
   5  -2   2   75.29   12.50
  -5  -2  -2  101.69   11.60
   5   2   3    0.00   12.30
  -5   2  -3   11.70    5.40
   5   2   3   13.20    9.60
   5  -2   3   35.00   12.30
  -5  -2  -3   24.20    9.00
  -5  -2  -3   21.20   10.90
   5  -2   3   20.00    6.30
  -5   2  -4  321.07   19.90
   5   2   4  364.76   31.90
   5   2   4  347.77   25.80
  -5  -2  -4  304.07   24.60
  -5  -2  -4  318.37   26.50
   5  -2   4  296.07   21.00
   5  -2   4  336.77   30.70
   5   2   5   -1.70   11.90
  -5   2  -5    4.30    7.00
   5   2   5   11.00   16.60
   5  -2   5   -0.30   16.50
  -5  -2  -5   -2.60    9.80
  -5  -2  -5    4.50   12.90
   5  -2   5    1.90    7.00
   5   2   6  128.59   23.20
  -5   2  -6  150.98   12.00
   5  -2   6  145.49   13.30
  -5  -2  -6  134.89   16.20
  -5  -2  -6  134.39   17.80
   5  -2   6  157.38   24.20
   5   2   7  -13.80   20.50
  -5   2  -7   17.50    8.40
   5  -2   7   21.00    9.80
  -5  -2  -7   -3.50   12.50
  -5  -2  -7   -4.00   15.40
   5   2   8   86.29   26.70
   5  -2   8  153.98   15.20
  -5  -2  -8  126.49   18.30
   5   3 -10   -8.90   18.90
   5  -3 -10   -2.50   11.50
   5  -3 -10   13.60   14.80
  -5  -3  10    9.90   14.10
   5   3  -9  237.58   24.80
  -5   3   9  261.47   23.80
   5  -3  -9  211.58   21.30
  -5  -3   9  199.48   20.60
  -5  -3   9  196.28   20.40
   5  -3  -9  200.88   18.60
   5   3  -8    4.50   15.10
  -5   3   8   12.90   13.80
   5  -3  -8    8.90    9.70
  -5  -3   8   21.60   18.90
   5  -3  -8   -0.50   11.70
   5  -3  -8   11.80   17.70
  -5  -3   8   -5.40   10.70
  -5  -3   8   24.30   12.30
   5   3  -7   18.40   13.00
  -5   3   7    7.80   13.10
  -5  -3   7   17.40   10.70
  -5  -3   7   -0.60   17.80
   5  -3  -7   47.50   16.80
   5  -3  -7   21.60    9.50
  -5  -3   7    6.70   10.70
   5   3  -6  230.18   23.20
  -5   3   6  223.28   20.50
  -5  -3   6  222.38   19.60
  -5  -3   6  205.58   19.70
   5  -3  -6  185.68   21.30
  -5  -3   6  197.08   24.20
   5   3  -5  510.35   33.80
  -5   3   5  523.85   31.20
  -5  -3   5  535.65   32.20
   5  -3  -5  464.95   37.00
  -5  -3   5  500.75   31.90
  -5  -3   5  521.35   42.50
   5  -3  -5  479.75   31.40
  -5   3   4  466.45   30.80
   5   3  -4  463.15   30.70
  -5   3   4  474.15   27.20
   5  -3  -4  457.35   33.70
   5  -3  -4  393.26   28.30
  -5  -3   4  419.26   41.20
  -5  -3   4  472.75   28.90
  -5  -3   4  472.35   29.40
  -5   3   3  165.78   14.70
   5   3  -3  147.59   14.70
  -5   3   3  173.08   12.30
  -5  -3   3  162.78   14.90
   5  -3  -3  168.88   12.40
   5  -3  -3  158.18   16.40
  -5  -3   3  183.18   19.20
  -5  -3   3  122.99   14.10
   5  -3  -3  161.58   15.60
  -5   3   2   16.70    8.70
  -5   3   2   21.60    5.60
   5   3  -2   10.00    9.70
   5  -3  -2   11.20    6.90
  -5  -3   2    4.10   12.20
  -5  -3   2   12.20    6.40
   5  -3  -2    4.00   10.30
  -5  -3   2   10.60   10.30
   5  -3  -2   15.20    4.40
  -5   3   1 1855.41   97.09
  -5   3   1 1772.12   98.19
  -5   3   1 1949.70   99.79
   5   3  -1 1773.82   99.29
  -5  -3   1 1794.92  101.09
   5  -3  -1 1857.21   98.09
   5  -3  -1 1742.13   99.49
  -5  -3   1 1783.82   97.39
  -5  -3   1 1771.32   98.89
   5   3   0  455.15   31.60
  -5   3   0  465.65   27.70
  -5   3   0  456.55   27.80
  -5   3   0  468.15   30.30
  -5  -3   0  484.65   30.20
  -5  -3   0  450.45   26.40
   5  -3   0  408.16   29.90
   5  -3   0  455.85   28.00
  -5  -3   0  503.45   34.30
   5   3   1  508.45   34.20
  -5   3  -1  526.95   31.50
  -5   3  -1  495.95   31.80
  -5   3  -1  481.15   29.10
   5  -3   1  508.15   30.50
  -5  -3  -1  523.15   32.80
   5  -3   1  492.05   32.70
  -5  -3  -1  525.45   28.30
  -5  -3  -1  509.65   36.30
  -5   3  -2   84.49    8.40
   5   3   2   67.49   14.90
   5  -3   2   70.89    9.20
  -5  -3  -2   94.99   11.80
  -5  -3  -2   91.99   14.40
   5  -3   2   72.29    9.10
   5   3   3   35.50   13.50
   5  -3   3   38.70    7.60
  -5  -3  -3   42.30   10.40
  -5  -3  -3   28.90   13.00
   5   3   4    2.80   14.40
  -5  -3  -4   15.70   13.90
   5  -3   4   10.40    7.20
  -5  -3  -4    1.40   10.30
   5   3   5  624.44   47.40
  -5  -3  -5  675.93   44.00
  -5  -3  -5  601.74   40.50
   5  -3   5  585.24   37.00
   5   3   6  -15.50   18.30
   5  -3   6    7.70    9.10
  -5  -3  -6   36.20   13.30
  -5  -3  -6    9.60   16.80
   5   3   7   74.69   23.40
  -5  -3  -7   43.00   20.10
   5  -3   7   90.79   12.90
  -5  -3  -7   99.69   17.10
   5   3   8    8.30   24.50
  -5  -3  -8    3.80   21.50
  -5  -3  -8    7.30   16.20
   5  -3   8    2.50   12.20
  -5   4  10  130.79   22.90
   5   4 -10   98.09   23.10
   5  -4 -10  123.39   14.90
   5  -4 -10  155.48   20.20
  -5  -4  10  109.29   18.50
  -5   4   9   62.89   17.80
   5   4  -9   33.90   19.00
  -5  -4   9   16.10   22.00
  -5  -4   9   46.00   15.00
   5  -4  -9   83.29   11.90
  -5  -4   9   43.00   14.60
   5  -4  -9   32.70   15.70
  -5   4   8  157.08   19.00
   5   4  -8  129.09   20.30
  -5  -4   8  155.28   17.30
  -5  -4   8  149.99   26.40
   5  -4  -8  239.68   19.60
   5  -4  -8  139.89   23.70
   5  -4  -8  140.19   18.40
  -5  -4   8  162.08   17.30
  -5   4   7  -18.10   11.20
   5   4  -7    0.80   13.90
  -5  -4   7   -9.10   19.60
   5  -4  -7   10.90   11.90
   5  -4  -7   16.70    9.30
  -5  -4   7   -8.30   10.50
   5  -4  -7   15.50   17.90
  -5  -4   7   18.70   10.80
   5   4  -6   47.30   14.00
  -5   4   6   45.50   10.90
   5  -4  -6   40.60    9.60
  -5  -4   6   22.20   19.40
  -5  -4   6   29.30   10.40
   5  -4  -6   62.59   18.20
  -5  -4   6   29.00   10.00
  -5   4   5    8.60    8.30
   5   4  -5   -7.70   11.20
  -5  -4   5   16.10    9.30
  -5  -4   5   11.50    9.40
  -5  -4   5    0.40   19.60
   5  -4  -5  -12.20    8.70
   5  -4  -5   -3.00   14.20
  -5   4   4  367.56   24.60
   5   4  -4  377.56   29.00
  -5  -4   4  357.16   35.70
  -5  -4   4  384.76   27.00
  -5  -4   4  372.06   25.90
   5  -4  -4  406.46   25.40
   5  -4  -4  358.46   32.50
   5   4  -3    3.30   10.70
  -5   4   3   -3.00    7.20
  -5  -4   3    4.60    7.30
   5  -4  -3    5.30    7.10
  -5  -4   3   -1.70   13.00
  -5  -4   3   15.90    9.80
   5  -4  -3   12.40   12.60
   5   4  -2  591.74   41.60
  -5   4   2  673.83   37.00
   5  -4  -2  630.04   37.80
   5  -4  -2  630.64   41.90
  -5  -4   2  646.74   37.30
  -5  -4   2  660.63   40.20
  -5  -4   2  644.74   43.70
  -5   4   1  145.59   14.70
   5   4  -1  138.89   15.60
  -5  -4   1  122.69   17.70
   5  -4  -1  167.18   16.10
  -5  -4   1  154.18   13.60
  -5  -4   1  147.79   14.20
   5  -4  -1  135.19   12.40
  -5   4   0  897.71   51.19
  -5   4   0  854.11   49.10
  -5  -4   0  851.81   47.80
  -5  -4   0  844.42   50.69
   5  -4   0  889.31   49.20
   5  -4   0  855.51   51.49
  -5  -4   0  889.61   54.59
   5   4   1  807.32   48.90
  -5   4  -1  861.61   46.80
  -5   4  -1  795.02   46.50
   5  -4   1  791.12   47.30
  -5  -4  -1  745.93   47.00
   5  -4   1  764.92   45.40
  -5  -4  -1  815.42   51.59
  -5  -4  -1  784.32   43.50
   5   4   2    5.30   12.20
  -5   4  -2    5.60    8.60
  -5   4  -2    9.00   11.90
   5  -4   2   11.50    9.30
   5  -4   2    5.20    7.70
  -5  -4  -2    1.20   14.30
  -5  -4  -2   17.10   10.80
  -5  -4  -2   16.40    4.00
  -5   4  -3   81.09   14.40
   5   4   3  119.09   18.30
  -5  -4  -3   98.69   17.50
   5  -4   3  119.19   11.20
   5  -4   3  101.39   11.20
  -5  -4  -3   81.39   13.20
   5   4   4  139.09   19.90
  -5   4  -4  107.99   17.20
   5  -4   4  128.49   12.50
  -5  -4  -4  146.39   20.20
  -5  -4  -4  109.59   15.30
   5   4   5   81.69   20.30
   5  -4   5   92.99   11.80
  -5  -4  -5  113.59   15.70
  -5  -4  -5   98.89   20.20
   5   4   6  198.48   27.20
  -5  -4  -6  212.58   21.10
  -5  -4  -6  190.28   25.30
   5  -4   6  196.18   17.20
   5   4   7   67.89   24.70
  -5   4  -7   90.49   21.70
  -5  -4  -7   39.40   22.90
  -5  -4  -7   52.89   17.10
   5  -4   7   72.79   13.40
   5   4   8   -9.40   24.00
  -5   4  -8   23.60   20.90
  -5  -4  -8   31.90   18.10
   5  -4   8   20.00   13.60
  -5  -4  -8   -3.20   24.70
   5   5  -9   17.20   20.00
  -5   5   9   47.30   18.20
  -5  -5   9   43.30   15.50
  -5  -5   9   18.70   24.30
   5  -5  -9   60.69   17.00
   5  -5  -9   62.79   11.70
  -5  -5   9   60.89   14.80
   5   5  -8   40.80   18.10
  -5   5   8   23.10   14.90
  -5  -5   8   42.90   13.50
   5  -5  -8   17.30   14.50
  -5  -5   8   34.70   13.50
   5  -5  -8   38.20   10.30
  -5  -5   8   38.20   24.00
   5   5  -7  446.96   36.60
  -5   5   7  377.06   31.60
  -5  -5   7  399.36   31.90
   5  -5  -7  440.86   28.20
   5  -5  -7  333.97   34.20
  -5  -5   7  343.37   36.90
  -5  -5   7  438.06   31.50
   5  -5  -7  385.16   32.30
   5   5  -6   22.70   14.50
  -5   5   6    0.30   10.80
  -5  -5   6    0.10    9.80
   5  -5  -6    7.10    9.20
  -5  -5   6  -12.90   22.30
  -5  -5   6   20.20   11.20
   5  -5  -6   22.50   18.60
   5  -5  -6    7.10   12.20
  -5   5   5   17.90   10.30
   5   5  -5   17.60   14.00
  -5  -5   5   27.40   20.80
  -5  -5   5   24.90   10.30
   5  -5  -5   14.50   16.80
   5  -5  -5   23.80   11.40
  -5  -5   5   18.90   10.40
   5  -5  -5   14.70    8.90
  -5   5   4  195.68   19.90
   5   5  -4  142.29   18.10
  -5  -5   4  172.58   15.30
   5  -5  -4  160.58   20.30
  -5  -5   4  157.18   21.30
   5  -5  -4  159.78   16.00
  -5  -5   4  176.38   16.20
   5  -5  -4  173.78   17.10
   5   5  -3 1086.89   61.09
  -5   5   3  890.81   57.29
  -5  -5   3  984.20   63.19
   5  -5  -3 1042.00   62.99
  -5  -5   3 1053.59   57.99
  -5  -5   3 1115.79   60.29
  -5   5   2    6.10    8.60
   5   5  -2   10.30   12.00
   5  -5  -2    1.60   12.70
  -5  -5   2   -8.30   14.00
  -5  -5   2   13.50    7.40
  -5  -5   2   -7.80    9.70
   5   5  -1  644.34   41.80
  -5   5   1  649.34   37.80
  -5  -5   1  621.14   39.30
   5  -5  -1  506.15   43.80
  -5  -5   1  635.84   36.70
   5  -5  -1  599.94   42.00
  -5  -5   1  683.33   45.80
   5  -5  -1  655.43   37.20
  -5   5   0  176.88   18.40
   5   5   0  164.58   17.80
  -5  -5   0  149.29   19.10
   5  -5   0  164.18   17.80
   5  -5   0  217.18   15.40
  -5  -5   0  174.38   20.90
   5  -5   0  164.48   16.80
  -5  -5   0  165.08   14.50
   5   5   1    1.80   12.60
  -5   5  -1    3.30    9.80
  -5  -5  -1   16.80   11.30
   5  -5   1   13.90    8.80
  -5  -5  -1   13.00    5.60
  -5  -5  -1   27.30   15.80
   5  -5   1   19.10   12.50
   5  -5   1    7.20    6.00
   5   5   2  -29.10   13.10
  -5   5  -2    0.70   11.20
  -5   5  -2   -7.00   10.10
   5  -5   2    5.20    4.90
   5  -5   2    2.80   11.40
  -5  -5  -2   -0.70    4.50
  -5  -5  -2   -6.20   16.20
   5  -5   2   -5.60    8.00
  -5  -5  -2   -1.40   11.40
   5   5   3  576.54   47.20
  -5   5  -3  700.83   39.00
  -5   5  -3  632.84   42.80
  -5  -5  -3  647.34   41.60
  -5  -5  -3  631.04   47.50
   5  -5   3  597.84   38.60
   5  -5   3  577.14   42.60
   5   5   4   87.29   19.70
  -5   5  -4   64.09   16.20
  -5  -5  -4   48.70   14.60
  -5  -5  -4   60.99   19.90
   5  -5   4   69.39   11.20
  -5   5  -5   32.90   17.00
   5   5   5   27.20   18.60
  -5  -5  -5   18.70   14.10
  -5  -5  -5    5.60   20.30
   5  -5   5    8.60    9.90
  -5   5  -6    6.20   17.60
   5   5   6    7.90   21.40
   5  -5   6   10.60   10.60
  -5  -5  -6   -0.30   22.70
  -5  -5  -6    5.80   15.30
   5   5   7   73.69   25.50
  -5   5  -7   99.49   23.70
  -5  -5  -7  103.19   27.60
  -5  -5  -7   94.29   20.30
   5  -5   7  109.39   15.20
   5   6  -9   31.70   21.30
  -5   6   9   25.60   19.20
  -5  -6   9   26.40   16.00
  -5  -6   9   70.49   15.60
   5  -6  -9   45.90   17.90
   5  -6  -9   13.10   11.50
   5   6  -8   21.90   19.60
  -5   6   8   28.10   16.00
  -5  -6   8   -0.60   25.20
  -5  -6   8   -8.90   13.80
   5  -6  -8   12.80   10.50
  -5  -6   8   36.40   13.70
   5  -6  -8   31.30   15.50
  -5   6   7   88.79   16.40
   5   6  -7   92.89   20.30
  -5  -6   7  113.09   16.00
  -5  -6   7   55.99   25.40
   5  -6  -7   80.89   12.80
   5  -6  -7  105.79   17.50
   5   6  -6  173.68   22.70
  -5   6   6  199.38   19.20
  -5  -6   6  198.98   19.30
   5  -6  -6  153.78   26.50
  -5  -6   6  190.58   32.30
   5  -6  -6  251.87   21.10
  -5  -6   6  209.68   26.60
   5  -6  -6  191.68   20.30
  -5   6   5    8.00   11.50
   5   6  -5   -1.50   15.50
  -5  -6   5   20.80   11.40
  -5  -6   5  -11.40   12.00
   5  -6  -5   -5.90   18.20
   5  -6  -5    1.90    9.10
  -5  -6   5  -14.60   18.80
   5  -6  -5   -6.40   12.10
  -5   6   4  149.88   16.00
   5   6  -4  120.09   18.80
   5  -6  -4  135.69   22.50
  -5  -6   4  117.39   20.90
   5  -6  -4  134.99   15.70
  -5  -6   4  109.79   13.80
   5  -6  -4  133.79   13.30
   5   6  -3  517.05   39.70
  -5   6   3  483.45   34.10
   5  -6  -3  559.74   35.00
   5  -6  -3  526.55   42.30
  -5  -6   3  521.05   33.90
  -5  -6   3  527.05   43.20
   5  -6  -3  564.94   33.60
  -5   6   2  179.58   16.10
   5   6  -2  172.88   19.90
  -5  -6   2  197.48   23.30
   5  -6  -2  165.68   14.90
  -5  -6   2  171.68   17.00
   5  -6  -2  171.88   20.70
  -5  -6   2  165.98   14.70
  -5   6   1  467.95   33.10
   5   6  -1  528.95   37.80
  -5  -6   1  496.05   42.20
  -5  -6   1  522.65   34.20
  -5  -6   1  473.55   30.60
   5  -6  -1  502.95   31.50
   5  -6  -1  482.15   38.00
   5  -6  -1  501.95   31.50
  -5   6   0  430.26   32.60
   5   6   0  457.75   36.50
   5  -6   0  490.55   30.90
  -5  -6   0  478.95   29.20
  -5  -6   0  481.15   42.30
  -5  -6   0  448.26   34.10
   5  -6   0  480.85   37.90
   5  -6   0  508.55   29.60
  -5   6  -1    4.60   11.10
   5   6   1  -13.80   13.60
  -5  -6  -1  -11.80   17.10
   5  -6   1  -15.50   14.30
   5  -6   1   18.40    9.30
  -5  -6  -1    0.90    6.50
   5  -6   1    4.50    7.10
  -5  -6  -1   12.70   12.30
  -5   6  -2   86.59   14.80
   5   6   2   53.69   16.30
   5  -6   2   81.19    7.50
  -5  -6  -2   57.19    7.60
   5  -6   2   79.69   16.40
  -5  -6  -2   26.80   20.30
   5  -6   2   61.59   11.00
  -5  -6  -2   54.39   14.20
  -5   6  -3    7.00   14.20
   5   6   3   49.30   18.60
   5  -6   3   20.30   10.70
  -5  -6  -3   23.90    4.90
  -5  -6  -3    3.70   13.40
  -5  -6  -3   33.20   20.50
   5  -6   3   28.80   14.20
  -5   6  -4   29.90   17.10
  -5   6  -4   81.89   14.10
   5   6   4   34.10   20.40
   5  -6   4   37.40   11.70
   5  -6   4   49.40   14.50
  -5  -6  -4   23.10   21.30
  -5  -6  -4   67.69   15.90
   5   6   5  -13.70   18.90
  -5   6  -5  -16.70   16.60
  -5  -6  -5    9.50   15.60
   5  -6   5   12.20   11.00
  -5  -6  -5   18.00   22.60
   5   6   6   63.09   24.90
  -5   6  -6  127.49   22.90
  -5  -6  -6   28.00   25.40
  -5  -6  -6  106.49   19.80
   5  -6   6   79.99   14.40
   5   6   7   19.80   24.10
  -5   6  -7   29.70   21.50
  -5  -6  -7   15.90   19.50
   5  -6   7    1.60   13.20
  -5   7   8   22.90   17.80
   5   7  -8  -25.30   20.70
   5  -7  -8    1.10   16.10
  -5  -7   8   -3.90   13.60
  -5  -7   8   34.20   16.50
   5  -7  -8   -4.20   11.30
  -5   7   7  -19.20   14.30
   5   7  -7  -27.70   19.20
   5  -7  -7   17.20   10.70
  -5  -7   7   22.60   12.30
  -5  -7   7    8.60   14.40
   5  -7  -7   28.20   15.60
   5   7  -6   14.30   18.30
  -5   7   6    9.30   14.20
  -5  -7   6   -0.60   11.80
  -5  -7   6   13.40   13.70
   5  -7  -6   -4.10   13.70
  -5  -7   6   20.00   25.60
   5  -7  -6    9.20   10.20
   5   7  -5  428.26   40.20
  -5   7   5  396.46   34.70
  -5  -7   5  482.05   35.00
   5  -7  -5  440.16   35.20
  -5  -7   5  421.16   43.90
   5  -7  -5  446.96   30.90
  -5  -7   5  444.66   32.90
   5   7  -4    0.90   16.50
  -5   7   4    0.00   14.10
  -5  -7   4   15.80   18.60
   5  -7  -4   22.70   19.10
  -5  -7   4    6.40   11.50
   5  -7  -4    9.30   12.50
   5  -7  -4    2.20   10.00
  -5  -7   4   -3.20   12.50
  -5   7   3   69.29   15.80
   5   7  -3   41.80   16.80
  -5  -7   3   36.40   20.40
   5  -7  -3   42.30   10.80
  -5  -7   3   55.79   15.20
   5  -7  -3   29.70   19.10
  -5  -7   3   63.79   11.80
   5  -7  -3   47.40   13.00
   5   7  -2   58.29   17.60
   5  -7  -2   45.40   18.70
  -5  -7   2   77.59   21.30
  -5  -7   2   81.79   11.80
  -5  -7   2   91.69   14.60
   5  -7  -2   66.09   11.60
   5  -7  -2   82.59   12.80
   5   7  -1  138.59   20.50
  -5   7   1  172.38   17.40
  -5  -7   1  155.98   14.20
   5  -7  -1  144.69   22.00
  -5  -7   1  162.28   24.60
  -5  -7   1  143.59   17.60
   5  -7  -1  165.28   15.40
  -5   7   0   83.89   15.10
   5   7   0   38.40   17.20
   5  -7   0   54.59   19.00
  -5  -7   0   57.49   14.80
   5  -7   0   66.99   10.80
  -5  -7   0   73.09   11.60
  -5  -7   0   73.79   23.10
   5  -7   0   81.99   12.40
  -5   7  -1  466.45   35.10
   5   7   1  454.15   38.80
   5  -7   1  444.86   31.90
  -5  -7  -1  463.85   29.00
   5  -7   1  443.16   40.60
  -5  -7  -1  434.36   45.50
  -5  -7  -1  459.25   36.30
   5  -7   1  456.35   29.50
  -5   7  -2   47.00   15.10
   5   7   2   16.70   17.00
  -5  -7  -2   56.59   16.20
   5  -7   2   61.79    8.30
  -5  -7  -2   40.20    8.30
   5  -7   2   32.10   12.10
  -5  -7  -2   63.99   22.80
   5  -7   2   12.10   17.90
  -5   7  -3   -9.10   15.60
   5   7   3   -0.20   18.40
   5  -7   3    6.70   16.60
  -5  -7  -3   -1.90   15.00
  -5  -7  -3   16.40   21.80
  -5  -7  -3    7.20    6.20
   5  -7   3    8.90   11.70
   5   7   4   83.99   25.10
  -5   7  -4  125.19   21.10
  -5  -7  -4   84.39   25.20
   5  -7   4  134.29   19.70
  -5  -7  -4  115.89   19.60
   5  -7   4   94.59   15.20
  -5   7  -5  164.58   23.70
   5   7   5  151.38   26.40
   5  -7   5  127.59   17.20
  -5  -7  -5  145.39   21.70
   5  -7   5  133.99   19.10
   5   7   6   23.40   23.60
  -5   7  -6  -25.50   20.10
   5  -7   6  -10.30   12.70
  -5  -7  -6   -9.80   18.10
   5   8  -7    1.00   21.60
  -5   8   7   29.90   17.20
   5  -8  -7    8.50   12.00
  -5  -8   7   21.80   13.50
   5  -8  -7    5.30   16.70
  -5  -8   7   38.90   16.90
   5   8  -6   53.69   21.50
  -5   8   6   17.40   15.80
   5  -8  -6   45.60   17.00
  -5  -8   6   36.70   14.60
  -5  -8   6   50.29   16.30
   5  -8  -6   28.30   12.00
   5   8  -5   50.49   20.80
  -5   8   5   35.00   17.40
   5  -8  -5   13.20   11.50
   5  -8  -5   12.20   15.00
  -5  -8   5   10.70   13.90
  -5  -8   5    5.20   13.10
  -5   8   4   90.09   16.80
   5   8  -4  117.89   21.20
  -5  -8   4   99.69   16.70
  -5  -8   4   64.19   14.80
   5  -8  -4   63.09   13.00
   5  -8  -4   78.19   16.40
   5   8  -3   -1.90   17.50
  -5   8   3  -13.90   13.00
  -5  -8   3  -30.30   19.70
   5  -8  -3   -7.80   12.10
   5  -8  -3  -18.50   10.20
  -5  -8   3   -9.60   14.50
  -5  -8   3   -2.30   11.40
   5  -8  -3    1.30   21.90
  -5   8   2  237.58   22.10
   5   8  -2  239.08   25.80
   5  -8  -2  256.57   24.10
  -5  -8   2  219.78   22.00
   5  -8  -2  271.47   23.20
   5  -8  -2  209.98   27.40
  -5  -8   2  153.28   28.50
  -5  -8   2  270.57   23.70
  -5   8   1   27.60   14.60
   5   8  -1    2.80   17.70
  -5  -8   1    7.80   21.60
  -5  -8   1   25.10   14.50
   5  -8  -1   -3.00   11.20
   5  -8  -1   25.70   20.40
   5  -8  -1   14.60   11.10
  -5  -8   1  -13.10    9.60
  -5   8   0    4.00   14.40
   5   8   0   25.90   17.90
  -5  -8   0   30.10   10.10
   5  -8   0    2.20   12.10
   5  -8   0    8.30   11.10
  -5  -8   0   20.40   15.50
  -5  -8   0  -26.10   22.00
   5  -8   0    0.50   20.40
   5   8   1  105.89   20.70
  -5   8  -1   97.69   18.00
   5  -8   1  102.49   12.80
  -5  -8  -1  109.39   12.30
   5  -8   1   96.89   23.10
   5  -8   1   84.59   14.60
  -5  -8  -1   78.89   18.10
  -5   8  -2  198.88   24.10
   5   8   2  190.28   25.40
   5  -8   2  237.68   19.60
  -5  -8  -2  258.17   19.90
  -5  -8  -2  226.58   24.10
   5  -8   2  184.78   19.40
   5  -8   2  253.57   27.70
  -5   8  -3   10.90   17.70
   5   8   3   28.10   20.10
   5  -8   3   -5.80   12.10
  -5  -8  -3   36.00   17.30
  -5  -8  -3   14.90    8.10
   5  -8   3   11.10   19.80
   5   8   4   13.50   24.90
  -5   8  -4   26.00   20.30
   5  -8   4   85.09   21.50
   5  -8   4   70.69   15.50
  -5  -8  -4   60.19   19.10
   5   8   5  -23.30   22.80
  -5   8  -5   23.90   22.00
   5  -8   5    8.60   19.50
   5  -8   5  -32.50   13.20
  -5  -8  -5   10.40   19.00
  -5   9   6   23.40   17.50
   5   9  -6   29.20   23.20
   5  -9  -6   58.19   14.50
  -5  -9   6   27.40   15.70
  -5  -9   6   46.80   17.40
   5  -9  -6   60.69   19.30
  -5   9   5   55.89   20.80
   5   9  -5   30.40   22.30
   5  -9  -5   55.39   17.50
   5  -9  -5   72.19   14.70
  -5  -9   5   87.39   17.40
  -5  -9   5   39.50   15.80
   5   9  -4   79.19   23.00
  -5   9   4   54.89   18.20
  -5  -9   4  110.49   18.80
  -5  -9   4   99.19   16.80
   5  -9  -4   73.49   14.40
   5  -9  -4  115.69   18.30
  -5   9   3   45.70   16.70
   5   9  -3   44.10   21.30
  -5  -9   3   70.39   18.20
  -5  -9   3   63.49   14.60
   5  -9  -3   80.19   16.70
   5  -9  -3   50.89   13.60
  -5   9   2   -8.40   15.70
   5   9  -2   25.00   19.70
   5  -9  -2    9.10   12.20
  -5  -9   2   15.70   12.50
   5  -9  -2   24.20   13.50
  -5  -9   2   16.20   15.10
  -5   9   1   98.89   18.70
   5   9  -1   61.99   21.20
  -5  -9   1   81.59   13.70
   5  -9  -1   79.59   14.10
  -5  -9   1   68.59   18.00
   5  -9  -1   78.79   15.20
  -5   9   0   34.80   17.50
   5   9   0   52.39   20.60
  -5  -9   0   52.59   17.90
   5  -9   0   34.80   13.50
  -5  -9   0   31.50   11.90
   5  -9   0   49.10   13.20
   5  -9   0   47.80   24.10
  -5   9  -1   81.19   19.30
   5   9   1   36.60   19.90
   5  -9   1   45.40   14.90
  -5  -9  -1   45.30   18.80
   5  -9   1   89.99   25.40
  -5  -9  -1   67.59   12.30
   5  -9   1   68.79   13.50
   5   9   2   28.20   21.00
  -5   9  -2   28.90   19.30
   5  -9   2   30.30   24.10
   5  -9   2   16.40   14.00
  -5  -9  -2   40.20   11.10
   5  -9   2   30.40   11.00
  -5  -9  -2   23.80   18.50
   5   9   3   70.89   24.10
  -5   9  -3   73.89   22.50
   5  -9   3  139.99   27.30
  -5  -9  -3  130.79   22.50
  -5  -9  -3   99.59   12.30
   5  -9   3   85.29   16.90
  -5   9  -4    6.20   21.90
   5   9   4   15.00   25.30
  -5  -9  -4   18.60   19.60
   5  -9   4   -9.70   23.70
   5  -9   4   -3.80   14.60
   5  10  -4   92.69   25.10
  -5  10   4  110.39   22.20
   5 -10  -4  135.59   18.20
  -5 -10   4  131.59   19.70
   5 -10  -4  130.09   21.40
  -5 -10   4  108.19   21.00
  -5  10   3   23.40   18.10
   5  10  -3  -14.70   21.10
   5 -10  -3   13.80   16.40
   5 -10  -3   32.10   14.40
  -5 -10   3    6.60   15.00
  -5 -10   3   33.00   19.40
   5  10  -2   13.50   22.00
  -5  10   2   -9.70   17.90
   5 -10  -2  -11.20   14.60
  -5 -10   2   -2.20   13.30
  -5 -10   2  -10.30   16.80
   5 -10  -2    2.80   13.70
  -5  10   1   31.60   18.90
   5  10  -1   34.90   22.20
   5 -10  -1    7.70   14.00
  -5 -10   1    4.70   17.40
  -5 -10   1  -10.70   12.70
   5 -10  -1    9.30   14.50
  -5  10   0  160.88   24.10
   5  10   0  148.59   25.80
   5 -10   0  194.28   19.70
   5 -10   0  116.49   18.50
  -5 -10   0  191.98   18.10
  -5 -10   0  122.19   22.80
   5  10   1   23.50   21.60
  -5  10  -1   85.59   21.60
  -5 -10  -1   12.00   12.80
   5 -10   1   26.20   14.30
   5 -10   1  -12.40   14.30
  -5 -10  -1   13.30   19.30
  -5  10  -2   63.89   22.60
   5  10   2    5.90   21.80
   5 -10   2   54.79   16.70
   5 -10   2   33.50   19.00
  -5 -10  -2   40.60   21.00
  -5 -10  -2   49.30   13.60
   6   0 -10  483.35   40.10
   6   0  -9    3.90   13.40
   6   0  -9   -0.90   16.60
   6   0  -8   36.90   16.00
  -6   0   8   14.70   14.00
   6   0  -8   -3.50   11.20
   6   0  -7    0.70    9.20
  -6   0   7  -16.10   11.30
  -6   0   6  128.29   15.10
   6   0  -6  141.99   12.70
   6   0  -5   -3.60    6.30
  -6   0   5   -3.60    8.90
   6   0  -4 3253.77  174.08
  -6   0   4 3232.38  175.58
  -6   0   4 3326.87  178.48
   6   0  -3   -0.30    5.20
  -6   0   3  -10.30   12.50
  -6   0   3   -2.10    8.10
   6   0  -2  190.08   14.00
   6   0  -2  219.48   20.00
  -6   0   2  202.48   17.50
   6   0  -2  175.08   14.80
  -6   0   2  153.78   18.10
   6   0  -1   -0.60    7.70
  -6   0   1  -13.00    7.70
   6   0  -1    0.90    7.00
  -6   0   1   -6.40   11.10
   6   0  -1   11.80   12.40
   6   0   0  311.67   18.60
   6   0   0  282.97   23.80
  -6   0   0  297.47   21.30
   6   0   0  298.37   21.50
  -6   0   0  222.38   23.50
   6   0   1   10.40    8.90
  -6   0  -1    7.80    9.00
   6   0   1   -5.00    5.40
   6   0   1    6.50    9.80
  -6   0  -1    0.70    8.80
  -6   0  -2   38.20    8.40
   6   0   2   27.20   11.80
   6   0   2   30.50    7.70
   6   0   2   47.00    5.80
  -6   0  -2   29.40    8.80
   6   0   3    8.50    4.70
  -6   0  -3   -8.50    7.80
   6   0   3    3.60   12.30
  -6   0  -4  683.93   40.80
   6   0   4  604.54   47.40
   6   0   4  722.33   38.10
  -6   0  -5    6.80    9.90
   6   0   5    1.70    5.80
   6   0   5   27.10   17.80
  -6   0  -6  257.07   23.90
   6   0   6  297.37   18.80
   6   0   6  196.88   28.60
   6   0   7  -11.90    7.10
   6   0   7  -12.20   22.10
  -6   0  -8    9.50   14.10
   6   0   8   -4.00   24.60
   6   1 -10    6.50   16.40
   6  -1 -10   -3.30   10.60
   6   1  -9  137.49   18.10
  -6  -1   9  121.39   18.20
   6  -1  -9   70.49   19.20
   6  -1  -9  100.79   13.40
   6   1  -8   74.29   14.10
   6  -1  -8   66.09   10.80
   6  -1  -8   51.99   17.40
  -6  -1   8   73.19   15.00
  -6   1   7   53.79   14.00
   6   1  -7   36.60   10.90
  -6  -1   7   45.80   12.50
   6  -1  -7   29.00    9.10
  -6  -1   7   51.29   10.30
   6  -1  -7   20.30   14.80
   6   1  -6  303.97   24.30
  -6   1   6  353.96   27.70
  -6  -1   6  284.67   29.90
  -6  -1   6  356.76   34.80
   6  -1  -6  348.07   23.40
   6  -1  -6  385.26   30.70
  -6  -1   6  349.47   24.30
   6   1  -5  176.28   15.60
  -6   1   5  182.08   16.20
  -6  -1   5  181.58   21.20
   6  -1  -5  173.58   14.30
   6  -1  -5  180.08   15.70
  -6  -1   5  153.08   16.00
  -6  -1   5  158.48   14.90
  -6   1   4  250.47   21.30
   6   1  -4  238.48   17.80
  -6  -1   4  203.58   22.50
   6  -1  -4  249.68   15.60
  -6  -1   4  236.48   20.00
  -6  -1   4  264.97   18.10
   6  -1  -4  228.88   18.30
  -6   1   3 2567.34  142.49
   6   1  -3 2612.04  141.49
  -6  -1   3 2666.03  142.69
  -6  -1   3 2705.93  145.49
   6  -1  -3 2677.73  142.09
   6   1  -2   -2.60   13.10
  -6   1   2   -4.10    7.80
   6   1  -2    0.10    7.20
  -6  -1   2   -3.30   12.60
   6  -1  -2   -0.80   11.30
   6  -1  -2   -0.20    7.30
  -6  -1   2   -0.10    8.50
   6   1  -1   77.59    8.40
  -6   1   1   89.69   10.50
   6   1  -1   89.09   13.70
  -6   1   1   95.99   10.00
   6   1  -1  100.49   10.20
  -6  -1   1  102.89   11.80
   6  -1  -1  115.69   13.30
   6  -1  -1  103.59    9.30
   6  -1  -1   96.29    8.40
  -6  -1   1   96.69   15.70
   6   1   0   28.10   11.10
   6   1   0   62.59    7.20
  -6   1   0   38.80    8.50
   6   1   0   32.00   10.30
  -6  -1   0   33.80   11.10
  -6  -1   0   21.10   11.80
   6  -1   0   52.89    8.70
   6  -1   0   47.40    7.30
   6  -1   0   39.30   10.60
   6   1   1   19.20   10.00
   6   1   1   15.80    5.00
  -6   1  -1    6.80    7.20
   6   1   1   14.60   10.40
   6  -1   1    7.10    9.30
   6  -1   1   18.90    6.30
  -6  -1  -1   11.30    9.70
   6  -1   1   19.90    8.30
  -6  -1  -1   18.70    8.80
   6   1   2  209.88   18.40
   6   1   2  170.48   18.00
  -6   1  -2  200.68   16.10
   6   1   2  204.48   12.40
  -6  -1  -2  165.38   21.20
  -6  -1  -2  170.98   18.10
   6  -1   2  195.68   14.20
   6  -1   2  155.98   17.00
   6   1   3 1050.39   57.79
   6   1   3 1034.50   55.39
   6   1   3 1061.09   61.89
   6  -1   3 1011.60   56.49
  -6  -1  -3 1047.50   58.69
  -6  -1  -3  982.90   58.09
   6  -1   3 1069.09   62.19
   6   1   4  148.49   19.20
  -6   1  -4  174.08   16.30
   6   1   4  174.88   17.10
  -6  -1  -4  158.38   14.70
   6  -1   4  165.68   13.50
  -6  -1  -4  116.09   13.50
   6  -1   4  131.09   19.50
  -6   1  -5  265.87   20.90
   6   1   5  286.97   27.50
  -6  -1  -5  236.18   23.70
   6  -1   5  256.77   18.80
   6  -1   5  261.47   27.00
   6   1   6   55.59   21.50
  -6   1  -6   54.39   10.90
   6  -1   6   48.30   21.00
  -6  -1  -6   50.19   12.90
   6  -1   6   51.99    9.00
   6   1   7   31.40   24.10
  -6   1  -7   33.20   11.50
   6  -1   7   -4.70    8.90
  -6  -1  -7   22.20   13.20
   6  -1   7   10.60   23.30
  -6   1  -8   22.70   12.20
   6   1   8  -17.20   24.40
  -6  -1  -8   -3.30   13.80
   6  -1   8    7.50   10.10
   6  -1   8  -10.90   24.90
   6   2 -10   29.90   17.80
   6  -2 -10   39.50   14.50
   6  -2 -10   48.70   13.60
   6   2  -9   35.00   15.60
  -6  -2   9   16.30   14.80
  -6  -2   9   29.20   12.60
   6  -2  -9   15.20   11.20
   6  -2  -9   11.50   17.90
   6   2  -8  218.18   20.50
  -6  -2   8  167.78   17.60
   6  -2  -8  201.28   17.20
   6  -2  -8  180.48   22.70
  -6  -2   8  212.08   20.00
   6   2  -7   10.60   11.70
  -6  -2   7   27.50   18.40
   6  -2  -7   28.80   15.60
  -6  -2   7   34.80   12.00
   6  -2  -7   39.80    9.80
  -6  -2   7   40.10   10.70
   6   2  -6   57.79   10.80
  -6   2   6   55.99   13.20
  -6  -2   6   51.29   18.20
  -6  -2   6   48.20   11.10
   6  -2  -6   53.39   10.20
   6  -2  -6   41.90   15.00
  -6  -2   6   63.59   10.40
   6   2  -5   78.09   10.30
  -6   2   5   51.89   14.60
  -6  -2   5   62.19   10.50
   6  -2  -5   61.89   14.00
  -6  -2   5   48.90   17.60
   6  -2  -5   45.00   10.60
  -6  -2   5   52.89   10.90
   6   2  -4  763.92   46.60
  -6   2   4  755.32   47.60
   6  -2  -4  873.21   43.90
  -6  -2   4  845.62   53.59
   6  -2  -4  779.72   50.09
  -6  -2   4  779.42   46.20
  -6  -2   4  790.92   47.20
   6  -2  -4  827.32   46.80
  -6   2   3   58.99   10.00
   6   2  -3   35.00    9.10
   6  -2  -3   24.80    7.60
  -6  -2   3   46.50    7.90
  -6  -2   3   47.40   10.00
   6  -2  -3   62.29   12.70
  -6  -2   3   35.10   16.60
  -6   2   2 2870.61  154.68
   6   2  -2 2824.92  154.48
  -6  -2   2 2786.82  153.78
  -6  -2   2 2935.11  155.18
   6  -2  -2 2910.91  156.08
  -6  -2   2 2905.01  157.98
   6  -2  -2 2926.81  154.28
  -6   2   1  613.74   33.10
   6   2  -1  579.74   36.60
  -6   2   1  599.04   35.10
   6   2  -1  499.85   45.10
   6  -2  -1  607.84   37.50
  -6  -2   1  574.64   39.50
   6  -2  -1  635.54   37.70
  -6  -2   1  576.74   38.20
   6   2   0  343.57   26.30
   6   2   0  427.36   30.40
  -6   2   0  375.86   23.90
   6  -2   0  346.37   25.50
  -6  -2   0  373.56   26.10
   6  -2   0  380.16   24.10
   6  -2   0  403.66   26.50
  -6  -2   0  329.47   28.70
   6   2   1  301.67   27.80
  -6   2  -1  318.67   21.50
   6   2   1  316.17   20.10
   6   2   1  380.26   28.10
   6  -2   1  368.36   23.10
  -6  -2  -1  295.17   27.10
  -6  -2  -1  337.57   24.60
   6  -2   1  328.97   22.20
   6  -2   1  321.77   24.20
   6  -2   1  325.57   21.50
   6   2   2  406.46   30.10
  -6   2  -2  365.06   25.50
   6   2   2  444.96   31.50
   6   2   2  429.76   23.20
   6  -2   2  438.26   30.70
  -6  -2  -2  427.26   28.80
  -6  -2  -2  419.36   31.00
   6  -2   2  436.36   25.80
   6   2   3   31.80   10.50
  -6   2  -3   25.10    6.60
   6   2   3   46.40   14.10
   6  -2   3   39.30   13.60
   6  -2   3   17.00    6.80
  -6  -2  -3   39.50   10.50
  -6  -2  -3   28.80   12.20
  -6   2  -4  923.21   50.79
   6   2   4  952.40   59.29
   6   2   4  947.81   54.49
   6  -2   4  864.41   51.49
  -6  -2  -4  920.81   54.99
   6  -2   4  939.51   58.59
   6   2   5   47.50   18.40
  -6   2  -5   41.70    7.80
   6   2   5   76.59   13.90
   6  -2   5   45.30    8.60
  -6  -2  -5   32.80   12.40
   6  -2   5   44.10   19.10
  -6  -2  -5   30.30   14.10
  -6   2  -6    9.30    7.60
   6   2   6    9.10   19.80
   6  -2   6    9.20    9.70
  -6  -2  -6   26.70   14.50
  -6  -2  -6    8.00   12.70
   6  -2   6   35.00   21.10
   6   2   7   -5.50   22.10
  -6  -2  -7    5.20   14.10
   6  -2   7    3.50    9.90
   6   2   8   16.70   24.90
   6  -2   8   38.20   11.90
  -6  -2  -8   68.09   16.90
   6   3 -10   -4.30   18.20
   6  -3 -10    4.80   11.70
   6  -3 -10   16.20   15.10
  -6  -3  10   -8.90   14.10
   6   3  -9  111.59   19.60
   6  -3  -9  113.09   17.00
  -6  -3   9  107.99   17.80
   6  -3  -9  102.99   14.60
  -6  -3   9  142.19   17.20
  -6   3   8  -13.80   13.30
   6   3  -8   -6.40   13.30
   6  -3  -8   -2.10   17.30
  -6  -3   8  -12.20   19.40
   6  -3  -8  -11.40    9.80
  -6  -3   8   -0.40   12.10
  -6  -3   8   12.30   11.80
  -6   3   7    3.50   11.20
   6   3  -7   10.30   12.40
   6  -3  -7  -10.80    9.00
  -6  -3   7   11.20   11.10
  -6  -3   7   14.60   10.30
   6  -3  -7   -9.70   15.10
  -6  -3   7   28.60   20.40
  -6   3   6    4.80    9.40
   6   3  -6   17.30   11.10
  -6  -3   6   -1.40   18.80
  -6  -3   6    7.00    9.60
   6  -3  -6   11.20   14.70
  -6  -3   6   18.40    9.70
   6  -3  -6    4.10    8.70
  -6   3   5 1193.38   63.19
   6   3  -5 1115.59   65.39
  -6   3   5 1093.29   66.49
  -6  -3   5 1118.39   64.89
  -6  -3   5 1174.88   64.79
   6  -3  -5 1145.29   68.69
  -6  -3   5 1195.08   72.89
  -6   3   4  252.57   16.00
  -6   3   4  244.58   22.20
   6   3  -4  201.68   21.50
   6  -3  -4  275.57   18.50
   6  -3  -4  230.48   25.90
  -6  -3   4  212.18   19.00
   6  -3  -4  236.88   19.40
  -6  -3   4  227.18   21.00
  -6  -3   4  238.78   26.90
  -6   3   3  527.05   33.20
   6   3  -3  539.55   33.20
   6  -3  -3  559.04   36.00
  -6  -3   3  500.45   30.70
   6  -3  -3  416.66   31.00
  -6  -3   3  533.65   40.30
  -6  -3   3  487.55   33.10
   6   3  -2  324.77   25.00
  -6   3   2  302.07   23.10
   6  -3  -2  327.07   26.20
   6  -3  -2  286.27   21.60
  -6  -3   2  322.17   25.40
  -6  -3   2  313.17   29.50
  -6  -3   2  310.07   21.10
  -6   3   1  213.78   15.30
   6   3  -1  213.68   21.70
  -6   3   1  236.08   18.40
  -6  -3   1  221.78   16.00
  -6  -3   1  183.28   19.50
   6  -3  -1  228.98   21.80
   6  -3  -1  213.08   18.20
  -6  -3   1  246.58   21.10
  -6   3   0  102.59   10.60
   6   3   0  135.79   14.20
  -6   3   0  128.79   10.60
  -6  -3   0  116.79   10.90
   6  -3   0  122.69   13.00
  -6  -3   0   96.39   15.80
   6  -3   0   99.39   10.50
  -6  -3   0   84.19   12.10
  -6   3  -1  267.67   18.40
   6   3   1  245.68   24.20
  -6  -3  -1  293.57   27.60
  -6  -3  -1  277.37   23.20
   6  -3   1  275.27   19.70
  -6   3  -2  378.86   23.00
   6   3   2  365.96   32.90
  -6  -3  -2  373.36   32.00
  -6  -3  -2  382.86   28.40
   6  -3   2  389.56   24.80
   6  -3   2  400.66   25.60
   6  -3   2  411.36   24.90
   6   3   3   27.10   14.40
   6  -3   3   61.39    8.90
  -6  -3  -3   58.39   15.10
  -6  -3  -3   59.99   12.30
   6   3   4   81.29   17.30
  -6  -3  -4   66.29   13.30
  -6  -3  -4   55.89   16.40
   6   3   5  570.84   45.00
  -6  -3  -5  534.05   37.30
   6  -3   5  525.65   33.50
  -6  -3  -5  553.34   40.70
   6   3   6   10.20   20.10
  -6  -3  -6   -1.20   13.50
  -6  -3  -6   -1.40   17.10
   6  -3   6   19.30    9.60
   6   3   7   -3.70   22.40
   6  -3   7   14.80   10.80
  -6  -3  -7   -8.60   14.60
  -6  -3  -7   10.30   19.00
   6   3   8   46.50   26.50
  -6  -3  -8   -9.90   16.50
   6  -3   8   39.90   13.30
  -6  -3  -8   28.70   20.80
   6   4 -10   96.39   22.70
  -6  -4  10   95.09   19.00
   6  -4 -10   96.79   19.30
   6  -4 -10  115.29   15.20
  -6  -4  10  110.29   18.70
   6   4  -9  123.99   21.40
  -6   4   9  166.48   20.20
   6  -4  -9  121.59   19.10
   6  -4  -9  129.59   15.20
  -6  -4   9   87.99   26.40
  -6  -4   9  130.89   18.30
  -6  -4   9  128.49   18.10
   6   4  -8   27.20   16.00
  -6   4   8   56.59   14.80
  -6  -4   8   62.09   14.30
   6  -4  -8   30.10   14.30
  -6  -4   8   57.19   23.30
  -6  -4   8   57.89   13.90
   6  -4  -8   59.39   11.70
   6   4  -7   36.70   14.90
  -6   4   7   53.69   12.60
   6  -4  -7   29.50   19.00
  -6  -4   7   13.30   22.30
  -6  -4   7   33.00   11.60
  -6  -4   7   51.29   12.30
   6  -4  -7   36.00   10.50
  -6   4   6   50.99   10.70
   6   4  -6   21.20   13.20
  -6  -4   6   32.60   10.90
   6  -4  -6   32.30   17.20
   6  -4  -6   59.49   10.80
  -6  -4   6   52.99   21.70
  -6   4   5  158.58   15.40
   6   4  -5  140.59   16.60
  -6  -4   5  133.59   25.40
  -6  -4   5  165.78   15.90
   6  -4  -5  144.49   13.90
   6  -4  -5  128.89   19.50
  -6  -4   5  197.88   18.70
   6   4  -4  976.50   57.39
  -6   4   4 1015.00   53.39
  -6  -4   4  997.40   55.29
  -6  -4   4 1065.49   64.49
  -6  -4   4  943.11   56.59
   6  -4  -4  796.02   57.29
   6  -4  -4  999.40   60.89
   6   4  -3  308.07   26.20
  -6   4   3  351.76   20.70
  -6  -4   3  299.57   22.40
  -6  -4   3  305.17   31.90
   6  -4  -3  270.77   29.20
  -6  -4   3  305.37   25.30
   6  -4  -3  301.77   23.00
  -6   4   2  320.27   19.60
  -6   4   2  306.07   23.50
   6   4  -2  222.78   24.90
   6  -4  -2  299.97   27.60
  -6  -4   2  279.97   29.50
   6  -4  -2  315.97   22.00
  -6  -4   2  290.37   20.50
  -6  -4   2  250.27   25.90
  -6   4   1   48.30    9.20
  -6   4   1   24.30    7.60
   6   4  -1   19.90   11.70
   6  -4  -1   32.70   12.20
  -6  -4   1   20.10    6.60
   6  -4  -1   19.60    8.20
  -6  -4   1   23.60   10.20
  -6  -4   1    3.40   14.30
  -6   4   0  143.79   12.70
  -6   4   0  151.68   14.90
  -6   4   0  159.38   18.10
   6   4   0  130.49   16.10
   6  -4   0  171.78   16.00
  -6  -4   0  141.99   15.10
  -6  -4   0  152.38   12.60
  -6  -4   0  135.89   18.80
   6  -4   0  142.59   15.70
  -6   4  -1   14.50   10.10
   6   4   1   25.10   12.30
  -6   4  -1   13.00    9.60
  -6  -4  -1    2.80    9.90
  -6  -4  -1   14.50    5.20
  -6  -4  -1   12.20   14.90
   6  -4   1   34.30   10.90
  -6   4  -2   87.99   13.80
   6   4   2   56.99   16.10
   6  -4   2   89.19   12.90
   6  -4   2   96.09   11.20
  -6  -4  -2   75.09   17.30
  -6  -4  -2   82.29   13.40
  -6   4  -3   95.59   15.50
   6   4   3  103.89   18.60
  -6  -4  -3  128.69   18.90
   6  -4   3   89.69   11.40
  -6  -4  -3  111.89   15.10
   6   4   4  346.37   33.10
  -6  -4  -4  330.37   28.90
  -6  -4  -4  314.37   35.20
   6  -4   4  319.27   24.50
   6   4   5   10.10   18.60
  -6  -4  -5   -2.50   12.90
  -6  -4  -5    0.30   18.00
   6  -4   5    2.90    9.00
   6   4   6   95.69   22.40
  -6  -4  -6   90.99   22.70
   6  -4   6  105.99   13.20
  -6  -4  -6   90.09   17.60
   6   4   7   42.60   24.00
  -6  -4  -7   34.20   17.40
  -6  -4  -7   54.69   23.60
   6  -4   7   51.49   12.70
   6   5  -9   48.90   20.60
  -6   5   9  -11.50   16.60
   6  -5  -9   23.20   11.50
  -6  -5   9   24.20   15.20
  -6  -5   9   46.50   16.00
   6  -5  -9   44.90   16.50
  -6   5   8   41.10   15.10
   6   5  -8   17.80   17.60
  -6  -5   8   29.10   24.30
   6  -5  -8   35.20   15.70
  -6  -5   8   32.60   13.40
   6  -5  -8   56.09   11.80
  -6  -5   8   28.60   14.00
   6   5  -7  383.16   33.80
   6  -5  -7  278.37   44.70
   6  -5  -7  297.87   29.70
  -6  -5   7  341.37   33.00
  -6  -5   7  279.77   35.00
   6  -5  -7  348.57   26.40
  -6  -5   7  343.07   28.90
   6   5  -6   42.40   15.30
  -6   5   6   44.20   11.00
  -6  -5   6   35.30   11.80
  -6  -5   6   28.10   12.00
   6  -5  -6   26.90   10.70
  -6  -5   6   54.19   24.30
   6  -5  -6   27.90   12.50
   6  -5  -6   27.90   19.10
   6   5  -5    8.20   14.00
  -6   5   5   -3.10    8.80
   6  -5  -5   -3.00   16.20
   6  -5  -5   -7.80    9.30
  -6  -5   5   22.20   21.60
  -6  -5   5   17.30   10.50
  -6  -5   5    0.60   12.90
   6   5  -4   52.89   14.50
  -6   5   4   57.89    9.80
  -6  -5   4   76.49   11.30
  -6  -5   4   44.30   17.70
   6  -5  -4   48.40   17.40
   6  -5  -4   56.79   10.80
  -6   5   3 1114.49   60.79
   6   5  -3 1106.49   65.09
   6  -5  -3 1054.29   66.89
   6  -5  -3 1144.19   62.29
  -6  -5   3 1062.69   61.89
  -6  -5   3 1090.59   68.29
   6   5  -2  272.37   26.50
  -6   5   2  288.77   20.30
   6  -5  -2  265.87   21.20
   6  -5  -2  248.68   27.90
  -6  -5   2  208.88   24.10
  -6  -5   2  263.27   20.30
  -6  -5   2  269.57   25.50
  -6   5   1  290.07   21.40
   6   5  -1  265.17   27.30
  -6  -5   1  298.47   33.30
   6  -5  -1  274.67   21.50
   6  -5  -1  236.08   23.10
  -6  -5   1  255.17   19.40
  -6  -5   1  258.57   23.90
  -6   5   0   16.80    9.40
   6   5   0   14.00   12.90
  -6  -5   0   -2.80   16.20
   6  -5   0   18.50   12.80
  -6  -5   0    2.40   10.90
  -6  -5   0   -3.80    6.10
   6  -5   0    3.70    8.40
   6   5   1    8.90   13.00
  -6   5  -1   -1.50    9.80
  -6  -5  -1    9.90    5.50
   6  -5   1   13.10    9.00
  -6  -5  -1   25.20   17.70
   6  -5   1    9.30    6.30
   6  -5   1   -8.10   12.70
  -6  -5  -1  -19.00   10.80
  -6   5  -2  106.09   15.10
  -6   5  -2  112.49   13.80
   6   5   2  119.29   17.90
  -6  -5  -2   82.29   15.40
   6  -5   2  113.19    9.70
  -6  -5  -2   89.19    7.90
   6  -5   2   99.29   14.80
   6  -5   2  105.19   12.60
  -6  -5  -2   74.39   19.90
  -6   5  -3  659.83   39.40
  -6   5  -3  659.03   43.70
   6   5   3  616.14   47.90
   6  -5   3  562.44   39.70
  -6  -5  -3  694.23   49.10
   6  -5   3  597.84   39.40
  -6  -5  -3  683.93   43.10
  -6   5  -4   19.10   15.70
   6   5   4    5.00   17.00
   6  -5   4   -3.20    9.70
  -6  -5  -4    5.50   13.60
  -6  -5  -4   25.10   20.10
  -6   5  -5    9.00   17.00
   6   5   5   16.00   19.80
  -6  -5  -5   17.10   14.90
   6  -5   5   22.00   10.70
  -6  -5  -5   37.50   21.70
   6   5   6   19.90   22.50
  -6   5  -6   17.80   19.10
   6  -5   6   24.80   12.00
  -6  -5  -6   10.50   23.30
  -6  -5  -6   -0.10   16.20
  -6   5  -7   49.20   22.10
   6   5   7   42.90   24.50
   6  -5   7   31.70   13.60
  -6  -5  -7   33.90   18.70
  -6  -5  -7   55.69   27.60
   6   6  -9   30.30   21.30
  -6   6   9  -20.90   17.20
   6  -6  -9  -11.70   11.90
  -6  -6   9    0.30   15.30
   6  -6  -9   13.00   16.80
  -6  -6   9   16.30   15.30
   6   6  -8   16.60   19.40
  -6   6   8   40.60   16.00
  -6  -6   8   43.60   15.10
   6  -6  -8    2.90   15.30
  -6  -6   8   -0.10   13.40
   6  -6  -8   31.80   12.10
  -6   6   7   27.70   13.50
   6   6  -7   15.30   18.00
  -6  -6   7   18.60   12.70
   6  -6  -7    9.00   14.00
  -6  -6   7   -9.00   23.90
  -6  -6   7    8.20   12.00
   6  -6  -7    4.00   11.20
  -6   6   6  212.38   18.40
   6   6  -6  198.48   23.00
  -6  -6   6  168.48   33.60
  -6  -6   6  218.08   19.20
  -6  -6   6  162.58   18.90
   6  -6  -6  207.68   20.90
   6  -6  -6  224.28   22.20
  -6   6   5   46.20   11.00
   6   6  -5   25.40   16.40
   6  -6  -5  -20.40   18.00
  -6  -6   5   17.70   21.30
   6  -6  -5   13.50   10.50
  -6  -6   5   12.80   12.00
   6  -6  -5   11.20   12.90
  -6  -6   5    9.90   11.20
   6   6  -4  163.18   20.50
  -6   6   4  176.68   16.90
  -6  -6   4  179.48   16.70
   6  -6  -4  135.69   24.00
  -6  -6   4  184.68   18.40
   6  -6  -4  197.98   18.20
   6  -6  -4  161.68   15.60
  -6  -6   4  129.49   23.20
   6   6  -3   55.39   16.30
  -6   6   3   56.69   11.00
  -6  -6   3   40.80   14.80
   6  -6  -3   77.69   12.20
  -6  -6   3   51.49   10.90
   6  -6  -3   72.19   19.90
  -6  -6   3   28.20   17.00
   6  -6  -3   54.59   10.90
   6   6  -2  124.79   18.50
  -6   6   2  149.49   14.50
  -6  -6   2  117.39   12.90
   6  -6  -2  150.18   14.40
   6  -6  -2  142.79   19.60
  -6  -6   2  129.99   16.00
   6  -6  -2  133.99   14.60
  -6  -6   2  120.29   21.70
   6   6  -1  699.13   46.00
  -6   6   1  642.74   40.80
   6  -6  -1  651.33   40.30
   6  -6  -1  651.13   39.60
  -6  -6   1  644.84   42.10
  -6  -6   1  658.33   39.00
   6  -6  -1  620.04   46.10
  -6  -6   1  695.73   50.59
   6   6   0  282.57   25.80
  -6   6   0  286.07   24.90
   6  -6   0  297.67   20.90
  -6  -6   0  245.88   28.10
   6  -6   0  251.57   23.10
  -6  -6   0  298.77   27.60
   6  -6   0  278.57   30.70
  -6  -6   0  271.77   20.30
   6   6   1  170.48   21.30
  -6   6  -1  212.08   19.20
   6  -6   1  240.38   16.80
   6  -6   1  214.48   22.30
   6  -6   1  192.88   17.50
  -6  -6  -1  227.78   27.10
  -6  -6  -1  200.58   20.30
  -6  -6  -1  180.68   16.20
  -6   6  -2   53.79   14.80
   6   6   2   43.90   17.80
   6  -6   2   62.89   16.30
  -6  -6  -2   80.69   22.50
   6  -6   2  101.89   13.10
  -6  -6  -2   58.89    7.50
  -6  -6  -2   58.69   15.60
   6  -6   2   82.59    8.20
  -6   6  -3   43.70   16.40
   6   6   3   17.40   18.90
  -6  -6  -3   47.00   21.60
  -6  -6  -3   31.60   15.80
   6  -6   3   49.00   14.70
   6  -6   3   25.00   11.20
   6   6   4   62.59   22.70
  -6   6  -4  133.59   14.50
  -6   6  -4   86.99   19.40
   6  -6   4   91.99   14.50
  -6  -6  -4   67.09   24.00
  -6  -6  -4  106.59   18.30
   6   6   5   33.50   21.70
  -6   6  -5   68.29   20.20
   6  -6   5   26.50   12.20
  -6  -6  -5   38.30   17.00
  -6  -6  -5   49.20   24.00
  -6   6  -6   51.59   22.20
   6   6   6   51.39   24.60
  -6  -6  -6   54.09   19.50
   6  -6   6   99.39   14.80
  -6  -6  -6   36.30   26.10
   6   7  -8    3.30   20.90
  -6   7   8  -18.10   15.90
  -6  -7   8    3.20   14.10
  -6  -7   8    6.60   15.90
   6  -7  -8  -15.00   15.10
   6  -7  -8    2.70   12.20
  -6   7   7  -10.70   14.40
   6   7  -7   -0.60   19.40
   6  -7  -7   -6.30   15.00
   6  -7  -7   -3.30   11.20
  -6  -7   7    4.70   14.80
  -6  -7   7   10.60   13.10
   6   7  -6   80.69   20.80
  -6   7   6   94.29   15.30
   6  -7  -6   58.59   16.80
  -6  -7   6   47.80   15.00
   6  -7  -6   67.39   13.10
  -6  -7   6   76.09   15.80
  -6   7   5  289.27   30.10
   6   7  -5  329.97   30.80
  -6  -7   5  383.36   30.90
   6  -7  -5  403.56   32.30
   6  -7  -5  400.46   28.30
  -6  -7   5  301.17   33.20
  -6  -7   5  373.06   30.50
   6   7  -4   19.40   17.30
  -6   7   4    7.80   12.00
   6  -7  -4    7.60   12.80
  -6  -7   4    8.00   11.80
  -6  -7   4    4.20   19.10
   6  -7  -4   11.80   20.20
   6  -7  -4   -0.90   10.50
  -6  -7   4   17.60   13.60
  -6   7   3   31.70   12.00
   6   7  -3   52.69   18.10
  -6  -7   3   52.39   12.10
   6  -7  -3   81.29   12.70
  -6  -7   3   66.69   21.10
  -6  -7   3   38.80   16.50
   6  -7  -3   84.49   13.90
   6  -7  -3   52.89   19.90
  -6   7   2   14.20   12.10
   6   7  -2   15.60   16.60
  -6  -7   2    2.70   13.00
  -6  -7   2   22.60   20.80
   6  -7  -2   14.40   10.90
   6  -7  -2   26.50   18.50
  -6  -7   2   43.40   10.70
   6  -7  -2   16.10   10.50
   6   7  -1  139.59   21.20
  -6   7   1  156.28   19.40
  -6  -7   1  118.19   24.80
  -6  -7   1  139.29   17.70
   6  -7  -1  135.39   15.20
  -6  -7   1  150.28   14.00
   6  -7  -1  129.39   22.20
  -6   7   0   24.40   13.30
   6   7   0  -16.50   15.90
  -6  -7   0   -4.80   14.10
   6  -7   0   -7.70   17.70
   6  -7   0    9.30   11.00
  -6  -7   0    8.30    9.90
  -6  -7   0  -25.70   20.70
   6  -7   0    4.10    9.00
  -6   7  -1  297.57   31.20
   6   7   1  331.87   35.40
  -6  -7  -1  242.88   32.60
   6  -7   1  337.17   26.80
   6  -7   1  335.37   37.20
  -6  -7  -1  333.97   23.20
   6  -7   1  372.86   24.10
  -6  -7  -1  370.86   32.90
   6   7   2    3.50   17.40
  -6   7  -2  -15.70   13.90
   6  -7   2    3.90    7.00
  -6  -7  -2   23.00   15.80
  -6  -7  -2    9.30   22.40
   6  -7   2   29.40   17.80
   6  -7   2   12.10   11.50
  -6  -7  -2   -6.70    6.90
  -6   7  -3   -8.90   16.20
   6   7   3    9.50   19.90
   6  -7   3   18.60   11.80
  -6  -7  -3  -13.00   21.80
   6  -7   3   22.20   17.30
  -6  -7  -3   14.70   16.00
  -6  -7  -3   -0.90    5.50
   6   7   4   17.80   22.80
  -6   7  -4   27.00   18.70
  -6  -7  -4   14.40   17.20
   6  -7   4   -5.20   15.60
   6  -7   4   17.90   12.80
   6   7   5  122.09   26.00
  -6   7  -5  104.49   23.50
   6  -7   5  117.99   16.70
  -6  -7  -5  139.89   21.90
  -6   7  -6    5.30   22.20
   6   7   6   33.10   25.90
   6  -7   6   36.60   14.60
  -6  -7  -6   -7.10   19.00
  -6   8   7    0.40   16.00
   6   8  -7   17.60   21.80
   6  -8  -7    5.20   17.10
   6  -8  -7   -9.20   12.50
  -6  -8   7   15.90   14.60
  -6  -8   7   -0.10   15.80
  -6   8   6   47.00   15.90
   6   8  -6   35.70   20.70
  -6  -8   6   50.59   16.00
   6  -8  -6   31.50   13.10
  -6  -8   6   30.70   14.90
   6  -8  -6   29.20   16.40
   6   8  -5   67.19   21.20
  -6   8   5   84.29   16.90
   6  -8  -5   85.49   13.80
  -6  -8   5   47.20   15.30
  -6  -8   5   51.19   15.20
   6  -8  -5   52.39   16.30
   6   8  -4   29.10   19.60
  -6   8   4   38.80   14.80
  -6  -8   4   31.30   13.30
   6  -8  -4   37.90   12.60
  -6  -8   4   29.00   15.40
   6  -8  -4   40.80   15.00
   6   8  -3   44.30   20.00
  -6   8   3   42.50   14.10
   6  -8  -3   61.59   12.80
  -6  -8   3   55.69   17.90
   6  -8  -3   51.09   14.10
  -6  -8   3   54.79   13.40
  -6   8   2  278.87   28.50
   6   8  -2  250.67   27.40
  -6  -8   2  237.48   23.80
   6  -8  -2  309.27   25.90
   6  -8  -2  221.98   28.70
   6  -8  -2  259.27   25.20
  -6  -8   2  284.17   24.40
   6   8  -1   24.00   19.00
  -6   8   1   -0.70   14.40
   6  -8  -1    6.60   11.50
   6  -8  -1    5.20   10.70
  -6  -8   1   -9.70   10.10
   6  -8  -1    4.90   20.40
  -6  -8   1   -1.20   14.90
   6   8   0  -10.40   18.30
  -6   8   0   16.10   14.80
   6  -8   0   46.00   22.10
  -6  -8   0   32.00   16.90
  -6  -8   0   21.20   10.40
   6  -8   0   52.29   13.80
   6  -8   0    7.00   12.40
   6   8   1    5.80   18.50
  -6   8  -1  -19.20   15.30
  -6  -8  -1   10.20   16.50
   6  -8   1   -6.40   11.80
   6  -8   1    2.10   21.30
   6  -8   1   -6.00   10.20
   6   8   2  133.39   23.60
  -6   8  -2  117.79   20.60
   6  -8   2  129.39   12.20
   6  -8   2  115.99   16.50
   6  -8   2  154.68   25.10
  -6  -8  -2  141.99   21.00
  -6  -8  -2  118.09   12.20
  -6   8  -3   11.90   18.60
   6   8   3    9.80   21.50
  -6  -8  -3    8.90   17.50
  -6  -8  -3    6.90    7.10
   6  -8   3   44.70   20.80
   6  -8   3   16.80   14.10
   6   8   4   59.69   26.60
  -6   8  -4   61.99   21.50
   6  -8   4   50.29   15.20
  -6  -8  -4   30.50   19.60
   6  -8   4   68.59   20.70
  -6   8  -5   -2.70   21.90
   6   8   5  -11.90   23.60
  -6  -8  -5   -0.80   19.10
   6  -8   5    9.20   14.70
   6   9  -6   55.99   24.10
  -6   9   6   24.20   16.50
  -6  -9   6   17.70   16.30
  -6  -9   6   44.60   17.80
   6  -9  -6   17.50   14.10
   6  -9  -6    2.10   17.60
  -6   9   5   66.39   19.50
   6   9  -5    2.00   22.00
  -6  -9   5   48.00   16.50
   6  -9  -5   49.60   18.00
  -6  -9   5    5.30   15.80
   6  -9  -5   69.09   14.80
   6   9  -4   74.09   23.40
  -6   9   4   44.50   16.70
   6  -9  -4   68.29   17.10
  -6  -9   4   65.79   18.30
  -6  -9   4   82.89   16.20
   6  -9  -4   57.89   14.80
  -6   9   3   34.30   15.80
   6   9  -3   72.69   22.30
   6  -9  -3   20.30   14.90
   6  -9  -3   51.89   14.10
  -6  -9   3   47.90   19.40
  -6  -9   3   45.40   14.30
   6   9  -2   28.00   21.20
  -6   9   2   36.50   16.40
   6  -9  -2   31.90   14.20
  -6  -9   2   36.80   13.40
   6  -9  -2   42.90   14.60
  -6  -9   2   53.79   17.40
   6   9  -1  132.29   23.60
  -6   9   1  118.49   19.80
  -6  -9   1  127.39   16.00
   6  -9  -1  142.69   17.00
  -6  -9   1  149.49   20.90
   6  -9  -1  112.69   16.80
  -6   9   0   31.80   17.50
   6   9   0   -8.90   18.70
   6  -9   0    5.40   12.50
  -6  -9   0   -2.10   11.20
  -6  -9   0    8.50   17.30
   6  -9   0   -1.20   12.70
   6  -9   0    8.80   24.00
  -6   9  -1   49.80   19.40
   6   9   1   61.39   22.10
   6  -9   1   61.09   25.90
  -6  -9  -1   73.39   13.00
  -6  -9  -1   54.59   19.40
   6  -9   1   40.30   14.60
   6  -9   1   70.39   13.20
  -6   9  -2   62.39   21.40
   6   9   2   54.19   21.90
   6  -9   2   98.79   17.30
   6  -9   2   88.29   26.70
  -6  -9  -2   73.79   20.20
   6  -9   2   47.70   11.30
  -6  -9  -2   59.89   13.10
  -6   9  -3    9.90   21.40
   6   9   3   34.70   23.90
   6  -9   3   -4.80   24.70
   6  -9   3   57.09   16.60
  -6  -9  -3   48.90    9.60
  -6  -9  -3   60.39   21.40
  -6  10   4   35.90   19.20
   6  10  -4   49.10   37.20
  -6 -10   4   49.80   19.20
  -6 -10   4   74.19   18.20
   6 -10  -4   70.99   16.60
   6 -10  -4   43.50   18.80
  -6  10   3    6.10   17.60
   6  10  -3   -5.20   22.40
   6 -10  -3  -17.30   15.70
  -6 -10   3   -6.30   14.60
   6 -10  -3  -20.90   13.90
  -6 -10   3  -42.40   20.00
  -6  10   2    8.70   18.70
   6  10  -2   11.60   22.70
  -6 -10   2  -16.30   13.70
  -6 -10   2   -8.30   18.00
   6 -10  -2   19.80   14.30
   6 -10  -2   12.00   15.60
   6  10  -1    9.40   21.90
  -6  10   1    2.60   18.90
  -6 -10   1   -7.70   13.10
   6 -10  -1   18.20   14.60
   6 -10  -1    2.00   14.90
  -6 -10   1   16.60   19.00
  -6  10   0  221.28   26.20
   6  10   0  176.58   28.90
  -6 -10   0  239.28   21.10
   6 -10   0  258.47   21.90
  -6 -10   0  168.88   25.90
   6 -10   0  184.28   22.20
  -6  10  -1   -1.40   19.90
   6  10   1  -16.00   21.00
  -6 -10  -1   -5.80   12.80
   6 -10   1   -0.80   14.50
   6 -10   1   45.80   14.60
  -6 -10  -1    7.90   20.10
   7   0 -10  171.38   21.10
   7   0  -9    1.20   16.70
   7   0  -9    0.30   12.40
  -7   0   9    3.60   15.70
   7   0  -8   24.10   11.40
  -7   0   8    1.20   13.40
  -7   0   7    4.50   12.00
   7   0  -7    8.70    9.10
   7   0  -6  860.91   48.50
  -7   0   6  834.32   51.39
  -7   0   5  -12.00   15.80
   7   0  -5    5.10    6.10
  -7   0   4 1808.42  101.69
  -7   0   4 1773.52   97.99
   7   0  -4 1772.72   95.69
  -7   0   3    6.30   13.70
   7   0  -3   -2.00    5.80
  -7   0   3    4.80    8.90
   7   0  -3   -8.00    6.00
  -7   0   2  675.13   40.60
   7   0  -2  647.34   38.50
   7   0  -2  676.93   37.50
  -7   0   2  673.83   44.60
  -7   0   1   -9.80    8.30
   7   0  -1    3.40    6.70
   7   0  -1    0.30    7.40
   7   0  -1  -29.40   11.70
  -7   0   1    3.20   11.90
   7   0   0  908.41   51.59
   7   0   0  978.80   53.09
   7   0   0  895.61   49.80
  -7   0   0  863.71   51.59
  -7   0   0  858.51   53.09
   7   0   1   18.00    9.80
   7   0   1    0.90    6.00
  -7   0  -1    4.80    8.60
   7   0   1   -7.80    9.90
   7   0   2  855.21   47.20
  -7   0  -2  848.42   47.50
   7   0   2  855.61   45.80
  -7   0  -2  808.42   48.70
   7   0   2  673.23   61.19
  -7   0  -3   13.90    9.40
   7   0   3    5.40   13.40
   7   0   3   -4.90    5.20
   7   0   4   89.09    8.00
   7   0   4   55.79   17.90
  -7   0  -4   80.69   12.10
   7   0   5   27.10   18.90
   7   0   5    9.00    6.40
  -7   0  -5    8.70   10.60
   7   0   6   96.19    9.00
   7   0   6   64.99   23.20
  -7   0  -6   58.69   13.20
   7   0   7  -21.00   23.40
  -7   0  -7   14.30   12.60
   7   0   7   -2.00    7.10
   7   0   8  -11.10   26.10
  -7   0  -8   34.10   15.40
   7   1 -10   -8.90   15.20
   7  -1 -10   13.50   11.30
   7  -1 -10   -7.50   15.10
   7   1  -9   23.90   13.50
  -7  -1   9    5.80   15.60
   7  -1  -9    4.40   21.20
   7  -1  -9   13.60   12.90
   7  -1  -9   14.20   10.30
  -7   1   8   51.99   15.80
   7   1  -8   40.00   12.40
   7  -1  -8   30.60   11.50
   7  -1  -8   37.80   10.00
  -7  -1   8   25.00   14.20
   7  -1  -8   53.49   18.20
  -7   1   7  283.67   27.80
   7   1  -7  256.47   22.60
   7  -1  -7  276.97   22.00
  -7  -1   7  273.07   26.10
   7  -1  -7  280.97   21.90
   7  -1  -7  249.68   25.20
   7   1  -6  244.68   20.00
  -7   1   6  282.37   25.10
   7  -1  -6  258.67   20.30
  -7  -1   6  279.67   23.40
   7  -1  -6  247.08   19.20
  -7  -1   6  215.28   26.00
  -7   1   5  716.83   45.50
   7   1  -5  791.72   42.90
  -7  -1   5  658.73   51.19
  -7  -1   5  754.62   45.10
   7  -1  -5  756.12   41.40
   7   1  -4  412.56   25.80
  -7   1   4  393.56   28.80
   7  -1  -4  420.06   23.70
  -7  -1   4  399.16   36.10
   7  -1  -4  384.66   26.50
   7  -1  -4  408.46   23.30
  -7  -1   4  429.66   27.90
  -7   1   3  414.96   28.70
   7   1  -3  433.76   26.60
  -7  -1   3  448.06   29.30
   7  -1  -3  377.96   28.00
  -7  -1   3  467.95   36.10
   7   1  -2    6.90    7.80
  -7   1   2  -10.50    8.10
  -7  -1   2    1.50   13.30
  -7  -1   2   11.60    9.00
   7  -1  -2   12.10    7.00
  -7   1   1   12.20    8.70
   7   1  -1    2.70    5.70
   7   1  -1    7.60   12.30
   7   1  -1    8.40    8.10
   7  -1  -1   13.00    6.50
  -7  -1   1    8.50    9.60
   7  -1  -1   -4.40   11.30
   7  -1  -1   12.60    6.90
  -7  -1   1    6.70   12.50
  -7   1   0  146.69   13.20
   7   1   0  152.58   13.40
   7   1   0  141.79   15.60
   7   1   0  149.88   14.90
   7  -1   0  144.09   16.20
  -7  -1   0  147.79   14.60
   7  -1   0  151.78   14.30
  -7  -1   0  149.39   17.60
   7  -1   0  125.49   12.60
  -7   1  -1  541.65   33.30
   7   1   1  593.04   31.50
   7   1   1  585.94   36.70
   7   1   1  583.14   36.20
   7  -1   1  599.44   34.20
  -7  -1  -1  548.05   35.40
   7  -1   1  515.45   32.40
  -7  -1  -1  537.25   36.70
   7  -1   1  450.55   35.20
   7   1   2  238.18   20.90
   7   1   2  229.08   14.60
  -7   1  -2  224.48   18.00
   7   1   2  211.18   20.00
  -7  -1  -2  202.08   21.40
   7  -1   2  186.58   19.40
   7  -1   2  218.08   16.10
  -7  -1  -2  228.08   20.30
   7   1   3 1063.49   57.89
   7   1   3 1098.39   62.49
  -7   1  -3  986.70   57.59
   7   1   3 1069.99   55.29
  -7  -1  -3 1049.20   58.89
   7  -1   3 1010.70   56.49
   7  -1   3  872.91   62.29
  -7   1  -4   61.09   11.60
   7   1   4   55.69   17.40
  -7  -1  -4   71.19   12.60
   7  -1   4   65.99   17.90
   7  -1   4   84.99    8.80
   7   1   5  -12.50   17.90
  -7   1  -5   15.30   10.30
  -7  -1  -5    0.80   11.70
   7  -1   5   34.80   19.80
   7  -1   5    7.80    7.10
   7   1   6    4.00   21.10
  -7   1  -6    0.10   11.00
   7  -1   6   25.70    8.50
   7  -1   6    5.30   21.20
  -7  -1  -6   12.40   12.40
   7   1   7  -23.70   23.50
  -7   1  -7    6.80   12.20
  -7  -1  -7   34.40   14.50
   7  -1   7   27.60    9.40
   7  -1   7   13.20   24.70
   7   1   8   -2.60   30.70
  -7  -1  -8   16.90   15.80
   7  -1   8   33.40   29.50
   7   2 -10  -10.80   15.90
  -7  -2  10  -16.80   16.70
   7  -2 -10   -5.60   13.00
   7   2  -9   45.30   15.10
  -7  -2   9   39.50   13.00
   7  -2  -9   -5.70   11.30
  -7  -2   9   18.40   15.40
   7   2  -8  168.98   17.20
   7  -2  -8  151.38   15.50
  -7  -2   8  123.29   17.20
   7  -2  -8  108.89   21.80
  -7  -2   8  132.49   15.50
   7   2  -7    4.80   10.70
  -7   2   7   20.10   13.90
   7  -2  -7   14.40   10.10
  -7  -2   7  -17.40   10.80
  -7  -2   7   -6.10   18.60
   7  -2  -7   -2.00   15.40
  -7  -2   7   -1.70    9.80
   7   2  -6  547.45   36.60
  -7   2   6  616.44   39.90
   7  -2  -6  573.14   42.50
  -7  -2   6  556.44   47.40
  -7  -2   6  587.14   36.80
  -7  -2   6  601.54   37.60
   7  -2  -6  568.34   37.20
   7   2  -5    6.50    8.70
  -7   2   5    7.80   10.70
  -7  -2   5  -10.80    8.00
  -7  -2   5    9.90   17.30
   7  -2  -5   -9.10   13.10
   7  -2  -5  -18.40    8.80
  -7  -2   5    9.00   10.70
   7  -2  -5   -4.50    5.00
   7   2  -4  308.67   23.40
  -7   2   4  308.97   25.40
   7  -2  -4  364.36   23.60
  -7  -2   4  312.07   25.20
  -7  -2   4  326.67   23.00
  -7  -2   4  303.97   34.40
   7  -2  -4  334.57   29.30
  -7   2   3   -3.80    9.10
   7   2  -3   -1.80    8.40
   7  -2  -3   -0.10   11.70
  -7  -2   3    5.30    9.50
  -7  -2   3    0.20    7.10
  -7  -2   3    1.60   14.30
   7  -2  -3    1.50    7.20
  -7   2   2  316.17   23.40
   7   2  -2  303.47   23.50
  -7  -2   2  245.58   26.30
   7  -2  -2  311.17   27.10
   7  -2  -2  361.06   22.20
  -7  -2   2  323.17   24.90
  -7   2   1   51.99    9.50
   7   2  -1   52.69   10.20
  -7  -2   1   45.70   14.10
   7  -2  -1   31.20   11.50
   7  -2  -1   57.09   12.70
  -7  -2   1   53.79   11.70
   7  -2  -1   34.80    8.50
  -7   2   0    9.10    7.90
   7   2   0   25.20   10.40
   7   2   0   25.00    5.70
  -7  -2   0    9.70   12.10
   7  -2   0    4.00    9.60
  -7  -2   0   26.90   10.60
   7  -2   0   17.70    7.70
   7  -2   0   23.50   10.50
   7  -2   0   10.50    8.00
   7   2   1  227.08   26.20
   7   2   1  279.27   17.40
  -7   2  -1  279.17   20.00
   7   2   1  238.58   27.40
  -7  -2  -1  279.67   23.30
   7  -2   1  272.87   20.60
   7  -2   1  265.87   22.00
   7  -2   1  277.87   23.00
  -7  -2  -1  291.57   26.10
   7  -2   1  282.67   19.50
   7   2   2 1601.74   81.59
  -7   2  -2 1393.46   78.99
   7   2   2 1419.36   82.39
   7   2   2 1290.87   77.29
  -7  -2  -2 1513.05   80.99
   7  -2   2 1482.15   82.49
  -7  -2  -2 1502.85   81.89
   7  -2   2 1434.56   78.99
   7   2   3   25.30   11.60
   7   2   3   34.50   14.90
  -7   2  -3   17.60    7.40
   7  -2   3   19.90    7.30
   7  -2   3   38.40   14.70
  -7  -2  -3   17.20   12.80
  -7   2  -4  222.08   17.60
   7   2   4  205.08   23.40
   7   2   4  253.87   24.40
   7  -2   4  235.58   23.90
  -7  -2  -4  237.38   24.60
  -7  -2  -4  229.68   25.70
   7  -2   4  204.08   17.80
   7   2   5    9.40   13.20
  -7   2  -5   46.80    8.30
   7   2   5   40.30   19.10
  -7  -2  -5   41.20   13.30
   7  -2   5   39.90   19.80
  -7  -2  -5   44.10   14.60
   7  -2   5   57.49    9.20
   7   2   6  -10.80   20.20
  -7   2  -6   25.50    8.10
  -7  -2  -6  -17.60   12.90
   7  -2   6  -31.50   20.60
   7   2   7   37.50   25.60
  -7  -2  -7   14.60   15.10
   7  -2   7   21.60   11.00
   7   3 -10    5.20   17.80
  -7  -3  10    8.90   15.20
   7  -3 -10   -0.90   14.80
   7  -3 -10    6.00   12.00
  -7  -3  10   24.50   17.50
   7   3  -9   21.60   16.10
  -7  -3   9   46.60   16.00
   7  -3  -9   46.30   12.60
  -7  -3   9   43.60   14.50
   7   3  -8   59.49   15.50
  -7  -3   8   44.80   14.10
   7  -3  -8   55.59   12.10
   7  -3  -8   51.69   19.40
  -7  -3   8   40.20   13.60
  -7  -3   8   57.39   23.40
   7   3  -7   18.70   12.50
   7  -3  -7   34.60   10.40
  -7  -3   7   13.30   11.40
  -7  -3   7   28.40   11.80
   7  -3  -7   11.30   15.90
  -7  -3   7    6.40   21.10
  -7   3   6   21.00   13.60
   7   3  -6   23.00   11.40
   7  -3  -6   29.00    9.80
  -7  -3   6   22.00   11.00
  -7  -3   6   25.50   20.50
   7  -3  -6   -4.30   14.90
  -7  -3   6   24.50   10.70
  -7   3   5 1745.03   94.19
   7   3  -5 1668.03   92.59
  -7  -3   5 1695.33   92.09
  -7  -3   5 1332.57   98.59
  -7  -3   5 1806.42   99.39
   7  -3  -5 1684.53   91.89
   7  -3  -5 1704.53   96.29
  -7   3   4   19.30   11.40
   7   3  -4    1.60   11.40
  -7  -3   4   10.60   18.30
   7  -3  -4    2.80   13.50
  -7  -3   4   16.80    8.20
   7  -3  -4   16.70   10.20
  -7  -3   4    4.20    9.80
   7   3  -3   17.50   10.20
  -7   3   3   22.60   10.40
   7  -3  -3   27.90    8.20
  -7  -3   3   35.70    8.30
  -7  -3   3   10.00   17.60
   7  -3  -3   24.50   13.00
  -7  -3   3   18.10   10.70
  -7   3   2   52.69   10.30
   7   3  -2   54.99   11.40
   7  -3  -2   53.39    9.30
  -7  -3   2   62.49   12.30
   7  -3  -2   57.59   13.30
  -7  -3   2   57.49    8.50
  -7  -3   2   44.80   15.00
   7   3  -1   11.80   10.50
  -7   3   1   14.20    8.30
  -7   3   1   21.20    6.20
   7  -3  -1   26.40   11.20
  -7  -3   1    5.80   11.50
  -7  -3   1   18.60    6.50
   7  -3  -1    6.70    7.90
  -7  -3   1   29.30   13.60
   7   3   0   -4.20   18.90
  -7   3   0   22.50    8.10
  -7   3   0   14.70    7.90
   7  -3   0   12.40   10.40
  -7  -3   0   -0.70   13.30
   7  -3   0   27.50   10.50
   7  -3   0   14.70    8.20
  -7  -3   0   28.50   10.80
   7   3   1 1047.00   56.29
   7   3   1  999.40   61.89
  -7   3  -1 1022.30   57.49
   7  -3   1 1097.39   59.19
  -7  -3  -1 1046.50   62.79
   7  -3   1 1028.30   58.29
   7  -3   1 1027.20   58.99
  -7   3  -2   74.99    8.70
   7   3   2   75.19   16.10
  -7  -3  -2   82.09   13.40
   7  -3   2   87.29   10.40
  -7  -3  -2   92.99   16.50
  -7   3  -3  117.99    9.50
   7   3   3  108.09   17.90
  -7  -3  -3  120.49   15.60
  -7  -3  -3  106.79   17.90
   7   3   4   99.89   20.30
  -7  -3  -4  115.49   16.20
   7  -3   4  124.39   12.10
  -7  -3  -4  120.79   18.80
   7   3   5  146.19   21.90
  -7  -3  -5   90.89   19.30
   7  -3   5  135.69   13.10
  -7  -3  -5  124.99   17.30
   7   3   6   28.70   21.50
  -7  -3  -6   10.40   17.60
  -7  -3  -6   14.10   14.70
   7  -3   6    3.50    9.80
   7   3   7   24.20   23.40
  -7  -3  -7   -8.00   19.30
   7  -3   7   16.20   11.80
  -7  -3  -7    9.20   16.10
   7   4 -10   63.49   21.30
   7  -4 -10   39.90   13.40
  -7  -4  10   34.30   16.60
   7  -4 -10   75.49   18.40
  -7  -4  10   62.69   18.90
   7   4  -9   66.69   19.00
   7  -4  -9   58.59   16.20
  -7  -4   9   57.39   15.70
   7  -4  -9   37.10   12.60
  -7  -4   9   51.49   16.00
   7   4  -8   37.90   16.60
  -7   4   8   57.29   14.80
   7  -4  -8   39.40   11.80
  -7  -4   8   42.00   14.10
  -7  -4   8   83.59   25.70
  -7  -4   8   44.30   13.70
   7   4  -7  116.69   18.40
  -7   4   7  179.38   15.70
   7  -4  -7  126.59   23.10
  -7  -4   7  152.08   16.60
  -7  -4   7  110.09   26.60
  -7  -4   7  176.48   17.40
   7  -4  -7  139.99   15.40
  -7   4   6  261.97   20.00
   7   4  -6  191.48   20.70
  -7  -4   6  209.28   29.00
  -7  -4   6  226.98   23.30
   7  -4  -6  215.78   22.00
  -7  -4   6  244.78   23.00
   7  -4  -6  172.08   24.00
   7   4  -5    1.90   12.20
  -7   4   5    1.70    6.80
  -7  -4   5   -5.90   20.50
   7  -4  -5   -1.50   15.20
  -7  -4   5   -1.20    8.90
  -7  -4   5   -7.20   11.00
   7  -4  -5   11.80    9.50
   7   4  -4  728.53   45.10
  -7   4   4  741.13   45.50
  -7  -4   4  759.82   54.99
   7  -4  -4  617.24   42.80
  -7  -4   4  742.83   42.50
   7  -4  -4  708.43   48.60
  -7   4   3  542.25   41.90
   7   4  -3  591.64   38.70
   7  -4  -3  573.24   36.70
   7  -4  -3  610.84   42.70
  -7  -4   3  635.04   44.60
  -7   4   2   16.40    6.10
   7   4  -2   14.90   11.60
  -7   4   2    2.90    9.80
   7  -4  -2   13.90   13.00
  -7  -4   2   12.40    7.40
  -7  -4   2  -11.40   13.90
  -7  -4   2   -6.10   19.60
   7  -4  -2    3.40    8.70
   7   4  -1  525.95   36.80
  -7   4   1  494.35   33.00
  -7   4   1  560.44   31.30
   7  -4  -1  502.15   33.10
  -7  -4   1  502.95   31.10
   7  -4  -1  552.94   37.10
  -7  -4   1  530.45   40.50
  -7  -4   1  524.35   35.80
  -7   4   0  240.78   18.60
   7   4   0  239.48   24.50
  -7   4   0  240.08   19.50
  -7  -4   0  218.68   23.10
   7  -4   0  227.48   19.70
   7  -4   0  210.88   23.80
  -7  -4   0  226.38   23.20
  -7  -4   0  221.28   16.40
   7   4   1   26.10   13.50
  -7   4  -1   -2.10   10.10
  -7   4  -1   14.20    7.00
  -7  -4  -1    2.00   11.90
   7  -4   1    0.00   10.90
  -7  -4  -1    7.20   15.80
   7  -4   1   12.40    8.60
  -7   4  -2  485.75   34.10
   7   4   2  428.46   39.40
  -7   4  -2  477.75   27.70
  -7  -4  -2  528.85   40.40
   7  -4   2  479.05   31.10
  -7  -4  -2  476.45   34.10
   7  -4   2  404.26   33.30
   7   4   3    3.00   15.90
  -7  -4  -3   60.59   18.30
   7  -4   3   24.20    9.30
  -7  -4  -3   22.30   13.60
   7   4   4  103.49   20.30
  -7  -4  -4  132.59   21.40
  -7  -4  -4  109.09   17.40
   7  -4   4  127.19   13.20
   7   4   5  -33.80   18.10
   7  -4   5  -10.20    9.20
  -7  -4  -5   -1.80   19.70
  -7  -4  -5   41.90   15.80
   7   4   6   51.39   21.80
   7  -4   6   18.00   11.10
  -7  -4  -6   21.00   21.50
  -7  -4  -6   33.50   16.80
   7   4   7    0.40   23.40
  -7  -4  -7   -7.60   22.70
   7  -4   7    8.80   12.40
  -7  -4  -7   19.50   18.20
  -7   5   9    3.80   15.80
   7   5  -9   41.00   19.60
  -7  -5   9   11.60   15.20
  -7  -5   9   20.80   15.60
   7  -5  -9   24.30   12.30
   7  -5  -9   -0.80   15.70
   7   5  -8  -17.30   16.30
  -7   5   8   14.30   13.90
  -7  -5   8   -5.80   12.90
  -7  -5   8   -4.00   13.50
   7  -5  -8    1.30   13.80
   7  -5  -8   -2.30   11.30
   7   5  -7  401.86   37.00
  -7   5   7  384.46   29.50
   7  -5  -7  473.05   31.00
  -7  -5   7  348.67   31.00
  -7  -5   7  400.96   31.20
  -7  -5   7  337.27   37.90
   7   5  -6    9.30   14.70
  -7   5   6   16.00   10.10
   7  -5  -6   16.70   11.10
  -7  -5   6   22.50   24.60
  -7  -5   6   46.00   12.20
  -7  -5   6   42.10   13.10
   7  -5  -6    4.30   19.00
  -7   5   5   30.50    8.40
   7   5  -5    8.90   14.10
  -7  -5   5   25.60   23.80
  -7  -5   5   13.00   12.20
   7  -5  -5   23.30   18.10
  -7  -5   5   32.60   10.90
   7  -5  -5   23.60   11.00
   7   5  -4   37.10   14.50
  -7   5   4   70.09    8.20
  -7  -5   4   59.19   13.40
   7  -5  -4   63.49   18.00
  -7  -5   4   41.00   10.80
   7  -5  -4   52.69   11.50
  -7  -5   4   28.20   18.50
   7   5  -3  467.75   36.50
  -7   5   3  531.65   30.00
   7  -5  -3  477.05   40.30
   7  -5  -3  547.25   33.70
  -7  -5   3  460.55   32.20
  -7  -5   3  463.15   42.20
  -7  -5   3  523.75   35.90
   7   5  -2   54.59   15.00
  -7   5   2   67.49    9.80
   7  -5  -2   98.19   17.10
  -7  -5   2   55.09   16.80
  -7  -5   2   72.69   10.10
  -7  -5   2   85.29   15.10
   7  -5  -2   79.99   11.80
  -7   5   1  113.99   12.20
   7   5  -1   99.99   16.50
  -7  -5   1  109.89   15.10
   7  -5  -1  138.79   18.20
  -7  -5   1  102.69   20.30
   7  -5  -1   94.09   12.20
  -7  -5   1  105.99   10.60
   7   5   0  146.59   18.30
  -7   5   0  150.48   14.60
   7  -5   0  153.08   18.50
  -7  -5   0  146.09   17.20
  -7  -5   0  160.78   14.30
   7  -5   0  145.89   14.30
  -7  -5   0  158.28   22.80
   7   5   1   21.40   15.10
  -7  -5  -1   15.50    6.20
  -7  -5  -1   14.30   12.90
   7  -5   1   11.00   10.10
   7  -5   1   16.70   13.40
  -7  -5  -1   41.10   19.00
  -7   5  -2  -11.70   12.90
   7   5   2    3.20   16.90
  -7  -5  -2    5.70   18.70
   7  -5   2  -13.40   10.00
  -7  -5  -2   12.50   13.40
   7  -5   2    4.10   12.70
   7  -5   2    2.20    5.40
   7   5   3  569.64   47.20
  -7   5  -3  602.44   42.80
  -7  -5  -3  591.54   42.00
   7  -5   3  547.15   37.60
  -7  -5  -3  630.54   48.60
   7   5   4   10.40   18.10
  -7   5  -4   24.60   17.10
  -7  -5  -4   25.30   21.30
   7  -5   4   43.50   11.30
  -7  -5  -4   29.60   15.90
   7   5   5   -8.00   19.50
  -7   5  -5  -10.20   17.80
  -7  -5  -5  -17.60   21.70
  -7  -5  -5  -20.70   15.40
   7  -5   5    4.60   10.50
  -7   5  -6   10.40   20.70
   7   5   6   21.60   23.00
  -7  -5  -6    8.70   23.90
   7  -5   6   24.90   12.10
  -7  -5  -6   -4.00   17.10
   7   6  -9   36.10   21.10
  -7   6   9   15.70   17.90
   7  -6  -9   -0.70   12.60
   7  -6  -9   12.10   16.90
  -7  -6   9    8.10   15.90
  -7  -6   9  -18.70   15.30
  -7   6   8   26.90   14.60
   7   6  -8   10.10   19.60
  -7  -6   8   25.80   14.60
  -7  -6   8    7.80   14.10
   7  -6  -8   35.40   16.10
   7  -6  -8    9.10   12.20
  -7   6   7   18.20   12.60
   7   6  -7   62.99   19.30
  -7  -6   7   13.00   13.30
   7  -6  -7  -14.00   13.80
  -7  -6   7    5.90   13.30
   7  -6  -7    0.90   11.80
  -7   6   6  259.97   23.00
   7   6  -6  253.97   25.10
   7  -6  -6  257.77   25.30
   7  -6  -6  271.67   27.40
  -7  -6   6  169.08   34.80
  -7  -6   6  228.08   21.10
  -7  -6   6  223.78   22.00
   7   6  -5   24.30   16.40
  -7   6   5   18.20    9.90
  -7  -6   5   46.40   12.40
   7  -6  -5   17.50   11.60
   7  -6  -5   14.10   19.10
  -7  -6   5  -20.40   21.90
  -7  -6   5   34.10   13.60
   7  -6  -5   13.70   12.80
  -7   6   4  190.68   19.80
   7   6  -4  153.08   20.50
  -7  -6   4  148.39   15.90
  -7  -6   4  164.08   18.60
   7  -6  -4  141.29   16.70
   7  -6  -4  115.29   23.00
   7  -6  -4  196.18   17.00
  -7  -6   4  134.39   23.80
  -7   6   3    6.70    9.00
   7   6  -3   11.90   15.20
  -7  -6   3   -7.30    9.50
   7  -6  -3   -7.30   10.10
  -7  -6   3   -9.90   13.30
   7  -6  -3    4.70   17.60
  -7  -6   3  -25.10   16.80
  -7   6   2   77.59   12.00
   7   6  -2   98.09   17.90
  -7  -6   2   70.29   11.30
  -7  -6   2   73.59   20.60
   7  -6  -2   55.59   18.80
   7  -6  -2   79.69   12.20
  -7  -6   2   60.79   15.50
   7   6  -1   61.59   16.90
  -7   6   1   73.69   12.50
   7  -6  -1   45.50   17.50
  -7  -6   1   68.19   10.20
  -7  -6   1   48.50   21.10
   7  -6  -1   47.80   11.50
  -7  -6   1   45.10   14.60
   7  -6  -1   37.20   10.00
  -7   6   0  252.47   24.00
   7   6   0  234.08   23.90
   7  -6   0  208.28   19.20
  -7  -6   0  210.48   21.60
   7  -6   0  238.78   23.80
  -7  -6   0  227.68   18.30
   7  -6   0  246.78   19.30
  -7  -6   0  236.88   28.10
   7   6   1  221.58   25.30
  -7   6  -1  274.87   27.20
   7  -6   1  296.67   20.30
  -7  -6  -1  297.87   30.30
  -7  -6  -1  271.47   25.60
   7  -6   1  312.77   32.30
   7  -6   1  271.67   25.50
  -7  -6  -1  290.77   19.50
   7   6   2   72.29   20.50
  -7   6  -2  109.79   17.40
   7  -6   2  127.79   12.80
  -7  -6  -2  110.49   24.50
   7  -6   2  134.59   15.30
  -7  -6  -2  122.49   18.30
   7  -6   2  115.99   18.30
  -7  -6  -2  125.19   11.90
   7   6   3    4.10   20.60
  -7   6  -3   30.50   16.70
   7  -6   3   12.90   11.50
  -7  -6  -3   59.39   22.90
   7  -6   3   23.70   14.30
  -7  -6  -3   26.30   16.20
   7   6   4   54.59   21.60
  -7   6  -4   85.89   19.60
  -7  -6  -4   46.50   17.60
   7  -6   4   69.19   13.90
  -7  -6  -4   76.59   24.50
  -7   6  -5    7.90   19.70
   7   6   5   24.50   22.40
   7  -6   5   31.20   12.60
  -7  -6  -5   43.70   18.40
  -7  -6  -5   44.60   24.90
   7   6   6   21.10   24.10
  -7   6  -6   37.80   22.60
  -7  -6  -6   19.00   19.60
  -7  -6  -6   38.20   27.20
   7  -6   6   44.20   14.10
   7   7  -8  -22.90   20.40
  -7   7   8   -0.70   16.00
  -7  -7   8    5.90   15.60
  -7  -7   8  -24.00   14.50
   7  -7  -8   18.60   17.40
   7  -7  -8   13.10   13.40
   7   7  -7  -23.70   19.00
  -7   7   7    3.30   13.80
   7  -7  -7    9.20   12.90
   7  -7  -7    5.50   15.60
  -7  -7   7   -9.10   14.00
  -7  -7   7    5.10   13.90
   7   7  -6   79.79   20.50
  -7   7   6   79.89   14.10
   7  -7  -6   42.30   16.20
   7  -7  -6   35.80   13.80
  -7  -7   6   70.39   15.50
  -7  -7   6   76.19   16.60
  -7   7   5  274.07   24.60
   7   7  -5  266.17   27.90
   7  -7  -5  276.77   28.60
   7  -7  -5  290.97   26.50
  -7  -7   5  287.57   27.50
  -7   7   4  184.98   16.90
   7   7  -4  146.29   22.10
   7  -7  -4  158.98   18.10
   7  -7  -4  134.89   25.30
  -7  -7   4  157.08   17.10
  -7  -7   4  114.29   25.10
  -7  -7   4  144.39   19.20
   7  -7  -4  154.98   16.50
  -7   7   3   53.79   12.00
   7   7  -3   59.29   18.50
  -7  -7   3   32.30   16.50
   7  -7  -3   50.39   20.80
  -7  -7   3   58.79   12.10
   7  -7  -3   62.49   13.50
   7  -7  -3   74.49   13.20
  -7  -7   3   -4.80   18.80
  -7   7   2   -9.40   11.50
   7   7  -2    2.30   17.30
   7  -7  -2   11.10   11.10
  -7  -7   2    6.70   10.10
   7  -7  -2   14.00   19.00
  -7  -7   2    1.20   21.00
   7  -7  -2   -5.00   10.60
  -7  -7   2    2.90   14.40
   7   7  -1   96.19   20.00
   7  -7  -1   93.19   21.20
  -7  -7   1   84.09   12.10
   7  -7  -1   99.29   13.00
  -7  -7   1   92.99   24.40
  -7  -7   1  109.89   17.70
   7  -7  -1   63.19   13.40
   7   7   0   80.09   19.80
  -7   7   0   89.19   15.80
   7  -7   0   72.39   20.60
   7  -7   0   99.39   11.70
  -7  -7   0   64.99   24.40
   7  -7   0   76.79   14.20
  -7  -7   0   62.99   17.60
  -7  -7   0   83.79   13.10
  -7   7  -1  205.48   20.60
   7   7   1  111.29   22.60
   7  -7   1  188.08   18.30
  -7  -7  -1  155.38   28.30
   7  -7   1  226.38   25.10
  -7  -7  -1  170.38   16.80
  -7  -7  -1  200.58   22.40
   7  -7   1  202.48   19.10
  -7   7  -2   33.00   15.90
   7   7   2   44.00   19.70
  -7  -7  -2   -1.00   22.90
   7  -7   2    2.60    7.50
  -7  -7  -2   -5.40   15.10
  -7  -7  -2   -6.70    6.60
   7  -7   2   -0.60   18.00
   7  -7   2   15.40   12.00
   7   7   3  -16.40   20.60
  -7   7  -3   32.80   18.30
   7  -7   3   45.00   17.70
   7  -7   3   -1.10   12.70
  -7  -7  -3    2.10   26.00
  -7  -7  -3   -7.70   16.50
   7   7   4    0.10   22.70
  -7   7  -4   -8.80   19.10
   7  -7   4  -14.70   12.40
   7  -7   4    7.10   14.80
  -7  -7  -4   33.70   18.60
  -7   7  -5   66.49   23.70
   7   7   5   49.10   24.20
  -7  -7  -5   81.29   21.50
   7  -7   5   92.69   16.10
   7   8  -7   13.40   21.50
  -7   8   7   40.20   16.20
   7  -8  -7   17.40   17.10
  -7  -8   7   15.60   16.10
  -7  -8   7   -7.60   15.80
   7  -8  -7  -16.60   13.20
   7   8  -6   37.00   21.10
  -7   8   6    8.30   13.80
  -7  -8   6   33.50   15.90
  -7  -8   6   12.90   15.20
   7  -8  -6   22.70   16.30
   7  -8  -6    0.70   13.00
  -7   8   5   13.90   13.80
   7   8  -5   -5.50   19.60
  -7  -8   5   11.50   14.00
   7  -8  -5    0.60   14.60
  -7  -8   5   16.30   14.80
   7  -8  -5   -9.60   12.70
   7   8  -4   22.50   20.10
   7  -8  -4   40.70   13.50
  -7  -8   4   38.70   16.30
  -7  -8   4   39.60   13.80
   7  -8  -4   25.20   14.70
   7   8  -3   95.99   22.10
  -7   8   3  150.58   16.70
  -7  -8   3  150.68   16.20
   7  -8  -3  129.39   16.10
   7  -8  -3   94.39   16.30
  -7  -8   3   75.79   20.50
  -7   8   2  293.87   29.50
   7   8  -2  295.27   30.00
  -7  -8   2  309.97   33.00
   7  -8  -2  302.17   33.00
   7  -8  -2  323.87   28.00
  -7  -8   2  330.57   27.70
   7  -8  -2  352.76   28.60
   7   8  -1   70.79   21.10
  -7   8   1   31.30   15.50
   7  -8  -1   73.09   12.60
  -7  -8   1   28.10   11.50
  -7  -8   1   32.00   17.00
   7  -8  -1   10.20   12.50
   7  -8  -1   36.30   22.00
  -7   8   0   33.80   15.90
   7   8   0  -27.70   18.60
  -7  -8   0   -8.80    9.80
   7  -8   0   55.09   23.00
  -7  -8   0  -14.40   16.50
   7  -8   0    3.40   13.00
  -7   8  -1   22.10   16.50
   7   8   1    3.00   18.60
   7  -8   1   11.50   22.20
  -7  -8  -1   12.80   17.80
   7  -8   1    2.70   12.70
   7  -8   1  -15.20   10.30
  -7   8  -2  106.09   20.40
   7   8   2   65.69   22.80
  -7  -8  -2   71.59   10.20
  -7  -8  -2   83.39   20.50
   7  -8   2   88.59   15.60
   7  -8   2  106.39   25.20
   7   8   3   12.80   23.10
  -7   8  -3   -6.00   18.90
   7  -8   3   -7.80   20.10
  -7  -8  -3    9.80   18.00
   7  -8   3   11.70   14.10
   7   8   4   48.50   26.60
  -7   8  -4   62.19   23.40
   7  -8   4   66.39   17.00
   7  -8   4   56.09   20.10
  -7  -8  -4   76.49   21.70
  -7   9   5    5.30   16.10
   7   9  -5    3.40   21.40
  -7  -9   5   19.80   16.50
  -7  -9   5   18.70   15.50
   7  -9  -5   31.80   17.50
   7  -9  -5   27.30   14.60
  -7   9   4   19.50   15.40
   7   9  -4   25.80   21.60
   7  -9  -4   19.70   14.20
  -7  -9   4   19.90   14.70
   7  -9  -4   18.60   15.80
  -7  -9   4   20.00   17.00
  -7   9   3   94.29   17.10
   7   9  -3   50.99   23.10
  -7  -9   3   30.10   20.70
   7  -9  -3   49.70   14.70
  -7  -9   3   88.89   16.20
   7  -9  -3   65.69   16.20
  -7   9   2   12.30   15.80
   7   9  -2   -3.00   21.00
   7  -9  -2   62.29   14.70
  -7  -9   2   25.10   13.70
   7  -9  -2    1.30   13.50
  -7  -9   2    7.50   17.60
   7   9  -1  132.29   26.30
  -7   9   1  148.09   21.40
   7  -9  -1  136.39   18.30
   7  -9  -1  149.19   17.90
  -7  -9   1  145.19   17.00
  -7  -9   1  140.59   22.10
  -7   9   0    3.10   17.60
   7   9   0   23.00   21.50
  -7  -9   0   -2.20   18.60
   7  -9   0    3.90   13.90
   7  -9   0   12.70   13.30
   7  -9   0    0.50   25.70
  -7  -9   0    7.60   11.70
  -7   9  -1   86.39   20.70
   7   9   1    1.50   19.70
   7  -9   1  -16.40   12.20
   7  -9   1   27.80   25.40
  -7  -9  -1   13.90   11.40
   7  -9   1   -2.90   14.50
  -7  -9  -1  -12.80   18.40
   7   9   2   45.50   23.30
  -7   9  -2   26.80   20.80
   7  -9   2   50.49   16.20
   7  -9   2   27.30   26.50
  -7  -9  -2   26.50   21.20
  -7  -9  -2   36.50   12.30
  -7   9  -3   80.69   24.10
   7   9   3    4.30   26.70
  -7  -9  -3   20.30   20.80
   7  -9   3   36.80   16.90
   7  -9   3   35.70   25.50
   7  10  -3   -2.20   25.60
  -7  10   3    2.10   17.00
   7 -10  -3    4.80   17.40
  -7 -10   3   -6.30   15.40
  -7 -10   3  -18.50   21.90
   7 -10  -3    7.40   15.40
   7  10  -2   21.20   22.60
  -7  10   2   21.10   18.50
  -7 -10   2  -16.90   14.60
   7 -10  -2    9.80   15.40
  -7 -10   2   -2.30   19.70
   7 -10  -2   42.20   16.30
   7  10  -1   -1.40   21.90
  -7  10   1   -1.20   19.10
   7 -10  -1   -7.10   15.30
  -7 -10   1  -20.70   13.80
   7 -10  -1   27.10   15.10
  -7 -10   1   25.90   20.40
  -7  10   0  120.69   23.90
   7  10   0   51.19   26.20
  -7 -10   0  173.88   18.00
  -7 -10   0  143.69   24.30
   7 -10   0  123.99   18.70
   7 -10   0   84.09   18.80
   8   0 -10  107.49   18.00
   8   0 -10  111.19   15.80
  -8   0   9    3.20   16.20
   8   0  -9   10.80   12.40
   8   0  -8   51.19   11.90
  -8   0   8   77.09   16.30
  -8   0   7    7.10   12.70
   8   0  -7   -6.50    8.10
   8   0  -6  655.53   36.60
  -8   0   6  562.54   40.60
   8   0  -5    5.40    6.40
  -8   0   5   -6.30    9.90
   8   0  -5   -1.60    7.50
   8   0  -4  132.79   17.20
  -8   0   4  102.49   19.20
   8   0  -4  163.58   13.30
  -8   0   4  178.08   17.50
  -8   0   3    3.30   14.10
   8   0  -3    0.10    6.10
   8   0  -3   -3.80    6.90
  -8   0   3    3.70    9.80
   8   0  -2  235.18   19.00
  -8   0   2  223.38   22.00
   8   0  -2  249.28   17.90
  -8   0   2  206.28   21.30
   8   0  -1   -5.90    6.20
  -8   0   1   13.80   13.00
   8   0  -1   -3.60    7.40
  -8   0   1    4.70    9.20
  -8   0   0 3022.70  168.58
   8   0   0 3110.09  168.48
  -8   0   0 3128.69  169.48
   8   0   0 3094.99  167.28
   8   0   0 3318.77  169.38
   8   0   1   -1.00    6.40
  -8   0  -1   -5.40   10.50
   8   0   1    8.50   10.40
   8   0   1   -8.20   10.00
  -8   0  -1   16.90    9.30
  -8   0  -2  195.08   20.00
   8   0   2  186.58   18.80
   8   0   2  153.98   14.20
  -8   0  -2  171.68   15.50
   8   0   2  182.48   19.30
   8   0   3   -0.20   14.20
   8   0   3    5.40    6.20
  -8   0  -3   -7.00   10.90
   8   0   4   19.20    6.60
   8   0   4   18.10   17.60
  -8   0  -4   28.50   12.00
   8   0   5  -11.10   19.50
  -8   0  -5  -20.00   11.40
   8   0   5   -6.00    6.60
   8   0   6  165.58   28.00
  -8   0  -6  166.28   18.60
   8   0   6  170.48   15.00
   8   0   7  -13.00   25.30
  -8   0  -7  -12.50   14.10
   8   1 -10    1.20   15.40
   8  -1 -10    3.10   14.90
  -8  -1  10   17.50   17.50
   8  -1 -10   -2.80   11.90
   8   1  -9   56.49   14.10
  -8   1   9   70.29   18.50
   8  -1  -9   51.59   12.20
  -8  -1   9   29.90   16.70
   8  -1  -9   69.69   14.10
   8   1  -8   43.80   11.50
  -8   1   8   23.60   15.60
   8  -1  -8   52.29   11.00
  -8  -1   8   22.00   14.20
   8  -1  -8    7.00   17.80
   8  -1  -8   28.10   13.10
  -8   1   7  685.63   45.30
   8   1  -7  660.63   40.90
  -8  -1   7  675.73   43.90
   8  -1  -7  669.33   41.20
   8  -1  -7  685.03   48.90
   8  -1  -7  662.03   39.90
  -8   1   6  103.99   15.00
   8   1  -6  124.69   12.10
   8  -1  -6  118.79   10.40
   8  -1  -6  104.09   12.10
  -8  -1   6  103.29   21.70
  -8  -1   6   87.69   14.30
  -8   1   5  124.49   14.80
   8   1  -5  112.79   11.40
  -8  -1   5  122.29   14.30
  -8  -1   5  110.69   20.30
   8  -1  -5  115.19   11.10
   8  -1  -5  110.69   12.40
   8   1  -4  247.58   18.60
  -8  -1   4  218.88   24.80
   8   1  -3   15.80    7.90
  -8   1   3   11.90    9.80
   8  -1  -3   15.80    8.40
  -8  -1   3   12.60   10.70
  -8  -1   3   14.70   14.50
   8   1  -2   62.79    8.40
   8   1  -2   66.59    9.50
  -8   1   2   57.49    7.10
  -8   1   2   77.19   11.40
  -8  -1   2   39.70   15.30
   8  -1  -2   60.09    6.70
   8  -1  -2   60.59    8.60
  -8  -1   2   45.60   10.80
  -8   1   1  688.03   41.00
   8   1  -1  672.03   40.30
   8   1  -1  708.33   38.50
  -8  -1   1  657.43   44.80
   8  -1  -1  615.44   38.40
  -8  -1   1  689.43   41.50
   8  -1  -1  688.43   50.19
   8  -1  -1  660.23   38.90
   8   1   0  104.49    9.40
   8   1   0   77.79   17.80
   8   1   0   99.79   13.00
  -8   1   0  103.19   12.20
   8  -1   0  103.59   11.80
  -8  -1   0  105.99   15.60
   8  -1   0   99.59   14.30
  -8  -1   0  126.19   13.60
   8  -1   0  114.39   10.60
  -8   1  -1  934.01   53.39
   8   1   1  918.81   58.29
   8   1   1  983.00   51.69
  -8  -1  -1  881.21   56.59
   8  -1   1  974.40   53.69
   8  -1   1  901.21   55.19
   8   1   2  235.48   23.30
   8   1   2  185.78   16.00
   8   1   2  308.67   26.50
  -8   1  -2  272.77   19.70
   8  -1   2  274.27   18.10
  -8  -1  -2  181.38   20.30
  -8  -1  -2  260.47   23.60
   8  -1   2  268.77   26.50
   8   1   3  151.18   13.60
  -8   1  -3  130.69   12.80
   8   1   3  111.29   11.00
   8   1   3  111.79   18.30
   8  -1   3  131.59   11.20
   8  -1   3  117.79   18.60
  -8  -1  -3  105.39   16.10
  -8  -1  -3  124.99   15.00
   8   1   4   86.39   19.30
  -8   1  -4   83.49   12.30
  -8  -1  -4   85.39   14.40
   8  -1   4   96.99    9.70
   8  -1   4   89.09   19.90
  -8   1  -5    8.60   11.10
   8   1   5   -7.10   18.60
   8  -1   5  -13.70   19.20
   8  -1   5    8.90    7.80
  -8  -1  -5  -10.20   12.40
  -8   1  -6   -1.10   12.40
   8   1   6    7.60   21.30
  -8  -1  -6  -17.20   13.10
   8  -1   6   -6.40   21.70
   8  -1   6   14.10    8.70
  -8   1  -7   78.09   15.10
   8   1   7   49.99   26.30
   8  -1   7   71.79   11.00
  -8  -1  -7   43.20   16.40
   8  -1   7   40.70   25.40
   8   2 -10    0.40   15.50
   8  -2 -10   -4.50   14.80
   8  -2 -10    1.30   14.40
  -8  -2  10   -3.60   17.20
   8   2  -9   57.49   15.30
  -8  -2   9   34.60   16.10
   8  -2  -9   37.60   13.80
   8  -2  -9   80.89   14.30
  -8   2   8  434.26   35.70
   8   2  -8  379.16   30.70
   8  -2  -8  412.96   31.10
   8  -2  -8  376.56   27.80
   8  -2  -8  336.07   39.30
  -8  -2   8  325.57   36.20
  -8  -2   8  356.96   31.70
  -8   2   7   -9.80   13.90
   8   2  -7   19.50   11.50
  -8  -2   7   10.60   20.90
  -8  -2   7    3.80   12.10
  -8  -2   7   -4.10   10.50
   8  -2  -7   11.40   17.10
   8  -2  -7  -10.10    8.00
   8  -2  -7  -13.60   11.10
  -8   2   6  510.65   36.40
   8   2  -6  475.45   32.10
   8  -2  -6  502.85   28.50
  -8  -2   6  452.95   33.60
  -8  -2   6  495.75   32.60
   8  -2  -6  470.55   40.30
  -8  -2   6  474.25   45.30
   8  -2  -6  451.45   33.50
  -8   2   5   48.30   12.60
   8   2  -5   68.09   10.70
   8  -2  -5   44.10   10.50
  -8  -2   5   50.39   10.30
  -8  -2   5   40.60   11.70
   8  -2  -5   29.90   14.90
  -8  -2   5   47.50   19.90
   8   2  -4   25.20    9.20
  -8   2   4   34.70   11.30
   8  -2  -4   19.40    8.60
  -8  -2   4   38.80   17.80
   8  -2  -4   18.20   13.40
  -8  -2   4   14.60   13.50
   8   2  -3   72.79   10.80
  -8   2   3   82.39   12.40
   8  -2  -3   69.89   11.00
   8  -2  -3   86.69   14.90
  -8  -2   3   68.89   16.90
  -8  -2   3   99.49   13.00
  -8   2   2  458.35   30.70
   8   2  -2  465.35   30.60
   8  -2  -2  444.56   28.90
  -8  -2   2  466.55   31.80
   8  -2  -2  461.45   33.90
  -8  -2   2  487.65   40.00
  -8   2   1    1.30    8.90
   8   2  -1    1.50    9.30
   8  -2  -1   22.20   11.40
   8  -2  -1    9.30    7.70
  -8  -2   1    9.70   10.90
  -8  -2   1    7.30   15.70
   8   2   0  452.75   33.00
  -8   2   0  473.35   29.50
   8   2   0  486.55   27.10
   8  -2   0  408.66   29.10
   8  -2   0  455.05   29.20
   8  -2   0  477.35   32.40
   8  -2   0  459.75   31.40
  -8  -2   0  473.25   35.40
  -8  -2   0  352.46   32.60
   8   2   1   -1.00    5.10
  -8   2  -1   -8.80    8.10
   8   2   1    0.30   11.80
   8  -2   1  -10.90    9.20
   8  -2   1   -6.50   10.20
   8  -2   1   -5.20   11.00
  -8  -2  -1   -3.70   12.50
  -8  -2  -1   -1.30   12.10
   8  -2   1    0.00    7.50
  -8   2  -2  424.26   28.20
   8   2   2  442.66   24.80
   8   2   2  417.06   33.50
   8  -2   2  430.66   27.50
   8  -2   2  427.86   33.10
  -8  -2  -2  424.46   31.80
  -8  -2  -2  419.26   33.90
   8   2   3   49.60   13.40
  -8   2  -3   23.60    8.60
   8   2   3   32.70   15.80
  -8  -2  -3   22.20   12.50
  -8  -2  -3   21.40   14.20
   8  -2   3   22.70   15.70
   8  -2   3   21.70    8.40
  -8   2  -4    4.50    8.20
   8   2   4   13.40   13.00
   8   2   4   16.50   16.80
   8  -2   4  -22.10   16.70
  -8  -2  -4   25.80   14.20
  -8  -2  -4   35.10   13.60
   8  -2   4   17.10    7.90
   8   2   5   -0.80   13.00
   8   2   5   53.49   20.00
  -8   2  -5    2.20    8.10
  -8  -2  -5  -15.70   14.20
  -8  -2  -5    1.40   13.70
   8  -2   5   11.10   19.90
  -8   2  -6    2.90    8.50
   8   2   6   21.20   21.90
  -8  -2  -6    0.70   14.50
   8  -2   6    1.10    9.50
   8  -2   6  -23.30   22.60
   8   2   7   15.60   24.60
   8  -2   7    8.30   10.80
  -8  -2  -7   -0.60   16.20
   8   3 -10   12.40   17.30
  -8  -3  10   -6.90   14.80
  -8  -3  10    8.20   17.50
   8  -3 -10  -19.80   15.00
   8  -3 -10    0.50   12.30
   8   3  -9  113.59   18.60
   8  -3  -9  104.39   15.20
  -8  -3   9  100.89   17.90
  -8  -3   9  123.79   17.40
   8   3  -8   63.39   15.70
  -8  -3   8   44.60   14.10
  -8  -3   8   57.59   24.60
   8  -3  -8   59.09   12.70
  -8  -3   8   68.99   15.00
  -8   3   7  125.19   18.80
   8   3  -7  105.19   15.60
  -8  -3   7  102.09   14.50
  -8  -3   7   96.69   25.80
   8  -3  -7   94.49   13.70
  -8  -3   7  100.39   15.30
   8  -3  -7   62.29   19.60
   8   3  -6  140.59   16.40
  -8   3   6  146.39   19.00
  -8  -3   6  156.48   16.90
   8  -3  -6  157.98   15.30
  -8  -3   6  141.69   15.30
   8  -3  -6  152.98   21.70
  -8  -3   6  149.79   25.80
   8  -3  -6  149.39   13.00
  -8   3   5  657.13   43.40
   8   3  -5  612.44   41.30
  -8  -3   5  670.03   51.69
  -8  -3   5  656.73   40.40
   8  -3  -5  667.73   46.80
   8  -3  -5  633.14   40.20
  -8  -3   5  711.33   42.70
  -8   3   4   13.10   11.50
  -8  -3   4  -10.80    8.30
   8  -3  -4    2.90    8.70
   8  -3  -4    5.40   13.70
  -8  -3   4    1.90   17.70
  -8  -3   4    2.50   11.30
  -8   3   3   20.10   12.40
   8   3  -3   25.70   10.30
  -8  -3   3   14.00   10.70
  -8  -3   3   18.80    8.40
   8  -3  -3   24.70    9.00
  -8  -3   3   -1.80   18.60
   8  -3  -3   -1.60   12.90
  -8   3   2   80.89   12.10
   8   3  -2   85.89   13.10
   8  -3  -2   77.09   12.30
  -8  -3   2   76.89    9.70
  -8  -3   2   78.49   13.30
  -8  -3   2   88.49   18.20
   8  -3  -2   78.29   15.10
  -8   3   1  434.06   24.60
  -8   3   1  404.86   27.60
  -8  -3   1  344.17   34.30
  -8  -3   1  303.27   32.10
   8  -3  -1  437.96   31.20
  -8   3   0    4.60    8.40
   8   3   0  -12.70   11.00
   8  -3   0    2.10   11.10
   8  -3   0   -5.00   14.40
  -8  -3   0  -10.60   13.80
   8  -3   0   20.90   12.50
  -8  -3   0   -7.20   11.20
  -8   3  -1 1087.79   63.49
   8   3   1  963.70   68.09
   8   3   1 1152.28   62.39
   8  -3   1 1249.28   65.29
  -8  -3  -1 1137.19   66.19
  -8  -3  -1 1194.18   68.69
   8  -3   1 1190.48   65.09
   8   3   2    8.20   14.40
   8   3   2    0.60    4.40
  -8   3  -2   10.90    7.70
  -8  -3  -2   -3.10   15.00
  -8  -3  -2   11.70   12.10
   8  -3   2   14.70    9.10
   8   3   3   19.70   15.70
  -8   3  -3    4.70    7.30
   8  -3   3   -9.30    8.40
  -8  -3  -3    8.90   16.40
  -8  -3  -3   -7.60   12.70
   8   3   4   28.70   18.50
  -8  -3  -4   -2.40   16.30
  -8  -3  -4   13.30   14.00
   8  -3   4   16.10    8.90
   8   3   5   53.69   20.00
   8  -3   5   50.19   10.50
  -8  -3  -5   65.89   18.70
  -8  -3  -5   57.19   16.00
   8   3   6  -11.20   21.60
  -8  -3  -6   18.00   16.00
   8  -3   6   39.10   11.30
  -8  -3  -6   37.80   19.10
   8   3   7   28.00   24.70
  -8  -3  -7   40.30   18.30
   8  -3   7   60.59   13.40
   8   4 -10   10.80   19.80
  -8  -4  10   34.30   17.10
  -8  -4  10   33.80   18.40
   8  -4 -10   28.20   13.70
   8  -4 -10   58.69   17.80
   8   4  -9    4.40   16.90
  -8  -4   9    8.40   15.00
   8  -4  -9   22.20   12.30
  -8  -4   9   14.80   15.30
   8   4  -8  155.58   20.00
  -8  -4   8  129.09   17.90
   8  -4  -8  122.19   15.70
  -8  -4   8  127.29   17.60
   8   4  -7   36.40   15.10
  -8  -4   7   40.00   12.80
   8  -4  -7   21.00   21.90
   8  -4  -7   40.70   12.00
  -8  -4   7   19.60   13.10
  -8  -4   7   16.70   23.30
   8   4  -6  190.38   19.40
   8  -4  -6  147.09   22.80
  -8  -4   6  176.68   18.40
  -8  -4   6  167.98   27.70
  -8  -4   6  191.28   17.30
   8  -4  -6  169.58   16.80
   8   4  -5   33.50   13.40
  -8   4   5   54.89   15.00
  -8  -4   5   57.49   14.00
   8  -4  -5   30.70   16.40
  -8  -4   5   21.20   11.00
  -8  -4   5   55.69   22.60
   8  -4  -5   55.69   11.30
   8   4  -4  186.78   18.10
  -8   4   4  194.08   19.30
  -8  -4   4  202.28   19.40
  -8  -4   4  158.68   18.20
   8  -4  -4  173.78   16.10
  -8  -4   4  151.98   26.70
   8  -4  -4  179.68   22.10
  -8   4   3   81.09   13.30
   8   4  -3   74.99   13.50
  -8  -4   3   72.69   10.60
  -8  -4   3   44.60   19.30
   8  -4  -3   68.99   11.70
  -8  -4   3   69.29   13.40
   8  -4  -3   81.69   16.80
   8   4  -2   13.10   12.10
  -8   4   2   26.40   11.10
  -8  -4   2   23.00   12.80
   8  -4  -2   24.80   10.00
  -8  -4   2   22.70    8.20
  -8  -4   2    4.90   15.90
   8  -4  -2   14.30   14.50
  -8   4   1  746.43   42.20
  -8   4   1  719.63   44.20
   8   4  -1  768.22   46.90
   8  -4  -1  715.83   47.70
  -8  -4   1  729.73   42.30
  -8  -4   1  773.72   51.39
  -8  -4   1  744.03   47.70
   8  -4  -1  723.03   44.50
   8   4   0  691.13   45.10
  -8   4   0  714.63   41.10
  -8   4   0  651.93   40.70
  -8  -4   0  684.53   49.00
  -8  -4   0  673.93   44.50
   8  -4   0  676.33   44.40
   8  -4   0  701.63   41.80
   8   4   1  180.08   20.80
  -8   4  -1  199.18   17.90
  -8   4  -1  179.98   17.20
   8  -4   1  210.58   19.90
   8  -4   1  198.78   17.90
   8  -4   1  208.48   23.30
  -8  -4  -1  158.18   22.70
  -8  -4  -1  196.08   19.90
   8   4   2  179.38   23.70
  -8   4  -2  196.28   19.50
  -8   4  -2  206.78   16.20
   8  -4   2  219.68   20.50
  -8  -4  -2  186.58   19.70
   8  -4   2  187.98   16.60
   8  -4   2  172.18   19.60
  -8  -4  -2  170.88   23.30
   8   4   3   14.30   17.20
  -8  -4  -3   43.70   19.50
   8  -4   3   49.30   11.00
  -8  -4  -3   47.50   15.30
   8   4   4   -2.50   18.30
  -8  -4  -4    1.90   14.60
   8  -4   4   14.90    9.90
  -8  -4  -4   14.70   19.40
   8   4   5   34.90   21.60
  -8  -4  -5   18.90   16.50
  -8  -4  -5   80.59   21.80
   8  -4   5   51.79   11.30
   8   4   6    8.60   22.80
  -8  -4  -6   61.49   23.30
   8  -4   6   52.49   12.50
  -8  -4  -6   31.70   17.90
   8   5  -9   18.90   19.50
   8  -5  -9   13.00   16.00
   8  -5  -9   20.80   13.30
  -8  -5   9   -1.50   15.80
  -8  -5   9   13.10   16.20
   8   5  -8  -11.80   16.30
   8  -5  -8    9.20   12.30
  -8  -5   8    4.20   13.30
  -8  -5   8   -6.50   13.70
  -8   5   7  466.45   29.80
   8   5  -7  392.66   37.90
  -8  -5   7  414.16   34.10
   8  -5  -7  415.16   33.30
  -8  -5   7  428.06   33.90
  -8   5   6   20.30    8.60
   8   5  -6   15.60   15.10
  -8  -5   6   51.59   24.70
   8  -5  -6   14.70   19.40
   8  -5  -6   19.70   11.60
  -8  -5   6   22.30   12.50
  -8  -5   6   20.50   13.90
   8   5  -5  -29.00   13.30
  -8  -5   5   -9.50   12.50
   8  -5  -5   -1.50   17.80
  -8  -5   5   -5.50   10.70
  -8  -5   5    6.10   25.30
   8  -5  -5   -4.40   10.90
   8   5  -4   24.90   14.40
   8  -5  -4   11.60   17.80
   8  -5  -4   18.90   11.30
  -8  -5   4    9.40   12.60
  -8  -5   4   50.89   11.00
  -8  -5   4    6.60   20.20
   8   5  -3  240.58   21.50
   8  -5  -3  249.08   25.50
   8  -5  -3  202.88   18.80
  -8  -5   3  184.08   24.80
  -8  -5   3  224.58   21.30
  -8  -5   3  229.28   20.80
  -8   5   2   57.79    9.00
   8   5  -2   45.20   15.10
   8  -5  -2   65.59   12.00
  -8  -5   2   30.20   11.20
   8  -5  -2   69.59   17.50
  -8  -5   2   27.10   15.60
  -8  -5   2   41.10   18.50
   8   5  -1  229.98   22.60
  -8   5   1  257.97   21.30
  -8  -5   1  247.28   19.50
   8  -5  -1  273.47   30.40
   8  -5  -1  237.08   23.00
  -8  -5   1  267.77   26.70
  -8  -5   1  244.38   26.80
   8   5   0   28.80   15.30
  -8   5   0   38.90   10.90
  -8  -5   0   18.80   19.70
  -8  -5   0   39.60    7.70
   8  -5   0   32.10   11.00
  -8  -5   0   24.80   13.80
   8  -5   0   59.59   15.80
  -8   5  -1   74.49   13.60
   8   5   1   20.10   16.90
   8  -5   1   37.90   11.80
  -8  -5  -1   28.60   20.40
   8  -5   1   36.70   15.10
  -8  -5  -1   50.59   15.50
   8   5   2   28.30   18.90
   8   5   2   66.19    6.70
  -8   5  -2   53.79   15.40
  -8  -5  -2   47.90   16.30
  -8  -5  -2   70.49   21.80
   8  -5   2   53.89   12.60
   8  -5   2   35.30   14.10
  -8   5  -3  325.97   33.40
   8   5   3  261.37   29.60
   8  -5   3  344.27   26.30
  -8  -5  -3  276.57   31.00
  -8  -5  -3  336.57   32.60
   8   5   4   -3.60   18.50
  -8   5  -4   -7.40   17.40
  -8  -5  -4   -8.10   21.50
  -8  -5  -4  -17.10   15.50
   8  -5   4  -12.10   10.40
  -8   5  -5    7.10   19.40
   8   5   5   35.50   22.40
  -8  -5  -5    9.20   24.10
  -8  -5  -5    2.80   16.70
   8  -5   5   15.00   11.40
   8   5   6   43.50   24.20
  -8   5  -6  -21.30   21.00
   8  -5   6    9.00   12.40
  -8  -5  -6  -23.10   17.60
  -8  -5  -6   34.40   25.80
  -8  -6   9   28.00   16.50
   8   6  -8   25.40   19.90
  -8   6   8   59.19   15.60
   8  -6  -8   17.20   16.00
  -8  -6   8   46.50   15.80
  -8  -6   8   28.10   15.90
   8  -6  -8   17.70   13.40
  -8   6   7   24.40   11.20
   8   6  -7   19.90   18.20
  -8  -6   7   14.50   13.80
   8  -6  -7   -6.40   12.10
   8  -6  -7  -21.10   13.60
  -8  -6   7   -7.60   13.60
   8   6  -6  211.78   24.10
  -8   6   6  207.78   20.00
   8  -6  -6  222.38   20.50
  -8  -6   6  219.58   22.40
   8  -6  -6  191.08   21.30
  -8  -6   6  223.28   20.70
   8   6  -5  124.99   19.90
  -8   6   5  146.79   15.00
  -8  -6   5  125.69   17.60
  -8  -6   5   95.69   27.60
  -8  -6   5  130.09   15.80
   8  -6  -5  114.59   16.10
   8  -6  -5   93.49   23.50
  -8   6   4  100.29   10.40
   8   6  -4   93.19   18.60
   8  -6  -4  125.69   23.20
   8  -6  -4  104.69   14.80
  -8  -6   4   54.49   23.10
  -8  -6   4  132.29   14.70
  -8  -6   4  119.89   17.40
   8   6  -3  120.19   19.50
  -8   6   3  128.79   12.00
  -8  -6   3  117.19   23.60
   8  -6  -3  147.99   16.20
   8  -6  -3  141.79   22.80
  -8  -6   3  120.99   14.10
  -8  -6   3  128.29   18.70
  -8   6   2   38.40   10.80
   8   6  -2   35.90   16.80
  -8  -6   2   42.40   10.40
  -8  -6   2   32.40   19.80
   8  -6  -2   54.19   19.50
  -8  -6   2   34.80   16.40
   8  -6  -2   37.50   12.20
  -8   6   1    0.70   11.30
   8   6  -1   -8.40   15.30
  -8  -6   1   20.00   19.70
   8  -6  -1    4.00   10.60
  -8  -6   1  -16.50   14.00
  -8  -6   1   -6.60   15.70
   8  -6  -1  -11.90   16.70
  -8   6   0  277.07   28.50
   8   6   0  255.37   26.20
  -8  -6   0  289.87   21.00
   8  -6   0  319.07   25.80
  -8  -6   0  240.58   30.80
   8  -6   0  361.16   33.80
  -8  -6   0  286.67   29.80
   8   6   1    7.70   17.10
  -8   6  -1    7.20   13.20
  -8  -6  -1   18.60   15.70
   8  -6   1  -17.10   16.50
  -8  -6  -1    3.00    7.00
   8  -6   1   25.50    8.40
  -8  -6  -1    1.30   21.80
   8  -6   1    1.30   11.70
  -8   6  -2  102.49   17.70
   8   6   2   84.29   22.10
   8  -6   2   73.29   14.70
  -8  -6  -2   84.19   19.10
   8  -6   2   77.19   17.80
   8  -6   2  128.69   10.00
  -8  -6  -2  102.59   25.00
   8   6   3   -4.20   22.20
  -8   6  -3   14.60   16.60
  -8  -6  -3   40.50   23.30
   8  -6   3   27.20   12.70
   8  -6   3   12.10   13.70
  -8  -6  -3    9.50   16.70
  -8   6  -4   25.20   19.50
   8   6   4   45.60   22.60
  -8  -6  -4   23.70   17.20
   8  -6   4   19.40   12.80
  -8  -6  -4   21.40   23.70
  -8   6  -5    5.80   21.30
   8   6   5   12.60   23.40
  -8  -6  -5  -17.90   24.70
   8  -6   5    2.70   12.70
  -8  -6  -5    8.10   18.40
  -8   7   8   -3.40   15.90
   8   7  -8   36.30   21.50
  -8  -7   8   18.50   16.90
  -8  -7   8   22.90   16.40
   8  -7  -8   19.30   14.40
   8  -7  -8    9.00   17.00
   8   7  -7  -32.70   18.90
  -8   7   7   16.00   13.30
  -8  -7   7   -3.10   14.70
   8  -7  -7  -16.60   13.00
  -8  -7   7    0.00   15.10
   8  -7  -7  -13.30   14.50
  -8   7   6    3.70   11.10
   8   7  -6   27.50   19.10
  -8  -7   6  -14.50   13.50
  -8  -7   6    4.60   15.50
   8  -7  -6  -16.00   14.30
   8  -7  -6    6.60   13.40
   8   7  -5  190.28   24.80
  -8   7   5  199.28   20.40
  -8  -7   5  216.18   20.10
   8  -7  -5  255.57   22.30
   8  -7  -5  204.88   20.20
  -8  -7   5  183.28   21.80
  -8   7   4   74.49   13.60
   8   7  -4   49.70   19.00
  -8  -7   4  124.29   17.80
  -8  -7   4   83.89   14.60
   8  -7  -4  118.59   15.80
   8  -7  -4  109.19   16.50
   8   7  -3    9.20   17.90
  -8   7   3   45.00   11.10
  -8  -7   3   71.19   12.80
  -8  -7   3   47.70   17.20
   8  -7  -3   42.40   21.60
   8  -7  -3   76.29   14.20
   8  -7  -3   45.30   13.50
   8   7  -2  121.19   20.30
  -8   7   2   66.09   13.40
  -8  -7   2   77.59   12.50
  -8  -7   2    5.40   22.30
   8  -7  -2   83.69   13.70
  -8  -7   2   91.49   18.60
   8  -7  -2   76.59   14.80
   8  -7  -2   95.79   23.20
   8   7  -1   72.29   19.10
  -8   7   1   37.40   15.60
   8  -7  -1   17.20   12.90
  -8  -7   1   55.29   10.80
  -8  -7   1   51.79   16.90
  -8  -7   1   17.70   23.10
   8  -7  -1   30.40   11.50
   8  -7  -1   28.10   20.70
  -8   7   0   28.40   14.30
   8   7   0   28.10   18.90
  -8  -7   0   14.30   23.60
   8  -7   0    0.10    9.90
   8  -7   0   16.00   12.80
   8  -7   0    8.00   20.20
  -8  -7   0   12.20   15.90
   8   7   1  174.28   24.30
  -8   7  -1  191.68   21.10
  -8  -7  -1  186.18   16.90
  -8  -7  -1  111.29   28.90
   8  -7   1  190.48   19.40
   8  -7   1  211.68   18.80
  -8  -7  -1  142.19   21.80
   8  -7   1  177.58   25.30
   8   7   2   46.20   21.80
  -8   7  -2   58.09   17.80
  -8  -7  -2   47.90   18.50
   8  -7   2   54.69   14.50
   8  -7   2   77.79   20.70
   8   7   3   11.20   25.10
  -8   7  -3  -38.00   17.40
  -8  -7  -3    7.80   18.10
   8  -7   3   13.40   13.30
   8  -7   3   27.00   17.10
  -8   7  -4    6.40   20.70
   8   7   4  -10.30   23.00
   8  -7   4   15.10   14.20
  -8  -7  -4    0.20   18.80
   8   8  -7    7.70   21.50
  -8  -8   7    0.40   16.10
  -8  -8   7   12.70   17.30
   8  -8  -7    9.60   14.40
   8  -8  -7   -5.90   16.90
  -8   8   6   44.40   13.70
   8   8  -6   14.70   21.50
  -8  -8   6   23.30   15.80
   8  -8  -6    4.20   16.50
   8  -8  -6   13.40   14.60
  -8  -8   6    8.40   16.50
  -8   8   5    2.90   11.60
   8   8  -5  -12.60   19.70
  -8  -8   5   -0.90   14.90
   8  -8  -5   17.30   15.60
  -8  -8   5   19.90   13.90
   8  -8  -5   -6.30   14.10
  -8   8   4   72.99   13.80
   8   8  -4   38.40   21.00
  -8  -8   4   67.59   18.00
   8  -8  -4   35.50   14.70
   8  -8  -4   68.99   16.40
  -8  -8   4   72.89   15.10
  -8   8   3   -6.60   12.00
   8   8  -3   22.40   20.00
  -8  -8   3    3.70   17.50
  -8  -8   3   21.40   12.70
   8  -8  -3   19.30   13.70
   8  -8  -3   15.30   13.70
   8   8  -2  174.88   25.80
  -8   8   2  127.09   19.30
   8  -8  -2  213.58   30.50
   8  -8  -2  253.87   25.10
   8  -8  -2  213.58   20.50
  -8  -8   2  311.87   24.40
  -8  -8   2  217.98   25.40
   8   8  -1   73.39   22.20
  -8   8   1  119.79   17.80
  -8  -8   1   70.19   19.80
   8  -8  -1   99.69   25.60
  -8  -8   1   81.69   13.50
   8  -8  -1   80.39   15.50
   8  -8  -1   87.79   14.20
  -8   8   0   -5.60   16.00
   8   8   0    6.70   19.80
  -8  -8   0  -13.30    9.90
   8  -8   0   -6.20   13.50
  -8  -8   0   10.00   18.20
   8  -8   0  -13.30   23.70
   8  -8   0   25.40   21.20
  -8   8  -1    4.90   17.10
   8   8   1  -14.00   19.70
  -8  -8  -1    6.10   18.10
   8  -8   1   24.10   11.50
   8  -8   1   31.10   23.70
   8  -8   1   19.40   14.10
  -8  -8  -1   20.20   11.30
   8   8   2   77.39   24.80
  -8   8  -2   51.69   20.50
  -8  -8  -2   50.59   20.30
   8  -8   2   92.49   16.80
   8  -8   2   92.19   25.50
  -8  -8  -2   59.89    9.60
   8   8   3   10.80   25.50
  -8   8  -3   31.80   21.20
   8  -8   3   19.20   15.40
  -8  -8  -3    6.00   19.70
   8  -8   3  -12.60   20.10
   8   9  -5   -3.30   21.30
  -8   9   5   52.09   15.80
   8  -9  -5   50.29   17.90
  -8  -9   5   51.69   16.80
   8  -9  -5   10.70   15.40
  -8  -9   5   62.59   18.20
   8   9  -4   30.20   22.30
  -8   9   4   30.90   14.90
  -8  -9   4   34.40   15.30
  -8  -9   4   -1.00   17.30
   8  -9  -4  -24.70   15.10
   8  -9  -4  -18.20   14.10
   8   9  -3   46.70   22.90
  -8   9   3   50.79   15.30
  -8  -9   3   39.50   15.20
   8  -9  -3   41.60   15.90
   8  -9  -3   61.19   16.20
  -8  -9   3   60.99   21.60
   8   9  -2   34.30   22.60
  -8   9   2    8.30   15.30
   8  -9  -2  -15.70   14.00
  -8  -9   2   11.30   13.30
  -8  -9   2   -2.40   19.10
   8  -9  -2  -10.70   13.70
  -8   9   1   56.69   18.50
   8   9  -1   87.69   22.90
  -8  -9   1   40.50   20.00
   8  -9  -1   58.09   16.90
  -8  -9   1   45.50   14.20
   8  -9  -1   79.99   15.50
  -8   9   0   -1.50   18.60
   8   9   0  -15.30   20.60
  -8  -9   0   15.20   12.40
   8  -9   0  -14.30   13.10
  -8  -9   0   -4.10   20.00
   8  -9   0    6.90   14.60
   8   9   1   26.40   20.90
  -8   9  -1    5.30   19.70
   8  -9   1   24.20   15.40
   8  -9   1  -52.49   25.50
   8  -9   1    3.30   12.90
  -8  -9  -1   13.60   21.10
  -8  -9  -1   19.10   11.30
   8   9   2  -32.20   24.50
  -8   9  -2   -9.90   21.00
  -8  -9  -2    4.20    9.70
  -8  -9  -2  -10.10   20.70
   8  -9   2    3.80   26.30
   8  -9   2    6.30   16.10
  -9   0  10  235.48   26.20
   9   0 -10  195.28   21.10
   9   0 -10  200.38   20.10
   9   0  -9  -11.10   11.50
  -9   0   9  -12.30   16.00
   9   0  -9    3.30   11.80
   9   0  -8  116.09   13.10
  -9   0   8   93.59   17.80
   9   0  -8   81.09   13.60
  -9   0   7  -27.90   12.50
   9   0  -7    8.00    8.90
   9   0  -7    3.50    9.70
  -9   0   6   17.30   13.00
   9   0  -6   24.70    8.00
   9   0  -6   27.30   10.10
  -9   0   5    3.90   11.30
   9   0  -5    3.90    8.10
   9   0  -5   -6.10    6.60
  -9   0   4  138.09   21.60
   9   0  -4  148.19   14.20
   9   0  -4  166.58   16.10
  -9   0   4  169.68   16.50
  -9   0   3    1.80   16.80
  -9   0   3  -15.20   14.60
   9   0  -3  -11.70    8.60
   9   0  -3   -7.90    6.30
  -9   0   2  305.17   31.50
  -9   0   2  246.58   25.70
   9   0  -2  347.77   21.80
   9   0  -2  284.37   22.40
  -9   0   1    8.60   10.00
   9   0  -1   -2.30    8.20
   9   0  -1    7.40    6.80
  -9   0   1   -8.10   13.50
   9   0   0 1412.06   78.49
  -9   0   0 1368.56   78.39
  -9   0   0 1429.76   80.49
   9   0   0 1406.46   76.69
  -9   0  -1    0.90   12.30
   9   0   1    6.60    7.30
   9   0   1   -9.30   11.30
  -9   0  -1    7.90    9.50
  -9   0  -2   20.50   11.60
   9   0   2   10.60   11.00
  -9   0  -2   24.80   10.90
   9   0   2    0.70    6.80
   9   0   2  -11.90   13.00
   9   0   3  -19.10   14.90
  -9   0  -3   17.20   12.20
   9   0   3    1.40    6.90
   9   0   4   30.90   19.20
  -9   0  -4    3.00   15.70
   9   0   4   27.10    7.10
   9   0   5   -0.20   20.40
   9   0   5    6.20    7.30
  -9   0  -5   33.20   15.00
   9   0   6  244.68   31.80
  -9   0  -6  231.08   22.80
  -9   0  -7  -18.30   17.00
   9   0   7    2.60   24.70
   9   1 -10  -16.50   14.50
   9  -1 -10    4.40   12.80
   9  -1 -10   -6.60   13.80
  -9  -1  10   11.60   18.20
  -9   1   9  158.38   22.80
   9   1  -9  184.98   18.50
  -9  -1   9  162.08   21.70
   9  -1  -9  176.38   17.90
   9  -1  -9  175.18   17.50
  -9   1   8   66.69   17.20
   9   1  -8   41.20   11.80
   9  -1  -8   37.80   10.50
   9  -1  -8   39.00   11.80
  -9  -1   8   46.70   15.30
   9  -1  -8   52.69   23.60
  -9   1   7  274.77   28.60
   9   1  -7  211.58   22.70
   9  -1  -7  273.77   23.40
   9  -1  -7  263.87   20.10
   9  -1  -7  229.48   25.60
  -9  -1   7  280.07   27.40
   9   1  -6  105.69   11.60
  -9   1   6   83.89   15.20
  -9  -1   6   79.19   14.60
   9  -1  -6  100.19    9.30
   9  -1  -6   69.79   12.10
  -9  -1   6   43.70   21.10
  -9   1   5    2.20   11.50
   9   1  -5   21.30    8.40
   9  -1  -5   22.30    9.70
  -9  -1   5   20.10   18.50
  -9  -1   5   15.40   12.00
  -9   1   4   49.80   12.50
   9   1  -4   51.79    9.00
  -9  -1   4   49.00   18.20
   9  -1  -4   44.90   10.50
  -9  -1   4   33.70   11.80
   9   1  -3  530.85   30.70
  -9  -1   3  399.76   34.20
  -9  -1   3  538.45   40.80
   9  -1  -3  480.45   33.90
   9   1  -2   18.00    7.50
   9   1  -2   22.80    8.60
  -9   1   2   12.30   10.20
  -9  -1   2   31.60   15.40
   9  -1  -2   21.10    6.30
   9  -1  -2    8.30    7.50
   9   1  -1  956.50   61.39
   9   1  -1 1008.10   59.79
  -9   1   1  902.91   60.99
   9  -1  -1 1139.29   59.59
   9  -1  -1 1148.39   59.39
  -9  -1   1 1223.48   65.09
  -9  -1   1 1101.39   62.09
  -9   1   0    8.30   10.10
   9   1   0   17.90    6.70
   9   1   0   17.50   10.70
   9  -1   0   43.70   12.50
   9  -1   0    8.60    9.70
  -9  -1   0   26.70   10.90
  -9  -1   0    6.10   13.80
   9  -1   0   28.10    8.10
   9   1   1   30.90    7.10
  -9   1  -1    7.70    9.30
   9   1   1   11.90   12.00
   9  -1   1    8.20   11.70
  -9  -1  -1   30.60   13.80
  -9  -1  -1   13.60   13.50
   9  -1   1   38.30   11.20
   9  -1   1   21.80    8.10
   9   1   2   96.49   17.20
   9   1   2  122.69   10.00
   9   1   2   57.79   14.90
  -9   1  -2  140.69   13.30
   9  -1   2  133.79   12.70
   9  -1   2  136.49   17.60
   9  -1   2  116.99   11.20
  -9  -1  -2  101.19   15.90
  -9  -1  -2  107.09   20.00
   9  -1   2  111.29   12.00
  -9   1  -3    6.80    9.90
   9   1   3   32.50   11.50
   9   1   3   15.90   15.80
   9   1   3    1.80    6.00
  -9  -1  -3   37.50   13.00
  -9  -1  -3   10.20   13.20
   9  -1   3   35.20   16.60
   9  -1   3   21.70    8.30
  -9   1  -4   93.09   12.50
   9   1   4   95.69    7.80
   9   1   4   80.09   19.90
   9  -1   4  113.09   21.40
  -9  -1  -4   57.79   15.40
   9  -1   4   80.69   10.00
   9   1   5   69.09   22.40
  -9   1  -5   90.99   13.50
   9  -1   5   92.59   10.80
   9  -1   5  137.09   24.80
  -9  -1  -5   83.49   16.50
  -9   1  -6   15.50   12.30
   9   1   6    9.20   23.00
   9  -1   6  -24.50   22.90
   9  -1   6    7.90    9.10
  -9  -1  -6  -12.40   15.00
   9   1   7   12.80   27.60
  -9   1  -7   34.60   14.70
   9  -1   7   47.80   27.70
  -9  -1  -7   39.10   17.50
   9   2 -10   13.80   16.00
   9  -2 -10  -27.50   14.00
   9  -2 -10   20.70   15.00
  -9  -2  10   19.10   18.10
   9   2  -9   25.50   14.30
  -9  -2   9    9.90   15.40
   9  -2  -9   25.40   14.20
   9  -2  -9   27.50   12.10
  -9   2   8  355.96   35.80
   9   2  -8  356.66   29.50
   9  -2  -8  299.07   30.30
  -9  -2   8  366.26   32.50
   9  -2  -8  385.26   25.90
  -9  -2   8  243.38   39.60
  -9   2   7   52.59   15.50
   9   2  -7   58.09   12.70
   9  -2  -7   59.49   13.80
  -9  -2   7   40.80   22.60
  -9  -2   7   34.40   14.00
   9  -2  -7   55.29   19.60
   9  -2  -7   62.39    8.90
  -9   2   6   63.59   15.40
   9   2  -6   63.59   11.90
  -9  -2   6   48.60   22.00
   9  -2  -6   46.70   12.60
   9  -2  -6   39.50   17.70
  -9  -2   6   81.59   14.40
  -9   2   5    0.40   12.10
   9   2  -5    6.40    9.60
  -9  -2   5  -24.40   17.60
  -9  -2   5    5.90   11.70
   9  -2  -5    4.30    9.30
   9  -2  -5   15.80   15.20
   9   2  -4   15.90    9.20
  -9   2   4   15.40   11.50
   9  -2  -4   31.00   15.30
   9  -2  -4   11.80    8.30
  -9  -2   4   29.10   12.80
  -9  -2   4   41.20   18.70
   9   2  -3  226.88   20.40
  -9   2   3  215.98   19.30
  -9  -2   3  182.38   18.40
  -9  -2   3  212.58   23.60
   9  -2  -3  239.58   18.80
   9  -2  -3  193.98   21.10
   9   2  -2 1772.32   96.79
  -9   2   2 1806.42   97.49
   9  -2  -2 1685.93   96.49
   9  -2  -2 1697.83   99.19
  -9  -2   2 1764.92   98.19
  -9  -2   2 1850.91  101.89
   9   2  -1  148.39   15.60
   9   2  -1  169.08   14.30
  -9   2   1  160.38   15.10
   9  -2  -1  137.59   20.00
   9  -2  -1  134.39   14.70
   9  -2  -1  149.88   17.20
  -9  -2   1   92.89   21.00
  -9  -2   1  157.88   16.50
   9   2   0  140.89   12.60
  -9   2   0  154.88   14.80
   9   2   0  139.59   17.70
   9  -2   0  181.38   17.00
  -9  -2   0  174.48   21.60
  -9  -2   0  130.59   17.10
   9  -2   0  171.38   14.20
   9  -2   0  144.09   17.90
   9  -2   0  137.99   14.30
   9   2   1   10.40   12.30
   9   2   1    8.50    6.10
  -9   2  -1    7.40    9.50
   9  -2   1    1.70   10.90
  -9  -2  -1   -4.20   15.30
   9  -2   1   -3.90   11.10
   9  -2   1   10.00    8.20
  -9  -2  -1  -18.70   12.60
   9  -2   1   -8.40   10.40
  -9   2  -2   14.10    9.70
   9   2   2   10.20    5.70
   9   2   2   -4.40   13.60
   9  -2   2   13.90    8.50
   9  -2   2   13.30   14.00
  -9  -2  -2   -1.60   12.90
  -9  -2  -2    4.50   15.40
   9   2   3    3.60   16.30
  -9   2  -3   19.60    9.60
   9  -2   3   11.10    9.80
  -9  -2  -3   -8.10   14.60
  -9  -2  -3    9.90   13.50
   9  -2   3    6.80   16.20
   9   2   4  104.79   21.10
  -9   2  -4   89.19   11.60
   9   2   4  122.29   16.90
  -9  -2  -4   86.69   17.50
   9  -2   4   84.29   13.70
   9  -2   4   80.99   20.90
  -9  -2  -4   86.09   16.50
  -9   2  -5   -2.30    9.30
   9   2   5    4.30   20.10
   9  -2   5   -0.90    8.90
  -9  -2  -5   -3.90   14.90
   9  -2   5   -3.50   20.80
  -9   2  -6   42.50   10.10
   9   2   6   26.80   23.10
   9  -2   6   49.10   11.30
   9  -2   6   25.80   24.90
  -9  -2  -6   15.90   16.70
   9   3 -10   18.60   18.00
  -9  -3  10  -15.90   16.90
   9  -3 -10   -0.70   12.70
   9  -3 -10    8.50   15.10
   9   3  -9  203.18   21.30
  -9  -3   9  136.89   20.90
   9  -3  -9  180.78   18.60
   9   3  -8    3.40   13.80
  -9  -3   8    4.80   14.10
   9  -3  -8    4.50    9.50
   9  -3  -8   -5.60   11.60
  -9  -3   8    3.10   13.00
  -9   3   7   35.80   16.50
   9   3  -7   26.10   13.50
   9  -3  -7   25.30    7.50
  -9  -3   7   12.30   23.10
  -9  -3   7   31.40   12.70
  -9  -3   7   27.70   13.70
   9  -3  -7   20.60   11.10
   9  -3  -7   14.30   19.30
   9   3  -6  103.59   15.20
  -9   3   6  130.09   17.60
   9  -3  -6   82.89   20.60
  -9  -3   6   99.99   24.80
  -9  -3   6  114.99   14.70
  -9  -3   6  136.49   16.60
   9  -3  -6  106.39   13.70
  -9   3   5  216.08   20.50
   9   3  -5  171.78   17.40
  -9  -3   5  211.08   20.20
   9  -3  -5  190.78   23.20
  -9  -3   5  161.38   16.50
   9  -3  -5  173.78   16.10
  -9  -3   5  193.68   27.30
   9   3  -4  106.39   14.00
  -9   3   4  136.89   16.20
   9  -3  -4  138.19   13.30
  -9  -3   4  119.89   13.20
  -9  -3   4  111.09   21.50
  -9  -3   4  127.29   16.60
   9  -3  -4  118.79   19.90
   9   3  -3  100.39   15.90
  -9   3   3  100.19   14.20
   9  -3  -3  105.89   17.70
   9  -3  -3   99.29   12.00
  -9  -3   3   54.69   21.70
  -9  -3   3   95.89   14.30
  -9   3   2   22.90   11.30
   9   3  -2   36.90   11.50
   9  -3  -2   30.80    9.70
  -9  -3   2   19.80   12.90
   9  -3  -2   40.50   14.70
  -9  -3   2   38.40   19.20
   9   3  -1  570.24   39.90
  -9   3   1  629.14   35.50
  -9   3   1  608.94   38.10
   9  -3  -1  624.64   41.90
  -9  -3   1  602.14   41.30
  -9  -3   1  596.74   46.10
   9  -3  -1  593.84   38.10
   9   3   0  162.08   17.70
  -9   3   0  145.09   14.30
   9   3   0  168.78   13.60
   9  -3   0  159.48   16.90
  -9  -3   0   99.79   17.70
   9  -3   0  108.19   13.50
  -9  -3   0  115.39   19.40
   9   3   1  311.57   20.70
  -9   3  -1  286.67   23.70
   9   3   1  256.97   26.50
   9  -3   1  297.57   24.10
   9  -3   1  362.26   28.00
  -9  -3  -1  349.17   30.00
   9  -3   1  348.07   26.90
  -9  -3  -1  367.66   35.00
   9   3   2   31.00   15.40
   9   3   2   28.70    5.70
  -9   3  -2   20.30    9.20
  -9  -3  -2    1.20   16.80
  -9  -3  -2   -4.70   13.50
   9  -3   2    9.00    9.80
  -9   3  -3   15.50    8.60
   9   3   3  -13.70   16.10
  -9  -3  -3   20.00   14.60
   9  -3   3   24.20   10.00
  -9  -3  -3   29.50   17.60
   9   3   4  -21.80   18.50
  -9   3  -4    3.30    7.80
  -9  -3  -4    7.30   17.90
  -9  -3  -4  -13.30   14.40
   9  -3   4   -2.70    9.20
   9   3   5  160.98   25.60
  -9  -3  -5  131.39   20.20
  -9  -3  -5  135.99   22.20
   9  -3   5  137.39   14.40
   9   3   6   -2.20   22.60
  -9  -3  -6   17.10   16.80
  -9  -3  -6   -6.90   19.80
   9  -3   6    9.30   11.20
   9   4  -9   39.00   18.30
   9  -4  -9   14.10   13.00
   9  -4  -9    3.00   12.20
  -9  -4   9   30.50   16.00
  -9  -4   9   24.80   16.30
   9   4  -8  157.08   20.60
   9  -4  -8  163.38   17.80
   9  -4  -8  154.78   14.20
  -9  -4   8  161.08   19.50
  -9  -4   8  159.08   19.60
   9   4  -7  -25.70   13.60
  -9  -4   7    6.00   37.00
  -9  -4   7    7.10   13.50
  -9  -4   7   12.20   12.60
   9  -4  -7    0.70   11.60
  -9   4   6   29.10   15.80
   9   4  -6   50.89   14.50
  -9  -4   6   26.40   23.70
  -9  -4   6   28.40   12.70
  -9  -4   6   40.00   14.70
   9  -4  -6   22.40   11.60
   9  -4  -6   -4.00   17.30
   9   4  -5   22.70   13.10
  -9   4   5  -14.70   14.00
  -9  -4   5   28.90   21.80
   9  -4  -5    4.10   10.50
   9  -4  -5    3.50   16.40
  -9  -4   5   -1.40   10.60
  -9  -4   5  -22.70   12.80
   9   4  -4  125.79   16.20
  -9   4   4  136.09   17.30
   9  -4  -4  134.09   21.00
  -9  -4   4  132.09   17.60
  -9  -4   4  123.19   26.20
   9  -4  -4  123.99   14.50
  -9  -4   4  137.09   14.50
   9   4  -3  -11.70   11.90
  -9   4   3    2.80   11.60
   9  -4  -3  -14.70   14.70
  -9  -4   3   -1.80   20.10
  -9  -4   3   -8.50    8.50
   9  -4  -3    9.90   10.10
  -9  -4   3    0.20   12.70
   9   4  -2  236.98   21.30
  -9  -4   2  260.67   22.70
  -9  -4   2  229.58   21.90
   9  -4  -2  265.47   24.30
   9  -4  -2  226.28   22.90
  -9  -4   2  183.08   24.60
   9   4  -1   54.19   14.40
  -9   4   1   37.60    8.80
  -9   4   1   42.90   11.20
  -9  -4   1   40.10   18.30
   9  -4  -1   33.40   11.10
   9  -4  -1   41.00   15.40
  -9  -4   1    9.60   15.60
  -9   4   0  351.86   27.30
   9   4   0  397.96   33.20
  -9   4   0  415.86   28.10
   9  -4   0  401.46   33.30
  -9  -4   0  339.67   38.60
   9  -4   0  380.46   28.40
  -9  -4   0  390.06   32.90
  -9   4  -1  234.68   20.30
   9   4   1  236.88   25.00
   9   4   1  258.67   17.70
  -9  -4  -1  231.08   25.70
  -9  -4  -1  212.68   22.30
   9  -4   1  237.38   22.90
   9  -4   1  237.38   21.40
   9  -4   1  303.27   27.30
   9   4   2   38.20   17.80
  -9   4  -2    7.50    8.40
  -9  -4  -2   10.20   14.50
  -9  -4  -2   45.00   19.20
   9  -4   2   21.40   11.00
   9  -4   2   22.60   14.80
   9   4   3   -2.60   17.20
  -9   4  -3   18.70    7.30
  -9  -4  -3    9.70   15.40
   9  -4   3    2.40   10.60
  -9  -4  -3   26.50   19.50
   9   4   4    4.30   19.40
  -9  -4  -4   23.00   16.80
  -9  -4  -4    5.60   20.60
   9  -4   4   27.80   11.20
   9   4   5   56.59   23.40
   9  -4   5   26.10   11.80
  -9  -4  -5   26.50   17.70
  -9  -4  -5   22.60   22.20
   9   4   6   43.00   24.10
  -9  -4  -6   58.69   20.10
  -9  -4  -6  102.89   25.20
   9  -4   6   59.09   13.80
   9   5  -9    8.60   19.30
   9  -5  -9   37.80   17.20
   9  -5  -9   30.20   14.00
  -9  -5   9   -5.90   16.10
  -9  -5   9   36.00   17.00
   9   5  -8   28.00   17.70
  -9  -5   8   24.20   15.30
   9  -5  -8    2.40   12.90
  -9  -5   8   19.80   14.60
   9   5  -7  274.77   26.00
   9  -5  -7  227.78   22.30
  -9  -5   7  272.57   24.40
  -9  -5   7  315.07   29.30
   9   5  -6   14.00   15.10
  -9  -5   6    2.30   34.30
  -9  -5   6    7.90   11.80
  -9  -5   6   19.60   14.80
   9  -5  -6   30.50   12.40
   9   5  -5    5.10   14.50
   9  -5  -5   -4.70   11.40
  -9  -5   5   14.60   14.30
   9  -5  -5   19.40   19.80
  -9  -5   5   29.30   25.30
  -9  -5   5   -2.00   10.80
   9   5  -4   74.79   16.30
   9  -5  -4   90.39   20.60
  -9  -5   4   68.19   12.60
   9  -5  -4   72.49   13.80
  -9  -5   4  105.09   16.50
  -9  -5   4   76.59   26.80
   9   5  -3  287.97   29.00
  -9   5   3  267.07   27.70
   9  -5  -3  216.58   21.00
   9  -5  -3  279.77   28.10
  -9  -5   3  253.67   29.20
  -9  -5   3  289.07   23.10
  -9  -5   3  283.57   28.40
  -9   5   2    9.70   11.90
   9   5  -2    8.00   14.60
  -9   5   2   21.90    7.70
  -9  -5   2   22.60   15.20
   9  -5  -2  -20.40   15.90
  -9  -5   2   17.40   19.70
  -9  -5   2   30.00    9.40
   9  -5  -2   12.10   11.50
  -9   5   1  309.77   26.50
   9   5  -1  295.07   31.50
  -9   5   1  374.16   24.60
  -9  -5   1  327.17   32.80
  -9  -5   1  311.37   23.10
   9  -5  -1  340.07   27.00
   9  -5  -1  309.77   34.50
  -9  -5   1  251.87   29.00
  -9   5   0   26.60   10.60
  -9   5   0   54.19   12.10
   9   5   0   37.60   15.90
  -9  -5   0   39.20   20.20
  -9  -5   0   29.40   16.10
   9  -5   0   59.69   16.70
   9  -5   0   30.80   12.30
   9   5   1   16.50   17.10
  -9   5  -1   17.60   13.30
   9  -5   1    1.10   11.20
  -9  -5  -1   -5.20   19.70
  -9  -5  -1   33.60   15.70
   9  -5   1   26.40   15.50
  -9   5  -2    3.60   14.60
   9   5   2    9.10   20.20
   9  -5   2   -6.60   13.60
   9  -5   2    7.10   12.00
  -9  -5  -2   -8.50   15.40
  -9  -5  -2   -8.90   20.50
   9  -5   2   -6.30   13.60
   9   5   3  147.39   23.90
  -9   5  -3  160.98   21.50
   9  -5   3  109.29   15.70
  -9  -5  -3  109.99   25.80
  -9  -5  -3  144.99   20.80
   9   5   4   25.40   21.40
  -9   5  -4   24.30   18.90
  -9  -5  -4   31.70   24.00
  -9  -5  -4   17.90   17.30
   9  -5   4    2.50   11.60
   9   5   5    8.20   22.80
  -9   5  -5    2.10   20.70
  -9  -5  -5   38.00   25.30
  -9  -5  -5   25.00   18.90
   9  -5   5  -12.70   11.60
   9   6  -8   13.00   19.20
  -9  -6   8   -0.60   15.60
  -9  -6   8   57.19   16.60
   9  -6  -8    5.90   14.00
   9  -6  -8    9.90   16.10
   9   6  -7   34.50   18.80
   9  -6  -7   32.40   14.60
  -9  -6   7   39.70   16.30
  -9  -6   7   32.30   15.00
   9   6  -6  126.69   21.00
  -9  -6   6  159.98   18.10
   9  -6  -6  168.78   18.50
  -9  -6   6   98.09   19.50
   9   6  -5    8.50   16.70
   9  -6  -5   21.00   13.50
  -9  -6   5   22.90   14.80
  -9  -6   5   21.10   12.80
   9   6  -4   80.99   17.90
  -9  -6   4   71.59   16.60
  -9  -6   4   49.50   23.60
   9  -6  -4   78.09   22.30
   9  -6  -4   74.79   14.60
  -9  -6   4   82.59   13.90
   9   6  -3  287.57   27.30
   9  -6  -3  290.37   31.40
  -9  -6   3  337.07   31.60
   9  -6  -3  329.17   29.00
  -9  -6   3  339.27   26.70
   9   6  -2   58.39   18.00
  -9   6   2   49.20   10.70
   9  -6  -2   62.49   13.30
  -9  -6   2   65.69   19.00
  -9  -6   2   56.29   22.20
  -9  -6   2   91.79   11.90
   9  -6  -2   81.59   21.60
   9   6  -1  120.19   20.20
  -9   6   1  128.59   14.60
  -9  -6   1  123.99   12.70
   9  -6  -1   91.69   21.40
   9  -6  -1  131.19   16.30
  -9  -6   1   53.69   22.00
  -9  -6   1  143.89   21.40
   9   6   0  220.38   23.50
   9  -6   0  221.78   24.80
  -9  -6   0  210.18   18.20
   9  -6   0  204.78   19.50
  -9  -6   0  168.78   22.50
  -9  -6   0  175.68   28.20
   9   6   1   20.80   18.60
  -9   6  -1   26.50   14.70
   9  -6   1   20.40   13.30
  -9  -6  -1    4.00   16.60
  -9  -6  -1    1.90   22.40
   9  -6   1   20.00   17.60
  -9   6  -2   13.60   16.60
   9   6   2   55.69   22.20
  -9  -6  -2   21.20   18.10
   9  -6   2   13.30   16.90
  -9  -6  -2   33.60   24.30
   9  -6   2   44.10    8.00
   9  -6   2   18.80   13.50
  -9   6  -3    1.30   17.20
   9   6   3    7.80   21.40
  -9  -6  -3    6.90   18.40
   9  -6   3   -5.60   12.80
  -9  -6  -3  -29.00   22.50
   9   6   4   19.00   22.50
  -9   6  -4   36.20   20.80
  -9  -6  -4   43.70   25.90
   9  -6   4    6.90   13.10
  -9  -6  -4   18.20   19.30
   9   6   5   11.50   27.00
  -9   6  -5   17.30   22.60
  -9  -6  -5   -4.60   19.70
  -9  -6  -5  -30.70   32.10
   9  -6   5   -0.20   12.90
   9   7  -7   35.30   20.50
  -9  -7   7   -3.40   16.00
   9  -7  -7  -20.70   15.70
   9  -7  -7   -2.10   14.50
  -9  -7   7    6.50   15.80
   9   7  -6  -20.30   18.40
   9  -7  -6  -13.20   13.90
  -9  -7   6  -11.00   15.90
  -9  -7   6   15.80   14.50
   9  -7  -6   23.70   15.60
   9   7  -5  129.69   22.50
  -9  -7   5  155.18   20.80
  -9  -7   5  149.69   18.00
   9  -7  -5  147.49   19.40
   9  -7  -5  199.08   20.20
   9   7  -4  -16.30   17.30
  -9  -7   4    9.40   15.50
   9  -7  -4   20.60   13.80
   9  -7  -4  -27.20   12.40
  -9  -7   4   17.00   12.40
  -9   7   3   70.19   10.50
   9   7  -3   31.00   18.90
   9  -7  -3   56.69   14.70
   9  -7  -3   46.50   22.20
  -9  -7   3   59.19   12.90
  -9  -7   3   32.30   17.40
   9  -7  -3   52.39   14.00
   9   7  -2   33.50   18.50
  -9   7   2   54.69   12.20
   9  -7  -2   45.80   22.50
   9  -7  -2   42.30   14.60
  -9  -7   2   40.40   11.80
   9  -7  -2   25.60   12.50
  -9  -7   2   44.60   19.30
   9   7  -1   25.30   19.00
  -9   7   1   50.99   14.10
  -9  -7   1   39.10   18.60
   9  -7  -1   24.10   14.00
   9  -7  -1   21.80   11.80
  -9  -7   1   49.30   11.20
   9  -7  -1   41.40   22.30
   9   7   0   19.80   18.10
  -9   7   0   38.00   15.30
  -9  -7   0    2.00   11.70
  -9  -7   0   20.60   17.40
   9  -7   0   25.30   21.30
   9  -7   0   19.80   13.90
   9  -7   0    3.60   10.10
  -9   7  -1  214.68   22.40
   9   7   1  133.49   25.20
   9  -7   1  162.68   20.60
   9  -7   1  207.28   19.30
  -9  -7  -1  184.68   23.90
   9  -7   1  202.48   26.60
  -9  -7  -1  173.08   17.60
   9   7   2   -1.70   22.60
  -9   7  -2   29.50   17.70
   9  -7   2   38.80   15.00
   9  -7   2  -12.80   19.30
  -9  -7  -2   40.00   19.40
   9   7   3   11.20   23.50
  -9   7  -3  -13.50   19.60
   9  -7   3   15.40   17.00
   9  -7   3    4.70   14.50
  -9  -7  -3  -13.50   18.70
  -9   7  -4   51.09   23.60
   9   7   4   31.20   24.10
   9  -7   4   38.20   16.10
  -9  -7  -4   64.89   21.40
   9   8  -6    0.00   21.30
   9  -8  -6   32.70   17.60
  -9  -8   6   -4.80   16.90
  -9  -8   6   52.29   16.80
   9  -8  -6   31.20   16.10
   9   8  -5   14.70   20.50
  -9   8   5   -8.80   10.70
  -9  -8   5   -6.70   16.00
   9  -8  -5   22.20   15.00
   9  -8  -5   10.70   15.80
  -9  -8   5   10.80   15.00
  -9   8   4   29.50   13.10
   9   8  -4   65.69   22.10
   9  -8  -4   41.90   15.80
   9  -8  -4   40.60   15.70
  -9  -8   4   36.80   14.50
  -9  -8   4   23.50   17.20
  -9   8   3  -20.70   10.90
   9   8  -3  -19.40   19.00
   9  -8  -3   -8.90   13.50
  -9  -8   3    6.10   12.90
  -9  -8   3   23.90   18.50
   9  -8  -3   -0.50   13.90
   9   8  -2  104.69   23.60
  -9   8   2  111.09   19.00
   9  -8  -2  141.89   17.40
  -9  -8   2   92.89   22.70
   9  -8  -2  121.39   18.30
  -9  -8   2  118.99   15.60
   9   8  -1  -10.30   19.80
  -9   8   1    7.40   15.30
   9  -8  -1   -3.70   14.00
   9  -8  -1   59.99   24.80
  -9  -8   1  -12.60   18.60
   9  -8  -1   19.40   12.80
  -9  -8   1   -7.40   10.90
  -9   8   0   22.90   17.50
   9   8   0   15.10   20.00
   9  -8   0   12.00   15.40
   9  -8   0   13.70   11.70
  -9  -8   0   17.90   10.50
   9  -8   0   58.79   26.00
  -9  -8   0   23.40   19.70
   9   8   1   20.00   22.00
  -9   8  -1   14.60   18.80
   9  -8   1   71.29   25.90
   9  -8   1   18.20   15.20
  -9  -8  -1   30.50   10.50
   9  -8   1   14.70   12.20
  -9  -8  -1   21.00   20.20
   9   8   2   67.09   26.40
  -9   8  -2   39.70   20.30
  -9  -8  -2   30.10   21.30
   9  -8   2   70.79   25.00
   9  -8   2   61.59   17.70
   9   8   3  -29.40   40.40
  -9   8  -3  -19.90   21.00
   9  -8   3   51.69   25.60
  -9  -8  -3   38.60   21.90
   9  -8   3   12.20   15.90
   9   9  -4   45.80   22.80
  -9   9   4   79.29   16.30
  -9  -9   4   58.29   19.40
   9  -9  -4   42.70   17.30
   9  -9  -4   17.10   16.60
  -9  -9   4   24.70   15.60
   9   9  -3    8.30   21.90
  -9   9   3   73.89   14.90
   9  -9  -3   18.20   16.10
  -9  -9   3   49.00   21.10
  -9  -9   3   38.70   15.30
   9  -9  -3   47.60   17.40
   9   9  -2    7.20   21.90
  -9   9   2   -1.40   14.90
   9  -9  -2  -13.30   14.90
  -9  -9   2   16.70   14.10
   9  -9  -2    7.00   14.40
  -9  -9   2  -31.80   21.10
  -9   9   1   45.70   18.70
   9   9  -1   35.90   23.00
   9  -9  -1   36.50   17.20
   9  -9  -1   41.50   14.80
  -9  -9   1   48.00   22.20
  -9  -9   1   39.70   14.10
  -9   9   0   30.30   19.80
   9   9   0   -8.80   21.20
   9  -9   0   11.20   16.00
   9  -9   0   11.60   14.50
  -9  -9   0    3.90   20.70
  -9  -9   0   25.30   12.70
   9   9   1   20.40   32.80
  -9   9  -1    4.80   21.00
   9  -9   1    8.40   27.40
  -9  -9  -1   32.50   22.40
   9  -9   1   -8.30   16.00
  -9  -9  -1   24.40   11.50
  10   0 -10  239.28   22.00
 -10   0  10  206.08   27.10
  10   0 -10  239.38   22.00
  10   0  -9  -26.40   11.70
 -10   0   9   11.00   17.00
  10   0  -9   -1.10   11.70
  10   0  -8  -11.10   11.20
 -10   0   8   -1.00   14.90
  10   0  -7   -1.80   10.30
  10   0  -7    6.20    9.10
 -10   0   7   -3.70   14.00
 -10   0   6   15.60   13.60
  10   0  -6    3.70    7.80
  10   0  -6   -0.20    9.50
  10   0  -5    0.00    7.10
  10   0  -5    0.00    8.80
 -10   0   5    5.60   12.60
  10   0  -4 1261.77   67.49
 -10   0   4 1233.68   71.79
 -10   0   4 1244.78   77.19
  10   0  -4 1198.98   69.59
  10   0  -3   13.70    8.10
 -10   0   3   -4.70   16.00
  10   0  -3   -4.50    9.30
 -10   0   3   -1.80   11.30
  10   0  -2  185.48   16.70
 -10   0   2  172.88   18.20
 -10   0   2  154.78   20.80
  10   0  -1    5.20    9.10
 -10   0   1    3.00   14.60
  10   0  -1    5.70    7.20
 -10   0   1    8.20   11.20
 -10   0   0  101.19   17.10
  10   0   0  103.19   13.90
  10   0   0  108.39   10.90
  10   0   1   -1.00   13.40
  10   0   1   -8.30    7.90
 -10   0  -1   19.60   13.60
  10   0   1   14.20   12.50
  10   0   2   21.40   12.70
 -10   0  -2   20.90   14.10
  10   0   2   17.20    7.80
 -10   0  -2   17.80   12.70
  10   0   2   -6.40   14.10
  10   0   3    0.70    7.70
  10   0   3   15.20   17.10
 -10   0  -3    3.00   12.00
 -10   0  -4  134.79   17.70
  10   0   4  156.48   12.30
  10   0   4  157.88   24.40
 -10   0  -5    4.80   14.50
  10   0   5    8.50    7.60
  10   0   5   10.20   21.80
  10   0   6   69.59   26.80
 -10   0  -6  105.29   19.00
  10   1 -10    1.30   14.60
 -10   1  10   -1.10   20.00
  10  -1 -10  -28.50   13.70
  10  -1 -10   17.50   14.50
 -10  -1  10   -4.00   18.50
  10   1  -9   79.79   15.20
 -10   1   9   58.99   20.00
 -10  -1   9   74.49   18.60
  10  -1  -9  104.09   13.90
  10  -1  -9   89.99   15.20
 -10   1   8   53.69   17.80
  10   1  -8   40.60   12.40
  10  -1  -8   39.00   13.20
 -10  -1   8   52.89   16.30
  10  -1  -8   47.50   10.80
  10   1  -7   30.30   13.80
 -10   1   7   19.40   14.70
  10  -1  -7   19.90    8.40
 -10  -1   7   21.90   14.40
  10  -1  -7    9.30   11.10
 -10   1   6  130.69   17.80
  10   1  -6  136.49   13.30
  10  -1  -6  122.69   14.90
 -10  -1   6   98.89   24.10
 -10  -1   6  136.99   17.60
  10   1  -5   81.19   10.40
 -10   1   5   99.09   15.40
 -10  -1   5   72.19   15.20
  10  -1  -5   56.99   12.30
 -10  -1   5   71.09   21.70
  10   1  -4   40.30    9.30
  10   1  -4   49.90   10.20
 -10   1   4   46.00   13.00
  10  -1  -4   22.40   10.60
 -10  -1   4    9.00   18.30
 -10  -1   4   27.80   12.40
  10   1  -3  932.31   53.49
  10   1  -3  925.51   53.59
 -10   1   3  981.80   56.59
 -10  -1   3  952.40   61.79
  10  -1  -3  943.61   53.79
 -10  -1   3  907.01   56.79
 -10   1   2   -4.00   10.90
  10   1  -2    4.80    8.40
  10   1  -2   -8.70    9.40
 -10  -1   2   16.20   11.80
  10  -1  -2   -4.90    6.50
  10  -1  -2   -7.90    7.50
 -10  -1   2    5.60   15.70
 -10   1   1   99.09   16.30
  10   1  -1  116.59   11.70
  10   1  -1   86.49   13.60
 -10  -1   1  112.69   18.60
 -10  -1   1  104.19   14.20
  10  -1  -1  120.19   11.80
 -10   1   0   24.60   11.60
  10   1   0   18.80   13.50
  10   1   0   23.70    7.50
  10  -1   0   19.70    8.90
  10  -1   0   34.10   11.00
 -10  -1   0   12.70   15.10
 -10  -1   0   22.30   11.90
 -10   1  -1   23.50   10.70
  10   1   1   19.10   13.70
  10   1   1   22.60    7.80
  10  -1   1    2.50   12.50
  10  -1   1   28.90   12.60
 -10  -1  -1   32.50   13.00
 -10  -1  -1    5.10   14.70
  10  -1   1    4.20    8.60
  10   1   2   12.80   16.20
  10   1   2   36.20   14.90
 -10   1  -2   44.70   11.00
  10   1   2   27.40    7.60
  10  -1   2   44.30   15.60
 -10  -1  -2   36.50   14.20
 -10  -1  -2   42.00   15.00
  10  -1   2   28.30    9.00
 -10   1  -3  214.18   20.70
  10   1   3  154.78   17.70
  10   1   3  206.08   15.60
  10   1   3  181.38   23.00
 -10  -1  -3  190.18   18.80
  10  -1   3  232.38   24.00
 -10  -1  -3  137.99   20.90
  10  -1   3  176.98   15.20
 -10   1  -4   27.00   11.00
  10   1   4   29.80    6.30
  10   1   4    2.80   18.40
  10  -1   4   44.40    9.10
  10  -1   4    2.60   20.00
 -10  -1  -4   65.09   16.80
  10   1   5   23.70   23.00
 -10   1  -5   64.59   13.70
  10  -1   5  117.69   11.40
 -10  -1  -5   54.89   18.20
  10  -1   5  100.79   24.60
  10   1   6   -0.80   23.20
 -10   1  -6  -16.70   15.30
  10  -1   6  -17.70    9.50
 -10  -1  -6   17.20   17.70
  10  -1   6  -11.80   24.10
  10   2 -10   33.90   17.10
  10  -2 -10   31.50   14.30
  10  -2 -10    7.20   15.30
 -10  -2  10   28.80   18.20
  10   2  -9   17.90   14.50
 -10   2   9  -15.00   17.90
  10  -2  -9   13.50   11.40
  10  -2  -9    7.20   14.20
 -10  -2   9  -14.00   15.20
 -10   2   8   77.89   19.60
  10   2  -8   78.99   15.10
 -10  -2   8   91.69   17.70
  10  -2  -8   74.19   15.70
  10  -2  -8   85.49   11.40
  10   2  -7   17.70   12.00
 -10   2   7  -28.00   15.10
  10  -2  -7   10.30   12.50
 -10  -2   7  -20.10   22.20
  10  -2  -7   18.50   19.70
 -10  -2   7  -11.00   13.30
 -10   2   6   18.80   14.60
  10   2  -6   39.10   11.30
 -10  -2   6   15.60   13.90
 -10  -2   6   49.10   22.90
  10  -2  -6   19.40   11.40
  10  -2  -6   34.20   18.20
  10   2  -5   11.90    9.90
 -10   2   5   -1.20   13.30
  10  -2  -5   14.90   16.50
 -10  -2   5   16.30   14.00
  10  -2  -5   18.40   10.20
 -10  -2   5    5.10   19.50
 -10   2   4  225.68   21.20
  10   2  -4  232.58   21.20
 -10  -2   4  183.68   21.30
  10  -2  -4  227.98   20.00
  10  -2  -4  231.18   24.10
 -10  -2   4  234.78   27.20
  10   2  -3   30.40   10.60
 -10   2   3   29.90   12.80
 -10  -2   3   13.00   12.80
  10  -2  -3   10.80   14.60
 -10  -2   3   13.30   17.90
  10  -2  -3   23.80    9.50
 -10   2   2 1181.18   66.99
  10   2  -2 1077.59   64.79
  10   2  -2 1088.59   65.99
  10  -2  -2 1199.18   65.29
 -10  -2   2 1182.78   67.69
 -10  -2   2 1243.38   72.49
 -10   2   1  202.08   21.00
  10   2  -1  197.78   17.30
  10   2  -1  161.58   18.30
  10  -2  -1  152.38   19.40
 -10  -2   1  237.38   24.00
  10  -2  -1  193.48   17.40
 -10  -2   1  175.78   22.90
  10  -2  -1  202.98   18.90
 -10   2   0   31.00   11.30
  10   2   0   30.50    8.00
  10   2   0   43.70   14.10
 -10  -2   0   11.50   13.40
  10  -2   0   21.60   10.80
 -10  -2   0   42.20   19.80
  10  -2   0   28.60   13.20
  10  -2   0   47.70   10.40
 -10   2  -1   56.69   11.70
  10   2   1   59.59   15.00
  10   2   1   38.90    7.60
  10  -2   1   31.10   12.70
 -10  -2  -1    8.90   15.50
  10  -2   1   42.40   15.70
  10  -2   1   46.90   10.20
  10  -2   1   42.10   12.70
 -10  -2  -1   26.30   19.80
  10   2   2   52.49   16.70
  10   2   2   68.99    8.20
 -10   2  -2   63.99   12.10
  10  -2   2   48.40   10.60
 -10  -2  -2   53.29   20.90
 -10  -2  -2   92.19   17.60
  10  -2   2   80.29   16.80
  10   2   3   31.00   17.70
 -10   2  -3   20.90   11.10
 -10  -2  -3   11.90   15.70
 -10  -2  -3   47.80   20.40
  10  -2   3    6.70    9.80
  10  -2   3   -0.20   17.10
 -10   2  -4  217.48   21.80
  10   2   4  233.08   27.50
  10  -2   4  194.98   17.10
  10  -2   4  274.07   28.10
 -10  -2  -4  246.88   23.40
 -10  -2  -4  193.08   24.50
 -10   2  -5    8.40   11.00
  10   2   5    8.60   21.40
  10  -2   5    4.50    9.70
 -10  -2  -5   39.80   17.30
  10  -2   5    2.00   22.40
  10   2   6  -15.90   22.60
  10  -2   6   16.10   25.40
 -10  -2  -6  -27.20   17.10
  10  -2   6   12.10   10.90
  10   3 -10   13.60   18.00
  10  -3 -10    9.00   13.90
 -10  -3  10   54.19   19.50
  10  -3 -10   74.09   15.30
  10   3  -9   98.29   19.10
  10  -3  -9  107.49   13.80
  10  -3  -9  134.69   16.70
 -10  -3   9   90.09   19.40
  10   3  -8    9.90   14.40
 -10   3   8   20.70   17.70
  10  -3  -8    2.30   11.90
 -10  -3   8  -18.40   14.40
 -10   3   7   20.70   16.80
  10   3  -7    8.30   13.20
  10  -3  -7   -7.30   10.90
 -10  -3   7    4.40   14.00
  10   3  -6   -5.40   12.20
 -10   3   6  -17.20   14.70
  10  -3  -6   -0.50   17.60
 -10  -3   6   12.00   22.50
 -10  -3   6    0.60   13.50
  10  -3  -6  -11.10   10.00
 -10   3   5  487.45   34.80
  10   3  -5  376.96   30.30
 -10  -3   5  384.66   34.00
 -10  -3   5  323.37   35.50
  10  -3  -5  422.86   39.70
  10  -3  -5  420.66   29.70
  10   3  -4   76.09   13.00
 -10   3   4   83.39   15.60
 -10  -3   4   64.89   15.40
 -10  -3   4  109.09   23.30
  10  -3  -4   62.29   18.20
  10  -3  -4   60.19   11.50
 -10   3   3  329.77   27.70
  10   3  -3  315.07   26.60
  10  -3  -3  279.97   24.70
 -10  -3   3  295.17   28.60
 -10  -3   3  262.67   30.60
  10  -3  -3  297.17   32.70
  10   3  -2   20.80   12.00
 -10   3   2   23.60   12.50
 -10  -3   2   14.70   12.40
 -10  -3   2   22.60   21.50
  10  -3  -2    3.50    9.90
  10  -3  -2   17.40   15.50
 -10   3   1   86.79   13.90
 -10   3   1  106.99   10.90
  10   3  -1   95.79   15.20
  10   3  -1   85.99   10.40
 -10  -3   1   89.89   16.10
  10  -3  -1  108.09   17.70
 -10  -3   1  102.99   23.80
  10  -3  -1   60.89   12.50
  10   3   0   40.20    9.00
  10   3   0   40.70   15.80
 -10   3   0   61.09   12.20
  10  -3   0   49.10   11.20
 -10  -3   0   42.80   17.10
 -10  -3   0   74.49   20.70
  10  -3   0   54.79   14.90
  10   3   1   71.59    8.10
 -10   3  -1   49.40   11.80
  10   3   1   88.49   17.60
 -10  -3  -1   44.50   19.20
  10  -3   1   34.20   16.30
 -10  -3  -1   66.59   17.30
  10  -3   1   52.39   11.40
  10  -3   1   50.69   14.30
 -10   3  -2   75.79   12.30
  10   3   2   68.39   18.00
 -10  -3  -2  122.99   18.80
 -10  -3  -2   91.09   20.40
  10  -3   2   72.69   12.60
 -10   3  -3   22.60   10.00
  10   3   3    8.40   17.90
 -10  -3  -3   15.50   19.20
  10  -3   3   22.30   11.00
 -10  -3  -3   15.40   15.90
  10   3   4   22.60   20.30
 -10   3  -4    3.60    9.30
 -10  -3  -4   -4.30   19.70
  10  -3   4   11.80   10.50
 -10  -3  -4    5.60   16.40
  10   3   5  168.48   26.90
  10  -3   5  114.99   14.70
 -10  -3  -5  122.59   21.30
 -10  -3  -5  159.08   24.20
  10   3   6    4.30   25.70
  10  -3   6   -9.80   12.20
 -10  -3  -6   16.10   18.90
  10   4  -9   58.29   19.70
 -10  -4   9   39.60   18.00
  10  -4  -9   51.29   14.70
 -10  -4   9   62.19   17.10
  10   4  -8   38.70   17.20
 -10  -4   8   39.00   15.40
  10  -4  -8   34.90   13.80
 -10  -4   8   28.60   16.30
  10   4  -7    3.40   14.90
 -10  -4   7   -5.90   14.30
  10  -4  -7   -1.00   11.60
 -10  -4   7    6.80   13.10
  10   4  -6   10.30   14.10
 -10   4   6   -7.50   16.20
 -10  -4   6  -14.40   24.10
  10  -4  -6   28.70   12.00
 -10  -4   6   -6.00   11.80
 -10  -4   6   27.70   15.50
  10  -4  -6   13.90   19.70
  10   4  -5   76.49   15.40
 -10   4   5   80.89   17.90
  10  -4  -5  111.89   14.30
  10  -4  -5   75.59   20.70
 -10  -4   5  107.69   18.40
 -10  -4   5   62.99   23.60
 -10  -4   5   98.09   14.20
  10   4  -4  397.06   32.00
 -10   4   4  403.06   33.40
  10  -4  -4  429.16   30.50
 -10  -4   4  360.96   33.40
 -10  -4   4  302.77   36.30
  10  -4  -4  384.46   38.80
 -10  -4   4  422.96   29.30
  10   4  -3  106.89   16.10
 -10   4   3  127.59   16.50
 -10  -4   3   98.49   16.50
  10  -4  -3   94.79   14.50
  10  -4  -3  102.89   19.80
 -10  -4   3  112.19   12.90
 -10  -4   3   18.70   24.60
 -10   4   2  201.68   18.80
  10   4  -2  188.48   19.50
  10  -4  -2  191.78   23.20
 -10  -4   2  171.38   26.70
 -10  -4   2  188.98   21.10
  10  -4  -2  182.98   18.00
 -10   4   1   -9.10   15.90
 -10   4   1  -13.00    8.50
  10   4  -1    0.30   13.80
 -10  -4   1   -4.10   19.00
  10  -4  -1    2.90   11.10
 -10  -4   1   -6.30   14.80
  10  -4  -1    5.00   16.00
 -10   4   0   34.50   11.40
 -10   4   0   34.10   12.00
  10   4   0   30.10   16.00
  10   4   0   34.10    8.10
 -10  -4   0   21.70   17.20
  10  -4   0   36.00   11.70
  10  -4   0   46.50   16.60
 -10  -4   0   15.40   19.90
  10   4   1    8.40    7.80
 -10   4  -1   -2.70    9.80
 -10   4  -1    6.40   13.30
  10   4   1   -7.80   18.30
  10  -4   1    4.80   11.20
  10  -4   1   -0.80   14.40
 -10  -4  -1   22.50   20.40
 -10  -4  -1   -1.80   16.00
  10   4   2   40.20   18.50
 -10   4  -2   48.70   10.40
  10  -4   2   40.40   12.50
 -10  -4  -2   31.40   21.10
 -10  -4  -2   36.10   16.70
  10   4   3  -13.60   18.30
 -10   4  -3   20.00    8.70
 -10  -4  -3   27.40   16.80
  10  -4   3    7.50   11.40
 -10  -4  -3   33.10   21.40
  10   4   4   71.79   23.10
 -10  -4  -4   67.79   23.40
 -10  -4  -4   67.09   19.20
  10  -4   4   63.09   13.30
  10   4   5    4.10   20.90
 -10  -4  -5    1.40   24.10
  10  -4   5   -2.30   11.90
 -10  -4  -5   27.50   18.70
  10   5  -9   -0.50   19.10
 -10  -5   9   28.10   17.90
 -10  -5   9   24.30   16.70
  10  -5  -9   19.90   14.40
  10   5  -8   33.20   18.20
 -10  -5   8   17.40   16.10
  10  -5  -8    5.30   13.80
 -10  -5   8   18.10   15.00
  10   5  -7  179.78   22.10
 -10  -5   7  191.68   22.10
  10  -5  -7  171.18   19.40
 -10  -5   7  166.98   20.30
  10   5  -6   -7.10   15.40
 -10  -5   6   17.20   13.40
 -10  -5   6   10.90   15.90
  10  -5  -6    4.00   12.40
  10   5  -5   21.30   14.90
 -10  -5   5   11.90   12.40
  10  -5  -5    6.80   12.40
 -10  -5   5   12.20   14.60
  10  -5  -5   11.40   19.70
  10   5  -4   36.70   15.60
 -10   5   4   64.99   16.50
 -10  -5   4   32.80   27.10
 -10  -5   4   63.19   16.10
  10  -5  -4   68.89   21.40
 -10  -5   4   58.49   13.00
  10  -5  -4   74.49   14.10
  10   5  -3  366.16   33.50
 -10   5   3  361.76   32.80
  10  -5  -3  356.86   30.60
 -10  -5   3  406.06   27.90
 -10  -5   3  335.67   33.00
  10  -5  -3  392.96   40.80
 -10  -5   3  284.97   35.90
  10   5  -2   41.10   16.10
 -10   5   2   65.69   14.70
 -10  -5   2   64.49   17.90
  10  -5  -2   77.29   20.50
  10  -5  -2   57.49   13.70
 -10  -5   2   77.69   22.50
 -10  -5   2   64.99   11.10
 -10   5   1  227.58   19.70
 -10   5   1  162.98   17.90
  10   5  -1  152.08   20.30
 -10  -5   1  148.19   23.30
  10  -5  -1  129.39   16.70
 -10  -5   1  127.19   25.00
  10  -5  -1  164.98   22.70
  10   5   0    0.60   16.20
 -10   5   0   -6.50   10.70
 -10   5   0    0.60   11.80
  10  -5   0   -1.20   17.20
 -10  -5   0    2.40   16.50
 -10  -5   0   32.10   21.70
  10  -5   0   15.90   12.50
 -10   5  -1  -15.90    9.90
  10   5   1    2.00    7.20
  10   5   1   25.40   19.20
 -10   5  -1   21.80   14.20
 -10  -5  -1  -20.20   16.30
  10  -5   1    6.80   15.90
  10  -5   1   -6.10   12.10
 -10  -5  -1   20.50   21.10
  10   5   2   17.20   20.60
 -10   5  -2   43.90   16.70
  10  -5   2    3.50   14.70
  10  -5   2   50.09   14.00
 -10  -5  -2   37.80   23.00
  10  -5   2   19.00   14.50
 -10  -5  -2   20.70   17.60
  10   5   3  166.48   25.00
 -10   5  -3  184.78   23.20
  10  -5   3  139.79   17.40
 -10  -5  -3  138.49   22.00
 -10  -5  -3  118.39   27.60
 -10   5  -4   44.70   20.40
  10   5   4   -1.00   21.50
  10  -5   4    8.00   12.00
 -10  -5  -4  -12.40   24.90
 -10  -5  -4    2.10   17.90
  10   5   5   27.70   25.50
 -10   5  -5   16.90   22.10
 -10  -5  -5   -9.10   19.50
 -10  -5  -5   -9.60   26.20
  10  -5   5    8.90   12.90
  10   6  -8   24.80   19.70
 -10  -6   8   29.50   17.50
  10  -6  -8   -9.30   14.50
 -10  -6   8    5.80   16.90
  10   6  -7   -2.10   18.20
  10  -6  -7   -8.80   13.90
 -10  -6   7   39.60   17.70
 -10  -6   7   -3.20   14.80
  10   6  -6   77.29   19.60
 -10  -6   6  108.79   16.90
  10  -6  -6   99.89   16.60
 -10  -6   6   34.70   18.20
  10   6  -5    8.80   16.50
 -10  -6   5   -9.20   15.40
  10  -6  -5    1.10   13.80
 -10  -6   5    9.70   12.80
  10   6  -4   68.69   18.30
  10  -6  -4   52.39   23.00
 -10  -6   4   94.99   14.60
 -10  -6   4   81.59   17.40
  10  -6  -4   66.79   15.80
  10   6  -3   22.60   16.70
  10  -6  -3   58.69   22.60
 -10  -6   3   27.70   11.80
  10  -6  -3   13.10   12.90
 -10  -6   3   28.00   15.80
  10   6  -2   28.60   17.40
 -10   6   2   34.60    9.80
 -10  -6   2   61.39   11.80
  10  -6  -2   56.79   14.30
 -10  -6   2   62.49   19.40
  10  -6  -2   85.99   23.30
 -10  -6   2   41.10   23.20
  10   6  -1  204.28   24.00
 -10   6   1  234.88   23.00
 -10  -6   1  156.78   27.70
 -10  -6   1  226.18   20.10
  10  -6  -1  144.19   19.10
  10  -6  -1  266.87   27.80
 -10  -6   1  185.88   24.20
 -10   6   0   85.09   26.30
  10   6   0  118.69   20.40
  10  -6   0   74.69   15.40
 -10  -6   0   82.99   20.20
 -10  -6   0   63.09   23.30
  10  -6   0   83.29   21.50
  10   6   1   27.10   20.10
 -10   6  -1   23.70   15.70
 -10  -6  -1   37.50   18.80
  10  -6   1   46.90   14.90
 -10  -6  -1   41.00   23.70
  10  -6   1   32.50   19.40
 -10   6  -2    4.70   17.50
  10   6   2   38.80   23.90
  10  -6   2   29.10    8.50
 -10  -6  -2    7.50   22.90
  10  -6   2   15.40   16.90
 -10  -6  -2   34.50   19.60
  10  -6   2   30.30   14.60
  10   6   3   40.60   23.30
 -10   6  -3   11.60   19.30
 -10  -6  -3   11.10   25.20
  10  -6   3   10.70   14.00
 -10  -6  -3    8.30   19.30
  10   6   4   30.30   23.60
 -10   6  -4  -22.60   21.00
 -10  -6  -4    9.30   20.50
  10  -6   4   -7.10   13.60
  10   7  -7    1.00   20.00
 -10  -7   7   -2.50   15.40
 -10  -7   7   24.90   18.10
  10  -7  -7   -4.50   15.50
  10  -7  -7  -25.40   15.40
  10   7  -6   18.60   19.70
  10  -7  -6   32.20   16.10
 -10  -7   6   41.30   15.20
 -10  -7   6   33.80   18.10
  10  -7  -6   63.49   17.30
  10   7  -5  106.69   22.10
 -10  -7   5   99.39   17.20
 -10  -7   5  129.29   21.00
  10  -7  -5  164.58   19.70
  10   7  -4   23.70   18.50
 -10  -7   4   -2.40   16.10
  10  -7  -4  -18.30   13.60
 -10  -7   4    0.90   12.80
  10   7  -3   31.20   19.40
 -10  -7   3   58.89   13.30
  10  -7  -3   50.99   15.00
 -10  -7   3   39.00   17.80
 -10   7   2   14.80   10.70
  10   7  -2   15.10   18.60
 -10  -7   2   19.70   11.60
 -10  -7   2   -5.30   19.30
  10  -7  -2   -8.20   13.90
  10  -7  -2  -20.50   22.30
 -10   7   1   45.10   14.50
  10   7  -1   56.99   20.10
  10  -7  -1   31.10   14.90
 -10  -7   1   40.00   20.80
  10  -7  -1   41.60   12.80
  10  -7  -1   40.60   23.60
 -10  -7   1   22.40   11.00
  10   7   0  -10.90   18.80
 -10   7   0   10.50   15.60
  10  -7   0   16.90   22.60
 -10  -7   0   31.30    9.80
  10  -7   0  -12.00   14.30
 -10  -7   0   11.90   18.30
  10   7   1   91.79   24.70
 -10   7  -1  102.79   19.80
  10  -7   1  180.18   26.30
  10  -7   1  131.39   19.50
 -10  -7  -1  101.89   23.00
 -10   7  -2    9.00   19.00
  10   7   2  -13.40   24.40
 -10  -7  -2   -2.40   20.00
  10  -7   2  -53.39   19.00
  10  -7   2   -9.10   14.30
  10   7   3  -41.80   23.10
 -10   7  -3   13.50   20.70
  10  -7   3  -25.50   14.80
 -10  -7  -3   17.50   20.40
  10   8  -6   39.20   21.40
  10  -8  -6   36.60   17.90
  10  -8  -6   16.70   16.90
 -10  -8   6   42.30   19.20
 -10  -8   6   25.50   17.10
  10   8  -5   58.89   22.00
  10  -8  -5   22.90   17.10
 -10  -8   5   35.30   16.50
  10  -8  -5   31.80   16.90
 -10  -8   5   27.70   17.70
  10   8  -4   21.00   20.80
 -10  -8   4   26.10   17.80
  10  -8  -4   24.60   15.90
 -10  -8   4   25.40   14.70
  10  -8  -4   18.30   16.40
 -10   8   3   31.60   10.40
  10   8  -3  -15.60   19.90
  10  -8  -3   20.40   15.80
 -10  -8   3   18.10   13.80
  10  -8  -3   27.40   15.30
 -10  -8   3    2.00   18.80
  10   8  -2   87.89   23.70
 -10   8   2  114.39   15.30
  10  -8  -2  105.89   18.50
 -10  -8   2   47.00   24.00
  10  -8  -2  159.88   17.80
 -10  -8   2   86.69   15.50
 -10   8   1    4.80   15.00
  10   8  -1   14.90   20.20
 -10  -8   1   16.20   21.60
  10  -8  -1    0.70   15.30
 -10  -8   1   19.60   12.30
  10  -8  -1  -19.90   13.00
  10  -8  -1   -4.50   24.50
  10   8   0   14.90   20.80
 -10   8   0    5.60   18.00
  10  -8   0   21.70   16.80
 -10  -8   0   43.10   21.30
  10  -8   0    7.00   12.40
 -10  -8   0   10.40   10.80
  10  -8   0   23.40   25.90
  10   8   1  -43.00   21.90
 -10   8  -1  -15.10   19.10
  10  -8   1   -9.90   12.20
  10  -8   1  -24.60   25.30
 -10  -8  -1    8.10   20.60
  10  -8   1   12.90   16.90
 -10   8  -2    3.50   21.30
  10   8   2   -7.40   28.70
  10  -8   2   62.39   25.30
  10  -8   2   15.60   16.20
 -10  -8  -2   18.60   22.60
  10   9  -3   32.30   23.10
 -10  -9   3  -21.30   14.40
  10  -9  -3    5.40   17.00
  10  -9  -3   11.90   16.20
 -10  -9   3   14.20   20.90
 -10   9   2   17.20   15.00
  10   9  -2   14.30   21.50
  10  -9  -2   45.10   16.40
 -10  -9   2   15.60   14.80
  10  -9  -2   16.70   17.10
 -10  -9   2   -7.50   24.60
 -10   9   1   80.09   19.10
  10   9  -1   17.60   23.40
 -10  -9   1   82.49   15.30
 -10  -9   1   88.99   26.10
  10  -9  -1   32.20   18.50
  10  -9  -1   78.99   16.70
  11   0 -10   79.09   17.50
  11   0 -10   91.29   17.10
 -11   0  10   94.49   22.30
  11   0  -9  -21.40   12.70
  11   0  -9  -23.10   12.20
 -11   0   9   14.70   17.50
 -11   0   8   -3.20   15.80
  11   0  -8  -11.50   10.40
  11   0  -8    5.60   11.70
  11   0  -7   -2.80   10.90
 -11   0   7    0.80   15.00
  11   0  -7    9.80    9.10
  11   0  -6  233.88   23.70
  11   0  -6  272.77   20.10
 -11   0   6  295.27   30.00
  11   0  -5  -11.10   10.20
  11   0  -5    5.50    7.90
 -11   0   5   14.00   14.00
  11   0  -4 1018.10   59.49
  11   0  -4 1050.59   56.39
 -11   0   4  996.50   67.59
 -11   0   4  964.00   61.49
  11   0  -3    3.00    8.30
 -11   0   3    5.60   12.90
 -11   0   3   29.60   18.00
  11   0  -3   16.50   10.40
 -11   0   2  114.09   19.60
  11   0  -2   91.99   11.50
 -11   0   2   85.09   15.20
  11   0  -2   94.99   11.50
 -11   0   1   19.30   12.40
 -11   0   1  -35.10   15.20
  11   0  -1   -0.90    7.80
  11   0  -1   -9.60    9.90
  11   0   0  108.39   11.90
 -11   0   0  104.09   18.40
 -11   0   0  109.89   15.10
 -11   0  -1   19.00   11.90
 -11   0  -1    8.40   14.70
  11   0   1    7.30    8.80
  11   0   1  -10.20   12.90
 -11   0  -2  300.47   26.90
  11   0   2  261.67   22.90
  11   0   2  321.07   31.80
  11   0   2  272.27   21.40
 -11   0  -3  -10.90   12.30
  11   0   3  -33.50   16.60
  11   0   3    8.90    8.80
 -11   0  -4   50.89   14.70
  11   0   4   25.90    8.30
  11   0   4   20.80   20.60
  11   0   5    0.30    8.10
  11   0   5  -26.20   21.70
 -11   0  -5   22.50   15.30
 -11   1  10   29.10   20.90
  11   1 -10   14.30   15.00
  11   1 -10    8.40   16.20
  11  -1 -10    5.90   14.80
 -11  -1  10   29.30   19.60
  11  -1 -10   -5.60   15.40
  11   1  -9   -0.70   13.40
  11   1  -9   -8.40   12.90
 -11   1   9  -32.40   16.90
  11  -1  -9    3.40   14.10
  11  -1  -9    2.30   12.20
 -11  -1   9   14.00   17.40
  11   1  -8   22.30   12.50
  11   1  -8   21.10   12.30
 -11   1   8    8.10   17.20
  11  -1  -8   26.10    9.90
  11  -1  -8    5.60   13.10
 -11  -1   8   26.70   16.20
  11   1  -7  108.89   13.20
  11   1  -7   60.39   13.90
 -11   1   7   94.59   18.30
 -11  -1   7  101.39   18.20
  11  -1  -7   74.99   14.60
  11   1  -6  109.19   11.90
 -11   1   6  118.69   18.20
  11   1  -6   88.29   13.80
  11  -1  -6   54.39   14.00
 -11  -1   6   77.99   16.90
 -11  -1   6   89.79   24.20
  11   1  -5  299.57   23.70
 -11   1   5  291.37   30.60
  11   1  -5  335.07   26.10
 -11  -1   5  276.17   31.50
 -11  -1   5  360.26   31.00
  11  -1  -5  313.07   27.60
 -11   1   4   61.29   15.30
  11   1  -4   68.89   10.80
  11   1  -4   56.69   11.10
  11  -1  -4   56.79   11.80
 -11  -1   4   38.80   14.90
 -11  -1   4   49.90   20.90
  11   1  -3  191.48   19.70
 -11   1   3  162.18   18.30
  11   1  -3  168.78   15.30
 -11  -1   3  185.68   20.20
  11  -1  -3  136.79   14.40
 -11  -1   3  155.78   23.30
  11   1  -2    0.60   11.50
 -11   1   2   12.90   12.30
  11   1  -2   -1.50    9.70
 -11  -1   2   14.90   13.20
 -11  -1   2    2.10   16.90
  11  -1  -2   10.10    7.60
  11  -1  -2   11.10    8.90
  11   1  -1   15.80   11.70
 -11   1   1   -1.80   11.60
  11   1  -1   -0.50    8.90
  11  -1  -1    1.10    8.80
 -11  -1   1   -1.30   12.80
 -11  -1   1   -5.80   16.80
  11  -1  -1   10.20    9.50
  11   1   0   48.50   14.00
  11   1   0   63.19    9.20
 -11   1   0   69.29   13.70
 -11  -1   0   49.60   17.70
  11  -1   0   65.29   11.00
  11  -1   0   56.19   12.80
 -11  -1   0   49.50   13.60
  11   1   1  100.79   10.80
 -11   1  -1   94.09   14.30
  11   1   1   83.59   16.70
 -11  -1  -1   65.69   15.00
  11  -1   1   74.79   16.30
  11  -1   1  106.09   16.20
  11  -1   1   78.39   11.80
 -11  -1  -1   45.60   17.60
  11   1   2   47.10   16.80
  11   1   2   48.60    8.60
 -11   1  -2   40.30   12.20
 -11  -1  -2   30.30   16.30
  11  -1   2   57.69   12.20
  11  -1   2   56.99   17.40
 -11  -1  -2   46.20   15.10
  11  -1   2   33.80   18.80
  11  -1   2   26.00   12.80
  11   1   3  226.68   19.30
 -11   1  -3  248.88   24.20
  11   1   3  283.37   28.00
  11   1   3  269.77   27.10
 -11  -1  -3  360.86   30.90
  11  -1   3  293.27   27.70
 -11  -1  -3  239.78   22.90
  11   1   4    0.00   18.90
 -11   1  -4   25.40   12.50
  11   1   4   12.40    6.60
  11  -1   4    6.50    9.10
  11  -1   4    6.90   20.30
 -11  -1  -4   12.10   17.60
  11   1   5  -25.90   22.40
 -11   1  -5    2.40   13.00
  11  -1   5    8.80   22.30
 -11  -1  -5   11.00   19.10
  11  -1   5   21.90    9.80
 -11  -2  10   17.30   19.30
  11  -2 -10  -29.50   15.20
 -11   2   9  -11.60   18.90
  11   2  -9   16.80   15.40
  11  -2  -9    5.80   11.00
  11  -2  -9    0.20   14.80
 -11  -2   9    9.90   17.20
 -11   2   8   11.00   18.00
  11   2  -8   40.60   14.40
  11  -2  -8   56.19   15.00
 -11  -2   8   46.60   17.20
 -11   2   7  -12.80   15.40
  11   2  -7  -19.00   11.50
  11  -2  -7   -7.40   12.20
 -11  -2   7  -32.00   14.20
  11   2  -6  264.67   23.80
 -11   2   6  252.97   24.60
 -11  -2   6  233.88   31.50
  11  -2  -6  208.88   26.40
  11  -2  -6  285.67   25.50
 -11  -2   6  305.67   30.60
  11   2  -5  -13.30   10.20
 -11   2   5    7.50   14.30
  11  -2  -5   13.20   17.50
 -11  -2   5  -25.60   13.70
  11  -2  -5  -13.90    9.60
 -11  -2   5    4.80   21.80
 -11   2   4  193.28   20.20
  11   2  -4  183.78   16.50
 -11  -2   4  197.28   27.00
 -11  -2   4  155.48   19.90
  11  -2  -4  161.48   15.20
  11  -2  -4  133.89   21.10
  11   2  -3    7.20    9.60
  11   2  -3  -17.40   10.20
 -11   2   3   34.50   13.80
 -11  -2   3   -1.90   13.30
  11  -2  -3    9.70   15.00
 -11  -2   3    5.50   19.30
  11  -2  -3    7.80    9.60
  11   2  -2  108.09   11.90
 -11   2   2  110.79   15.90
  11   2  -2  105.39   17.60
 -11  -2   2   94.29   21.40
 -11  -2   2   87.59   16.10
  11  -2  -2   70.69   12.20
  11  -2  -2   77.89   17.10
  11   2  -1    0.20   14.00
  11   2  -1    7.60    9.50
 -11   2   1    6.60   12.30
  11  -2  -1    7.80    9.90
  11  -2  -1    6.80   14.60
 -11  -2   1   10.90   19.00
  11  -2  -1    7.70    9.00
 -11  -2   1   14.90   13.10
  11   2   0   11.70    7.50
 -11   2   0   -2.50   14.10
  11   2   0    8.90   13.50
  11  -2   0   12.50    9.80
 -11  -2   0   14.70   18.90
  11  -2   0  -17.40   10.90
 -11  -2   0  -10.00   13.20
  11  -2   0   18.70   14.10
 -11   2  -1   52.49   13.00
  11   2   1   58.39   16.50
  11   2   1   38.40    8.80
 -11  -2  -1   68.39   16.90
  11  -2   1   55.89   13.80
  11  -2   1   36.20   14.40
  11  -2   1   52.89   14.70
  11  -2   1   55.99   11.10
 -11  -2  -1   81.29   20.30
  11   2   2  326.17   32.80
  11   2   2  285.47   19.70
 -11   2  -2  290.47   25.20
 -11  -2  -2  289.27   27.90
 -11  -2  -2  254.67   26.70
  11  -2   2  270.37   25.70
  11  -2   2  250.57   23.60
 -11   2  -3    9.50   11.20
  11   2   3   -1.50    6.00
  11   2   3  -12.30   17.00
  11  -2   3    7.80   10.40
 -11  -2  -3   -9.90   17.90
 -11  -2  -3  -64.89   17.60
  11  -2   3   -0.70   17.80
  11   2   4   87.39   23.10
 -11   2  -4  111.79   14.30
 -11  -2  -4   95.99   19.80
  11  -2   4   65.09   12.30
  11  -2   4  133.79   23.90
 -11  -2  -4   91.79   20.90
  11   2   5   26.30   22.70
 -11   2  -5   -2.90   11.60
  11  -2   5   47.10   24.20
 -11  -2  -5   18.50   19.10
  11  -2   5   -1.80   10.40
  11   3  -9   36.40   17.20
 -11  -3   9   22.00   17.70
  11  -3  -9   19.50   13.20
 -11   3   8   24.00   19.30
  11   3  -8   33.80   15.80
  11  -3  -8   15.20   12.60
 -11  -3   8   45.50   17.10
  11   3  -7   -4.40   13.50
 -11   3   7   -0.40   16.70
 -11  -3   7   12.10   15.80
  11  -3  -7    9.00   11.20
 -11   3   6   29.60   16.40
  11   3  -6   -4.30   12.30
  11  -3  -6    9.70   19.10
  11  -3  -6   -8.50   10.90
 -11  -3   6   -3.70   26.40
 -11  -3   6    0.10   15.20
  11   3  -5  556.44   38.20
 -11   3   5  634.74   42.30
  11  -3  -5  526.75   47.30
 -11  -3   5  552.94   42.90
 -11  -3   5  502.05   51.99
  11  -3  -5  624.14   38.20
  11   3  -4  -14.40   11.60
 -11   3   4  -19.90   13.80
 -11  -3   4   34.60   22.80
  11  -3  -4   -0.50   10.60
 -11  -3   4   25.70   15.20
  11  -3  -4   11.10   17.40
 -11   3   3   57.49   15.40
  11   3  -3   46.00   13.30
  11  -3  -3   45.80   18.10
 -11  -3   3   44.60   14.70
  11  -3  -3   47.40   11.90
 -11  -3   3   33.20   21.80
  11   3  -2    5.80   12.60
  11   3  -2   14.30    9.20
 -11   3   2   21.20   13.80
 -11  -3   2   21.70   14.10
 -11  -3   2   31.10   22.50
  11  -3  -2   12.50   16.50
  11  -3  -2   20.00   10.80
 -11   3   1    1.00    9.30
 -11   3   1   -2.70   12.50
  11   3  -1    9.50    8.40
  11   3  -1   -7.50   13.60
 -11  -3   1   -6.80   23.00
  11  -3  -1   12.20   15.60
  11  -3  -1    4.60   11.10
 -11  -3   1  -10.70   14.20
  11   3   0   -4.80   16.30
  11   3   0   14.60    9.00
  11  -3   0    2.20   15.00
  11  -3   0  -11.40   10.30
 -11  -3   0   18.60   16.10
 -11  -3   0  -15.60   22.80
  11   3   1  184.78   22.30
  11   3   1  224.98   16.80
 -11   3  -1  186.68   18.10
 -11  -3  -1  137.69   24.20
  11  -3   1  188.18   20.10
  11  -3   1  212.68   18.30
  11  -3   1  234.38   21.40
 -11  -3  -1  206.58   28.30
  11   3   2   43.90    7.10
 -11   3  -2   22.30   12.00
  11   3   2   26.80   17.90
 -11  -3  -2   40.70   18.80
  11  -3   2   16.00   11.60
 -11  -3  -2   16.30   22.10
 -11   3  -3   40.80   11.60
  11   3   3   40.50   20.40
  11  -3   3   22.30   12.00
 -11  -3  -3   32.10   23.30
 -11  -3  -3   67.59   20.10
 -11   3  -4   35.60   11.10
  11   3   4   11.00   20.30
  11  -3   4  -22.20   10.60
 -11  -3  -4   51.89   25.10
 -11  -3  -4   18.60   18.40
  11   3   5   14.00   23.40
 -11  -3  -5   18.80   19.30
 -11  -3  -5   69.39   25.90
  11  -3   5    8.80   11.60
  11   4  -9    7.60   18.40
 -11  -4   9   37.30   18.60
  11  -4  -9   40.10   14.90
  11   4  -8   15.40   16.60
 -11  -4   8   28.70   17.30
  11  -4  -8   75.69   15.00
 -11   4   7   10.50   18.60
  11   4  -7   50.09   16.00
 -11  -4   7   48.30   14.70
 -11  -4   7   40.50   17.30
  11  -4  -7   41.80   13.80
  11   4  -6   62.49   15.90
 -11   4   6   74.19   19.50
 -11  -4   6   54.69   17.90
 -11  -4   6   82.79   14.90
  11  -4  -6   64.09   14.00
  11   4  -5   10.70   13.50
 -11   4   5  -20.40   15.40
  11  -4  -5    8.00   18.40
 -11  -4   5  -24.00   15.50
  11  -4  -5   11.40   12.00
 -11  -4   5  -11.40   24.70
 -11   4   4  320.77   31.90
  11   4  -4  294.17   29.50
  11  -4  -4  360.66   27.40
  11  -4  -4  281.67   29.50
 -11  -4   4  315.47   31.60
 -11  -4   4  248.78   32.80
  11   4  -3  216.18   21.30
 -11   4   3  222.58   21.80
  11  -4  -3  230.78   26.50
 -11  -4   3  224.98   32.30
 -11  -4   3  234.78   22.20
  11  -4  -3  199.68   19.60
  11   4  -2   15.70   13.90
 -11   4   2   23.70   13.60
 -11  -4   2    1.00   26.20
  11  -4  -2   10.10   18.30
 -11  -4   2  -25.20   14.20
  11  -4  -2   11.10   11.90
 -11   4   1   90.09   15.60
 -11   4   1  131.39   12.60
  11   4  -1  109.89   18.10
 -11  -4   1  105.19   26.70
 -11  -4   1   84.89   18.80
  11  -4  -1  107.09   15.10
  11  -4  -1  102.09   20.60
  11   4   0   55.09   18.70
 -11   4   0   59.79   15.10
  11   4   0   38.20    9.20
 -11   4   0   39.80   12.80
  11  -4   0   31.40   12.80
 -11  -4   0   28.90   22.70
  11  -4   0   43.60   17.40
 -11  -4   0   28.70   19.30
 -11   4  -1    1.40   10.90
  11   4   1   -9.40    7.20
 -11   4  -1   24.40   14.70
  11   4   1    1.00   18.60
 -11  -4  -1   37.60   18.60
  11  -4   1   13.40   15.90
 -11  -4  -1   -3.00   21.50
  11  -4   1    7.40   12.00
 -11   4  -2   94.39   13.50
  11   4   2   96.39   20.80
  11  -4   2   78.89   14.70
 -11  -4  -2  124.79   21.40
 -11  -4  -2  128.39   25.90
 -11   4  -3   12.10   10.00
  11   4   3  -22.40   18.90
  11  -4   3   -9.20   11.90
 -11  -4  -3   16.10   18.80
 -11  -4  -3    8.00   23.30
  11   4   4   56.49   24.20
 -11  -4  -4   24.70   25.20
 -11  -4  -4   19.50   19.30
  11  -4   4   36.50   13.10
  11   5  -8   -3.50   18.10
  11  -5  -8  -43.20   12.90
 -11  -5   8   13.30   16.00
 -11  -5   8   -6.10   16.90
  11   5  -7  131.99   21.40
 -11  -5   7  152.68   22.10
  11  -5  -7  170.98   19.20
 -11  -5   7  175.68   20.50
  11   5  -6    7.00   15.40
  11  -5  -6   -6.70   12.80
 -11  -5   6    1.40   16.30
 -11  -5   6   23.60   13.90
 -11   5   5   13.30   17.40
  11   5  -5   -3.90   14.70
 -11  -5   5   -5.20   12.60
 -11  -5   5  -21.50   15.10
  11  -5  -5   23.20   13.70
 -11   5   4  -14.90   15.90
  11   5  -4    5.80   15.10
  11  -5  -4  -16.80   12.80
  11  -5  -4   -5.00   20.00
 -11  -5   4    2.40   15.00
 -11  -5   4   17.20   12.00
  11   5  -3  146.69   20.10
 -11   5   3  223.88   21.30
 -11  -5   3  150.88   20.20
  11  -5  -3  139.49   17.80
 -11  -5   3   96.09   29.00
 -11  -5   3  150.08   15.70
  11  -5  -3  167.98   25.90
 -11   5   2   43.30   15.10
  11   5  -2   49.00   16.30
 -11  -5   2   23.50   16.40
 -11  -5   2    1.70   23.00
  11  -5  -2   42.10   13.40
  11  -5  -2   51.19   21.50
 -11   5   1   85.09   14.80
  11   5  -1   41.50   17.30
 -11   5   1   55.89   11.90
  11  -5  -1   51.19   14.10
 -11  -5   1   -0.80   22.40
 -11  -5   1   51.89   19.40
  11  -5  -1   81.29   21.20
  11   5   0   56.99   19.00
 -11   5   0   47.90   13.50
  11   5   0   37.70    9.10
  11  -5   0   40.80   19.50
 -11  -5   0   40.00   20.20
  11  -5   0   41.80   14.00
 -11  -5   0    8.00   22.70
  11   5   1    1.20    8.90
 -11   5  -1   17.70   11.70
 -11   5  -1  -15.20   14.40
  11   5   1   16.10   21.30
  11  -5   1    7.10   17.50
  11  -5   1   29.80   13.50
 -11  -5  -1   41.00   24.40
 -11  -5  -1   18.50   18.90
 -11   5  -2   -2.90   16.90
  11   5   2   -9.80   20.00
  11  -5   2   11.20   13.90
 -11  -5  -2   21.20   24.80
 -11  -5  -2   -8.70   18.80
 -11   5  -3   96.99   21.90
  11   5   3  135.69   25.10
  11  -5   3   95.39   16.50
 -11  -5  -3  132.99   28.80
 -11  -5  -3  145.39   22.70
  11   5   4  -12.70   22.10
 -11   5  -4  -11.90   21.10
 -11  -5  -4  -23.00   19.70
 -11  -5  -4  -17.20   27.20
  11  -5   4   37.20   13.90
 -11  -6   8   18.60   17.20
  11   6  -7   29.00   19.40
  11  -6  -7   16.30   15.30
 -11  -6   7   17.90   18.10
 -11  -6   7   -0.90   15.10
  11   6  -6   45.50   18.80
 -11  -6   6   40.30   19.50
 -11  -6   6   99.39   17.20
  11  -6  -6   90.79   17.30
  11   6  -5   -6.30   16.70
  11  -6  -5   -8.40   13.90
 -11  -6   5  -18.70   12.90
 -11  -6   5   19.00   16.50
  11   6  -4   73.79   18.90
 -11  -6   4   79.99   17.90
 -11  -6   4   68.49   14.50
  11  -6  -4   88.29   16.60
  11   6  -3  -28.10   16.00
  11  -6  -3   20.00   23.40
  11  -6  -3    6.10   13.80
 -11  -6   3  -14.90   11.60
 -11  -6   3   -0.40   16.20
  11   6  -2    8.80   17.20
  11  -6  -2   16.00   22.60
 -11  -6   2   27.40   11.10
 -11  -6   2   11.70   17.70
  11  -6  -2   27.40   14.00
  11   6  -1   -1.90   17.50
 -11   6   1   11.30   11.90
  11  -6  -1   35.80   22.30
 -11  -6   1   11.60   20.90
  11  -6  -1    9.70   14.10
  11   6   0   53.69   21.50
 -11   6   0   75.69   16.10
 -11  -6   0   74.39   22.30
  11  -6   0   47.60   15.10
  11  -6   0   71.49   22.60
  11   6   1   61.79    9.50
  11   6   1   37.00   23.10
 -11   6  -1   38.10   17.20
  11  -6   1   53.39   15.90
  11  -6   1   69.59   21.30
 -11  -6  -1   42.90   20.60
  11   6   2   10.70   23.50
 -11   6  -2   33.40   19.30
  11  -6   2   23.40   15.20
 -11  -6  -2   32.60   21.10
  11  -6   2   43.50   10.00
  11  -6   2   45.20   18.10
  11   6   3   36.10   23.40
 -11   6  -3  -21.00   19.50
 -11  -6  -3  -12.60   20.00
  11  -6   3   -5.10   14.10
  11   7  -6   57.99   20.50
 -11  -7   6   30.30   19.40
 -11  -7   6   30.50   16.40
  11  -7  -6   37.70   16.80
  11   7  -5  135.19   22.40
 -11  -7   5   55.39   19.70
  11  -7  -5   83.89   19.00
 -11  -7   5   99.59   17.40
  11   7  -4   57.19   20.20
 -11  -7   4   32.40   18.20
 -11  -7   4   51.69   15.10
  11  -7  -4   23.80   15.70
  11   7  -3   22.40   19.20
 -11  -7   3   47.10   14.00
 -11  -7   3   40.10   19.40
  11  -7  -3   45.30   16.60
  11   7  -2   10.90   19.10
  11  -7  -2   -6.00   23.10
  11  -7  -2    3.60   15.20
 -11  -7   2    3.10   19.20
 -11  -7   2   13.10   12.10
 -11   7   1   12.20   14.00
  11   7  -1   25.80   20.10
  11  -7  -1   -1.40   14.80
  11  -7  -1   -8.70   23.40
 -11  -7   1   35.40   11.30
 -11  -7   1   -5.90   22.40
 -11   7   0    8.70   16.30
  11   7   0   28.90   22.00
 -11  -7   0   24.50   22.70
  11  -7   0   -9.30   15.50
  11  -7   0  -39.80   23.80
  11  -7   0   21.40   12.80
  11   7   1   28.50   24.30
 -11   7  -1   36.70   18.90
  11   7   1   70.79    9.90
  11  -7   1   72.89   18.30
  11  -7   1   96.59   13.30
 -11  -7  -1   43.20   22.60
  11  -7   1   50.49   24.50
 -11   7  -2   -1.90   19.60
  11   7   2   10.00   26.30
  11  -7   2   42.20   21.40
  11  -7   2   14.30   16.20
 -11  -7  -2  -24.20   20.70
  11   8  -5   32.60   21.80
 -11  -8   5    5.50   15.60
  11  -8  -5   11.00   17.40
  11  -8  -5   41.80   18.20
 -11  -8   5   19.60   19.10
  11   8  -4   -4.70   20.70
 -11  -8   4    3.00   18.40
  11  -8  -4   29.80   16.70
  11  -8  -4   15.00   17.50
 -11  -8   4    9.40   15.20
  11   8  -3   22.40   21.60
  11  -8  -3   65.19   17.20
  11  -8  -3   50.79   18.00
 -11  -8   3  102.49   16.50
 -11  -8   3   79.19   22.00
  11   8  -2   70.19   23.70
 -11   8   2   97.29   14.70
  11  -8  -2  135.69   18.60
  11  -8  -2  116.79   20.30
 -11  -8   2  113.39   16.60
 -11  -8   2  131.19   26.10
 -11   8   1   37.00   16.20
  11   8  -1   -2.00   20.50
 -11  -8   1   -4.90   24.20
  11  -8  -1    3.50   16.80
  11  -8  -1   -6.00   14.00
 -11  -8   1    7.20   12.40
  11   8   0  -34.70   20.00
 -11   8   0  -14.70   17.80
  11  -8   0  -60.99   25.80
 -11  -8   0   39.70   24.20
  11  -8   0   23.00   14.10
  11  -8   0   31.20   17.90
 -12   0   9  -27.30   17.40
  12   0  -9   -4.80   13.80
 -12   0   8   24.50   18.10
  12   0  -8   39.20   11.70
  12   0  -8   65.89   15.10
  12   0  -7   -1.40   12.40
  12   0  -7  -14.50    8.60
 -12   0   7    1.20   16.30
  12   0  -6  257.17   26.20
  12   0  -6  250.57   20.70
 -12   0   6  279.47   25.70
  12   0  -5    0.60    8.00
  12   0  -5   -7.40   11.30
 -12   0   5    1.10   14.70
 -12   0   4   65.89   16.90
  12   0  -4   98.09   10.80
  12   0  -4   64.39   14.40
 -12   0   3    0.30   14.00
  12   0  -3  -10.00    9.70
  12   0  -3  -10.00    8.00
 -12   0   3  -16.70   18.50
 -12   0   2   39.10   19.20
 -12   0   2   55.59   15.70
  12   0  -2   38.30   10.70
  12   0  -2   33.40    9.60
 -12   0   1   -4.40   17.60
  12   0  -1    9.40    8.90
 -12   0   1   12.40   13.70
  12   0  -1    5.30   10.80
 -12   0   0  590.44   40.20
  12   0   0  569.94   40.30
 -12   0   0  587.74   45.70
  12   0   0  604.64   36.70
 -12   0  -1   -6.90   12.30
  12   0   1    4.90   14.20
  12   0   1  -14.90   10.30
  12   0   2   77.49   19.10
  12   0   2   99.69   11.80
  12   0   2   95.69   18.30
 -12   0  -2   72.09   15.60
 -12   0  -3   -1.40   12.80
  12   0   3   -8.10   18.40
  12   0   3   12.50    9.50
  12   0   4   12.00    8.60
 -12   0  -4    2.70   14.50
  12   0   4  -35.10   20.50
 -12   0  -5   10.60   15.60
  12   0   5   14.30   23.40
  12   1  -9    1.60   14.60
 -12   1   9   -2.00   19.10
  12   1  -9   21.90   15.20
  12  -1  -9   20.30   11.30
  12  -1  -9   12.50   15.40
 -12  -1   9   40.80   19.10
  12   1  -8   26.00   13.40
  12   1  -8   32.00   12.80
 -12   1   8   12.70   17.80
 -12  -1   8  -15.60   16.80
  12  -1  -8   19.00   15.50
  12   1  -7  224.78   21.30
 -12   1   7  263.57   26.20
  12   1  -7  261.37   23.00
  12  -1  -7  244.38   23.70
 -12  -1   7  262.07   26.10
  12   1  -6   20.00   10.70
  12   1  -6   22.20   12.20
 -12   1   6   35.20   16.80
 -12  -1   6   39.20   16.60
  12  -1  -6   16.80   13.40
 -12  -1   6   23.60   25.60
  12   1  -5   83.99   13.40
  12   1  -5   67.59   11.80
 -12   1   5   83.99   18.00
 -12  -1   5   29.70   21.90
  12  -1  -5  101.59   14.90
 -12  -1   5   91.89   18.10
 -12   1   4   48.70   16.00
  12   1  -4   60.59   12.40
  12   1  -4   61.59   11.50
 -12  -1   4   32.60   16.20
 -12  -1   4   57.79   22.20
  12  -1  -4   55.59   11.70
  12   1  -3   -5.50   11.60
 -12   1   3  -31.50   13.50
  12   1  -3   -8.00   10.70
  12  -1  -3   19.00    9.60
 -12  -1   3    6.70   19.90
 -12  -1   3  -18.40   14.00
  12   1  -2    0.30   11.50
  12   1  -2   11.40   10.10
 -12   1   2  -10.80   13.10
  12  -1  -2   12.20    9.50
 -12  -1   2    4.20   18.60
 -12  -1   2   -9.70   14.00
  12  -1  -2    1.20    8.40
 -12   1   1  133.39   17.20
  12   1  -1  100.99   11.90
  12   1  -1  104.69   15.40
  12  -1  -1  124.99   13.40
 -12  -1   1   95.59   16.80
  12  -1  -1  136.39   14.10
 -12  -1   1  101.59   21.00
 -12   1   0   21.30   13.50
  12   1   0   69.29   15.00
  12  -1   0   41.60   14.90
  12  -1   0   38.40   11.00
 -12  -1   0   62.69   19.40
 -12  -1   0   26.30   14.00
  12   1   1  253.57   21.30
  12   1   1  241.68   23.80
 -12   1  -1  211.48   21.40
  12  -1   1  363.36   29.60
 -12  -1  -1  229.28   25.20
  12  -1   1  260.77   22.20
 -12  -1  -1  225.78   22.50
  12   1   2   53.19    9.50
 -12   1  -2   39.20   13.40
  12   1   2   62.19   18.70
 -12  -1  -2  105.39   19.50
  12  -1   2   49.80   17.70
 -12  -1  -2   39.80   15.80
  12  -1   2   45.30   14.20
  12  -1   2   44.40   11.00
  12   1   3    4.10   18.90
  12   1   3   29.70    8.80
 -12   1  -3   37.90   13.10
  12   1   3   67.89   16.20
  12  -1   3   17.90   19.30
 -12  -1  -3   39.70   16.30
  12  -1   3   17.70   11.00
 -12   1  -4   -6.60   12.90
  12   1   4   49.20   12.30
  12   1   4   -7.30   21.00
  12  -1   4    7.90   10.00
 -12  -1  -4  -29.80   16.50
  12  -1   4  -12.00   21.10
 -12   1  -5   11.30   14.60
  12   1   5   -4.00   23.40
 -12  -1  -5  -42.90   17.30
  12  -1   5    8.40   24.00
  12   2  -9   22.20   16.20
 -12   2   9    0.60   20.40
  12  -2  -9   24.20   15.40
 -12  -2   9   28.60   18.90
 -12   2   8  116.89   22.00
  12   2  -8   86.59   16.80
  12  -2  -8   88.39   16.50
 -12  -2   8  116.89   20.60
 -12   2   7  -14.70   16.90
  12   2  -7   -7.90   12.20
  12  -2  -7    4.60   12.70
 -12  -2   7   10.60   16.90
 -12   2   6  275.17   26.70
  12   2  -6  255.97   25.00
 -12  -2   6  336.87   33.20
  12  -2  -6  267.97   26.10
  12   2  -5   27.60   12.10
 -12   2   5   28.00   16.50
  12  -2  -5   36.60   17.90
 -12  -2   5   50.99   23.20
  12  -2  -5   16.10   10.60
 -12  -2   5   35.20   16.70
 -12   2   4   11.70   15.90
  12   2  -4   14.20   11.10
  12  -2  -4   -1.00   10.00
 -12  -2   4  -10.30   19.80
  12  -2  -4   13.80   17.80
 -12  -2   4   -2.80   14.90
  12   2  -3   12.00   10.40
 -12   2   3   30.50   15.00
  12   2  -3   29.30   12.40
  12  -2  -3   17.40   17.10
  12  -2  -3   17.70   10.40
 -12  -2   3    7.20   14.90
 -12  -2   3   23.50   21.30
 -12   2   2   64.29   15.70
  12   2  -2   61.19   12.50
  12   2  -2   87.29   16.00
 -12  -2   2   96.09   22.80
  12  -2  -2   76.19   18.10
  12  -2  -2   69.49   12.40
 -12  -2   2   74.49   16.80
  12   2  -1   -8.00   14.30
 -12   2   1   10.10   13.20
  12   2  -1   14.70    9.20
 -12  -2   1   -2.10   20.00
 -12  -2   1    2.70   13.90
  12  -2  -1    2.00    9.90
  12  -2  -1   -9.50   15.30
  12  -2  -1   -1.20   10.60
  12   2   0  146.59   12.90
 -12   2   0  126.89   16.90
  12   2   0  137.69   18.60
 -12  -2   0  184.68   24.60
  12  -2   0  138.29   16.50
 -12  -2   0  131.89   19.20
  12  -2   0  133.89   19.10
  12  -2   0  127.69   15.00
  12   2   1   -5.70   15.50
  12   2   1   -7.70    8.20
 -12   2  -1  -10.60   12.00
  12  -2   1   -6.50   14.20
 -12  -2  -1   -8.50   15.60
  12  -2   1    2.10   10.40
 -12  -2  -1  -14.20   19.10
  12  -2   1   -5.70   14.30
  12   2   2  115.39   11.10
  12   2   2  162.88   22.40
 -12   2  -2  113.49   15.40
 -12  -2  -2  109.29   20.60
 -12  -2  -2  107.49   22.70
  12  -2   2  111.19   14.00
  12  -2   2   98.69   19.50
  12   2   3   19.90    7.00
  12   2   3  -39.60   18.00
 -12   2  -3  -12.40   14.50
  12  -2   3    6.40   19.10
 -12  -2  -3   26.10   19.70
 -12  -2  -3   -6.80   19.60
  12  -2   3   20.70   11.50
  12   2   4    1.50   21.20
 -12  -2  -4   -0.70   21.40
  12  -2   4    1.90   21.80
  12  -2   4   -9.00   10.80
 -12  -2  -4   -3.40   18.30
  12   3  -9   29.90   18.30
 -12   3   9   28.30   21.20
 -12  -3   9   50.79   19.90
  12  -3  -9   12.10   13.90
 -12   3   8   39.80   20.60
  12   3  -8   19.60   15.90
 -12  -3   8   22.90   18.40
  12  -3  -8   33.80   12.70
 -12   3   7   64.09   19.70
  12   3  -7   47.90   14.90
  12  -3  -7   30.90   12.90
 -12  -3   7   50.99   17.90
 -12   3   6   54.59   18.40
  12   3  -6   21.30   13.30
  12  -3  -6   30.40   12.50
 -12  -3   6   55.49   17.80
 -12   3   5  260.67   24.90
  12   3  -5  250.57   25.50
 -12  -3   5  165.48   33.90
  12  -3  -5  172.68   26.00
 -12  -3   5  255.37   25.90
  12  -3  -5  237.88   23.90
 -12   3   4   46.30   16.90
  12   3  -4   11.20   12.90
 -12  -3   4   33.80   23.90
  12  -3  -4   19.60   11.40
  12  -3  -4   -3.00   18.80
 -12  -3   4   17.20   15.60
  12   3  -3   -2.50   10.30
 -12   3   3   11.60   15.30
  12   3  -3  -14.30   12.20
  12  -3  -3    0.70   10.80
 -12  -3   3    3.90   15.10
 -12  -3   3   -8.70   21.80
  12  -3  -3   -4.20   17.60
  12   3  -2   38.00   15.10
 -12   3   2   22.90   15.00
  12   3  -2   44.20   10.30
 -12  -3   2   10.50   15.10
  12  -3  -2   39.40   12.20
  12  -3  -2   21.50   17.80
 -12  -3   2   -0.60   22.00
 -12   3   1   71.69   15.50
  12   3  -1   42.90   11.40
  12   3  -1   51.69   17.50
 -12   3   1   53.39   11.30
  12  -3  -1   58.89   13.10
 -12  -3   1   59.49   16.50
  12  -3  -1   11.70   18.10
 -12  -3   1   47.00   25.00
  12   3   0   -4.50    8.30
  12   3   0    2.30   16.80
 -12   3   0   21.40   13.40
 -12  -3   0  -32.70   15.90
  12  -3   0   -8.30   11.00
  12  -3   0   -9.70   16.00
 -12  -3   0    3.20   24.60
  12   3   1  293.17   28.50
  12   3   1  334.37   22.70
 -12   3  -1  301.87   28.30
  12  -3   1  372.06   32.60
 -12  -3  -1  239.28   34.80
  12  -3   1  335.47   27.80
 -12  -3  -1  375.76   36.70
 -12   3  -2   15.30   12.70
  12   3   2  -10.90    6.90
  12   3   2   30.80   18.90
  12  -3   2    5.60   12.30
 -12  -3  -2   32.10   27.20
 -12  -3  -2   -5.00   20.90
 -12   3  -3  -11.70   12.20
  12   3   3  -35.60   19.40
 -12  -3  -3    4.10   26.20
 -12  -3  -3   12.80   21.60
  12  -3   3   14.70   12.50
 -12   3  -4   -1.70   11.90
  12   3   4   -3.00   21.10
 -12  -3  -4  -15.50   25.60
 -12  -3  -4   33.50   21.80
  12  -3   4   -0.90   11.80
 -12   4   8   67.69   22.20
  12   4  -8   96.19   19.60
 -12  -4   8   61.89   20.20
  12  -4  -8   80.19   16.00
  12   4  -7    1.60   15.30
 -12   4   7   17.60   19.80
 -12  -4   7   26.10   17.50
  12  -4  -7    8.70   12.80
  12   4  -6   65.59   16.10
 -12   4   6   88.39   21.10
  12  -4  -6   56.99   14.20
 -12  -4   6   72.39   19.70
  12   4  -5    1.20   13.70
 -12   4   5    3.50   17.30
  12  -4  -5   15.10   12.80
 -12  -4   5   -6.10   17.00
  12   4  -4   90.59   16.10
 -12   4   4   57.89   18.20
  12  -4  -4   26.60   20.50
  12  -4  -4   77.89   14.30
 -12  -4   4   74.29   17.40
 -12  -4   4   15.10   37.60
  12   4  -3    9.90   14.10
 -12   4   3   33.10   16.10
 -12  -4   3   46.10   16.50
  12  -4  -3   30.00   20.00
 -12  -4   3   21.20   24.90
  12  -4  -3   34.10   13.30
  12   4  -2   -2.80   14.30
  12   4  -2    0.50    9.80
 -12   4   2   -3.70   14.20
 -12  -4   2   -1.50   27.60
  12  -4  -2   -1.60   18.90
 -12  -4   2    1.80   15.60
  12  -4  -2    4.10   12.30
  12   4  -1  164.68   15.70
 -12   4   1  177.28   15.20
 -12   4   1  152.58   19.10
  12   4  -1  171.58   21.60
  12  -4  -1  123.39   23.40
  12  -4  -1  159.48   17.70
 -12  -4   1  188.38   32.90
 -12  -4   1  131.29   21.60
  12   4   0  135.29   23.80
  12   4   0  114.09   13.50
 -12   4   0  119.69   17.00
 -12   4   0  132.69   16.60
 -12  -4   0  115.39   29.90
  12  -4   0   80.29   20.60
 -12  -4   0  165.28   23.20
  12  -4   0  121.49   16.20
  12   4   1   13.20    8.20
 -12   4  -1   10.20   15.30
  12   4   1  -24.20   18.40
  12  -4   1   56.59   17.80
 -12  -4  -1   48.40   22.10
  12  -4   1   33.40   13.60
 -12  -4  -1   35.60   26.60
  12   4   2   29.70   20.80
 -12   4  -2   58.29   13.50
  12  -4   2   87.19   15.20
 -12  -4  -2   58.89   27.60
 -12  -4  -2   25.70   22.00
 -12   4  -3    2.30   11.30
  12   4   3   40.80   23.00
 -12  -4  -3  -16.20   26.70
  12  -4   3   44.40   13.70
 -12  -4  -3  -14.30   20.40
  12   4   4   15.30   23.40
  12  -4   4    3.60   13.30
 -12  -4  -4   -1.80   21.20
 -12  -4  -4   76.79   30.40
  12   5  -8   15.30   19.00
  12  -5  -8   10.60   15.40
 -12  -5   8  -10.00   18.80
  12   5  -7  179.48   22.40
 -12  -5   7  142.69   23.90
 -12  -5   7  191.18   21.20
  12  -5  -7  170.18   19.80
  12   5  -6  -19.80   15.00
 -12   5   6    2.50   19.30
  12  -5  -6    5.10   13.60
 -12  -5   6  -10.20   13.70
 -12  -5   6   11.20   18.10
 -12   5   5   21.40   18.50
  12   5  -5    5.40   15.50
 -12  -5   5   -9.70   16.70
  12  -5  -5  -18.40   13.00
 -12   5   4   15.00   17.70
  12   5  -4   -1.30   15.30
  12  -5  -4   13.30   13.60
 -12  -5   4   23.80   16.60
  12  -5  -4  -11.90   25.00
 -12   5   3   24.80   16.90
  12   5  -3   45.00   16.50
 -12  -5   3   34.20   17.90
  12  -5  -3   37.20   14.20
  12  -5  -3   36.90   22.70
  12   5  -2   -2.90   15.60
 -12   5   2   24.50   15.60
  12  -5  -2   34.40   14.10
  12  -5  -2   -5.20   21.90
 -12  -5   2   -6.50   16.30
  12   5  -1   58.89   19.30
  12   5  -1   47.40   10.50
 -12   5   1   54.69   15.90
 -12   5   1   58.39   12.40
 -12  -5   1   75.89   27.80
 -12  -5   1   68.49   19.90
  12  -5  -1   78.89   22.70
  12  -5  -1   41.80   14.50
  12   5   0    3.50    9.40
  12   5   0    8.50   20.60
 -12   5   0    8.90   13.60
  12  -5   0   23.70   14.10
 -12  -5   0   17.70   24.80
  12  -5   0   -3.90   20.20
 -12  -5   0    8.80   21.70
  12   5   1    1.10   21.00
  12   5   1   11.50    8.20
 -12   5  -1    2.40   15.60
 -12   5  -1   14.10   13.00
 -12  -5  -1    2.80   22.50
  12  -5   1    0.90   18.80
  12  -5   1   18.40   14.40
 -12  -5  -1  -44.40   23.00
  12   5   2   31.50   21.40
 -12   5  -2   13.30   18.40
 -12   5  -2   16.10   12.20
  12  -5   2   26.60   15.20
 -12  -5  -2    4.10   20.80
 -12  -5  -2  -27.70   25.00
  12   5   3   64.49   24.60
 -12   5  -3   92.29   22.30
 -12  -5  -3   14.80   27.80
  12  -5   3   65.49   16.20
 -12  -5  -3   52.59   22.30
  12   6  -7   15.50   18.70
 -12  -6   7  -25.10   16.10
  12  -6  -7    8.20   16.10
 -12  -6   7    9.20   19.80
  12   6  -6   72.89   19.60
 -12  -6   6   87.79   17.60
  12  -6  -6   52.59   17.50
 -12  -6   6   47.60   20.90
  12   6  -5   20.90   18.50
  12  -6  -5   61.19   17.10
 -12  -6   5   61.59   19.00
 -12  -6   5   46.60   15.70
  12   6  -4   65.69   19.10
 -12  -6   4   32.30   14.00
 -12  -6   4   47.80   17.90
  12  -6  -4   32.40   16.80
  12   6  -3   16.30   17.20
  12  -6  -3    0.50   27.10
  12  -6  -3   23.30   15.40
 -12  -6   3   15.90   17.20
  12   6  -2   11.10   17.40
  12  -6  -2   30.40   15.30
  12  -6  -2    6.10   23.90
 -12  -6   2   23.20   18.70
  12   6  -1   -8.90   17.80
 -12   6   1   -4.00   12.00
  12  -6  -1   28.00   24.50
 -12  -6   1   -8.10   20.60
  12  -6  -1   -9.50   14.20
  12   6   0   69.89   11.30
 -12   6   0   33.60   15.80
  12   6   0   75.59   22.20
 -12  -6   0   46.40   23.90
  12  -6   0   55.49   23.40
  12  -6   0   60.69   16.70
  12   6   1  -19.90    9.60
  12   6   1   24.80   24.50
 -12   6  -1   27.70   17.50
  12  -6   1  -24.70   14.60
  12  -6   1    0.10   20.60
 -12  -6  -1   15.00   23.10
  12   6   2    4.00   23.20
 -12   6  -2    8.70   19.60
 -12  -6  -2   40.50   23.80
  12  -6   2   -2.80   16.00
  12   7  -6    9.40   20.60
 -12  -7   6    6.70   16.50
 -12  -7   6   -9.60   19.40
  12  -7  -6   47.40   17.70
  12   7  -5   63.39   21.30
 -12  -7   5   67.59   17.30
  12  -7  -5   54.59   18.70
 -12  -7   5   46.70   19.50
  12   7  -4    3.90   19.50
 -12  -7   4   24.00   15.30
  12  -7  -4   39.60   17.20
 -12  -7   4   12.40   18.10
  12   7  -3   32.00   20.10
  12  -7  -3   46.20   17.10
 -12  -7   3   28.50   19.70
 -12  -7   3   46.80   14.40
  12   7  -2   22.00   20.40
 -12  -7   2   31.00   21.10
  12  -7  -2   40.40   16.80
  12   7  -1  -20.60   19.30
 -12   7   1   17.70   13.80
  12  -7  -1  -17.60   25.70
  12  -7  -1    6.70   15.80
 -12  -7   1    0.50   23.90
  12   7   0  -19.40   21.00
 -12   7   0   -3.40   16.90
  12  -7   0    0.60   16.50
 -12  -7   0   -8.30   25.00
  12  -7   0   -4.30   25.20
  12   7   1   50.39   26.10
 -12   7  -1   60.79   19.70
 -12  -7  -1   39.60   25.80
  12  -7   1    5.10   17.60
  12  -7   1   66.29   14.20
  12  -7   1   47.60   25.90
  12   8  -3   26.80   21.10
  12  -8  -3   14.80   18.30
 -12  -8   3  -19.70   20.20
  12  -8  -3  -15.30   16.20
 -12  -8   3   -7.40   14.70
  12   8  -2   47.70   22.30
 -12  -8   2   50.99   24.50
 -12  -8   2   76.19   15.70
  12  -8  -2   28.80   18.20
  12  -8  -2   98.69   18.80
  13   0  -9   15.30   12.60
  13   0  -9  -13.40   15.00
 -13   0   9   14.30   20.00
 -13   0   8   87.59   21.60
  13   0  -8   47.80   15.50
  13   0  -8   80.89   11.70
  13   0  -7  -23.10   13.10
 -13   0   7   25.30   18.20
  13   0  -7   22.00    9.60
  13   0  -6   12.50   13.90
 -13   0   6   -1.50   16.70
 -13   0   5  -24.00   15.70
  13   0  -5    4.20   14.00
 -13   0   4   17.40   15.90
  13   0  -4   32.10   12.80
  13   0  -4   46.30    8.80
  13   0  -3    1.30    9.90
  13   0  -3   10.80    9.30
 -13   0   3    6.20   14.80
  13   0  -2   68.09   12.40
 -13   0   2   85.09   22.50
 -13   0   2   85.49   17.90
  13   0  -2   69.89   11.50
 -13   0   1   -8.10   14.60
  13   0  -1   -4.80   13.90
  13   0  -1   -3.80    9.30
 -13   0   1  -11.90   18.90
  13   0   0  280.27   23.40
 -13   0   0  239.28   23.70
  13   0   0  286.17   28.80
  13   0   1  -23.10   14.40
 -13   0  -1   15.50   14.20
  13   0   1    0.80    9.80
 -13   0  -2   -4.80   13.90
  13   0   2    4.80   17.60
  13   0   2    8.50   10.10
  13   0   3   10.00   20.40
 -13   0  -3   -7.30   14.70
 -13   0  -4   -8.60   15.60
  13   0   4   -4.60    9.70
  13   0   4    5.40   22.50
 -13   1   9   84.59   23.00
  13   1  -9   79.89   16.80
  13   1  -9   66.29   16.40
  13  -1  -9   48.50   18.70
 -13  -1   9   87.29   22.80
  13   1  -8   31.40   14.70
 -13   1   8  -11.20   18.20
 -13  -1   8   -0.70   18.60
  13  -1  -8    5.10   16.00
 -13   1   7  113.29   21.50
  13   1  -7  100.09   14.20
  13   1  -7  133.49   17.30
 -13  -1   7   84.79   21.30
  13  -1  -7  109.19   17.60
  13   1  -6    3.20   12.60
 -13   1   6   11.80   17.60
  13   1  -6    7.50   11.00
 -13  -1   6   11.50   17.70
  13  -1  -6   13.50   13.30
  13   1  -5   19.00   11.20
  13   1  -5   -3.90   12.30
 -13   1   5   -8.20   16.00
 -13  -1   5  -17.40   15.80
 -13  -1   5   12.50   22.10
  13  -1  -5    0.10   11.20
  13   1  -4    4.50   13.00
  13   1  -4    8.90   12.10
 -13   1   4    3.40   16.00
  13  -1  -4   18.30   10.90
 -13  -1   4   10.50   15.70
 -13  -1   4   -0.40   21.00
  13   1  -3   90.19   14.60
 -13   1   3   68.89   17.30
  13   1  -3   60.59   13.80
 -13  -1   3   83.59   18.50
  13  -1  -3   67.89   12.10
 -13  -1   3   55.89   22.80
  13   1  -2   20.30   16.30
  13   1  -2   20.50    9.90
 -13   1   2  -19.80   14.00
 -13  -1   2   -9.10   20.30
 -13  -1   2    6.00   15.40
  13  -1  -2    6.20   10.20
  13  -1  -2    1.60    9.10
 -13   1   1  372.46   33.30
  13   1  -1  372.66   31.50
  13   1  -1  324.77   26.50
  13  -1  -1  372.76   29.20
 -13  -1   1  424.06   42.80
  13  -1  -1  383.86   28.10
 -13  -1   1  374.26   33.00
  13   1   0   -4.20   14.80
  13   1   0    9.30   13.20
 -13   1   0    6.00   14.10
 -13  -1   0   -6.40   14.60
  13  -1   0   -9.40   13.10
  13  -1   0   20.10   11.30
 -13  -1   0    0.20   19.70
 -13   1  -1   24.50   14.80
  13   1   1   18.80   16.60
  13   1   1   36.70   12.00
 -13  -1  -1   20.50   15.20
 -13  -1  -1   -5.60   19.50
  13  -1   1   16.60   14.90
  13  -1   1   12.20   10.50
  13  -1   1   15.60   15.60
  13   1   2   20.10   18.80
 -13   1  -2   23.10   14.60
  13   1   2   12.90    9.20
  13  -1   2   48.00   18.60
 -13  -1  -2   10.50   16.10
  13  -1   2   26.40   11.00
 -13  -1  -2   -6.40   18.40
  13   1   3    0.00    9.20
  13   1   3  -34.60   19.30
 -13   1  -3   16.10   14.30
 -13  -1  -3   -3.20   16.10
  13  -1   3    9.00   11.10
  13  -1   3  -14.90   19.80
 -13   1  -4  -17.00   14.80
  13   1   4  -19.60   22.00
  13  -1   4   14.10   23.20
  13  -1   4   16.90   11.20
 -13  -1  -4    5.20   17.70
  13   2  -9    8.50   17.10
  13   2  -9    5.50   15.50
 -13   2   9    3.80   20.90
 -13  -2   9  -13.80   20.40
  13  -2  -9    0.60   14.90
  13   2  -8  123.39   17.30
  13   2  -8  101.99   17.60
 -13   2   8  134.99   23.60
 -13  -2   8  103.99   22.50
  13  -2  -8  119.59   17.90
  13   2  -7  -10.00   13.20
  13   2  -7   18.30   12.70
 -13   2   7    3.80   17.70
  13  -2  -7   11.80   12.70
 -13  -2   7   -2.50   17.80
  13   2  -6   31.60   12.70
  13   2  -6   33.50   14.20
 -13   2   6   16.50   18.00
  13  -2  -6   29.00   12.30
 -13  -2   6   34.10   18.00
 -13   2   5    6.00   17.40
  13   2  -5   -6.60   11.90
  13   2  -5   -1.80   12.10
  13  -2  -5  -18.70   19.00
  13  -2  -5   14.00   11.10
 -13  -2   5   10.60   16.70
  13   2  -4   27.10   12.80
 -13   2   4   23.60   17.20
  13   2  -4    7.80   11.60
 -13  -2   4  -27.20   21.30
  13  -2  -4    9.50   10.90
  13  -2  -4   16.10   18.40
 -13  -2   4  -36.10   15.50
 -13   2   3   53.39   16.90
  13   2  -3   46.10   14.80
  13   2  -3   65.79   13.20
 -13  -2   3   34.70   23.10
 -13  -2   3   32.10   16.70
  13  -2  -3   17.70   18.50
  13  -2  -3   47.90   12.30
  13   2  -2  325.67   34.70
  13   2  -2  353.86   29.20
 -13   2   2  413.06   33.60
 -13  -2   2  383.86   34.20
  13  -2  -2  368.66   37.00
  13  -2  -2  383.46   28.30
 -13  -2   2  298.97   33.70
 -13   2   1   -7.50   14.20
  13   2  -1   12.70    9.20
  13   2  -1   -2.80   14.40
 -13  -2   1  -13.80   21.50
  13  -2  -1    8.00   10.80
  13  -2  -1   18.70   11.70
 -13  -2   1   17.60   15.50
  13  -2  -1   13.30   16.70
 -13   2   0   51.39   15.60
  13   2   0   63.69   17.70
  13   2   0   60.49   10.80
  13  -2   0   66.49   13.00
  13  -2   0   74.79   18.50
 -13  -2   0  129.19   24.40
 -13  -2   0   80.59   18.40
  13  -2   0   65.39   14.60
 -13   2  -1   -5.60   12.90
  13   2   1    0.40    9.20
  13   2   1   19.70   18.20
 -13  -2  -1   16.80   16.20
  13  -2   1   18.70   15.30
  13  -2   1   -1.30   11.20
  13  -2   1    3.20   15.20
 -13  -2  -1    2.80   21.70
  13   2   2   -2.10   17.70
 -13   2  -2   18.00   13.90
  13   2   2   -6.00    7.90
 -13  -2  -2    1.90   21.20
  13  -2   2   -3.40   11.40
 -13  -2  -2  -18.00   17.10
  13  -2   2   -9.00   17.10
 -13   2  -3   21.80   13.80
  13   2   3    6.60   21.40
  13  -2   3    0.10   12.30
  13  -2   3  -40.30   19.20
 -13  -2  -3    9.00   18.70
 -13  -2  -3   -5.10   20.80
  13   2   4  -22.90   21.00
 -13   2  -4   31.90   14.90
  13  -2   4    8.30   12.30
  13  -2   4   26.60   23.50
 -13  -2  -4    9.60   20.80
 -13   3   8   10.90   21.00
  13   3  -8   34.90   16.20
  13  -3  -8   -9.30   13.10
 -13  -3   8    4.50   19.40
 -13   3   7   44.00   20.60
  13   3  -7   28.30   14.80
 -13  -3   7   20.00   19.20
  13  -3  -7    0.80   12.60
  13   3  -6   29.10   14.10
 -13   3   6   55.59   20.20
 -13  -3   6   62.89   19.10
  13  -3  -6   37.30   13.40
  13   3  -5   43.00   14.50
 -13   3   5   53.99   18.90
  13  -3  -5   44.00   13.10
 -13  -3   5   53.69   19.90
  13   3  -4    0.60   13.20
 -13   3   4   32.40   17.70
  13   3  -4   -3.60   11.70
  13  -3  -4   24.70   12.40
 -13  -3   4   18.70   17.70
  13  -3  -4    0.70   19.20
  13   3  -3    7.10   13.80
  13   3  -3   30.00   11.60
 -13   3   3   16.80   16.80
  13  -3  -3   11.80   19.60
 -13  -3   3   53.19   25.00
  13  -3  -3   31.10   12.10
 -13  -3   3    5.80   16.50
  13   3  -2   39.90   11.50
  13   3  -2   20.20   16.70
 -13   3   2   -9.00   15.30
 -13  -3   2   42.80   17.10
  13  -3  -2   28.80   19.50
 -13  -3   2  -28.40   22.70
  13  -3  -2    3.80   12.00
  13   3  -1  161.98   23.30
 -13   3   1  152.18   15.60
  13   3  -1  143.29   15.60
 -13   3   1  133.19   19.30
  13  -3  -1  189.88   23.80
 -13  -3   1  189.48   29.10
  13  -3  -1  150.38   16.90
 -13  -3   1  132.19   21.50
 -13   3   0   59.29   15.60
  13   3   0   36.80   11.10
  13   3   0   33.10   18.00
 -13  -3   0   66.19   19.40
  13  -3   0   63.99   19.10
  13  -3   0   47.00   13.10
 -13  -3   0   14.10   24.40
  13   3   1   88.89   21.00
 -13   3  -1   79.89   16.10
  13   3   1   79.19   10.90
  13  -3   1   82.09   18.40
 -13  -3  -1   77.49   21.10
  13  -3   1   67.39   14.40
 -13  -3  -1  103.99   27.90
  13   3   2   -2.40   20.10
  13   3   2   -0.20    7.50
 -13   3  -2    1.60   13.80
  13  -3   2    3.00   12.90
 -13  -3  -2  -73.09   23.80
 -13  -3  -2    9.40   20.00
  13   3   3    8.40   20.70
 -13  -3  -3   42.00   25.90
  13  -3   3   -1.60   13.00
 -13  -3  -3   -2.60   21.60
 -13   4   8   91.99   23.80
  13   4  -8   91.39   19.40
 -13  -4   8   42.10   21.30
  13  -4  -8   54.79   15.80
 -13   4   7   11.00   21.00
  13   4  -7  -19.00   15.60
 -13  -4   7   -9.30   18.10
  13  -4  -7   -0.40   13.60
  13   4  -6   11.10   15.20
 -13   4   6    7.20   19.40
  13  -4  -6    1.90   13.40
 -13  -4   6    6.50   18.30
 -13   4   5    4.90   18.50
  13   4  -5   -8.50   14.40
 -13  -4   5    5.40   19.30
  13  -4  -5    0.40   12.10
 -13   4   4   26.60   18.30
  13   4  -4    8.60   14.60
 -13  -4   4   48.10   17.90
  13  -4  -4   26.30   13.00
  13  -4  -4   32.40   20.90
  13   4  -3  -16.60   14.20
  13   4  -3   -4.10   11.00
 -13   4   3   16.80   17.10
  13  -4  -3   13.40   13.00
 -13  -4   3  -20.60   15.80
  13  -4  -3   -9.60   19.40
  13   4  -2   52.89   18.00
 -13   4   2  105.39   18.70
  13   4  -2   49.40   11.80
 -13  -4   2   86.09   19.80
  13  -4  -2   65.89   14.60
 -13  -4   2   35.40   28.00
  13  -4  -2   52.79   22.40
  13   4  -1   35.80   11.50
 -13   4   1    4.00   15.10
 -13   4   1   13.90   11.30
  13   4  -1   45.30   19.50
 -13  -4   1   34.40   29.90
  13  -4  -1   19.80   21.00
 -13  -4   1   32.20   18.30
  13  -4  -1   35.50   13.30
  13   4   0   78.09   22.20
 -13   4   0  129.89   17.80
 -13  -4   0   -1.20   29.80
 -13  -4   0  121.89   22.70
  13  -4   0  103.69   15.80
  13  -4   0   56.69   21.60
  13   4   1   41.70   20.10
 -13   4  -1   45.70   17.60
  13   4   1   43.50    9.60
 -13   4  -1   31.70   14.70
 -13  -4  -1   74.99   22.90
  13  -4   1   53.59   18.80
 -13  -4  -1   65.59   32.70
  13  -4   1   22.00   13.80
 -13   4  -2  -45.10   20.70
  13   4   2   29.50   21.70
 -13  -4  -2    4.60   23.60
 -13  -4  -2  -25.40   31.90
  13  -4   2    9.20   14.10
  13   4   3    7.30   22.90
 -13  -4  -3  -22.30   24.20
  13  -4   3  -12.90   13.80
 -13  -4  -3   -6.50   33.00
  13   5  -7   84.29   20.20
  13  -5  -7   95.49   17.70
 -13  -5   7   59.79   21.90
  13   5  -6  -15.80   16.60
 -13   5   6   21.10   21.10
 -13  -5   6   21.40   19.50
  13  -5  -6    0.90   14.50
 -13   5   5   27.40   20.40
  13   5  -5  -22.60   15.50
 -13  -5   5  -46.10   16.80
  13  -5  -5    9.50   14.40
 -13   5   4   18.00   19.20
  13   5  -4   20.60   16.10
 -13  -5   4   26.40   18.50
  13  -5  -4   41.20   15.00
  13   5  -3   37.70   16.80
 -13   5   3   59.39   18.60
 -13  -5   3   80.59   19.00
  13  -5  -3   63.69   15.80
  13  -5  -3   43.20   23.70
  13   5  -2   33.30   17.40
 -13   5   2   -3.70   16.30
  13   5  -2    0.30   10.70
  13  -5  -2    6.40   23.30
 -13  -5   2  -24.00   17.10
  13  -5  -2    1.50   14.20
 -13   5   1   95.89   18.70
 -13   5   1  104.39   13.90
  13   5  -1  100.39   12.80
  13   5  -1  115.49   22.00
 -13  -5   1  134.19   22.60
  13  -5  -1   96.09   17.00
  13  -5  -1  101.89   25.60
  13   5   0   12.60   22.30
 -13   5   0   52.89   16.10
 -13   5   0   21.90   18.60
  13   5   0   24.40   11.60
  13  -5   0    6.40   14.80
 -13  -5   0   17.90   21.20
  13  -5   0   19.60   22.40
  13   5   1   -1.60    8.60
  13   5   1   13.00   22.40
 -13   5  -1   17.10   17.80
 -13   5  -1  -10.00   14.40
  13  -5   1   38.40   15.80
  13  -5   1   29.20   19.80
 -13  -5  -1  -15.70   23.20
 -13   5  -2   -9.80   13.60
 -13   5  -2  -34.80   18.90
  13   5   2   44.00   23.00
  13  -5   2  -20.30   15.40
 -13  -5  -2   18.70   25.40
  13   6  -6   46.40   20.40
  13  -6  -6   29.70   17.40
 -13  -6   6  108.69   24.30
  13   6  -5   -7.40   18.10
 -13  -6   5  -13.90   18.30
  13  -6  -5    4.10   16.40
  13   6  -4   13.20   18.40
 -13  -6   4   49.90   19.50
  13  -6  -4   18.80   16.60
  13   6  -3   65.69   20.00
 -13   6   3  123.19   21.60
 -13  -6   3   73.79   21.00
  13  -6  -3   94.09   18.40
  13   6  -2   24.50   18.80
 -13   6   2   47.30   18.40
 -13  -6   2   50.49   20.70
  13  -6  -2   19.40   15.60
  13  -6  -2   29.20   25.00
 -13   6   1   21.90   12.70
  13   6  -1   23.40   10.60
  13   6  -1    8.80   20.50
 -13  -6   1   16.40   21.90
  13  -6  -1   36.40   16.20
  13  -6  -1   20.90   26.50
  13   6   0   50.39   25.20
  13   6   0   54.59   12.30
 -13   6   0   68.59   17.10
 -13  -6   0   43.50   25.50
  13  -6   0   98.19   26.20
  13  -6   0   44.80   17.00
 -13   6  -1  -34.30   17.80
  13   6   1    1.80   24.00
  13  -6   1    7.40   16.60
  13  -6   1   10.40   22.50
 -13  -6  -1   22.50   25.90
  13   7  -4   -2.80   20.00
  13  -7  -4   -7.30   15.90
 -13  -7   4   -4.70   18.10
  13   7  -3   50.99   20.10
  13  -7  -3   19.60   16.90
 -13  -7   3   19.70   20.10
  13   7  -2    6.10   19.50
 -13  -7   2   10.40   21.50
  13  -7  -2    4.00   16.70
  13   7  -1   -7.10   21.10
  13  -7  -1    4.70   17.30
  13  -7  -1  -11.90   27.10
 -13  -7   1   -1.70   23.30
  14   0  -8   21.70   16.90
 -14   0   8   20.20   21.00
 -14   0   7   -2.90   18.70
  14   0  -7  -25.60   15.40
 -14   0   6   22.00   18.70
  14   0  -6  -25.30   14.70
 -14   0   5   -0.70   17.70
  14   0  -5   -1.10   13.70
  14   0  -4  278.67   20.30
 -14   0   4  244.48   25.70
  14   0  -4  225.18   21.10
  14   0  -3    0.30   10.60
 -14   0   3   -1.80   15.70
  14   0  -3  -13.80    9.30
 -14   0   2   41.80   17.20
  14   0  -2   66.59   12.60
  14   0  -2   30.30   11.20
 -14   0   1    0.40   15.50
  14   0  -1  -18.60   12.30
  14   0  -1   -7.90   10.20
  14   0   0   48.70   15.50
 -14   0   0   18.00   15.70
  14   0   0    4.50   11.40
  14   0   1  -15.10   16.50
  14   0   1   25.50   11.20
 -14   0  -1   14.40   15.40
 -14   0  -2   -6.30   14.90
  14   0   2  -10.10   18.70
  14   0   2   12.90   10.60
 -14   0  -3   13.80   16.20
  14   0   3   -9.90   21.60
  14   0   3    8.70   11.20
 -14   1   8   34.50   20.90
  14   1  -8    9.80   13.00
  14   1  -8   28.20   16.10
  14  -1  -8   20.20   16.30
 -14  -1   8   58.19   22.20
  14   1  -7  -10.70   13.90
  14   1  -7   11.00   12.20
 -14   1   7  -16.60   18.90
 -14  -1   7    7.20   19.70
  14  -1  -7   14.40   15.00
  14   1  -6   24.40   14.70
  14   1  -6   19.60   12.20
 -14   1   6    4.40   18.80
 -14  -1   6   30.10   19.30
  14  -1  -6   18.20   13.30
  14   1  -5   24.70   14.70
  14   1  -5   29.10   12.80
 -14   1   5  -20.60   17.40
  14  -1  -5   23.20   12.50
 -14  -1   5    8.70   18.20
 -14   1   4   12.10   18.00
  14   1  -4    3.40   13.40
  14   1  -4  -14.40   13.80
 -14  -1   4  -29.70   21.80
 -14  -1   4   32.00   17.70
  14  -1  -4   10.40   11.10
  14   1  -3  255.77   25.50
 -14   1   3  278.67   25.40
  14   1  -3  209.38   20.20
 -14  -1   3  206.58   29.20
  14  -1  -3  215.08   19.90
 -14  -1   3  262.37   25.90
 -14   1   2   -5.40   15.40
  14   1  -2    1.30   13.20
  14   1  -2  -21.20    9.30
  14  -1  -2    3.00   11.10
 -14  -1   2   -0.50   21.30
 -14  -1   2   16.60   17.10
  14  -1  -2   -3.10    9.90
  14   1  -1   51.59   15.90
 -14   1   1   41.80   16.40
  14   1  -1   37.10   11.10
 -14  -1   1   87.99   18.20
 -14  -1   1   32.20   22.80
  14  -1  -1   48.10   12.50
  14   1   0   14.10   15.70
 -14   1   0    0.60   14.80
  14   1   0   -4.20   10.20
 -14  -1   0   22.80   21.30
 -14  -1   0   -7.30   15.50
  14  -1   0    7.60   14.00
  14  -1   0   -2.00   10.80
  14   1   1    5.10   10.00
 -14   1  -1    2.70   14.80
  14   1   1   -6.20   17.30
  14  -1   1   15.50   16.20
 -14  -1  -1    3.20   20.80
  14  -1   1  -29.10   16.00
 -14  -1  -1   17.00   16.50
  14  -1   1   -2.10   10.80
 -14   1  -2   18.00   15.50
  14   1   2    4.70   19.50
 -14  -1  -2  -12.60   16.40
  14  -1   2  -11.00   11.30
  14  -1   2   13.10   19.00
 -14   1  -3   37.40   16.80
  14   1   3   16.00   11.40
  14   1   3   -0.20   21.60
  14  -1   3   11.00   22.10
 -14  -1  -3   47.30   18.10
  14  -1   3   24.40   12.70
  14   2  -8    4.70   15.30
 -14   2   8   48.30   22.30
  14   2  -8   26.80   15.40
  14  -2  -8   18.20   14.30
 -14  -2   8   40.60   21.80
  14   2  -7  -24.40   13.20
 -14   2   7  -12.50   19.50
  14   2  -7  -22.10   13.90
 -14  -2   7   14.30   19.60
  14  -2  -7    7.30   13.00
  14   2  -6    6.60   13.20
  14   2  -6   12.40   13.20
 -14   2   6   24.40   20.20
  14  -2  -6   -1.80   12.20
 -14  -2   6    8.40   18.20
  14   2  -5  -12.30   12.90
 -14   2   5   -1.60   18.60
  14   2  -5   -8.70   13.10
  14  -2  -5    8.80   12.10
 -14  -2   5  -22.80   17.20
  14   2  -4   32.00   13.80
  14   2  -4   44.40   15.30
 -14   2   4   -0.60   17.80
  14  -2  -4   38.90   12.40
  14  -2  -4   33.00   19.50
 -14  -2   4   62.79   19.20
 -14   2   3   -9.60   16.70
  14   2  -3   13.10   16.80
  14   2  -3    9.10   13.30
  14  -2  -3   -0.40   18.30
 -14  -2   3   -1.10   17.50
  14  -2  -3   -6.10   11.50
 -14  -2   3   29.00   23.70
 -14   2   2  268.87   25.00
  14   2  -2  235.58   23.70
  14   2  -2  225.08   23.30
 -14  -2   2  239.88   24.90
 -14  -2   2  173.18   29.50
  14  -2  -2  220.18   20.10
  14  -2  -2  210.18   26.50
  14   2  -1   18.90   10.20
 -14   2   1   -1.20   15.80
  14   2  -1   55.39   16.90
  14  -2  -1   26.70   18.90
  14  -2  -1   56.19   13.30
 -14  -2   1   32.20   24.00
 -14  -2   1   19.50   17.40
 -14   2   0   -6.50   14.60
  14   2   0    9.50   10.00
  14   2   0  -19.30   16.90
  14  -2   0   -0.30   13.90
  14  -2   0   20.60   12.30
  14  -2   0    5.10   17.50
 -14  -2   0    4.60   17.00
 -14  -2   0   25.50   23.60
  14   2   1   -0.80   18.50
  14   2   1    4.10   11.10
 -14   2  -1   -0.60   14.20
  14  -2   1   -0.50   16.30
 -14  -2  -1   23.50   18.00
  14  -2   1   -5.50   15.70
  14  -2   1   19.20   12.20
 -14  -2  -1  -40.70   22.80
 -14   2  -2  -30.80   13.50
  14   2   2   29.70   21.50
  14   2   2    5.20    9.20
  14  -2   2  -15.50   12.20
 -14  -2  -2   -5.60   24.40
  14  -2   2    2.30   19.10
 -14  -2  -2   18.00   18.50
 -14   2  -3   -7.70   15.20
  14   2   3    4.40   22.80
  14  -2   3    5.30   13.40
 -14  -2  -3   15.80   19.50
 -14  -2  -3   36.50   23.30
  14  -2   3   45.40   22.70
  14   3  -8   -6.50   16.50
 -14   3   8    2.00   21.30
 -14  -3   8   22.50   21.40
  14  -3  -8    9.60   14.10
  14   3  -7  -16.40   13.80
 -14   3   7  -28.70   20.50
  14   3  -7    1.00   15.00
 -14  -3   7  -19.30   19.50
  14  -3  -7   16.70   13.30
  14   3  -6   39.50   15.70
 -14   3   6  -16.30   19.10
  14   3  -6   25.60   14.50
  14  -3  -6    9.40   13.30
 -14  -3   6  -15.20   18.40
  14   3  -5   64.29   15.20
  14   3  -5   49.80   15.00
 -14   3   5   42.00   20.40
 -14  -3   5   79.29   20.80
  14  -3  -5   54.09   13.80
  14   3  -4   27.10   14.70
 -14   3   4  -18.70   17.70
  14   3  -4   -3.20   12.10
 -14  -3   4   -6.60   18.30
  14  -3  -4    7.10   13.20
 -14   3   3  110.49   21.10
  14   3  -3   83.79   18.60
  14   3  -3   95.29   15.00
 -14  -3   3   86.79   20.50
  14  -3  -3   99.39   15.50
  14  -3  -3  112.99   23.70
  14   3  -2    3.60   18.80
  14   3  -2   29.40   13.60
 -14   3   2   13.10   17.40
  14  -3  -2    0.60   12.60
  14  -3  -2   17.80   20.60
 -14  -3   2   40.60   25.30
 -14  -3   2  -31.00   16.30
  14   3  -1   25.30   10.60
 -14   3   1   31.20   12.40
  14   3  -1   14.00   18.20
 -14   3   1   20.40   16.40
  14  -3  -1    1.50   19.30
 -14  -3   1   27.30   18.20
  14  -3  -1   10.20   12.70
 -14  -3   1   52.29   26.10
  14   3   0   27.70   10.20
 -14   3   0    5.00   15.90
  14   3   0   12.60   18.30
  14  -3   0   32.00   12.90
  14  -3   0   16.50   19.50
 -14  -3   0    9.60   18.00
 -14  -3   0  -28.20   25.10
  14   3   1   40.00   20.50
  14   3   1   11.90   10.00
 -14   3  -1   27.80   15.50
 -14  -3  -1   13.00   19.50
  14  -3   1    9.60   17.80
  14  -3   1   21.70   13.30
 -14  -3  -1  -26.30   25.80
 -14   3  -2    0.60   15.00
  14   3   2    3.50   21.80
  14  -3   2   61.09   15.20
 -14  -3  -2    5.40   20.30
 -14  -3  -2   26.00   27.80
 -14   4   7  -47.30   21.10
  14   4  -7   -1.40   16.70
 -14  -4   7   18.90   20.00
  14  -4  -7  -12.00   13.80
 -14   4   6    5.80   20.90
  14   4  -6    5.80   16.10
 -14  -4   6    6.30   20.20
  14  -4  -6   25.40   14.70
 -14   4   5   47.20   21.50
  14   4  -5   25.40   16.00
 -14  -4   5   46.30   21.00
  14  -4  -5   22.10   13.70
 -14   4   4  120.79   22.50
  14   4  -4  101.59   15.20
  14   4  -4   59.49   17.20
 -14  -4   4   87.79   20.60
  14  -4  -4   72.79   15.90
  14   4  -3    7.00   16.50
 -14   4   3  -14.60   17.70
  14   4  -3   13.60   11.70
  14  -4  -3   21.00   14.00
 -14  -4   3   15.90   17.70
  14  -4  -3   12.20   21.80
  14   4  -2   48.30   12.80
  14   4  -2   71.69   20.10
 -14   4   2   32.80   18.00
  14  -4  -2   58.79   15.10
  14  -4  -2   43.20   23.40
 -14  -4   2   28.70   18.00
  14   4  -1   39.30   21.50
  14   4  -1    1.20   11.60
 -14   4   1   16.10   16.70
 -14   4   1    6.50   11.60
  14  -4  -1  -25.00   12.60
 -14  -4   1   -0.70   18.50
  14  -4  -1  -27.80   21.40
 -14   4   0   -9.00   15.80
  14   4   0   12.80    9.60
  14   4   0    5.80   20.00
 -14   4   0   25.90   15.30
  14  -4   0   58.99   14.60
 -14  -4   0   30.20   20.80
 -14  -4   0  -11.80   30.00
  14  -4   0   27.90   21.80
  14   4   1    5.60    9.60
  14   4   1    7.60   21.10
 -14   4  -1    9.80   16.00
 -14   4  -1    2.60   17.10
  14  -4   1  -21.20   13.40
 -14  -4  -1  -37.90   28.60
 -14  -4  -1   18.50   22.00
 -14   4  -2    5.50   15.60
 -14   4  -2    2.00   19.30
  14   4   2  -13.20   22.20
 -14  -4  -2   30.60   31.80
 -14  -4  -2   24.80   23.60
  14  -4   2  -27.80   14.90
  14   5  -6  -22.60   17.40
 -14   5   6    4.60   22.70
  14  -5  -6    4.60   14.90
 -14  -5   6   36.80   21.70
 -14   5   5   -6.10   21.20
  14   5  -5   10.30   16.90
 -14  -5   5  -12.10   19.50
  14  -5  -5    9.40   15.50
  14   5  -4    9.40   16.70
 -14   5   4   44.60   20.90
  14  -5  -4   20.80   15.50
 -14  -5   4   29.10   19.40
 -14   5   3   98.69   21.90
  14   5  -3   50.09   13.40
  14   5  -3   20.50   18.00
  14  -5  -3   43.10   16.20
 -14  -5   3   49.70   20.50
  14   5  -2   -0.90   10.90
 -14   5   2   26.70   18.80
  14   5  -2   19.70   19.30
  14  -5  -2   33.60   25.40
 -14  -5   2   31.00   20.50
  14  -5  -2   20.50   14.80
  14   5  -1   57.99   13.50
 -14   5   1   47.40   18.70
  14   5  -1   67.59   23.40
  14  -5  -1  122.89   26.70
  14  -5  -1   47.60   16.50
 -14  -5   1   20.50   21.70
 -14   5   0   35.80   15.80
 -14   5   0    0.10   17.00
  14   5   0    1.50   10.10
  14   5   0  -31.40   21.70
  14  -5   0    8.80   15.50
 -14  -5   0  -23.60   21.00
  14  -5   0   40.60   24.20
  14   5   1  -11.70   21.30
 -14   5  -1  -23.70   17.60
 -14   5  -1   34.50   17.40
 -14  -5  -1   -3.70   23.00
  14  -5   1    4.30   16.10
  14   6  -5   17.10   19.60
 -14  -6   5  -10.10   19.40
  14  -6  -5  -11.60   15.90
  14   6  -4   30.70   18.50
 -14   6   4   44.40   22.30
  14  -6  -4   54.79   17.40
 -14  -6   4   36.60   21.00
 -14   6   3   -6.60   19.80
  14   6  -3   47.10   19.10
  14  -6  -3   12.40   15.90
 -14  -6   3   -1.50   19.30
  14   6  -2   20.70   20.10
  14   6  -2    8.80   11.70
 -14   6   2   35.00   19.90
  14  -6  -2   27.70   16.30
 -14  -6   2   19.50   20.80
  14   6  -1   18.70   12.00
 -14   6   1   22.40   18.60
  14   6  -1   21.80   22.10
 -14  -6   1   45.60   22.80
  14  -6  -1   69.49   28.80
  14  -6  -1   14.10   16.70
 -15   0   8  -11.40   21.20
  15   0  -8  -46.00   17.00
 -15   0   7    4.00   21.40
  15   0  -7  -26.20   16.50
 -15   0   6   33.40   20.20
  15   0  -6   45.90   17.60
  15   0  -5   18.20   14.30
 -15   0   5   -6.70   18.30
 -15   0   4  168.78   24.70
  15   0  -4  196.18   20.00
  15   0  -4  220.88   18.70
  15   0  -3    2.60   10.70
  15   0  -3  -17.50   10.90
 -15   0   3  -14.70   16.20
 -15   0   2  -15.90   16.50
  15   0  -2   13.50   11.40
  15   0  -1    7.10   11.30
  15   0  -1   10.10   14.40
 -15   0   1  -14.00   16.40
  15   0   0   11.20   16.30
 -15   0   0   28.70   17.90
  15   0   0    8.80   12.20
  15   0   1    8.70   11.20
 -15   0  -1   11.40   17.20
  15   0   1   -7.40   18.50
  15   0   2   56.19   22.50
  15   0   2   47.70   12.70
 -15   0  -2   65.69   19.10
  15   1  -8   20.50   17.80
 -15   1   8   22.20   22.30
  15  -1  -8    6.60   16.30
 -15  -1   8   20.10   22.90
  15   1  -7   24.70   12.70
 -15   1   7    9.40   21.80
  15   1  -7   37.20   18.00
 -15  -1   7   26.90   21.50
  15  -1  -7    5.60   14.90
  15   1  -6   15.80   13.30
  15   1  -6   -9.10   16.80
 -15   1   6   11.40   20.50
 -15  -1   6  -12.80   20.20
  15  -1  -6    7.80   14.10
 -15   1   5   68.89   21.80
  15   1  -5   80.09   18.70
  15   1  -5   88.89   15.70
  15  -1  -5   92.69   15.50
 -15  -1   5   92.09   21.70
  15   1  -4   -2.90   12.50
 -15   1   4  -16.60   18.60
  15   1  -4   -2.40   13.90
  15  -1  -4   12.90   12.50
 -15  -1   4   27.20   18.40
 -15   1   3   59.89   19.30
  15   1  -3   67.99   15.00
  15   1  -3   40.80   12.80
 -15  -1   3   42.00   19.50
 -15  -1   3   18.00   26.10
  15  -1  -3   52.69   13.40
 -15   1   2  -17.00   16.20
  15   1  -2   19.60   15.10
  15   1  -2   21.60   11.20
  15  -1  -2    2.50   11.60
  15  -1  -2   -9.90   10.90
 -15  -1   2  -10.80   22.40
 -15  -1   2    3.90   17.80
 -15   1   1    0.80   16.20
  15   1  -1   -8.30   10.80
  15   1  -1    3.10   15.60
  15  -1  -1   13.80   13.40
 -15  -1   1   -8.70   24.00
 -15  -1   1    4.20   17.90
  15  -1  -1    6.20   12.30
  15   1   0    4.70   11.50
 -15   1   0  -10.20   15.70
  15   1   0   49.80   18.30
  15  -1   0  -18.20   15.10
  15  -1   0   -1.20   11.60
 -15  -1   0    0.00   23.80
 -15  -1   0  -14.40   16.80
  15  -1   0  -26.90   17.90
 -15   1  -1   42.90   17.20
  15   1   1   14.30   11.70
  15   1   1   43.40   20.00
  15  -1   1   39.60   18.40
  15  -1   1   -0.20   17.60
 -15  -1  -1   24.30   17.70
  15  -1   1   -2.60   11.90
  15   1   2    8.70   11.10
 -15   1  -2   42.60   16.80
  15   1   2   41.50   22.00
 -15  -1  -2   -4.10   18.00
  15  -1   2   19.90   13.10
  15  -1   2   26.30   21.00
  15   2  -7    1.00   14.70
 -15   2   7   -6.00   21.90
  15   2  -7   -1.50   15.50
 -15  -2   7  -15.40   21.20
  15  -2  -7   -2.10   13.40
 -15   2   6   95.79   23.80
  15   2  -6   37.40   16.40
  15   2  -6   76.09   16.20
  15  -2  -6   49.80   14.90
 -15  -2   6   44.90   21.80
 -15   2   5   -1.50   20.30
  15   2  -5   19.20   15.80
  15   2  -5    5.90   15.40
 -15  -2   5  -49.00   17.70
  15  -2  -5  -18.20   12.60
  15   2  -4   42.40   16.70
 -15   2   4   67.99   21.00
  15   2  -4   54.49   18.50
  15  -2  -4   42.20   13.60
 -15  -2   4   63.09   20.70
  15   2  -3  -18.20   16.30
  15   2  -3   17.40   13.50
 -15   2   3   -1.80   18.00
  15  -2  -3    2.20   20.00
  15  -2  -3    2.50   12.00
 -15  -2   3  -18.20   18.80
 -15   2   2   40.30   18.50
  15   2  -2    5.00   10.90
  15   2  -2   40.90   17.10
  15  -2  -2   25.40   20.80
 -15  -2   2  -26.70   23.60
  15  -2  -2    6.70   13.10
 -15  -2   2    6.80   18.00
  15   2  -1   -9.10   10.30
 -15   2   1   -8.50   16.20
  15   2  -1   21.60   18.00
  15  -2  -1   16.20   13.00
 -15  -2   1   10.90   25.40
 -15  -2   1    0.50   17.80
  15  -2  -1    2.40   19.50
  15   2   0   20.60   11.40
 -15   2   0    9.60   15.60
  15   2   0  -68.99   17.60
  15  -2   0   -5.70   15.10
  15  -2   0   -3.20   18.90
 -15  -2   0   20.70   26.80
 -15  -2   0  -15.70   18.30
  15  -2   0   16.60   12.70
  15   2   1   27.60   11.20
  15   2   1    5.40   20.30
 -15   2  -1  -23.10   15.50
  15  -2   1   21.60   18.20
 -15  -2  -1  -14.10   26.50
  15  -2   1    1.10   17.30
  15  -2   1   28.80   13.30
 -15  -2  -1   27.20   19.50
  15   3  -7   -4.40   16.50
  15   3  -7   25.50   16.40
 -15   3   7    6.50   22.90
  15  -3  -7   12.60   14.30
 -15  -3   7   -1.70   21.40
  15   3  -6   13.40   15.20
  15   3  -6   -5.60   14.70
 -15   3   6  -21.50   21.20
 -15  -3   6    5.30   20.30
  15  -3  -6   13.30   14.10
 -15   3   5  163.28   25.40
  15   3  -5  124.29   19.00
  15   3  -5  129.19   18.20
  15  -3  -5  120.69   17.90
 -15  -3   5  143.89   24.70
  15   3  -4   19.70   17.30
 -15   3   4  -21.20   19.00
  15   3  -4   -7.20   13.70
 -15  -3   4   16.60   20.20
  15  -3  -4   -5.90   13.20
  15   3  -3   18.70   14.70
 -15   3   3   17.20   19.60
  15   3  -3  -20.90   19.10
  15  -3  -3   11.20   22.10
 -15  -3   3   17.60   19.30
  15  -3  -3   32.80   14.10
 -15   3   2  -24.20   17.60
  15   3  -2   -4.00   12.10
  15   3  -2   -7.60   19.10
  15  -3  -2   27.00   22.20
 -15  -3   2  -29.10   17.70
  15  -3  -2   21.10   13.90
  15   3  -1    2.20   10.20
  15   3  -1  -12.10   18.00
 -15   3   1   -2.60   17.50
 -15   3   1   15.80   13.60
  15  -3  -1   38.40   22.30
  15  -3  -1    1.20   13.10
 -15  -3   1  -18.90   18.70
  15   3   0   -1.30   10.70
  15   3   0  -19.90   19.70
 -15   3   0   30.30   17.30
  15  -3   0    6.80   13.20
 -15  -3   0   -0.90   18.70
 -15  -3   0   -2.30   27.20
  15  -3   0  -21.70   20.20
  15   3   1   52.49   12.90
 -15   3  -1   59.19   18.00
  15   3   1    6.10   22.70
 -15  -3  -1   62.79   21.90
  15  -3   1   25.10   14.60
 -15  -3  -1   41.30   29.30
  15   4  -6   30.50   15.90
 -15   4   6   -2.00   22.40
  15   4  -6   39.80   17.50
 -15  -4   6   21.50   21.50
  15  -4  -6   -2.00   13.80
  15   4  -5    7.30   16.30
  15   4  -5    3.90   14.50
 -15   4   5   -1.50   21.70
  15  -4  -5    5.30   14.10
 -15  -4   5    3.20   20.00
  15   4  -4   58.39   15.20
  15   4  -4   68.29   18.80
 -15   4   4  135.49   23.60
 -15  -4   4  101.19   22.80
  15  -4  -4   66.09   16.80
  15   4  -3   29.80   19.40
  15   4  -3   60.19   14.70
 -15   4   3   36.70   20.20
  15  -4  -3   63.99   16.10
 -15  -4   3   55.49   20.80
  15   4  -2  -10.10   13.80
  15   4  -2  -31.30   21.00
 -15   4   2   -7.00   18.30
 -15  -4   2   17.80   19.80
  15  -4  -2    1.10   14.30
  15  -4  -2    0.30   23.00
  15   4  -1  -29.40   20.40
 -15   4   1  -18.00   17.50
  15   4  -1   18.30   11.50
 -15  -4   1    9.40   19.50
  15  -4  -1   47.60   24.50
  15  -4  -1   12.30   14.00
 -15   4   0   25.40   18.00
 -15   4   0  -18.50   16.30
  15   4   0  -12.00   20.70
  15   4   0    3.20   10.60
  15  -4   0   -0.20   14.80
 -15  -4   0  -45.60   19.80
  15  -4   0   18.40   22.80
  15   5  -5  -29.90   16.70
 -15   5   5   31.70   23.50
  15  -5  -5    8.60   15.90
 -15  -5   5   29.70   22.70
 -15   5   4    1.50   21.50
  15   5  -4   14.70   17.90
  15   5  -4   -6.50   13.30
  15  -5  -4   -6.50   15.50
 -15  -5   4   18.30   20.30
  15   5  -3    6.90   19.50
  15   5  -3   35.60   13.60
 -15   5   3   75.79   22.50
 -15  -5   3   43.60   21.30
  15  -5  -3   36.00   16.50
  15   5  -2   -3.10   12.70
 -15   5   2   15.80   19.90
  15   5  -2   -7.10   21.10
  15  -5  -2    8.70   32.10
  15  -5  -2   10.90   15.00
 -15  -5   2   16.90   19.80
  15   5  -1  -14.90   12.60
  15   5  -1   -7.60   23.70
 -15   5   1   22.00   19.30
 -15  -5   1   39.20   22.30
  15  -5  -1   43.70   27.50
  15  -5  -1   17.50   16.30
 -16   0   7    2.50   22.80
  16   0  -7   48.30   18.40
 -16   0   6   66.29   23.70
  16   0  -6   69.79   17.90
 -16   0   5  -13.20   19.90
  16   0  -5   11.00   14.00
  16   0  -4   20.70   13.30
 -16   0   4   46.00   20.40
  16   0  -3   15.60   11.60
  16   0  -3    2.40   12.30
 -16   0   3   24.20   18.30
  16   0  -2    2.90   14.10
 -16   0   2  -11.80   17.70
  16   0  -2   15.60   12.30
  16   0  -1  -10.40   15.70
 -16   0   1    7.60   17.50
  16   0  -1  -10.00   12.30
  16   0   0   53.29   19.50
  16   0   0   65.29   14.10
 -16   0   0   69.99   19.90
  16   1  -7   47.20   21.00
 -16   1   7   69.59   24.90
 -16  -1   7   81.59   24.70
  16  -1  -7   62.89   16.90
  16   1  -6   39.70   19.40
 -16   1   6   -7.80   22.00
  16  -1  -6   -2.20   14.00
 -16  -1   6   23.40   21.50
 -16   1   5    3.90   21.10
  16   1  -5   54.69   17.20
  16   1  -5   28.00   12.70
  16  -1  -5   27.00   14.30
 -16  -1   5   37.90   21.30
  16   1  -4   12.70   14.30
 -16   1   4  -36.60   19.10
  16   1  -4    4.80   13.30
  16  -1  -4   18.60   13.70
 -16  -1   4   13.80   19.50
 -16   1   3  -25.70   18.20
  16   1  -3  -10.40   11.60
  16   1  -3    6.50   15.10
 -16  -1   3  -28.60   18.70
  16  -1  -3  -16.20   12.40
 -16   1   2  -14.80   17.40
  16   1  -2   18.50   15.40
  16   1  -2   -6.40   11.50
  16  -1  -2   13.60   12.20
  16  -1  -2   19.70   12.80
 -16  -1   2   18.60   19.20
  16   1  -1    1.70   12.00
  16   1  -1   44.10   18.50
 -16   1   1   -2.00   17.10
  16  -1  -1   13.10   15.00
  16  -1  -1    5.20   13.30
 -16  -1   1   36.90   20.60
 -16  -1   1    4.80   25.60
  16  -1  -1   33.00   21.80
  16   1   0   -1.40   19.40
  16   1   0   -4.00   12.70
 -16   1   0   17.00   17.40
  16  -1   0  -23.80   16.80
  16  -1   0    2.90   13.00
 -16  -1   0    2.50   19.10
  16  -1   0  -12.30   19.90
  16   2  -6  129.29   19.40
  16   2  -6   73.89   19.80
 -16   2   6  103.59   25.20
 -16  -2   6   73.39   24.70
  16  -2  -6   75.39   17.40
  16   2  -5   -1.40   19.20
  16   2  -5   -8.10   17.20
 -16   2   5   25.30   22.20
  16  -2  -5   10.70   14.30
 -16  -2   5   16.50   20.70
 -16   2   4   31.60   21.30
  16   2  -4  -19.50   17.60
  16   2  -4  -12.10   15.30
 -16  -2   4   17.50   20.80
  16  -2  -4  -13.50   13.30
 -16   2   3   50.49   20.60
  16   2  -3   -8.70   16.40
  16   2  -3    4.70   12.70
 -16  -2   3  -13.70   19.60
  16  -2  -3    0.60   13.10
 -16   2   2    1.80   18.70
  16   2  -2    5.20   11.60
  16   2  -2  -19.00   17.80
 -16  -2   2   -9.60   20.30
  16  -2  -2   32.80   22.30
  16  -2  -2   -5.70   13.70
  16   2  -1   -2.90   12.00
 -16   2   1   29.70   18.10
  16   2  -1  -31.00   19.40
  16  -2  -1    1.90   21.90
  16  -2  -1  -16.70   12.50
 -16  -2   1  -18.30   18.80
 -16   2   0   41.40   18.10
  16   2   0   47.00   21.30
  16   2   0    8.30   13.00
  16  -2   0   35.70   14.00
  16  -2   0   21.30   22.10
 -16  -2   0   68.49   28.30
 -16  -2   0  -11.90   19.40
  16   3  -6    2.20   16.80
 -16   3   6    7.30   23.70
  16  -3  -6   -6.10   14.70
 -16  -3   6    8.90   21.00
  16   3  -5   55.69   20.20
 -16   3   5    8.00   22.20
  16   3  -5   77.89   18.00
 -16  -3   5   36.50   22.20
  16  -3  -5   66.09   17.00
  16   3  -4  -34.10   15.30
  16   3  -4    2.70   20.30
 -16   3   4   46.50   22.50
  16  -3  -4    1.80   14.30
 -16  -3   4    0.80   21.10
  16   3  -3   16.50   20.70
  16   3  -3  -29.20   13.50
 -16   3   3  -19.70   20.10
 -16  -3   3    7.70   21.10
  16  -3  -3   26.40   15.10
  16   3  -2  -28.40   18.70
  16   3  -2   11.60   12.40
 -16   3   2    8.10   19.70
  16  -3  -2    7.30   22.50
 -16  -3   2  -46.60   19.10
  16  -3  -2   12.80   14.60
 -16   3   1  -30.00   18.00
  16   3  -1    1.40   11.70
  16   3  -1   27.50   21.50
 -16  -3   1  -15.00   20.40
  16  -3  -1   14.90   14.50
  16  -3  -1   45.20   23.20
  16   4  -4    2.60   19.40
 -16   4   4   20.40   22.30
  16   4  -4   25.90   15.20
 -16  -4   4    3.30   21.60
  16  -4  -4    2.70   15.90
  16   4  -3   44.30   16.10
  16   4  -3   43.30   23.30
 -16   4   3   43.00   21.50
 -16  -4   3  -51.09   19.10
  16  -4  -3   44.70   16.30
  16   4  -2   41.50   14.10
 -16   4   2   14.50   20.90
  16   4  -2  -73.99   20.50
  16  -4  -2  -32.00   14.40
 -16  -4   2   -7.40   20.90
  17   0  -5  -21.20   14.10
 -17   0   5  -13.50   20.80
  17   0  -4   33.40   15.00
 -17   0   4    3.40   20.90
  17   0  -3    8.30   13.50
  17   0  -3   38.90   17.80
 -17   0   3   -7.80   20.20
  17   0  -2   49.50   14.00
  17   0  -2   12.10   15.70
 -17   0   2    4.90   19.50
 -17   1   5   -7.80   22.00
  17   1  -5   28.40   16.30
 -17  -1   5   -3.50   20.90
  17  -1  -5    2.10   14.40
 -17   1   4    0.60   21.40
  17   1  -4  -11.90   13.20
 -17  -1   4  -14.30   19.80
  17  -1  -4  -14.90   14.00
  17   1  -3   45.80   16.60
 -17   1   3   42.70   21.10
  17   1  -3   22.20   13.60
 -17  -1   3    9.50   20.80
  17  -1  -3   18.40   14.80
  17   1  -2   20.30   13.30
 -17   1   2    6.60   19.30
  17   1  -2   13.70   18.40
  17  -1  -2   -2.10   14.10
 -17  -1   2  -11.20   20.10
 -17   2   4  -10.90   21.80
  17   2  -4  -10.80   14.30
 -17  -2   4  -15.10   20.50
  17  -2  -4  -15.60   14.00
 -17   2   3   26.10   21.70
  17   2  -3   18.20   13.20
  17  -2  -3   -3.20   14.40
 -17  -2   3   39.20   22.30
   0   0   0    0.00    0.00

_computing_structure_solution     'SHELXT 2014/5 (Sheldrick, 2014)'
;
_shelx_hkl_checksum              75863
_publcif_funding_html
;
;
loop_
_space_group_symop_operation_xyz
'x, y, z'
'-x, y+1/2, -z+1/2'
'-x, -y, -z'
'x, -y-1/2, z-1/2'
loop_
_atom_site_label
_atom_site_type_symbol
_atom_site_fract_x
_atom_site_fract_y
_atom_site_fract_z
_atom_site_U_iso_or_equiv
_atom_site_adp_type
_atom_site_occupancy
_atom_site_site_symmetry_order
_atom_site_calc_flag
_atom_site_refinement_flags_posn
_atom_site_refinement_flags_adp
_atom_site_refinement_flags_occupancy
Pb1 Pb 0.500000 1.000000 0.500000 0.04044(17) Uani 1 2 d S . P
I1 I 0.51014(6) 0.80015(8) 0.80669(8) 0.0560(2) Uani 1 1 d . . .
I2 I 0.25836(6) 0.96301(10) 0.36517(10) 0.0648(3) Uani 1 1 d . . .
N1 N 0.3058(10) 0.5751(17) 0.4743(17) 0.112(3) Uani 1 1 d . . .
H1A H 0.372411 0.555633 0.504353 0.168 Uiso 1 1 calc R U .
H1B H 0.294726 0.667217 0.434818 0.168 Uiso 1 1 calc R U .
H1C H 0.283440 0.567277 0.558808 0.168 Uiso 1 1 calc R U .
C1 C 0.2512(13) 0.468(2) 0.350(2) 0.112(3) Uani 1 1 d . . .
H1D H 0.278857 0.475732 0.261164 0.134 Uiso 1 1 calc R U .
H1E H 0.266733 0.368371 0.394361 0.134 Uiso 1 1 calc R U .
C2 C 0.1418(14) 0.481(2) 0.286(2) 0.112(3) Uani 1 1 d . . .
H2 H 0.134383 0.569950 0.217258 0.134 Uiso 1 1 calc R U .
C3 C 0.0990(13) 0.360(2) 0.162(2) 0.112(3) Uani 1 1 d . . .
H3A H 0.145519 0.341549 0.102786 0.168 Uiso 1 1 calc R U .
H3B H 0.090120 0.270280 0.216332 0.168 Uiso 1 1 calc R U .
H3C H 0.034381 0.391328 0.090217 0.168 Uiso 1 1 calc R U .
C4 C 0.0854(14) 0.516(2) 0.373(2) 0.112(3) Uani 1 1 d . . .
H4A H 0.015225 0.518721 0.307214 0.168 Uiso 1 1 calc R U .
H4B H 0.093699 0.441873 0.455754 0.168 Uiso 1 1 calc R U .
H4C H 0.105235 0.611465 0.421501 0.168 Uiso 1 1 calc R U .
loop_
_atom_site_aniso_label
_atom_site_aniso_U_11
_atom_site_aniso_U_22
_atom_site_aniso_U_33
_atom_site_aniso_U_23
_atom_site_aniso_U_13
_atom_site_aniso_U_12
Pb1 0.0557(3) 0.0330(3) 0.0339(3) 0.0001(2) 0.0158(2) 0.0001(2)
I1 0.0797(5) 0.0449(4) 0.0425(4) 0.0133(3) 0.0177(4) -0.0103(3)
I2 0.0558(5) 0.0703(5) 0.0687(5) 0.0073(4) 0.0199(4) 0.0075(4)
N1 0.092(5) 0.124(6) 0.113(6) -0.029(5) 0.021(5) -0.007(5)
C1 0.092(5) 0.124(6) 0.113(6) -0.029(5) 0.021(5) -0.007(5)
C2 0.092(5) 0.124(6) 0.113(6) -0.029(5) 0.021(5) -0.007(5)
C3 0.092(5) 0.124(6) 0.113(6) -0.029(5) 0.021(5) -0.007(5)
C4 0.092(5) 0.124(6) 0.113(6) -0.029(5) 0.021(5) -0.007(5)
loop_
_atom_type_symbol
_atom_type_description
_atom_type_scat_dispersion_real
_atom_type_scat_dispersion_imag
_atom_type_scat_source
C C 0.0033 0.0016 'International Tables Vol C Tables 4.2.6.8 and 6.1.1.4'
I I -0.4742 1.8119 'International Tables Vol C Tables 4.2.6.8 and 6.1.1.4'
N N 0.0061 0.0033 'International Tables Vol C Tables 4.2.6.8 and 6.1.1.4'
Pb Pb -3.3944 10.1111 'International Tables Vol C Tables 4.2.6.8 and 6.1.1.4'
H H 0.0000 0.0000 'International Tables Vol C Tables 4.2.6.8 and 6.1.1.4'
loop_
_geom_angle_atom_site_label_1
_geom_angle_atom_site_label_2
_geom_angle_atom_site_label_3
_geom_angle
_geom_angle_site_symmetry_1
_geom_angle_site_symmetry_3
I2 Pb1 I2 180.0 3_676 .
I2 Pb1 I1 88.94(2) 3_676 .
I2 Pb1 I1 91.06(2) . .
I2 Pb1 I1 91.06(2) 3_676 3_676
I2 Pb1 I1 88.94(2) . 3_676
I1 Pb1 I1 180.00(3) . 3_676
I2 Pb1 I1 86.02(2) 3_676 2_656
I2 Pb1 I1 93.98(2) . 2_656
I1 Pb1 I1 91.407(18) . 2_656
I1 Pb1 I1 88.592(18) 3_676 2_656
I2 Pb1 I1 93.98(2) 3_676 4_575
I2 Pb1 I1 86.02(2) . 4_575
I1 Pb1 I1 88.593(18) . 4_575
I1 Pb1 I1 91.408(18) 3_676 4_575
I1 Pb1 I1 180.0 2_656 4_575
Pb1 I1 Pb1 156.50(3) . 2_646
C2 C1 N1 117.7(15) . .
C4 C2 C1 122.8(19) . .
C4 C2 C3 114.8(17) . .
C1 C2 C3 110.1(16) . .
loop_
_geom_bond_atom_site_label_1
_geom_bond_atom_site_label_2
_geom_bond_distance
_geom_bond_site_symmetry_2
Pb1 I2 3.1870(11) 3_676
Pb1 I2 3.1870(11) .
Pb1 I1 3.1952(8) .
Pb1 I1 3.1952(8) 3_676
Pb1 I1 3.2058(9) 2_656
Pb1 I1 3.2058(8) 4_575
N1 C1 1.471(19) .
C1 C2 1.44(2) .
C2 C4 1.29(2) .
C2 C3 1.52(2) .
