#------------------------------------------------------------------------------
#$Date: 2020-04-22 22:25:14 +0300 (Wed, 22 Apr 2020) $
#$Revision: 251026 $
#$URL: file:///home/coder/svn-repositories/cod/cif/4/00/35/4003536.cif $
#------------------------------------------------------------------------------
#
# This file is available in the Crystallography Open Database (COD),
# http://www.crystallography.net/
#
# All data on this site have been placed in the public domain by the
# contributors.
#
data_4003536
loop_
_publ_author_name
'M\,aczka, Miros\/law'
'Gagor, Anna'
'Zar\,eba, Jan K.'
'Stefanska, Dagmara'
'Drozd, Marek'
'Balciunas, Sergejus'
'\<Sim\.enas, Mantas'
'Banys, Juras'
'Sieradzki, Adam'
_publ_section_title
;
 Three-Dimensional Perovskite Methylhydrazinium Lead Chloride with Two
 Polar Phases and Unusual Second-Harmonic Generation Bistability above
 Room Temperature
;
_journal_name_full               'Chemistry of Materials'
_journal_paper_doi               10.1021/acs.chemmater.0c00973
_journal_year                    2020
_chemical_formula_sum            'C H7 Cl3 N2 Pb'
_chemical_formula_weight         360.63
_space_group_crystal_system      monoclinic
_space_group_IT_number           4
_space_group_name_Hall           'P 2yb'
_space_group_name_H-M_alt        'P 1 21 1'
_atom_sites_solution_hydrogens   mixed
_audit_creation_method           SHELXL-2018/3
_cell_angle_alpha                90
_cell_angle_beta                 92.332(2)
_cell_angle_gamma                90
_cell_formula_units_Z            4
_cell_length_a                   5.72660(10)
_cell_length_b                   11.3396(2)
_cell_length_c                   11.3926(2)
_cell_measurement_reflns_used    13945
_cell_measurement_temperature    300(1)
_cell_measurement_theta_max      32.2630
_cell_measurement_theta_min      3.4130
_cell_volume                     739.19(2)
_computing_structure_refinement  'SHELXL-2018/3 (Sheldrick, 2018)'
_diffrn_ambient_environment      air
_diffrn_ambient_temperature      300(1)
_diffrn_detector                 'CCD plate'
_diffrn_detector_area_resol_mean 10.6249
_diffrn_detector_type            Atlas
_diffrn_measured_fraction_theta_full 0.988
_diffrn_measured_fraction_theta_max 0.939
_diffrn_measurement_device       'four-circle diffractometer'
_diffrn_measurement_device_type  'Xcalibur, Atlas'
_diffrn_radiation_monochromator  graphite
_diffrn_radiation_probe          x-ray
_diffrn_radiation_type           'Mo K\a'
_diffrn_radiation_wavelength     0.71073
_diffrn_reflns_av_R_equivalents  0.0485
_diffrn_reflns_av_unetI/netI     0.0403
_diffrn_reflns_Laue_measured_fraction_full 0.988
_diffrn_reflns_Laue_measured_fraction_max 0.939
_diffrn_reflns_limit_h_max       7
_diffrn_reflns_limit_h_min       -7
_diffrn_reflns_limit_k_max       15
_diffrn_reflns_limit_k_min       -15
_diffrn_reflns_limit_l_max       14
_diffrn_reflns_limit_l_min       -15
_diffrn_reflns_number            16004
_diffrn_reflns_point_group_measured_fraction_full 0.978
_diffrn_reflns_point_group_measured_fraction_max 0.910
_diffrn_reflns_theta_full        28.000
_diffrn_reflns_theta_max         29.272
_diffrn_reflns_theta_min         2.535
_diffrn_source                   'fine-focus sealed X-ray tube'
_diffrn_source_type              'Enhance (Mo) X-ray Source'
_exptl_absorpt_coefficient_mu    23.804
_exptl_absorpt_correction_T_max  1.00000
_exptl_absorpt_correction_T_min  0.15262
_exptl_absorpt_correction_type   multi-scan
_exptl_absorpt_process_details
;
CrysAlisPro 1.171.38.43 (Rigaku Oxford Diffraction, 2015)
Empirical absorption correction using spherical harmonics,
 implemented in SCALE3 ABSPACK scaling algorithm.
;
_exptl_crystal_density_diffrn    3.240
_exptl_crystal_description       plate
_exptl_crystal_F_000             640
_exptl_crystal_size_max          0.2
_exptl_crystal_size_mid          0.15
_exptl_crystal_size_min          0.08
_refine_diff_density_max         2.143
_refine_diff_density_min         -1.609
_refine_diff_density_rms         0.235
_refine_ls_abs_structure_details
;
 Flack x determined using 1579 quotients [(I+)-(I-)]/[(I+)+(I-)]
 (Parsons, Flack and Wagner, Acta Cryst. B69 (2013) 249-259).
;
_refine_ls_abs_structure_Flack   -0.032(5)
_refine_ls_extinction_coef       0.0117(4)
_refine_ls_extinction_expression Fc^*^=kFc[1+0.001xFc^2^\l^3^/sin(2\q)]^-1/4^
_refine_ls_extinction_method     'SHELXL-2018/3 (Sheldrick 2018)'
_refine_ls_goodness_of_fit_ref   1.071
_refine_ls_hydrogen_treatment    constr
_refine_ls_matrix_type           full
_refine_ls_number_parameters     132
_refine_ls_number_reflns         3671
_refine_ls_number_restraints     1
_refine_ls_restrained_S_all      1.071
_refine_ls_R_factor_all          0.0283
_refine_ls_R_factor_gt           0.0272
_refine_ls_shift/su_max          0.001
_refine_ls_shift/su_mean         0.000
_refine_ls_structure_factor_coef Fsqd
_refine_ls_weighting_details
'w=1/[\s^2^(Fo^2^)+(0.0318P)^2^] where P=(Fo^2^+2Fc^2^)/3'
_refine_ls_weighting_scheme      calc
_refine_ls_wR_factor_gt          0.0606
_refine_ls_wR_factor_ref         0.0615
_reflns_Friedel_coverage         0.850
_reflns_Friedel_fraction_full    0.967
_reflns_Friedel_fraction_max     0.878
_reflns_number_gt                3581
_reflns_number_total             3671
_reflns_threshold_expression     'I > 2\s(I)'
_cod_data_source_file            cm0c00973_si_002.cif
_cod_data_source_block           PhaseII
_cod_original_sg_symbol_H-M      'P 21'
_cod_database_code               4003536
_shelx_shelxl_version_number     2018/3
_shelx_space_group_comment
;
The symmetry employed for this shelxl refinement is uniquely defined
by the following loop, which should always be used as a source of
symmetry information in preference to the above space-group names.
They are only intended as comments.
;
_oxdiff_exptl_absorpt_empirical_full_min 0.441
_oxdiff_exptl_absorpt_empirical_full_max 3.316
_oxdiff_exptl_absorpt_empirical_details
;
Empirical correction (ABSPACK) includes:
- Absorption correction using spherical harmonics
- Frame scaling
;
_shelx_res_file
;

TITL mhy_pbbr3_1503_a.res in P2(1)
    300K.res
    created by SHELXL-2018/3 at 16:45:30 on 13-Dec-2019
REM Old TITL MHy_PbCl3_1503 in P2(1)
REM SHELXT solution in P2(1)
REM R1 0.079, Rweak 0.028, Alpha 0.001, Orientation as input
REM Flack x = 0.025 ( 0.011 ) from Parsons' quotients
REM Formula found by SHELXT: N Br3 Pb
CELL 0.71073 5.7266 11.3396 11.3926 90.0000 92.3320  90
ZERR 4 0.0001 0.0002 0.0002 0 0.002 0
LATT -1
SYMM -X,0.5+Y,-Z
SFAC C H N Cl Pb
UNIT 4 28 8 12 4

L.S. 20
PLAN  20
BOND $H
list 4
fmap 2
ACTA 56
omit 0 0 4
omit -2 0 6
htab
EQIV $7 -x, y-1/2, -z+1
HTAB C1 cl4_$7
HTAB C1 cl4
EQIV $1 x-1, y, z
HTAB C1 cl5_$1
EQIV $8 -x+1, y-1/2, -z+2
HTAB N1 cl1_$8
HTAB N1 cl2
HTAB N1 cl5
HTAB N2 cl6_$1
HTAB N2 cl2_$1
EQIV $9 -x, y-1/2, -z+2
HTAB C2 cl6_$9
EQIV $10 x-1, y, z+1
HTAB C2 cl5_$10
HTAB N3 cl1_$1
HTAB N3 cl3_$10
EQIV $5 x, y, z+1
HTAB N3 cl3_$5
HTAB N4 cl1_$8
HTAB N4 cl2_$1
WGHT    0.031800
EXTI    0.011664
FVAR       0.31769
PB1   5    0.512991    0.493212    0.514643    11.00000    0.01885    0.01795 =
         0.01810    0.00074    0.00104   -0.00041
PB2   5    0.404013    0.465992    1.002831    11.00000    0.02297    0.02268 =
         0.02103   -0.00141    0.00012    0.00110
CL1   4    0.903052    0.539716    1.035553    11.00000    0.02092    0.02615 =
         0.04035   -0.00381    0.00069   -0.00047
CL2   4    0.618366    0.243739    0.981556    11.00000    0.02749    0.02050 =
         0.05356    0.00106    0.00693    0.00258
CL3   4    0.506587    0.473819    0.260456    11.00000    0.04210    0.04907 =
         0.02358   -0.00499   -0.00057   -0.00205
CL4   4    0.013909    0.472440    0.523249    11.00000    0.02379    0.03699 =
         0.06590    0.00654    0.00304    0.00274
CL5   4    0.471388    0.247295    0.527034    11.00000    0.04211    0.01877 =
         0.06978    0.00050    0.00935    0.00017
CL6   4    0.548829    0.509861    0.761622    11.00000    0.05122    0.07098 =
         0.01840    0.00324    0.00313   -0.00368
C1    1   -0.015421    0.196787    0.699950    11.00000    0.05097    0.04738 =
         0.02411   -0.00486   -0.01134   -0.01766
AFIX 137
H1A   2   -0.134357    0.163750    0.747025    11.00000   -1.50000
H1B   2    0.053241    0.135458    0.654610    11.00000   -1.50000
H1C   2   -0.083580    0.255173    0.648043    11.00000   -1.50000
AFIX   0
N1    3    0.168132    0.252551    0.777706    11.00000    0.03184    0.03689 =
         0.03302   -0.00310    0.00536    0.00099
AFIX  23
H1D   2    0.221775    0.199092    0.829258    11.00000   -1.20000
H1E   2    0.286609    0.273886    0.734183    11.00000   -1.20000
AFIX   0
N2    3    0.091290    0.352984    0.840296    11.00000    0.02818    0.03115 =
         0.03341   -0.00968   -0.00299    0.00065
AFIX   7
H2A   2    0.031805    0.403919    0.794494    11.00000   -1.20000
H2B   2   -0.011554    0.330990    0.886027    11.00000   -1.20000
AFIX   0

C2    1   -0.063735    0.232114    1.302344    11.00000    0.06413    0.04036 =
         0.05121    0.00913    0.02411   -0.00743
AFIX 137
H20A  2   -0.160311    0.178640    1.256607    11.00000   -1.50000
H20B  2   -0.154329    0.267684    1.361947    11.00000   -1.50000
H20C  2    0.065078    0.189727    1.338670    11.00000   -1.50000
AFIX   0

N3    3    0.025696    0.324508    1.225425    11.00000    0.04146    0.03862 =
         0.04640   -0.00286    0.00767    0.00201
AFIX  23
H3A   2   -0.095401    0.366236    1.196896    11.00000   -1.20000
H3B   2    0.114910    0.372983    1.269287    11.00000   -1.20000
AFIX   0

N4    3    0.158397    0.285774    1.128550    11.00000    0.03796    0.03774 =
         0.03292   -0.00333    0.00876   -0.00470
AFIX   7
H4A   2    0.270170    0.244631    1.154856    11.00000   -1.20000
H4B   2    0.077625    0.244486    1.081214    11.00000   -1.20000

AFIX   0
HKLF 4 1 -1 0 0 0 -1 0 0 0 -1




REM  mhy_pbbr3_1503_a.res in P2(1)
REM wR2 = 0.0615, GooF = S = 1.071, Restrained GooF = 1.071 for all data
REM R1 = 0.0272 for 3581 Fo > 4sig(Fo) and 0.0283 for all 3671 data
REM 132 parameters refined using 1 restraints

END

WGHT      0.0317      0.0000

REM Instructions for potential hydrogen bonds
HTAB C1 Cl4_$7
HTAB C1 Cl4
HTAB C1 Cl5_$1
HTAB N1 Cl1_$8
HTAB N1 Cl2
HTAB N1 Cl5
HTAB N2 Cl2_$1
HTAB C2 Cl6_$9
HTAB C2 Cl5_$10
HTAB C2 Cl4_$9
HTAB N3 Cl1_$1
HTAB N3 Cl3_$10
HTAB N3 Cl3_$5
HTAB N4 Cl1_$8
HTAB N4 Cl2_$1

REM Highest difference peak  2.143,  deepest hole -1.609,  1-sigma level  0.235
Q1    1   0.5097  0.4160  0.5163  11.00000  0.05    2.14
Q2    1   0.5266  0.5741  0.5140  11.00000  0.05    2.05
Q3    1   0.4056  0.3862  1.0051  11.00000  0.05    1.83
Q4    1   0.3948  0.5439  1.0044  11.00000  0.05    1.80
Q5    1   0.6587  0.4915  0.5048  11.00000  0.05    1.60
Q6    1   0.5626  0.4640  0.9962  11.00000  0.05    1.59
Q7    1   0.3618  0.4920  0.5212  11.00000  0.05    1.58
Q8    1   0.2610  0.4706  1.0120  11.00000  0.05    1.44
Q9    1   0.5275  0.4939  0.4356  11.00000  0.05    1.28
Q10   1   0.4937  0.4876  0.5944  11.00000  0.05    1.24
Q11   1   0.3952  0.4675  1.0778  11.00000  0.05    1.16
Q12   1   0.4145  0.4972  0.6782  11.00000  0.05    1.15
Q13   1   0.4392  0.4693  0.9273  11.00000  0.05    0.98
Q14   1   0.6201  0.4934  0.3441  11.00000  0.05    0.87
Q15   1   0.5506  0.5807  0.4205  11.00000  0.05    0.85
Q16   1   0.5018  0.3275  0.5147  11.00000  0.05    0.83
Q17   1   0.5258  0.4614  0.8370  11.00000  0.05    0.82
Q18   1   0.5626  0.4284  0.4206  11.00000  0.05    0.81
Q19   1   0.5196  0.4826  0.1640  11.00000  0.05    0.78
Q20   1   0.3011  0.4577  0.1680  11.00000  0.05    0.77
;
_shelx_res_checksum              28953
_shelx_hkl_file
;
   0 -15  -4    6.83    1.66   2
   0 -14   0   176.7   28.85   2
   0 -14   0  172.14    39.7   2
   0 -14  -1  777.22   60.09   2
   0 -14   1  709.15   59.65   2
   0 -14  -1  939.35   92.11   2
   0 -14   1  961.65  102.27   2
   0 -14  -2  123.39   23.88   2
   0 -14  -2  149.42   34.87   2
   0 -14   2   98.62   23.44   2
   0 -14   2  150.78   43.36   2
   0 -14   3  716.03   62.77   2
   0 -14  -3  707.53   70.89   2
   0 -14  -4  149.24   29.34   2
   0 -14  -5  495.97   50.23   2
   0 -13   0    7.02    8.44   2
   0 -13   0    9.33     6.3   2
   0 -13  -1      18   14.04   2
   0 -13   1   41.09    21.7   2
   0 -13  -1   14.47    6.49   2
   0 -13   1   14.47    9.79   2
   0 -13  -2   10.95    7.21   2
   0 -13  -2   20.05    8.47   2
   0 -13   2   28.15   19.26   2
   0 -13   2     1.8    2.18   2
   0 -13  -3   48.51   16.37   2
   0 -13   3   40.95   15.68   2
   0 -13   3   54.24   28.89   2
   0 -13  -3   42.23    12.5   2
   0 -13  -4   18.89    4.83   2
   0 -13   4   13.45   12.51   2
   0 -13   4    19.1   10.16   2
   0 -13  -4   29.01    12.2   2
   0 -13   5   97.95   22.59   2
   0 -13  -5   85.79   19.91   2
   0 -13   5  149.94   37.38   2
   0 -13  -5   92.56   18.84   2
   0 -13  -6   53.55   13.98   2
   0 -13  -6   42.51   12.99   2
   0 -13   6   40.23   13.39   2
   0 -13  -7  105.62   20.77   2
   0 -13   7  147.48    29.4   2
   0 -12   0  682.42   75.72   2
   0 -12   0  581.78   46.52   2
   0 -12   1 1066.91   65.21   2
   0 -12   1 1155.11  103.76   2
   0 -12  -1  1123.3   64.79   2
   0 -12  -1 1233.04   98.72   2
   0 -12   2  487.71   67.59   2
   0 -12  -2  480.67   41.45   2
   0 -12  -2  540.87    60.9   2
   0 -12   2  489.96   44.89   2
   0 -12   3 1044.07   68.07   2
   0 -12  -3 1063.84   79.12   2
   0 -12  -3 1023.31   61.25   2
   0 -12   3 1109.59  101.83   2
   0 -12   4  560.01   71.94   2
   0 -12   4  484.25   46.82   2
   0 -12  -4  459.75   48.41   2
   0 -12  -4  487.67   41.74   2
   0 -12  -5  590.08   51.24   2
   0 -12  -5  622.86   47.31   2
   0 -12   5  651.38   56.58   2
   0 -12   6  222.72   33.92   2
   0 -12   6  292.85    48.9   2
   0 -12  -6  233.56   29.71   2
   0 -12  -6  248.72   30.24   2
   0 -12   7  618.61   68.18   2
   0 -12   7  520.93   53.15   2
   0 -12  -7  449.95      41   2
   0 -12  -8  194.08   26.86   2
   0 -12   8  192.49   33.79   2
   0 -12   8  193.98   39.03   2
   0 -12  -9  206.28   28.48   2
   0 -12   9  205.75   34.44   2
   0 -12  10   93.05   25.03   2
   0 -11   0   -2.13    3.75   2
   0 -11   0    4.74    3.41   2
   0 -11   1   24.17    6.05   2
   0 -11   1   22.93     4.9   2
   0 -11  -1   20.24    8.95   2
   0 -11   1    49.1   14.18   2
   0 -11  -1   18.39     4.3   2
   0 -11  -1   25.28   15.51   2
   0 -11   2   10.41    5.31   2
   0 -11   2   13.68    5.11   2
   0 -11  -2    6.25    2.44   2
   0 -11  -2    9.61   11.42   2
   0 -11   2    9.23    4.28   2
   0 -11  -2   -1.57     3.4   2
   0 -11  -3   85.04   16.46   2
   0 -11   3   73.05   13.63   2
   0 -11  -3   79.87   20.77   2
   0 -11   3   73.37   16.72   2
   0 -11   3   76.35    14.2   2
   0 -11   4    8.36    4.85   2
   0 -11  -4   29.32   10.29   2
   0 -11  -4   16.18    4.85   2
   0 -11   4   11.62    1.02   2
   0 -11   4   18.47    8.74   2
   0 -11   5  167.92   24.93   2
   0 -11   5  143.94   25.11   2
   0 -11   5   206.6   39.91   2
   0 -11   5  190.78   27.98   2
   0 -11  -5  165.46   24.86   2
   0 -11  -5  174.41   22.94   2
   0 -11   6   41.97   13.21   2
   0 -11   6   41.26   13.71   2
   0 -11   6    31.6   10.32   2
   0 -11   6   43.45   19.16   2
   0 -11  -6   47.12   13.04   2
   0 -11  -6   35.37     9.6   2
   0 -11  -7  181.77   24.72   2
   0 -11   7   222.5   34.11   2
   0 -11  -7  160.37   21.13   2
   0 -11   7  180.82    29.3   2
   0 -11   7   168.4    35.7   2
   0 -11   7   158.8   27.91   2
   0 -11   8   78.94   21.62   2
   0 -11   8   74.29   20.21   2
   0 -11  -8   62.43   13.44   2
   0 -11   8    69.8    18.4   2
   0 -11   8   82.07   23.08   2
   0 -11   9   268.4   37.51   2
   0 -11   9  313.85    42.5   2
   0 -11   9  235.52   36.16   2
   0 -11  -9  203.26   26.97   2
   0 -11   9  250.69   40.12   2
   0 -11  10   80.99   22.41   2
   0 -11  10   75.18    21.8   2
   0 -11 -10   56.86   14.42   2
   0 -11  10   80.15   20.85   2
   0 -11  10  103.35   24.59   2
   0 -11  11  162.97   30.62   2
   0 -10   0  732.71   46.65   2
   0 -10   0  729.74   17.45   2
   0 -10   0  698.95   27.35   2
   0 -10  -1 1126.01   58.19   2
   0 -10   1  1176.3   60.94   2
   0 -10   1 1184.63   42.44   2
   0 -10  -1 1242.98   34.37   2
   0 -10   2  658.52   45.61   2
   0 -10   2  608.64   33.63   2
   0 -10  -2   598.6   21.64   2
   0 -10   2  721.37   43.04   2
   0 -10  -2  608.77   41.42   2
   0 -10  -2  696.01   62.77   2
   0 -10  -3  983.63   28.81   2
   0 -10   3 1078.75    60.9   2
   0 -10  -3 1050.93   55.02   2
   0 -10  -3 1067.08   72.47   2
   0 -10   3 1049.58   50.36   2
   0 -10   3 1092.19   60.77   2
   0 -10  -4  636.75   51.43   2
   0 -10  -4  571.92   40.65   2
   0 -10   4  654.92   50.55   2
   0 -10  -4  613.52   23.37   2
   0 -10   4  579.92   41.21   2
   0 -10   4  594.27    46.7   2
   0 -10   5  796.18   53.28   2
   0 -10  -5  790.75   53.04   2
   0 -10  -5  875.46      31   2
   0 -10   5  846.39   57.57   2
   0 -10  -5  853.05   49.65   2
   0 -10   5  967.45   65.91   2
   0 -10  -6  440.26   36.28   2
   0 -10   6   426.3   41.97   2
   0 -10  -6  417.56   35.68   2
   0 -10   6  416.47   40.66   2
   0 -10  -6   465.2   23.78   2
   0 -10   7  641.51   53.79   2
   0 -10  -7  597.88   42.67   2
   0 -10   7  681.91   64.57   2
   0 -10  -7  577.27   37.91   2
   0 -10   7  634.93   53.42   2
   0 -10   8  445.14   51.58   2
   0 -10   8  559.39   54.32   2
   0 -10   8  422.13   44.73   2
   0 -10   8  397.17    43.4   2
   0 -10  -8  393.28   35.45   2
   0 -10   9   379.8   46.58   2
   0 -10  -9   308.9   31.83   2
   0 -10   9  277.85   37.52   2
   0 -10   9  316.35   40.39   2
   0 -10   9  371.85   45.87   2
   0 -10 -10  207.22   26.64   2
   0 -10  10  241.16   36.64   2
   0 -10  10  269.58   39.32   2
   0 -10  10  207.38   32.59   2
   0 -10  10  250.41    36.2   2
   0 -10 -11  215.92   28.25   2
   0 -10  11  296.87    41.3   2
   0 -10  11  287.28   38.96   2
   0 -10  11  255.43   36.19   2
   0 -10  11  328.57   44.01   2
   0  -9   0     2.7    0.91   2
   0  -9   0    1.61    2.06   2
   0  -9  -1    24.1    4.25   2
   0  -9   1   17.75    6.89   2
   0  -9   1   35.35    7.06   2
   0  -9  -1   30.87     8.5   2
   0  -9  -2   21.07    3.74   2
   0  -9   2   26.54    8.48   2
   0  -9  -2   24.24    8.07   2
   0  -9   2   28.81    8.09   2
   0  -9  -3   126.3    17.6   2
   0  -9  -3   135.6   24.44   2
   0  -9   3  130.31   19.82   2
   0  -9   3  113.01   15.22   2
   0  -9  -3  107.02     8.5   2
   0  -9  -4   85.88   11.82   2
   0  -9  -4   82.79   14.15   2
   0  -9   4   94.56   15.57   2
   0  -9  -4   76.26   17.44   2
   0  -9  -4   88.62     8.6   2
   0  -9   4   78.75   15.52   2
   0  -9  -5  193.58   21.09   2
   0  -9   5     224   27.33   2
   0  -9  -5  244.35   27.04   2
   0  -9  -5  225.56   14.89   2
   0  -9  -5  227.39   23.57   2
   0  -9   5  195.15   24.63   2
   0  -9  -6    65.3     5.9   2
   0  -9  -6   58.12   11.93   2
   0  -9   6   56.14   14.66   2
   0  -9   6   85.09    20.1   2
   0  -9  -6   63.19   12.84   2
   0  -9  -6   62.28   13.13   2
   0  -9   6   78.12   17.16   2
   0  -9   7   210.5   29.82   2
   0  -9   7  258.86   37.76   2
   0  -9  -7  232.32    13.5   2
   0  -9  -7  224.08   24.53   2
   0  -9   7   309.9   38.23   2
   0  -9   7  249.72   31.65   2
   0  -9  -7  239.11   22.21   2
   0  -9  -8  164.34   21.27   2
   0  -9  -8  165.28   16.67   2
   0  -9   8  229.61   34.15   2
   0  -9   8  168.08   27.16   2
   0  -9   8  174.78   26.54   2
   0  -9   8  182.58   31.36   2
   0  -9   9  214.87   33.28   2
   0  -9   9  209.26   30.14   2
   0  -9   9  265.79   37.05   2
   0  -9  -9  200.51   24.39   2
   0  -9   9  198.99   31.53   2
   0  -9  10  142.25   26.68   2
   0  -9  10  127.57   24.59   2
   0  -9 -10   95.45   17.38   2
   0  -9  10  134.73   25.65   2
   0  -9  10  150.79   28.61   2
   0  -9 -11  148.37   22.18   2
   0  -9  11  184.45   31.52   2
   0  -9  11   201.2   30.62   2
   0  -9  11   182.6   30.14   2
   0  -9  11  252.04   37.88   2
   0  -9  12  208.61   34.34   2
   0  -8   0 2675.26   53.16   2
   0  -8   0 2862.66   84.39   2
   0  -8   1 1139.62   52.07   2
   0  -8  -1 1128.53   50.49   2
   0  -8   1 1117.58   34.72   2
   0  -8  -1 1064.48   27.63   2
   0  -8   2 1795.95   53.68   2
   0  -8   2  1862.1   69.84   2
   0  -8  -2 1826.25      65   2
   0  -8  -2 1840.15   37.86   2
   0  -8   3 1068.11   45.71   2
   0  -8   3 1037.68   52.87   2
   0  -8  -3 1066.49   28.82   2
   0  -8  -3 1096.62   49.28   2
   0  -8  -4 2137.71   36.24   2
   0  -8  -4 2165.98   47.68   2
   0  -8  -4 2054.78   70.76   2
   0  -8   4 2011.77   73.21   2
   0  -8   4 2145.31   80.72   2
   0  -8  -4 2060.87    83.6   2
   0  -8  -5  674.73    42.1   2
   0  -8  -5  666.65   38.65   2
   0  -8   5   703.6   46.51   2
   0  -8  -5  628.22   37.54   2
   0  -8  -5  695.37   19.97   2
   0  -8   5  645.33   44.21   2
   0  -8   6  1153.5   63.24   2
   0  -8  -6 1132.31   58.22   2
   0  -8  -6 1261.98    32.2   2
   0  -8  -6 1149.05   50.85   2
   0  -8   6 1093.54   63.56   2
   0  -8  -6 1164.66    53.3   2
   0  -8  -7   657.1   25.78   2
   0  -8  -7  628.58   39.88   2
   0  -8   7  696.97   50.47   2
   0  -8   7  763.41   58.74   2
   0  -8  -7  650.18   33.78   2
   0  -8   7  556.62   48.01   2
   0  -8   8 1089.31   72.87   2
   0  -8  -8  876.25   35.57   2
   0  -8  -8  879.76   34.48   2
   0  -8   8  731.72   59.16   2
   0  -8  -8  876.12   48.49   2
   0  -8   8  957.41   66.36   2
   0  -8  -9  287.13   21.42   2
   0  -8  -9  250.36   26.84   2
   0  -8   9  291.99   37.41   2
   0  -8   9  373.51   42.88   2
   0  -8   9  254.47   33.96   2
   0  -8  10  550.21   54.02   2
   0  -8  10  502.21   50.52   2
   0  -8 -10  403.34   35.09   2
   0  -8  10  495.36   47.12   2
   0  -8  11  394.31   46.05   2
   0  -8  11  350.54      43   2
   0  -8  11  301.98   36.22   2
   0  -8 -11  276.09   29.64   2
   0  -8  12   478.1   52.39   2
   0  -8  12  433.66   48.79   2
   0  -7   0    0.46     1.4   2
   0  -7   0    1.53    1.36   2
   0  -7   1   96.69    13.5   2
   0  -7  -1   99.95   13.55   2
   0  -7   1   84.32    8.35   2
   0  -7  -1   82.16    6.44   2
   0  -7   2    7.52    4.31   2
   0  -7  -2      11    4.14   2
   0  -7  -2     7.7    1.98   2
   0  -7   2   11.96    4.72   2
   0  -7   3  137.52   15.18   2
   0  -7  -3  154.85      17   2
   0  -7  -3  148.49    9.59   2
   0  -7   3  143.71   17.82   2
   0  -7  -4  191.85    22.8   2
   0  -7   4  172.69   19.62   2
   0  -7  -4  166.94    8.45   2
   0  -7  -4  166.88   17.62   2
   0  -7   4  170.73   19.84   2
   0  -7   5  227.81   24.83   2
   0  -7  -5  218.21   11.44   2
   0  -7  -5  214.18   20.75   2
   0  -7  -5  208.66   20.03   2
   0  -7  -5  213.97   21.32   2
   0  -7  -6  185.59   19.49   2
   0  -7  -6  201.36   18.32   2
   0  -7  -6  180.42    22.3   2
   0  -7  -6  200.54   12.97   2
   0  -7   6  210.87   10.32   2
   0  -7   6  179.86   24.09   2
   0  -7   7  274.79   32.56   2
   0  -7  -7  233.78   17.71   2
   0  -7  -7  244.37   16.94   2
   0  -7   7  265.79   15.51   2
   0  -7  -7  237.29   22.69   2
   0  -7   8  275.65    35.2   2
   0  -7   8  261.34   33.31   2
   0  -7  -8  247.22   15.73   2
   0  -7  -8   176.4   20.47   2
   0  -7   8  201.53   28.88   2
   0  -7  -8  250.57   19.54   2
   0  -7   8  261.29   18.64   2
   0  -7   9  274.94   33.84   2
   0  -7  -9  232.83   24.49   2
   0  -7   9     393   43.42   2
   0  -7   9  361.99   41.02   2
   0  -7  -9  303.63   24.36   2
   0  -7   9  333.28   24.56   2
   0  -7 -10  206.99    29.4   2
   0  -7  10  190.57   27.48   2
   0  -7  10  270.38    36.5   2
   0  -7 -10  179.67   20.36   2
   0  -7  10  234.28    34.3   2
   0  -7 -10  175.36   22.18   2
   0  -7  11  287.91   38.36   2
   0  -7  11  251.13   31.79   2
   0  -7 -11  187.42   23.79   2
   0  -7 -11  173.45   28.43   2
   0  -7 -11  193.51   22.98   2
   0  -7  11  298.41    39.9   2
   0  -7  12  364.72   45.26   2
   0  -7 -12  226.46   34.98   2
   0  -7  12  353.16   45.17   2
   0  -6   0 2726.31   47.63   2
   0  -6   0 2755.56   72.72   2
   0  -6   0 2912.76   73.72   2
   0  -6  -1  767.15   35.28   2
   0  -6  -1  688.09   18.44   2
   0  -6   1  757.47   35.68   2
   0  -6   1  760.96   35.92   2
   0  -6  -1  757.12   34.37   2
   0  -6   1  731.11   24.09   2
   0  -6  -2 1780.75   35.28   2
   0  -6   2  1944.9   61.19   2
   0  -6   2 1865.59   49.21   2
   0  -6   2 1840.38   59.89   2
   0  -6  -2 1815.73   56.23   2
   0  -6  -2 1865.33   56.66   2
   0  -6  -3  753.97   34.94   2
   0  -6   3  764.15   38.77   2
   0  -6  -3  756.08   35.24   2
   0  -6   3  756.86   38.66   2
   0  -6   3  730.07   34.76   2
   0  -6  -3  740.53    17.5   2
   0  -6   4 2274.19   74.66   2
   0  -6  -4 2515.49    43.9   2
   0  -6  -4 2406.04   67.63   2
   0  -6  -4 2397.43   67.79   2
   0  -6  -4 2248.72   74.47   2
   0  -6   4 2417.41   75.77   2
   0  -6  -5   553.2   30.85   2
   0  -6   5  529.56   38.57   2
   0  -6  -5  523.57   30.29   2
   0  -6  -5  526.63   30.17   2
   0  -6  -5  525.22   20.07   2
   0  -6  -5   487.9    32.1   2
   0  -6   5  552.07      36   2
   0  -6   5  536.26   17.05   2
   0  -6   6 1139.26   63.28   2
   0  -6  -6 1214.36   49.38   2
   0  -6  -6 1228.47   59.52   2
   0  -6  -6 1187.28   41.18   2
   0  -6  -6 1239.24    37.5   2
   0  -6   6 1237.77    36.2   2
   0  -6  -7  498.68   22.29   2
   0  -6  -7  495.37   26.54   2
   0  -6  -7  480.65   31.39   2
   0  -6   7  431.53   40.91   2
   0  -6  -7   455.6   39.73   2
   0  -6  -7  493.48   35.15   2
   0  -6   7  511.81   27.48   2
   0  -6   8 1469.25   81.02   2
   0  -6  -8 1504.39   54.02   2
   0  -6  -8 1477.27   34.08   2
   0  -6   8 1448.27   55.47   2
   0  -6  -8 1536.74   69.09   2
   0  -6   9  241.01   29.08   2
   0  -6  -9  317.67   33.32   2
   0  -6   9  378.27   41.96   2
   0  -6  -9  296.57   25.93   2
   0  -6   9  369.43   41.17   2
   0  -6   9   296.6   26.43   2
   0  -6  -9  217.35   23.17   2
   0  -6  10   611.5   47.56   2
   0  -6 -10  478.96   36.32   2
   0  -6  10  652.79   56.66   2
   0  -6 -10  493.19   36.86   2
   0  -6 -10  497.29    44.6   2
   0  -6  10   637.9   56.08   2
   0  -6  10  541.26   39.21   2
   0  -6  11  355.22   43.03   2
   0  -6 -11  225.21   26.17   2
   0  -6  11  348.45   43.15   2
   0  -6  11  321.02   31.63   2
   0  -6 -11  271.79    34.6   2
   0  -6  11  338.12   34.23   2
   0  -6 -11  242.63    27.2   2
   0  -6  12  570.44    55.8   2
   0  -6 -12  476.67   41.09   2
   0  -6 -12  452.73   47.82   2
   0  -6  12  628.63    58.4   2
   0  -6 -12  456.01   39.74   2
   0  -6 -13   88.13   19.11   2
   0  -6  13  135.17   27.97   2
   0  -5   0    2.54    2.26   2
   0  -5   0    1.48    2.34   2
   0  -5   0   -0.04    0.47   2
   0  -5  -1   11.47    3.57   2
   0  -5   1   15.66    3.39   2
   0  -5  -1    9.87    1.84   2
   0  -5   1   18.32    5.32   2
   0  -5   1   15.32    4.52   2
   0  -5  -1   12.04    3.97   2
   0  -5  -2  126.56   12.33   2
   0  -5   2  127.81   13.54   2
   0  -5  -2  118.18   11.92   2
   0  -5   2   127.8    11.4   2
   0  -5  -2  116.91    5.31   2
   0  -5   2  113.54   12.86   2
   0  -5  -3  169.42    7.86   2
   0  -5   3  161.53   15.56   2
   0  -5  -3  175.71    15.4   2
   0  -5   3  165.98   16.29   2
   0  -5  -3  179.76   15.47   2
   0  -5   4  330.55   12.45   2
   0  -5  -4  334.41   21.55   2
   0  -5  -4  328.82   14.22   2
   0  -5   4  356.87   25.28   2
   0  -5  -4  328.95    23.4   2
   0  -5  -4  332.82   22.11   2
   0  -5   4  336.15   26.23   2
   0  -5  -4  348.15   22.06   2
   0  -5  -5  293.15   22.26   2
   0  -5  -5  268.24   15.41   2
   0  -5  -5  258.94    19.9   2
   0  -5   5  266.68   27.05   2
   0  -5   5  280.26    16.5   2
   0  -5  -5  264.29   23.65   2
   0  -5  -5  272.13   20.43   2
   0  -5  -5  234.06   17.52   2
   0  -5   5  281.69   23.56   2
   0  -5  -6   300.7   16.31   2
   0  -5   6  336.62    33.6   2
   0  -5   6  338.91   22.84   2
   0  -5  -6  306.77   29.26   2
   0  -5  -6  306.74   22.92   2
   0  -5  -6  317.57   25.56   2
   0  -5   6  333.54   27.19   2
   0  -5  -6  300.96    22.5   2
   0  -5   7  252.78   31.22   2
   0  -5  -7  271.77    25.6   2
   0  -5   7  289.94   27.02   2
   0  -5  -7  281.21   22.86   2
   0  -5  -7  288.26   13.52   2
   0  -5   7  309.93   25.39   2
   0  -5  -7  290.49   23.04   2
   0  -5  -7  290.91   31.61   2
   0  -5   8  614.51    39.8   2
   0  -5  -8   594.2   36.07   2
   0  -5   8  625.09   42.03   2
   0  -5  -8  581.09   41.68   2
   0  -5   8  673.17   53.79   2
   0  -5   9  310.98   37.89   2
   0  -5  -9  192.25   25.57   2
   0  -5   9  204.04   24.41   2
   0  -5   9   288.9   36.06   2
   0  -5   9  192.28   25.13   2
   0  -5  -9  164.85   20.02   2
   0  -5 -10  240.11   25.78   2
   0  -5  10  371.96   33.82   2
   0  -5  10     387    43.4   2
   0  -5  10  384.06   35.06   2
   0  -5  10  426.47   44.68   2
   0  -5 -10  262.38   31.38   2
   0  -5  11  263.56      37   2
   0  -5 -11  188.33   24.29   2
   0  -5  11  278.68   37.93   2
   0  -5 -11  162.46   26.41   2
   0  -5  11  234.61   26.69   2
   0  -5  11  239.73   28.51   2
   0  -5  12  514.71   52.97   2
   0  -5  12  513.65   43.71   2
   0  -5 -12  417.86   44.54   2
   0  -5 -12  417.58   37.32   2
   0  -5  12  524.91   53.95   2
   0  -5  13  193.97    27.4   2
   0  -5  13  209.77   33.86   2
   0  -5 -13  153.35   27.88   2
   0  -4   0 6675.71  110.77   2
   0  -4   0 6666.09   87.16   2
   0  -4   0 6731.66  110.54   2
   0  -4  -1  246.65    8.81   2
   0  -4   1  291.75   12.69   2
   0  -4  -1  270.37   16.65   2
   0  -4   1  294.14   17.72   2
   0  -4  -1  263.05    16.2   2
   0  -4   1   293.7   17.59   2
   0  -4  -2 4467.97   80.71   2
   0  -4   2 4217.43   77.13   2
   0  -4   2 4428.09   84.22   2
   0  -4  -2 4408.76   79.74   2
   0  -4  -2 4581.41   55.18   2
   0  -4   3  603.69   28.51   2
   0  -4  -3  592.67   25.87   2
   0  -4  -3  597.17   26.28   2
   0  -4  -3  567.16   16.82   2
   0  -4   3  590.25   29.99   2
   0  -4   3  595.45   15.72   2
   0  -4  -4 6107.51  110.33   2
   0  -4   4 5381.57  124.52   2
   0  -4  -4 5923.86  105.53   2
   0  -4   4 5656.13  112.59   2
   0  -4  -4 5723.45  113.03   2
   0  -4  -4  5662.3  103.19   2
   0  -4  -4 5938.71  105.91   2
   0  -4   4 5834.42   97.85   2
   0  -4   5  228.47   18.37   2
   0  -4  -5  236.43   18.08   2
   0  -4   5  206.85   23.22   2
   0  -4  -5  204.32   16.73   2
   0  -4  -5   208.6    21.5   2
   0  -4   5  229.31   19.98   2
   0  -4  -5  210.21   13.15   2
   0  -4  -5  216.41   18.47   2
   0  -4  -6  2428.4   44.63   2
   0  -4   6 2274.59   91.86   2
   0  -4  -6 2304.01   86.58   2
   0  -4  -6 2543.93   68.27   2
   0  -4  -6 2473.55   75.37   2
   0  -4   6 2370.97   71.37   2
   0  -4   6 2482.55   75.36   2
   0  -4  -6 2518.31   68.09   2
   0  -4  -7  345.04   24.52   2
   0  -4  -7  382.53   35.52   2
   0  -4  -7  359.41   25.52   2
   0  -4  -7  337.66   29.11   2
   0  -4   7  356.68   28.29   2
   0  -4   7  378.13   37.69   2
   0  -4   8  2281.6   78.28   2
   0  -4  -8 2198.64   71.89   2
   0  -4  -8 2292.66   73.75   2
   0  -4  -8 2217.48   84.77   2
   0  -4  -9   102.6   15.74   2
   0  -4   9  200.32   30.42   2
   0  -4   9  140.71   21.25   2
   0  -4   9  131.82   18.81   2
   0  -4   9   174.9   21.52   2
   0  -4  -9  124.49   20.59   2
   0  -4   9  175.77   28.39   2
   0  -4   9  153.04   19.67   2
   0  -4  10  751.87   51.13   2
   0  -4 -10  719.56    53.5   2
   0  -4  10 1016.13   70.73   2
   0  -4  10 1060.01   70.32   2
   0  -4  10  828.24    48.3   2
   0  -4 -10   792.8   48.08   2
   0  -4 -11  223.51   31.15   2
   0  -4  11  335.43   41.61   2
   0  -4  11  289.66   27.44   2
   0  -4  11  286.61   32.44   2
   0  -4 -11  237.57   26.87   2
   0  -4  11  300.24   38.38   2
   0  -4  12  732.49   62.28   2
   0  -4 -12  551.72    41.4   2
   0  -4  12  701.86   52.64   2
   0  -4 -12   615.1   54.14   2
   0  -4  12  732.76   62.91   2
   0  -4  13  127.27   26.66   2
   0  -4  13  135.79   23.59   2
   0  -4 -13     105   23.21   2
   0  -4  14  188.87   27.91   2
   0  -3   0    12.6    2.95   2
   0  -3   0    1.36    0.56   2
   0  -3   0     8.8    2.82   2
   0  -3   1   86.92    8.37   2
   0  -3  -1   80.11    7.78   2
   0  -3  -1   82.41    7.85   2
   0  -3   1   78.67    6.09   2
   0  -3  -2  177.57    7.06   2
   0  -3   2  179.53   12.92   2
   0  -3   2   162.2   12.04   2
   0  -3  -2   170.7   11.76   2
   0  -3  -2  182.81   11.99   2
   0  -3   3   61.62    9.84   2
   0  -3  -3   69.53    7.74   2
   0  -3  -3   76.12    9.11   2
   0  -3  -3   68.69     7.7   2
   0  -3   3   57.23    7.61   2
   0  -3  -3   67.45    8.15   2
   0  -3   4  578.52   27.65   2
   0  -3  -4  609.72   20.86   2
   0  -3  -4  616.03   26.01   2
   0  -3  -4  606.43   26.24   2
   0  -3   4  592.71   26.56   2
   0  -3  -4  589.62   27.93   2
   0  -3  -4  617.66   33.13   2
   0  -3   4   615.6   36.92   2
   0  -3  -5  339.25   20.76   2
   0  -3  -5  337.86   28.68   2
   0  -3  -5     335   23.73   2
   0  -3  -5  312.44   11.57   2
   0  -3   5  377.46      33   2
   0  -3   5  355.62   23.04   2
   0  -3  -5   340.7    20.9   2
   0  -3   5  324.89   22.43   2
   0  -3  -6  487.37   38.74   2
   0  -3  -6   470.7   26.67   2
   0  -3   6  470.05   31.17   2
   0  -3  -6  499.32   32.27   2
   0  -3   6  459.82   39.89   2
   0  -3  -6  495.33   27.62   2
   0  -3  -7  161.84   20.42   2
   0  -3  -7  215.55    28.3   2
   0  -3  -7  172.23   17.45   2
   0  -3   7  198.68   19.52   2
   0  -3  -7  179.86   17.96   2
   0  -3   7  208.86   27.97   2
   0  -3   8 1094.05   68.82   2
   0  -3  -8  953.07   46.41   2
   0  -3   8 1144.15   52.19   2
   0  -3   8  999.29   48.04   2
   0  -3  -8  891.64   53.23   2
   0  -3  -9  266.69   26.05   2
   0  -3   9  304.08   36.74   2
   0  -3  -9  249.95   29.18   2
   0  -3   9  351.41   38.89   2
   0  -3   9  262.25   25.72   2
   0  -3   9   294.7   25.95   2
   0  -3  10  454.51   31.52   2
   0  -3 -10  335.46   35.87   2
   0  -3  10  475.35   48.12   2
   0  -3 -10  346.49   30.58   2
   0  -3  10  420.57   43.43   2
   0  -3  10   333.7   30.25   2
   0  -3  11  330.74   40.06   2
   0  -3 -11  276.07   33.98   2
   0  -3  11  226.61   29.49   2
   0  -3  11  301.23   24.27   2
   0  -3  11  347.37   41.68   2
   0  -3 -11  274.65   27.33   2
   0  -3 -12  669.86   55.47   2
   0  -3  12  680.83   42.99   2
   0  -3  12   760.6   55.92   2
   0  -3  12  813.51   65.79   2
   0  -3 -12  696.32    44.7   2
   0  -3  13  209.16   34.03   2
   0  -3 -13  184.85      30   2
   0  -3  13  213.95   30.78   2
   0  -3 -14  222.73   33.85   2
   0  -3  14  240.92   32.95   2
   0  -3  15  127.53   24.14   2
   0  -2   0 3680.06   59.87   2
   0  -2   0  3715.3   60.05   2
   0  -2   0 3826.55    48.3   2
   0  -2   1  176.52    9.89   2
   0  -2  -1  174.76    9.53   2
   0  -2   1  188.19    8.96   2
   0  -2  -1  179.28    9.69   2
   0  -2  -2 4203.52   68.15   2
   0  -2   2 3789.39   67.23   2
   0  -2  -2 4100.55   66.77   2
   0  -2   2 4091.65   65.83   2
   0  -2  -2 4146.19   66.69   2
   0  -2   2 3648.07   74.65   2
   0  -2  -3    8.05    3.68   2
   0  -2  -3    8.04     2.8   2
   0  -2   3    9.61    4.34   2
   0  -2  -3    4.69    2.14   2
   0  -2  -3   11.61    2.57   2
   0  -2  -3     3.8    0.34   2
   0  -2   3    4.13    2.21   2
   0  -2  -4 5581.79   104.3   2
   0  -2   4 4797.51  120.46   2
   0  -2  -4 5251.24  119.64   2
   0  -2  -4  5196.2   91.58   2
   0  -2   4 4805.97   97.36   2
   0  -2  -4 5418.19   93.08   2
   0  -2  -5  136.99   19.71   2
   0  -2   5  110.16   14.08   2
   0  -2  -5  110.38   13.59   2
   0  -2   5  113.51   18.88   2
   0  -2  -5  113.95   11.97   2
   0  -2  -5   115.2   11.92   2
   0  -2   6 2209.76   64.51   2
   0  -2   6 2421.87   93.93   2
   0  -2  -6 2249.44   64.62   2
   0  -2  -6 2246.11   76.51   2
   0  -2   6 2158.12    75.3   2
   0  -2   7  104.71   17.41   2
   0  -2  -7   97.73   14.26   2
   0  -2   7  124.11   22.09   2
   0  -2   7   86.14   12.42   2
   0  -2  -7   68.69   13.81   2
   0  -2  -7   106.4    19.5   2
   0  -2   8 3073.39  116.62   2
   0  -2  -8 2518.81    95.4   2
   0  -2   8 2977.74  112.71   2
   0  -2   8 3123.64   80.16   2
   0  -2  -8 2636.78   83.54   2
   0  -2   8 2417.11    78.4   2
   0  -2   9   90.39   19.47   2
   0  -2  -9   46.59   11.45   2
   0  -2   9   62.35   11.31   2
   0  -2   9   63.95    9.85   2
   0  -2  -9      53   11.14   2
   0  -2   9   74.44   17.38   2
   0  -2  10  875.81   45.43   2
   0  -2 -10  765.25   55.46   2
   0  -2  10  945.63   38.86   2
   0  -2  10  814.14   44.22   2
   0  -2  10  953.67   67.16   2
   0  -2  10  907.99    64.2   2
   0  -2 -11   95.28   20.03   2
   0  -2  11     140    26.3   2
   0  -2  11   92.76   15.17   2
   0  -2  12  927.38   48.71   2
   0  -2  12  977.51   71.41   2
   0  -2 -12  908.11   63.91   2
   0  -2 -13   41.82   13.58   2
   0  -2  13    57.7   17.57   2
   0  -2  13   71.64   17.83   2
   0  -2 -14  175.16   28.76   2
   0  -2  14  166.76   30.78   2
   0  -2  14  218.85   31.91   2
   0  -2  15   86.87   20.61   2
   0  -1   1    9.82    2.18   2
   0  -1  -2   159.1    9.02   2
   0  -1  -2  172.91    9.23   2
   0  -1   2  163.37   10.27   2
   0  -1  -2  172.43   13.18   2
   0  -1  -2  176.27   10.93   2
   0  -1   2  175.15    14.3   2
   0  -1  -3  151.67   16.34   2
   0  -1   3  122.99   12.16   2
   0  -1  -3  137.91   10.35   2
   0  -1   3  118.85   15.14   2
   0  -1  -3  115.89    9.58   2
   0  -1  -3  125.13   11.54   2
   0  -1  -4  959.62   41.57   2
   0  -1  -4  959.62   35.19   2
   0  -1   4  928.39    49.4   2
   0  -1  -4     978   50.76   2
   0  -1   4  949.72   41.49   2
   0  -1   4  920.71   34.11   2
   0  -1  -5  164.04   22.46   2
   0  -1  -5  113.65   15.97   2
   0  -1   5  133.05   14.34   2
   0  -1  -5  136.95   15.03   2
   0  -1   5  153.09   21.45   2
   0  -1   5  137.38   17.55   2
   0  -1   6  624.18   34.06   2
   0  -1   6  783.05   52.17   2
   0  -1   6   659.1    43.1   2
   0  -1  -6   667.1   42.98   2
   0  -1  -6   699.5   37.59   2
   0  -1  -7  291.94   25.18   2
   0  -1   7  309.68   31.44   2
   0  -1   7  330.42   20.41   2
   0  -1   7  271.82    23.1   2
   0  -1  -7  366.06   37.58   2
   0  -1  -7  266.06   28.49   2
   0  -1   7  348.88   35.49   2
   0  -1   8 1321.27   72.48   2
   0  -1   8 1171.55   50.54   2
   0  -1  -8 1256.66   66.22   2
   0  -1   8 1377.39   75.14   2
   0  -1   8 1133.79   49.21   2
   0  -1  -8 1264.79   55.25   2
   0  -1   8 1348.42   41.85   2
   0  -1   9   255.4   32.25   2
   0  -1   9  262.19   16.49   2
   0  -1   9  234.77   22.31   2
   0  -1   9  223.13    21.6   2
   0  -1   9  257.56   32.95   2
   0  -1  -9  266.23   31.41   2
   0  -1  10  557.21      36   2
   0  -1  10  666.16   55.07   2
   0  -1  10  629.63   23.84   2
   0  -1  10  573.19   35.99   2
   0  -1 -10  605.08   48.79   2
   0  -1 -11  213.69   29.56   2
   0  -1  11  230.75   33.72   2
   0  -1  11  209.46    21.9   2
   0  -1  12  873.02   46.72   2
   0  -1  12  930.75   69.07   2
   0  -1 -12  808.74   59.99   2
   0  -1  13  238.62   33.09   2
   0  -1 -13  186.92   29.67   2
   0  -1  13  204.68   33.35   2
   0  -1  14  262.68   35.81   2
   0  -1 -14  267.78   35.95   2
   0  -1  14  257.82   37.87   2
   0  -1  15    98.3   21.02   2
   0   0  -2 5147.57   80.47   2
   0   0   2 4672.45   67.72   2
   0   0  -2 5189.33   89.47   2
   0   0   2 4325.39   79.22   2
   0   0   2 4273.98   73.63   2
   0   0  -3   13.39    3.72   2
   0   0   3   17.12     5.4   2
   0   0   3   16.58    5.42   2
   0   0  -3   22.02     5.7   2
   0   0  -3   12.04       3   2
   0   0   3   22.03     5.4   2
   0   0  -4    9999  200.96   2
   0   0  -4 9791.73  183.97   2
   0   0   4 9549.91  162.61   2
   0   0   4  9750.6  163.95   2
   0   0   4 9309.18  188.25   2
   0   0   4 9568.36  183.18   2
   0   0  -5    1.76    4.52   2
   0   0  -5    3.55    5.78   2
   0   0   5   12.97    7.01   2
   0   0   5    2.43    2.22   2
   0   0   5    3.82    1.89   2
   0   0  -5     6.3    3.65   2
   0   0   5    9.78    3.76   2
   0   0   5    4.69    4.45   2
   0   0   6 4178.68   52.38   2
   0   0   6 4136.79   88.26   2
   0   0  -6 4646.63  116.06   2
   0   0   6 4286.23  119.46   2
   0   0   6 4543.78  117.09   2
   0   0   6 4323.29   90.36   2
   0   0   7   37.12    8.88   2
   0   0   7   45.84   12.69   2
   0   0   7   38.02    11.8   2
   0   0   7   44.54    9.42   2
   0   0  -7   61.37    15.9   2
   0   0  -7   34.92    9.74   2
   0   0   7   43.65    4.99   2
   0   0   7   37.83   10.94   2
   0   0   8 4169.59  131.31   2
   0   0  -8 4065.05  123.34   2
   0   0   8 3984.57   97.67   2
   0   0   8 3929.62   96.06   2
   0   0   8 4063.64   128.5   2
   0   0   9   82.07    8.22   2
   0   0   9    74.9    8.07   2
   0   0   9  104.06   20.76   2
   0   0  -9   86.13   18.03   2
   0   0   9   70.06   12.59   2
   0   0   9   75.73   12.74   2
   0   0 -10 1078.08   66.32   2
   0   0  10  1143.2   72.38   2
   0   0  10 1096.16   28.57   2
   0   0  10 1099.53   51.08   2
   0   0  10 1170.87   52.72   2
   0   0  11   50.11   11.03   2
   0   0  11   40.85   14.58   2
   0   0 -11    33.4   12.37   2
   0   0  12  903.74   47.74   2
   0   0 -12  875.71   62.53   2
   0   0  12   890.6   66.86   2
   0   0 -13  111.15    22.3   2
   0   0  13  118.02   24.98   2
   0   0 -14  209.06   32.62   2
   0   0  14  231.86   34.93   2
   0   0  14  230.73   33.96   2
   0   1   1   15.47    2.32   2
   0   1  -1    11.7    1.83   2
   0   1   1   16.74    2.28   2
   0   1   2  160.19   10.61   2
   0   1   2  174.42      10   2
   0   1  -2  154.25   13.42   2
   0   1  -2   165.3   10.36   2
   0   1   2  180.75    9.99   2
   0   1   2  173.09   13.29   2
   0   1  -3  159.06      14   2
   0   1   3  181.74   14.44   2
   0   1  -3  174.66   18.33   2
   0   1   3  185.05   12.79   2
   0   1   3  155.89   15.73   2
   0   1   3  186.43   13.12   2
   0   1   4 1007.06   37.31   2
   0   1   4 1025.26   44.05   2
   0   1   4   872.1   45.58   2
   0   1   4  980.07   36.87   2
   0   1   4  946.75   46.89   2
   0   1  -4 1014.59   44.29   2
   0   1  -4   992.8   52.08   2
   0   1  -5   238.6   28.04   2
   0   1   5  217.95   24.26   2
   0   1   5  224.12   24.37   2
   0   1   5  174.58   16.89   2
   0   1   5  212.26   22.11   2
   0   1  -5  203.27   22.14   2
   0   1   5  203.99   17.93   2
   0   1   6   693.3   36.89   2
   0   1   6  732.65   48.35   2
   0   1   6  672.12   44.23   2
   0   1  -6  700.39   45.52   2
   0   1  -6  851.11   57.08   2
   0   1   6  719.51   47.24   2
   0   1   6  638.66   35.55   2
   0   1   7   491.4   41.35   2
   0   1   7  446.87    30.9   2
   0   1   7   436.2   37.94   2
   0   1  -7  440.34   37.94   2
   0   1   7  430.51   30.47   2
   0   1  -8 1310.66   68.53   2
   0   1   8 1265.83   54.98   2
   0   1   8 1379.13    72.7   2
   0   1  -8 1282.14   39.43   2
   0   1   8 1246.34    54.7   2
   0   1  -9  303.28   17.39   2
   0   1   9  345.84   36.92   2
   0   1   9   339.9    28.2   2
   0   1   9  323.86   27.58   2
   0   1  -9  301.34    33.3   2
   0   1 -10  600.78   22.53   2
   0   1  10  620.67   38.81   2
   0   1  10  616.94   38.89   2
   0   1  10  630.39   29.31   2
   0   1 -10  576.41   48.07   2
   0   1  10  618.22   52.21   2
   0   1  11  257.06   17.42   2
   0   1  11  255.03   33.95   2
   0   1  11  266.42   25.42   2
   0   1 -11  251.11   32.16   2
   0   1  12  875.89   65.09   2
   0   1 -12  803.32   60.06   2
   0   1  12  884.15   47.75   2
   0   1 -13  203.25   31.34   2
   0   1  13  245.11   34.64   2
   0   1 -14  221.42   32.88   2
   0   1  14  245.73   35.62   2
   0   1  14  272.56   36.93   2
   0   2   0 4543.28   46.81   2
   0   2   0 4526.14   46.88   2
   0   2   1  200.87    9.34   2
   0   2   1  206.77   10.49   2
   0   2  -1  210.13   10.59   2
   0   2  -1  206.28    8.83   2
   0   2   1  210.04   10.81   2
   0   2   2 3796.07   66.54   2
   0   2   2 3748.98   66.25   2
   0   2   2  3854.4   65.16   2
   0   2  -2 3771.38   69.99   2
   0   2   2 3845.82   62.41   2
   0   2  -3   27.11    4.84   2
   0   2   3    31.4    5.24   2
   0   2  -3   20.35    4.95   2
   0   2   3   37.32     7.2   2
   0   2  -3   27.69    2.74   2
   0   2   3   37.01    5.63   2
   0   2   3    31.9    5.31   2
   0   2  -4 5171.23   99.59   2
   0   2   4 5141.34    96.1   2
   0   2   4 5062.64   95.68   2
   0   2   4 4920.73   99.59   2
   0   2  -4 5078.81  119.37   2
   0   2   5  123.05   15.06   2
   0   2  -5  133.24   19.42   2
   0   2   5  148.16   15.04   2
   0   2   5  141.63    14.7   2
   0   2  -5  129.52   15.66   2
   0   2   5  127.85    17.7   2
   0   2   6 2369.87   71.23   2
   0   2   6 2293.03   80.34   2
   0   2   6 2246.98   69.71   2
   0   2  -6  2470.7   82.38   2
   0   2  -6 2649.41   99.94   2
   0   2   6 2467.79   87.97   2
   0   2  -7  144.54   20.89   2
   0   2   7  114.61   15.61   2
   0   2   7  153.85    22.1   2
   0   2   7  119.54   15.97   2
   0   2   8 2818.72   87.08   2
   0   2   8 2886.83   88.04   2
   0   2  -8  2807.7  104.29   2
   0   2   9   85.32   14.01   2
   0   2   9  102.16   20.09   2
   0   2   9   79.64   13.71   2
   0   2  -9   83.45   17.92   2
   0   2 -10  900.16   61.03   2
   0   2  10  963.69   50.44   2
   0   2 -10  937.14   37.51   2
   0   2  10  912.46   49.12   2
   0   2 -11  131.31   24.08   2
   0   2  11  121.72   14.68   2
   0   2  11  153.35   25.61   2
   0   2  11  108.61   16.53   2
   0   2  12 1091.79    54.7   2
   0   2  12 1042.57   69.93   2
   0   2 -12 1016.09   67.76   2
   0   2 -13  105.47   22.73   2
   0   2  13   88.97   21.34   2
   0   2 -14  242.29    35.7   2
   0   2  14  228.75   34.91   2
   0   2  14  245.62   34.76   2
   0   3   0    2.74    0.83   2
   0   3   0    5.74    2.09   2
   0   3   1   66.31    3.15   2
   0   3  -1   75.26    5.35   2
   0   3   1   76.92    7.82   2
   0   3  -1   68.89    7.15   2
   0   3   1   74.57    7.67   2
   0   3  -2  146.65   10.21   2
   0   3   2  151.33    6.72   2
   0   3   2  136.72   11.02   2
   0   3   2  147.99   10.21   2
   0   3  -2  135.82    9.12   2
   0   3  -2  141.61   10.61   2
   0   3   2  148.39   11.66   2
   0   3  -3  106.67   11.09   2
   0   3   3  129.44   10.96   2
   0   3   3  107.53   10.49   2
   0   3   3  111.21    10.9   2
   0   3   3  105.19    8.86   2
   0   3  -3  105.93    9.61   2
   0   3  -4  575.92    26.8   2
   0   3   4  572.64    28.1   2
   0   3   4  551.32   27.19   2
   0   3   4  600.94   28.75   2
   0   3   4  581.78   28.25   2
   0   3  -4   543.4   16.29   2
   0   3  -4  533.56   31.52   2
   0   3   5  303.26   24.41   2
   0   3   5  291.28   21.78   2
   0   3   5  301.25   22.25   2
   0   3  -5  280.42    21.3   2
   0   3   5  284.19   22.24   2
   0   3  -5  260.73   26.02   2
   0   3   6  529.33   32.52   2
   0   3   6  484.96   33.25   2
   0   3  -6  531.95   41.22   2
   0   3   6  483.78   34.84   2
   0   3  -6  493.73   32.79   2
   0   3   6  539.01   32.83   2
   0   3   7  187.13   22.92   2
   0   3   7  210.12   21.65   2
   0   3  -7  188.92    22.2   2
   0   3   7  191.75   21.24   2
   0   3   8  868.72    47.5   2
   0   3   8 1029.61   59.29   2
   0   3  -8  941.78   56.46   2
   0   3   8  921.64   48.72   2
   0   3   9  263.12   26.36   2
   0   3  -9  201.03   26.81   2
   0   3   9  249.05   30.06   2
   0   3   9  244.97   25.34   2
   0   3 -10  376.25    39.4   2
   0   3  10  412.37   33.73   2
   0   3  10  404.28   33.84   2
   0   3  10   342.6   36.21   2
   0   3 -11  305.98   36.38   2
   0   3  11  216.18   30.02   2
   0   3  11  315.31   29.93   2
   0   3  12  721.27   45.63   2
   0   3  12  749.51    57.3   2
   0   3 -12  697.86   57.38   2
   0   3  13  133.84   23.95   2
   0   3 -13  176.36   28.99   2
   0   3  14  268.04   39.86   2
   0   3 -14  245.94   35.36   2
   0   3  14  228.13   32.86   2
   0   4   0 7263.37   90.71   2
   0   4   0 6919.82   90.97   2
   0   4   0 7123.83  115.42   2
   0   4   1   451.1   21.87   2
   0   4   1  389.85    9.33   2
   0   4  -1  411.25   20.47   2
   0   4   1  423.89   21.33   2
   0   4  -1  402.98   13.34   2
   0   4   2 4336.39   86.66   2
   0   4   2 4526.21   58.96   2
   0   4   2 4429.34    78.6   2
   0   4  -2 4586.67   75.19   2
   0   4  -2 4767.69   85.71   2
   0   4   2 4316.46   86.09   2
   0   4   3  581.01   25.14   2
   0   4   3  594.99    28.5   2
   0   4   3  620.86    28.9   2
   0   4  -3  555.86   22.77   2
   0   4  -3  570.46   25.15   2
   0   4   3  592.68   17.74   2
   0   4  -4 5783.26  102.79   2
   0   4   4  5564.3   105.8   2
   0   4   4 5439.65   93.89   2
   0   4   4  5795.1  112.77   2
   0   4   4  5566.4  110.23   2
   0   4  -4 5371.29  109.81   2
   0   4   5  296.73   20.66   2
   0   4   5  323.11    24.2   2
   0   4   5  312.92   23.48   2
   0   4  -5  277.41   20.55   2
   0   4  -5  272.42   24.41   2
   0   4  -5  270.49   12.23   2
   0   4   5  301.38   22.31   2
   0   4  -6 2564.78   74.88   2
   0   4  -6 2613.62   89.76   2
   0   4   6 2626.59    78.6   2
   0   4   6 2741.06   80.34   2
   0   4   6 2539.32   76.54   2
   0   4   7  393.81   30.67   2
   0   4   7  370.57    29.9   2
   0   4  -7  376.82   30.24   2
   0   4   7  341.13   29.71   2
   0   4   8 2199.98   79.95   2
   0   4   8 2144.89   84.11   2
   0   4   8 2150.73   79.18   2
   0   4  -8 2267.55   86.34   2
   0   4   9  148.25    20.6   2
   0   4   9  152.48   20.71   2
   0   4  -9  115.97   19.48   2
   0   4   9  129.68   20.31   2
   0   4  10  774.04   54.29   2
   0   4  10  986.21    54.8   2
   0   4 -10  886.94   61.41   2
   0   4 -11  256.57   33.78   2
   0   4  11  295.57   29.97   2
   0   4  11  239.21   30.34   2
   0   4 -12  690.65   57.28   2
   0   4  12  732.51   47.33   2
   0   4  13  122.39   22.51   2
   0   4 -13  105.75   22.83   2
   0   4 -14  249.79   35.79   2
   0   4  14  226.01   33.15   2
   0   5   0    1.42    0.37   2
   0   5   0    2.33    1.19   2
   0   5   0    2.26    0.97   2
   0   5  -1     7.6    2.51   2
   0   5   1    6.12    2.33   2
   0   5   1    5.17    1.07   2
   0   5  -1   12.61    2.29   2
   0   5   1    7.51    3.41   2
   0   5   2  118.88   10.75   2
   0   5  -2  111.06      12   2
   0   5  -2  115.29    8.82   2
   0   5   2  132.56   13.75   2
   0   5   2  128.87   13.36   2
   0   5  -3  236.04   17.26   2
   0   5   3  234.36   18.98   2
   0   5   3  235.97   19.26   2
   0   5  -3  206.52    14.1   2
   0   5   3  225.09    9.03   2
   0   5   3  229.61   16.25   2
   0   5  -3   231.7    15.2   2
   0   5  -4  319.57   21.28   2
   0   5   4  344.14   25.06   2
   0   5   4   346.4   24.86   2
   0   5   4  342.65   21.82   2
   0   5  -4  314.26   19.16   2
   0   5   4  330.39   14.74   2
   0   5  -5  320.49   24.95   2
   0   5   5  397.56   28.22   2
   0   5  -5  349.81   22.81   2
   0   5   5  368.41   20.14   2
   0   5  -5  354.96   17.92   2
   0   5   5   385.9   28.45   2
   0   5   6  248.32   19.95   2
   0   5   6  237.96   23.35   2
   0   5  -6  250.14   24.92   2
   0   5   6  285.39   25.72   2
   0   5  -6  233.81   12.05   2
   0   5  -6  231.51   20.73   2
   0   5   7  451.21   34.45   2
   0   5   7  422.95   32.98   2
   0   5  -7  378.44   29.05   2
   0   5   7   403.7   29.61   2
   0   5  -8  596.52   40.93   2
   0   5   8  570.89   40.27   2
   0   5  -9  280.44   30.03   2
   0   5   9  258.52   28.12   2
   0   5   9  188.48   24.11   2
   0   5  10  228.75   28.22   2
   0   5 -10   250.6   31.22   2
   0   5  10  297.18   30.55   2
   0   5  11   209.8   28.21   2
   0   5  11  311.23   31.83   2
   0   5 -11  236.79   32.45   2
   0   5  12  497.81   40.45   2
   0   5 -12  385.23   43.21   2
   0   5  12  445.42   42.76   2
   0   5 -13  211.86   32.59   2
   0   5  13   185.9   28.62   2
   0   5 -14  205.14   33.03   2
   0   5  14  197.55   30.51   2
   0   6   0 2974.42   72.28   2
   0   6   0 2833.37   44.67   2
   0   6  -1   887.6   36.95   2
   0   6  -1  867.78   21.95   2
   0   6   1  939.94   39.27   2
   0   6   2 2200.83   65.19   2
   0   6  -2 2109.24   45.22   2
   0   6   2 2248.96   66.12   2
   0   6  -2 2140.89   61.66   2
   0   6   2 2217.47   55.86   2
   0   6   3   971.3   43.32   2
   0   6   3  980.63   43.53   2
   0   6  -3  895.82   38.01   2
   0   6  -3  929.45   33.13   2
   0   6   3  888.12   35.19   2
   0   6  -3  932.54   31.63   2
   0   6   4 2412.09   43.14   2
   0   6  -4 2381.98   61.97   2
   0   6   4 2532.44   77.28   2
   0   6  -4 2368.64   60.42   2
   0   6   4 2477.92   75.85   2
   0   6   5  656.71   39.64   2
   0   6  -5  591.89   27.58   2
   0   6  -5  606.17    30.7   2
   0   6   5  691.94   40.88   2
   0   6  -5  581.81   32.69   2
   0   6   5  623.77   23.02   2
   0   6  -6 1278.78   50.11   2
   0   6   6  1391.8   62.09   2
   0   6   6 1340.21   42.29   2
   0   6  -6  1311.9   37.31   2
   0   6  -7  511.81   18.83   2
   0   6   7   540.1   30.93   2
   0   6   7  539.16    40.1   2
   0   6  -7  501.64   33.22   2
   0   6  -8 1376.69   62.16   2
   0   6   8 1500.76   70.95   2
   0   6   8 1461.72   35.77   2
   0   6   9  313.14   32.56   2
   0   6  -9  317.45   32.12   2
   0   6   9  308.96    29.5   2
   0   6 -10  577.46    46.7   2
   0   6  10  528.52   41.57   2
   0   6  10   629.9   47.49   2
   0   6  11  298.66   33.41   2
   0   6  11  299.91   33.04   2
   0   6 -11  239.51   32.45   2
   0   6  12  488.77   44.32   2
   0   6  12  566.72   45.31   2
   0   6 -12  469.05   48.15   2
   0   6  13   91.15   19.88   2
   0   6 -13  116.92   24.28   2
   0   7   0    0.47     0.3   2
   0   7   0    0.32    1.59   2
   0   7   0     2.7    0.58   2
   0   7   1   52.12    3.86   2
   0   7  -1   69.92    6.25   2
   0   7   1   83.53   12.32   2
   0   7  -1   72.31   11.49   2
   0   7  -2   14.28    3.16   2
   0   7   2   13.16       4   2
   0   7   2    19.9    5.42   2
   0   7  -2    9.84       4   2
   0   7  -3  179.04   17.93   2
   0   7  -3  181.06   13.32   2
   0   7   3  202.12   21.01   2
   0   7   4  148.49   18.99   2
   0   7  -4  125.03    12.5   2
   0   7  -4  125.33   12.99   2
   0   7  -5  162.87   16.49   2
   0   7  -5  169.12   16.19   2
   0   7  -5  158.67   15.97   2
   0   7   5  157.93    9.63   2
   0   7   5  170.75    21.4   2
   0   7   6  213.13   24.93   2
   0   7  -6   202.3   15.77   2
   0   7   6  200.02   13.51   2
   0   7  -6  192.06   18.78   2
   0   7   7  309.48   20.42   2
   0   7  -7  305.54   16.98   2
   0   7  -7  286.48   25.28   2
   0   7   8  235.76   28.81   2
   0   7  -8  209.39   11.28   2
   0   7   8  217.09   19.96   2
   0   7  -8  209.86   23.13   2
   0   7   9  276.34    32.3   2
   0   7  -9  273.25   29.03   2
   0   7   9  280.96   25.74   2
   0   7 -10  192.43   25.94   2
   0   7  10  221.45    25.5   2
   0   7  10  206.48   28.28   2
   0   7  11  245.44   31.51   2
   0   7  11  189.23   24.58   2
   0   7 -11  194.57   28.22   2
   0   7 -12  203.51   30.75   2
   0   7  12  338.96   36.88   2
   0   7 -13  133.05   25.74   2
   0   8   0 2732.47   44.83   2
   0   8   0 2634.34   78.05   2
   0   8   1 1382.47   42.21   2
   0   8   1 1226.05   23.92   2
   0   8  -1 1304.89   32.35   2
   0   8   1 1256.73      54   2
   0   8  -1 1331.61   54.04   2
   0   8  -1 1221.46   30.82   2
   0   8   2 1741.25    66.3   2
   0   8  -2 1758.36   62.52   2
   0   8  -2 1654.07   39.85   2
   0   8   3 1207.55   56.75   2
   0   8  -3 1181.41   50.35   2
   0   8  -3 1135.62   35.72   2
   0   8   4  2055.5   78.27   2
   0   8  -4 1921.49   58.56   2
   0   8  -4 1921.24   53.68   2
   0   8  -5  687.75   33.61   2
   0   8   5   727.2   47.73   2
   0   8  -5  670.36   34.22   2
   0   8  -6 1102.27   48.08   2
   0   8  -6 1187.93   44.71   2
   0   8   6 1140.93   30.46   2
   0   8  -7  626.01   37.86   2
   0   8   7  619.58   25.54   2
   0   8  -7  609.49   28.09   2
   0   8   7  651.37   49.68   2
   0   8  -8  742.55   45.17   2
   0   8   8  852.01   35.86   2
   0   8   8  885.31   60.31   2
   0   8  -9  254.13   27.47   2
   0   8   9  261.47   33.27   2
   0   8   9  291.17   23.51   2
   0   8  10  433.88   44.43   2
   0   8 -10  419.31      39   2
   0   8  11  295.35   36.46   2
   0   8 -11  225.15    30.4   2
   0   8 -12  261.49   35.64   2
   0   9   0    0.95    0.79   2
   0   9   0   -1.34    1.26   2
   0   9   0    0.43    0.39   2
   0   9   1   16.46    3.58   2
   0   9  -1   22.03    3.87   2
   0   9  -1   20.92    6.46   2
   0   9   1   17.11    7.24   2
   0   9   1    22.7    2.59   2
   0   9  -1    23.7    3.88   2
   0   9   2   14.94    4.39   2
   0   9   2   10.93    5.69   2
   0   9  -2   13.54    5.97   2
   0   9  -2   16.64    3.61   2
   0   9  -3  160.73    19.6   2
   0   9  -3  154.97   12.56   2
   0   9   3  173.51   22.26   2
   0   9  -4   101.9   13.22   2
   0   9   4   99.54   18.23   2
   0   9  -4   91.56   10.61   2
   0   9  -5     251   23.55   2
   0   9  -5  255.24   21.72   2
   0   9   5  274.58   30.66   2
   0   9  -6   52.73    9.88   2
   0   9  -6   50.92    9.51   2
   0   9   6   65.15   15.12   2
   0   9  -7  325.34   27.73   2
   0   9  -7  316.17   22.13   2
   0   9   7     316   36.58   2
   0   9   8  173.74   29.07   2
   0   9  -8  157.94    20.9   2
   0   9   9  258.33   34.71   2
   0   9  -9  246.69   27.51   2
   0   9 -10  106.61   19.45   2
   0   9  10  122.22   23.68   2
   0   9  11   252.4   36.07   2
   0   9 -11  198.95   27.88   2
   0   9  11  293.29   43.66   2
   0   9 -12  120.42   24.49   2
   0  10   0  926.73   51.45   2
   0  10   0  874.73   20.96   2
   0  10   1 1285.19   24.45   2
   0  10   1 1316.03   63.17   2
   0  10   1 1365.57   37.42   2
   0  10  -1 1362.39   34.07   2
   0  10  -1 1333.42   61.42   2
   0  10  -2  794.56   28.87   2
   0  10  -2  733.14   26.87   2
   0  10   2  788.25   49.71   2
   0  10  -2  808.47   46.93   2
   0  10   2  849.52   37.34   2
   0  10  -3 1025.52   34.56   2
   0  10   3 1140.12   61.96   2
   0  10   3 1200.78   55.07   2
   0  10  -3 1074.62   54.23   2
   0  10   4  782.67   51.43   2
   0  10   4  752.27   52.85   2
   0  10  -4  646.01   36.18   2
   0  10  -5  896.48   48.64   2
   0  10  -5  846.69    43.1   2
   0  10   5  922.02   61.14   2
   0  10   6  540.21   48.31   2
   0  10  -6  490.24   33.21   2
   0  10  -6  451.95    32.5   2
   0  10   7  621.48   54.45   2
   0  10  -7  575.35   38.52   2
   0  10  -8   415.5   34.46   2
   0  10   8  395.62   44.52   2
   0  10  -9  329.18   32.79   2
   0  10   9  382.13   49.51   2
   0  10   9  322.23   41.67   2
   0  10 -10  163.09    24.1   2
   0  10  10  258.71   42.11   2
   0  10  10  234.34   35.95   2
   0  10  11  216.68   33.66   2
   0  10 -11  202.01    29.4   2
   0  11   0    3.87    3.77   2
   0  11  -1    9.91    6.44   2
   0  11   1   15.78    3.38   2
   0  11   1   11.11    6.41   2
   0  11   2   13.04    4.87   2
   0  11   2   11.51    6.55   2
   0  11  -2   16.27    5.38   2
   0  11   3   85.15   13.67   2
   0  11  -3    79.4   15.02   2
   0  11   3   75.47   16.97   2
   0  11  -4   22.28    6.35   2
   0  11   4    14.8    6.65   2
   0  11   4    13.2    6.96   2
   0  11   5   145.5   23.95   2
   0  11  -5  140.54    20.1   2
   0  11  -5  133.83   17.37   2
   0  11   5  146.07   24.94   2
   0  11   6   56.86   16.69   2
   0  11  -6    57.9   12.24   2
   0  11   6   50.96   15.03   2
   0  11  -6   46.65   11.32   2
   0  11  -7  155.28   20.77   2
   0  11   7  182.01    31.9   2
   0  11   7  180.46   30.75   2
   0  11   8   61.04    18.3   2
   0  11   8   73.21   19.53   2
   0  11  -8   72.45   14.45   2
   0  11  -9  176.66   24.34   2
   0  11   9  215.83    36.5   2
   0  11   9  163.13    30.5   2
   0  11  10  116.67   29.47   2
   0  11  10  106.33   24.91   2
   0  11 -10   54.48    13.5   2
   0  11  11   167.2    31.7   2
   0  12   0  505.13    42.9   2
   0  12   1 1179.83   67.45   2
   0  12  -1 1152.59   64.41   2
   0  12   2  477.31   43.05   2
   0  12  -2  414.67   37.76   2
   0  12   3  1041.8   66.86   2
   0  12  -3   959.3   57.58   2
   0  12   4  434.05   44.01   2
   0  12   4  435.92   34.64   2
   0  12  -4  445.39   33.05   2
   0  12   5  659.95   57.74   2
   0  12   5  656.61   49.43   2
   0  12  -5  546.08   37.76   2
   0  12  -5   598.8   44.47   2
   0  12  -6  241.54      26   2
   0  12   6  271.74   35.27   2
   0  12   6  272.09   38.59   2
   0  12   7  527.77   55.87   2
   0  12  -7  492.03   38.64   2
   0  12   7  530.48   53.93   2
   0  12   8  176.73   33.24   2
   0  12   8  219.58   36.69   2
   0  12  -8  181.05   24.94   2
   0  12   9  198.89   36.43   2
   0  12  -9  177.03   25.25   2
   0  13   0     2.3    3.35   2
   0  13   1   16.51       9   2
   0  13  -1    3.78    2.89   2
   0  13   2    5.25    3.98   2
   0  13  -2    9.46    3.98   2
   0  13   3   67.39   17.48   2
   0  13   4   14.71    9.02   2
   0  13  -4   32.06    9.71   2
   0  13  -4   17.68     7.2   2
   0  13   5  120.56    25.5   2
   0  13  -5     103   16.48   2
   0  13  -5   78.19   16.63   2
   0  13   6   55.61   17.45   2
   0  13  -6    25.8    7.86   2
   0  13   7  202.56   36.84   2
   0  13  -7  130.74   21.02   2
   0  13  -8   56.74   14.94   2
   0  14   0     220   31.54   2
   0  14  -1  688.91   54.69   2
   0  14   1  733.16   59.04   2
   0  14   2  149.37   27.28   2
   0  14  -2  149.28   25.26   2
   0  14  -3   640.7   57.48   2
   0  14  -3  685.53   44.35   2
   0  14  -4  187.17    28.8   2
   0  14  -4  168.39   22.13   2
   0  14  -5  568.08   42.04   2
   0  14  -6   69.71   14.64   2
   0  15  -2   16.49   15.07   2
   0  15  -3   19.33   11.16   2
   1 -14  -5  404.05   48.04   2
   1 -14  -4   46.06   17.32   2
  -1 -14   3  563.11   56.48   2
   1 -14  -3  466.02   58.75   2
   1 -14  -2   54.19   15.83   2
  -1 -14   2    64.1   19.24   2
  -1 -14   1  644.14   81.26   2
   1 -14  -1  569.76   50.83   2
  -1 -14   1  572.75   55.02   2
   1 -14   0    42.8   13.54   2
  -1 -14   0   36.29   17.42   2
  -1 -14   0    52.2      15   2
  -1 -14  -1  580.94   53.55   2
  -1 -14  -1  583.94   70.15   2
  -1 -14  -2   52.49   21.26   2
  -1 -14  -3   527.2   58.19   2
  -1 -14  -4   36.03   12.59   2
  -1 -14  -5  313.63   39.69   2
   1 -13  -8   17.59    7.77   2
  -1 -13   8   33.57   12.07   2
   1 -13  -7    82.2   17.65   2
  -1 -13   7  135.36   28.98   2
  -1 -13   6   26.17   11.26   2
   1 -13  -6   17.03    9.28   2
   1 -13  -6   26.95   11.55   2
  -1 -13   5  129.81   26.82   2
   1 -13  -5  118.56   20.84   2
   1 -13  -5  146.87   28.03   2
  -1 -13   5  178.68    41.3   2
  -1 -13   4   28.09    5.66   2
   1 -13  -4   40.14   14.02   2
  -1 -13   4   47.56   16.35   2
   1 -13  -4   38.24   13.39   2
  -1 -13   3   55.49   15.95   2
   1 -13  -3   59.86   14.54   2
  -1 -13   3   58.43   26.37   2
  -1 -13   2   29.22   13.23   2
   1 -13  -2   29.58    12.3   2
  -1 -13   2   18.63    6.95   2
   1 -13  -1   43.61   13.27   2
  -1 -13   1   40.62   12.83   2
  -1 -13   1   24.61    17.7   2
  -1 -13   0   71.14   18.68   2
  -1 -13   0   69.78   25.74   2
   1 -13   0   66.38   16.63   2
  -1 -13  -1   11.27    8.73   2
   1 -13   1   -1.01    3.32   2
  -1 -13  -1    6.36    8.47   2
   1 -13   2   129.1   24.12   2
  -1 -13  -2  147.94   31.32   2
  -1 -13  -2   94.14   20.38   2
   1 -13   3   41.03   12.57   2
  -1 -13  -3   44.89   13.62   2
  -1 -13  -3   32.23    10.3   2
   1 -13   4  186.64   30.84   2
  -1 -13  -4  174.46   26.92   2
  -1 -13  -4  183.41    29.8   2
   1 -13   5   47.84   16.61   2
  -1 -13  -5    55.1   15.36   2
  -1 -13  -5   34.73   11.63   2
   1 -13   6   170.4   31.83   2
  -1 -13  -6  182.75   27.16   2
  -1 -12   9  224.68   35.57   2
   1 -12  -9  218.72   28.23   2
   1 -12  -8    96.6   18.33   2
  -1 -12   8  102.11   24.48   2
  -1 -12   8  166.57   34.17   2
  -1 -12   7   465.8   50.48   2
  -1 -12   7  565.94   66.32   2
   1 -12  -7  458.71   39.56   2
  -1 -12   6  172.97   30.34   2
  -1 -12   6  202.65   41.17   2
   1 -12  -6  163.44   23.57   2
   1 -12  -6  172.19   27.39   2
   1 -12  -5   655.6   47.49   2
   1 -12  -5  588.86    53.2   2
  -1 -12   5  679.06   58.67   2
  -1 -12   4  337.18   57.95   2
  -1 -12   4  335.98    40.8   2
   1 -12  -4   321.6   33.06   2
  -1 -12   3  824.55   60.88   2
   1 -12  -3  750.52   51.07   2
  -1 -12   3   766.1   85.85   2
  -1 -12   2  548.05   73.44   2
  -1 -12   2  488.04    45.9   2
   1 -12  -2  436.45    39.2   2
  -1 -12   1  852.48   60.12   2
   1 -12  -1  876.95   36.58   2
   1 -12  -1  788.31   54.02   2
  -1 -12   1  895.02   89.49   2
  -1 -12   0  573.65   69.18   2
  -1 -12   0   544.5   46.99   2
   1 -12   0  552.77   45.98   2
   1 -12   0  587.08   31.32   2
  -1 -12  -1  839.61   58.22   2
   1 -12   1  882.52   41.48   2
   1 -12   1  813.35   57.08   2
  -1 -12  -1  987.75   84.14   2
   1 -12   2  519.43   46.22   2
   1 -12   2  513.05   33.87   2
  -1 -12  -2  540.55   58.66   2
  -1 -12  -2  469.64   42.92   2
   1 -12   3  642.15   53.13   2
  -1 -12  -3  698.81   51.59   2
  -1 -12  -3  766.28   64.16   2
   1 -12   3  749.14   44.41   2
  -1 -12  -4  347.18   36.53   2
   1 -12   4  429.24   44.05   2
   1 -12   4  393.56   34.99   2
  -1 -12  -4  371.91    41.3   2
  -1 -12  -5  497.24    44.5   2
  -1 -12  -5  527.71   46.17   2
   1 -12   5  469.14   41.33   2
   1 -12   5  498.08   49.56   2
  -1 -12  -6  290.63   34.56   2
  -1 -12  -6  244.75   29.24   2
   1 -12   6  253.62   32.07   2
   1 -12   6  255.92   36.95   2
   1 -12   7  355.56   41.02   2
   1 -12   7  365.48   46.18   2
  -1 -12  -7  348.73   37.83   2
   1 -12   8  167.08   30.83   2
  -1 -12  -8  145.21   24.89   2
   1 -12   8  196.18   34.32   2
   1 -12   8  170.75   30.73   2
   1 -12   9  265.65   39.32   2
   1 -12   9  169.24   31.45   2
  -1 -11  11  238.84   37.44   2
   1 -11 -10   90.13   17.45   2
  -1 -11  10   118.2   25.58   2
  -1 -11  10  115.81   24.42   2
   1 -11  -9  304.14   31.59   2
  -1 -11   9  436.23   52.18   2
  -1 -11   9  315.52   40.16   2
  -1 -11   9  334.41   42.47   2
   1 -11  -8  106.64   18.15   2
  -1 -11   8   87.12   23.79   2
  -1 -11   8  130.49   23.91   2
  -1 -11   8  131.95   26.15   2
   1 -11  -7  322.23   24.24   2
  -1 -11   7  349.79   49.28   2
  -1 -11   7  362.35   39.34   2
   1 -11  -7  284.23   29.67   2
  -1 -11   7  355.57   41.95   2
   1 -11  -7  320.63   32.36   2
  -1 -11   6  140.95   31.98   2
   1 -11  -6  111.15    13.2   2
  -1 -11   6  105.13   23.13   2
   1 -11  -6  104.23   19.51   2
  -1 -11   6  113.08   19.71   2
   1 -11  -6  106.24   17.77   2
   1 -11  -5  450.57    25.8   2
  -1 -11   5  393.13   41.73   2
   1 -11  -5  428.63   35.74   2
  -1 -11   5  548.77   65.68   2
  -1 -11   5  457.09   35.05   2
  -1 -11   4  130.79   15.18   2
  -1 -11   4   138.8   35.73   2
   1 -11  -4  128.99   18.93   2
   1 -11  -4  134.25   13.26   2
  -1 -11   4  133.67   24.34   2
   1 -11  -3  186.23   23.44   2
  -1 -11   3   204.2   28.16   2
   1 -11  -3  181.87   15.08   2
  -1 -11   3  171.19   39.77   2
  -1 -11   3  206.16   15.72   2
   1 -11  -2  130.98   19.86   2
  -1 -11   2  118.72   21.57   2
  -1 -11   2   92.69   27.86   2
   1 -11  -2  120.61   12.14   2
  -1 -11   1  378.31   37.14   2
   1 -11  -1  337.34   32.64   2
  -1 -11   1  418.29    60.3   2
   1 -11  -1  343.14   21.27   2
  -1 -11   0  209.74   26.91   2
  -1 -11   0  203.03   40.05   2
   1 -11   0  178.94   24.19   2
   1 -11   0  200.87   16.73   2
  -1 -11  -1   90.73   17.19   2
  -1 -11  -1   96.16   24.25   2
   1 -11   1   95.79   12.83   2
   1 -11   1   83.03   16.28   2
   1 -11   2  230.69    28.7   2
  -1 -11  -2   256.6   29.86   2
   1 -11   2  240.47   21.38   2
  -1 -11  -2  282.05   39.86   2
   1 -11   3  172.26   25.89   2
  -1 -11  -3  146.51   25.93   2
   1 -11   3  154.52    18.9   2
  -1 -11  -3  160.72   23.31   2
   1 -11   4  251.33   32.03   2
   1 -11   4  272.93   27.54   2
  -1 -11  -4  238.91   31.62   2
  -1 -11  -4  272.08    30.3   2
   1 -11   5   41.02   13.05   2
   1 -11   5   43.77   11.53   2
  -1 -11  -5   38.59   12.31   2
  -1 -11  -5   44.64   12.28   2
   1 -11   6  344.12   40.81   2
   1 -11   6  281.26   32.23   2
  -1 -11  -6  306.09   31.13   2
  -1 -11  -6  314.17   33.35   2
  -1 -11  -7   96.91   16.87   2
  -1 -11  -7   77.91   16.46   2
   1 -11   7   78.36   20.96   2
   1 -11   7   82.41   17.37   2
  -1 -11  -8  283.41   33.11   2
   1 -11   8  246.58   34.34   2
   1 -11   8  284.43   39.82   2
   1 -11   9   61.56   17.96   2
  -1 -11  -9   79.18   18.24   2
   1 -11   9   79.94   21.61   2
  -1 -11 -10  168.19   26.97   2
   1 -11  10  204.89   35.22   2
   1 -11  10  173.84   31.95   2
   1 -11  10  228.25   36.56   2
  -1 -10  11  207.41   32.87   2
  -1 -10  11  199.05   33.54   2
  -1 -10  10  108.41   22.24   2
   1 -10 -10   94.64   16.63   2
  -1 -10  10  155.13   28.84   2
  -1 -10  10   92.63   21.37   2
  -1 -10   9  341.13   43.79   2
  -1 -10   9  280.91   38.47   2
  -1 -10   9  250.49    34.1   2
   1 -10  -9  245.76   26.94   2
  -1 -10   8  246.01   33.55   2
  -1 -10   8  312.57   38.64   2
   1 -10  -8  235.76   25.58   2
  -1 -10   8  318.27   44.23   2
   1 -10  -7  499.78   36.93   2
   1 -10  -7  495.88   29.97   2
  -1 -10   7  612.47   62.42   2
  -1 -10   7  524.16   48.34   2
   1 -10  -7  472.97   37.31   2
  -1 -10   7  529.76   47.97   2
   1 -10  -6  291.35   21.44   2
  -1 -10   6  341.24    35.4   2
  -1 -10   6  381.75   50.47   2
  -1 -10   6  341.22   37.55   2
   1 -10  -6  310.83   28.76   2
  -1 -10   5  630.78   50.17   2
   1 -10  -5  599.96   40.32   2
   1 -10  -5  627.11   30.55   2
  -1 -10   5  668.88   44.62   2
  -1 -10   5  722.84   51.63   2
  -1 -10   5     711   71.24   2
  -1 -10   4  540.68   44.94   2
  -1 -10   4  521.58   40.62   2
   1 -10  -4  551.78   26.82   2
   1 -10  -4  547.86   38.41   2
  -1 -10   4  614.84   68.54   2
  -1 -10   4  612.98   36.28   2
  -1 -10   3  847.47   55.12   2
   1 -10  -3  865.56   48.68   2
  -1 -10   3  902.83   36.73   2
   1 -10  -3  873.38   32.96   2
  -1 -10   3  752.55   77.61   2
   1 -10  -2  376.08    20.8   2
   1 -10  -2  384.46   32.63   2
  -1 -10   2  410.84   56.33   2
  -1 -10   2  377.54   35.26   2
   1 -10  -2  385.88   15.84   2
  -1 -10   2  415.98   18.18   2
   1 -10  -1  967.64   52.73   2
   1 -10  -1 1001.54   35.12   2
  -1 -10   1 1042.85   88.41   2
  -1 -10   1 1009.98   57.17   2
  -1 -10   1  884.49   17.23   2
   1 -10  -1  955.89   25.96   2
  -1 -10   0   685.1   46.61   2
   1 -10   0  648.64   44.03   2
   1 -10   0  710.23   30.66   2
   1 -10   1  808.41   35.11   2
   1 -10   1  829.32   50.63   2
  -1 -10  -1  764.66   49.38   2
  -1 -10  -1  843.13   71.26   2
  -1 -10  -2  433.29   36.51   2
   1 -10   2  480.67    39.6   2
   1 -10   2  445.73   27.77   2
  -1 -10  -2  484.28   49.28   2
   1 -10   3  981.93   59.58   2
  -1 -10  -3  974.25   65.32   2
   1 -10   3 1022.89   46.53   2
  -1 -10  -3  974.22   55.06   2
  -1 -10  -4  509.22   39.74   2
   1 -10   4   613.3   38.89   2
  -1 -10  -4  553.78   45.06   2
   1 -10   4  540.01   45.21   2
   1 -10   5  602.77   50.04   2
   1 -10   5  558.41   40.55   2
  -1 -10  -5  557.26    42.2   2
  -1 -10  -5  584.05   23.41   2
  -1 -10  -5  559.19   41.74   2
   1 -10   6  274.23   31.03   2
  -1 -10  -6  259.15   29.03   2
   1 -10   6   248.6   32.69   2
  -1 -10  -6  275.24   27.65   2
  -1 -10  -7  505.96   41.75   2
   1 -10   7  490.92   45.02   2
  -1 -10  -7  550.45   36.63   2
   1 -10   8  230.86   32.51   2
  -1 -10  -8  266.09   30.62   2
  -1 -10  -9  232.15   30.29   2
   1 -10   9  250.19   36.01   2
   1 -10  10  112.29   24.39   2
  -1 -10 -10  130.98   23.22   2
  -1 -10 -11  177.06   27.55   2
   1 -10  11  241.38   38.07   2
   1 -10  11   273.6    38.2   2
  -1  -9  11  173.01   30.67   2
  -1  -9  11  189.97   30.17   2
  -1  -9  10  277.79   39.57   2
  -1  -9  10  241.58   32.02   2
   1  -9 -10  198.02    23.3   2
  -1  -9  10  222.43    32.9   2
  -1  -9   9  345.27   42.18   2
  -1  -9   9  317.09   40.36   2
  -1  -9   9  281.11   34.32   2
   1  -9  -9   272.9   26.68   2
  -1  -9   8  298.32   40.38   2
   1  -9  -8  253.64   25.16   2
  -1  -9   8  274.94   33.19   2
  -1  -9   8  307.15   37.77   2
  -1  -9   7  104.39   20.06   2
  -1  -9   7  125.79   22.83   2
  -1  -9   7   86.59   18.91   2
   1  -9  -7  101.09   15.46   2
   1  -9  -7    98.2   15.42   2
  -1  -9   7  127.57    27.2   2
   1  -9  -6  311.28   21.72   2
   1  -9  -6  288.67   25.94   2
  -1  -9   6  353.69   46.39   2
  -1  -9   6  314.42   33.59   2
  -1  -9   6  386.99    38.9   2
  -1  -9   6  318.74   35.06   2
  -1  -9   5  313.48   45.12   2
  -1  -9   5  311.91   33.62   2
  -1  -9   5  303.54   30.77   2
   1  -9  -5  288.21   26.01   2
   1  -9  -5  289.46   19.92   2
  -1  -9   5  255.76   29.77   2
   1  -9  -4  254.82    17.7   2
  -1  -9   4  315.56   26.86   2
  -1  -9   4  314.44   47.19   2
  -1  -9   4  285.98   30.64   2
   1  -9  -4  263.16   24.66   2
   1  -9  -4  254.35    16.7   2
  -1  -9   4  283.62   30.41   2
   1  -9  -3   70.42   12.95   2
  -1  -9   3   81.84   11.18   2
   1  -9  -3   62.61    8.13   2
  -1  -9   3   61.39   13.82   2
  -1  -9   3   70.38   13.69   2
  -1  -9   3   64.04   21.11   2
   1  -9  -3   65.16    6.89   2
   1  -9  -2  234.67   12.18   2
   1  -9  -2  234.06   15.52   2
  -1  -9   2  285.28   22.12   2
   1  -9  -2  281.93   25.76   2
  -1  -9   2  225.79   25.71   2
  -1  -9   2  260.98   15.22   2
  -1  -9   2  260.93   42.59   2
  -1  -9   1  278.27   10.62   2
  -1  -9   1  298.29   28.88   2
  -1  -9   1  292.78   43.44   2
   1  -9  -1  273.49   16.72   2
   1  -9  -1  279.58   26.15   2
   1  -9  -1  265.17   12.82   2
  -1  -9   0  217.18   35.89   2
   1  -9   0  216.28   23.63   2
  -1  -9   0  228.91   25.07   2
   1  -9   0  216.57   15.32   2
   1  -9   1   94.82   10.92   2
  -1  -9  -1   93.48   16.13   2
   1  -9   1  102.63   17.03   2
  -1  -9  -1   95.39   22.08   2
   1  -9   2  118.73   18.48   2
   1  -9   2   104.4   12.44   2
  -1  -9  -2  114.66    17.7   2
  -1  -9  -2  103.94   20.92   2
  -1  -9  -3   242.2   25.54   2
   1  -9   3  253.49    21.4   2
  -1  -9  -3  233.14   29.28   2
   1  -9   3  247.94    27.4   2
   1  -9   4   275.2    24.6   2
  -1  -9  -4  264.28   27.25   2
  -1  -9  -4  281.79   15.41   2
  -1  -9  -4  268.22   28.53   2
  -1  -9  -4  262.86   10.47   2
  -1  -9  -4  284.94   16.76   2
  -1  -9  -5  141.67   20.12   2
  -1  -9  -5  129.11   18.32   2
  -1  -9  -5  154.15   16.67   2
  -1  -9  -5  144.57   11.59   2
  -1  -9  -5   143.1    9.64   2
   1  -9   5  133.53   19.03   2
   1  -9   6  212.37    26.1   2
  -1  -9  -6  215.23    15.1   2
  -1  -9  -6  196.27   21.29   2
  -1  -9  -6  217.11   25.53   2
   1  -9   7  215.64   29.22   2
  -1  -9  -7  224.42   26.62   2
  -1  -9  -7  228.48   21.78   2
  -1  -9  -7  228.39   16.84   2
  -1  -9  -8  227.63   27.65   2
   1  -9   8  205.07   29.89   2
  -1  -9  -8  254.04    19.1   2
   1  -9   9  152.77   27.01   2
  -1  -9  -9   151.5   22.81   2
  -1  -9 -10  174.35   25.92   2
   1  -9  10  211.85   34.41   2
  -1  -9 -11  143.14   23.51   2
   1  -9  11  234.91   36.43   2
   1  -9  11  201.62    31.8   2
   1  -9  11  157.96   30.32   2
  -1  -9 -12  152.73   25.93   2
  -1  -8  12   184.2    32.1   2
  -1  -8  11  181.16   30.72   2
  -1  -8  11  160.98   25.57   2
   1  -8 -11  147.32   26.75   2
   1  -8 -10  182.12   21.49   2
   1  -8 -10  182.93   28.36   2
  -1  -8  10  190.59   27.05   2
  -1  -8  10  212.65    32.8   2
  -1  -8  10  220.01   31.52   2
  -1  -8   9  199.17   30.87   2
  -1  -8   9  244.75   29.75   2
   1  -8  -9   209.9   22.45   2
  -1  -8   9  269.41   36.57   2
  -1  -8   8  507.71   50.36   2
  -1  -8   8  685.78   56.72   2
   1  -8  -8  554.83   30.71   2
   1  -8  -8  431.41   31.78   2
   1  -8  -8  607.66   26.01   2
  -1  -8   8  570.67   45.33   2
  -1  -8   7  497.06   46.75   2
  -1  -8   7  591.91   49.84   2
  -1  -8   7  520.29   42.09   2
  -1  -8   7  491.34   18.58   2
  -1  -8   7  468.15   50.04   2
   1  -8  -7  508.48   19.23   2
  -1  -8   6  703.03   62.09   2
  -1  -8   6  613.92   44.58   2
  -1  -8   6  719.55   53.23   2
  -1  -8   6  650.55   50.89   2
   1  -8  -6  602.72   35.59   2
  -1  -8   5  780.73   52.82   2
  -1  -8   5  758.43   49.79   2
  -1  -8   5   728.1   46.91   2
   1  -8  -5  668.58   31.91   2
   1  -8  -5  709.13   31.16   2
   1  -8  -5  681.66   38.01   2
  -1  -8   5  846.49   69.36   2
  -1  -8   4 1530.12   97.62   2
   1  -8  -4 1467.55   42.28   2
   1  -8  -4 1462.53   56.18   2
   1  -8  -4 1468.96   43.77   2
  -1  -8   4 1465.65   66.19   2
  -1  -8   4 1577.99   72.76   2
  -1  -8   4 1553.04   63.96   2
   1  -8  -3 1089.01   48.04   2
  -1  -8   3  932.38   76.98   2
   1  -8  -3 1104.26   35.23   2
  -1  -8   3 1152.42   44.83   2
  -1  -8   3 1127.43   55.46   2
   1  -8  -3  1103.8   30.95   2
  -1  -8   3  905.76   49.67   2
  -1  -8   2 1695.14   43.82   2
   1  -8  -2 1647.52   60.69   2
  -1  -8   2 1594.41   56.83   2
   1  -8  -2 1565.34   41.76   2
  -1  -8   2 1615.78   65.84   2
   1  -8  -2 1584.92   35.64   2
   1  -8  -1 1308.69   53.98   2
  -1  -8   1 1215.72   86.68   2
  -1  -8   1 1286.37   27.73   2
  -1  -8   1 1275.59   56.73   2
   1  -8  -1 1200.26   35.45   2
   1  -8  -1 1176.84   29.38   2
  -1  -8   0 2224.98   76.68   2
   1  -8   0 2319.23   75.13   2
  -1  -8   0 2253.45  112.64   2
   1  -8   0 2185.28   51.93   2
   1  -8   1 1228.05      39   2
   1  -8   1 1255.47   55.63   2
  -1  -8  -1 1229.96   76.65   2
  -1  -8  -1 1153.95      54   2
  -1  -8  -2 1757.19   84.64   2
  -1  -8  -2  1672.8   65.41   2
   1  -8   2 1686.51   50.96   2
   1  -8   2 1739.27   68.82   2
  -1  -8  -3 1155.04   31.82   2
  -1  -8  -3 1163.37   61.61   2
  -1  -8  -3 1111.87   52.32   2
  -1  -8  -3 1063.23   20.07   2
   1  -8   3 1155.19   44.57   2
  -1  -8  -4 2002.52   57.41   2
  -1  -8  -4 1936.77   45.19   2
  -1  -8  -4  1883.2   71.14   2
  -1  -8  -4 1861.83   73.63   2
   1  -8   4 1943.82   65.62   2
  -1  -8  -4 1952.55   37.53   2
  -1  -8  -5  761.21   27.61   2
  -1  -8  -5     695   40.19   2
   1  -8   5  760.23   43.68   2
  -1  -8  -5  744.34   44.32   2
  -1  -8  -5  745.99   41.43   2
  -1  -8  -6  936.06   51.86   2
  -1  -8  -6 1003.56   34.63   2
  -1  -8  -6   937.2   44.51   2
   1  -8   6 1026.45   56.19   2
   1  -8   7  581.03   45.77   2
  -1  -8  -7  562.19   27.38   2
  -1  -8  -7  549.43   40.29   2
  -1  -8  -7  609.85   33.51   2
  -1  -8  -8  783.04   49.68   2
   1  -8   8  786.78   57.68   2
  -1  -8  -8  834.16   35.84   2
  -1  -8  -8  783.69   35.65   2
   1  -8   9   200.1   31.26   2
  -1  -8  -9  185.58   24.64   2
  -1  -8  -9  190.68   18.64   2
  -1  -8 -10   268.1   24.05   2
  -1  -8 -10  255.14   30.26   2
   1  -8  10   260.7   36.96   2
  -1  -8 -11  183.48    26.4   2
   1  -8  11  210.01   34.53   2
   1  -8  12  258.21   38.64   2
  -1  -8 -12  201.01   28.29   2
   1  -7 -12  359.11   43.07   2
  -1  -7  12  477.59   51.45   2
  -1  -7  11  255.43   36.75   2
  -1  -7  11  241.11   30.36   2
   1  -7 -11  202.56   31.23   2
   1  -7 -10  348.85    38.8   2
  -1  -7  10  349.17   37.76   2
   1  -7 -10     312   26.88   2
  -1  -7  10  336.77   33.28   2
  -1  -7  10  416.79   45.38   2
   1  -7  -9  448.06   31.02   2
  -1  -7   9   490.3    28.4   2
  -1  -7   9  461.43   38.75   2
  -1  -7   9  407.91   41.79   2
   1  -7  -9  494.19    43.4   2
  -1  -7   8   555.2   26.34   2
   1  -7  -8  596.33   43.71   2
  -1  -7   8  552.45   41.46   2
   1  -7  -8  556.86   26.96   2
  -1  -7   8  493.91   46.95   2
  -1  -7   8  641.16   55.29   2
   1  -7  -7  357.69   26.35   2
   1  -7  -7  496.75   23.77   2
  -1  -7   7  512.99   47.24   2
   1  -7  -7  466.87   35.77   2
  -1  -7   7  490.96   37.94   2
  -1  -7   7  614.73   50.36   2
  -1  -7   7   483.8   21.36   2
  -1  -7   7  409.03   44.22   2
  -1  -7   6  420.17   40.34   2
  -1  -7   6  494.03    43.1   2
  -1  -7   6  461.51   47.45   2
  -1  -7   6  408.98   33.57   2
   1  -7  -6   367.7   25.82   2
   1  -7  -6  421.99   17.33   2
  -1  -7   6  421.65   17.27   2
  -1  -7   5  887.27   22.74   2
  -1  -7   5  898.15    48.4   2
   1  -7  -5  858.83   35.91   2
  -1  -7   5   971.4   59.25   2
  -1  -7   5  944.12   70.13   2
   1  -7  -5  842.67   39.32   2
  -1  -7   5  951.13   56.42   2
  -1  -7   4   670.3   40.51   2
   1  -7  -4  607.02   32.64   2
  -1  -7   4  616.65   44.22   2
  -1  -7   4  636.44   58.92   2
  -1  -7   4  634.87   40.28   2
   1  -7  -4  609.74   26.43   2
   1  -7  -4  594.33    25.3   2
   1  -7  -3  614.92   24.85   2
   1  -7  -3  666.08   34.38   2
  -1  -7   3  689.74   34.81   2
  -1  -7   3  537.89   38.04   2
   1  -7  -3  613.99   22.08   2
  -1  -7   3  665.56   39.33   2
  -1  -7   3  548.32   55.11   2
  -1  -7   2  523.02   31.27   2
  -1  -7   2  541.12   24.08   2
   1  -7  -2  523.21   18.38   2
  -1  -7   2  524.74   53.23   2
  -1  -7   2  568.31   35.03   2
   1  -7  -2  544.26   31.39   2
   1  -7  -2  509.12   21.28   2
  -1  -7   1  867.29    67.9   2
  -1  -7   1  885.91   22.88   2
  -1  -7   1  901.11   43.88   2
   1  -7  -1  881.38   40.73   2
   1  -7  -1  866.33      28   2
   1  -7  -1     822   23.38   2
   1  -7   0  429.88   19.68   2
  -1  -7   0  453.47   30.35   2
  -1  -7   0  495.82   47.78   2
   1  -7   0  455.14   29.62   2
  -1  -7  -1  336.46   36.87   2
   1  -7   1  324.91   26.02   2
   1  -7   1  307.52   17.46   2
  -1  -7  -1  324.06   25.82   2
  -1  -7  -2   481.1   39.84   2
   1  -7   2  443.64   23.14   2
  -1  -7  -2  488.02   18.96   2
  -1  -7  -2  452.44   30.78   2
  -1  -7  -3  415.28   19.48   2
  -1  -7  -3   417.8   12.21   2
  -1  -7  -3  470.94    35.3   2
  -1  -7  -3  439.51   18.09   2
  -1  -7  -3   446.6   30.67   2
   1  -7   3  465.13   26.15   2
   1  -7   4  245.17   21.32   2
  -1  -7  -4  229.33   20.12   2
  -1  -7  -4  238.07   14.02   2
  -1  -7  -4  218.57   21.52   2
  -1  -7  -4  211.24   21.62   2
   1  -7   5  387.13   12.34   2
   1  -7   5  394.87   30.62   2
  -1  -7  -5  378.16   26.96   2
  -1  -7  -5  385.71   30.18   2
  -1  -7  -5  399.22   19.73   2
  -1  -7  -5  410.62   32.19   2
  -1  -7  -6  328.05    32.1   2
  -1  -7  -6  261.37    17.2   2
  -1  -7  -6  270.82   21.37   2
  -1  -7  -6  254.74   25.62   2
   1  -7   6  269.69   27.81   2
  -1  -7  -7  313.82   29.69   2
  -1  -7  -7  327.34   21.63   2
  -1  -7  -7  319.33   20.77   2
  -1  -7  -7  391.77   38.61   2
   1  -7   7  327.96    33.4   2
  -1  -7  -8  287.22   18.45   2
  -1  -7  -8   282.1   21.56   2
  -1  -7  -8  252.76   27.15   2
   1  -7   8  290.09   33.97   2
  -1  -7  -9  275.44   23.55   2
   1  -7   9  310.98   37.02   2
  -1  -7  -9  241.31   27.83   2
  -1  -7 -10  141.48   22.23   2
  -1  -7 -10   153.3   19.26   2
   1  -7  10  123.17   24.62   2
  -1  -7 -11  232.59   29.82   2
  -1  -7 -11  267.69   27.83   2
   1  -7  11  298.59   41.19   2
   1  -7  12  236.28   37.46   2
  -1  -7 -12  145.11   25.22   2
   1  -7  12  229.94   35.91   2
  -1  -7 -12   128.1   20.16   2
  -1  -6  13   28.06   10.63   2
   1  -6 -12  330.36   41.49   2
  -1  -6  12   507.9   52.16   2
  -1  -6  11  139.78   21.74   2
  -1  -6  11   138.2   26.26   2
   1  -6 -11  102.65   20.78   2
  -1  -6  11  110.12    17.6   2
   1  -6 -10  390.73    29.3   2
   1  -6 -10     383   39.79   2
  -1  -6  10  356.28   29.63   2
  -1  -6  10  460.91   41.15   2
  -1  -6  10  408.28   34.03   2
  -1  -6  10  473.05   48.86   2
  -1  -6   9  100.06   16.37   2
   1  -6  -9  116.06   14.92   2
  -1  -6   9  111.19   14.76   2
  -1  -6   9  101.14   21.57   2
   1  -6  -9   97.17    18.8   2
  -1  -6   9   71.93   16.44   2
   1  -6  -8  998.74   31.74   2
  -1  -6   8 1106.48   55.36   2
  -1  -6   8 1127.18   55.82   2
   1  -6  -8 1052.12   58.02   2
  -1  -6   8 1186.42   74.51   2
  -1  -6   8  969.85   63.05   2
  -1  -6   8 1099.17   42.43   2
  -1  -6   7  411.99   32.23   2
   1  -6  -7  369.91   24.96   2
   1  -6  -7  382.01   25.11   2
  -1  -6   7  419.42   42.76   2
  -1  -6   7   438.1   41.99   2
  -1  -6   7   418.2   33.13   2
   1  -6  -7  412.26   32.86   2
  -1  -6   7  390.52   21.56   2
  -1  -6   7  490.02   44.86   2
  -1  -6   6  824.14   56.74   2
   1  -6  -6  834.89   36.86   2
  -1  -6   6  878.45   45.84   2
   1  -6  -6  853.13   37.29   2
  -1  -6   6  850.57   28.34   2
  -1  -6   6  905.59   46.82   2
   1  -6  -6  919.79   45.73   2
  -1  -6   6  991.09   61.79   2
  -1  -6   6 1040.01   67.61   2
   1  -6  -5  629.77   31.28   2
   1  -6  -5  653.02   31.72   2
  -1  -6   5  613.74   44.82   2
  -1  -6   5  734.77   57.92   2
  -1  -6   5  631.92   37.12   2
  -1  -6   5   652.3   37.67   2
  -1  -6   5  678.63   48.69   2
   1  -6  -5  618.93   34.57   2
  -1  -6   5  637.42   20.79   2
   1  -6  -5  575.16   29.06   2
  -1  -6   4 1947.63   65.33   2
   1  -6  -4 1931.37   56.36   2
  -1  -6   4 1867.46   78.44   2
  -1  -6   4 1931.59   65.71   2
  -1  -6   4 1989.56   37.41   2
  -1  -6   4 1957.46   73.54   2
   1  -6  -4 1963.65    57.2   2
  -1  -6   4 1988.51   99.76   2
   1  -6  -4 1877.24   48.09   2
  -1  -6   3  798.66   39.63   2
  -1  -6   3  671.69   57.83   2
   1  -6  -3   784.9   24.97   2
  -1  -6   3  867.76   39.55   2
   1  -6  -3  773.71    27.3   2
  -1  -6   3  831.12   40.01   2
   1  -6  -3  796.83   34.97   2
   1  -6  -3  794.46   34.41   2
  -1  -6   3  676.98   41.52   2
   1  -6  -2 1175.02   43.09   2
  -1  -6   2 1135.69    45.3   2
  -1  -6   2 1185.07   36.92   2
   1  -6  -2 1159.78   28.37   2
   1  -6  -2 1181.38   43.43   2
  -1  -6   2 1202.98   47.67   2
  -1  -6   2 1208.79   47.24   2
   1  -6  -2 1165.18   32.45   2
   1  -6  -1 1147.64    43.3   2
   1  -6  -1 1138.58      43   2
   1  -6  -1 1055.32    29.7   2
  -1  -6   1 1088.02   70.65   2
  -1  -6   1 1077.23   26.31   2
  -1  -6   1  1118.2   44.79   2
  -1  -6   1 1138.51   45.54   2
   1  -6  -1 1073.69   26.73   2
  -1  -6   0 2046.47    63.3   2
   1  -6   0 2187.79    64.3   2
   1  -6   0 2096.73   45.63   2
  -1  -6   0 2038.63   30.02   2
  -1  -6   0 2112.15   63.91   2
  -1  -6   0 2113.84   93.59   2
   1  -6   0 2134.74   63.04   2
  -1  -6  -1 1153.55   46.38   2
  -1  -6  -1 1180.65   63.49   2
   1  -6   1 1164.71   46.63   2
  -1  -6  -1 1159.96   46.12   2
   1  -6   1 1099.51   32.75   2
  -1  -6  -2 1270.31   48.57   2
   1  -6   2  1258.1   38.23   2
  -1  -6  -2 1231.03   58.26   2
  -1  -6  -2 1217.85   29.95   2
   1  -6   2 1303.66   51.81   2
  -1  -6  -2 1280.15   48.65   2
   1  -6   3 1322.07   43.46   2
  -1  -6  -3 1323.91   54.59   2
   1  -6   3  1391.7   55.81   2
  -1  -6  -3 1236.57   37.81   2
  -1  -6  -3 1320.25   32.46   2
  -1  -6  -3 1334.43   50.94   2
  -1  -6  -3 1325.48   50.66   2
  -1  -6  -4 1741.86   58.68   2
  -1  -6  -4 1810.96   62.53   2
   1  -6   4 1765.42    57.5   2
  -1  -6  -4 1679.08   58.73   2
  -1  -6  -4 1779.04    41.6   2
   1  -6   5  545.71   34.58   2
  -1  -6  -5  551.83    29.6   2
  -1  -6  -5  541.59   34.75   2
  -1  -6  -5   578.7    39.2   2
  -1  -6  -5  549.81   23.73   2
  -1  -6  -6 1042.92   59.74   2
  -1  -6  -6  878.22   33.68   2
  -1  -6  -6  925.36   36.77   2
  -1  -6  -6  903.41   46.69   2
   1  -6   6  913.26   51.01   2
  -1  -6  -7  642.11   31.33   2
   1  -6   7  661.23   47.13   2
  -1  -6  -7  651.38   41.27   2
  -1  -6  -7  646.67   28.21   2
  -1  -6  -8  905.21   30.07   2
   1  -6   8  858.12   58.79   2
  -1  -6  -8  907.72   51.49   2
  -1  -6  -8  834.12   39.99   2
   1  -6   9  198.62   29.86   2
  -1  -6  -9  122.58   19.12   2
  -1  -6  -9  171.73   19.51   2
  -1  -6 -10  444.94   41.41   2
   1  -6  10  420.06   46.14   2
  -1  -6 -10  397.11   32.75   2
  -1  -6 -10  363.59   35.88   2
   1  -6  11     202   33.24   2
  -1  -6 -11  173.98   23.23   2
  -1  -6 -11   196.4   29.37   2
  -1  -6 -11  163.68   24.88   2
  -1  -6 -12  281.62    37.1   2
  -1  -6 -12  274.47   34.18   2
  -1  -6 -12  268.67   30.95   2
   1  -6  12  377.36    47.2   2
  -1  -6 -13      49    14.4   2
  -1  -6 -14  130.74   23.94   2
  -1  -5  13   118.3   20.21   2
  -1  -5  13  128.48   26.84   2
   1  -5 -13  122.24   25.56   2
  -1  -5  12  701.07   61.19   2
   1  -5 -12  574.72    53.7   2
  -1  -5  12  599.01   46.83   2
  -1  -5  11   80.42   19.15   2
  -1  -5  11   66.53   14.05   2
   1  -5 -11   78.33   17.91   2
   1  -5 -11   72.62   13.09   2
  -1  -5  11   78.67   15.38   2
  -1  -5  11   82.43   15.31   2
  -1  -5  10  617.27   55.39   2
  -1  -5  10  513.17   35.98   2
  -1  -5  10  449.84   36.16   2
   1  -5 -10  461.99    44.2   2
   1  -5 -10  481.65   31.99   2
  -1  -5  10   609.3   44.19   2
  -1  -5   9  202.41    25.6   2
  -1  -5   9  206.67   22.04   2
   1  -5  -9  168.43    17.7   2
   1  -5  -9  211.89   19.45   2
  -1  -5   9  202.41   21.91   2
  -1  -5   9  234.12   33.71   2
  -1  -5   9  209.16   22.33   2
   1  -5  -9  213.28   28.32   2
   1  -5  -8  757.19    20.5   2
  -1  -5   8   768.1   51.64   2
  -1  -5   8  788.03   43.13   2
  -1  -5   8   830.8   44.13   2
   1  -5  -8  792.99   36.76   2
  -1  -5   8  852.57   62.42   2
   1  -5  -8  761.07   35.83   2
  -1  -5   8  795.19    39.6   2
   1  -5  -8  760.95   50.25   2
  -1  -5   7    46.4   14.51   2
   1  -5  -7   31.72    6.47   2
   1  -5  -7   36.15    6.69   2
   1  -5  -7   41.48    9.96   2
  -1  -5   7   39.37    13.3   2
  -1  -5   7   36.07    7.19   2
  -1  -5   7   32.15    8.11   2
  -1  -5   7   23.74    7.46   2
  -1  -5   7   30.34   10.01   2
  -1  -5   6  704.19   37.25   2
  -1  -5   6  673.66   27.56   2
  -1  -5   6  770.09   54.06   2
  -1  -5   6  794.72   54.74   2
  -1  -5   6  588.91   47.42   2
   1  -5  -6  695.93   30.99   2
   1  -5  -6  664.34   38.65   2
  -1  -5   6  726.02   38.14   2
   1  -5  -6  668.22    30.3   2
   1  -5  -6  619.64   34.75   2
  -1  -5   5  457.79   28.75   2
   1  -5  -5  458.75   24.13   2
  -1  -5   5  441.87   37.73   2
  -1  -5   5  459.72   28.65   2
  -1  -5   5  510.87   44.78   2
   1  -5  -5  436.71   28.16   2
   1  -5  -5  422.86   24.94   2
  -1  -5   5  519.95   41.68   2
  -1  -5   5  443.77   18.75   2
   1  -5  -5  427.97   23.42   2
   1  -5  -4   747.9   30.75   2
  -1  -5   4   805.7   45.41   2
  -1  -5   4   758.2   56.08   2
   1  -5  -4  740.76   33.77   2
  -1  -5   4  794.67   36.64   2
  -1  -5   4  758.86   35.61   2
  -1  -5   4   745.5   21.62   2
  -1  -5   4  682.04   44.71   2
   1  -5  -4  766.16   30.85   2
   1  -5  -4  704.25    27.4   2
   1  -5  -3  103.96   11.08   2
  -1  -5   3  106.15   12.51   2
  -1  -5   3   87.82   13.66   2
   1  -5  -3  106.25    8.51   2
   1  -5  -3   98.61   10.46   2
  -1  -5   3  114.27   13.83   2
  -1  -5   3  104.81    6.71   2
  -1  -5   3  105.96   12.72   2
  -1  -5   3  116.39   21.45   2
   1  -5  -2  474.77    24.1   2
  -1  -5   2  479.85   26.28   2
  -1  -5   2  481.98   26.68   2
  -1  -5   2  454.25    26.1   2
   1  -5  -2  424.44   17.77   2
   1  -5  -2  465.57   23.84   2
  -1  -5   2  441.03   42.08   2
  -1  -5   2  484.64   22.13   2
   1  -5  -2  447.29   16.32   2
  -1  -5   1  531.31      44   2
   1  -5  -1  435.39   17.22   2
  -1  -5   1  496.82   26.46   2
  -1  -5   1  475.64   16.15   2
   1  -5  -1  443.31   15.68   2
   1  -5  -1  481.72   25.16   2
  -1  -5   1  511.97   27.14   2
   1  -5  -1  491.86   25.33   2
   1  -5   0  394.14   16.47   2
  -1  -5   0  448.56   25.18   2
   1  -5   0  441.48   24.92   2
  -1  -5   0  430.85   36.56   2
  -1  -5   0  433.31   25.08   2
  -1  -5   0  397.53   10.08   2
  -1  -5  -1  560.48   18.41   2
   1  -5   1  593.34   30.36   2
  -1  -5  -1   587.7   29.88   2
   1  -5   1  559.77   21.03   2
  -1  -5  -1  600.11   40.09   2
  -1  -5  -1  574.05   29.37   2
   1  -5   2  244.29   20.32   2
  -1  -5  -2  212.82   18.16   2
  -1  -5  -2  219.68   11.39   2
   1  -5   2   222.1   14.42   2
  -1  -5  -2  204.52   17.72   2
   1  -5   2  168.34     7.5   2
  -1  -5  -2  227.68   22.04   2
  -1  -5  -3  725.69    35.1   2
   1  -5   3  675.55   29.23   2
  -1  -5  -3  675.65   22.08   2
   1  -5   3  703.66   37.17   2
  -1  -5  -3  637.71   27.11   2
  -1  -5  -3  702.56   34.73   2
  -1  -5  -3   680.7    34.7   2
   1  -5   4  177.93   16.84   2
   1  -5   4  163.97   19.03   2
  -1  -5  -4  153.72   11.25   2
  -1  -5  -4  127.44   16.01   2
  -1  -5  -4  176.06    17.7   2
  -1  -5  -4  156.31   14.86   2
  -1  -5  -4  149.04   16.43   2
   1  -5   5  568.68   34.86   2
   1  -5   5  564.44   37.68   2
  -1  -5  -5  565.74    33.9   2
  -1  -5  -5   555.7   33.89   2
  -1  -5  -5  539.42   26.59   2
  -1  -5  -5  519.82   38.04   2
  -1  -5  -5   541.5   24.06   2
  -1  -5  -6   22.98    8.14   2
   1  -5   6   29.16    8.07   2
  -1  -5  -6   19.28    7.02   2
  -1  -5  -6   19.88    5.26   2
  -1  -5  -6   12.39    4.06   2
  -1  -5  -7  716.38   42.82   2
  -1  -5  -7  732.27   26.45   2
  -1  -5  -7  724.64   41.71   2
   1  -5   7   721.1   48.95   2
  -1  -5  -7  694.64   34.27   2
  -1  -5  -8  177.88   22.14   2
   1  -5   8  183.66   26.53   2
  -1  -5  -8   174.3   21.82   2
  -1  -5  -8  175.06   18.76   2
  -1  -5  -9  512.76   41.15   2
  -1  -5  -9  419.32   36.36   2
   1  -5   9  521.38   48.54   2
  -1  -5  -9  511.92   36.02   2
  -1  -5 -10   68.08   15.34   2
  -1  -5 -10   55.52   12.09   2
  -1  -5 -10    44.6   12.88   2
   1  -5  10   31.49   11.39   2
  -1  -5 -11  405.65   39.73   2
  -1  -5 -11  421.72   38.35   2
  -1  -5 -11     415   42.19   2
   1  -5  11   475.7   51.46   2
   1  -5  12  251.59   38.77   2
  -1  -5 -12  172.58   25.83   2
  -1  -5 -12  183.96   29.42   2
  -1  -5 -12  188.52   27.61   2
   1  -5  13  341.19   43.74   2
  -1  -5 -13  297.26   35.16   2
  -1  -5 -13  310.57   36.62   2
  -1  -5 -13  280.98   38.14   2
   1  -5  13  382.08    48.2   2
  -1  -5 -14   51.92   15.49   2
  -1  -4  14   90.47   19.69   2
  -1  -4  13    1.97    2.74   2
  -1  -4  13    6.25    3.87   2
   1  -4 -13    16.3   11.78   2
   1  -4 -12  533.91   50.69   2
  -1  -4  12   586.8   55.34   2
  -1  -4  12  521.55   45.39   2
   1  -4 -11   56.49   15.78   2
  -1  -4  11   44.81   13.08   2
   1  -4 -11   67.71    11.7   2
  -1  -4  11   39.83   11.92   2
  -1  -4  11   58.76   11.86   2
  -1  -4  10  567.22    39.1   2
   1  -4 -10  433.14   43.06   2
  -1  -4  10  562.42   52.49   2
   1  -4 -10  451.89   31.02   2
  -1  -4   9   59.75    12.9   2
   1  -4  -9   74.03   11.06   2
   1  -4  -9   64.69   15.49   2
  -1  -4   9   91.35   13.77   2
  -1  -4   9   86.18   15.22   2
  -1  -4   9   87.45   12.62   2
   1  -4  -9    86.5    12.3   2
  -1  -4   9   88.55   20.89   2
   1  -4  -8  1514.8   73.63   2
  -1  -4   8 1636.79   58.59   2
   1  -4  -8 1654.87   53.51   2
   1  -4  -8 1570.34   51.42   2
  -1  -4   8 1641.91   63.69   2
  -1  -4   7  201.68   24.49   2
   1  -4  -7  185.92   15.53   2
  -1  -4   7  179.72   17.58   2
   1  -4  -7  169.01   14.89   2
   1  -4  -7  163.19    8.98   2
   1  -4  -7   177.6   22.01   2
  -1  -4   7   204.7   28.98   2
  -1  -4   7   182.5   17.57   2
   1  -4  -6 1598.22   46.01   2
  -1  -4   6 1605.38   53.02   2
   1  -4  -6 1499.67   56.03   2
   1  -4  -6  1646.6    46.6   2
   1  -4  -6 1514.06   61.44   2
  -1  -4   6    1347   71.79   2
  -1  -4   6 1922.98   79.93   2
  -1  -4   6 1686.71    54.3   2
  -1  -4   6  1610.3   49.02   2
  -1  -4   5  403.84   23.93   2
  -1  -4   5  366.07   18.56   2
  -1  -4   5   352.3   33.19   2
  -1  -4   5   396.6   35.05   2
   1  -4  -5  344.12   25.43   2
  -1  -4   5  384.16   23.44   2
  -1  -4   5  462.48   38.68   2
   1  -4  -5  355.08   22.76   2
   1  -4  -5  376.02    19.7   2
   1  -4  -5  380.39   19.63   2
  -1  -4   4 3505.09   78.54   2
  -1  -4   4 3614.52   79.75   2
   1  -4  -4  3611.7   73.11   2
  -1  -4   4 3899.29  121.26   2
   1  -4  -4 3811.95   72.61   2
   1  -4  -4 3879.34   73.21   2
   1  -4  -4 3887.86    84.3   2
  -1  -4   4 3910.13   64.93   2
  -1  -4   4 3675.64  101.37   2
   1  -4  -3  655.32   25.53   2
  -1  -4   3  655.43   28.64   2
   1  -4  -3  680.43    26.2   2
   1  -4  -3  681.55   23.04   2
  -1  -4   3  704.59   29.76   2
  -1  -4   3   673.1   19.28   2
  -1  -4   3   590.3   45.18   2
   1  -4  -3  696.69   28.39   2
  -1  -4   3  706.24   33.95   2
  -1  -4   2 2467.82   59.39   2
  -1  -4   2 2402.56   91.38   2
   1  -4  -2 2601.69    57.1   2
  -1  -4   2 2499.79   60.51   2
   1  -4  -2  2647.5   57.54   2
   1  -4  -2 2644.84      50   2
  -1  -4   2 2473.19   55.31   2
   1  -4  -2 2645.46   47.06   2
   1  -4  -1 1196.76   36.84   2
  -1  -4   1 1164.99   38.34   2
  -1  -4   1 1153.73   37.93   2
   1  -4  -1 1158.82   28.53   2
   1  -4  -1  1148.3   26.41   2
  -1  -4   1 1172.59   59.23   2
  -1  -4   1 1138.12   26.59   2
   1  -4   0 4812.89   90.82   2
  -1  -4   0 4274.07   89.36   2
  -1  -4   0 4422.98   89.81   2
  -1  -4   0 5059.51   63.48   2
   1  -4   0 4743.09   74.59   2
   1  -4   0 4919.91   75.55   2
  -1  -4   0 4613.96  118.52   2
  -1  -4  -1 1069.35   46.88   2
   1  -4   1 1059.77    28.6   2
   1  -4   1 1073.18   22.87   2
   1  -4   1  1143.6   39.69   2
  -1  -4  -1 1079.51   38.13   2
  -1  -4  -1  1041.9   37.27   2
  -1  -4  -1 1030.08    25.2   2
  -1  -4  -2 3142.05   78.12   2
   1  -4   2 3193.31   75.94   2
  -1  -4  -2 3290.02   53.72   2
  -1  -4  -2 3230.62   73.86   2
  -1  -4  -2 3165.08   49.38   2
   1  -4   2 3050.54   60.68   2
  -1  -4  -2 3205.15   73.34   2
   1  -4   3   763.9   36.98   2
  -1  -4  -3  721.18   29.03   2
  -1  -4  -3  742.71   32.63   2
  -1  -4  -3   754.9   34.43   2
   1  -4   3  792.06   30.68   2
  -1  -4  -3  732.22   23.42   2
  -1  -4  -3  755.03   34.81   2
   1  -4   4  3856.5      89   2
  -1  -4  -4 4048.79   93.36   2
  -1  -4  -4 3968.62   93.14   2
  -1  -4  -4 4033.38   81.35   2
  -1  -4  -4 3766.43   95.48   2
  -1  -4  -4 4035.82   73.23   2
   1  -4   5  611.28   28.46   2
  -1  -4  -5  604.91   34.36   2
  -1  -4  -5  622.89   34.57   2
  -1  -4  -5  602.03   26.52   2
  -1  -4  -5  617.56   25.43   2
  -1  -4  -5  553.69      39   2
   1  -4   5   597.7   35.15   2
  -1  -4  -6 1841.77   44.13   2
  -1  -4  -6 1854.46   61.98   2
   1  -4   6  1898.9   72.94   2
  -1  -4  -6 1776.21   65.25   2
   1  -4   6 1720.62   57.23   2
  -1  -4  -6 1799.99   64.55   2
  -1  -4  -6 1790.41    54.4   2
  -1  -4  -7   383.7   29.68   2
   1  -4   7  388.42   28.97   2
  -1  -4  -7  381.56   26.86   2
   1  -4   7  408.06   36.63   2
  -1  -4  -7  400.07   31.38   2
  -1  -4  -8 2041.99    78.6   2
  -1  -4  -8 1996.01   76.22   2
  -1  -4  -8 2040.68   71.59   2
   1  -4   8 2069.18   92.05   2
  -1  -4  -9  154.18   22.51   2
  -1  -4  -9  173.75   22.97   2
   1  -4   9  145.09   24.95   2
  -1  -4  -9  166.55   21.32   2
  -1  -4 -10  506.28   40.21   2
  -1  -4 -10  547.02   44.49   2
   1  -4  10  562.68   52.86   2
  -1  -4 -10  431.09   39.74   2
  -1  -4 -11  120.88   21.57   2
  -1  -4 -11  131.57   21.98   2
  -1  -4 -11  126.07   21.63   2
   1  -4  11  159.25   30.25   2
  -1  -4 -12  629.26   49.37   2
  -1  -4 -12  574.64   50.65   2
  -1  -4 -12   579.1   49.11   2
   1  -4  12  723.44   65.22   2
  -1  -4 -13   129.5   22.83   2
   1  -4  13   92.27   18.77   2
  -1  -4 -13   90.65   21.05   2
   1  -4  13  112.88   27.01   2
  -1  -4 -13  117.02   23.34   2
   1  -4  13  109.21   25.05   2
  -1  -4 -14   171.9   28.63   2
  -1  -3  15    29.1   11.72   2
  -1  -3  14  404.72   42.55   2
   1  -3 -13  111.43   22.79   2
  -1  -3  13   96.51   22.76   2
  -1  -3  13   98.35   19.15   2
  -1  -3  12  871.58   60.47   2
  -1  -3  12  1061.8   74.32   2
   1  -3 -12  941.52   67.34   2
  -1  -3  11   94.92    18.8   2
   1  -3 -11   89.65   19.86   2
  -1  -3  11  147.45   26.66   2
  -1  -3  11  106.27   14.72   2
   1  -3 -11  121.32   15.07   2
  -1  -3  11   119.2   14.25   2
   1  -3 -10  710.85   37.69   2
  -1  -3  10  731.29   37.03   2
  -1  -3  10  719.34   36.95   2
  -1  -3  10  813.95   62.17   2
   1  -3 -10  711.88   55.08   2
  -1  -3  10   873.6   44.13   2
  -1  -3   9  324.53   26.97   2
  -1  -3   9  239.12   20.25   2
   1  -3  -9  241.36   21.16   2
  -1  -3   9  241.25   20.24   2
  -1  -3   9  286.67   36.12   2
   1  -3  -9  250.29   31.83   2
  -1  -3   9  205.73   25.43   2
  -1  -3   8  977.55   64.89   2
   1  -3  -8  859.84   55.33   2
  -1  -3   8  885.73   49.89   2
  -1  -3   8  900.56   38.63   2
  -1  -3   8  823.61   36.25   2
   1  -3  -8  861.17   36.96   2
  -1  -3   7  415.86   31.87   2
   1  -3  -7  328.61   20.14   2
  -1  -3   7  333.59   21.79   2
   1  -3  -7  301.81   30.27   2
  -1  -3   7  342.41    36.3   2
   1  -3  -7  328.86   19.81   2
  -1  -3   7  364.78   28.03   2
   1  -3  -6  678.86   37.26   2
  -1  -3   6  709.63   39.02   2
  -1  -3   6  730.32   35.12   2
   1  -3  -6  696.06   27.06   2
   1  -3  -6  744.45   27.96   2
   1  -3  -6  678.89   42.38   2
  -1  -3   6  655.86    47.9   2
   1  -3  -6  702.24   20.12   2
  -1  -3   6  710.24   30.56   2
  -1  -3   6  824.24   45.97   2
  -1  -3   5  702.89   28.26   2
  -1  -3   5   691.2   28.87   2
  -1  -3   5  677.06   34.11   2
   1  -3  -5  653.91   24.35   2
   1  -3  -5  700.05   38.27   2
   1  -3  -5  663.02   31.92   2
  -1  -3   5   782.7   45.22   2
  -1  -3   5  737.11   46.05   2
   1  -3  -5  686.43      25   2
  -1  -3   5  664.49   27.78   2
  -1  -3   4  863.03   27.54   2
  -1  -3   4  937.13   35.76   2
   1  -3  -4   889.4      38   2
  -1  -3   4  916.94   45.14   2
   1  -3  -4  887.56   31.82   2
   1  -3  -4  920.14   27.55   2
  -1  -3   4  912.22   30.86   2
  -1  -3   4  904.35   30.63   2
   1  -3  -4  908.75   27.45   2
  -1  -3   4  865.16   48.35   2
   1  -3  -3  800.26   24.87   2
  -1  -3   3  791.49   22.25   2
  -1  -3   3   779.9   27.21   2
   1  -3  -3  834.85    25.7   2
  -1  -3   3  821.25   28.21   2
  -1  -3   3  738.19   44.39   2
  -1  -3   3  799.88   34.92   2
   1  -3  -3  807.82    25.5   2
   1  -3  -3  844.78   31.18   2
   1  -3  -2  761.91   21.57   2
   1  -3  -2  777.98   24.95   2
  -1  -3   2  759.46    26.3   2
   1  -3  -2  785.44   25.47   2
   1  -3  -2  811.28   25.37   2
  -1  -3   2     787   19.78   2
  -1  -3   2  771.81   26.41   2
  -1  -3   2  752.36   42.39   2
   1  -3  -2  758.87   15.47   2
  -1  -3   2  793.98    27.1   2
  -1  -3   1 1037.21   31.81   2
   1  -3  -1 1026.86   23.92   2
  -1  -3   1  982.84   31.42   2
   1  -3  -1  1066.9    17.4   2
   1  -3  -1 1037.79   28.89   2
  -1  -3   1 1016.44   24.06   2
   1  -3  -1  1024.1   30.68   2
   1  -3  -1  1005.6   25.11   2
  -1  -3   1 1028.31   47.66   2
  -1  -3   0   293.7   11.97   2
  -1  -3   0  324.43   24.07   2
  -1  -3   0     319   17.77   2
  -1  -3   0  301.53    9.05   2
   1  -3   0  312.28   17.14   2
   1  -3   0   306.9   11.88   2
   1  -3   0  300.77   12.47   2
  -1  -3   0  309.93   17.22   2
  -1  -3  -1  440.44   25.53   2
   1  -3   1  409.29   12.31   2
  -1  -3  -1  426.83   21.47   2
  -1  -3  -1  421.87   21.36   2
  -1  -3  -1  397.58   13.93   2
   1  -3   1  433.57   21.88   2
   1  -3   1  382.18   15.32   2
  -1  -3  -2  573.71   18.44   2
  -1  -3  -2  597.14   27.32   2
  -1  -3  -2  620.73   28.29   2
  -1  -3  -2  585.26    27.7   2
   1  -3   2  606.94   30.75   2
  -1  -3  -2  576.66   17.67   2
   1  -3   2  572.54   21.62   2
  -1  -3  -3  1256.4   44.59   2
   1  -3   3  1286.2   39.23   2
  -1  -3  -3  1200.4   38.03   2
  -1  -3  -3 1251.06   44.25   2
  -1  -3  -3 1219.86   31.95   2
   1  -3   3 1205.71    43.3   2
  -1  -3  -3 1283.12   38.77   2
   1  -3   4   146.7   13.89   2
   1  -3   4   152.4    12.2   2
  -1  -3  -4  155.92   16.04   2
  -1  -3  -4   170.9   12.12   2
  -1  -3  -4  163.62   12.44   2
  -1  -3  -4  170.82   14.26   2
  -1  -3  -4  155.31   15.66   2
   1  -3   4  181.95   16.47   2
  -1  -3  -4  154.73   16.58   2
   1  -3   5   784.3   34.14   2
  -1  -3  -5  879.78   36.67   2
   1  -3   5     872   33.93   2
   1  -3   5  890.97   43.38   2
  -1  -3  -5  824.32    46.7   2
  -1  -3  -5  885.48   42.28   2
  -1  -3  -5  841.68   40.65   2
  -1  -3  -5  850.31   27.15   2
  -1  -3  -5  843.46   33.14   2
  -1  -3  -6  175.73   23.58   2
   1  -3   6  183.76   21.98   2
   1  -3   6  200.33   21.62   2
  -1  -3  -6  155.05   18.26   2
  -1  -3  -6  172.21   19.34   2
   1  -3   6  174.32    18.2   2
  -1  -3  -6  175.26   17.65   2
   1  -3   6  196.49   14.72   2
  -1  -3  -6   164.8   16.27   2
  -1  -3  -7  929.53   49.77   2
   1  -3   7  999.75   53.29   2
   1  -3   7  962.04   57.36   2
  -1  -3  -7  976.06    47.5   2
   1  -3   7  950.15   49.88   2
   1  -3   8    99.4   18.45   2
  -1  -3  -8   95.12   16.85   2
  -1  -3  -8    96.7    16.4   2
  -1  -3  -9   739.6   48.68   2
   1  -3   9  827.94   61.79   2
  -1  -3 -10   27.61    9.35   2
  -1  -3 -10      18    8.08   2
  -1  -3 -11     606   49.63   2
  -1  -3 -11   533.8   44.02   2
   1  -3  11  690.98   61.82   2
  -1  -3 -12     166    24.8   2
   1  -3  12  164.51   30.45   2
  -1  -3 -12  134.79   23.67   2
   1  -3  12  151.88   22.75   2
   1  -3  13  479.22   51.57   2
   1  -3  13  474.31   54.02   2
  -1  -3 -13  453.06   46.09   2
   1  -3  13  450.86   40.24   2
  -1  -3 -14   43.26   11.85   2
   1  -3  15  281.58   36.46   2
  -1  -2  15    10.2     4.9   2
  -1  -2  14  182.45   28.75   2
   1  -2 -14  204.76   32.29   2
  -1  -2  14  210.74   33.46   2
  -1  -2  13   27.21   11.83   2
  -1  -2  13   18.18    8.85   2
   1  -2 -13   30.23    11.8   2
   1  -2 -12  913.47   65.51   2
  -1  -2  12  889.83   62.22   2
  -1  -2  12  945.25   69.44   2
  -1  -2  11   32.41   12.81   2
  -1  -2  11   29.04    6.26   2
   1  -2 -11   28.44   10.88   2
  -1  -2  11   36.98   13.04   2
  -1  -2  10  859.22   58.24   2
  -1  -2  10  906.73   64.89   2
  -1  -2  10   987.4   39.88   2
  -1  -2  10  975.25   39.16   2
  -1  -2  10  876.63   38.15   2
   1  -2 -10  903.01   62.03   2
  -1  -2  10  1020.2    42.2   2
  -1  -2   9   27.54   11.38   2
   1  -2  -9   28.76    7.08   2
  -1  -2   9   38.03   11.77   2
   1  -2  -9   27.69   10.34   2
  -1  -2   9   16.71    4.39   2
  -1  -2   9   23.58    5.56   2
  -1  -2   9   16.07     5.3   2
  -1  -2   9   13.42    3.77   2
  -1  -2   8 2226.65   87.46   2
   1  -2  -8 2461.11   67.19   2
  -1  -2   8    2997   79.05   2
  -1  -2   8 2607.75  106.52   2
  -1  -2   8  2472.1   64.28   2
  -1  -2   8 2277.98   60.52   2
   1  -2  -8 2681.95  102.98   2
  -1  -2   7   85.95   10.06   2
  -1  -2   7   93.59   18.38   2
   1  -2  -7  103.74   17.85   2
  -1  -2   7   93.21     9.8   2
   1  -2  -7   88.73    10.4   2
  -1  -2   7   96.49   15.45   2
  -1  -2   7  123.33   15.51   2
   1  -2  -6 1435.99   56.59   2
  -1  -2   6 1440.22   59.32   2
   1  -2  -6 1405.19   38.65   2
   1  -2  -6 1470.71   39.84   2
  -1  -2   6 1369.81   38.42   2
  -1  -2   6 1385.64   54.63   2
  -1  -2   6 1296.92    66.7   2
  -1  -2   6 1443.07   39.31   2
   1  -2  -6 1440.42   67.01   2
  -1  -2   5   87.64   14.45   2
   1  -2  -5    93.9       8   2
  -1  -2   5   86.58   12.59   2
   1  -2  -5   91.68   15.69   2
  -1  -2   5   87.35    8.02   2
  -1  -2   5  101.64    11.9   2
   1  -2  -5   88.18    7.71   2
   1  -2  -5   80.79   11.27   2
   1  -2  -5   86.74    6.61   2
  -1  -2   5   90.45   12.96   2
  -1  -2   4 3569.94   62.41   2
   1  -2  -4 3794.06   60.29   2
  -1  -2   4 3563.98   92.51   2
  -1  -2   4 3569.09   70.81   2
  -1  -2   4 3686.95   80.75   2
   1  -2  -4 3586.67   74.84   2
  -1  -2   4 3446.53   61.98   2
   1  -2  -4 3795.56   59.97   2
   1  -2  -4 3797.41   93.88   2
  -1  -2   4 3552.68   91.95   2
   1  -2  -3  446.48   18.66   2
  -1  -2   3  458.64   21.83   2
  -1  -2   3  452.75   16.28   2
  -1  -2   3  459.67   24.06   2
  -1  -2   3  468.25   16.85   2
   1  -2  -3  441.28    24.6   2
   1  -2  -3  439.03   14.86   2
  -1  -2   3  425.45   28.43   2
  -1  -2   3  455.42   17.46   2
   1  -2  -3  461.61   15.46   2
   1  -2  -2  989.05   24.98   2
   1  -2  -2 1022.64   30.74   2
  -1  -2   2 1004.65   23.23   2
  -1  -2   2 1005.47   26.11   2
   1  -2  -2  1013.1    24.5   2
  -1  -2   2  952.03   41.57   2
  -1  -2   2  977.94   28.78   2
  -1  -2   2  965.97   25.69   2
   1  -2  -2   958.7   24.25   2
   1  -2  -2  982.27   30.75   2
   1  -2  -1  277.13   13.03   2
   1  -2  -1  278.39    8.02   2
  -1  -2   1  309.94   21.91   2
   1  -2  -1  278.63   12.46   2
  -1  -2   1  294.05   14.06   2
  -1  -2   1  271.69   10.19   2
   1  -2  -1  258.68   10.98   2
   1  -2  -1  281.41    11.4   2
   1  -2  -1  273.67   18.04   2
  -1  -2   1  296.09   13.91   2
   1  -2  -1  268.17   10.63   2
  -1  -2   1  282.74   11.18   2
  -1  -2   0 3885.63   84.83   2
   1  -2   0 4165.83    57.8   2
  -1  -2   0 3945.28   72.83   2
  -1  -2   0 3919.84   72.47   2
   1  -2   0 3578.02   78.38   2
   1  -2   0 4217.59   60.67   2
  -1  -2   0 4471.76   62.39   2
   1  -2   0 4395.97   63.05   2
   1  -2   1  214.11   15.19   2
   1  -2   1  206.03    8.52   2
  -1  -2  -1   229.1   15.17   2
   1  -2   1  213.68   10.53   2
  -1  -2  -1  213.92    6.83   2
  -1  -2  -1  210.33     9.4   2
  -1  -2  -1  230.73   15.28   2
  -1  -2  -1  235.56   16.32   2
   1  -2   2  612.87   16.55   2
  -1  -2  -2  619.97   28.23   2
   1  -2   2  566.66   25.02   2
   1  -2   2  587.16   21.18   2
  -1  -2  -2  625.09   24.35   2
  -1  -2  -2  615.05   27.98   2
  -1  -2  -2   606.8   18.81   2
  -1  -2  -2  606.45   18.97   2
   1  -2   3  703.53    28.2   2
   1  -2   3  681.72   23.56   2
  -1  -2  -3  697.62   27.38   2
  -1  -2  -3  730.46   25.61   2
   1  -2   3  766.21   28.85   2
  -1  -2  -3  709.02   32.61   2
  -1  -2  -3  698.02   24.55   2
  -1  -2  -3  720.68   33.37   2
  -1  -2  -3  695.18   23.81   2
  -1  -2  -4 2938.07    63.1   2
  -1  -2  -4 2775.53   75.05   2
   1  -2   4 2788.99   71.93   2
   1  -2   4 2675.27    61.7   2
   1  -2   4 2624.65   64.68   2
  -1  -2  -4 2944.16   64.37   2
  -1  -2  -4 2899.17   55.61   2
  -1  -2  -4 2875.04   78.21   2
  -1  -2  -4 2823.28   76.93   2
  -1  -2  -5  112.46   16.55   2
   1  -2   5  116.51   14.53   2
  -1  -2  -5  116.58   12.84   2
   1  -2   5  104.53   10.27   2
   1  -2   5  120.81   16.06   2
   1  -2   5  124.38   16.29   2
  -1  -2  -5  100.47   14.51   2
   1  -2   6 1294.87   38.73   2
  -1  -2  -6 1204.01   56.57   2
   1  -2   6 1125.56   53.15   2
   1  -2   6 1242.97    59.5   2
  -1  -2  -6 1248.93    49.9   2
   1  -2   6 1242.76   56.29   2
  -1  -2  -6 1240.47   63.62   2
  -1  -2  -7  141.56   22.66   2
   1  -2   7  102.58   17.09   2
   1  -2   7  114.38   17.68   2
   1  -2   7  150.25   11.57   2
   1  -2   7   96.82   16.53   2
  -1  -2  -7  118.53   16.31   2
  -1  -2  -7  143.58   19.99   2
   1  -2   8  1621.1   82.89   2
  -1  -2  -8 1666.49   74.32   2
   1  -2   8 1602.54   71.86   2
  -1  -2  -8 1485.46   66.99   2
  -1  -2  -9    40.8   11.22   2
  -1  -2  -9    47.8   12.13   2
   1  -2   9   56.64   15.07   2
  -1  -2 -10  585.83   44.82   2
  -1  -2 -10  648.84   48.65   2
  -1  -2 -11   73.15   17.92   2
  -1  -2 -11   84.01   17.05   2
   1  -2  11   66.06   13.66   2
   1  -2  11   77.96   18.92   2
   1  -2  12  782.82   66.42   2
   1  -2  12  650.88   46.42   2
  -1  -2 -12   618.3   51.69   2
   1  -2  12  766.36   63.33   2
   1  -2  13  115.36   19.08   2
   1  -2  13  121.51    27.9   2
  -1  -2 -13  105.55   22.29   2
   1  -2  13  124.13   27.01   2
  -1  -2 -14   262.5   35.42   2
  -1  -1  14   508.8   49.61   2
   1  -1 -14     504   50.93   2
  -1  -1  14  545.45   53.86   2
  -1  -1  13   11.32     3.4   2
  -1  -1  13    4.89    5.27   2
   1  -1 -13   12.94     9.6   2
  -1  -1  12 1174.87   73.23   2
   1  -1 -12 1177.14   74.85   2
  -1  -1  12    1155   76.26   2
   1  -1 -11   -2.59    4.04   2
  -1  -1  11   11.67    5.45   2
  -1  -1  11    8.03    5.84   2
  -1  -1  11    5.02    3.58   2
  -1  -1  10  852.49   35.34   2
  -1  -1  10  763.03   56.17   2
  -1  -1  10  773.56   29.19   2
  -1  -1  10  798.31   59.75   2
   1  -1 -10  760.38   57.83   2
  -1  -1  10  833.18    35.1   2
  -1  -1   9    -4.8    6.72   2
  -1  -1   9    0.79    1.07   2
  -1  -1   9   -2.05    7.12   2
  -1  -1   9    2.37    2.38   2
  -1  -1   9    2.13    2.77   2
  -1  -1   8 1447.44   44.88   2
  -1  -1   8 1464.37   47.39   2
  -1  -1   8  1444.5   44.35   2
   1  -1  -8 1428.19   74.59   2
  -1  -1   7   28.04   11.42   2
   1  -1  -7   29.29    8.87   2
  -1  -1   7   26.41     7.8   2
   1  -1  -7   45.32    7.66   2
  -1  -1   7   34.36     6.1   2
  -1  -1   7   40.09    4.83   2
   1  -1  -7   34.95    4.15   2
  -1  -1   7   38.91     6.5   2
  -1  -1   7   46.16     9.1   2
  -1  -1   6  714.07   41.48   2
   1  -1  -6  705.75   40.75   2
   1  -1  -6  776.41   29.98   2
   1  -1  -6  840.55    52.5   2
  -1  -1   6  782.44   28.21   2
  -1  -1   6  680.43   22.85   2
  -1  -1   6  830.07   36.84   2
  -1  -1   6  693.43   45.87   2
   1  -1  -6  587.29   18.54   2
  -1  -1   6  671.41   42.13   2
   1  -1  -6  814.14   24.55   2
  -1  -1   6  740.66   24.14   2
  -1  -1   5   57.19    12.2   2
   1  -1  -5   39.33    8.33   2
  -1  -1   5   47.82    9.58   2
   1  -1  -5   42.25    5.59   2
   1  -1  -5   60.96   13.56   2
  -1  -1   5   45.58    4.74   2
  -1  -1   5   42.31    8.21   2
  -1  -1   5   38.89    5.18   2
   1  -1  -5   48.44    4.93   2
  -1  -1   5   37.82    4.83   2
   1  -1  -5   40.37    5.91   2
  -1  -1   5   47.71    8.89   2
   1  -1  -5   40.11     8.4   2
  -1  -1   4  701.27   29.56   2
   1  -1  -4  680.14   20.81   2
  -1  -1   4  640.03   31.94   2
   1  -1  -4  690.59   29.52   2
  -1  -1   4  674.93   24.43   2
   1  -1  -4  679.13   25.54   2
  -1  -1   4  711.51   35.09   2
  -1  -1   4  642.02   32.24   2
   1  -1  -4  657.02    17.4   2
   1  -1  -4  695.33   17.96   2
   1  -1  -4  775.17   45.12   2
  -1  -1   3  408.55   21.08   2
   1  -1  -3  385.36   16.01   2
   1  -1  -3  384.88   18.01   2
  -1  -1   3  403.63   24.42   2
  -1  -1   3  401.94   20.87   2
   1  -1  -3  412.34   10.89   2
   1  -1  -3  408.57   10.83   2
   1  -1  -3  421.34   29.83   2
  -1  -1   3  391.37   18.75   2
   1  -1  -3  406.25   20.02   2
  -1  -1   3  397.78   17.63   2
   1  -1  -2  499.73   16.98   2
   1  -1  -2  497.94   21.31   2
   1  -1  -2  524.89   22.74   2
  -1  -1   2   404.2    12.7   2
  -1  -1   2  503.25   18.32   2
  -1  -1   2  521.71   16.64   2
   1  -1  -2  475.19   26.75   2
  -1  -1   2  549.55   27.11   2
   1  -1  -2  515.38   12.41   2
  -1  -1   2  497.18   19.06   2
   1  -1  -2  511.42   19.32   2
  -1  -1   2  526.57   22.44   2
  -1  -1   1  442.97   22.38   2
  -1  -1   1  404.25   20.58   2
  -1  -1   1  384.92   12.41   2
   1  -1  -1  410.16   13.83   2
   1  -1  -1  409.78   20.21   2
   1  -1  -1  371.76   17.74   2
   1  -1  -1  386.36   10.92   2
  -1  -1   1  415.21   15.57   2
  -1  -1   1  413.03   15.66   2
   1  -1  -1  422.47    18.6   2
   1  -1  -1  390.57   12.94   2
  -1  -1   1  407.69   13.12   2
   1  -1   0  341.43   16.87   2
   1  -1   0  339.01   18.48   2
  -1  -1   0   333.2    16.9   2
  -1  -1   0  332.91   11.18   2
  -1  -1   0  354.65   18.35   2
   1  -1   0   342.7   11.14   2
  -1  -1   0  349.96   17.45   2
   1  -1   0  340.66   11.42   2
   1  -1   0  329.32    10.1   2
  -1  -1   0  325.61    8.96   2
   1  -1   1  766.72   19.92   2
  -1  -1  -1  799.63   26.97   2
   1  -1   1  781.45   26.71   2
  -1  -1  -1  837.61   31.69   2
   1  -1   1  830.05   29.98   2
  -1  -1  -1  780.26   16.99   2
  -1  -1  -1  839.09    32.2   2
  -1  -1  -1   798.8   19.48   2
  -1  -1  -2  289.23   14.98   2
   1  -1   2  292.49   16.59   2
  -1  -1  -2  289.61   13.09   2
  -1  -1  -2  306.26   13.33   2
   1  -1   2  304.61   14.35   2
  -1  -1  -2  303.43   12.56   2
  -1  -1  -2  293.44   21.54   2
   1  -1   2  302.85   18.27   2
   1  -1   2  297.14   15.25   2
  -1  -1  -2     287   21.02   2
   1  -1   2  299.87   21.37   2
   1  -1   3 1032.38   34.63   2
  -1  -1  -3 1028.55   45.67   2
   1  -1   3 1006.96   43.57   2
  -1  -1  -3  977.05   30.11   2
   1  -1   3  895.22   32.48   2
  -1  -1  -3  959.55   32.28   2
  -1  -1  -3  988.27   28.91   2
   1  -1   3  871.73   36.54   2
  -1  -1  -4   17.71    7.03   2
   1  -1   4   15.88    5.23   2
   1  -1   4   17.86    4.41   2
   1  -1   4   14.11    5.51   2
  -1  -1  -4   16.65    4.39   2
   1  -1   4   21.81    6.11   2
  -1  -1  -4     9.6    3.04   2
   1  -1   5 1146.91    39.8   2
   1  -1   5 1372.41   58.47   2
  -1  -1  -5  1208.7    58.6   2
   1  -1   5 1297.02   54.54   2
  -1  -1  -5 1232.03   45.32   2
   1  -1   5 1122.94   54.19   2
  -1  -1  -5 1237.76   54.49   2
   1  -1   6   63.46   11.54   2
   1  -1   6   95.39   11.01   2
  -1  -1  -6   75.52   15.04   2
   1  -1   6   70.83   13.71   2
   1  -1   6   94.53   16.03   2
  -1  -1  -6      71   11.57   2
  -1  -1  -6   81.29   14.53   2
  -1  -1  -7 1224.05   67.34   2
   1  -1   7 1403.27   44.09   2
   1  -1   7 1277.94   61.09   2
  -1  -1  -7 1416.18   66.33   2
   1  -1   7 1182.42   65.64   2
  -1  -1  -7 1085.91   53.81   2
   1  -1   7 1447.51   68.33   2
   1  -1   8   82.98   14.56   2
   1  -1   8   65.29   16.06   2
   1  -1   8   83.19    9.71   2
  -1  -1  -8    98.6   17.22   2
  -1  -1  -8   70.35   14.34   2
   1  -1   9  905.76   64.62   2
  -1  -1  -9  897.91   55.31   2
  -1  -1  -9 1008.24    57.6   2
   1  -1   9  920.35   51.72   2
   1  -1   9 1073.28   34.69   2
   1  -1  10    1.81    4.05   2
  -1  -1 -10    4.51    5.31   2
   1  -1  10    8.77    7.09   2
   1  -1  10    6.94    2.21   2
  -1  -1 -11  795.38   56.64   2
   1  -1  11  828.99   50.48   2
   1  -1  11   969.9   71.55   2
  -1  -1 -12  183.81   27.09   2
   1  -1  12  197.46   33.13   2
   1  -1  12  198.87   32.22   2
   1  -1  12  183.54   23.62   2
  -1  -1 -13  491.68   46.69   2
   1  -1  13   478.8   39.94   2
   1  -1  13  531.84   56.33   2
   1  -1  13   542.2   55.02   2
  -1  -1 -14   15.75    3.52   2
   1  -1  14   50.54   18.21   2
   1   0 -14   148.8   28.38   2
  -1   0  14  175.34   30.05   2
  -1   0  14  167.44   28.61   2
   1   0 -13    6.74    7.65   2
  -1   0  13    6.65    6.05   2
  -1   0  13    5.86    7.02   2
  -1   0  12  857.81   64.68   2
  -1   0  12   829.6   62.29   2
   1   0 -12  949.09   67.09   2
  -1   0  11   25.43    7.06   2
  -1   0  11   10.62    5.47   2
   1   0 -11   28.26   10.24   2
  -1   0  11    34.1    6.66   2
  -1   0  10  715.88   55.49   2
  -1   0  10  770.98   33.02   2
  -1   0  10  729.13   56.06   2
  -1   0  10  773.78    33.4   2
  -1   0  10   805.5   25.08   2
   1   0 -10   722.6   55.87   2
  -1   0   9   -5.82    1.43   2
  -1   0   9     4.7    2.52   2
   1   0  -9    4.63    4.62   2
  -1   0   9     1.4    1.14   2
  -1   0   9   -0.86    7.21   2
  -1   0   9     6.7    2.89   2
   1   0  -9    5.81    1.91   2
  -1   0   8 2345.59   98.03   2
  -1   0   8 2442.65   99.07   2
  -1   0   8 2914.05   65.74   2
  -1   0   8 2848.32      65   2
  -1   0   8 2967.85   62.33   2
   1   0  -8 2920.11  109.88   2
  -1   0   8 2914.67   58.24   2
  -1   0   7   -0.94    1.13   2
   1   0  -7   -2.44    4.36   2
  -1   0   7   -4.81    5.91   2
  -1   0   7   -0.41    0.75   2
  -1   0   7    3.67    2.27   2
  -1   0   7    3.33    2.08   2
  -1   0   7   -0.75    1.72   2
  -1   0   6  2163.5   82.63   2
  -1   0   6 2233.52   54.65   2
  -1   0   6 2046.99      78   2
   1   0  -6 2034.57   75.78   2
  -1   0   6 2060.41   50.64   2
  -1   0   6 1992.11   76.07   2
  -1   0   6 1911.65   44.11   2
   1   0  -6 2401.02    90.5   2
  -1   0   6 1932.56   44.16   2
  -1   0   5    2.78     2.6   2
  -1   0   5    3.76    1.22   2
   1   0  -5    1.14    2.29   2
   1   0  -5    0.93    2.35   2
  -1   0   5     5.5    5.08   2
  -1   0   5     1.1    0.39   2
   1   0  -5   12.34    5.42   2
  -1   0   5    5.79    2.82   2
  -1   0   5    3.89    1.26   2
  -1   0   5    6.21    4.45   2
   1   0  -5    2.67    1.85   2
   1   0  -4 4520.13   75.38   2
  -1   0   4 4181.34   85.03   2
  -1   0   4 4491.02  107.59   2
   1   0  -4 4747.01   77.06   2
   1   0  -4 4757.38   93.92   2
   1   0  -4 4882.19  117.42   2
  -1   0   4 4593.78   94.74   2
  -1   0   4 4494.13   81.39   2
  -1   0   4 4344.63    93.8   2
   1   0  -3   45.09    6.41   2
  -1   0   3   45.58    6.34   2
   1   0  -3   40.64    6.17   2
   1   0  -3   30.96    7.05   2
  -1   0   3   39.33    7.28   2
  -1   0   3   45.24    6.64   2
  -1   0   3   42.48    6.71   2
  -1   0   3   47.36    6.57   2
   1   0  -3   41.97    4.98   2
   1   0  -3    45.9     5.7   2
   1   0  -2    3444   61.52   2
  -1   0   2 3841.46   61.39   2
   1   0  -2 3523.26   64.07   2
   1   0  -2 3353.33   70.01   2
   1   0  -2 3543.65   60.16   2
  -1   0   2 3509.76   67.97   2
  -1   0   2 3552.02   66.22   2
   1   0  -2 3660.88      61   2
  -1   0   2 3550.98   70.88   2
  -1   0   2 3744.37   61.17   2
   1   0  -1   93.49       6   2
  -1   0   1   96.21    6.42   2
  -1   0   1   98.69    6.16   2
  -1   0   1   98.73    8.67   2
   1   0  -1   96.94    6.06   2
  -1   0   1  105.42    9.45   2
   1   0  -1   95.62     6.8   2
   1   0  -1  100.47       8   2
  -1   0   1  106.49    8.03   2
   1   0  -1  104.73    9.53   2
   1   0  -1   92.56    5.63   2
  -1   0   1   91.54    5.92   2
   1   0  -1   95.86     8.9   2
  -1   0   0  3503.9    78.3   2
   1   0   0 4174.26    54.8   2
   1   0   0 4047.51   52.93   2
   1   0   0 4286.32   53.35   2
  -1   0   0 5019.91   56.81   2
   1   0   0 2015.84    68.9   2
  -1   0   0 4254.49   69.84   2
   1   0   0 2995.03   62.86   2
   1   0   0 2984.79   63.66   2
   1   0   0 3047.39   65.62   2
  -1   0   0 4785.67   54.42   2
  -1   0   0 2229.17   48.04   2
  -1   0  -1  145.75   11.58   2
   1   0   1  119.71   15.13   2
   1   0   1  131.03    7.27   2
  -1   0  -1  122.55    6.64   2
  -1   0  -1  119.38   15.14   2
  -1   0  -1  131.09   10.42   2
   1   0   1  137.07   11.28   2
   1   0   1  148.27   10.96   2
   1   0   1  135.58    5.35   2
   1   0   1  123.42    6.71   2
  -1   0  -1   127.2    7.11   2
   1   0   2 3897.04   67.82   2
  -1   0  -2 4123.07  108.55   2
  -1   0  -2 4333.19   68.19   2
   1   0   2 3775.83  104.48   2
  -1   0  -2 4241.87   77.13   2
   1   0   2  3711.2   71.06   2
  -1   0  -2 4424.61   62.86   2
  -1   0  -2 4583.35   69.24   2
  -1   0  -2 4199.01   80.15   2
   1   0   2 3754.05    78.6   2
   1   0   2 3729.62   64.07   2
  -1   0  -3    2.72    0.72   2
   1   0   3    9.09    3.26   2
   1   0   3     3.6    1.37   2
   1   0   3    4.89    2.14   2
   1   0   3    4.49    1.78   2
  -1   0  -3    0.86    1.57   2
  -1   0  -3    3.54     1.3   2
  -1   0  -3   -0.76    2.56   2
   1   0   4 4805.81  100.21   2
   1   0   4 4804.15   84.77   2
   1   0   4 4802.37  105.19   2
  -1   0  -4 4965.59  101.73   2
  -1   0  -4 4828.53   95.05   2
   1   0   4 4741.34  106.86   2
   1   0   5   -1.76    4.32   2
  -1   0  -5    5.44    4.48   2
   1   0   5   10.33    5.07   2
  -1   0  -5    3.47     2.9   2
   1   0   5    2.42    2.83   2
  -1   0  -5    -1.9     4.2   2
   1   0   5   -2.02    4.37   2
  -1   0  -5    0.56    0.65   2
   1   0   6 1909.05    78.2   2
  -1   0  -6  1925.9   76.51   2
  -1   0  -6 1838.82   68.89   2
  -1   0  -6 2577.44   92.81   2
   1   0   6 2296.18   82.24   2
   1   0   6 2082.23   62.08   2
  -1   0  -6 2307.77   58.93   2
   1   0   6 2142.79   79.42   2
   1   0   6 2235.56    82.8   2
   1   0   7    4.98    1.54   2
   1   0   7    9.35    6.28   2
   1   0   7    3.74    1.57   2
   1   0   7    7.06    4.29   2
   1   0   7    0.81    1.84   2
  -1   0  -7    2.71    1.47   2
  -1   0  -7   11.82    6.21   2
   1   0   8 2669.34  108.94   2
   1   0   8 2945.16   66.17   2
   1   0   8 3042.86   98.36   2
   1   0   8 2956.02   75.09   2
   1   0   8 2826.43   94.15   2
  -1   0  -8 2883.42   98.28   2
   1   0   9  103.17   21.48   2
   1   0   9   92.72   11.51   2
  -1   0  -9  106.15   18.56   2
   1   0   9   89.06    9.08   2
   1   0   9   86.36   14.76   2
  -1   0 -10  986.25   60.76   2
   1   0  10 1102.55   40.02   2
   1   0  10 1097.91   73.29   2
   1   0  10  996.88   54.97   2
   1   0  10 1027.55   29.73   2
  -1   0 -11   157.4    24.8   2
   1   0  11  137.47   20.18   2
   1   0  11  162.37   29.29   2
   1   0  12 1059.71   73.59   2
   1   0  12   978.2   56.26   2
   1   0  12 1040.86   75.09   2
  -1   0 -12  911.55   62.74   2
   1   0  13  153.13    29.7   2
   1   0  13  122.02   20.25   2
  -1   0 -13  107.99   22.02   2
   1   0  14  242.86   37.95   2
  -1   0 -14  216.06   31.09   2
  -1   1  14  498.06   50.94   2
  -1   1  14  579.02   54.79   2
   1   1 -14  539.59   53.09   2
   1   1 -13   11.42    6.87   2
  -1   1  13   25.27   11.99   2
  -1   1  12 1161.13   75.73   2
   1   1 -12 1142.01   74.44   2
  -1   1  12 1086.94   71.97   2
  -1   1  11    3.77    2.49   2
  -1   1  11   13.26    4.31   2
  -1   1  11   12.54    3.85   2
  -1   1  11    7.47    0.54   2
  -1   1  10  811.84   33.26   2
  -1   1  10  714.22   32.88   2
  -1   1  10  747.29   58.14   2
  -1   1  10  718.02   54.87   2
  -1   1  10  729.01   33.15   2
   1   1 -10  741.79   56.77   2
  -1   1   9   -1.51    6.59   2
   1   1  -9   -4.64    3.04   2
  -1   1   9    11.2       4   2
  -1   1   9    1.32    0.66   2
  -1   1   9    -0.7    1.77   2
  -1   1   9    5.45    8.81   2
  -1   1   8 1198.88   70.26   2
  -1   1   8 1074.19   61.49   2
  -1   1   8 1118.29   38.85   2
  -1   1   8 1500.14   48.13   2
  -1   1   8 1175.82   39.39   2
   1   1  -8 1375.65   72.78   2
  -1   1   7    17.9    7.36   2
  -1   1   7   19.68    4.17   2
   1   1  -7   15.46    6.44   2
  -1   1   7   15.57    7.59   2
  -1   1   7   13.04    3.97   2
  -1   1   7   16.38    5.24   2
  -1   1   6  764.95   25.06   2
  -1   1   6  756.14   48.37   2
  -1   1   6  789.58   34.54   2
   1   1  -6  740.27   46.07   2
   1   1  -6  689.35   46.93   2
  -1   1   6  735.22   41.84   2
  -1   1   6  738.85   24.97   2
  -1   1   5   29.95    8.15   2
  -1   1   5   16.62    2.83   2
  -1   1   5   16.39     4.4   2
  -1   1   5   22.67    8.77   2
   1   1  -5   17.47    5.95   2
   1   1  -5   29.98    9.32   2
  -1   1   5   17.46    3.98   2
  -1   1   5   19.52    3.17   2
   1   1  -4  671.79   27.72   2
  -1   1   4  692.02    17.5   2
  -1   1   4  681.49   29.46   2
   1   1  -4  673.43   35.25   2
  -1   1   4  696.18   17.58   2
   1   1  -4  689.96   32.99   2
  -1   1   4  631.17   29.11   2
   1   1  -4  648.71   18.95   2
   1   1  -4  663.03   33.38   2
  -1   1   4  708.86   35.63   2
  -1   1   4  712.69   42.55   2
  -1   1   3  245.81    8.97   2
   1   1  -3  230.17   15.93   2
   1   1  -3  228.76   16.25   2
  -1   1   3  235.49   13.79   2
   1   1  -3  240.17   13.85   2
   1   1  -3  227.41   11.27   2
  -1   1   3  240.57   16.64   2
   1   1  -3  237.12   15.56   2
  -1   1   3  263.04   22.79   2
  -1   1   3  252.91   16.46   2
  -1   1   2  437.12   17.72   2
  -1   1   2   418.3   25.72   2
  -1   1   2  449.94   21.37   2
   1   1  -2  450.93   11.33   2
   1   1  -2  466.59   18.08   2
   1   1  -2  462.94   18.99   2
   1   1  -2  468.02   21.65   2
   1   1  -2  460.39   11.23   2
   1   1  -2  446.38   17.43   2
   1   1  -2  439.07   15.31   2
  -1   1   2  468.08   18.49   2
  -1   1   2  457.36   16.22   2
  -1   1   1  306.66   17.71   2
   1   1  -1  378.23   13.02   2
   1   1  -1  402.21   14.03   2
   1   1  -1   404.3   12.98   2
   1   1  -1  401.39   13.08   2
   1   1  -1  390.59   17.98   2
   1   1  -1  366.06   12.87   2
   1   1  -1  369.77   11.86   2
  -1   1   1  384.77   10.95   2
  -1   1   1  393.14      18   2
  -1   1   1  393.06   18.99   2
  -1   1   1  398.61   13.46   2
   1   1  -1  397.34   19.96   2
  -1   1   1  368.25   12.53   2
   1   1   0   418.6   20.34   2
  -1   1   0   402.5   12.09   2
   1   1   0  418.31   17.45   2
  -1   1   0  397.73   12.49   2
   1   1   0  413.42   17.11   2
   1   1   0   407.1   10.23   2
   1   1   0  396.33   12.21   2
  -1   1   0  423.87   18.68   2
  -1   1   0  396.26   19.33   2
  -1   1   0     327   10.05   2
   1   1   0  423.83   12.72   2
   1   1   0  398.75   20.18   2
   1   1   0  387.84    11.2   2
   1   1   1  788.77   30.81   2
   1   1   1  771.03   17.43   2
   1   1   1  762.24   29.15   2
  -1   1  -1  803.02   25.64   2
  -1   1  -1  786.47   19.76   2
  -1   1  -1  750.21   19.41   2
   1   1   1   742.5    18.9   2
  -1   1  -1  741.29   28.99   2
   1   1   1  754.39   29.65   2
   1   1   2  249.37    13.2   2
  -1   1  -2  238.57   17.43   2
   1   1   2   235.6   20.18   2
   1   1   2  216.48   18.82   2
  -1   1  -2  231.83    13.3   2
   1   1   2  241.73    11.8   2
   1   1   2  247.17   16.39   2
   1   1   2  236.56   11.26   2
  -1   1  -2  242.69   12.38   2
  -1   1  -2  240.31   13.86   2
   1   1   3  852.46   26.57   2
   1   1   3  827.86   42.69   2
  -1   1  -3  813.56   34.66   2
   1   1   3  901.21   28.69   2
   1   1   3  830.29   32.28   2
   1   1   3     784   41.16   2
  -1   1  -3  853.42   30.03   2
  -1   1  -3  855.22   27.64   2
  -1   1  -3  896.99   35.51   2
   1   1   3  858.18   33.39   2
   1   1   4    5.53    3.19   2
  -1   1  -4     0.4    1.93   2
   1   1   4    9.28    4.42   2
  -1   1  -4   10.67    4.12   2
   1   1   4   17.93    5.16   2
  -1   1  -4    7.63    2.47   2
   1   1   4   24.87    7.62   2
   1   1   4    9.24    2.56   2
   1   1   4    9.66    3.53   2
   1   1   5 1227.37   56.71   2
   1   1   5 1289.16   40.91   2
   1   1   5 1414.81   63.82   2
   1   1   5 1407.23   62.28   2
  -1   1  -5 1470.99   58.95   2
  -1   1  -5 1444.33   48.88   2
  -1   1  -5 1240.38   50.98   2
   1   1   5 1275.58   32.88   2
   1   1   5 1324.36   50.79   2
   1   1   6   87.37   15.71   2
  -1   1  -6   87.95   14.48   2
   1   1   6   98.77   16.23   2
   1   1   6   51.96   11.69   2
   1   1   6   58.26    7.65   2
  -1   1  -6   59.29   12.23   2
   1   1   6   74.22   13.07   2
  -1   1  -6   66.63    9.52   2
  -1   1  -7  1433.6   48.41   2
   1   1   7 1398.42   64.15   2
   1   1   7 1272.71   68.16   2
  -1   1  -7 1456.52   65.79   2
   1   1   7 1478.99   66.72   2
  -1   1  -8  103.86   18.32   2
   1   1   8   122.7   18.49   2
  -1   1  -8  114.76   12.71   2
   1   1   8   86.35   18.23   2
   1   1   8   72.63    7.27   2
   1   1   8   75.34   13.89   2
  -1   1  -9 1096.49   40.72   2
  -1   1  -9 1112.23   62.93   2
   1   1   9 1155.51   70.47   2
   1   1   9 1090.58   58.46   2
   1   1   9 1171.19   48.64   2
   1   1  10    14.9    9.65   2
  -1   1 -10   13.28    9.45   2
   1   1  10    2.85    1.32   2
   1   1  10    7.08    4.47   2
  -1   1 -10    2.34    1.55   2
   1   1  11  914.22   54.46   2
  -1   1 -11  900.03   59.89   2
   1   1  11   931.3   66.19   2
   1   1  11  969.88   68.64   2
  -1   1 -12  188.74   27.95   2
   1   1  12  198.33   25.09   2
   1   1  12  225.94   33.84   2
   1   1  13  561.94   43.42   2
   1   1  13  637.35    58.5   2
  -1   1 -13  484.67   46.16   2
   1   1  14   30.15   11.81   2
  -1   1 -14   37.61   13.83   2
  -1   2  14  235.97   36.06   2
  -1   2  14  230.93   34.03   2
   1   2 -14  208.72   33.77   2
   1   2 -13   22.47   12.47   2
  -1   2  13   23.71   10.41   2
  -1   2  13   32.77   13.19   2
  -1   2  12  958.63   69.51   2
  -1   2  12  804.24   61.09   2
   1   2 -12  890.61   66.38   2
  -1   2  11   19.59    8.42   2
  -1   2  11   22.26    5.31   2
  -1   2  11   14.94    8.07   2
   1   2 -11   17.07    12.3   2
  -1   2  11   25.37    6.74   2
  -1   2  10  712.78   53.64   2
  -1   2  10  872.53    38.6   2
  -1   2  10   826.9   62.71   2
  -1   2  10  993.86    43.3   2
  -1   2  10  867.33   38.58   2
   1   2 -10  831.64   61.53   2
  -1   2   9    8.03    3.74   2
  -1   2   9    9.56    8.15   2
  -1   2   9    6.84    3.16   2
   1   2  -9    0.45    5.58   2
  -1   2   9   -4.52     9.2   2
  -1   2   9   11.51    4.91   2
  -1   2   8 2165.58   59.35   2
  -1   2   8 2186.97   98.87   2
   1   2  -8 2344.02   95.03   2
  -1   2   8 2097.67   58.81   2
  -1   2   8 2066.19    84.4   2
  -1   2   7   77.41   13.85   2
  -1   2   7   64.08    8.76   2
  -1   2   7   71.72    9.25   2
  -1   2   7   91.27   13.98   2
   1   2  -7   66.49   13.16   2
  -1   2   7    49.1   13.75   2
  -1   2   6 1533.96   58.09   2
   1   2  -6 1714.23   79.89   2
  -1   2   6 1484.38   41.48   2
  -1   2   6 1673.47   60.66   2
  -1   2   6 1488.26   40.92   2
  -1   2   6 1560.37   72.16   2
   1   2  -6 1449.14    61.3   2
  -1   2   6 1370.93   68.94   2
   1   2  -5   92.83   16.79   2
  -1   2   5  113.94   17.27   2
   1   2  -5   96.15    13.1   2
  -1   2   5   101.5    8.88   2
  -1   2   5  107.81    9.14   2
   1   2  -5   97.94    5.95   2
  -1   2   5   99.99   11.99   2
  -1   2   5  100.44   14.23   2
  -1   2   5   79.85   14.75   2
   1   2  -4  3695.5   82.03   2
   1   2  -4 3779.87  103.43   2
  -1   2   4 3373.63   89.22   2
  -1   2   4 3626.83   61.84   2
  -1   2   4 3483.44   95.99   2
   1   2  -4 3658.57   58.86   2
  -1   2   4 3684.94   73.29   2
  -1   2   4 3434.79    62.6   2
  -1   2   4 3333.91   89.66   2
  -1   2   4 3644.19   63.03   2
  -1   2   3  324.03   23.94   2
   1   2  -3  334.92   23.95   2
   1   2  -3  326.23   18.59   2
  -1   2   3  320.37   15.42   2
  -1   2   3  335.06   14.47   2
   1   2  -3  306.94   20.37   2
   1   2  -3   328.3   14.99   2
   1   2  -3  313.33   12.05   2
   1   2  -3  338.64   22.45   2
  -1   2   3  329.63   22.77   2
   1   2  -3  318.88   15.08   2
  -1   2   3  325.92    20.4   2
  -1   2   3  310.27   15.37   2
   1   2  -2 1340.23    28.3   2
  -1   2   2 1384.14   30.57   2
   1   2  -2 1415.99   35.22   2
   1   2  -2 1344.61   28.76   2
  -1   2   2 1410.87   32.86   2
   1   2  -2 1353.43    28.9   2
  -1   2   2 1312.89   36.76   2
  -1   2   2 1319.94   46.79   2
   1   2  -2 1383.36   37.23   2
   1   2  -2 1477.49   49.13   2
  -1   2   2 1301.87   38.91   2
  -1   2   2 1363.56   35.55   2
   1   2  -2 1413.07   40.01   2
   1   2  -1  257.24   11.94   2
   1   2  -1  248.01    9.46   2
   1   2  -1  254.81   11.98   2
  -1   2   1  248.44    11.8   2
  -1   2   1  258.14   11.24   2
  -1   2   1  255.05      18   2
  -1   2   1  254.18    7.78   2
  -1   2   1  264.63   17.05   2
   1   2  -1  245.19   11.12   2
   1   2  -1  252.63   11.25   2
   1   2  -1  271.62   19.72   2
   1   2   0 4400.55   54.66   2
   1   2   0 3723.76   70.75   2
  -1   2   0 4862.96   62.74   2
  -1   2   0 4384.38   58.08   2
  -1   2   0  4831.5   66.46   2
  -1   2   0 4252.61   81.65   2
   1   2   0 3925.39   58.54   2
   1   2   0 3910.67   87.94   2
   1   2   0 4161.48   63.08   2
  -1   2   0 3955.43   87.55   2
   1   2   0  3648.2   69.81   2
  -1   2   0 4737.61   58.88   2
  -1   2  -1  165.33    8.66   2
   1   2   1  170.63   12.88   2
   1   2   1  158.81   12.71   2
   1   2   1  160.23    8.12   2
  -1   2  -1  169.92   12.52   2
  -1   2  -1  161.86    8.96   2
  -1   2  -1  159.87   15.69   2
   1   2   1  190.01     7.6   2
   1   2   1  176.05   15.56   2
   1   2   2 1104.12    31.8   2
  -1   2  -2 1050.83   45.12   2
   1   2   2  1097.5   27.13   2
   1   2   2 1163.73   41.08   2
  -1   2  -2 1136.05    32.5   2
  -1   2  -2 1136.54   30.55   2
   1   2   2 1116.55   28.56   2
   1   2   2 1140.26   40.66   2
   1   2   2 1175.12    42.3   2
  -1   2  -2 1138.14   26.54   2
   1   2   3  744.28   36.73   2
   1   2   3  665.55   31.64   2
   1   2   3  720.82   35.65   2
  -1   2  -3   729.9   27.72   2
  -1   2  -3  713.14    24.5   2
   1   2   3   671.3   31.47   2
   1   2   3  711.47   25.16   2
  -1   2  -3  683.33   27.93   2
  -1   2  -4 3020.55    72.6   2
   1   2   4 3061.57   68.36   2
   1   2   4 2963.16   71.23   2
  -1   2  -4 3227.08   60.42   2
   1   2   4 2975.61   88.02   2
   1   2   4 2923.57   87.06   2
  -1   2  -4 3212.54   81.25   2
  -1   2  -5  123.57   15.19   2
   1   2   5   99.59   15.75   2
  -1   2  -5  150.44   18.32   2
   1   2   5     104   16.34   2
   1   2   5   105.2   16.54   2
  -1   2  -5  118.55   15.97   2
  -1   2  -5  113.07    9.44   2
   1   2   5   128.9    9.48   2
   1   2   5  129.61   14.42   2
   1   2   5  143.16    13.3   2
  -1   2  -6 1723.95   61.54   2
  -1   2  -6 1373.97    59.1   2
   1   2   6 1421.72   65.94   2
   1   2   6 1371.43   64.78   2
   1   2   6 1364.22    32.4   2
   1   2   6 1142.15   37.02   2
   1   2   6  1552.2   71.12   2
   1   2   6 1347.89   54.93   2
  -1   2  -6 1624.01   67.07   2
   1   2   7  175.84   23.07   2
   1   2   7  142.89   20.68   2
   1   2   7  161.23   23.26   2
  -1   2  -7  184.03   19.05   2
   1   2   7  128.71    9.85   2
  -1   2  -7  139.16   20.43   2
  -1   2  -8 1924.22   64.19   2
   1   2   8 2016.75   83.06   2
   1   2   8 2039.05   83.86   2
   1   2   8 2056.15   90.92   2
  -1   2  -8 2029.03    83.5   2
   1   2   9   64.51   14.44   2
  -1   2  -9   60.41   14.51   2
   1   2   9   74.55   17.12   2
  -1   2  -9   67.19   10.55   2
   1   2  10  701.42   54.87   2
   1   2  10  879.28   54.29   2
  -1   2 -10  858.45   39.17   2
   1   2  10  922.44    63.7   2
  -1   2 -10  895.86   58.31   2
   1   2  11  108.67   21.55   2
   1   2  11  116.46   19.36   2
  -1   2 -11  114.73   21.02   2
   1   2  12  745.04    60.7   2
   1   2  12  691.26   48.55   2
  -1   2 -12  666.84   52.95   2
   1   2  13  105.56   22.58   2
  -1   2 -13  106.13   21.23   2
   1   2  13   92.78   16.83   2
  -1   2 -14  253.61   33.75   2
   1   2  14   310.9    41.2   2
  -1   3  14  400.59   45.17   2
   1   3 -14  433.78    48.4   2
  -1   3  13  116.26   24.86   2
   1   3 -13   86.18   19.91   2
  -1   3  13   89.58   20.74   2
  -1   3  12  870.69   63.04   2
   1   3 -12  963.78   70.87   2
  -1   3  12  985.88    72.1   2
  -1   3  11   96.87    22.4   2
  -1   3  11   87.55   13.17   2
  -1   3  11   86.28   13.01   2
   1   3 -11   69.92   18.13   2
  -1   3  11   63.44   16.07   2
  -1   3  10  728.88   37.93   2
  -1   3  10  828.49   64.21   2
  -1   3  10  697.92   37.68   2
   1   3 -10  728.28   56.87   2
  -1   3   9  260.85   34.43   2
  -1   3   9   296.2   26.52   2
  -1   3   9  205.11   19.42   2
  -1   3   9  223.52   19.78   2
   1   3  -9  291.75   33.32   2
  -1   3   9  222.53   27.12   2
  -1   3   8  894.57   63.99   2
  -1   3   8  910.05   39.94   2
  -1   3   8  915.26   51.83   2
  -1   3   8  923.19   39.76   2
   1   3  -8  917.34   55.49   2
  -1   3   7  349.08   22.66   2
  -1   3   7  340.62   22.38   2
  -1   3   7  366.35   28.97   2
  -1   3   7   438.4   33.68   2
   1   3  -7  358.55   31.18   2
  -1   3   7  267.04   32.38   2
  -1   3   6  925.35   49.84   2
  -1   3   6  791.44   48.24   2
  -1   3   6   852.5   33.85   2
   1   3  -6     830   42.92   2
  -1   3   6  845.38   33.72   2
  -1   3   6  776.45      53   2
  -1   3   6  834.48   39.22   2
  -1   3   5  709.83   30.96   2
   1   3  -5   691.4   35.25   2
   1   3  -5  729.44   20.87   2
  -1   3   5  736.95    29.7   2
  -1   3   5  741.72   44.47   2
  -1   3   5  719.86   45.85   2
  -1   3   5  725.04   29.55   2
  -1   3   5  733.09   23.25   2
  -1   3   5  709.24   40.83   2
   1   3  -4  1027.7   38.34   2
  -1   3   4 1026.58   43.32   2
  -1   3   4 1037.18   33.82   2
  -1   3   4 1030.21    33.5   2
  -1   3   4  924.08   49.29   2
  -1   3   4 1016.67   32.32   2
   1   3  -4  976.54   28.91   2
  -1   3   4  1036.9   47.92   2
  -1   3   4  963.01   29.94   2
   1   3  -4  979.98   28.28   2
   1   3  -3  938.03   26.73   2
  -1   3   3  926.67   30.93   2
   1   3  -3 1039.01   51.19   2
  -1   3   3    1004    38.8   2
  -1   3   3  918.65   32.37   2
   1   3  -3  945.15   25.92   2
  -1   3   3  961.28   35.95   2
  -1   3   3   938.8   26.89   2
  -1   3   3  918.35   47.21   2
   1   3  -3  934.61   32.23   2
   1   3  -2  973.39   27.41   2
  -1   3   2  946.36   30.59   2
  -1   3   2  936.59   45.12   2
  -1   3   2  958.27   23.96   2
   1   3  -2  926.17    28.5   2
  -1   3   2  955.17   36.29   2
   1   3  -2  935.91    21.7   2
  -1   3   2  926.08   30.08   2
   1   3  -2   923.3   34.16   2
   1   3  -2  953.12   27.17   2
  -1   3   2   909.3   29.93   2
   1   3  -2  965.04   45.03   2
   1   3  -2   923.7   41.94   2
  -1   3   1 1259.44   36.15   2
   1   3  -1 1146.07   36.64   2
  -1   3   1 1278.73   19.83   2
  -1   3   1 1264.46   29.45   2
   1   3  -1 1262.39   53.09   2
   1   3  -1 1269.09   25.07   2
   1   3  -1 1247.17   31.36   2
   1   3  -1 1223.03   32.84   2
   1   3  -1 1269.09   33.54   2
   1   3  -1 1295.33   29.97   2
  -1   3   1 1264.16   29.92   2
  -1   3   1 1238.15   49.45   2
   1   3   0  412.41   14.39   2
   1   3   0  436.48   19.94   2
   1   3   0  467.71    31.8   2
  -1   3   0  421.63   12.81   2
  -1   3   0   428.6   15.13   2
   1   3   0  434.75   12.47   2
   1   3   0  424.07   19.57   2
  -1   3   0  422.03   10.84   2
  -1   3   0  448.84   26.15   2
  -1   3  -1  450.74   23.36   2
  -1   3  -1  434.13      16   2
   1   3   1  429.57   14.53   2
   1   3   1  477.64   23.13   2
   1   3   1  447.86   30.54   2
   1   3   1  483.85   23.35   2
   1   3   2  525.26   25.95   2
   1   3   2  564.71   27.73   2
   1   3   2  553.85   18.09   2
  -1   3  -2  527.77   16.92   2
  -1   3  -2  539.52   20.77   2
  -1   3  -2  538.18   23.75   2
   1   3   2  585.07   28.44   2
   1   3   2  549.69   20.91   2
   1   3   2  560.98   34.29   2
   1   3   3 1415.72   52.24   2
   1   3   3 1369.58    49.9   2
  -1   3  -3 1343.07   39.54   2
   1   3   3 1285.53   36.84   2
   1   3   3  1378.3   50.16   2
  -1   3  -3 1318.48   37.29   2
  -1   3  -3 1350.35   35.42   2
   1   3   3 1249.17   50.82   2
  -1   3  -4  168.18   14.24   2
   1   3   4  184.52   19.58   2
   1   3   4  188.03   19.57   2
   1   3   4   187.2   20.96   2
  -1   3  -4  161.12   11.72   2
  -1   3  -4  160.07   14.84   2
   1   3   4  164.57   13.86   2
   1   3   4   204.5   18.75   2
   1   3   5  810.05   47.72   2
   1   3   5   760.6   34.44   2
  -1   3  -5  751.23   25.97   2
   1   3   5  784.71   45.37   2
  -1   3  -5  749.46   37.27   2
   1   3   5  784.74   45.05   2
   1   3   5  829.68   35.81   2
  -1   3  -5  713.66   36.35   2
  -1   3  -6  110.87   15.98   2
   1   3   6  117.54   17.92   2
  -1   3  -6  127.01     9.8   2
  -1   3  -6  121.63   16.74   2
   1   3   6  122.49    9.15   2
   1   3   6  122.48    19.3   2
   1   3   6   129.1   15.73   2
   1   3   6  124.13   18.52   2
   1   3   6  127.08   12.48   2
   1   3   7  925.02   54.95   2
   1   3   7 1059.06   58.74   2
  -1   3  -7 1106.91   53.32   2
   1   3   7  927.09    24.6   2
   1   3   7 1117.23   62.35   2
  -1   3  -7  902.64   52.05   2
   1   3   8   145.3    21.7   2
  -1   3  -8  141.68    18.2   2
   1   3   8  132.01   21.18   2
  -1   3  -8  138.78   20.94   2
   1   3   9  755.85   53.26   2
  -1   3  -9  781.65   42.83   2
  -1   3  -9  724.81   51.41   2
   1   3   9  776.94   52.37   2
   1   3  10    37.7   13.97   2
   1   3  10   18.01    8.48   2
  -1   3 -10   30.31   11.25   2
  -1   3 -10   23.27    6.55   2
   1   3  11  689.04   49.53   2
  -1   3 -11  673.45   51.91   2
   1   3  11  540.98    49.3   2
   1   3  12  160.52   27.85   2
  -1   3 -12  184.44   27.99   2
   1   3  12  184.27   25.77   2
   1   3  13  479.55   48.76   2
   1   3  13  461.04    41.2   2
  -1   3 -13   410.3   42.96   2
  -1   3 -14   48.33    14.9   2
   1   3  14   51.27   15.11   2
  -1   4  14   97.52    21.4   2
  -1   4  13    8.37    0.56   2
  -1   4  13    1.63    3.42   2
   1   4 -13   12.75   10.87   2
   1   4 -12  510.33   51.96   2
  -1   4  12  574.08   56.49   2
  -1   4  11    25.8   10.52   2
   1   4 -11   39.18   12.86   2
  -1   4  11   47.04   10.25   2
  -1   4  11   46.83   10.97   2
  -1   4  11   61.51   19.58   2
  -1   4  10     464   32.46   2
  -1   4  10  540.63   38.79   2
  -1   4  10  503.58   51.02   2
   1   4 -10  414.32   41.95   2
  -1   4   9  103.48   23.49   2
  -1   4   9   94.01   14.37   2
   1   4  -9   97.33   18.64   2
  -1   4   9   75.18   12.08   2
  -1   4   9   66.38   14.16   2
  -1   4   9  108.93   17.06   2
  -1   4   8 1517.25   57.87   2
  -1   4   8 1536.14   58.15   2
  -1   4   8 1586.35   87.71   2
  -1   4   8 1518.18   64.75   2
   1   4  -8 1635.62   71.95   2
   1   4  -7  200.15   22.18   2
  -1   4   7  176.18   17.84   2
  -1   4   7  164.84   18.16   2
  -1   4   7  127.78   23.18   2
  -1   4   7   174.5   17.65   2
  -1   4   6  1584.9   52.75   2
  -1   4   6 1611.53   53.04   2
  -1   4   6 1639.69   51.91   2
  -1   4   6 1410.49   73.92   2
  -1   4   6 1445.81   35.98   2
   1   4  -6 1524.65   57.29   2
  -1   4   5  307.05   21.14   2
   1   4  -5  343.22   34.41   2
   1   4  -5  292.14   15.64   2
  -1   4   5   313.9   21.31   2
  -1   4   5  264.77   15.94   2
  -1   4   5  310.85   30.73   2
   1   4  -5  277.48   21.31   2
  -1   4   5  308.74   18.77   2
  -1   4   5  283.81   24.56   2
  -1   4   4 3607.06   79.29   2
   1   4  -4 3582.56  108.08   2
  -1   4   4 3337.79   74.74   2
  -1   4   4 3644.62   86.11   2
  -1   4   4 3436.29   96.44   2
   1   4  -4 3752.27   80.08   2
   1   4  -4 3609.19   69.84   2
  -1   4   4 3735.32   68.39   2
   1   4  -3  665.48   25.42   2
   1   4  -3  700.63   21.07   2
   1   4  -3  707.02   38.74   2
  -1   4   3  712.63   33.37   2
  -1   4   3  680.53   21.87   2
  -1   4   3  674.49   29.52   2
  -1   4   3  728.34   30.41   2
   1   4  -3  719.53   28.11   2
   1   4  -2 2779.42   58.69   2
  -1   4   2 2757.51   64.53   2
   1   4  -2  2778.8   58.62   2
  -1   4   2 2835.82   58.65   2
   1   4  -2 2530.14   63.52   2
   1   4  -2 2771.12    44.5   2
  -1   4   2 2805.51    59.7   2
   1   4  -1 1035.95   33.29   2
  -1   4   1 1101.01   37.41   2
   1   4  -1 1040.54   27.63   2
   1   4  -1   994.2   24.25   2
   1   4  -1 1046.77   33.29   2
  -1   4   1 1054.59   51.33   2
  -1   4   1 1063.91   27.38   2
  -1   4   1 1037.09    28.7   2
   1   4  -1 1019.14   22.31   2
   1   4   0 4598.42   89.97   2
   1   4   0 4703.43   90.99   2
  -1   4   0 5403.75   72.56   2
  -1   4   0 5552.34   79.83   2
   1   4   0  4653.9   74.95   2
  -1   4   0  5103.4  115.72   2
  -1   4   0 5275.93   67.22   2
   1   4   0 4846.51   76.03   2
  -1   4   0 5264.24   97.24   2
   1   4   1  917.76   16.35   2
   1   4   1  966.75   35.97   2
   1   4   1  930.21   23.65   2
  -1   4  -1  948.26   26.13   2
  -1   4  -1  970.46   40.91   2
   1   4   1  962.01   35.73   2
   1   4   2 3110.69   54.66   2
  -1   4  -2 3334.54   62.47   2
   1   4   2 3219.18   77.25   2
  -1   4  -2  3285.6   74.46   2
   1   4   2 3119.31   76.14   2
  -1   4  -3  706.61   29.03   2
   1   4   3  766.94   37.76   2
  -1   4  -3  724.52    24.6   2
   1   4   3  688.63    27.5   2
   1   4   3  776.27   37.68   2
  -1   4  -3  719.72   28.44   2
   1   4   4 4119.88  104.04   2
   1   4   4 3758.57   80.87   2
  -1   4  -4 4037.33   77.44   2
   1   4   4 3939.21  101.43   2
  -1   4  -4 3964.08   85.37   2
  -1   4  -4 4055.25   79.98   2
  -1   4  -5  589.82   23.79   2
   1   4   5  630.54   40.39   2
  -1   4  -5  549.38   31.35   2
  -1   4  -5  556.79   29.41   2
   1   4   5  560.01   29.57   2
   1   4   5  588.77   38.91   2
   1   4   6 1916.11   78.34   2
  -1   4  -6 1970.82   45.84   2
  -1   4  -6 2009.86   67.24   2
   1   4   6 1862.93    76.7   2
  -1   4  -7  404.95   17.53   2
   1   4   7  401.85   17.29   2
  -1   4  -7  352.98   30.26   2
   1   4   7  375.65   35.52   2
   1   4   8 1962.94   36.63   2
  -1   4  -8 2029.93    83.4   2
   1   4   8 2069.78   88.47   2
   1   4   9  138.93    21.9   2
  -1   4  -9  137.15   22.51   2
  -1   4  -9  162.06   20.99   2
   1   4   9  163.62   24.54   2
   1   4  10  569.94   47.52   2
  -1   4 -10  680.59   51.01   2
   1   4  10   739.2   53.14   2
   1   4  11  119.01   22.44   2
   1   4  11  164.72   24.62   2
  -1   4 -11  159.55   25.09   2
   1   4  12  719.01   56.44   2
   1   4  12  672.38   50.83   2
  -1   4 -12  686.79   54.08   2
  -1   4 -13   82.79   19.75   2
   1   4  13   98.81   18.79   2
   1   4  13   97.57   21.89   2
  -1   4 -14  184.22   30.44   2
   1   4  14  191.53    30.4   2
  -1   5  14  276.06   36.55   2
  -1   5  13  104.49   21.72   2
  -1   5  13  119.04   26.48   2
   1   5 -13   119.1   24.25   2
  -1   5  12  735.91   65.21   2
  -1   5  12  647.49   44.24   2
  -1   5  12  486.15    45.7   2
   1   5 -12  502.81   51.21   2
  -1   5  11   104.3   17.91   2
  -1   5  11  114.22   26.18   2
  -1   5  11   72.16   13.92   2
  -1   5  11   50.91   13.06   2
   1   5 -11   62.56   17.25   2
   1   5 -10  486.73   44.37   2
  -1   5  10  628.19    45.1   2
  -1   5  10  391.58   36.27   2
  -1   5  10  644.06   58.72   2
  -1   5  10  508.58    36.6   2
  -1   5   9  186.78    21.6   2
  -1   5   9   203.5   22.72   2
  -1   5   9  137.26   19.74   2
   1   5  -9  174.81   24.21   2
  -1   5   9  236.13   27.56   2
  -1   5   9  190.84   32.21   2
  -1   5   8  782.64   43.68   2
   1   5  -8  741.74   45.96   2
  -1   5   8   771.7   43.34   2
  -1   5   8  717.39   59.22   2
  -1   5   8  619.79   38.48   2
  -1   5   7   18.36    9.37   2
  -1   5   7    39.2    8.89   2
   1   5  -7   40.62    4.31   2
  -1   5   7   43.58    5.82   2
  -1   5   7   35.84    9.23   2
   1   5  -7   44.63   10.44   2
  -1   5   7   42.57     8.7   2
   1   5  -6   790.6   39.78   2
  -1   5   6  743.79   28.94   2
   1   5  -6  775.14   26.77   2
  -1   5   6  773.78   40.15   2
   1   5  -6   792.7   53.76   2
  -1   5   6  730.79   53.37   2
  -1   5   6  800.79   40.96   2
  -1   5   6   776.6   33.06   2
   1   5  -5  435.15   26.76   2
  -1   5   5  442.29   21.64   2
  -1   5   5  438.52    24.4   2
  -1   5   5  467.76   37.98   2
   1   5  -5  455.35   36.76   2
  -1   5   5  446.32   28.52   2
  -1   5   5  451.21   28.94   2
  -1   5   5  458.14   30.72   2
  -1   5   4  841.08   44.99   2
  -1   5   4  791.63   37.08   2
   1   5  -4  810.07   42.23   2
   1   5  -4  794.78   31.21   2
   1   5  -4   752.3   32.77   2
  -1   5   4  791.95    36.3   2
  -1   5   4  806.36   26.23   2
   1   5  -3   58.25    5.44   2
  -1   5   3   65.57    9.06   2
   1   5  -3   68.26    9.81   2
   1   5  -3   56.99    7.65   2
   1   5  -3   53.73    7.75   2
  -1   5   3   53.99    9.57   2
  -1   5   3   66.02     9.8   2
  -1   5   2  498.34   27.23   2
   1   5  -2  499.67   24.49   2
  -1   5   2  498.98   22.98   2
  -1   5   2  494.36   22.62   2
   1   5  -2  485.79   14.11   2
   1   5  -2  484.79   19.65   2
  -1   5   1  529.17      28   2
  -1   5   1  538.23    19.3   2
   1   5  -1   525.2    25.6   2
   1   5  -1  529.79   15.13   2
   1   5  -1  555.96   26.35   2
  -1   5   1  516.71   21.32   2
   1   5  -1  523.64   19.66   2
   1   5  -1  542.69   13.83   2
  -1   5   0  394.43   16.52   2
  -1   5   0  433.59   33.46   2
   1   5   0  465.98   24.86   2
   1   5   0  422.89   23.66   2
   1   5   0   421.2   16.15   2
  -1   5   0  424.55   13.58   2
  -1   5   0  424.92   11.48   2
  -1   5   0  448.47   25.45   2
  -1   5  -1  497.28   32.92   2
  -1   5  -1  461.58   18.53   2
   1   5   1   448.1   16.22   2
   1   5   1  471.82   26.25   2
   1   5   1  516.41   27.73   2
   1   5   2  176.06   17.23   2
  -1   5  -2  180.31   12.44   2
   1   5   2   181.5   17.17   2
   1   5   2  172.05   10.08   2
  -1   5  -2  161.68   16.62   2
  -1   5  -3  753.07    26.1   2
  -1   5  -3  764.15   29.64   2
   1   5   3  779.46   39.29   2
   1   5   3  702.57   25.92   2
  -1   5  -3  750.52   33.48   2
   1   5   3  770.58   30.89   2
   1   5   3  813.61   40.66   2
   1   5   3   734.4   24.14   2
  -1   5  -4   161.1   13.17   2
  -1   5  -4  167.79   15.15   2
   1   5   4  167.57   15.14   2
   1   5   4   190.2    20.7   2
   1   5   4  185.59   20.56   2
   1   5   4  163.02   15.15   2
  -1   5  -4  177.02   14.59   2
  -1   5  -5  457.03   25.95   2
   1   5   5  496.23   36.93   2
  -1   5  -5  449.44   22.63   2
   1   5   5  509.99   32.02   2
  -1   5  -5  430.94   27.35   2
   1   5   5  525.72   37.67   2
   1   5   6   40.26   10.41   2
   1   5   6   52.46   13.33   2
  -1   5  -6   35.16    5.86   2
  -1   5  -6   56.79   10.23   2
   1   5   7  882.77   50.19   2
  -1   5  -7  766.06   26.69   2
   1   5   7  823.22   53.95   2
  -1   5  -7  750.59   43.02   2
   1   5   8  161.22   22.48   2
  -1   5  -8  183.32   10.91   2
  -1   5  -8  196.02   23.71   2
   1   5   8  189.41   11.42   2
   1   5   8  200.89   27.27   2
   1   5   9   480.6   41.04   2
   1   5   9     568   47.88   2
  -1   5  -9  488.93   41.46   2
  -1   5 -10   47.96   12.94   2
   1   5  10   92.96   19.26   2
   1   5  10   80.46   16.94   2
   1   5  11  516.33   45.74   2
   1   5  11  587.93   48.21   2
  -1   5 -11   535.2   47.47   2
   1   5  12  276.23   33.28   2
   1   5  12  261.87   32.75   2
  -1   5 -12  228.89   31.77   2
   1   5  13  317.73    36.6   2
   1   5  13  374.64   38.89   2
  -1   5 -13  291.58   36.76   2
   1   5  14   63.75   17.17   2
  -1   5 -14   63.25   16.57   2
  -1   6  14   89.17   20.45   2
  -1   6  13   22.68    9.35   2
   1   6 -13   26.38   10.94   2
  -1   6  12   422.2   50.34   2
  -1   6  12  439.85   38.91   2
  -1   6  12  295.08   34.63   2
   1   6 -12  304.88   38.77   2
  -1   6  11  115.23   20.33   2
  -1   6  11  136.71   28.14   2
  -1   6  11  129.26   21.72   2
  -1   6  11  123.75    20.1   2
   1   6 -11   93.04   19.33   2
  -1   6  10  349.35   33.32   2
  -1   6  10  476.51   51.77   2
  -1   6  10  471.05   41.87   2
  -1   6  10  343.71   32.61   2
   1   6 -10  337.43    35.2   2
  -1   6   9  113.63   24.21   2
  -1   6   9  125.51   19.25   2
   1   6  -9   116.8   18.61   2
  -1   6   9  136.57   18.48   2
  -1   6   9  172.59   25.12   2
  -1   6   8  893.49   67.46   2
  -1   6   8  939.45   52.36   2
   1   6  -8  911.92   50.52   2
  -1   6   8   917.3   28.42   2
   1   6  -7  342.19   27.98   2
  -1   6   7   320.9   19.01   2
  -1   6   7  372.28   31.32   2
  -1   6   7  344.06   40.15   2
   1   6  -7  340.09   16.94   2
  -1   6   7  301.17   21.89   2
  -1   6   7  371.15   30.93   2
   1   6  -6 1029.85   57.02   2
  -1   6   6 1058.64   51.18   2
  -1   6   6 1045.29   51.08   2
  -1   6   6  894.57    36.8   2
   1   6  -6  974.82   44.54   2
  -1   6   6  934.88   61.58   2
  -1   6   6  911.31    34.6   2
  -1   6   5  625.55   44.85   2
   1   6  -5  590.79   31.97   2
   1   6  -5  611.47   38.27   2
  -1   6   5  632.83   37.79   2
  -1   6   5  591.22   24.28   2
   1   6  -4 1919.94    55.3   2
  -1   6   4 1963.17   70.79   2
   1   6  -4 1838.16   54.97   2
  -1   6   4 1950.02   65.65   2
   1   6  -4 1775.97   57.54   2
  -1   6   4 1969.18   60.93   2
   1   6  -3     620   18.07   2
  -1   6   3  622.31   34.42   2
   1   6  -3  618.71   26.02   2
   1   6  -3   609.4   29.74   2
  -1   6   3  626.16   29.96   2
  -1   6   3   660.1   33.07   2
  -1   6   2 1267.76   49.34   2
  -1   6   2 1228.21   38.41   2
   1   6  -2 1275.01   30.49   2
   1   6  -2 1223.01   24.44   2
   1   6  -2 1261.53   43.97   2
  -1   6   2 1277.21   40.34   2
  -1   6   1 1022.44   27.99   2
  -1   6   1 1033.34   43.12   2
   1   6  -1 1032.62   40.02   2
   1   6  -1 1054.71   40.39   2
   1   6  -1 1029.41   22.22   2
   1   6  -1 1002.45   29.01   2
  -1   6   1 1072.84   33.85   2
  -1   6   0 2455.53   49.81   2
   1   6   0 2354.82   47.17   2
   1   6   0 2350.61   65.92   2
  -1   6   0 2408.68    37.3   2
   1   6   0 2433.64   67.04   2
  -1   6   0 2499.85   70.42   2
  -1   6   0 2449.64   41.87   2
   1   6   1  931.75   40.98   2
   1   6   1  999.96   42.47   2
  -1   6  -1  926.71   28.64   2
   1   6   1   885.5   25.11   2
  -1   6  -1  981.33   42.08   2
   1   6   2 1684.13   58.99   2
  -1   6  -2 1657.28   61.94   2
  -1   6  -2 1549.64   41.17   2
   1   6   2 1492.03   34.95   2
   1   6   2 1616.04   57.22   2
   1   6   3 1259.26   53.55   2
   1   6   3 1111.08    31.2   2
  -1   6  -3 1177.44   38.36   2
  -1   6  -3 1139.41   34.74   2
   1   6   3 1148.06   50.89   2
  -1   6  -3 1181.93   47.39   2
  -1   6  -4 2018.14   57.28   2
  -1   6  -4 1828.17   50.17   2
  -1   6  -4 1985.92   58.57   2
   1   6   4 2033.92   72.87   2
   1   6   4 1979.71   41.89   2
  -1   6  -5   487.4   26.78   2
  -1   6  -5  509.67   26.44   2
   1   6   5  545.21   27.09   2
   1   6   5  539.48   38.98   2
  -1   6  -6 1044.56   36.36   2
   1   6   6  1018.4   45.52   2
   1   6   6 1129.28   61.05   2
  -1   6  -6 1036.38   44.25   2
  -1   6  -7  642.79   26.27   2
  -1   6  -7  629.68   37.71   2
   1   6   7  682.46   41.11   2
   1   6   7  657.15   48.86   2
   1   6   8   767.5   47.16   2
   1   6   8  862.19    58.9   2
  -1   6  -8  921.73   28.74   2
  -1   6  -8  888.41   50.29   2
   1   6   9  242.01   27.51   2
   1   6   9   223.7   30.88   2
  -1   6  -9  174.14   24.07   2
   1   6  10  458.73   44.75   2
  -1   6 -10  452.39   41.88   2
   1   6  11  245.45   29.74   2
  -1   6 -11  223.67   30.78   2
   1   6  11  254.34   33.25   2
   1   6  12  403.28   39.35   2
   1   6  12  393.29   41.15   2
  -1   6 -12  318.24   37.68   2
   1   6  13   85.73   19.07   2
  -1   6 -13   58.69   16.06   2
  -1   6 -14  102.24   21.41   2
  -1   7  12  456.87   54.02   2
  -1   7  12  351.49    36.9   2
  -1   7  12  475.75    43.6   2
   1   7 -12  326.21   39.57   2
   1   7 -11   166.6    26.1   2
  -1   7  11  208.68   27.29   2
  -1   7  11  261.67   39.89   2
  -1   7  11   205.2   29.07   2
  -1   7  11  185.07   24.93   2
  -1   7  10  347.39    35.1   2
  -1   7  10  390.54   40.68   2
  -1   7  10  370.16    46.6   2
  -1   7  10  327.41   30.13   2
   1   7 -10  287.15   32.54   2
  -1   7   9  388.98   36.94   2
  -1   7   9  392.48   29.74   2
  -1   7   9  484.17   52.45   2
   1   7  -9   404.8   35.46   2
  -1   7   8  627.11   45.52   2
  -1   7   8  588.53   55.49   2
   1   7  -8  534.75   38.08   2
   1   7  -8  548.72   19.43   2
  -1   7   8  551.79   31.43   2
  -1   7   7  398.48      42   2
   1   7  -7  402.37   30.74   2
  -1   7   7  496.55   38.76   2
  -1   7   7  404.84   24.51   2
  -1   7   7  305.09   20.71   2
  -1   7   6  433.28   34.92   2
  -1   7   6  458.45   42.39   2
   1   7  -6  434.57   29.83   2
  -1   7   6   420.9   27.58   2
   1   7  -6  436.98   33.76   2
  -1   7   6  440.98   21.97   2
  -1   7   5  865.17   52.37   2
  -1   7   5  864.91      48   2
   1   7  -5  821.36   40.34   2
   1   7  -5  789.98   38.05   2
   1   7  -5  767.89   36.53   2
  -1   7   4  718.11   41.04   2
  -1   7   4  685.79   40.81   2
   1   7  -4  600.22   31.31   2
   1   7  -4  624.72   32.63   2
   1   7  -4  625.33   29.52   2
   1   7  -3  584.76   23.56   2
  -1   7   3  606.49    36.9   2
   1   7  -3  586.37   31.53   2
  -1   7   3   595.1   31.49   2
  -1   7   3  578.11   29.95   2
   1   7  -2  535.77   30.25   2
   1   7  -2  515.46   17.44   2
  -1   7   2  511.41   26.15   2
   1   7  -2  532.95   23.66   2
   1   7  -2  510.08    13.6   2
  -1   7   2  541.02   34.11   2
  -1   7   2  505.38   23.94   2
  -1   7   1  900.38   43.61   2
   1   7  -1  912.21   20.72   2
  -1   7   1  917.22   26.79   2
   1   7  -1  906.41   40.29   2
  -1   7   1  952.69   34.65   2
   1   7  -1  889.83   28.07   2
   1   7   0  481.51   30.02   2
  -1   7   0   431.9   19.19   2
  -1   7   0  441.63   14.55   2
  -1   7   0   438.6   29.64   2
  -1   7   0   444.4   11.99   2
   1   7   0  462.97   18.54   2
  -1   7  -1  315.52   24.96   2
   1   7   1  320.26   25.21   2
  -1   7  -1  311.43   16.68   2
  -1   7  -1  344.93   32.34   2
   1   7   1  307.43   14.29   2
  -1   7  -2  403.15   20.01   2
   1   7   2   465.3   31.62   2
  -1   7  -2  465.44   35.14   2
   1   7   3  528.46    35.5   2
  -1   7  -3  501.91   33.01   2
  -1   7  -3   478.8   24.22   2
   1   7   3  450.08   19.21   2
  -1   7  -3  487.62   23.17   2
  -1   7  -4  241.83   21.04   2
  -1   7  -4  234.93   18.28   2
  -1   7  -4  221.49   16.56   2
   1   7   4  265.17   26.32   2
  -1   7  -5  258.32   19.46   2
   1   7   5  275.33   12.88   2
   1   7   5   305.9   30.58   2
  -1   7  -5   253.2   19.88   2
  -1   7  -6  193.85   18.71   2
   1   7   6  203.81   26.65   2
  -1   7  -6  182.15   15.84   2
   1   7   6  222.57   16.02   2
  -1   7  -7  275.28   24.23   2
  -1   7  -7   303.9   19.17   2
   1   7   7  327.34   35.86   2
   1   7   7  317.88   23.79   2
   1   7   8  320.32   27.12   2
   1   7   8  307.83   35.96   2
  -1   7  -8  291.56   17.11   2
  -1   7  -8   302.4   28.33   2
   1   7   9  225.35   31.47   2
   1   7   9  170.18   21.44   2
  -1   7  -9  185.08   23.81   2
  -1   7 -10   120.6   21.34   2
   1   7  10  152.96   26.45   2
   1   7  10  145.61   21.28   2
   1   7  11  278.26    35.5   2
  -1   7 -11   188.3   28.73   2
  -1   7 -12  190.58   29.85   2
   1   7  12  182.17   29.11   2
  -1   7 -13  179.12   29.25   2
   1   8 -12  131.53   24.62   2
  -1   8  12  163.22   27.38   2
  -1   8  12  207.95   36.73   2
   1   8 -11  148.02   24.95   2
  -1   8  11  161.52   30.98   2
  -1   8  11  188.72   29.59   2
  -1   8  10  183.92   27.36   2
  -1   8  10  256.04   34.62   2
  -1   8  10  207.83   34.53   2
   1   8 -10  167.59   24.41   2
  -1   8  10  201.81   21.68   2
   1   8  -9  232.76   26.87   2
  -1   8   9   243.7   31.49   2
  -1   8   9  237.56   21.37   2
  -1   8   9  268.15   39.11   2
   1   8  -8  508.51   37.92   2
  -1   8   8  584.27   47.23   2
  -1   8   8  507.26   52.05   2
  -1   8   8  551.27   29.44   2
  -1   8   7  524.94   49.59   2
  -1   8   7  500.08   24.96   2
  -1   8   7  535.68   43.75   2
   1   8  -7  435.97   32.73   2
  -1   8   6   538.2   46.25   2
  -1   8   6  610.58   44.93   2
   1   8  -6  530.87   33.93   2
  -1   8   5  732.64   47.56   2
   1   8  -5  657.82   33.55   2
  -1   8   5  748.76   47.91   2
   1   8  -5  691.29   36.97   2
   1   8  -5  685.09   36.92   2
   1   8  -4 1317.07   52.27   2
  -1   8   4 1353.96   62.47   2
   1   8  -4 1283.99   41.08   2
   1   8  -4 1315.37   50.15   2
  -1   8   4 1368.19   57.17   2
   1   8  -3  987.89   44.64   2
   1   8  -3  978.21    29.9   2
  -1   8   3  956.67   40.06   2
  -1   8   3  975.91   51.56   2
   1   8  -2 1593.04   44.32   2
  -1   8   2 1591.52   64.71   2
   1   8  -2 1504.71   25.76   2
   1   8  -2 1524.37   32.05   2
  -1   8   2  1618.8   45.05   2
   1   8  -2 1561.29   57.81   2
  -1   8   1  1110.8    51.9   2
   1   8  -1 1100.34   22.97   2
   1   8  -1  1080.4   47.85   2
   1   8  -1 1028.57   31.81   2
  -1   8   1 1077.68   29.83   2
  -1   8   1 1136.31   41.06   2
  -1   8   0  2020.8   29.05   2
  -1   8   0 2115.02   36.74   2
  -1   8   0 2062.69   71.54   2
   1   8   0 1991.66   68.48   2
   1   8   0 2013.91   44.32   2
   1   8   1 1034.27   28.92   2
  -1   8  -1 1023.26   33.13   2
   1   8   1  1083.4   50.36   2
  -1   8  -1 1165.87   65.11   2
  -1   8  -1 1065.49   50.51   2
   1   8   2 1516.67   36.69   2
   1   8   2 1534.58   63.68   2
  -1   8  -2 1484.53   42.95   2
  -1   8  -3   953.7   35.88   2
   1   8   3  996.62   52.73   2
  -1   8  -3  926.06   49.63   2
  -1   8  -4 1667.82    50.9   2
   1   8   4 1852.75    76.2   2
  -1   8  -5  632.94   31.93   2
   1   8   5  693.85   48.43   2
   1   8   6 1001.16   62.46   2
  -1   8  -6  889.41    41.6   2
   1   8   6   946.5   24.78   2
   1   8   7  525.37   23.91   2
  -1   8  -7  521.19   34.24   2
   1   8   7  557.35   48.85   2
  -1   8  -7  520.14   27.47   2
   1   8   8  768.19    59.4   2
  -1   8  -8  702.99   43.25   2
   1   8   9  184.01    29.4   2
  -1   8  -9  188.92   24.16   2
  -1   8 -10  282.47   32.29   2
   1   8  10  292.68    38.9   2
   1   8  11  213.25   32.68   2
  -1   8 -11  187.21   28.54   2
   1   8  12  264.82   36.46   2
  -1   8 -12  213.08   31.97   2
  -1   8 -13   55.94   16.61   2
  -1   9  12  196.99   31.37   2
   1   9 -11   176.7   27.31   2
  -1   9  11  193.25   36.15   2
  -1   9  11  239.76   36.46   2
  -1   9  10  283.22    42.7   2
  -1   9  10  166.84   27.44   2
  -1   9  10  255.26   37.38   2
   1   9 -10  156.38   24.15   2
  -1   9   9  290.41   35.97   2
   1   9  -9  265.71   29.21   2
  -1   9   9  257.67   38.56   2
  -1   9   8  214.47    33.5   2
  -1   9   8  276.21   34.61   2
   1   9  -8  234.48   26.05   2
   1   9  -7  130.64   17.83   2
  -1   9   7  157.85   25.75   2
  -1   9   7  128.96   24.63   2
   1   9  -6  250.61    23.8   2
  -1   9   6  265.11   31.73   2
  -1   9   6  264.23   31.41   2
  -1   9   5   204.2   26.52   2
  -1   9   5  225.78   25.64   2
   1   9  -5  218.05   17.81   2
   1   9  -5  193.13   19.87   2
   1   9  -5  163.62   18.73   2
   1   9  -4  217.46   15.21   2
  -1   9   4  244.39   22.94   2
   1   9  -4  228.51   21.12   2
   1   9  -4   178.3   20.08   2
  -1   9   4  231.85   27.12   2
   1   9  -3   86.06   10.71   2
  -1   9   3   87.41    11.4   2
   1   9  -3   74.27   12.74   2
  -1   9   3   80.35    15.3   2
   1   9  -3   70.48    7.18   2
   1   9  -2  217.24   15.71   2
  -1   9   2  222.52   15.65   2
   1   9  -2  225.07   10.62   2
  -1   9   2  222.25   24.71   2
   1   9  -2  233.67   23.15   2
   1   9  -1  239.17   15.24   2
   1   9  -1  247.63   24.18   2
   1   9  -1  239.17    9.41   2
  -1   9   1  249.63   25.72   2
  -1   9   1  255.52   13.83   2
   1   9   0  183.56   12.12   2
  -1   9   0  179.64   21.78   2
  -1   9   0  178.15    8.89   2
   1   9   0  177.59   20.69   2
   1   9   1   60.07    6.71   2
  -1   9  -1   57.31   14.87   2
   1   9   1   56.29   11.13   2
  -1   9  -1   63.17   12.81   2
  -1   9  -1   50.83    7.15   2
   1   9   2  106.24    8.72   2
   1   9   2  124.56   18.08   2
  -1   9  -2   99.75   10.64   2
  -1   9  -2  130.93    20.8   2
   1   9   3  261.49   28.51   2
  -1   9  -3  237.09   26.24   2
  -1   9  -4  251.54    19.8   2
   1   9   4  275.87   30.25   2
  -1   9  -4  208.26    22.8   2
  -1   9  -5  120.23      16   2
  -1   9  -5  131.79   14.99   2
  -1   9  -6  210.63   20.28   2
   1   9   6  296.11   34.98   2
  -1   9  -6  258.47   22.29   2
   1   9   7  280.96   35.33   2
  -1   9  -7  266.36   21.13   2
  -1   9  -7  243.18   23.64   2
  -1   9  -8  262.02   26.34   2
   1   9   8  289.45   37.94   2
  -1   9  -9  123.33      19   2
   1   9   9  154.19   28.61   2
   1   9  10  206.11   33.97   2
  -1   9 -10  192.69   26.64   2
   1   9  11  236.69   35.24   2
  -1   9 -11  182.79   27.55   2
   1   9  12  206.13   33.26   2
  -1   9 -12  148.56   26.32   2
  -1  10  11  230.76   39.33   2
  -1  10  11  226.02   36.71   2
   1  10 -10  166.28   25.07   2
  -1  10  10  152.69   31.72   2
  -1  10  10  133.61   25.71   2
  -1  10  10  163.11   32.32   2
  -1  10   9  251.71   38.18   2
  -1  10   9   303.5   38.75   2
   1  10  -9  276.52   30.56   2
  -1  10   8  239.61   33.82   2
  -1  10   8  248.53    35.4   2
   1  10  -8  237.77   26.58   2
   1  10  -7  481.08    36.6   2
  -1  10   7  498.15   46.86   2
  -1  10   7  506.52   48.22   2
  -1  10   6  318.29   34.53   2
  -1  10   6  329.82   38.15   2
   1  10  -6  307.79   27.88   2
   1  10  -5   566.1   36.59   2
  -1  10   5  578.87   40.42   2
  -1  10   5  621.24   49.26   2
  -1  10   4  560.58   45.25   2
   1  10  -4  509.56   33.72   2
  -1  10   4  561.89   34.46   2
   1  10  -4  512.15   36.19   2
  -1  10   3  787.55    35.4   2
   1  10  -3   763.8   45.05   2
  -1  10   3  794.93   52.34   2
  -1  10   2   454.4   38.37   2
   1  10  -2  414.48   33.02   2
  -1  10   2  433.81   21.79   2
   1  10  -2  438.14   23.09   2
  -1  10   1  904.73   53.12   2
   1  10  -1  888.37   31.44   2
   1  10  -1  901.15   49.88   2
   1  10  -1  857.49   17.66   2
  -1  10   1  900.04   26.66   2
  -1  10   0  703.95   45.94   2
   1  10   0  687.22   20.69   2
   1  10   0  737.93   45.45   2
  -1  10   0     687   17.58   2
   1  10   0  638.92   24.32   2
  -1  10  -1  706.32   19.62   2
  -1  10  -1  690.94   45.54   2
   1  10   1   667.1   45.03   2
  -1  10  -1  713.45   57.06   2
   1  10   1  661.91    23.6   2
  -1  10  -1   658.6   28.13   2
   1  10   2  465.48   19.45   2
   1  10   2  491.56   39.62   2
  -1  10  -2  439.43   23.55   2
  -1  10  -3  648.56   46.72   2
   1  10   3  891.96   55.75   2
  -1  10  -4  563.35   31.53   2
   1  10   4  621.53   48.48   2
  -1  10  -5   524.9   31.67   2
  -1  10  -5  546.93   37.29   2
   1  10   5  603.14   50.21   2
  -1  10  -6  276.74   24.38   2
  -1  10  -6  301.94    25.7   2
   1  10   6  320.45   38.28   2
  -1  10  -7  497.92    34.9   2
   1  10   7  585.81   54.67   2
  -1  10  -8  293.75   28.65   2
   1  10   8  344.59   42.59   2
  -1  10  -9  259.36   28.62   2
   1  10   9  289.06   40.62   2
   1  10  10   169.1   31.58   2
  -1  10 -10  141.16   22.87   2
   1  10  11  250.08   38.21   2
  -1  10 -11  200.95   28.77   2
  -1  11  10   97.36   23.09   2
  -1  11  10   84.27   21.79   2
  -1  11   9  222.13   35.77   2
  -1  11   9  255.65   38.31   2
  -1  11   9  364.06   50.79   2
   1  11  -9  270.58   31.45   2
  -1  11   8    70.9   18.34   2
   1  11  -8   98.01   18.02   2
  -1  11   8    89.4   21.43   2
  -1  11   7   238.8   32.14   2
  -1  11   7  235.19   34.75   2
   1  11  -7  248.46   27.18   2
  -1  11   6   82.13   17.01   2
   1  11  -6  105.91   16.87   2
  -1  11   6   93.34   20.28   2
  -1  11   5  348.07   39.49   2
  -1  11   5  325.37   29.51   2
   1  11  -5  313.57   28.28   2
  -1  11   4  115.11   15.12   2
  -1  11   4  121.95   21.79   2
   1  11  -4   90.91   14.25   2
   1  11  -4   95.25   15.99   2
  -1  11   3  124.57   21.71   2
  -1  11   3  133.71   13.88   2
   1  11  -3  139.44   19.93   2
  -1  11   2   95.33   18.27   2
   1  11  -2   85.78   15.71   2
  -1  11   2  105.45   10.44   2
   1  11  -1  322.27   30.99   2
  -1  11   1  291.65   13.89   2
  -1  11   1  309.26   32.89   2
  -1  11   0  164.72   23.27   2
  -1  11   0  200.06   34.25   2
   1  11   0  156.21   22.34   2
   1  11   1   72.32   15.16   2
  -1  11  -1   60.44    13.6   2
  -1  11  -1   76.07   19.12   2
   1  11   2  196.02   25.41   2
  -1  11  -2   165.8   26.86   2
   1  11   3  165.52   25.35   2
  -1  11  -3  126.96   21.63   2
   1  11   4  253.21   32.72   2
  -1  11  -4  198.55   25.04   2
  -1  11  -4  238.48   21.82   2
  -1  11  -5   29.59    7.58   2
   1  11   5   19.28   11.21   2
  -1  11  -5   26.65    8.24   2
   1  11   6  260.99   37.02   2
  -1  11  -6  241.78   23.68   2
  -1  11  -6  249.59   25.05   2
   1  11   7  120.33   26.01   2
  -1  11  -7   77.72   14.07   2
   1  11   8  296.61   42.05   2
  -1  11  -8  216.74   25.05   2
  -1  11  -9   53.38   13.01   2
   1  11   9   52.48   17.28   2
   1  11  10  167.18   34.29   2
  -1  11 -10  170.81   25.29   2
  -1  12   9  271.03   39.02   2
  -1  12   9  235.25   37.57   2
  -1  12   8  133.42    28.5   2
  -1  12   8  121.24   24.22   2
   1  12  -8  162.19   23.87   2
  -1  12   7  458.41   43.81   2
  -1  12   7  439.32   50.79   2
   1  12  -7  413.33   36.66   2
  -1  12   6   176.6   24.26   2
   1  12  -6  164.53    22.2   2
  -1  12   6  138.15   27.32   2
  -1  12   5  667.01   41.62   2
   1  12  -5  639.93   42.78   2
  -1  12   5  677.95    58.6   2
   1  12  -4  262.78   26.39   2
   1  12  -4  256.94   28.51   2
  -1  12   4  261.34   34.47   2
  -1  12   3  726.88   56.93   2
   1  12  -3  722.61   48.87   2
  -1  12   2  342.59   37.63   2
   1  12  -2  334.35   33.62   2
  -1  12   1  770.54   55.11   2
   1  12  -1  789.36   52.28   2
  -1  12   1  875.91   79.61   2
  -1  12   0  494.89   55.99   2
   1  12   0  418.26   38.18   2
  -1  12   0  416.42   39.83   2
   1  12   1  755.89   53.54   2
  -1  12  -1  757.17   64.42   2
   1  12   2  395.48   39.19   2
  -1  12  -2  369.65   41.92   2
  -1  12  -3  466.78   43.55   2
   1  12   3  630.74   52.38   2
   1  12   4   339.6   39.57   2
  -1  12  -4  255.19   30.31   2
  -1  12  -4  269.93   24.17   2
   1  12   5  520.81   51.87   2
  -1  12  -5  429.25   31.88   2
  -1  12  -5  500.22   39.98   2
   1  12   6  192.95   32.89   2
  -1  12  -6  169.09   20.46   2
   1  12   7  379.72   48.04   2
  -1  12  -7  299.03   29.39   2
  -1  12  -8  109.34   17.93   2
   1  12   8  154.98   32.35   2
  -1  12  -9  210.19   27.01   2
  -1  13   7  182.29   33.93   2
   1  13  -6   20.14    8.97   2
  -1  13   6   13.58   11.06   2
  -1  13   5  149.27   28.95   2
  -1  13   5  182.15   44.09   2
   1  13  -5  147.19   21.19   2
   1  13  -4   21.36    8.66   2
  -1  13   4   24.25    9.39   2
   1  13  -4   31.07   10.86   2
  -1  13   3   68.88   27.16   2
   1  13  -3   84.24   17.18   2
  -1  13   3  110.28   23.08   2
  -1  13   2   41.35    20.8   2
  -1  13   2   27.36    9.89   2
   1  13  -2   31.55   11.95   2
   1  13  -1   23.79    9.64   2
  -1  13   1   49.24   20.19   2
  -1  13   1   39.82   13.49   2
   1  13   0   41.95   13.89   2
  -1  13   0   59.91   21.58   2
  -1  13   0   38.34   12.87   2
   1  13   1   14.18    6.25   2
  -1  13  -1    6.11    2.95   2
   1  13   2  120.31   23.55   2
  -1  13  -2  108.26   23.32   2
  -1  13  -3    43.9   13.65   2
   1  13   3   43.86   14.32   2
  -1  13  -3   48.32    10.5   2
  -1  13  -4  163.23    19.7   2
  -1  13  -4  183.74   26.16   2
   1  13   4   192.2   31.33   2
  -1  13  -5   43.43   11.42   2
  -1  13  -5   32.07    8.61   2
   1  13   5   46.94   16.61   2
  -1  13  -6  153.05   20.35   2
  -1  13  -7   58.48   13.36   2
   1  14  -4   55.11   13.42   2
   1  14  -3  466.14   38.17   2
   1  14  -3  478.11   43.54   2
  -1  14   2   71.57   29.89   2
  -1  14   2  100.04   23.32   2
   1  14  -2   70.82      17   2
   1  14  -1  549.55   49.04   2
  -1  14   1   679.7   76.58   2
  -1  14   1  562.33    52.5   2
  -1  14   0   67.44   22.31   2
   1  14   0   62.87   17.98   2
   1  14   1  527.66   50.24   2
  -1  14  -1  629.42   63.96   2
  -1  14  -2   71.06   19.68   2
  -1  14  -3  463.57   34.84   2
  -1  14  -3  457.27   47.39   2
  -1  14  -4   57.17   11.73   2
  -1  14  -4   57.25   16.05   2
  -1  14  -5  384.05   33.54   2
  -1  15  -3   23.16    8.75   2
  -1  15  -3   31.47   12.68   2
  -2 -14  -1   319.3   49.86   2
  -2 -14  -2   52.92   20.79   2
  -2 -14  -3  266.71   40.69   2
  -2 -14  -4   52.81   17.19   2
  -2 -14  -5  179.77   30.08   2
  -2 -13   7  242.39   40.48   2
   2 -13  -7  189.26   25.62   2
   2 -13  -6   90.73   18.55   2
  -2 -13   6  145.91   30.28   2
  -2 -13   5  191.13   34.22   2
   2 -13  -5   202.3   27.69   2
   2 -13  -4  144.87   22.88   2
  -2 -13   4  163.91      31   2
  -2 -13   4   120.8   35.23   2
   2 -13  -3  154.07    24.3   2
  -2 -13   3  143.14   28.66   2
  -2 -13   3  184.89   44.54   2
   2 -13  -2  182.97   26.62   2
  -2 -13   2  196.02   32.89   2
  -2 -13   2  215.19   45.98   2
  -2 -13   1  235.79   35.18   2
   2 -13  -1  235.37   31.12   2
  -2 -13   1  271.31   51.13   2
   2 -13   0  275.69   34.83   2
  -2 -13   0  270.04   36.97   2
  -2 -13   0  287.56   48.91   2
   2 -13   1   83.12   19.02   2
  -2 -13  -1    61.3   17.01   2
  -2 -13  -1   64.96   21.43   2
  -2 -13  -2  271.64   40.79   2
  -2 -13  -2  260.53   35.05   2
   2 -13   2  247.12   34.19   2
   2 -13   3  106.06   23.15   2
  -2 -13  -3  119.23   23.35   2
  -2 -13  -3  145.71   28.51   2
  -2 -13  -4  239.39   34.62   2
   2 -13   4  289.27   39.24   2
  -2 -13  -5   63.85   17.25   2
   2 -12  -8  167.14   23.39   2
  -2 -12   8  133.08   27.37   2
  -2 -12   7  181.02   31.38   2
   2 -12  -7  153.02   21.91   2
  -2 -12   7  163.65   34.86   2
  -2 -12   6  239.93   37.02   2
   2 -12  -6   197.2   25.48   2
  -2 -12   6  232.75   44.44   2
  -2 -12   5   324.1    42.6   2
   2 -12  -5  297.48   24.51   2
  -2 -12   5   286.3   50.07   2
   2 -12  -5  273.32   29.89   2
  -2 -12   4  307.48   40.98   2
   2 -12  -4  282.46   23.16   2
   2 -12  -4  292.72   31.17   2
  -2 -12   4  316.31    54.3   2
   2 -12  -3  431.53   38.45   2
  -2 -12   3  484.91    49.2   2
   2 -12  -3  413.69   27.68   2
  -2 -12   3  402.48   60.58   2
  -2 -12   2  332.31   40.72   2
   2 -12  -2  315.45   33.69   2
   2 -12  -2  341.13   25.04   2
  -2 -12   2  334.81   55.23   2
   2 -12  -1  579.61   33.28   2
  -2 -12   1  538.82   68.57   2
   2 -12  -1   613.3   47.93   2
  -2 -12   1  552.12    50.9   2
   2 -12   0  363.82   26.85   2
   2 -12   0  386.04   39.09   2
  -2 -12   0  328.43   37.76   2
  -2 -12   0  399.18   55.34   2
  -2 -12  -1  472.36   45.45   2
   2 -12   1  472.25   44.18   2
  -2 -12  -1  524.99   59.82   2
   2 -12   1  520.89   33.71   2
  -2 -12  -2  274.31   34.05   2
   2 -12   2  274.72   25.52   2
   2 -12   2  259.18   32.98   2
  -2 -12  -2  287.97   42.37   2
   2 -12   3  520.19   48.79   2
  -2 -12  -3  529.54   52.43   2
   2 -12   3  518.99   37.25   2
  -2 -12  -3  517.29   47.79   2
  -2 -12  -4  217.49   31.84   2
   2 -12   4  241.59   27.38   2
  -2 -12  -4   237.1   32.36   2
   2 -12   4  244.53   34.47   2
  -2 -12  -5  319.95    36.2   2
   2 -12   5  312.98   41.03   2
  -2 -12  -5  317.78   37.89   2
   2 -12   5   361.1   35.91   2
   2 -12   6  115.37   21.11   2
   2 -12   6  125.25   27.27   2
  -2 -12  -6   95.61   19.42   2
  -2 -12  -6  101.74   21.58   2
   2 -12   7  220.01    31.5   2
   2 -12   8    76.2   19.65   2
  -2 -11  10   95.49   20.15   2
   2 -11  -9  335.91   30.05   2
  -2 -11   9  390.73   42.63   2
   2 -11  -8  164.03   19.59   2
  -2 -11   8  178.92   25.95   2
  -2 -11   8  163.05   28.32   2
   2 -11  -8  142.99   20.51   2
  -2 -11   8  200.51   36.64   2
  -2 -11   7  316.11   49.02   2
  -2 -11   7  315.02   40.36   2
   2 -11  -7  284.98   28.72   2
   2 -11  -7  302.39   26.09   2
  -2 -11   7  310.99   31.39   2
   2 -11  -6  205.16   24.14   2
  -2 -11   6  187.72    30.8   2
   2 -11  -6  196.47   20.14   2
  -2 -11   6   183.3   21.16   2
  -2 -11   6  197.27   38.43   2
   2 -11  -5  588.91   41.32   2
  -2 -11   5  615.14   55.28   2
   2 -11  -5  617.57   34.71   2
  -2 -11   5  699.71   76.68   2
   2 -11  -4  294.04   29.13   2
  -2 -11   4  323.21   38.49   2
   2 -11  -4  282.97   22.29   2
  -2 -11   4  260.89   46.74   2
   2 -11  -3  413.74   35.57   2
  -2 -11   3  460.06   45.33   2
   2 -11  -3  409.11   26.54   2
  -2 -11   3  401.09   58.68   2
   2 -11  -2  345.38   33.15   2
  -2 -11   2  343.08   38.46   2
   2 -11  -2  310.14   22.61   2
  -2 -11   2  354.46   54.83   2
  -2 -11   1  554.36   48.08   2
  -2 -11   1  542.01   64.79   2
   2 -11  -1  494.93   29.11   2
   2 -11  -1  521.06   41.75   2
   2 -11   0  427.89   38.47   2
  -2 -11   0   438.4   41.97   2
   2 -11   0   452.6   28.37   2
  -2 -11   0  455.42   56.21   2
   2 -11   1  367.49   36.76   2
   2 -11   1  370.62   26.71   2
  -2 -11  -1  347.88   37.08   2
  -2 -11  -1  407.06   49.11   2
  -2 -11  -2  471.33   43.01   2
   2 -11   2  474.17   43.26   2
  -2 -11  -2  450.21   48.98   2
   2 -11   2  466.31   31.61   2
   2 -11   3  423.61   42.47   2
   2 -11   3  408.13   31.14   2
  -2 -11  -3  330.55   38.43   2
  -2 -11  -3  360.05   37.57   2
  -2 -11  -4   537.4   46.37   2
   2 -11   4  596.58   52.25   2
   2 -11   4  530.81   38.36   2
  -2 -11  -4  485.62   44.57   2
  -2 -11  -5  255.82   31.86   2
  -2 -11  -5  227.68   28.61   2
   2 -11   5  239.83   27.45   2
  -2 -11  -6  361.26   34.66   2
   2 -11   6  410.64   38.43   2
  -2 -11  -6  367.58   38.94   2
  -2 -11  -7  239.38   32.42   2
   2 -11   7  228.72   30.65   2
  -2 -11  -8  338.21   39.09   2
   2 -11   8  338.25   39.87   2
   2 -11   9  167.54   29.65   2
  -2 -10  11   59.15   18.81   2
  -2 -10  11   83.78   21.64   2
  -2 -10  10  144.19   26.19   2
  -2 -10  10  211.09   35.36   2
  -2 -10   9   68.01   17.78   2
   2 -10  -9   87.47   14.76   2
   2 -10  -9   70.26    13.2   2
  -2 -10   9   90.64   23.75   2
  -2 -10   8  358.97   38.46   2
   2 -10  -8  343.09   28.62   2
  -2 -10   8  354.52   40.29   2
   2 -10  -8  342.84   30.08   2
  -2 -10   8  433.95   52.72   2
   2 -10  -7  156.82   18.14   2
  -2 -10   7  145.49   25.58   2
   2 -10  -7  147.78   19.53   2
  -2 -10   7  176.26   24.05   2
  -2 -10   7  195.54   36.58   2
  -2 -10   6  383.65   41.18   2
   2 -10  -6  369.37   30.65   2
  -2 -10   6  432.29   54.68   2
   2 -10  -6  349.43   26.51   2
  -2 -10   6  393.65   32.17   2
   2 -10  -5   266.8   25.96   2
  -2 -10   5  294.54   46.85   2
  -2 -10   5  299.64   35.93   2
   2 -10  -5  260.08   21.72   2
  -2 -10   5     288   23.89   2
   2 -10  -4  587.29   39.29   2
  -2 -10   4  599.02   49.45   2
   2 -10  -4  566.39   31.08   2
  -2 -10   4  527.95    62.8   2
  -2 -10   4  579.74   29.56   2
  -2 -10   3  327.18   18.24   2
   2 -10  -3  298.75   28.34   2
  -2 -10   3  348.18   37.43   2
   2 -10  -3  315.99   22.39   2
  -2 -10   3  311.19   48.23   2
  -2 -10   2  448.44   41.08   2
  -2 -10   2  452.03   17.21   2
   2 -10  -2  416.42   25.26   2
   2 -10  -2  443.23    34.9   2
  -2 -10   2  452.29   58.64   2
   2 -10  -1  417.93   35.01   2
  -2 -10   1  427.48   39.74   2
   2 -10  -1  387.79    24.4   2
  -2 -10   1  454.21   56.13   2
   2 -10  -1  380.49    20.4   2
   2 -10   0  418.78   35.86   2
  -2 -10   0  444.13   39.52   2
   2 -10   0  407.23   25.59   2
  -2 -10   0   422.1   51.14   2
  -2 -10  -1  518.47   42.76   2
   2 -10   1  498.73    29.4   2
  -2 -10  -1  561.57   55.22   2
   2 -10   1  529.12   41.98   2
   2 -10   2  223.72   27.74   2
   2 -10   2   199.7    19.3   2
  -2 -10  -2  181.33   25.01   2
  -2 -10  -2   219.4   30.95   2
  -2 -10  -3  456.84   40.33   2
   2 -10   3  495.86   32.65   2
  -2 -10  -3  471.77   43.48   2
   2 -10   4  219.03   22.87   2
  -2 -10  -4  197.15   26.58   2
  -2 -10  -4  227.69   17.57   2
  -2 -10  -4  221.02   27.86   2
   2 -10   5  303.41   29.49   2
  -2 -10  -5  285.49   32.53   2
  -2 -10  -5  300.87   20.72   2
  -2 -10  -5  319.44   32.19   2
   2 -10   6  116.14   19.66   2
  -2 -10  -6  108.46   19.94   2
  -2 -10  -6   97.27   12.05   2
  -2 -10  -6   99.76   16.61   2
   2 -10   7  288.71   33.66   2
  -2 -10  -7   311.3   35.02   2
  -2 -10  -7  307.04   28.42   2
  -2 -10  -8   80.45   18.69   2
   2 -10   8   96.51   21.39   2
  -2 -10  -9   97.46    20.5   2
   2 -10   9  125.31   24.43   2
   2 -10  10    5.18     9.7   2
  -2 -10 -10   25.52   11.12   2
  -2  -9  11  198.59   33.06   2
  -2  -9  11  210.79   34.23   2
  -2  -9  10  292.69   38.95   2
  -2  -9  10  395.34   46.75   2
  -2  -9   9  269.95   35.66   2
  -2  -9   9   288.6   33.76   2
   2  -9  -9  303.25   26.66   2
  -2  -9   9  341.66   44.39   2
  -2  -9   8  426.72   41.46   2
   2  -9  -8  420.83   31.09   2
  -2  -9   8  418.32   41.75   2
  -2  -9   8  471.88   52.64   2
   2  -9  -7  165.66   19.31   2
   2  -9  -7  168.22   18.56   2
  -2  -9   7  185.41   24.76   2
  -2  -9   7  168.58   25.17   2
  -2  -9   7  218.36   37.05   2
   2  -9  -6  338.76   25.36   2
  -2  -9   6  339.69   36.33   2
  -2  -9   6  353.56    30.9   2
  -2  -9   6  420.42   52.37   2
   2  -9  -5  271.95   21.57   2
  -2  -9   5  287.74   32.59   2
   2  -9  -5  182.51   20.06   2
   2  -9  -5   285.1   20.93   2
  -2  -9   5  325.65   47.19   2
  -2  -9   5  278.85   24.04   2
   2  -9  -4  380.67   29.69   2
  -2  -9   4  420.31   39.22   2
   2  -9  -4  421.46   25.95   2
   2  -9  -4  407.34   22.82   2
  -2  -9   4   420.3   25.43   2
  -2  -9   4  429.09    54.4   2
   2  -9  -3  103.85   10.41   2
  -2  -9   3   99.16   18.53   2
   2  -9  -3  109.89   15.78   2
   2  -9  -3  112.53   12.65   2
  -2  -9   3   80.58   21.88   2
  -2  -9   3  110.04   10.86   2
   2  -9  -2  313.17   27.59   2
   2  -9  -2  293.02   20.06   2
  -2  -9   2  338.01   33.54   2
   2  -9  -2     291   17.37   2
  -2  -9   2  304.27   46.06   2
  -2  -9   2  318.77   15.33   2
   2  -9  -1  337.02   29.44   2
  -2  -9   1  344.91   46.67   2
  -2  -9   1  316.71   32.22   2
   2  -9  -1  303.96   20.39   2
   2  -9  -1   301.4   17.58   2
   2  -9   0     300   20.63   2
   2  -9   0  317.74   29.47   2
  -2  -9   0  278.58   29.46   2
  -2  -9   0   320.9   41.62   2
   2  -9   1  171.06   22.45   2
  -2  -9  -1  190.51   24.21   2
   2  -9   1  175.86    16.3   2
  -2  -9  -1  190.44   30.04   2
   2  -9   2     330   23.75   2
  -2  -9  -2  317.18   31.65   2
  -2  -9  -2  290.24   35.06   2
  -2  -9  -3  577.34   43.15   2
   2  -9   3  543.67   32.74   2
  -2  -9  -3  531.54   26.34   2
  -2  -9  -3  577.82   45.24   2
  -2  -9  -4  309.52   20.01   2
   2  -9   4   310.2   25.91   2
  -2  -9  -4  295.16   31.07   2
  -2  -9  -4  332.99   32.96   2
  -2  -9  -5  373.73   22.85   2
   2  -9   5  409.08   32.62   2
  -2  -9  -5  404.03   36.97   2
  -2  -9  -5  408.21   34.37   2
  -2  -9  -6  308.61   21.72   2
   2  -9   6  297.63   29.87   2
  -2  -9  -6  309.19   33.41   2
  -2  -9  -6  303.18   27.66   2
  -2  -9  -7  588.05   31.95   2
   2  -9   7  580.73    45.4   2
  -2  -9  -7  568.56   46.08   2
  -2  -9  -7  595.08   37.32   2
   2  -9   8  303.24   35.67   2
  -2  -9  -8  292.09   23.49   2
  -2  -9  -8  309.99   35.42   2
   2  -9   9  415.36   44.48   2
  -2  -9  -9  412.57   41.84   2
  -2  -9  -9  417.56   29.68   2
   2  -9  10  199.04   32.17   2
  -2  -9 -10  198.87   29.71   2
  -2  -9 -11  361.66   42.28   2
  -2  -8  12     134   29.06   2
  -2  -8  11   81.31   21.06   2
   2  -8 -11   60.39   17.24   2
  -2  -8  11  116.71   23.44   2
   2  -8 -10  112.34   23.31   2
  -2  -8  10   96.02   23.04   2
  -2  -8  10  141.83   26.48   2
  -2  -8   9  170.39    28.4   2
   2  -8  -9  170.78   25.71   2
  -2  -8   9  196.28   25.34   2
   2  -8  -9  185.27   19.61   2
  -2  -8   9  165.22   29.41   2
   2  -8  -8  414.02   28.79   2
  -2  -8   8  377.84   36.26   2
   2  -8  -8  401.02   36.63   2
  -2  -8   8  389.79   39.93   2
  -2  -8   8     358   43.85   2
  -2  -8   7  301.77   32.13   2
   2  -8  -7  280.35   23.42   2
  -2  -8   7  304.45   18.21   2
  -2  -8   7  388.06   46.03   2
  -2  -8   7  296.44   31.89   2
   2  -8  -6  519.31   31.01   2
  -2  -8   6  538.07   39.02   2
   2  -8  -6  541.41   31.72   2
  -2  -8   6  540.81   42.88   2
   2  -8  -6  397.28   28.16   2
  -2  -8   6  560.74   58.58   2
   2  -8  -5  612.33   30.21   2
  -2  -8   5  569.24   43.26   2
   2  -8  -5  496.96   31.47   2
  -2  -8   5  624.44   36.68   2
   2  -8  -5  627.56   32.61   2
  -2  -8   5  660.62   63.11   2
  -2  -8   4 1013.76   57.24   2
   2  -8  -4 1074.27   47.05   2
   2  -8  -4 1031.16   40.57   2
  -2  -8   4 1045.88   41.67   2
   2  -8  -4  985.72   36.21   2
  -2  -8   4  963.88   79.21   2
   2  -8  -3  688.26   37.73   2
   2  -8  -3  641.12   30.19   2
  -2  -8   3  651.35   44.69   2
  -2  -8   3  604.09    61.8   2
  -2  -8   3  674.12   28.36   2
   2  -8  -3  628.84   26.57   2
   2  -8  -2   895.5   44.65   2
  -2  -8   2  932.74   52.84   2
   2  -8  -2  894.24   34.83   2
  -2  -8   2   908.7   74.27   2
  -2  -8   2  914.31   28.13   2
   2  -8  -2  861.41   30.52   2
   2  -8  -1 1092.74   50.89   2
  -2  -8   1 1047.31   55.07   2
   2  -8  -1 1037.48   37.28   2
  -2  -8   1 1117.39   78.68   2
   2  -8  -1  994.63   32.94   2
  -2  -8   0 1305.47   61.35   2
   2  -8   0 1296.93   42.92   2
  -2  -8   0  1298.2   80.56   2
   2  -8   1  668.72   30.97   2
  -2  -8  -1  649.58   42.42   2
  -2  -8  -1  650.69   52.43   2
   2  -8   2 1053.04   33.61   2
  -2  -8  -2  920.21    51.7   2
  -2  -8  -2  991.36   60.11   2
  -2  -8  -2  988.96   35.46   2
   2  -8   2  941.59   39.01   2
  -2  -8  -3  763.32   30.82   2
   2  -8   3  779.17   25.21   2
   2  -8   3  782.17   37.74   2
  -2  -8  -3  772.39   47.74   2
  -2  -8  -3  779.57   49.65   2
  -2  -8  -4  809.05   49.89   2
  -2  -8  -4  812.67    47.9   2
   2  -8   4  795.78   24.04   2
   2  -8   4  852.05   42.13   2
  -2  -8  -4  804.98   32.57   2
  -2  -8  -5  339.53   14.33   2
  -2  -8  -5  328.95   32.59   2
  -2  -8  -5  328.76   28.53   2
   2  -8   5  373.08    29.7   2
  -2  -8  -5  347.04   21.85   2
   2  -8   6  411.97   34.35   2
  -2  -8  -6  412.77   37.15   2
  -2  -8  -6  387.75   29.54   2
  -2  -8  -6  378.23   24.04   2
  -2  -8  -7  256.93   22.83   2
  -2  -8  -7   258.5   20.72   2
   2  -8   7  249.69   28.73   2
  -2  -8  -7  268.84   30.94   2
  -2  -8  -8  317.96   24.62   2
   2  -8   8  351.39   36.66   2
  -2  -8  -8  307.58   34.23   2
  -2  -8  -8  360.13   25.53   2
  -2  -8  -9   65.58   16.31   2
   2  -8   9  103.67   21.17   2
  -2  -8  -9   80.46   13.41   2
  -2  -8 -10   91.64   15.02   2
  -2  -8 -10   84.29   18.09   2
   2  -8  10   89.87   20.26   2
  -2  -8 -11   58.23   12.57   2
   2  -8  11   74.36   21.01   2
  -2  -8 -11   57.41   15.61   2
  -2  -8 -12   88.75   21.79   2
  -2  -7  12  556.55   55.59   2
   2  -7 -12  445.62   50.22   2
  -2  -7  11  228.86   35.19   2
   2  -7 -11  194.47   31.87   2
  -2  -7  11  274.91   34.38   2
  -2  -7  10  523.11   52.03   2
   2  -7 -10  520.46   48.58   2
   2  -7  -9   492.7    30.2   2
  -2  -7   9  449.09   36.13   2
  -2  -7   9  496.92   48.22   2
   2  -7  -9  477.79   43.54   2
  -2  -7   9  443.39   45.31   2
  -2  -7   9  504.38   29.84   2
   2  -7  -8  678.02   34.53   2
  -2  -7   8  663.51   31.66   2
  -2  -7   8  636.42   43.64   2
  -2  -7   8  585.55   49.53   2
   2  -7  -8  661.59   47.23   2
  -2  -7   8   614.5   54.57   2
  -2  -7   7  325.37   30.74   2
  -2  -7   7  307.83   19.58   2
  -2  -7   7  296.91   31.95   2
   2  -7  -7  327.03   23.36   2
   2  -7  -7  223.65   25.11   2
  -2  -7   7  262.85   36.16   2
  -2  -7   6  653.52    43.2   2
  -2  -7   6  625.79   42.69   2
   2  -7  -6  463.38   28.22   2
  -2  -7   6  618.37   26.05   2
  -2  -7   6  597.42   41.31   2
   2  -7  -6  505.04   35.05   2
  -2  -7   6  751.12   62.56   2
   2  -7  -6  632.44   33.82   2
   2  -7  -6  608.38   18.67   2
  -2  -7   5  856.86   49.18   2
   2  -7  -5  755.79   36.33   2
   2  -7  -5  805.87   36.59   2
   2  -7  -5  813.31   35.04   2
   2  -7  -5  825.93   17.44   2
  -2  -7   5  903.69   44.89   2
  -2  -7   5  870.02   48.93   2
  -2  -7   5   879.5   70.03   2
   2  -7  -4  606.52   29.65   2
  -2  -7   4  613.58   40.86   2
   2  -7  -4  619.23    32.7   2
  -2  -7   4  609.57   31.28   2
   2  -7  -4  590.08   26.88   2
  -2  -7   4  566.08   56.62   2
  -2  -7   3  524.28   37.19   2
   2  -7  -3  477.97   28.93   2
   2  -7  -3  458.12   22.12   2
   2  -7  -3  475.63   25.05   2
  -2  -7   3  402.07    46.6   2
  -2  -7   3  500.81    24.1   2
   2  -7  -2  526.77   31.47   2
  -2  -7   2  583.52   38.57   2
   2  -7  -2  535.75   25.33   2
  -2  -7   2  529.57   53.09   2
   2  -7  -2  498.04   22.43   2
  -2  -7   2  528.05    21.2   2
   2  -7  -1  966.77   34.48   2
   2  -7  -1 1084.17   47.49   2
  -2  -7   1  1035.7    50.8   2
  -2  -7   1 1002.65   25.76   2
  -2  -7   1 1040.15   71.35   2
   2  -7  -1  980.92   31.96   2
   2  -7   0  507.42    24.7   2
  -2  -7   0  544.02   36.38   2
   2  -7   0  554.33   27.54   2
  -2  -7   0  594.85   49.78   2
   2  -7   1  808.03   29.45   2
  -2  -7  -1  728.45   42.77   2
   2  -7   1   733.6   30.97   2
  -2  -7  -1  750.17    29.5   2
  -2  -7  -1  786.17   53.37   2
   2  -7   2  470.22   20.04   2
  -2  -7  -2  486.01   38.66   2
  -2  -7  -2  498.54   36.11   2
   2  -7   2  485.62   26.34   2
  -2  -7  -2  455.88   22.34   2
  -2  -7  -3 1183.35   38.16   2
   2  -7   3 1219.24   31.95   2
   2  -7   3 1135.82    44.1   2
  -2  -7  -3 1142.79   55.88   2
  -2  -7  -3 1168.74   57.56   2
   2  -7   4  673.59   35.71   2
  -2  -7  -4  639.66   28.48   2
  -2  -7  -4  630.08   17.69   2
   2  -7   4  676.52   22.83   2
  -2  -7  -4  623.89   42.08   2
  -2  -7  -4  664.24    40.6   2
   2  -7   5  882.55   28.32   2
  -2  -7  -5  848.28   34.56   2
   2  -7   5  846.13   43.56   2
  -2  -7  -5  771.55   48.27   2
  -2  -7  -5   840.8   43.46   2
  -2  -7  -5  803.66   26.99   2
  -2  -7  -6  398.32   24.27   2
  -2  -7  -6  411.67    23.3   2
   2  -7   6  440.16   33.86   2
  -2  -7  -6   416.2   35.99   2
  -2  -7  -6  412.57   28.57   2
   2  -7   6  426.06    20.3   2
  -2  -7  -7  961.25   58.11   2
  -2  -7  -7  930.73   43.41   2
   2  -7   7 1017.36   56.53   2
  -2  -7  -7  974.31   41.43   2
  -2  -7  -7 1029.02   44.02   2
  -2  -7  -8  418.73   28.61   2
   2  -7   8   448.2   40.79   2
  -2  -7  -8  455.68   41.38   2
  -2  -7  -8  444.53   26.98   2
   2  -7   9   629.2   52.28   2
  -2  -7  -9  607.79   37.09   2
  -2  -7  -9  610.53   49.18   2
  -2  -7 -10  272.26   35.03   2
  -2  -7 -10  265.04   26.47   2
   2  -7  10  257.73   35.47   2
  -2  -7 -11  495.14   39.04   2
   2  -7  11  569.47   55.69   2
  -2  -7 -11  505.36   49.37   2
  -2  -7 -12  189.97   25.72   2
  -2  -7 -12  220.58   33.54   2
  -2  -7 -13  249.93    30.9   2
  -2  -7 -13  256.12   36.62   2
  -2  -6  12  281.97   40.54   2
   2  -6 -12  208.99   32.21   2
  -2  -6  11   87.65   15.45   2
   2  -6 -11   80.01   18.33   2
  -2  -6  11  108.86    23.8   2
  -2  -6  11  124.89   21.52   2
  -2  -6  10  227.91   34.14   2
  -2  -6  10  261.75   25.03   2
   2  -6 -10  233.25   32.72   2
  -2  -6  10  338.29   36.57   2
  -2  -6   9  192.14   19.58   2
   2  -6  -9  193.61   27.42   2
  -2  -6   9  168.77    20.3   2
   2  -6  -9  195.58   17.39   2
  -2  -6   9  186.28   29.52   2
  -2  -6   9  203.49   29.06   2
  -2  -6   8  769.76   56.33   2
  -2  -6   8  766.99   43.52   2
  -2  -6   8  584.96   31.54   2
   2  -6  -8  622.92   31.21   2
   2  -6  -8  782.13   34.67   2
  -2  -6   8  701.36    41.6   2
   2  -6  -8  808.71   52.69   2
  -2  -6   8  729.57   56.29   2
   2  -6  -7  315.44   29.95   2
  -2  -6   7  316.52   33.33   2
  -2  -6   7  325.54   21.01   2
  -2  -6   7  309.87   26.91   2
   2  -6  -7   317.6   21.06   2
  -2  -6   7  305.96   37.22   2
  -2  -6   7   305.1      27   2
   2  -6  -7  305.89   20.85   2
  -2  -6   6  661.49   40.03   2
   2  -6  -6  649.65   23.29   2
   2  -6  -6  708.51   32.08   2
  -2  -6   6  711.79   29.06   2
  -2  -6   6  744.33    42.6   2
  -2  -6   6  723.59   45.05   2
   2  -6  -6   712.4   41.29   2
  -2  -6   6  805.21   61.08   2
   2  -6  -6  740.22   36.32   2
   2  -6  -6  686.18   31.41   2
  -2  -6   5   386.8   19.91   2
   2  -6  -5  390.01   23.37   2
  -2  -6   5  406.21   30.67   2
  -2  -6   5  401.28    28.9   2
   2  -6  -5  388.04    23.4   2
   2  -6  -5  396.44   23.51   2
   2  -6  -5  384.14   14.51   2
   2  -6  -5  407.86   28.15   2
  -2  -6   5  403.13   30.56   2
  -2  -6   5  434.43   45.89   2
  -2  -6   4 1605.49   89.77   2
   2  -6  -4  1673.9   51.56   2
  -2  -6   4 1740.55   64.72   2
   2  -6  -4 1699.52   30.57   2
   2  -6  -4 1769.29   55.83   2
  -2  -6   4  1740.3   64.18   2
   2  -6  -4 1706.43   51.22   2
   2  -6  -4 1684.11   47.54   2
   2  -6  -4 1670.74   51.99   2
  -2  -6   4 1686.64    54.3   2
  -2  -6   3  691.22   28.53   2
   2  -6  -3  654.89   14.72   2
  -2  -6   3  733.28   40.34   2
   2  -6  -3  624.38   31.21   2
   2  -6  -3  669.26   31.92   2
   2  -6  -3  658.44   28.61   2
  -2  -6   3  593.89   53.29   2
  -2  -6   3   696.7   39.12   2
   2  -6  -3   664.9   26.67   2
   2  -6  -2  960.68      40   2
   2  -6  -2  969.41   40.43   2
  -2  -6   2  924.36   45.53   2
   2  -6  -2  903.05   32.85   2
  -2  -6   2  931.47   65.67   2
   2  -6  -2  948.16   31.17   2
  -2  -6   2  977.58   46.25   2
  -2  -6   2  928.68   29.37   2
  -2  -6   1  635.34   37.05   2
   2  -6  -1  624.61   32.96   2
   2  -6  -1  565.95   24.88   2
  -2  -6   1  587.32   35.64   2
   2  -6  -1  628.16   29.51   2
  -2  -6   1  597.24   49.29   2
   2  -6  -1  585.53   23.52   2
  -2  -6   1  588.16    19.6   2
  -2  -6   0 1789.42   64.74   2
   2  -6   0 1707.23   46.35   2
  -2  -6   0 1767.42   63.95   2
   2  -6   0 1887.97   62.67   2
   2  -6   0  1823.6   47.81   2
  -2  -6   0 1811.73   82.08   2
  -2  -6  -1  487.06   22.03   2
   2  -6   1  480.89   23.45   2
   2  -6   1  423.35   19.57   2
  -2  -6  -1  517.87   39.87   2
  -2  -6  -1  459.07   32.06   2
  -2  -6  -2  659.88   26.08   2
  -2  -6  -2  671.96   40.05   2
  -2  -6  -2  736.21   44.59   2
   2  -6   2  679.12   29.81   2
   2  -6   3  508.13   27.32   2
  -2  -6  -3  476.51   22.75   2
  -2  -6  -3  471.68   34.16   2
  -2  -6  -3  443.93    12.4   2
  -2  -6  -3  487.68   34.43   2
   2  -6   4 1059.66   31.33   2
   2  -6   4 1017.87   43.22   2
  -2  -6  -4    1001   26.87   2
  -2  -6  -4 1036.48   47.84   2
  -2  -6  -4  1050.1   36.35   2
  -2  -6  -4 1024.66   52.63   2
   2  -6   5  253.65   15.38   2
   2  -6   5  258.49    22.6   2
  -2  -6  -5  239.67   15.66   2
  -2  -6  -5  276.15   27.91   2
  -2  -6  -5  261.26   18.53   2
  -2  -6  -5  242.51   21.29   2
   2  -6   6  305.99   27.73   2
  -2  -6  -6  271.53   20.35   2
  -2  -6  -6  327.71   31.73   2
  -2  -6  -6  299.32    22.8   2
  -2  -6  -6  295.02   21.12   2
  -2  -6  -7  203.34   18.54   2
   2  -6   7  193.71    24.3   2
  -2  -6  -7  188.51   19.84   2
  -2  -6  -7  200.41   25.85   2
  -2  -6  -7  229.28    18.8   2
   2  -6   8  404.11   37.84   2
  -2  -6  -8  381.37   27.81   2
  -2  -6  -8   405.3   38.07   2
  -2  -6  -9   25.04    7.96   2
   2  -6   9   42.98   13.92   2
  -2  -6  -9   32.46   10.95   2
  -2  -6 -10   72.21   14.38   2
  -2  -6 -10   68.86   16.78   2
   2  -6  10    86.9   19.87   2
  -2  -6 -11   98.16   20.63   2
   2  -6  11   77.33   18.24   2
  -2  -6 -11   91.25   17.26   2
  -2  -6 -12   87.11   19.86   2
   2  -6  12   121.3   26.43   2
  -2  -6 -12  105.91   20.03   2
  -2  -6 -13    6.95    5.31   2
  -2  -6 -13   14.48    9.32   2
  -2  -5  13  200.06    33.7   2
   2  -5 -13   166.9   30.01   2
  -2  -5  13  147.07   23.62   2
  -2  -5  12  656.08   48.91   2
   2  -5 -12  841.35   66.91   2
  -2  -5  12  788.46   66.05   2
  -2  -5  11  112.23   23.65   2
   2  -5 -11    71.7    17.9   2
  -2  -5  11   75.41   15.07   2
  -2  -5  11  108.46    18.7   2
  -2  -5  10  720.07   44.81   2
  -2  -5  10  738.53   60.66   2
   2  -5 -10  738.38   58.51   2
  -2  -5   9   98.08   14.74   2
  -2  -5   9  133.66   15.63   2
  -2  -5   9  145.37   25.59   2
   2  -5  -9  133.94   23.17   2
   2  -5  -9  138.98   13.71   2
  -2  -5   9  149.12   23.05   2
  -2  -5   8 1039.36    45.7   2
   2  -5  -8 1019.45   37.16   2
  -2  -5   8  941.33   62.12   2
  -2  -5   8  983.98   43.98   2
   2  -5  -8 1041.56   34.01   2
   2  -5  -8 1091.84   38.47   2
  -2  -5   8 1021.46   62.98   2
   2  -5  -8     997   60.01   2
  -2  -5   7   78.64    16.7   2
   2  -5  -7   90.64   16.54   2
  -2  -5   7   92.17   13.45   2
  -2  -5   7   87.42    12.8   2
   2  -5  -7   98.52   10.55   2
  -2  -5   7   98.29   19.33   2
  -2  -5   7   86.61   11.45   2
   2  -5  -7    87.4    9.95   2
  -2  -5   6 1161.03   57.25   2
  -2  -5   6 1194.04   49.24   2
   2  -5  -6 1174.26   38.79   2
   2  -5  -6 1210.73   47.25   2
  -2  -5   6 1114.26   47.29   2
   2  -5  -6 1116.92   53.26   2
  -2  -5   6 1174.27   39.65   2
   2  -5  -6 1099.26    37.7   2
   2  -5  -5  282.61   19.79   2
   2  -5  -5  271.32   17.46   2
   2  -5  -5  249.09   13.09   2
  -2  -5   5  271.81   22.56   2
  -2  -5   5  254.38   16.33   2
   2  -5  -5  259.82   16.97   2
   2  -5  -5   254.7   22.14   2
  -2  -5   5  247.23   22.94   2
  -2  -5   5  271.38   22.38   2
  -2  -5   5  291.45   34.74   2
   2  -5  -4 1057.45   36.23   2
  -2  -5   4 1058.01   41.61   2
  -2  -5   4 1076.15   32.97   2
   2  -5  -4 1058.05   25.47   2
   2  -5  -4 1051.53   36.44   2
  -2  -5   4 1087.01   46.05   2
   2  -5  -4 1027.53   35.93   2
   2  -5  -4 1064.48    41.5   2
  -2  -5   4  982.51   64.82   2
  -2  -5   4 1057.86   45.25   2
   2  -5  -3  279.24   18.69   2
  -2  -5   3  287.04      23   2
   2  -5  -3  314.08   19.57   2
   2  -5  -3     309   19.24   2
   2  -5  -3  264.47   17.38   2
   2  -5  -3   294.5   10.86   2
  -2  -5   3  244.31   30.83   2
  -2  -5   3  280.06   17.84   2
  -2  -5   3  282.54   22.48   2
   2  -5  -3   273.1    16.6   2
  -2  -5   2  877.79   40.55   2
   2  -5  -2   830.3   28.59   2
   2  -5  -2  819.18   34.16   2
  -2  -5   2  858.66   40.31   2
   2  -5  -2  821.19   30.17   2
  -2  -5   2  834.79   56.73   2
   2  -5  -2  879.56   20.53   2
   2  -5  -2  879.88   36.43   2
  -2  -5   2  833.46   27.48   2
   2  -5  -1   901.1    32.7   2
   2  -5  -1  862.56   36.82   2
  -2  -5   1  844.45    40.7   2
   2  -5  -1  804.92   28.77   2
  -2  -5   1  897.89   41.56   2
  -2  -5   1  975.11   57.91   2
  -2  -5   1  843.44   24.17   2
  -2  -5   0  399.66   27.72   2
  -2  -5   0  374.32   27.04   2
   2  -5   0  376.93   18.75   2
  -2  -5   0  370.78   18.77   2
   2  -5   0  361.15   18.79   2
  -2  -5   0  426.76   35.27   2
   2  -5   0  414.53   26.41   2
   2  -5   1  900.36   41.76   2
  -2  -5  -1  885.55   43.52   2
   2  -5   1  844.68   30.78   2
  -2  -5  -1  905.96   43.73   2
   2  -5   1  909.04   28.09   2
  -2  -5  -1  836.27   28.41   2
  -2  -5  -1  870.55   48.68   2
  -2  -5  -2   313.2   17.01   2
  -2  -5  -2  324.72   26.14   2
   2  -5   2  309.24   18.76   2
   2  -5   2  321.74   15.27   2
   2  -5   2  362.23   27.46   2
  -2  -5  -2  322.16   26.25   2
  -2  -5  -2  320.18   27.16   2
  -2  -5  -3 1816.32   46.68   2
   2  -5   3 1812.37   41.97   2
  -2  -5  -3 1755.61    66.4   2
  -2  -5  -3 1726.51   33.58   2
  -2  -5  -3 1756.42    62.3   2
   2  -5   3 1707.31   51.27   2
  -2  -5  -4  134.28   18.35   2
  -2  -5  -4  123.72    9.66   2
   2  -5   4  119.53   10.05   2
   2  -5   4  115.31    13.5   2
  -2  -5  -4  123.37   11.76   2
  -2  -5  -4  121.18   14.69   2
  -2  -5  -5 1319.41   43.57   2
   2  -5   5 1366.33   53.18   2
  -2  -5  -5 1276.91    40.7   2
  -2  -5  -5 1343.76   62.47   2
  -2  -5  -5  1301.9   48.49   2
   2  -5   6  213.48   22.87   2
  -2  -5  -6  184.93   17.55   2
  -2  -5  -6  205.91   17.58   2
  -2  -5  -6  205.49   24.93   2
  -2  -5  -6  184.01    16.6   2
   2  -5   7 1455.15   65.97   2
  -2  -5  -7  1384.2   51.76   2
  -2  -5  -7 1321.33   56.99   2
  -2  -5  -7 1381.18   68.85   2
  -2  -5  -7 1502.98    48.2   2
   2  -5   8  227.63   28.03   2
  -2  -5  -8  203.49   27.07   2
  -2  -5  -8  201.49   20.61   2
  -2  -5  -9  928.47   49.35   2
   2  -5   9   894.6   60.96   2
  -2  -5  -9  931.97   61.93   2
  -2  -5 -10  137.03    19.9   2
  -2  -5 -10   133.9   23.55   2
   2  -5  10  163.12   26.85   2
  -2  -5 -11  692.76   49.64   2
  -2  -5 -11  804.99   61.86   2
   2  -5  11   802.2   65.48   2
  -2  -5 -12  178.22   26.15   2
  -2  -5 -12  161.77   27.05   2
   2  -5  12  171.47   31.11   2
  -2  -5 -13  453.27   47.34   2
  -2  -5 -13  376.22   40.44   2
  -2  -4  14  -13.48    9.48   2
  -2  -4  13   72.63   20.63   2
   2  -4 -13   58.65   17.26   2
  -2  -4  13   42.02    15.1   2
  -2  -4  12   169.6   30.71   2
   2  -4 -12  191.25   30.41   2
  -2  -4  12   145.2   23.93   2
  -2  -4  11  150.54   28.27   2
   2  -4 -11  161.52   27.99   2
  -2  -4  11  118.83   19.84   2
  -2  -4  11  166.38   21.71   2
  -2  -4  10   71.96   18.35   2
   2  -4 -10   134.3   24.77   2
  -2  -4  10   74.93   15.13   2
  -2  -4  10  152.09   21.24   2
  -2  -4   9  259.71   25.67   2
  -2  -4   9  308.82   20.18   2
   2  -4  -9  310.17   19.36   2
  -2  -4   9  339.55   20.08   2
  -2  -4   9  281.18   19.24   2
  -2  -4   9  289.33   36.13   2
   2  -4  -9  308.15    35.7   2
   2  -4  -9  311.34   13.87   2
  -2  -4   8  730.49   49.41   2
  -2  -4   8  579.33   35.16   2
  -2  -4   8  770.51   33.37   2
   2  -4  -8  732.67   28.88   2
  -2  -4   8  732.51   54.08   2
  -2  -4   8  740.15   32.75   2
   2  -4  -8  786.81   27.29   2
   2  -4  -8  724.31   52.65   2
   2  -4  -8  772.65   29.66   2
  -2  -4   7  508.17   29.24   2
  -2  -4   7  509.12   27.29   2
  -2  -4   7  555.21   28.78   2
   2  -4  -7  543.75   23.37   2
   2  -4  -7   509.5   22.53   2
   2  -4  -7  507.83   23.99   2
  -2  -4   7  536.67   41.63   2
  -2  -4   7   637.5    46.4   2
   2  -4  -7  540.36    41.8   2
   2  -4  -6  592.69   39.97   2
  -2  -4   6  627.27   30.53   2
   2  -4  -6  634.49   24.68   2
  -2  -4   6  643.06   41.24   2
   2  -4  -6  617.17   33.18   2
  -2  -4   6  686.18   49.14   2
  -2  -4   6  610.28   28.95   2
  -2  -4   6  587.77   29.77   2
   2  -4  -6  598.07   23.74   2
  -2  -4   5 1291.18   39.94   2
   2  -4  -5 1313.05   44.54   2
   2  -4  -5 1340.26   37.47   2
  -2  -4   5 1382.13   46.79   2
   2  -4  -5 1283.09   36.27   2
  -2  -4   5 1294.07   52.67   2
   2  -4  -5 1298.51    54.2   2
  -2  -4   5  1387.9   71.63   2
  -2  -4   5 1321.72   45.73   2
   2  -4  -4 2173.57   44.04   2
   2  -4  -4 2227.89   51.12   2
  -2  -4   4 2267.33    62.9   2
   2  -4  -4 2228.94   63.56   2
   2  -4  -4 2276.52   55.86   2
   2  -4  -4 2210.48   50.94   2
  -2  -4   4  2293.2   51.99   2
  -2  -4   4 2140.07    60.7   2
  -2  -4   4 2017.46   88.19   2
  -2  -4   4 2141.03   60.85   2
  -2  -4   3  800.97   35.29   2
   2  -4  -3  817.15   35.95   2
  -2  -4   3  774.93   29.98   2
  -2  -4   3  797.67   27.05   2
   2  -4  -3  794.68   21.34   2
   2  -4  -3  784.38   28.98   2
  -2  -4   3  826.88   36.16   2
   2  -4  -3  791.38   29.01   2
   2  -4  -3  823.62   32.16   2
  -2  -4   3  726.41   50.91   2
   2  -4  -3  809.88   28.85   2
   2  -4  -2 2078.77   37.52   2
   2  -4  -2 2154.35   55.61   2
  -2  -4   2 2007.47   82.88   2
  -2  -4   2 1983.17   60.23   2
   2  -4  -2 2019.38   49.03   2
   2  -4  -2 2094.43   53.34   2
   2  -4  -2 2222.43   48.88   2
  -2  -4   2  2014.3   60.19   2
   2  -4  -2 2139.18   48.35   2
  -2  -4   2 2070.03   46.79   2
   2  -4  -1 1546.89   32.32   2
   2  -4  -1 1580.43   47.88   2
   2  -4  -1 1561.56   41.98   2
  -2  -4   1 1496.21   51.92   2
  -2  -4   1 1526.23   52.73   2
   2  -4  -1 1490.42   39.42   2
   2  -4  -1 1484.78   61.48   2
  -2  -4   1 1509.29   68.08   2
  -2  -4   1 1508.87   34.48   2
  -2  -4   0 3508.97    65.7   2
  -2  -4   0 3325.04  100.26   2
   2  -4   0 3649.89   66.28   2
   2  -4   0 3315.24   97.37   2
   2  -4   0 3506.78   67.23   2
   2  -4   0 3516.71   81.35   2
  -2  -4   0 3315.43   86.41   2
  -2  -4   0 3274.38   85.44   2
  -2  -4  -1  839.94    27.5   2
   2  -4   1  870.59    26.6   2
  -2  -4  -1  902.73   42.59   2
  -2  -4  -1  894.37    42.1   2
   2  -4   1  864.27   29.75   2
   2  -4   1  944.72   48.65   2
  -2  -4  -1  928.97   46.22   2
   2  -4   2 2229.53   46.59   2
  -2  -4  -2 2224.75   49.92   2
  -2  -4  -2  2079.6   69.97   2
   2  -4   2 2118.45   52.58   2
  -2  -4  -2 2101.02   36.14   2
   2  -4   2 2145.45   76.44   2
  -2  -4  -2 2180.53   71.02   2
  -2  -4  -2 2195.72   69.45   2
  -2  -4  -3  670.15   26.39   2
   2  -4   3  693.01   24.26   2
   2  -4   3  680.74   29.66   2
  -2  -4  -3  658.09   39.21   2
  -2  -4  -3  654.54   20.48   2
  -2  -4  -3  694.51   39.74   2
   2  -4   3  727.12   42.91   2
  -2  -4  -3  680.53   35.07   2
  -2  -4  -4 2822.65   63.85   2
  -2  -4  -4 2741.95    57.3   2
   2  -4   4  2778.2   70.91   2
  -2  -4  -4 2778.24   87.53   2
   2  -4   4 2592.78   85.04   2
  -2  -4  -4 2776.46    73.2   2
  -2  -4  -4 2771.11   88.77   2
  -2  -4  -5  135.19   18.78   2
  -2  -4  -5  144.44   13.69   2
   2  -4   5   152.3   16.51   2
  -2  -4  -5  128.31   12.81   2
   2  -4   5  149.62   18.96   2
  -2  -4  -5  156.44   15.13   2
   2  -4   6 1238.06   54.74   2
  -2  -4  -6 1153.32   47.19   2
  -2  -4  -6 1233.48   62.06   2
  -2  -4  -6 1287.57   44.04   2
   2  -4   6 1194.73   43.16   2
  -2  -4  -6 1197.85   45.06   2
  -2  -4  -7  125.37   15.24   2
  -2  -4  -7  118.18   16.71   2
   2  -4   7  114.04   14.74   2
  -2  -4  -7   97.24   16.89   2
   2  -4   7  147.82   17.09   2
   2  -4   7  114.37   18.22   2
   2  -4   8  804.39   45.53   2
   2  -4   8  870.73    54.9   2
  -2  -4  -8  812.16   56.63   2
  -2  -4  -8   857.3   45.22   2
  -2  -4  -9   14.53     6.7   2
  -2  -4  -9   12.17    4.93   2
  -2  -4  -9    8.37    7.42   2
   2  -4   9    9.37    4.15   2
   2  -4  10  334.88   39.45   2
  -2  -4 -10  299.43    36.2   2
  -2  -4 -10  319.67   31.71   2
  -2  -4 -10     319   33.63   2
  -2  -4 -11   52.44   14.02   2
   2  -4  11   59.52   17.91   2
  -2  -4 -11   52.54   15.49   2
  -2  -4 -11   55.92   15.33   2
  -2  -4 -12  158.27   26.64   2
  -2  -4 -12  181.67   29.69   2
  -2  -4 -12  151.23   24.68   2
   2  -4  12  185.52   33.05   2
  -2  -4 -13   34.39   15.23   2
  -2  -4 -13   21.26    9.16   2
  -2  -4 -13   27.92    11.9   2
   2  -4  13   29.34   10.85   2
  -2  -3  15   46.62      16   2
  -2  -3  14  476.31   47.07   2
  -2  -3  13   66.47   17.02   2
  -2  -3  13  101.83   24.99   2
   2  -3 -13   89.11   22.04   2
  -2  -3  12  968.62   72.35   2
  -2  -3  12  852.69   60.32   2
  -2  -3  11   74.09   20.29   2
   2  -3 -11   85.23   20.46   2
  -2  -3  11   42.89   11.41   2
  -2  -3  11    80.2   13.29   2
  -2  -3  10   657.8   47.49   2
  -2  -3  10   824.1   62.62   2
  -2  -3  10 1143.95   54.68   2
   2  -3 -10 1060.87   69.76   2
   2  -3  -9  286.09   17.05   2
  -2  -3   9  251.64   26.41   2
  -2  -3   9  328.64    15.4   2
  -2  -3   9  246.13   32.34   2
  -2  -3   9   287.3    27.7   2
   2  -3  -9  352.01   37.96   2
   2  -3  -9  246.64   12.09   2
  -2  -3   8 1578.07   62.18   2
   2  -3  -8 1736.84   84.36   2
  -2  -3   8 1556.94   39.98   2
   2  -3  -8 1634.04   41.62   2
  -2  -3   8 1516.21   77.33   2
  -2  -3   8 1532.94   38.48   2
   2  -3  -8 1621.18   40.46   2
   2  -3  -8 1574.84   40.74   2
  -2  -3   8 1391.95   38.51   2
  -2  -3   7  280.41   16.44   2
  -2  -3   7  270.58    22.5   2
   2  -3  -7  272.23   14.53   2
   2  -3  -7  264.44   14.32   2
   2  -3  -7  286.08   16.92   2
  -2  -3   7  322.47   30.97   2
   2  -3  -7  274.45   31.35   2
  -2  -3   7  267.73   15.83   2
  -2  -3   7  270.04   29.28   2
  -2  -3   6 1576.18   42.56   2
   2  -3  -6  1528.7   35.62   2
   2  -3  -6  1478.6      35   2
  -2  -3   6 1448.36   48.81   2
   2  -3  -6  1440.9   43.25   2
   2  -3  -6 1531.56   54.04   2
  -2  -3   6 1499.33   62.65   2
   2  -3  -6 1409.73   67.79   2
  -2  -3   6 1445.26   40.79   2
  -2  -3   5  664.51   28.75   2
   2  -3  -5  699.91   22.46   2
  -2  -3   5  709.53   28.38   2
  -2  -3   5  670.15   36.22   2
  -2  -3   5  694.64   35.29   2
   2  -3  -5  662.56   21.79   2
  -2  -3   5  720.67   48.01   2
   2  -3  -5  604.76   39.18   2
   2  -3  -5   706.8   31.96   2
  -2  -3   5  674.96    27.4   2
   2  -3  -4 1541.19   36.69   2
  -2  -3   4 1510.99   41.66   2
  -2  -3   4 1551.94    45.5   2
   2  -3  -4  1470.7   36.67   2
   2  -3  -4 1613.56   45.37   2
   2  -3  -4 1510.69   36.04   2
  -2  -3   4  1546.6   45.16   2
   2  -3  -4 1562.46   53.07   2
  -2  -3   4 1415.81   68.07   2
   2  -3  -4 1535.75   56.36   2
  -2  -3   4 1506.43   48.76   2
  -2  -3   3 1016.03   56.22   2
   2  -3  -3  993.99   26.12   2
   2  -3  -3 1017.04   29.81   2
   2  -3  -3 1077.61   38.99   2
  -2  -3   3 1022.02    37.5   2
  -2  -3   3 1035.97   37.86   2
   2  -3  -3  919.95   48.41   2
  -2  -3   3  1033.6   31.12   2
   2  -3  -3  951.88   44.82   2
   2  -3  -3 1022.04   38.21   2
  -2  -3   3 1003.29   34.17   2
   2  -3  -3 1008.26   32.27   2
   2  -3  -2  1473.3   31.31   2
   2  -3  -2 1554.42   43.06   2
  -2  -3   2 1505.29   48.95   2
  -2  -3   2 1513.11   37.24   2
   2  -3  -2 1380.38   60.11   2
   2  -3  -2 1443.85    38.6   2
   2  -3  -2 1515.68    40.5   2
   2  -3  -2 1461.23   55.74   2
  -2  -3   2 1545.95   67.29   2
  -2  -3   2 1469.27      48   2
   2  -3  -2 1487.37   39.09   2
   2  -3  -2 1509.65   38.79   2
  -2  -3   2  1468.5   37.91   2
   2  -3  -1 1899.61   64.26   2
   2  -3  -1 1980.92   46.15   2
  -2  -3   1 1913.72   58.82   2
  -2  -3   1 1886.78   58.03   2
  -2  -3   1 1968.06   45.09   2
   2  -3  -1 1912.14   44.61   2
   2  -3  -1 2077.77   38.62   2
  -2  -3   1 1934.65   72.57   2
   2  -3  -1 2027.23   44.87   2
   2  -3  -1 1936.71   37.56   2
  -2  -3   1 1970.98   40.91   2
   2  -3  -1 1910.53   50.81   2
  -2  -3   0 1119.03    45.2   2
  -2  -3   0 1138.37   45.21   2
  -2  -3   0 1022.87   29.79   2
   2  -3   0 1065.32   31.19   2
   2  -3   0 1077.76   30.25   2
   2  -3   0 1118.73   28.27   2
   2  -3   0 1050.26   46.69   2
  -2  -3   0 1110.88   50.83   2
  -2  -3  -1 2386.95   39.31   2
   2  -3   1 2280.24   71.98   2
   2  -3   1 2455.95   48.87   2
  -2  -3  -1 2374.31   72.15   2
   2  -3   1 2362.86   51.85   2
  -2  -3  -1 2324.01    70.8   2
  -2  -3  -1 2438.68   50.18   2
  -2  -3  -1 2271.79   70.68   2
   2  -3   2   617.4   22.06   2
  -2  -3  -2  576.26   22.77   2
  -2  -3  -2  630.11   36.45   2
   2  -3   2   619.1   25.12   2
  -2  -3  -2  625.47   36.96   2
  -2  -3  -2  581.12   17.58   2
   2  -3   2  615.37   36.06   2
  -2  -3  -2  602.84   32.47   2
  -2  -3  -3 2009.09   42.42   2
   2  -3   3 2017.46   52.68   2
  -2  -3  -3 2016.81   73.01   2
   2  -3   3 1932.71   67.44   2
  -2  -3  -3 2030.19    72.3   2
  -2  -3  -3  2032.4   60.13   2
  -2  -3  -3 2047.99   49.26   2
   2  -3   4  266.37   24.02   2
  -2  -3  -4  275.11   17.65   2
  -2  -3  -4  249.48   25.63   2
   2  -3   4  277.82   20.11   2
  -2  -3  -4  241.72    15.6   2
   2  -3   4  262.81   14.17   2
  -2  -3  -4   286.8   20.39   2
  -2  -3  -4  269.51   26.36   2
   2  -3   5 1973.09   53.51   2
   2  -3   5 2111.89   65.15   2
  -2  -3  -5  2110.3   81.37   2
  -2  -3  -5  2069.9   57.31   2
   2  -3   5 2260.36   84.86   2
   2  -3   5  1946.9   68.91   2
  -2  -3  -5 2103.48   57.79   2
  -2  -3  -5 2117.84   58.45   2
  -2  -3  -6  286.59   21.81   2
   2  -3   6  311.44   25.51   2
   2  -3   6  310.74   26.57   2
  -2  -3  -6  266.09   22.31   2
  -2  -3  -6  299.61   31.06   2
   2  -3   6   270.2   21.62   2
  -2  -3  -7 1974.08    67.2   2
   2  -3   7 1796.36   67.91   2
  -2  -3  -7 1853.14   84.54   2
  -2  -3  -7  1931.7   65.67   2
   2  -3   7 1856.33   75.37   2
  -2  -3  -8  264.49   25.36   2
   2  -3   8   241.8   26.06   2
  -2  -3  -8  218.97   29.14   2
  -2  -3  -8  246.22      25   2
   2  -3   8  314.44   23.48   2
   2  -3   8  277.09   30.37   2
   2  -3   9 1167.75   70.24   2
  -2  -3  -9 1228.09   72.31   2
  -2  -3  -9 1078.54   57.54   2
  -2  -3  -9 1148.55   59.48   2
   2  -3  10  101.36   21.49   2
  -2  -3 -10  126.15   20.51   2
  -2  -3 -10  137.64   23.97   2
  -2  -3 -10  119.48   19.88   2
  -2  -3 -11 1048.54   68.25   2
   2  -3  11  978.66   74.19   2
  -2  -3 -11  877.92   59.16   2
  -2  -3 -11   942.6   61.47   2
  -2  -3 -12  177.86   27.97   2
  -2  -3 -12  138.65   24.55   2
   2  -3  12  146.78    24.8   2
  -2  -3 -12   127.3   23.75   2
   2  -3  12  144.98   27.63   2
  -2  -3 -13  573.52   52.74   2
   2  -3  13  618.03   62.86   2
  -2  -3 -13  515.47   49.94   2
   2  -3  13  622.35   52.84   2
   2  -3  14   59.04   15.35   2
  -2  -2  14   48.21   15.44   2
  -2  -2  13   74.96   21.05   2
  -2  -2  13   68.06    17.6   2
   2  -2 -13   55.86   16.07   2
  -2  -2  12  369.94   43.48   2
  -2  -2  12   297.7   36.39   2
   2  -2 -12  358.96   42.14   2
  -2  -2  11  113.98   22.98   2
   2  -2 -11  133.43   25.01   2
  -2  -2  11  113.98   21.19   2
  -2  -2  10  168.23   24.16   2
  -2  -2  10  165.42   27.19   2
  -2  -2  10  238.03   22.42   2
   2  -2 -10  229.23   31.87   2
  -2  -2   9  309.77   35.51   2
  -2  -2   9  318.49   31.19   2
  -2  -2   9  424.89   31.27   2
   2  -2  -9  385.36    40.7   2
   2  -2  -9  318.41   15.05   2
  -2  -2   8 1220.14    57.2   2
  -2  -2   8 1284.41      69   2
  -2  -2   8 1532.01   62.78   2
   2  -2  -8 1191.49   34.65   2
   2  -2  -8 1545.79   80.76   2
  -2  -2   7  359.38   27.29   2
   2  -2  -7  278.15      13   2
  -2  -2   7  385.59    33.4   2
   2  -2  -7  474.82   27.18   2
  -2  -2   7  434.88   33.51   2
   2  -2  -7   386.3   19.94   2
   2  -2  -7  475.89   42.48   2
  -2  -2   6  865.19   45.53   2
   2  -2  -6  874.64    21.4   2
  -2  -2   6  823.99    37.5   2
   2  -2  -6 1002.77   43.21   2
   2  -2  -6  846.21   39.65   2
   2  -2  -6  841.14   31.16   2
  -2  -2   6  970.97   51.75   2
   2  -2  -6 1017.95   59.94   2
   2  -2  -5  737.94   32.96   2
  -2  -2   5  713.83   30.78   2
  -2  -2   5   713.5   36.37   2
  -2  -2   5  403.98   17.91   2
  -2  -2   5  523.45   20.08   2
  -2  -2   5  715.17   36.12   2
   2  -2  -5  690.96   28.97   2
  -2  -2   5  723.47   44.38   2
   2  -2  -5  533.47   16.19   2
   2  -2  -5  719.29   48.63   2
   2  -2  -5  800.23   40.05   2
   2  -2  -5   736.9   18.51   2
  -2  -2   4 2738.67   68.53   2
  -2  -2   4 2632.47   57.16   2
   2  -2  -4 2753.84   69.75   2
   2  -2  -4 2588.45   63.33   2
   2  -2  -4 2707.21   45.68   2
  -2  -2   4  2562.2   56.67   2
   2  -2  -4 2621.29   45.32   2
   2  -2  -4  2646.9   79.96   2
  -2  -2   4 2633.78   59.62   2
   2  -2  -4 2529.39   71.09   2
   2  -2  -4 2754.32   62.85   2
  -2  -2   4 2653.18   65.64   2
  -2  -2   4 2457.34   86.75   2
   2  -2  -4 2442.55   85.13   2
   2  -2  -3  939.82   30.75   2
   2  -2  -3  919.34   33.73   2
  -2  -2   3   928.2    29.7   2
  -2  -2   3  938.82   34.67   2
  -2  -2   3  933.84   34.13   2
   2  -2  -3  831.23   43.34   2
   2  -2  -3  868.15   38.76   2
   2  -2  -3  911.73   26.15   2
  -2  -2   3  910.42   49.33   2
   2  -2  -3  903.25   24.67   2
   2  -2  -3  894.37   43.27   2
  -2  -2   3  892.95   31.53   2
   2  -2  -2 1528.21   33.43   2
   2  -2  -2 1566.69   41.16   2
  -2  -2   2 1524.18   49.39   2
  -2  -2   2 1554.93   37.92   2
   2  -2  -2 1510.29   59.55   2
  -2  -2   2 1477.95   48.19   2
   2  -2  -2 1426.41   50.37   2
  -2  -2   2    1530   61.75   2
   2  -2  -2 1520.52   47.68   2
  -2  -2   2 1583.59   38.67   2
   2  -2  -2 1434.11    37.4   2
   2  -2  -2 1568.86   38.96   2
   2  -2  -1  684.19   20.06   2
  -2  -2   1  681.49   23.24   2
  -2  -2   1   708.9    34.9   2
  -2  -2   1  718.34   22.42   2
  -2  -2   1  754.88   36.43   2
   2  -2  -1  697.11   23.73   2
   2  -2  -1  655.22   33.35   2
  -2  -2   1  695.82   23.09   2
  -2  -2   1  693.18   38.92   2
   2  -2  -1  709.04   22.65   2
   2  -2  -1  788.79   41.19   2
   2  -2  -1  730.91   24.05   2
   2  -2  -1  727.41   24.57   2
  -2  -2   0 3525.54   62.16   2
  -2  -2   0 3177.86   87.41   2
   2  -2   0  3524.2   62.18   2
   2  -2   0 3534.79   62.78   2
   2  -2   0 3083.14    88.9   2
  -2  -2   0 3124.99   85.65   2
   2  -2   0 3467.99   45.94   2
  -2  -2   0 3145.09   85.67   2
   2  -2   0 3062.37   80.81   2
   2  -2   0 3600.92    58.9   2
  -2  -2  -1  351.15   16.41   2
  -2  -2  -1  353.84   27.82   2
   2  -2   1  357.75    16.1   2
  -2  -2  -1  372.82   29.18   2
   2  -2   1  339.34   16.54   2
  -2  -2  -1  349.89   12.92   2
   2  -2   1  378.54   28.03   2
   2  -2   1  366.35   25.58   2
   2  -2   1  361.42   16.44   2
  -2  -2  -1  379.57   25.37   2
   2  -2   2 1809.97   61.14   2
  -2  -2  -2 1836.46   42.87   2
   2  -2   2 1761.64   43.92   2
  -2  -2  -2 1886.47   71.09   2
  -2  -2  -2 1777.85   36.71   2
   2  -2   2 1767.35   62.92   2
  -2  -2  -2 1805.55    55.5   2
  -2  -2  -2  1848.3   69.28   2
  -2  -2  -3  336.92   18.19   2
   2  -2   3  339.99   13.99   2
   2  -2   3  351.01   19.44   2
  -2  -2  -3  333.54    16.2   2
  -2  -2  -3  348.69   30.82   2
   2  -2   3  324.53   29.36   2
   2  -2   3  349.01   26.67   2
  -2  -2  -3  365.81   22.77   2
  -2  -2  -4 2567.05   61.04   2
   2  -2   4  2453.5   59.15   2
   2  -2   4 2541.91   64.99   2
  -2  -2  -4 2473.42   58.12   2
  -2  -2  -4 2573.46   93.31   2
   2  -2   4 2617.89    90.8   2
   2  -2   4 2516.34   78.22   2
  -2  -2  -5   66.18   14.68   2
  -2  -2  -5   70.83   10.04   2
   2  -2   5    67.3   10.77   2
   2  -2   5   57.19    13.5   2
   2  -2   5   75.43   11.44   2
   2  -2   5   67.36    12.2   2
  -2  -2  -5      74   10.23   2
   2  -2   6  688.33   39.87   2
   2  -2   6  809.71   43.72   2
  -2  -2  -6  736.93   52.36   2
  -2  -2  -6   766.5   39.13   2
  -2  -2  -6  767.09   37.19   2
   2  -2   6   782.2    42.3   2
  -2  -2  -6  794.89   36.58   2
  -2  -2  -7    83.2   13.58   2
   2  -2   7   89.78   15.67   2
  -2  -2  -7   72.08   11.74   2
  -2  -2  -7   80.41    17.4   2
   2  -2   7  100.15    16.6   2
   2  -2   7   96.76   14.26   2
   2  -2   8 1249.67   51.12   2
   2  -2   8  1079.7   62.36   2
  -2  -2  -8 1057.42   65.06   2
  -2  -2  -8 1007.89   53.02   2
  -2  -2  -8 1020.01   50.99   2
   2  -2   8 1165.37   61.07   2
  -2  -2  -9   -7.12    5.31   2
  -2  -2  -9    2.23    3.29   2
  -2  -2  -9    3.52    5.97   2
   2  -2   9    6.91    5.87   2
   2  -2   9    7.69    3.35   2
   2  -2  10  258.44   34.48   2
  -2  -2 -10  246.82   29.41   2
  -2  -2 -10  287.26   34.56   2
  -2  -2 -10  202.55   25.85   2
  -2  -2 -11    4.87    2.65   2
   2  -2  11   -0.65    5.93   2
  -2  -2 -11    8.51    3.47   2
  -2  -2 -11   17.52    8.42   2
   2  -2  11      16    6.74   2
  -2  -2 -12  199.97    29.8   2
   2  -2  12  261.04   32.42   2
   2  -2  12  262.96   39.37   2
  -2  -2 -12  179.35   26.57   2
  -2  -2 -13   16.39    9.51   2
  -2  -2 -13   -1.21    5.01   2
   2  -2  13     8.9    7.22   2
   2  -2  13   19.49    4.83   2
   2  -2  14   42.68   13.08   2
  -2  -2 -14   46.88   15.74   2
  -2  -1  14   544.9   52.33   2
  -2  -1  13   10.52    4.69   2
  -2  -1  13   12.47    3.13   2
   2  -1 -13   10.39    9.74   2
  -2  -1  12 1071.88   74.89   2
  -2  -1  12 1000.72   69.02   2
  -2  -1  11   -0.11    2.71   2
  -2  -1  11    7.92    5.14   2
   2  -1 -11    6.12    7.77   2
   2  -1 -10 1404.34   34.95   2
  -2  -1  10 1032.97   64.98   2
  -2  -1  10 1013.82   68.49   2
  -2  -1  10 1325.96   48.42   2
   2  -1 -10 1343.72    78.7   2
  -2  -1   9   11.47    4.38   2
  -2  -1   9    26.5    8.71   2
   2  -1  -9   32.29   11.23   2
  -2  -1   9   34.02    6.46   2
   2  -1  -9   29.51    5.36   2
  -2  -1   9   35.16    8.24   2
  -2  -1   8 1624.34   76.48   2
  -2  -1   8 2288.54   61.23   2
  -2  -1   8 1682.59   71.93   2
   2  -1  -8 2091.51   57.55   2
  -2  -1   8 2109.87   69.35   2
   2  -1  -8 1576.31   44.52   2
   2  -1  -8 2136.97    96.1   2
  -2  -1   7  186.96   22.84   2
  -2  -1   7  210.28   18.77   2
   2  -1  -7  206.57    19.1   2
  -2  -1   7   203.6    21.9   2
   2  -1  -7   160.1   13.04   2
  -2  -1   7  164.63   18.79   2
   2  -1  -7  208.06   27.97   2
  -2  -1   6 1893.75   67.73   2
  -2  -1   6 2114.36   64.98   2
  -2  -1   6 1836.65   71.38   2
  -2  -1   6 1875.49   62.17   2
   2  -1  -6  2297.6   69.88   2
   2  -1  -6 1947.02   64.26   2
  -2  -1   6 2241.14   76.28   2
   2  -1  -6 1958.61   52.05   2
   2  -1  -6 2384.54   96.14   2
   2  -1  -5  603.78   30.51   2
  -2  -1   5  594.97   29.61   2
  -2  -1   5  596.83   34.88   2
  -2  -1   5  634.27   32.98   2
   2  -1  -5  624.25   32.43   2
  -2  -1   5  562.26   32.59   2
   2  -1  -5  595.74    29.7   2
   2  -1  -5  665.29   37.51   2
  -2  -1   5  626.18   39.48   2
   2  -1  -5  612.59   27.55   2
   2  -1  -5  721.54    50.2   2
  -2  -1   4  2070.2   59.75   2
   2  -1  -4 2050.47   31.86   2
   2  -1  -4  1947.2   45.17   2
   2  -1  -4 2163.93   55.21   2
  -2  -1   4 1954.92   64.57   2
   2  -1  -4 2169.27      58   2
   2  -1  -4 2027.37   57.64   2
   2  -1  -4 2022.48   69.26   2
   2  -1  -4 2107.78    32.1   2
  -2  -1   4  1958.8   72.71   2
   2  -1  -4 2142.74   56.62   2
  -2  -1   4  2108.2   53.55   2
   2  -1  -4 2247.62   85.59   2
  -2  -1   4 2118.66   56.05   2
  -2  -1   3 1309.22    40.5   2
   2  -1  -3 1319.17   34.22   2
  -2  -1   3 1345.89   41.92   2
   2  -1  -3 1097.51   39.37   2
   2  -1  -3 1253.78   43.43   2
   2  -1  -3 1324.82   37.51   2
   2  -1  -3 1268.41   53.23   2
  -2  -1   3 1300.68   36.54   2
   2  -1  -3 1337.33   39.39   2
  -2  -1   3 1254.45   50.17   2
   2  -1  -3 1305.69   43.84   2
  -2  -1   3 1298.06   55.99   2
   2  -1  -3 1193.43   56.83   2
  -2  -1   3 1308.22   38.28   2
   2  -1  -3 1302.78   27.45   2
   2  -1  -2 2169.33   42.93   2
   2  -1  -2 2172.57   48.03   2
   2  -1  -2 1872.65   60.06   2
   2  -1  -2  1961.5   56.91   2
  -2  -1   2 2006.07   65.05   2
  -2  -1   2 2104.13   46.02   2
   2  -1  -2 1996.18   66.97   2
   2  -1  -2 2028.04    58.3   2
  -2  -1   2 2106.25   66.32   2
  -2  -1   2 2066.28    69.5   2
   2  -1  -2 1781.27   63.49   2
  -2  -1   2 2204.47   47.07   2
   2  -1  -2 2153.03   46.91   2
  -2  -1   1 2274.79   45.63   2
   2  -1  -1 2271.13   46.67   2
  -2  -1   1  1848.1   69.76   2
   2  -1  -1 2059.98   68.89   2
  -2  -1   1 2245.66   68.21   2
   2  -1  -1 2256.48   45.36   2
   2  -1  -1 2277.97   43.07   2
  -2  -1   1 2150.38   67.93   2
   2  -1  -1 2077.52   59.87   2
   2  -1  -1 2100.65   67.82   2
  -2  -1   1 2290.14   46.38   2
   2  -1  -1 2231.56   46.14   2
   2  -1  -1 1950.96   54.93   2
   2  -1   0  902.13   24.66   2
   2  -1   0  928.33   26.53   2
   2  -1   0  936.82   47.55   2
   2  -1   0  907.47   25.95   2
  -2  -1   0  948.64   42.67   2
   2  -1   0  864.14   37.77   2
   2  -1   0  909.24   41.81   2
  -2  -1   0  907.34   25.95   2
  -2  -1   0  937.31   40.66   2
  -2  -1   0  885.39    50.4   2
  -2  -1   0   892.7   22.98   2
   2  -1   0  883.26   23.69   2
   2  -1   1 2650.16   51.25   2
  -2  -1  -1 2677.69   51.44   2
   2  -1   1 2653.83   51.41   2
  -2  -1  -1 2406.05   90.99   2
   2  -1   1  2703.1   51.59   2
   2  -1   1 2525.64    87.1   2
  -2  -1  -1 2557.61   46.49   2
   2  -1   1 2440.39   70.05   2
   2  -1   1 2485.34   71.34   2
  -2  -1  -1 2471.21    68.6   2
  -2  -1  -2  1000.4   30.43   2
   2  -1   2 1049.56   30.95   2
  -2  -1  -2 1036.22   60.64   2
  -2  -1  -2 1000.84   27.29   2
   2  -1   2 1067.11   57.16   2
   2  -1   2 1056.66   43.82   2
   2  -1   2 1053.01   45.59   2
   2  -1   2 1074.57   28.37   2
   2  -1   2 1066.88   31.97   2
  -2  -1  -3 3326.61   67.22   2
   2  -1   3 3186.32   67.45   2
   2  -1   3 3191.96   82.07   2
  -2  -1  -3 3340.99   63.62   2
  -2  -1  -3 3122.09  111.46   2
   2  -1   3 3165.36  107.89   2
   2  -1   3 3111.28   88.09   2
   2  -1   3 3358.47   75.46   2
  -2  -1  -4    35.4    6.23   2
  -2  -1  -4   42.31    5.85   2
   2  -1   4   46.43   13.05   2
  -2  -1  -4   49.56   14.93   2
   2  -1   4   54.34   10.29   2
   2  -1   4   45.13    7.56   2
   2  -1   4   36.52    9.25   2
  -2  -1  -4   39.25    6.83   2
   2  -1   4   50.68    8.82   2
   2  -1   5 2484.39   71.29   2
  -2  -1  -5 2225.57   63.56   2
  -2  -1  -5 2501.18  100.88   2
   2  -1   5 2214.06    76.5   2
  -2  -1  -5 2372.71   65.27   2
  -2  -1  -5 2414.69   59.66   2
   2  -1   5  2494.3   98.16   2
  -2  -1  -6   94.42   13.12   2
   2  -1   6  112.03   17.63   2
   2  -1   6  109.57   19.54   2
  -2  -1  -6  115.72   20.68   2
   2  -1   6   88.36   15.17   2
   2  -1   6  102.64      15   2
  -2  -1  -6  101.04   12.72   2
  -2  -1  -6   85.83   12.55   2
   2  -1   7 2202.01   84.35   2
  -2  -1  -7 2443.88  100.24   2
   2  -1   7 2493.59    79.6   2
  -2  -1  -7 2085.02   73.88   2
  -2  -1  -7 2053.81   68.85   2
   2  -1   7 2615.53   91.83   2
  -2  -1  -8   55.32   11.36   2
   2  -1   8   71.59      14   2
  -2  -1  -8   71.74   17.32   2
  -2  -1  -8   49.05   10.93   2
   2  -1   8   32.88    10.1   2
   2  -1   8   60.88   11.25   2
   2  -1   9 1348.89   77.72   2
   2  -1   9 1693.38   60.83   2
  -2  -1  -9 1640.32   82.96   2
  -2  -1  -9 1267.53   62.95   2
   2  -1   9 1472.34   74.55   2
  -2  -1  -9 1318.34   68.09   2
  -2  -1 -10   -3.15     6.5   2
  -2  -1 -10   -1.94    4.25   2
   2  -1  10   -6.76    9.28   2
   2  -1  10     6.6    4.92   2
  -2  -1 -11 1004.63    66.9   2
   2  -1  11 1141.76   65.89   2
  -2  -1 -11 1042.01   63.18   2
   2  -1  11 1152.44   80.41   2
  -2  -1 -12   81.57   19.75   2
   2  -1  12   77.41   16.46   2
  -2  -1 -12  100.21   19.72   2
   2  -1  12  112.83   25.44   2
   2  -1  13   663.7   51.82   2
  -2  -1 -13   631.5   57.14   2
  -2  -1 -13   634.7   53.19   2
   2  -1  13  698.51   66.22   2
  -2  -1 -14    7.08    7.04   2
   2  -1  14   15.37     7.3   2
  -2   0  14   12.67    9.59   2
  -2   0  13   49.88   15.86   2
   2   0 -13   66.76   19.86   2
  -2   0  13   58.27   16.49   2
  -2   0  12  217.29   31.65   2
   2   0 -12  248.49   35.48   2
  -2   0  12  207.04    32.6   2
  -2   0  11  148.42   25.65   2
   2   0 -11  143.03   26.11   2
  -2   0  11  113.82   21.96   2
  -2   0  10  166.15   15.25   2
  -2   0  10  106.36   20.35   2
   2   0 -10  121.56   23.75   2
  -2   0  10     101    21.5   2
   2   0 -10  139.17   13.02   2
  -2   0   9  429.89   39.62   2
  -2   0   9  527.54   29.18   2
   2   0  -9  569.01   29.92   2
  -2   0   9  385.35   38.14   2
   2   0  -9   503.5   47.09   2
  -2   0   8  800.29    50.7   2
  -2   0   8  996.93   42.27   2
  -2   0   8  828.69   51.39   2
   2   0  -8 1033.73   43.85   2
   2   0  -8  780.72    32.4   2
   2   0  -8 1010.57   65.45   2
  -2   0   7  788.36   38.55   2
  -2   0   7  719.68   43.74   2
  -2   0   7   704.7   42.94   2
   2   0  -7  656.06   29.57   2
   2   0  -7  743.52    53.4   2
  -2   0   6  607.18   35.22   2
  -2   0   6  637.03   37.15   2
  -2   0   6  578.96   40.41   2
  -2   0   6  589.09   33.21   2
   2   0  -6  570.62    26.6   2
   2   0  -6  725.02    39.7   2
   2   0  -6  572.76   27.22   2
   2   0  -6  639.35   46.91   2
  -2   0   6  635.78   36.11   2
  -2   0   5 1409.06   48.99   2
  -2   0   5 1372.71   57.65   2
   2   0  -5 1420.68   45.38   2
  -2   0   5 1410.91   48.95   2
   2   0  -5 1460.14   49.63   2
   2   0  -5 1468.86   50.02   2
  -2   0   5 1405.67   52.71   2
   2   0  -5 1389.98    43.4   2
  -2   0   5 1389.11   57.62   2
   2   0  -5 1429.25   64.98   2
   2   0  -4 3459.19   74.72   2
  -2   0   4 3388.67   84.05   2
   2   0  -4 3404.12   73.46   2
  -2   0   4 3371.57   73.11   2
  -2   0   4 3147.82   83.08   2
   2   0  -4  3322.6   72.77   2
   2   0  -4 3269.15   75.45   2
   2   0  -4 3085.27   90.42   2
  -2   0   4 3407.22   73.62   2
  -2   0   3 1031.73   32.89   2
   2   0  -3 1019.26   30.82   2
   2   0  -3 1038.69   32.69   2
   2   0  -3  998.65   36.58   2
  -2   0   3  964.51   35.57   2
   2   0  -3 1048.87   33.32   2
  -2   0   3 1034.87    43.2   2
   2   0  -3  981.52   23.74   2
  -2   0   3 1017.01   47.51   2
   2   0  -3  991.07   45.93   2
   2   0  -3 1044.16   39.11   2
  -2   0   3 1026.44   32.75   2
   2   0  -3   974.3   40.53   2
   2   0  -2 1820.49   48.99   2
   2   0  -2 2003.86   42.63   2
  -2   0   2 1969.28   45.06   2
   2   0  -2 1980.97   44.49   2
  -2   0   2 1906.23   59.55   2
   2   0  -2  1828.4   53.29   2
   2   0  -2 1958.39   64.65   2
   2   0  -2 2104.11   53.38   2
   2   0  -2 1869.86   56.66   2
   2   0  -2 2066.21   52.06   2
  -2   0   2 2022.31   45.17   2
  -2   0   2 2022.35   45.05   2
   2   0  -2 2011.55   45.05   2
   2   0  -1 1966.91   42.64   2
  -2   0   1 2032.08   41.09   2
   2   0  -1 2006.02   42.82   2
  -2   0   1    2066   43.83   2
  -2   0   1 1943.44   59.74   2
   2   0  -1 2094.62   41.95   2
  -2   0   1 1870.81   57.11   2
   2   0  -1 2049.38   68.57   2
   2   0  -1 2003.94   41.12   2
   2   0  -1 1989.75      57   2
   2   0  -1 1835.89   60.49   2
   2   0  -1 1955.66    59.7   2
   2   0  -1 2069.23   43.33   2
   2   0   0 5962.52   87.33   2
  -2   0   0 6357.76   88.87   2
   2   0   0 5801.12   80.55   2
  -2   0   0 6300.21   87.32   2
   2   0   0 6054.28   90.44   2
  -2   0   0 5585.14  113.28   2
   2   0   0  4385.7  129.49   2
  -2   0   0  4866.5  123.34   2
   2   0   0 6124.71    87.3   2
   2   0   0 4528.77  108.29   2
   2   0   0 4780.34  112.25   2
   2   0   0 4873.04  108.89   2
  -2   0  -1  773.02   35.74   2
  -2   0  -1  758.29   23.71   2
  -2   0  -1  710.04    47.1   2
   2   0   1  748.37   37.39   2
   2   0   1  750.62   22.82   2
   2   0   1  770.27    51.7   2
  -2   0  -1  745.34   22.26   2
   2   0   1  751.55   23.83   2
   2   0   1  768.63   35.73   2
   2   0   1  806.15   40.46   2
   2   0   1  749.45   24.17   2
   2   0   2 2826.74   55.12   2
   2   0   2 3071.88  111.16   2
  -2   0  -2 2586.44  101.63   2
  -2   0  -2 2941.14   55.07   2
  -2   0  -2 2878.21   74.65   2
  -2   0  -2 2911.16   57.34   2
   2   0   2 2685.61   79.67   2
   2   0   2 2652.79   70.69   2
   2   0   2 2893.49   57.45   2
   2   0   2 2795.18   84.08   2
   2   0   2 2786.74   47.14   2
   2   0   3  633.22   25.84   2
  -2   0  -3  613.64   24.67   2
   2   0   3   735.9   53.31   2
  -2   0  -3  617.02    25.6   2
  -2   0  -3  734.97   53.26   2
  -2   0  -3  634.45   33.02   2
   2   0   3  601.35   36.66   2
   2   0   3  630.94   31.55   2
   2   0   3  642.51   39.92   2
  -2   0  -3  607.75   36.07   2
   2   0   3   656.7   23.48   2
   2   0   4 4088.08   87.45   2
   2   0   4 4885.89  143.39   2
  -2   0  -4 4224.48   84.08   2
  -2   0  -4 5009.23   149.8   2
   2   0   4 3927.74  107.01   2
   2   0   4 3763.33  107.35   2
  -2   0  -4 4234.35   74.49   2
  -2   0  -4 3766.99  102.08   2
  -2   0  -4  4214.3    85.9   2
   2   0   4 3863.48   84.73   2
   2   0   4  4167.9   91.37   2
   2   0   5  136.97   15.78   2
  -2   0  -5  114.27   13.19   2
  -2   0  -5  110.32   15.39   2
   2   0   5  152.03   22.96   2
  -2   0  -5  143.44   24.34   2
   2   0   5  128.09    13.6   2
  -2   0  -5  104.38   12.68   2
   2   0   5  113.57   16.48   2
   2   0   5  119.56   17.57   2
  -2   0  -5   117.2   11.63   2
   2   0   5   119.7   15.27   2
  -2   0  -6 1849.01   63.92   2
   2   0   6 1958.73   73.44   2
  -2   0  -6  1766.7   62.79   2
   2   0   6 2169.66    91.2   2
  -2   0  -6  2434.1     102   2
   2   0   6 1855.68   56.89   2
   2   0   6 2172.59   75.03   2
  -2   0  -6 1825.16   57.83   2
   2   0   6 2137.93   89.39   2
   2   0   6  1876.6   71.04   2
   2   0   6  1829.6   71.18   2
  -2   0  -7   11.95     5.2   2
   2   0   7    8.01    3.54   2
   2   0   7    4.66    3.04   2
   2   0   7    5.34    0.95   2
   2   0   7    1.07    4.58   2
   2   0   8 1725.16   66.23   2
   2   0   8 1635.82   60.04   2
   2   0   8 1460.17    76.3   2
   2   0   8 1517.11   75.44   2
  -2   0  -8  1351.9   60.62   2
  -2   0  -9   -4.62    5.63   2
   2   0   9    6.55    3.91   2
   2   0   9    1.91    1.81   2
   2   0   9   -6.73    6.02   2
   2   0   9    4.35    0.44   2
   2   0  10  517.97      43   2
  -2   0 -10  419.62   37.17   2
   2   0  10  426.39   46.83   2
  -2   0 -11   11.55    7.93   2
   2   0  11    4.24    2.44   2
   2   0  11    4.83    3.44   2
   2   0  12  283.21   32.45   2
  -2   0 -12  247.24   31.07   2
   2   0  12  325.29   43.73   2
  -2   0 -13   57.49   16.75   2
   2   0  13   81.52    23.2   2
   2   0  13    42.6   12.86   2
   2   0  14   84.61   18.22   2
  -2   0 -14   68.56   17.67   2
  -2   1  14  531.67   53.01   2
  -2   1  14  548.05   54.94   2
  -2   1  13    7.43    3.33   2
  -2   1  13   34.01   13.12   2
   2   1 -13   29.18   13.81   2
  -2   1  12  980.11    69.6   2
  -2   1  12 1123.16   75.25   2
  -2   1  11    4.03    3.42   2
   2   1 -11   17.02   10.33   2
  -2   1  11    7.94    4.47   2
  -2   1  10 1012.48   68.26   2
  -2   1  10 1563.08   54.47   2
  -2   1  10 1107.89   67.71   2
   2   1 -10 1456.61   84.19   2
  -2   1   9   16.74    6.66   2
   2   1  -9   17.28    4.65   2
  -2   1   9    9.77    6.58   2
  -2   1   9   20.63    6.38   2
  -2   1   8 1494.61   73.68   2
  -2   1   8 1617.08   71.17   2
   2   1  -8 1701.71   84.37   2
  -2   1   7  125.56   15.93   2
   2   1  -7  125.35   20.24   2
   2   1  -7  104.71   10.31   2
  -2   1   7  117.45   16.93   2
  -2   1   7  120.26   18.58   2
   2   1  -7  105.92   12.81   2
  -2   1   6 1979.17   68.98   2
   2   1  -6 1927.13   69.29   2
  -2   1   6 1890.08   79.83   2
  -2   1   6 1964.61   66.09   2
   2   1  -6 1889.91   48.35   2
   2   1  -6 1883.94   57.08   2
  -2   1   6 1980.24   63.98   2
   2   1  -6 1933.48   77.14   2
   2   1  -5  543.58   30.59   2
   2   1  -5  500.44    26.8   2
  -2   1   5  521.05   29.77   2
  -2   1   5  423.31   33.73   2
   2   1  -5  511.61   23.67   2
  -2   1   5   455.8   30.36   2
   2   1  -5  482.81   26.96   2
   2   1  -5  491.27   33.74   2
  -2   1   5  507.56   27.39   2
  -2   1   4  1905.2   67.07   2
   2   1  -4 2077.56   63.79   2
   2   1  -4 2137.31   53.24   2
  -2   1   4  2078.8   56.35   2
  -2   1   4 1977.19   65.34   2
   2   1  -4 2046.97   53.03   2
   2   1  -4 2179.54   57.69   2
   2   1  -4    2065   59.53   2
  -2   1   4  2070.9   53.72   2
  -2   1   3 1050.26   41.54   2
   2   1  -3 1138.87   35.74   2
   2   1  -3 1096.29   39.41   2
   2   1  -3 1101.17    32.9   2
  -2   1   3 1094.25   35.03   2
   2   1  -3 1140.03   34.08   2
   2   1  -3 1106.12   38.44   2
  -2   1   3  1083.9   45.42   2
   2   1  -3  1124.4   42.63   2
   2   1  -3 1137.87   24.11   2
  -2   1   3 1081.03   33.61   2
  -2   1   2 1888.19   48.11   2
   2   1  -2 2059.02      45   2
   2   1  -2 2112.72    49.9   2
   2   1  -2  2039.8   44.48   2
   2   1  -2 2088.75   46.24   2
   2   1  -2 1940.04   42.86   2
   2   1  -2 1927.91   42.23   2
   2   1  -2 1948.43    55.7   2
  -2   1   2 2003.11   61.99   2
   2   1  -2 1953.12   59.66   2
  -2   1   2 2039.48   46.16   2
  -2   1   2  2105.4   45.78   2
   2   1  -1 2002.42   42.32   2
  -2   1   1 1911.06   37.73   2
   2   1  -1 1877.46   38.18   2
   2   1  -1 1782.41    48.6   2
   2   1  -1 1931.66   41.88   2
   2   1  -1 1809.86   48.46   2
   2   1  -1  1816.5   55.84   2
  -2   1   1 1967.71   42.58   2
  -2   1   1 1955.31   38.81   2
  -2   1   1 1926.94   58.81   2
  -2   1   1 1888.98    57.1   2
   2   1  -1  1737.9   57.84   2
   2   1  -1 1929.02   41.57   2
   2   1  -1 1927.96    41.6   2
   2   1   0  688.79   22.35   2
  -2   1   0  744.31   21.82   2
  -2   1   0  687.76   22.15   2
   2   1   0   731.2   23.39   2
  -2   1   0  727.39   22.77   2
   2   1   0  750.58   35.76   2
   2   1   0  728.66   20.67   2
   2   1   0  690.51   34.91   2
  -2   1   0  743.95   33.97   2
   2   1   0  711.03   34.51   2
  -2   1   0  750.44    35.8   2
   2   1   0  682.67   35.97   2
  -2   1  -1 2291.84    44.9   2
   2   1   1 2137.11   74.67   2
   2   1   1 2186.13   45.48   2
   2   1   1  2205.1   42.01   2
  -2   1  -1 2194.29    45.2   2
  -2   1  -1 2156.95   61.14   2
   2   1   1 2081.89   73.03   2
  -2   1  -1 2105.09   66.16   2
   2   1   1 2127.07   69.31   2
   2   1   2  939.16   28.67   2
  -2   1  -2  948.73   28.99   2
   2   1   2   877.4   26.45   2
   2   1   2  975.67   54.27   2
  -2   1  -2  925.77   28.46   2
   2   1   2  875.66   44.22   2
  -2   1  -2  938.88   38.29   2
  -2   1  -2  902.54   43.45   2
   2   1   2  944.25   52.79   2
   2   1   2  897.56   24.18   2
   2   1   2  914.52   37.41   2
   2   1   2  949.35    46.6   2
  -2   1  -3  3387.1   69.16   2
   2   1   3 3364.77   68.32   2
   2   1   3 2912.91  106.76   2
   2   1   3 3025.13   92.72   2
  -2   1  -3 3135.38   90.17   2
   2   1   3 3241.52      77   2
   2   1   3 2905.61  104.63   2
  -2   1  -3 3489.71   69.17   2
  -2   1  -3 3416.15   54.31   2
   2   1   3 3061.62    92.4   2
   2   1   3 3343.97    62.1   2
  -2   1  -3 3438.83    79.9   2
   2   1   3 3363.95   67.41   2
  -2   1  -4    39.9    7.19   2
  -2   1  -4   36.23    5.48   2
   2   1   4    32.5    5.54   2
   2   1   4   45.71   12.05   2
   2   1   4   43.31   13.14   2
   2   1   4   36.89    8.12   2
  -2   1  -4   29.15    5.94   2
  -2   1  -4   34.92    7.64   2
   2   1   4   33.72    9.96   2
   2   1   4   35.22    6.72   2
   2   1   4   29.99     7.4   2
  -2   1  -4   23.17    6.88   2
  -2   1  -5 2154.28   64.39   2
   2   1   5 2204.39   69.46   2
  -2   1  -5 2151.63   57.91   2
   2   1   5  2059.7    78.5   2
   2   1   5  2213.2    60.5   2
  -2   1  -5 2282.76   77.21   2
   2   1   5 2357.32   96.05   2
   2   1   5 2098.64   74.63   2
   2   1   5 2194.82   63.09   2
  -2   1  -5 2113.01   62.74   2
  -2   1  -6   55.86    9.64   2
   2   1   6   65.38    11.7   2
   2   1   6   62.67   14.95   2
   2   1   6   66.03    13.1   2
   2   1   6      63   12.73   2
   2   1   6   53.54   13.94   2
   2   1   6   55.12    8.75   2
   2   1   6   47.17   10.49   2
  -2   1  -6   72.17    12.9   2
   2   1   7 2189.21   88.42   2
   2   1   7 2194.74   60.59   2
   2   1   7 2501.76   98.47   2
  -2   1  -7 2570.79    81.2   2
   2   1   7  2620.1    87.9   2
   2   1   7 2408.29   73.92   2
  -2   1  -7  2030.6   72.02   2
   2   1   7 2243.55   82.85   2
   2   1   8   99.82   19.21   2
   2   1   8   75.02   17.15   2
  -2   1  -8   76.08   13.78   2
   2   1   8  106.38   16.29   2
   2   1   8   92.19   13.04   2
  -2   1  -8   85.71   13.13   2
  -2   1  -9 1530.84   70.31   2
   2   1   9 1575.53   77.21   2
   2   1   9 1698.09   68.16   2
   2   1   9 1587.67   52.13   2
  -2   1  -9 1592.74   60.25   2
  -2   1 -10   -4.31     1.5   2
   2   1  10    0.33    2.31   2
   2   1  10   -1.72    5.19   2
   2   1  11 1395.95   87.48   2
   2   1  11 1289.79    71.3   2
  -2   1 -11 1303.53   70.68   2
  -2   1 -12  132.35   23.58   2
   2   1  12  126.82   21.54   2
   2   1  12  137.43   27.53   2
   2   1  13  688.75   52.85   2
  -2   1 -13  670.07   53.19   2
   2   1  13  747.02   66.54   2
   2   1  14    0.09    6.14   2
  -2   1 -14     0.3    6.16   2
  -2   2  14   37.94   14.77   2
  -2   2  13   76.13   20.16   2
  -2   2  13   73.83   19.63   2
   2   2 -13   63.28   18.46   2
  -2   2  12  304.05   38.45   2
  -2   2  12  306.81   39.82   2
  -2   2  11   70.34   17.75   2
  -2   2  11  106.43   22.42   2
   2   2 -11  100.74    23.5   2
  -2   2  11  144.44   16.82   2
  -2   2  10  238.14   30.03   2
  -2   2  10  181.75   28.69   2
  -2   2  10  269.84   24.41   2
   2   2 -10  219.14   32.58   2
  -2   2   9  296.39   31.39   2
  -2   2   9  268.34   34.15   2
   2   2  -9  331.18   37.31   2
  -2   2   8 1269.39   60.61   2
  -2   2   8 1199.54   67.22   2
   2   2  -8 1385.43   72.89   2
  -2   2   7  386.79    29.2   2
  -2   2   7  410.96   35.34   2
   2   2  -7  369.24   17.73   2
  -2   2   7   476.9   34.06   2
   2   2  -7  408.16   35.59   2
  -2   2   6   885.3   46.89   2
   2   2  -6  876.92   48.03   2
  -2   2   6  948.02   48.61   2
   2   2  -6  874.82   30.19   2
   2   2  -6  902.52   41.47   2
  -2   2   6 1038.09   60.77   2
   2   2  -6  958.25   49.66   2
  -2   2   6  901.37    40.8   2
   2   2  -5   644.8   36.29   2
   2   2  -5   637.9   35.99   2
   2   2  -5  657.21   30.42   2
  -2   2   5   644.7    35.2   2
   2   2  -5  674.98   27.26   2
   2   2  -5   662.2   35.46   2
  -2   2   5  642.71   39.05   2
   2   2  -5  657.72   35.01   2
  -2   2   5  736.21   48.21   2
  -2   2   5   646.5   30.34   2
   2   2  -4 2883.43   74.49   2
   2   2  -4 2841.49   62.13   2
  -2   2   4 2685.86   68.46   2
   2   2  -4  2774.1   45.49   2
   2   2  -4 2862.94   65.86   2
  -2   2   4 2635.58   81.82   2
   2   2  -4 2674.16   75.28   2
   2   2  -4 2769.33   70.55   2
  -2   2   4 2859.13   64.19   2
  -2   2   4 2821.08   92.73   2
   2   2  -3 1061.91   37.87   2
   2   2  -3  931.83    29.5   2
  -2   2   3  976.04   34.07   2
   2   2  -3  787.49   22.89   2
   2   2  -3 1004.88   37.62   2
  -2   2   3  977.71   45.46   2
   2   2  -3 1002.26   24.79   2
   2   2  -3 1004.14   34.86   2
  -2   2   3  982.64   37.78   2
   2   2  -3  970.61   42.67   2
   2   2  -3 1003.06   33.18   2
  -2   2   3  977.87    31.5   2
  -2   2   3  829.97   44.14   2
   2   2  -2 1572.25   39.63   2
  -2   2   2 1581.08   40.28   2
   2   2  -2 1583.65   37.76   2
   2   2  -2 1526.27   36.84   2
   2   2  -2 1585.59   40.35   2
   2   2  -2  1532.6   50.03   2
  -2   2   2 1499.04   55.73   2
  -2   2   2 1527.04   50.28   2
   2   2  -2  1540.7   55.34   2
   2   2  -2 1567.16   42.01   2
   2   2  -2 1522.69   37.03   2
  -2   2   2 1389.56   50.02   2
   2   2  -1  714.57   27.15   2
   2   2  -1  717.83   24.26   2
  -2   2   1  737.26   20.59   2
  -2   2   1  720.36   23.98   2
   2   2  -1  715.07   23.18   2
   2   2  -1   746.3   27.68   2
   2   2  -1  739.53   35.92   2
   2   2  -1  696.09   19.97   2
  -2   2   1  742.02   35.35   2
   2   2  -1  775.31   38.87   2
  -2   2   1  768.11   36.65   2
   2   2  -1  748.73   23.79   2
  -2   2   1  706.92   26.57   2
   2   2   0 3031.34    73.7   2
   2   2   0 3596.66   63.01   2
  -2   2   0 3326.26   86.64   2
  -2   2   0 3767.68   62.85   2
  -2   2   0 3523.82    84.3   2
   2   2   0 3495.06    62.6   2
   2   2   0 3125.05   74.83   2
   2   2   0 3644.03   55.62   2
   2   2   0 3139.52   86.66   2
  -2   2   0    3721   64.11   2
  -2   2   0 3664.36   58.66   2
   2   2   0 3092.39    88.6   2
   2   2   0 3424.89   59.18   2
  -2   2  -1   377.8   15.86   2
   2   2   1  413.48   27.24   2
   2   2   1  397.37   26.59   2
   2   2   1  386.27   14.06   2
  -2   2  -1   365.3   16.78   2
   2   2   1  412.82   30.02   2
  -2   2  -1  375.71   24.02   2
  -2   2  -1  409.81   29.19   2
   2   2   1  412.91   30.11   2
   2   2   1     374   16.85   2
  -2   2  -2 1798.44   43.22   2
   2   2   2 1789.09   40.01   2
   2   2   2 1786.41   66.36   2
  -2   2  -2 1806.07   44.01   2
   2   2   2 1889.72   68.28   2
   2   2   2 1694.06    68.5   2
  -2   2  -2 1802.87   54.98   2
  -2   2  -2 1742.38   65.67   2
   2   2   2 1729.95   66.02   2
   2   2   2 1818.52    43.1   2
  -2   2  -3  431.31   21.72   2
   2   2   3  460.44    22.3   2
  -2   2  -3  428.51   21.61   2
   2   2   3  424.53   34.73   2
   2   2   3  426.41   34.56   2
  -2   2  -3  434.84   25.28   2
  -2   2  -3  396.31   30.97   2
   2   2   3  472.53   36.83   2
   2   2   3  429.55   20.65   2
   2   2   3  428.65   19.16   2
   2   2   3  416.75    32.1   2
  -2   2  -3   442.3   16.57   2
   2   2   4 2567.25   67.69   2
   2   2   4 2336.28      92   2
  -2   2  -4 2527.02   64.04   2
   2   2   4 2460.39   58.21   2
  -2   2  -4 2407.62   63.41   2
   2   2   4 2351.67   92.27   2
  -2   2  -4 2612.24   67.21   2
  -2   2  -4 2563.56   85.07   2
   2   2   4 2426.67   63.69   2
   2   2   4 2163.11   77.69   2
  -2   2  -4 2429.11   58.71   2
  -2   2  -5    84.2   11.88   2
   2   2   5   93.44   18.56   2
  -2   2  -5   89.27   11.32   2
   2   2   5  101.76   14.56   2
   2   2   5   89.56   11.01   2
   2   2   5   95.64   18.91   2
   2   2   5   98.61   11.72   2
  -2   2  -5   95.07   11.92   2
  -2   2  -5    96.4    15.9   2
   2   2   5   90.98    14.8   2
   2   2   6  793.28   47.49   2
   2   2   6  864.08   58.55   2
  -2   2  -6  895.44   49.13   2
   2   2   6  778.97   33.25   2
   2   2   6  887.36   53.07   2
   2   2   6  819.51   43.41   2
  -2   2  -6  753.23   40.71   2
   2   2   6   812.6   40.08   2
  -2   2  -7   90.02    14.6   2
   2   2   7  104.41   11.42   2
   2   2   7  128.39   19.56   2
   2   2   7  111.79   20.25   2
   2   2   7  119.04    15.2   2
   2   2   7   76.92    16.1   2
  -2   2  -7   96.96   15.71   2
   2   2   8 1287.37   71.25   2
   2   2   8 1066.38   38.02   2
   2   2   8 1262.58   62.89   2
  -2   2  -8 1235.03   56.47   2
   2   2   8 1177.32   46.48   2
  -2   2  -8 1173.46   58.54   2
   2   2   9    9.05    3.79   2
  -2   2  -9   -2.25    2.88   2
   2   2   9    1.91    6.11   2
   2   2   9    9.68    6.32   2
  -2   2  -9    7.68    5.81   2
   2   2   9     6.2    2.91   2
   2   2  10  280.61   33.21   2
  -2   2 -10  270.94   30.29   2
   2   2  10  253.45   35.05   2
  -2   2 -11   22.89    9.75   2
   2   2  11   12.51    4.05   2
   2   2  11   15.03    8.71   2
   2   2  12  256.87   31.89   2
   2   2  12  265.39    37.8   2
  -2   2 -12  229.46   29.98   2
   2   2  13    8.95    4.23   2
   2   2  13   26.17   10.78   2
  -2   2 -13    40.6   13.52   2
   2   2  14   68.69   20.34   2
  -2   2 -14    64.3   16.25   2
   2   2  14   45.51   13.45   2
  -2   3  14  470.48   49.41   2
  -2   3  13   86.42   18.79   2
   2   3 -13   86.79   21.46   2
  -2   3  13   84.12   22.02   2
  -2   3  12  803.03    61.2   2
  -2   3  12  964.36   72.89   2
   2   3 -12  1006.3   75.24   2
  -2   3  11   67.49   16.54   2
  -2   3  11   89.02   20.65   2
  -2   3  11  108.17   16.51   2
   2   3 -11  121.01   25.42   2
  -2   3  10  752.06   60.91   2
  -2   3  10  871.92   57.06   2
   2   3 -10  929.86   66.39   2
  -2   3   9  274.14   29.48   2
  -2   3   9  287.17   17.46   2
  -2   3   9  289.01   36.11   2
  -2   3   9  370.51   31.74   2
   2   3  -9  301.98   34.94   2
  -2   3   8 1600.67   45.31   2
  -2   3   8 1480.24   77.51   2
  -2   3   8 1597.82   65.95   2
   2   3  -8 1672.27   77.34   2
   2   3  -8 1552.57   34.76   2
  -2   3   7  268.55   17.47   2
   2   3  -7  259.54   14.21   2
  -2   3   7  309.63   29.45   2
  -2   3   7  246.38    28.2   2
  -2   3   7  273.49   23.94   2
   2   3  -7  249.28   26.86   2
   2   3  -6 1440.56    59.7   2
  -2   3   6 1432.79   65.33   2
  -2   3   6 1364.13   61.05   2
   2   3  -6 1355.25   66.37   2
   2   3  -6 1409.46    39.5   2
  -2   3   6  1377.7    42.1   2
  -2   3   6 1371.94   49.34   2
   2   3  -5  772.15   40.59   2
   2   3  -5  826.95   33.14   2
  -2   3   5  834.55    41.1   2
   2   3  -5  756.48   22.68   2
   2   3  -5  795.33   44.74   2
   2   3  -5  823.92   31.86   2
  -2   3   5  766.09   46.66   2
  -2   3   5  768.84   32.04   2
   2   3  -5  771.83   41.87   2
  -2   3   5  901.08   54.66   2
  -2   3   5  783.65   33.01   2
   2   3  -5  807.59    40.1   2
   2   3  -4 1586.92   52.16   2
   2   3  -4 1510.78    47.2   2
   2   3  -4 1527.74   34.98   2
  -2   3   4 1391.68   62.74   2
  -2   3   4 1515.84   49.94   2
  -2   3   4 1467.96   47.58   2
   2   3  -4 1542.95   60.58   2
   2   3  -4 1534.32   52.68   2
  -2   3   4 1550.83   68.37   2
   2   3  -4 1537.22   42.04   2
  -2   3   4 1531.59   43.83   2
   2   3  -4 1504.57   54.57   2
   2   3  -3 1027.17    37.1   2
   2   3  -3  994.72   34.53   2
   2   3  -3  985.03   36.34   2
   2   3  -3  980.72   29.83   2
  -2   3   3  967.34   34.88   2
   2   3  -3 1022.65   29.04   2
   2   3  -3  989.78   39.55   2
   2   3  -3  997.23   28.52   2
  -2   3   3  931.64   48.48   2
  -2   3   3  961.17      39   2
   2   3  -3  993.41   48.38   2
  -2   3   3  901.98   47.23   2
  -2   3   3  987.54   31.74   2
   2   3  -2 1383.58   38.52   2
  -2   3   2 1341.14   37.85   2
   2   3  -2 1371.84    34.2   2
   2   3  -2  1411.3   39.88   2
   2   3  -2 1418.01   38.01   2
   2   3  -2 1396.95   51.22   2
  -2   3   2 1341.72   56.34   2
  -2   3   2 1317.07   48.84   2
   2   3  -2 1342.98   37.05   2
   2   3  -2 1409.34   39.24   2
   2   3  -2 1420.29   58.37   2
  -2   3   2 1213.89   49.63   2
   2   3  -1 2090.99   44.83   2
  -2   3   1 2096.92   38.41   2
  -2   3   1 2045.86   44.94   2
   2   3  -1 2109.89   44.01   2
   2   3  -1  2056.4   51.84   2
   2   3  -1 1954.71   66.75   2
  -2   3   1 2013.08   64.94   2
  -2   3   1 2024.23   67.49   2
   2   3  -1 2016.92   72.16   2
   2   3  -1 2080.11   46.93   2
   2   3  -1 2053.26   51.78   2
  -2   3   1 1981.23    53.6   2
   2   3   0 1033.93   37.96   2
  -2   3   0  1016.2      25   2
  -2   3   0 1064.75   48.85   2
  -2   3   0 1036.45   28.21   2
   2   3   0 1036.22   29.29   2
   2   3   0 1052.52    38.4   2
   2   3   0 1025.08   22.28   2
  -2   3   0 1052.43   30.71   2
  -2   3   0 1069.06   44.94   2
   2   3   0 1063.24    30.5   2
   2   3   0 1062.91   51.76   2
  -2   3   0 1027.89   27.35   2
   2   3   0 1048.73   27.11   2
  -2   3  -1  2461.5   47.37   2
   2   3   1  2424.1   50.47   2
   2   3   1 2227.28   65.49   2
   2   3   1 2322.45   66.76   2
   2   3   1 2445.18   41.42   2
  -2   3  -1 2499.91   52.61   2
  -2   3  -1 2440.82   68.82   2
  -2   3  -1 2410.89   80.89   2
   2   3   1 2316.13   81.73   2
   2   3   2  670.89   22.41   2
  -2   3  -2  599.04   24.62   2
  -2   3  -2  674.89   43.27   2
   2   3   2  637.78   36.47   2
  -2   3  -2  636.14   32.02   2
  -2   3  -2  599.68   23.28   2
   2   3   2  675.59   42.99   2
   2   3   2  679.06   37.82   2
   2   3   2  602.21   23.35   2
  -2   3  -2  613.81   18.67   2
   2   3   3 2102.57   76.66   2
   2   3   3 2131.18   54.24   2
  -2   3  -3 2038.53    80.5   2
  -2   3  -3 2210.89   55.05   2
  -2   3  -3 2010.71   52.51   2
  -2   3  -3 2145.45   61.34   2
   2   3   3 2077.91    50.3   2
   2   3   3 2109.78   77.51   2
   2   3   3 2046.23   49.55   2
   2   3   3 1899.09   75.57   2
  -2   3  -3 2250.04   54.77   2
   2   3   4   373.5   25.17   2
   2   3   4  399.07   34.51   2
  -2   3  -4  363.26   23.01   2
  -2   3  -4  380.17   23.18   2
   2   3   4  339.67   19.85   2
   2   3   4  387.39    32.7   2
  -2   3  -4     391   25.77   2
   2   3   4  363.54   33.31   2
  -2   3  -4  392.08   34.59   2
   2   3   5  2122.2   91.12   2
   2   3   5 2079.91   73.39   2
  -2   3  -5 2287.18   62.83   2
   2   3   5 2149.17   60.32   2
   2   3   5 2193.36   61.47   2
   2   3   5 2339.99   81.35   2
   2   3   5 2095.53   89.75   2
   2   3   6  250.86   31.12   2
   2   3   6  258.12   27.42   2
  -2   3  -6  274.78   20.19   2
  -2   3  -6  302.22   30.55   2
   2   3   6   287.2   19.91   2
   2   3   6  319.36   27.11   2
   2   3   6  262.04    21.7   2
  -2   3  -6   335.2   28.23   2
   2   3   7 1879.07   84.33   2
  -2   3  -7 2504.84   88.89   2
   2   3   7 2055.31   56.77   2
   2   3   7 2284.73    71.4   2
  -2   3  -7  2486.3   84.57   2
   2   3   7 2259.78   98.77   2
   2   3   8   340.6   35.39   2
   2   3   8  349.37   38.17   2
   2   3   8  319.33   19.32   2
  -2   3  -8  418.83   34.31   2
   2   3   8  392.76   25.95   2
  -2   3  -8  406.54   34.21   2
   2   3   9 1487.05   79.99   2
  -2   3  -9 1435.56    64.5   2
  -2   3  -9 1517.93   71.19   2
   2   3  10  132.36   23.87   2
  -2   3 -10  111.15   19.03   2
   2   3  10    87.7   20.57   2
   2   3  11 1236.39   77.94   2
  -2   3 -11 1208.35   67.84   2
   2   3  11 1233.87   72.63   2
   2   3  12  210.65   29.67   2
   2   3  12  218.98    32.2   2
  -2   3 -12  242.31   30.73   2
   2   3  13  624.64   51.82   2
   2   3  13  649.52   58.52   2
  -2   3 -13  635.21   51.48   2
  -2   3 -14   28.03   10.53   2
   2   3  14   39.66      14   2
   2   3  14   34.99   12.08   2
  -2   4  14   12.93    5.88   2
  -2   4  13   34.58   12.93   2
  -2   4  13   20.29    8.19   2
   2   4 -13   46.98   15.92   2
  -2   4  12  204.65    32.9   2
   2   4 -12  177.68   30.96   2
  -2   4  12  117.71   21.37   2
  -2   4  11   95.41   19.15   2
  -2   4  11  114.66    23.5   2
   2   4 -11   90.03   19.63   2
  -2   4  11   157.7   21.16   2
  -2   4  10  111.35   19.22   2
  -2   4  10  106.42   22.37   2
   2   4 -10  141.73   24.83   2
  -2   4  10  117.17    12.9   2
  -2   4   9  301.05    21.7   2
  -2   4   9  285.45   35.62   2
   2   4  -9  331.88   35.06   2
  -2   4   9  250.89   26.94   2
  -2   4   8  797.52   36.96   2
  -2   4   8  748.13   55.26   2
   2   4  -8  768.62   22.03   2
  -2   4   8  803.66   44.18   2
   2   4  -8  846.02   52.16   2
   2   4  -7  466.46   35.35   2
  -2   4   7  461.83   27.91   2
  -2   4   7  481.67   40.55   2
   2   4  -7  478.07    20.5   2
  -2   4   7  495.83   40.66   2
  -2   4   7  502.61   31.21   2
   2   4  -6  777.83   42.48   2
  -2   4   6  776.96   45.99   2
   2   4  -6  822.26   55.95   2
   2   4  -6  765.54   29.74   2
  -2   4   6   778.2   51.46   2
  -2   4   6  741.06   31.52   2
  -2   4   6  791.79   36.13   2
  -2   4   6  724.51   34.38   2
   2   4  -5 1344.96   36.16   2
   2   4  -5 1346.41   66.65   2
   2   4  -5 1418.33   43.73   2
  -2   4   5 1350.87   54.45   2
   2   4  -5 1307.74   57.49   2
   2   4  -5 1407.79   53.01   2
  -2   4   5 1319.94    47.5   2
   2   4  -5 1382.91   44.65   2
  -2   4   5  1236.1   65.46   2
  -2   4   5 1320.92   45.06   2
  -2   4   5 1336.76   65.41   2
  -2   4   5 1347.11   43.77   2
   2   4  -4 2267.78   63.65   2
   2   4  -4 2326.89   52.82   2
  -2   4   4 2243.28   64.44   2
   2   4  -4 2185.74   62.68   2
   2   4  -4 2342.97   80.33   2
  -2   4   4 2142.49   85.98   2
  -2   4   4 2194.61   63.04   2
   2   4  -4 2261.34   50.67   2
   2   4  -4 2244.36    70.4   2
   2   4  -4 2301.59   82.61   2
  -2   4   4 2248.92    78.2   2
  -2   4   4  2327.9   55.51   2
   2   4  -3  802.98   31.68   2
   2   4  -3  767.98   25.65   2
  -2   4   3  781.92   31.76   2
   2   4  -3  779.49   32.49   2
   2   4  -3  770.64   27.89   2
   2   4  -3   798.2   28.41   2
   2   4  -3  785.13   35.16   2
   2   4  -3  850.96   39.84   2
  -2   4   3  752.28   36.77   2
  -2   4   3     761   48.01   2
   2   4  -3  793.76   47.65   2
  -2   4   3  833.09   40.19   2
   2   4  -3  808.86   39.02   2
   2   4  -2 2078.23   52.62   2
  -2   4   2 2135.94   50.42   2
   2   4  -2 2089.41   44.45   2
   2   4  -2 2169.82   53.02   2
   2   4  -2 2081.73   50.65   2
   2   4  -2 2077.79   51.67   2
  -2   4   2 2037.25   67.29   2
  -2   4   2 2018.55   76.31   2
   2   4  -2 2172.19   82.11   2
  -2   4   2  1982.5   56.17   2
   2   4  -1 1654.08   42.31   2
   2   4  -1 1658.54   38.56   2
   2   4  -1 1662.15   47.97   2
  -2   4   1 1596.08   39.24   2
  -2   4   1 1688.23   64.25   2
   2   4  -1 1649.36   40.18   2
   2   4  -1 1602.13   47.19   2
  -2   4   1 1596.97   41.58   2
  -2   4   1 1611.71   31.32   2
   2   4  -1 1692.26   73.04   2
  -2   4   1 1611.88   63.94   2
  -2   4   0 3703.52   63.33   2
  -2   4   0 3596.63   56.59   2
   2   4   0 3465.61   80.08   2
   2   4   0 3475.54   50.04   2
  -2   4   0 3735.16    68.7   2
  -2   4   0 3475.51   93.84   2
  -2   4   0  3426.7  103.12   2
   2   4   0 3624.29   64.85   2
  -2   4   0 3395.53   58.28   2
   2   4   0 3299.54   78.45   2
   2   4   0 3417.12  110.36   2
   2   4   0 3629.84   67.11   2
   2   4   0 3476.05   60.49   2
  -2   4  -1  993.62    27.1   2
   2   4   1  995.22   30.57   2
  -2   4  -1 1088.04   58.34   2
   2   4   1 1065.92   23.16   2
  -2   4  -1   996.2   32.01   2
   2   4   1 1110.13   44.34   2
  -2   4  -1 1014.42   44.84   2
  -2   4  -1 1033.67   22.37   2
   2   4   1 1061.22   59.58   2
   2   4   1  985.17   41.63   2
   2   4   1  994.83   25.17   2
  -2   4  -2 2095.52   48.61   2
   2   4   2 2092.65   68.61   2
   2   4   2 2140.25   48.99   2
  -2   4  -2  2193.7   38.55   2
   2   4   2 2030.73   45.51   2
   2   4   2 2177.69   70.21   2
  -2   4  -2 2213.39   53.14   2
  -2   4  -2 2099.83   86.98   2
  -2   4  -2 2198.14   65.23   2
   2   4   2 2158.66   87.95   2
   2   4   3  709.13   27.48   2
  -2   4  -3  743.21   52.48   2
   2   4   3  783.85   44.26   2
   2   4   3  723.71   31.51   2
   2   4   3  806.72   45.04   2
  -2   4  -3  727.37   30.55   2
  -2   4  -3   705.9   23.95   2
  -2   4  -3  715.83   34.72   2
  -2   4  -3  686.24   29.15   2
   2   4   3  769.37   30.18   2
   2   4   3  711.09   48.79   2
   2   4   4 2719.39   94.49   2
  -2   4  -4    2862   71.04   2
   2   4   4 2424.35   75.92   2
   2   4   4 2639.71   93.11   2
  -2   4  -4 3001.01  111.15   2
  -2   4  -4 2840.93   72.48   2
   2   4   4 2612.34   64.69   2
   2   4   4 2816.67   98.59   2
  -2   4  -4 2816.43   67.47   2
   2   4   5  223.96   27.57   2
   2   4   5  235.17   24.54   2
  -2   4  -5  311.89   34.49   2
  -2   4  -5  236.71   18.89   2
   2   4   5   239.9   18.87   2
   2   4   5  320.23   30.07   2
  -2   4  -5  244.25   21.34   2
   2   4   6 1257.09   63.67   2
   2   4   6 1079.07   65.94   2
  -2   4  -6 1187.37   44.14   2
  -2   4  -6 1523.84   75.04   2
   2   4   6 1481.53   62.85   2
  -2   4  -6 1362.67   58.81   2
   2   4   7  165.17   23.65   2
  -2   4  -7  126.63   13.57   2
   2   4   7   128.2   22.53   2
   2   4   7  128.22   12.99   2
   2   4   7  168.96   19.08   2
  -2   4  -7  147.26   20.45   2
   2   4   8  991.24   66.69   2
   2   4   8  859.26      58   2
   2   4   8  872.14   33.67   2
   2   4   8 1016.15   44.48   2
  -2   4  -8  996.12   55.26   2
  -2   4  -9   29.32   10.22   2
   2   4   9   16.01    5.71   2
   2   4   9   18.21    4.18   2
   2   4   9   15.48    6.93   2
   2   4  10  416.85   43.16   2
  -2   4 -10  443.77   39.03   2
  -2   4 -11   64.67   15.89   2
   2   4  11   56.05   13.63   2
   2   4  12  226.18   32.29   2
   2   4  12  221.63   31.56   2
  -2   4 -12  226.03   29.81   2
   2   4  13   33.24   13.37   2
  -2   4 -13   31.91   10.05   2
   2   4  13   29.16    11.6   2
  -2   4 -14   53.19   14.86   2
   2   4  14   26.88   10.43   2
  -2   5  14  389.21   44.29   2
  -2   5  13  149.01   26.91   2
  -2   5  12  784.74   67.94   2
   2   5 -12  734.19    62.8   2
  -2   5  12  667.58   54.39   2
  -2   5  11   90.16   21.57   2
   2   5 -11   99.94   20.45   2
  -2   5  11  142.25   21.11   2
  -2   5  11   67.17   15.82   2
  -2   5  10  795.68   41.08   2
  -2   5  10  642.48   58.61   2
  -2   5  10   969.6    57.9   2
   2   5 -10  822.21   59.04   2
  -2   5  10  559.88   43.26   2
  -2   5   9  145.42   26.33   2
  -2   5   9  173.67   19.07   2
  -2   5   9  227.19   28.33   2
  -2   5   9   136.4   19.63   2
   2   5  -9  199.08   26.37   2
   2   5  -8  1026.1   56.41   2
  -2   5   8     984   65.37   2
   2   5  -8 1063.65   28.42   2
  -2   5   8 1007.16   47.73   2
  -2   5   7   97.17   18.59   2
   2   5  -7    97.3   15.78   2
   2   5  -7  136.19    11.6   2
  -2   5   7  129.17   22.93   2
  -2   5   7   97.83   11.06   2
  -2   5   7   92.09   12.75   2
  -2   5   7   95.11   13.87   2
   2   5  -6 1066.46   49.58   2
  -2   5   6 1114.22   49.26   2
  -2   5   6 1160.85   57.69   2
   2   5  -6 1109.12   39.44   2
  -2   5   6 1204.63   69.61   2
  -2   5   6 1123.54   41.58   2
  -2   5   6 1097.42   41.83   2
  -2   5   5  227.68   21.17   2
   2   5  -5  235.16   29.45   2
   2   5  -5  212.95   15.11   2
   2   5  -5   201.1   15.45   2
  -2   5   5  205.83   21.42   2
   2   5  -5   221.2   18.55   2
   2   5  -5  212.46   19.55   2
  -2   5   5  203.47   17.97   2
  -2   5   5  221.15   29.94   2
  -2   5   5  195.38   22.98   2
  -2   5   5  181.53   14.85   2
   2   5  -4  989.99   31.48   2
  -2   5   4  928.65    40.5   2
   2   5  -4  962.42   33.87   2
   2   5  -4  955.37   43.58   2
   2   5  -4  971.03   40.13   2
  -2   5   4  923.53   41.85   2
  -2   5   4  973.71   61.32   2
  -2   5   4  973.13   46.94   2
  -2   5   4  939.51   43.33   2
   2   5  -3  159.96   14.02   2
   2   5  -3  141.78   10.41   2
   2   5  -3  137.11   13.57   2
   2   5  -3  143.34   12.71   2
   2   5  -3  152.61   13.12   2
   2   5  -3  144.67   16.19   2
  -2   5   3  141.28   16.92   2
  -2   5   3  165.64   24.14   2
  -2   5   3  147.63   15.79   2
   2   5  -3   174.8   22.25   2
  -2   5   3  138.67   13.12   2
   2   5  -3  138.86   21.69   2
   2   5  -2  708.06   28.28   2
   2   5  -2  672.36   37.99   2
   2   5  -2  705.02   30.52   2
   2   5  -2  708.43   31.78   2
   2   5  -2  709.27   30.67   2
  -2   5   2  732.95   42.45   2
  -2   5   2  696.26   47.42   2
   2   5  -2  676.36   22.89   2
  -2   5   2  673.44   26.81   2
  -2   5   2   699.3   30.39   2
   2   5  -2     740   51.77   2
   2   5  -1  758.64   27.67   2
   2   5  -1  752.59   27.93   2
  -2   5   1  711.05   25.07   2
   2   5  -1  748.01   24.42   2
   2   5  -1  827.53   34.94   2
  -2   5   1  724.76   17.68   2
   2   5  -1  735.38   16.65   2
   2   5  -1  754.57   32.91   2
  -2   5   1  741.63   46.49   2
  -2   5   1  760.73   46.57   2
  -2   5   1  744.79   27.02   2
   2   5  -1  829.23    56.2   2
   2   5   0  389.78   16.45   2
   2   5   0  425.07    25.9   2
   2   5   0  386.69   18.83   2
  -2   5   0  359.11   13.11   2
  -2   5   0  362.63   16.12   2
  -2   5   0  422.59   37.07   2
  -2   5   0  371.21   19.05   2
  -2   5   0  408.05    31.6   2
   2   5   0   383.5   24.52   2
  -2   5   0  355.31   16.06   2
   2   5   0  388.38   38.99   2
   2   5   1  642.52   24.59   2
   2   5   1  668.72   35.44   2
  -2   5  -1  625.58   25.93   2
  -2   5  -1  646.33   49.05   2
  -2   5  -1  637.63   37.51   2
   2   5   1  651.78   34.81   2
   2   5   1  711.61   54.42   2
  -2   5  -1  637.88   20.95   2
   2   5   1  651.29   19.59   2
  -2   5  -2  220.49   14.07   2
   2   5   2  228.31   14.51   2
   2   5   2  261.45   23.12   2
   2   5   2  211.64   15.33   2
  -2   5  -2  221.97   15.53   2
  -2   5  -2  217.02   28.92   2
  -2   5  -2  217.93   20.87   2
  -2   5  -2  215.44   10.79   2
   2   5   2  248.08   22.97   2
   2   5   2  209.21   30.52   2
   2   5   2  217.94   10.22   2
   2   5   3 1662.78      45   2
  -2   5  -3 1658.41   40.19   2
  -2   5  -3 1685.47    57.7   2
   2   5   3  1861.2   59.39   2
  -2   5  -3 1712.64   50.34   2
  -2   5  -3 1765.22   88.29   2
   2   5   3 1712.08   50.51   2
   2   5   3 1715.67   86.08   2
   2   5   3 1686.41   66.75   2
  -2   5  -3 1623.14   47.68   2
   2   5   4  258.42   24.21   2
  -2   5  -4  184.61   17.41   2
   2   5   4  186.06   14.58   2
  -2   5  -4  185.02   14.17   2
   2   5   4  231.42   29.28   2
   2   5   4   200.1   23.49   2
  -2   5  -5 1318.81   48.15   2
   2   5   5 1617.08   67.53   2
   2   5   5 1549.32   72.66   2
  -2   5  -5 1301.97   47.82   2
   2   5   5 1236.37   67.02   2
   2   5   6  237.15    27.2   2
  -2   5  -6  192.13   17.11   2
   2   5   6  202.18   28.02   2
   2   5   6  214.44   24.63   2
  -2   5  -6  190.54   20.12   2
   2   5   7 1484.35      82   2
  -2   5  -7 1615.89   52.11   2
   2   5   7 1483.05   72.77   2
  -2   5  -7 1576.89   67.29   2
   2   5   8  274.75   35.26   2
  -2   5  -8  292.91   20.23   2
   2   5   8  305.89   20.19   2
  -2   5  -8  333.03   32.28   2
   2   5   9  1022.2   34.68   2
  -2   5  -9 1203.64    64.5   2
   2   5   9 1141.33   74.33   2
   2   5  10  164.44   24.95   2
   2   5  10  180.52   29.46   2
  -2   5 -10  175.55   24.61   2
   2   5  11 1158.66    70.4   2
  -2   5 -11 1118.84   65.72   2
   2   5  11 1102.34   73.05   2
   2   5  12  247.27   33.18   2
  -2   5 -12  204.78    28.7   2
   2   5  12  237.23   33.51   2
   2   5  13   662.7   56.74   2
  -2   5 -13  616.73   50.91   2
   2   5  13  605.18   53.91   2
  -2   6  14   34.31   12.65   2
  -2   6  13   12.69    4.25   2
  -2   6  12  191.45   33.72   2
   2   6 -12  211.58   33.07   2
  -2   6  12  247.26   29.92   2
  -2   6  12  195.61   28.02   2
  -2   6  11   71.23   20.86   2
  -2   6  11   68.48   15.04   2
   2   6 -11   76.98   18.36   2
  -2   6  11   70.53   15.53   2
  -2   6  10  253.06   36.51   2
  -2   6  10  309.06   34.34   2
  -2   6  10  198.42   24.26   2
   2   6 -10  242.31   30.55   2
   2   6  -9  163.42   23.48   2
  -2   6   9  172.58   21.46   2
  -2   6   9  138.35   25.83   2
  -2   6   9  176.03   26.07   2
  -2   6   9  130.79   17.77   2
  -2   6   8   834.5   60.39   2
   2   6  -8  842.62   50.18   2
  -2   6   8  847.67   48.28   2
  -2   6   8  668.82   37.64   2
  -2   6   7  352.18   38.98   2
  -2   6   7  320.63   29.25   2
  -2   6   7  269.32   30.73   2
   2   6  -7   319.4   19.71   2
   2   6  -7  298.07   27.51   2
  -2   6   7  299.45   21.07   2
  -2   6   7  231.71   19.77   2
   2   6  -6   723.1   40.06   2
  -2   6   6   752.7   46.77   2
   2   6  -6  750.59   34.84   2
  -2   6   6  722.78   35.56   2
  -2   6   6   812.8   61.25   2
  -2   6   6  776.82   44.45   2
  -2   6   6  623.04   30.32   2
   2   6  -6  743.71   31.65   2
  -2   6   5  425.04   32.04   2
   2   6  -5  379.58   21.05   2
   2   6  -5  370.11   26.37   2
  -2   6   5  410.85   30.07   2
   2   6  -5  476.95   42.72   2
   2   6  -5   419.2   28.52   2
  -2   6   5  385.48   27.26   2
  -2   6   5  375.65   40.97   2
   2   6  -5  379.94   22.71   2
  -2   6   4 1691.25   64.73   2
   2   6  -4 1682.18    42.7   2
   2   6  -4 1696.75    55.9   2
   2   6  -4 1703.88   75.11   2
  -2   6   4 1714.49   57.06   2
  -2   6   4 1703.14   63.41   2
  -2   6   4 1488.11   83.73   2
   2   6  -4 1715.48   51.13   2
  -2   6   4 1760.58   63.53   2
   2   6  -3  701.52   31.13   2
   2   6  -3  683.95   23.54   2
  -2   6   3  672.69    30.6   2
   2   6  -3  710.49   39.88   2
   2   6  -3   722.2   32.68   2
   2   6  -3  677.42    31.7   2
  -2   6   3  697.87   42.22   2
  -2   6   3  661.02   53.32   2
  -2   6   3  721.32   35.13   2
   2   6  -3  647.57   31.73   2
  -2   6   3  710.69   39.82   2
   2   6  -2  1168.6   38.37   2
   2   6  -2  1145.3   47.06   2
  -2   6   2 1107.69   36.02   2
   2   6  -2  998.88   36.67   2
   2   6  -2 1157.87   43.13   2
   2   6  -2  1159.8   43.31   2
  -2   6   2 1107.23   57.49   2
  -2   6   2 1151.29   66.77   2
   2   6  -2 1095.82   30.24   2
  -2   6   2 1076.22    39.5   2
  -2   6   1  623.72   14.51   2
  -2   6   1  599.25   23.03   2
   2   6  -1  639.12   22.41   2
   2   6  -1  665.43   33.47   2
   2   6  -1   659.1   30.03   2
  -2   6   1  673.37   46.76   2
   2   6  -1   532.7   11.84   2
   2   6  -1  655.99   32.88   2
  -2   6   1   617.3   45.95   2
   2   6  -1  661.79   26.73   2
  -2   6   1  622.01   25.77   2
  -2   6   0 1741.04   32.49   2
   2   6   0  1772.7   45.45   2
  -2   6   0 1736.36   39.78   2
   2   6   0 1732.37   42.85   2
   2   6   0 1816.59    60.2   2
  -2   6   0 1744.86    46.3   2
   2   6   0 1746.53   58.61   2
  -2   6   0 1801.71   74.77   2
  -2   6   0 1722.99   42.61   2
  -2   6  -1  629.91    20.6   2
   2   6   1  647.41   25.15   2
  -2   6  -1   601.6   26.23   2
  -2   6  -1   647.3   40.66   2
   2   6   1  667.47   36.45   2
   2   6   1  626.18   55.42   2
  -2   6  -2   707.6   26.23   2
  -2   6  -2  677.86   28.99   2
   2   6   2  706.32      27   2
  -2   6  -2  716.68   40.48   2
   2   6   2  680.59   39.54   2
   2   6   2  673.87    56.6   2
   2   6   2  576.69   17.05   2
   2   6   3  569.01   24.88   2
  -2   6  -3  543.18   21.81   2
  -2   6  -3  580.86    34.7   2
   2   6   3  582.67   39.62   2
   2   6   3  642.67   53.57   2
  -2   6  -3  543.94   26.72   2
  -2   6  -4  1071.8   36.01   2
  -2   6  -4 1062.48   45.92   2
   2   6   4 1164.36   60.36   2
   2   6   4 1216.24   70.88   2
   2   6   4 1008.67    36.3   2
  -2   6  -5  298.11   22.79   2
  -2   6  -5  315.31   21.43   2
   2   6   5   332.2   35.01   2
  -2   6  -6  320.35   23.17   2
   2   6   6  357.65   38.71   2
  -2   6  -6  332.35   25.33   2
  -2   6  -7  268.69   20.34   2
   2   6   7  247.26   33.56   2
  -2   6  -7  259.95   25.36   2
  -2   6  -8  393.73   23.88   2
   2   6   8  424.11   25.01   2
   2   6   8  381.01    42.9   2
  -2   6  -8  410.85   35.39   2
   2   6   9   85.93   17.38   2
  -2   6  -9   68.48   14.28   2
   2   6   9   75.81   18.99   2
   2   6  10  145.27   22.75   2
  -2   6 -10  130.11   21.71   2
   2   6  10   99.44   21.22   2
   2   6  11  157.86   25.17   2
  -2   6 -11  135.79   22.77   2
   2   6  11   158.7   29.37   2
   2   6  12   130.6   24.82   2
  -2   6 -12  171.66   25.93   2
   2   6  13    35.8   14.33   2
  -2   7  12  522.45   57.06   2
  -2   7  12  571.91   47.94   2
   2   7 -12  463.67   47.93   2
  -2   7  12  424.64   40.55   2
  -2   7  11  185.97   32.65   2
  -2   7  11   219.7   30.62   2
  -2   7  11  215.71   26.48   2
   2   7 -11  206.48   29.63   2
  -2   7  10  459.01   50.28   2
  -2   7  10  637.98    52.4   2
  -2   7  10  509.74   37.89   2
   2   7 -10  522.24   45.04   2
   2   7  -9  414.45   37.41   2
  -2   7   9   405.6   44.54   2
  -2   7   9  549.57   49.15   2
  -2   7   9  437.21   37.55   2
  -2   7   9  469.91   32.88   2
   2   7  -8  654.35   44.11   2
  -2   7   8  635.68   45.74   2
  -2   7   8  662.66   54.03   2
  -2   7   8  668.85   36.09   2
   2   7  -7  313.09   28.17   2
  -2   7   7  320.45   31.65   2
  -2   7   7  318.88   33.84   2
  -2   7   7  323.28   23.61   2
  -2   7   7  363.94   42.38   2
  -2   7   7  240.24   19.76   2
   2   7  -6  467.99   27.47   2
  -2   7   6  622.85   42.68   2
   2   7  -6  627.31   48.58   2
   2   7  -6  619.34   34.58   2
   2   7  -6  596.75   37.02   2
  -2   7   6     586   34.32   2
  -2   7   6  657.99    44.3   2
  -2   7   6  706.31   59.96   2
   2   7  -5  848.31   31.75   2
  -2   7   5  924.35   51.56   2
   2   7  -5  802.77   40.48   2
  -2   7   5   865.7   44.61   2
   2   7  -5  955.18    53.6   2
  -2   7   5   887.1    45.3   2
  -2   7   5  835.28   66.24   2
  -2   7   4  642.54   41.65   2
   2   7  -4   609.1   23.69   2
   2   7  -4  633.85   32.36   2
  -2   7   4  611.11   33.21   2
   2   7  -4  618.71   35.83   2
  -2   7   4     613    39.6   2
  -2   7   4  593.83   55.85   2
   2   7  -4   606.1   33.64   2
   2   7  -3  463.29   18.91   2
   2   7  -3  488.82   28.83   2
   2   7  -3   474.2   24.07   2
  -2   7   3  439.91   46.49   2
  -2   7   3  494.95   26.41   2
  -2   7   3  491.42   29.55   2
  -2   7   3  484.72   35.43   2
  -2   7   2  531.71   28.06   2
  -2   7   2  515.23   24.06   2
   2   7  -2  512.33   19.64   2
   2   7  -2  524.96   17.77   2
   2   7  -2  563.06   31.46   2
  -2   7   2  522.76   48.75   2
   2   7  -2  540.09   26.19   2
   2   7  -1 1124.18   37.22   2
  -2   7   1  1091.3   32.66   2
   2   7  -1  1086.5   31.11   2
   2   7  -1 1121.85   47.11   2
  -2   7   1 1149.59   68.27   2
  -2   7   1 1071.74   37.52   2
  -2   7   0  584.94   15.57   2
   2   7   0  598.39   25.56   2
  -2   7   0  575.19   21.02   2
   2   7   0  582.54   23.08   2
   2   7   0  625.06   35.97   2
  -2   7   0  583.36   26.21   2
  -2   7   0  567.51   44.36   2
  -2   7   0  589.24   25.41   2
   2   7   1  779.17   42.26   2
  -2   7  -1   796.4   23.15   2
   2   7   1  767.73    28.8   2
   2   7   1  682.37   24.99   2
  -2   7  -1  737.16   30.44   2
  -2   7  -1  793.28   48.57   2
  -2   7  -2  492.23   21.96   2
   2   7   2  476.99   22.42   2
   2   7   2  508.68   35.25   2
  -2   7  -2  487.51   35.54   2
   2   7   2  471.11   14.32   2
   2   7   3  1180.6   38.11   2
  -2   7  -3 1190.89    53.7   2
  -2   7  -3 1173.07   40.79   2
  -2   7  -3 1193.28   35.54   2
   2   7   3 1247.98   60.02   2
   2   7   3 1177.14   22.54   2
  -2   7  -4  720.65   29.54   2
  -2   7  -4  677.87   38.33   2
   2   7   4   776.4   50.03   2
   2   7   4  657.84   29.16   2
  -2   7  -5   896.6    36.8   2
   2   7   5  927.74    59.1   2
   2   7   6  569.52   34.83   2
  -2   7  -6  336.06   24.84   2
  -2   7  -6   434.7   28.41   2
   2   7   6  474.62   43.86   2
  -2   7  -7 1093.68   44.41   2
   2   7   7 1094.57   72.72   2
  -2   7  -7 1068.22    51.7   2
  -2   7  -8  435.89   26.17   2
   2   7   8  473.49   49.11   2
  -2   7  -8  460.51   36.89   2
   2   7   9  728.97   63.35   2
  -2   7  -9  640.06   47.47   2
   2   7  10  317.45   42.02   2
  -2   7 -10  265.19   31.71   2
   2   7  11  725.24   63.37   2
  -2   7 -11  688.22   52.93   2
   2   7  12   320.6   41.84   2
   2   7  13  409.99   46.31   2
  -2   8  12   115.3   22.43   2
  -2   8  11   43.03   13.43   2
   2   8 -11   55.02   15.09   2
  -2   8  11   60.98   16.22   2
   2   8 -10  144.19   23.57   2
  -2   8  10  181.52   29.32   2
  -2   8  10  110.76   23.78   2
  -2   8  10  149.37   19.13   2
   2   8  -9  193.89   25.12   2
  -2   8   9  185.37   26.23   2
  -2   8   9  186.41   30.81   2
  -2   8   9  223.48   33.06   2
  -2   8   9  169.68   18.92   2
  -2   8   8  396.39   38.45   2
  -2   8   8  440.62   44.09   2
   2   8  -8  386.39   34.08   2
  -2   8   8  504.46   51.66   2
  -2   8   7  325.65   34.28   2
  -2   8   7  327.53   42.72   2
  -2   8   7  305.17   32.83   2
   2   8  -7  277.96   27.09   2
   2   8  -6  575.59   37.16   2
  -2   8   6   587.4   41.49   2
  -2   8   6  649.27   61.26   2
  -2   8   6  629.48   46.99   2
   2   8  -5  470.18   29.68   2
  -2   8   5  598.72   37.12   2
   2   8  -5  590.99   35.96   2
   2   8  -5  589.48   35.49   2
  -2   8   5  542.13   56.69   2
  -2   8   5  613.01   44.85   2
  -2   8   4 1047.65   57.81   2
   2   8  -4 1090.99   32.19   2
   2   8  -4 1068.25   45.64   2
  -2   8   4 1058.86   44.38   2
   2   8  -4 1038.38   46.42   2
   2   8  -4 1013.18   38.87   2
  -2   8   4  956.27   75.95   2
   2   8  -3  683.14   23.07   2
  -2   8   3  727.98   32.59   2
   2   8  -3  706.06   24.29   2
   2   8  -3  689.45   36.98   2
  -2   8   3  699.07   63.58   2
  -2   8   3  707.83   45.92   2
  -2   8   2  879.24   32.13   2
   2   8  -2  805.23   25.15   2
   2   8  -2   845.3   42.25   2
   2   8  -2   840.6   17.93   2
  -2   8   2  894.37   68.52   2
  -2   8   2  881.24   38.55   2
  -2   8   1 1188.26   74.36   2
   2   8  -1 1191.58   39.66   2
  -2   8   1 1139.43   33.87   2
   2   8  -1  1125.8   31.93   2
   2   8  -1 1132.26   50.49   2
  -2   8   1 1157.39   41.79   2
   2   8   0 1411.52   42.24   2
  -2   8   0 1418.32   25.25   2
   2   8   0 1382.86   38.29   2
  -2   8   0 1422.34   35.13   2
   2   8   0  1421.6   58.93   2
  -2   8   0 1504.83   78.39   2
  -2   8   0 1438.92      45   2
  -2   8  -1  760.91   22.09   2
   2   8   1  710.55   28.41   2
   2   8   1  752.31   43.63   2
  -2   8  -1  785.08    52.1   2
   2   8   2  873.09   31.92   2
   2   8   2  937.52    51.2   2
  -2   8  -2   934.3   53.17   2
  -2   8  -2  943.56   31.13   2
   2   8   3  789.84   31.09   2
  -2   8  -3  815.55   30.69   2
   2   8   3  920.59   52.96   2
  -2   8  -3  809.14   46.58   2
  -2   8  -3  814.08   33.82   2
  -2   8  -4   793.3    32.2   2
   2   8   4  780.54   51.73   2
   2   8   5  468.97   16.28   2
  -2   8  -5  488.75    27.4   2
   2   8   5  493.41   44.09   2
  -2   8  -6  337.74   25.16   2
   2   8   6  367.76   21.42   2
  -2   8  -6  352.27   26.67   2
   2   8   6  364.81      40   2
  -2   8  -7  256.09   21.71   2
   2   8   7  269.25   36.46   2
  -2   8  -7  269.28   24.94   2
   2   8   8  335.94   41.77   2
  -2   8  -8  322.53   30.58   2
  -2   8  -9  109.42   18.81   2
   2   8   9   77.44   21.09   2
  -2   8 -10  112.45   20.45   2
   2   8  10   101.3   24.16   2
   2   8  11  122.44   28.86   2
   2   8  12   99.04    23.7   2
  -2   9  12  343.51   41.26   2
  -2   9  11  197.91   35.29   2
  -2   9  11  264.54   37.04   2
   2   9 -10  324.17   35.59   2
  -2   9  10  290.02   41.21   2
  -2   9  10  425.16    47.5   2
  -2   9   9  335.36   38.12   2
  -2   9   9  314.51      40   2
  -2   9   9  401.13   46.81   2
   2   9  -9  298.68   32.39   2
   2   9  -8  392.44   35.25   2
  -2   9   8  430.99   43.37   2
  -2   9   8     428   43.96   2
  -2   9   8  549.34   57.28   2
  -2   9   7  249.75      32   2
   2   9  -7   248.6   26.52   2
  -2   9   7  241.83   30.15   2
  -2   9   7   283.7   42.46   2
   2   9  -6  316.45   28.72   2
  -2   9   6  337.33   31.18   2
  -2   9   6  389.34    39.4   2
  -2   9   6  324.35   45.43   2
   2   9  -6  330.57   26.45   2
  -2   9   5  309.15   26.61   2
   2   9  -5  342.74   28.16   2
   2   9  -5  218.39    21.8   2
  -2   9   5  302.24   45.01   2
  -2   9   5  334.53   35.33   2
  -2   9   4  404.13   37.74   2
  -2   9   4   414.1   27.21   2
   2   9  -4   317.3   26.43   2
   2   9  -4  395.54   29.73   2
  -2   9   4  344.11   47.63   2
   2   9  -3  178.82   10.85   2
  -2   9   3  162.35   15.33   2
   2   9  -3  145.84      18   2
  -2   9   3  194.06   35.05   2
  -2   9   3  176.04    24.2   2
   2   9  -2   326.9   14.92   2
  -2   9   2  314.76   18.81   2
   2   9  -2  335.93   27.98   2
  -2   9   2  364.77   45.24   2
  -2   9   1  395.49    45.5   2
   2   9  -1  363.35   16.96   2
   2   9  -1  371.65   30.01   2
  -2   9   1  360.43   18.15   2
   2   9   0  385.38   21.57   2
   2   9   0  379.32   18.74   2
   2   9   0  389.78   31.74   2
  -2   9   0  382.04   16.61   2
  -2   9   0  400.34   42.49   2
  -2   9   0  386.24    24.2   2
  -2   9  -1  160.56    8.99   2
   2   9   1  154.87   13.12   2
   2   9   1  174.93   21.52   2
  -2   9  -1  152.03   24.23   2
   2   9   2  307.66   18.84   2
   2   9   2  372.12   33.75   2
  -2   9  -2  276.25   30.36   2
  -2   9  -2  360.72   18.15   2
  -2   9  -3  570.79   27.29   2
  -2   9  -3  575.93   28.14   2
   2   9   3  618.27   45.41   2
   2   9   3  575.53    26.8   2
  -2   9  -4  392.97   23.61   2
   2   9   4  433.91   40.25   2
  -2   9  -5  369.54   24.64   2
   2   9   5  389.67   40.08   2
  -2   9  -5  325.38   28.14   2
  -2   9  -6   311.2   24.37   2
  -2   9  -6  317.12   26.75   2
   2   9   6  332.15   39.26   2
  -2   9  -7  610.94   38.02   2
  -2   9  -7  582.97   35.02   2
   2   9   7  702.62   60.63   2
   2   9   8  403.26   47.81   2
  -2   9  -8  356.16   31.36   2
   2   9   9  447.83   52.89   2
  -2   9  -9  418.45   37.28   2
   2   9  10  240.07   37.76   2
   2   9  11  446.94   53.04   2
  -2  10  11   38.73   14.11   2
  -2  10  10  135.23   27.45   2
  -2  10  10  230.89    37.3   2
  -2  10   9   89.18   21.07   2
   2  10  -9  102.26   18.63   2
  -2  10   9  102.29    25.9   2
  -2  10   9  108.67   22.88   2
  -2  10   8  353.88   42.14   2
   2  10  -8  361.47   34.61   2
  -2  10   8  348.96   38.98   2
  -2  10   8  431.24    53.6   2
  -2  10   7  162.28   23.88   2
   2  10  -7  143.26      21   2
  -2  10   7  223.73   40.63   2
  -2  10   7  180.61   29.26   2
  -2  10   6  404.22   43.05   2
   2  10  -6  345.78   31.04   2
  -2  10   6  356.71   31.82   2
  -2  10   6  417.08   55.16   2
   2  10  -6  246.15   24.57   2
   2  10  -5     197   21.93   2
  -2  10   5  299.05   25.93   2
   2  10  -5   319.9   28.84   2
  -2  10   5  270.76   46.09   2
  -2  10   5  300.23   35.48   2
  -2  10   4  622.76   50.18   2
   2  10  -4   436.9   33.38   2
  -2  10   4  594.99   33.12   2
   2  10  -4  570.67   37.58   2
  -2  10   4  559.57   64.96   2
  -2  10   3   340.2   22.17   2
   2  10  -3  324.39   28.82   2
  -2  10   3  287.27   44.23   2
  -2  10   3  340.38      36   2
  -2  10   2  527.44   24.77   2
   2  10  -2  523.39   37.34   2
  -2  10   2  576.06   61.03   2
   2  10  -1  432.09   34.68   2
  -2  10   1  451.05   20.28   2
  -2  10   1  484.83   52.11   2
  -2  10   0  484.56   18.43   2
   2  10   0  447.45   36.67   2
  -2  10   0  495.39   50.03   2
   2  10   1  635.27   44.53   2
  -2  10  -1  558.04   49.67   2
  -2  10  -2  301.75    16.1   2
   2  10   2  265.95   30.08   2
  -2  10  -3  515.25   26.05   2
  -2  10  -3  482.48   26.75   2
   2  10   3  569.12   45.96   2
  -2  10  -4  257.27   20.04   2
   2  10   4   287.8   34.11   2
  -2  10  -4  259.49   21.41   2
  -2  10  -5  367.38    25.7   2
   2  10   5  398.83   42.89   2
  -2  10  -5  369.18   31.82   2
  -2  10  -6  137.04   16.87   2
   2  10   6  136.43   25.03   2
  -2  10  -6  136.23   18.41   2
  -2  10  -7  327.63   28.14   2
   2  10   7  381.58    46.8   2
  -2  10  -8   92.19   15.89   2
   2  10   8  124.37   27.98   2
   2  10   9  134.25   28.16   2
   2  10  10   69.83   21.05   2
  -2  11  10   88.25   21.71   2
  -2  11   9  319.55   40.66   2
  -2  11   9  399.46   53.86   2
  -2  11   9  326.61    41.8   2
   2  11  -8  183.07   25.81   2
  -2  11   8  176.91   27.29   2
  -2  11   8  242.27   42.12   2
  -2  11   8  202.82    33.3   2
  -2  11   7  291.37   31.96   2
   2  11  -7  305.17   31.56   2
  -2  11   7  373.91   54.86   2
  -2  11   7  303.09   40.12   2
   2  11  -6  214.13   25.33   2
  -2  11   6  182.11   22.13   2
  -2  11   6  259.01   45.31   2
  -2  11   6  212.34   32.66   2
   2  11  -6  193.24   23.01   2
   2  11  -5  407.54   33.46   2
  -2  11   5  552.35   52.16   2
  -2  11   5  571.08    36.1   2
   2  11  -5  541.55   39.44   2
  -2  11   5  524.48   65.49   2
  -2  11   4  337.06   24.93   2
   2  11  -4  336.64   30.03   2
   2  11  -4  325.88   30.48   2
  -2  11   4  270.67   47.17   2
  -2  11   4   328.4   38.24   2
   2  11  -3  447.65   36.19   2
  -2  11   3   435.2   25.18   2
  -2  11   3  458.63   59.39   2
  -2  11   3   423.4   42.19   2
  -2  11   2  324.92   19.25   2
   2  11  -2  375.07   33.31   2
  -2  11   2  372.99   51.77   2
   2  11  -1  508.87   39.97   2
  -2  11   1  531.29   57.88   2
   2  11   0  472.71   39.62   2
  -2  11   0  501.99   52.97   2
   2  11   1  388.13   36.95   2
  -2  11  -1  385.29   43.25   2
   2  11   2  525.49   44.28   2
  -2  11  -2  382.94   39.99   2
  -2  11  -3  381.02   25.28   2
   2  11   3  403.23      40   2
  -2  11  -4  496.09   29.84   2
   2  11   4  534.54   49.81   2
   2  11   5  272.05   36.97   2
  -2  11  -5  256.71   28.01   2
  -2  11  -5  240.14   21.68   2
   2  11   6  457.06   49.85   2
  -2  11  -6  364.76   28.66   2
  -2  11  -6  364.12   31.89   2
   2  11   7  283.45   41.55   2
   2  11   8  345.24   48.18   2
  -2  12   9   91.14   20.83   2
  -2  12   8  141.88   24.59   2
  -2  12   8  133.76   27.14   2
  -2  12   7  181.92   25.04   2
   2  12  -7  193.96   26.62   2
  -2  12   7  154.65   30.37   2
   2  12  -6   218.7   26.63   2
  -2  12   6   211.9   24.09   2
  -2  12   6  211.85   43.65   2
  -2  12   6  189.92   32.94   2
   2  12  -5  278.01   29.15   2
   2  12  -5  314.15   31.43   2
  -2  12   5   315.6   26.62   2
  -2  12   5  356.19   43.98   2
  -2  12   5   290.9   50.88   2
   2  12  -4  299.14   31.09   2
   2  12  -4  320.48   30.91   2
  -2  12   4  289.89   51.06   2
  -2  12   4  335.03   41.61   2
   2  12  -3  462.53   38.83   2
  -2  12   3  489.29   64.52   2
   2  12  -2  329.16   33.58   2
  -2  12   2  331.03   51.05   2
   2  12  -1   594.6   45.84   2
  -2  12   1  630.48   66.49   2
  -2  12   0  435.99   50.86   2
   2  12   0  391.37   37.79   2
   2  12   1  558.14   46.67   2
  -2  12  -1  497.73   51.38   2
   2  12   2  273.92    34.5   2
  -2  12  -2  275.26    35.3   2
  -2  12  -3  519.85   31.65   2
   2  12   3   524.4    48.8   2
  -2  12  -3  486.49   44.64   2
  -2  12  -4  233.81   21.52   2
   2  12   4  296.52   38.09   2
  -2  12  -4  256.31   30.55   2
   2  12   5  332.68    43.1   2
  -2  12  -5  302.12   32.01   2
   2  12   6  112.19    25.7   2
  -2  13   7  244.65   39.79   2
  -2  13   6   89.08   22.34   2
   2  13  -5  247.08   29.41   2
  -2  13   5  255.66   38.67   2
   2  13  -4  174.98   23.42   2
  -2  13   4  165.43   38.81   2
   2  13  -4  134.69   21.52   2
   2  13  -3  188.62   26.31   2
  -2  13   3  218.12   45.06   2
   2  13  -2   207.4   28.23   2
  -2  13   2  208.74   42.51   2
   2  13  -1  230.72   30.14   2
  -2  13   1  240.79   42.22   2
   2  13   0  303.77   35.63   2
  -2  13   0  317.06   45.79   2
   2  13   1   89.95   19.57   2
  -2  13  -1   95.36   22.37   2
   2  13   2   279.2   35.79   2
  -2  13  -2  277.11   37.12   2
   2  13   3  132.56   25.62   2
  -2  13  -3  115.46   21.63   2
  -2  13  -4  283.87   33.76   2
  -2  13  -5    67.5   16.34   2
  -2  14   0  149.62    33.6   2
  -2  14  -1  284.06   41.46   2
  -2  14  -2   67.39   18.36   2
  -2  14  -3  239.82   34.07   2
  -2  14  -4   64.51   16.16   2
   3 -13  -6   57.48   13.95   2
  -3 -13   6   41.56   16.53   2
   3 -13  -5  154.61   23.73   2
  -3 -13   5   136.1   32.08   2
   3 -13  -4  107.62   19.82   2
  -3 -13   4  108.64    27.6   2
   3 -13  -3   63.83    15.1   2
  -3 -13   3   84.36   24.17   2
   3 -13  -2  123.36   17.45   2
   3 -13  -2  130.44   23.37   2
  -3 -13   2  135.41   29.83   2
   3 -13  -1    55.7   15.05   2
  -3 -13   1   88.17   23.24   2
   3 -13  -1   49.39   11.53   2
  -3 -13   1   54.18   22.09   2
   3 -13   0   167.5    20.7   2
   3 -13   0  166.46   27.48   2
  -3 -13   0  157.41   29.99   2
  -3 -13   0  154.41   35.21   2
  -3 -13  -1    46.1   15.84   2
   3 -13   1   50.95   12.14   2
  -3 -13  -1   50.15   19.88   2
   3 -13   2  202.05   24.27   2
  -3 -13  -2  209.21   36.64   2
   3 -13   3   40.34   11.59   2
  -3 -13  -3   56.42   19.32   2
   3 -13   4  246.74   29.61   2
  -3 -13  -4  231.76      35   2
   3 -13   5   54.05   16.17   2
  -3 -13  -5    40.7    14.1   2
   3 -13   6  258.05   33.94   2
   3 -12  -7  162.72   22.56   2
   3 -12  -7  157.98   20.85   2
   3 -12  -6  192.76   24.51   2
   3 -12  -6  166.33   20.78   2
  -3 -12   6  169.62   32.22   2
   3 -12  -5  236.14   28.02   2
  -3 -12   5  302.18   43.14   2
   3 -12  -5  239.12    24.6   2
  -3 -12   5  303.13   54.21   2
   3 -12  -4  295.73   31.47   2
  -3 -12   4  275.64   40.98   2
  -3 -12   4  257.04   50.28   2
   3 -12  -4  303.97   26.96   2
   3 -12  -3  353.15    35.6   2
  -3 -12   3  335.33   44.84   2
   3 -12  -3  308.88   26.91   2
  -3 -12   3  259.17   47.81   2
   3 -12  -2  301.39   26.28   2
   3 -12  -2  281.54   32.47   2
  -3 -12   2   355.5   46.12   2
  -3 -12   2   383.8   60.92   2
   3 -12  -1  422.13    40.7   2
  -3 -12   1   412.6   47.52   2
   3 -12  -1  395.01   30.19   2
  -3 -12   1  394.16   59.17   2
   3 -12   0  353.92   38.37   2
  -3 -12   0  410.46   46.46   2
   3 -12   0  325.13   27.89   2
  -3 -12   0   364.8    53.2   2
   3 -12   1  283.31    35.3   2
   3 -12   1  310.43   27.74   2
  -3 -12  -1  290.74   39.24   2
  -3 -12  -1  376.34   50.75   2
   3 -12   2  406.99   43.42   2
  -3 -12  -2  411.37   45.68   2
   3 -12   2  319.35   29.47   2
  -3 -12  -2  347.92   46.11   2
   3 -12   3  234.37    26.4   2
   3 -12   3  182.53   30.15   2
  -3 -12  -3  173.71   29.88   2
  -3 -12  -3  190.69   32.33   2
   3 -12   4  273.69   38.43   2
   3 -12   4  271.74   29.85   2
  -3 -12  -4  269.26   36.91   2
  -3 -12  -4  252.98   34.29   2
   3 -12   5  130.06   21.81   2
  -3 -12  -5  107.23   21.92   2
   3 -12   6  201.13   28.79   2
  -3 -12  -6  180.66   26.32   2
   3 -12   7   80.96   20.05   2
   3 -11  -9  252.11   27.88   2
   3 -11  -8   63.89   13.89   2
   3 -11  -7  240.59   26.16   2
  -3 -11   7  192.34   31.97   2
   3 -11  -7  236.51    25.7   2
   3 -11  -6   77.87   14.82   2
  -3 -11   6   62.73   19.19   2
   3 -11  -6   77.92   13.84   2
  -3 -11   6  115.46   32.32   2
   3 -11  -5  366.33   32.98   2
  -3 -11   5  363.33   45.78   2
   3 -11  -5  381.54   30.08   2
  -3 -11   5  402.99   60.08   2
   3 -11  -4  161.08   21.97   2
   3 -11  -4  145.61   18.29   2
  -3 -11   4   172.2   31.28   2
  -3 -11   4   136.1   33.85   2
   3 -11  -3  279.25   30.09   2
  -3 -11   3  285.47      39   2
   3 -11  -3  293.37   25.03   2
  -3 -11   3  309.94   53.53   2
   3 -11  -2  223.02   21.25   2
   3 -11  -2  252.92   29.19   2
  -3 -11   2  240.57   34.88   2
  -3 -11   2  226.61   43.57   2
   3 -11  -1   532.8   43.51   2
  -3 -11   1  500.78    49.6   2
   3 -11  -1  455.13   31.31   2
  -3 -11   1  508.84   64.37   2
   3 -11   0  324.57   26.48   2
  -3 -11   0  358.64   41.46   2
   3 -11   0  315.52   34.54   2
  -3 -11   0  345.98   49.05   2
   3 -11   1   226.6   29.76   2
   3 -11   1  236.47   23.12   2
  -3 -11  -1  241.04   33.64   2
  -3 -11  -1  211.82   34.89   2
   3 -11   2  400.76   31.34   2
  -3 -11  -2  413.76   44.05   2
  -3 -11  -2  402.27   46.91   2
   3 -11   3  373.66   31.36   2
  -3 -11  -3   345.8   40.23   2
  -3 -11  -3  383.83   42.52   2
   3 -11   4  504.37    38.4   2
  -3 -11  -4  452.54   46.13   2
  -3 -11  -4  453.95   44.06   2
   3 -11   5  195.99   25.42   2
  -3 -11  -5  216.93   32.55   2
  -3 -11  -5  196.97   27.44   2
  -3 -11  -6  445.75   47.14   2
   3 -11   6  537.99   44.85   2
  -3 -11  -6   508.6   42.72   2
   3 -11   7  183.87   27.87   2
   3 -11   8   429.3   45.52   2
  -3 -10  10  164.15   27.92   2
   3 -10 -10  110.43   19.36   2
  -3 -10  10  182.43   34.06   2
  -3 -10   9  154.92   25.03   2
   3 -10  -9  135.79   20.86   2
  -3 -10   9  170.61   34.02   2
   3 -10  -8  285.68   28.14   2
  -3 -10   8  326.71   47.64   2
  -3 -10   8  288.91   32.42   2
   3 -10  -7   202.8   22.39   2
  -3 -10   7  174.43   29.04   2
   3 -10  -7  198.41   22.26   2
  -3 -10   7  210.99   39.25   2
  -3 -10   7  204.74   24.03   2
   3 -10  -6  359.73   30.06   2
  -3 -10   6   340.3   41.45   2
   3 -10  -6  372.94   30.23   2
  -3 -10   6  378.65   54.02   2
  -3 -10   6   369.5   28.93   2
   3 -10  -5     254   25.58   2
  -3 -10   5  257.87   35.83   2
   3 -10  -5  267.36   24.36   2
  -3 -10   5  306.54   49.16   2
  -3 -10   5  274.22   22.09   2
   3 -10  -4   416.3   33.61   2
  -3 -10   4  424.81   45.96   2
   3 -10  -4  402.63    29.2   2
  -3 -10   4  423.57   59.55   2
  -3 -10   4  425.02   24.64   2
   3 -10  -3   259.5   27.34   2
  -3 -10   3  284.11    36.8   2
   3 -10  -3  270.41   23.01   2
  -3 -10   3   265.6   46.15   2
   3 -10  -2  455.73   36.63   2
  -3 -10   2  448.02   45.35   2
   3 -10  -2  436.61   29.07   2
  -3 -10   2  507.31   62.62   2
   3 -10  -1  298.22   30.93   2
  -3 -10   1  331.04   38.89   2
   3 -10  -1  278.39   23.12   2
  -3 -10   1  302.81   45.79   2
   3 -10   0  433.64   38.37   2
  -3 -10   0  398.31   42.06   2
   3 -10   0  397.25   27.88   2
  -3 -10   0  435.61   52.09   2
   3 -10   1  142.22    16.9   2
  -3 -10  -1  167.99   26.37   2
  -3 -10  -1  182.14   31.26   2
   3 -10   2   377.7   29.12   2
  -3 -10  -2  394.02   40.89   2
  -3 -10  -2  382.03   42.94   2
   3 -10   3  185.19    20.9   2
  -3 -10  -3  165.86   26.67   2
  -3 -10  -3  197.13   28.66   2
  -3 -10  -4  220.83    20.2   2
   3 -10   4  264.48    26.4   2
  -3 -10  -4  228.09   31.49   2
  -3 -10  -4  247.15   30.25   2
  -3 -10  -5    94.7   20.62   2
   3 -10   5  108.43   17.85   2
  -3 -10  -5  104.71   13.84   2
  -3 -10  -5   99.57   18.74   2
  -3 -10  -6   133.5      16   2
   3 -10   6  161.75   23.78   2
  -3 -10  -6  141.41   26.65   2
  -3 -10  -6  132.92   20.64   2
  -3 -10  -7   50.37    9.85   2
  -3 -10  -7   69.61   18.05   2
   3 -10   7    70.2   16.69   2
  -3 -10  -7   44.35   10.89   2
  -3 -10  -8   71.52   18.03   2
   3 -10   8  129.91   24.86   2
  -3  -9  11  114.22    24.1   2
  -3  -9  11  153.79   29.07   2
  -3  -9  10  155.18    27.5   2
  -3  -9  10  201.58   34.53   2
   3  -9  -9  220.69   25.62   2
  -3  -9   9  236.64   30.86   2
   3  -9  -8     240   25.31   2
  -3  -9   8  271.17   41.66   2
  -3  -9   8  224.15   28.16   2
   3  -9  -7  160.78   18.71   2
  -3  -9   7  156.99   26.43   2
   3  -9  -7  154.89   19.42   2
  -3  -9   7  222.16   38.31   2
  -3  -9   7  178.47   22.78   2
   3  -9  -6  317.02   26.62   2
  -3  -9   6  300.84   36.26   2
   3  -9  -6  302.66   26.66   2
  -3  -9   6  317.66   46.79   2
  -3  -9   6  280.08   25.54   2
  -3  -9   5  353.04   39.15   2
   3  -9  -5  342.39   27.74   2
   3  -9  -5  385.82   28.95   2
  -3  -9   5  322.81      49   2
  -3  -9   5  351.76   25.43   2
   3  -9  -4  373.13   29.69   2
   3  -9  -4  376.03   27.14   2
  -3  -9   4  366.87   39.69   2
  -3  -9   4   346.9   51.98   2
  -3  -9   4  382.84   23.74   2
   3  -9  -3  194.43   22.06   2
  -3  -9   3  180.36   27.94   2
   3  -9  -3  168.15   17.43   2
  -3  -9   3  184.28   36.26   2
  -3  -9   3  191.86    14.8   2
   3  -9  -2   443.8   34.28   2
  -3  -9   2  400.99    40.2   2
   3  -9  -2  377.59   25.87   2
  -3  -9   2  411.89   53.39   2
   3  -9  -1  435.08   35.45   2
  -3  -9   1  385.73   39.29   2
   3  -9  -1  395.57   26.57   2
  -3  -9   1  409.34   50.75   2
  -3  -9   0  472.96   43.88   2
   3  -9   0  493.76   29.85   2
  -3  -9   0  504.68   53.45   2
  -3  -9  -1   335.8   36.34   2
   3  -9   1  326.57    24.5   2
  -3  -9  -1  369.98   42.61   2
   3  -9   2  413.53   28.94   2
  -3  -9  -2  412.32   40.38   2
  -3  -9  -2  472.61   45.04   2
  -3  -9  -3  481.94   28.92   2
   3  -9   3   481.3   32.71   2
  -3  -9  -3  493.55   43.98   2
  -3  -9  -3  465.25   42.52   2
  -3  -9  -4  411.16   26.92   2
   3  -9   4  392.89   30.99   2
  -3  -9  -4  405.55   40.54   2
  -3  -9  -4  427.18   38.35   2
  -3  -9  -5  372.28   26.09   2
   3  -9   5  383.33   32.28   2
  -3  -9  -5  362.87      39   2
  -3  -9  -5   321.5   32.09   2
   3  -9   6  344.46   32.53   2
  -3  -9  -6  310.61   36.44   2
  -3  -9  -6  319.17   25.09   2
  -3  -9  -6  333.81    31.2   2
  -3  -9  -7  461.38    31.7   2
   3  -9   7  424.91   39.09   2
  -3  -9  -7  442.72   45.47   2
  -3  -9  -7  407.18   33.55   2
  -3  -9  -8  327.62   27.68   2
  -3  -9  -8  311.23   38.67   2
   3  -9   8   332.5   36.57   2
  -3  -9  -9  233.18   24.51   2
   3  -9   9  281.88   35.63   2
  -3  -9  -9  216.89   33.35   2
   3  -8 -11  152.94   28.31   2
  -3  -8  11  129.96   26.45   2
  -3  -8  11  187.69   31.14   2
  -3  -8  10  133.37   24.99   2
   3  -8 -10   132.6   25.63   2
  -3  -8  10  134.29   27.52   2
  -3  -8   9  294.39   35.06   2
   3  -8  -9  316.41   36.32   2
  -3  -8   9  417.24   49.36   2
  -3  -8   8   230.8    29.1   2
   3  -8  -8  225.99   20.46   2
  -3  -8   8  249.16   28.99   2
   3  -8  -8  213.72   23.26   2
   3  -8  -8  158.41   23.24   2
   3  -8  -7  488.71   30.64   2
  -3  -8   7   465.4   41.92   2
   3  -8  -7  447.84   32.69   2
  -3  -8   7  540.62   57.92   2
  -3  -8   7  450.06   36.83   2
   3  -8  -6  277.33   22.83   2
  -3  -8   6  276.94    32.5   2
   3  -8  -6  264.76   24.23   2
  -3  -8   6  316.32   45.64   2
  -3  -8   6  301.43   26.58   2
  -3  -8   5  789.27   55.27   2
   3  -8  -5  744.16   39.69   2
  -3  -8   5  826.56   74.19   2
  -3  -8   5  728.82   37.37   2
  -3  -8   4  528.52   44.83   2
   3  -8  -4  540.73   32.07   2
  -3  -8   4  445.05   54.92   2
  -3  -8   4  524.12   28.24   2
   3  -8  -3  833.21   43.08   2
  -3  -8   3  781.21   54.55   2
   3  -8  -3  771.56   37.65   2
  -3  -8   3  826.56   73.23   2
  -3  -8   3  832.12   32.36   2
   3  -8  -2  427.97   31.94   2
  -3  -8   2  430.91   39.66   2
   3  -8  -2  406.62      26   2
  -3  -8   2  457.08   52.87   2
   3  -8  -1  905.11   44.03   2
  -3  -8   1  892.05   57.47   2
   3  -8  -1   794.9   36.51   2
  -3  -8   1  875.49   71.04   2
   3  -8   0  716.47   36.29   2
  -3  -8   0  706.81   50.86   2
   3  -8   0   649.6   33.14   2
  -3  -8   0  755.92   61.39   2
   3  -8   1  777.18   35.12   2
  -3  -8  -1  752.02   52.45   2
   3  -8   1  685.55   34.99   2
  -3  -8  -1  789.72   59.34   2
  -3  -8  -2  391.09   24.88   2
   3  -8   2  377.18   22.58   2
   3  -8   2  383.64   26.52   2
  -3  -8  -2  367.38    36.4   2
  -3  -8  -2  413.34   40.05   2
  -3  -8  -3  521.31   29.21   2
   3  -8   3  580.61   27.33   2
   3  -8   3  548.21   33.58   2
  -3  -8  -3  573.97   46.18   2
  -3  -8  -3  587.66   44.97   2
  -3  -8  -4  474.09   28.43   2
   3  -8   4  474.81   32.95   2
  -3  -8  -4  432.29   40.39   2
  -3  -8  -4  490.17   38.99   2
  -3  -8  -5  245.55      21   2
   3  -8   5  243.76    24.6   2
  -3  -8  -5  274.46   32.87   2
  -3  -8  -5  230.66   25.57   2
  -3  -8  -6  198.52   19.34   2
   3  -8   6  232.12   25.52   2
  -3  -8  -6  180.74    27.5   2
  -3  -8  -6  221.54   23.82   2
  -3  -8  -7  179.49   19.58   2
   3  -8   7  202.65   26.13   2
  -3  -8  -7   197.6   29.16   2
  -3  -8  -7  200.74   22.23   2
  -3  -8  -8  123.13   24.22   2
   3  -8   8  144.33   23.87   2
  -3  -8  -8  110.26   15.96   2
  -3  -8  -8  137.89   17.62   2
  -3  -8  -9    41.7   14.09   2
   3  -8   9   29.13   11.84   2
  -3  -8  -9   34.88    9.36   2
  -3  -8 -10   59.68   18.11   2
   3  -8  10   26.98    9.15   2
  -3  -8 -10   38.99   10.66   2
  -3  -8 -11   16.14    8.04   2
  -3  -7  11   74.73   19.53   2
   3  -7 -11   67.75   16.83   2
  -3  -7  11  119.42   23.78   2
  -3  -7  10  216.85   32.49   2
   3  -7 -10  221.05   32.43   2
  -3  -7  10  295.02    38.7   2
  -3  -7   9  314.92   36.03   2
  -3  -7   9  314.12   25.49   2
   3  -7  -9  251.51   32.26   2
  -3  -7   9  291.82   39.08   2
  -3  -7   8  331.06   34.87   2
  -3  -7   8  320.63   24.58   2
   3  -7  -8  321.71   22.56   2
  -3  -7   8  387.41   33.29   2
   3  -7  -8  267.69    30.4   2
  -3  -7   8  355.46   43.46   2
  -3  -7   7  273.72   21.06   2
   3  -7  -7  302.59   22.09   2
  -3  -7   7  277.62   29.18   2
   3  -7  -7  219.12   25.24   2
  -3  -7   7  359.64    44.9   2
  -3  -7   7  283.05   29.35   2
  -3  -7   6  340.17   22.52   2
   3  -7  -6     376   24.65   2
  -3  -7   6  360.98   34.48   2
   3  -7  -6  356.54   27.37   2
   3  -7  -6  276.32   25.88   2
  -3  -7   6  373.26   46.99   2
  -3  -7   6  381.41   29.93   2
   3  -7  -5  776.89   22.94   2
  -3  -7   5   812.2   52.45   2
   3  -7  -5  707.47   37.53   2
  -3  -7   5  807.44   70.63   2
  -3  -7   5   776.4   38.47   2
   3  -7  -4   522.8   17.76   2
   3  -7  -4  369.37    25.9   2
  -3  -7   4  493.79   40.81   2
   3  -7  -4  480.84   29.64   2
  -3  -7   4  483.38   54.36   2
  -3  -7   4  459.27   26.42   2
   3  -7  -3  660.49   35.98   2
  -3  -7   3  699.17   48.66   2
   3  -7  -3  660.95   33.34   2
  -3  -7   3  692.86   63.41   2
  -3  -7   3  652.09   28.77   2
  -3  -7   2  508.03   41.54   2
   3  -7  -2  491.61   27.47   2
  -3  -7   2   549.1   55.08   2
   3  -7  -1 1306.51      50   2
  -3  -7   1 1343.13   67.65   2
   3  -7  -1 1180.34   43.88   2
  -3  -7   1 1274.33   81.35   2
   3  -7   0  777.72   35.02   2
   3  -7   0  865.05    37.3   2
  -3  -7   0  824.66   52.27   2
  -3  -7   0  896.14   63.21   2
  -3  -7  -1   925.2   37.64   2
   3  -7   1  944.18   37.01   2
  -3  -7  -1  902.89   55.35   2
   3  -7   1  900.51   38.48   2
  -3  -7  -1  895.79   59.52   2
  -3  -7  -2  788.94   34.45   2
   3  -7   2  802.66   32.67   2
   3  -7   2  774.14   36.66   2
  -3  -7  -2  790.64   52.38   2
  -3  -7  -2  746.83   51.24   2
  -3  -7  -3 1140.99   43.08   2
   3  -7   3 1193.77    40.2   2
   3  -7   3  1192.8   48.52   2
  -3  -7  -3 1186.63   65.62   2
  -3  -7  -3 1144.11   60.56   2
  -3  -7  -4  777.49   36.17   2
   3  -7   4  814.61   32.54   2
   3  -7   4  806.64   41.66   2
  -3  -7  -4   742.3   52.94   2
  -3  -7  -4  824.52    21.3   2
  -3  -7  -4   788.2   47.65   2
   3  -7   5  790.41   32.97   2
   3  -7   5  738.85   42.17   2
  -3  -7  -5  776.98   55.77   2
  -3  -7  -5  750.93   24.24   2
  -3  -7  -5  782.42    37.5   2
  -3  -7  -5  702.91   43.55   2
  -3  -7  -6  610.47   34.24   2
   3  -7   6  615.97   40.85   2
  -3  -7  -6  607.09    50.3   2
  -3  -7  -6  611.79   38.89   2
   3  -7   7  777.99   49.79   2
  -3  -7  -7  750.77   57.42   2
  -3  -7  -7  718.63   39.26   2
  -3  -7  -7   815.5   43.87   2
  -3  -7  -8  404.99   30.75   2
   3  -7   8  476.88   41.59   2
  -3  -7  -8  449.15   45.54   2
   3  -7   9   505.1   45.98   2
  -3  -7  -9  496.62   50.01   2
  -3  -7  -9  451.25   34.25   2
  -3  -7 -10  269.08   27.82   2
   3  -7  10   276.3   36.44   2
  -3  -7 -10  246.06   36.57   2
  -3  -7 -11  369.17   35.14   2
  -3  -7 -11  352.49   44.47   2
  -3  -7 -12   135.5   21.75   2
  -3  -6  12  154.57   29.25   2
   3  -6 -12  153.53    30.2   2
  -3  -6  11  157.66   28.75   2
  -3  -6  11  170.65   21.93   2
   3  -6 -11  156.14   28.37   2
  -3  -6  11  217.71   30.49   2
  -3  -6  10  105.64   21.52   2
  -3  -6  10  116.97   17.36   2
   3  -6 -10  132.55   25.48   2
  -3  -6  10  184.22   29.52   2
  -3  -6   9  371.57   39.36   2
  -3  -6   9  400.38   29.95   2
   3  -6  -9  414.38   41.94   2
  -3  -6   9  390.26   43.21   2
  -3  -6   8  476.16   41.16   2
   3  -6  -8  469.76   24.59   2
  -3  -6   8  519.95   34.42   2
  -3  -6   8  466.41   30.18   2
  -3  -6   8  448.29   47.18   2
  -3  -6   7  340.98   29.26   2
  -3  -6   7  351.26    24.5   2
   3  -6  -7  387.49    22.7   2
  -3  -6   7  338.03   29.09   2
   3  -6  -7  245.72   27.39   2
  -3  -6   7  297.87   38.82   2
  -3  -6   7  361.14   32.28   2
   3  -6  -6  433.94   20.38   2
  -3  -6   6  332.36   22.84   2
  -3  -6   6  396.71   32.68   2
   3  -6  -6  337.99   21.66   2
  -3  -6   6   471.7   35.82   2
   3  -6  -6  436.73   24.41   2
   3  -6  -6  340.36   28.84   2
  -3  -6   6  510.78   52.11   2
  -3  -6   6  458.84   33.02   2
   3  -6  -5  710.28   24.26   2
  -3  -6   5  717.43   45.36   2
  -3  -6   5  541.12    28.1   2
   3  -6  -5  562.58   28.88   2
  -3  -6   5   749.8   46.64   2
   3  -6  -5  681.53   31.38   2
   3  -6  -5  734.36   36.98   2
   3  -6  -5  567.97   33.65   2
  -3  -6   5  719.21   62.13   2
  -3  -6   5  726.68   37.29   2
   3  -6  -4   715.5   23.61   2
  -3  -6   4  741.66   46.48   2
   3  -6  -4  733.41   34.03   2
  -3  -6   4  732.63   46.93   2
   3  -6  -4  690.25   33.11   2
   3  -6  -4  716.29   35.27   2
   3  -6  -4  651.17   32.87   2
  -3  -6   4   651.9   59.45   2
  -3  -6   4  674.76   32.34   2
   3  -6  -3  443.39    17.8   2
  -3  -6   3  451.77   36.69   2
   3  -6  -3   421.4   26.78   2
  -3  -6   3   423.3    36.1   2
   3  -6  -3  404.65   25.09   2
  -3  -6   3  410.29   46.06   2
  -3  -6   3  407.44   22.58   2
   3  -6  -2  737.08    24.7   2
   3  -6  -2  694.76   36.17   2
  -3  -6   2  686.19      46   2
   3  -6  -2  623.61   30.68   2
  -3  -6   2  684.38   57.38   2
   3  -6  -1  667.06   32.72   2
  -3  -6   1  691.89   46.04   2
   3  -6  -1  629.42   30.01   2
  -3  -6   1  700.94   55.42   2
   3  -6   0  545.73    27.8   2
  -3  -6   0  506.68   26.78   2
   3  -6   0   592.9   29.01   2
  -3  -6   0  577.68   42.06   2
  -3  -6   0  583.96   47.94   2
  -3  -6  -1  363.63   22.05   2
  -3  -6  -1  377.49   34.31   2
   3  -6   1  373.64    23.3   2
  -3  -6  -1  388.69   36.51   2
   3  -6   1  386.85   22.35   2
  -3  -6  -2   318.4   20.96   2
   3  -6   2  344.85   20.56   2
   3  -6   2  307.15   21.92   2
  -3  -6  -2  321.11   32.49   2
  -3  -6  -2  340.15   32.28   2
  -3  -6  -3  457.09   25.88   2
   3  -6   3  464.33   24.01   2
   3  -6   3  447.84   27.86   2
  -3  -6  -3  446.03   39.17   2
  -3  -6  -3  424.51   14.84   2
  -3  -6  -3  448.12   35.22   2
  -3  -6  -4  308.22   21.66   2
   3  -6   4  311.37   19.98   2
   3  -6   4  305.09   24.21   2
  -3  -6  -4  280.44   32.09   2
  -3  -6  -4  286.65   13.72   2
  -3  -6  -4  308.99   28.22   2
   3  -6   5  255.64   23.73   2
  -3  -6  -5  234.11   30.21   2
   3  -6   5  243.41   18.33   2
  -3  -6  -5  221.96   14.04   2
  -3  -6  -5  225.05   19.29   2
  -3  -6  -5  240.43      24   2
  -3  -6  -6  107.95   13.78   2
   3  -6   6  118.46    13.2   2
   3  -6   6  132.73   18.28   2
  -3  -6  -6  104.13   10.84   2
  -3  -6  -6  105.89   20.73   2
  -3  -6  -6  114.27   16.36   2
  -3  -6  -7  200.45   20.08   2
   3  -6   7  207.67   25.11   2
  -3  -6  -7   189.4   27.59   2
  -3  -6  -7  203.54   20.71   2
  -3  -6  -8   68.94   17.67   2
   3  -6   8   97.68   18.05   2
  -3  -6  -8    77.5   13.04   2
  -3  -6  -9  104.86   23.05   2
  -3  -6  -9    91.2   15.25   2
   3  -6   9  109.18   20.82   2
  -3  -6 -10   14.44    6.46   2
  -3  -6 -10   -0.93    8.04   2
   3  -6  10   28.29   13.11   2
  -3  -6 -11   34.16   13.63   2
  -3  -6 -11   33.35    9.72   2
   3  -6  11   17.58    5.13   2
  -3  -6 -12   11.64    6.76   2
  -3  -6 -12    7.71     7.7   2
  -3  -5  13   75.35   17.33   2
  -3  -5  12  396.91   47.44   2
  -3  -5  12  378.67    37.2   2
   3  -5 -12  434.58   49.24   2
  -3  -5  11   53.36   18.78   2
  -3  -5  11   63.14   14.33   2
   3  -5 -11   75.45   18.97   2
  -3  -5  11   66.56   15.69   2
  -3  -5  10  479.85   36.65   2
  -3  -5  10  449.69   46.51   2
  -3  -5  10   611.8   49.47   2
   3  -5 -10  542.47   51.67   2
  -3  -5   9  189.44   27.91   2
  -3  -5   9  192.73   21.28   2
  -3  -5   9   265.5   33.28   2
   3  -5  -9  184.33   28.61   2
  -3  -5   8  625.33   47.09   2
  -3  -5   8  463.73   31.25   2
   3  -5  -8  650.49   26.19   2
  -3  -5   8  801.93   36.04   2
  -3  -5   8  604.47   51.24   2
   3  -5  -8  475.83   42.78   2
   3  -5  -7  122.09   12.37   2
  -3  -5   7  127.73   18.76   2
  -3  -5   7  101.04   13.42   2
   3  -5  -7   95.77   17.45   2
  -3  -5   7  148.75   17.08   2
   3  -5  -7  136.05   11.91   2
  -3  -5   7  138.79   16.35   2
   3  -5  -7   128.2   15.17   2
   3  -5  -7   120.3   11.23   2
  -3  -5   7  123.68   23.92   2
   3  -5  -6  599.84   25.66   2
  -3  -5   6  520.76   29.18   2
  -3  -5   6  578.31   36.25   2
   3  -5  -6   652.7   27.44   2
  -3  -5   6  606.52   37.22   2
   3  -5  -6  616.97   26.37   2
   3  -5  -6  644.59   41.29   2
  -3  -5   6   694.7    57.5   2
  -3  -5   6  628.64   38.39   2
   3  -5  -5  390.54   19.16   2
  -3  -5   5  382.79   23.43   2
   3  -5  -5  410.55   22.13   2
  -3  -5   5  391.73   31.17   2
  -3  -5   5  432.64    32.3   2
   3  -5  -5  388.85   21.33   2
   3  -5  -5  386.12   28.09   2
  -3  -5   5  385.73   42.99   2
  -3  -5   5  406.45   27.35   2
  -3  -5   4  763.51    32.4   2
   3  -5  -4  798.87   32.81   2
  -3  -5   4   716.2    43.6   2
   3  -5  -4  750.38   31.85   2
  -3  -5   4  780.66   45.36   2
   3  -5  -4   746.1   35.06   2
   3  -5  -4  764.71    25.8   2
   3  -5  -4  796.08   36.05   2
  -3  -5   4  666.67    57.5   2
  -3  -5   4  740.01   33.92   2
   3  -5  -3  563.37   21.15   2
   3  -5  -3   577.5   29.18   2
  -3  -5   3  614.77   41.07   2
  -3  -5   3  576.04    39.9   2
   3  -5  -3  555.99    28.8   2
   3  -5  -3  596.47   27.31   2
  -3  -5   3  503.28   48.01   2
  -3  -5   3  557.35   26.44   2
   3  -5  -2  943.95   29.17   2
   3  -5  -2  957.61   41.02   2
   3  -5  -2 1030.07   41.45   2
  -3  -5   2 1021.49   54.36   2
  -3  -5   2 1044.06   54.48   2
   3  -5  -2  906.46   36.32   2
  -3  -5   2  994.04   66.17   2
  -3  -5   2  945.83    32.4   2
   3  -5  -1  967.17   30.75   2
   3  -5  -1  954.78   37.56   2
  -3  -5   1  930.88   52.82   2
   3  -5  -1  943.45   42.97   2
  -3  -5   1  928.31   52.76   2
   3  -5  -1  868.92   34.68   2
  -3  -5   1  905.52   60.38   2
   3  -5  -1  889.76   34.26   2
  -3  -5   0  546.26   26.37   2
   3  -5   0  617.76   28.47   2
  -3  -5   0  600.86   43.11   2
   3  -5   0  553.62   27.08   2
  -3  -5   0  643.61   47.77   2
  -3  -5  -1  920.23   54.47   2
   3  -5   1  867.88   35.19   2
  -3  -5  -1  902.77   53.09   2
  -3  -5  -1  840.55   33.35   2
   3  -5   1  914.82    34.2   2
  -3  -5  -2  606.87   28.72   2
   3  -5   2  649.97   28.32   2
   3  -5   2  621.74   30.67   2
  -3  -5  -2  624.27   46.03   2
  -3  -5  -2  640.95   42.25   2
  -3  -5  -3 1196.39   42.24   2
   3  -5   3 1248.63   40.94   2
   3  -5   3 1241.27   46.08   2
  -3  -5  -3 1190.99   65.47   2
  -3  -5  -3 1167.43   29.89   2
  -3  -5  -3 1174.77   55.75   2
  -3  -5  -4  392.89    24.5   2
   3  -5   4  422.73   23.54   2
   3  -5   4  413.22   27.68   2
  -3  -5  -4  434.61   39.89   2
  -3  -5  -4   412.6   18.36   2
  -3  -5  -4  401.42   30.83   2
  -3  -5  -5 1000.04   41.66   2
   3  -5   5 1044.09    39.6   2
   3  -5   5 1072.82   48.49   2
  -3  -5  -5  1057.2   64.79   2
  -3  -5  -5  978.05   33.25   2
  -3  -5  -5 1069.19    49.7   2
  -3  -5  -6  250.06   21.48   2
   3  -5   6   257.3   25.02   2
  -3  -5  -6  257.87   32.66   2
  -3  -5  -6  263.29    18.7   2
  -3  -5  -6  278.86   24.41   2
  -3  -5  -7 1105.77   48.98   2
   3  -5   7 1162.73   58.59   2
  -3  -5  -7 1129.95   71.84   2
   3  -5   8  196.19    25.7   2
  -3  -5  -8  160.13   19.44   2
  -3  -5  -8  198.65   30.79   2
   3  -5   9  753.22   54.36   2
  -3  -5  -9  628.79   42.09   2
  -3  -5  -9  763.02   62.66   2
  -3  -5 -10  114.51   18.61   2
  -3  -5 -10   128.7   25.79   2
   3  -5  10  128.44    23.8   2
  -3  -5 -11  678.88   49.85   2
  -3  -5 -11  717.29   62.22   2
   3  -5  11  706.09   60.76   2
  -3  -5 -12   84.71   21.88   2
  -3  -5 -12    68.5   16.83   2
  -3  -4  14    5.57    5.82   2
  -3  -4  13  145.49   24.82   2
  -3  -4  12   44.53   13.15   2
   3  -4 -12    46.6   14.15   2
  -3  -4  12   48.65   13.14   2
  -3  -4  11  222.54   33.56   2
  -3  -4  11  245.66   29.21   2
  -3  -4  11  373.74   35.78   2
   3  -4 -11  329.86   40.88   2
  -3  -4  10   47.06   16.12   2
   3  -4 -10   71.95   18.55   2
  -3  -4  10   46.89   11.95   2
  -3  -4  10   90.94   18.51   2
  -3  -4   9  515.27   46.03   2
  -3  -4   9  699.65   51.19   2
   3  -4  -9  574.91   51.82   2
  -3  -4   9  382.02    31.6   2
  -3  -4   8   326.5   32.85   2
  -3  -4   8  250.16   23.13   2
   3  -4  -8  322.45   15.27   2
   3  -4  -8  338.92   22.78   2
  -3  -4   8  319.88   35.15   2
   3  -4  -8  234.11   31.19   2
   3  -4  -7  692.56   32.11   2
  -3  -4   7  742.66   37.56   2
   3  -4  -7  809.23    26.3   2
  -3  -4   7  966.29   36.75   2
  -3  -4   7  906.55   35.15   2
  -3  -4   7  779.69   47.04   2
   3  -4  -7  741.19   36.06   2
  -3  -4   7  696.17   53.63   2
   3  -4  -7  542.84   45.22   2
   3  -4  -7  758.49   25.45   2
  -3  -4   6  233.88    19.4   2
   3  -4  -6  218.11   16.07   2
   3  -4  -6  261.61   15.05   2
  -3  -4   6   280.3   22.08   2
  -3  -4   6  260.16   20.98   2
   3  -4  -6  236.67   14.24   2
   3  -4  -6  235.04   20.49   2
  -3  -4   6  266.22   33.47   2
   3  -4  -6  236.32   26.48   2
  -3  -4   6  245.07    23.4   2
   3  -4  -5 1066.16   34.47   2
   3  -4  -5 1062.43   33.63   2
  -3  -4   5 1031.68   47.66   2
   3  -4  -5 1041.81   32.96   2
  -3  -4   5   981.4   46.54   2
  -3  -4   5 1073.15   40.89   2
  -3  -4   5 1021.97   67.51   2
   3  -4  -5 1097.02   51.83   2
  -3  -4   5 1103.03   45.46   2
   3  -4  -4  755.01   27.12   2
  -3  -4   4  764.74   32.51   2
   3  -4  -4  767.29   29.32   2
  -3  -4   4  779.22   43.02   2
  -3  -4   4  698.43   40.68   2
   3  -4  -4  769.66   34.82   2
  -3  -4   4   675.8   54.51   2
   3  -4  -4  801.54   38.26   2
  -3  -4   4  739.64   33.51   2
   3  -4  -3 1398.51   36.69   2
   3  -4  -3 1377.56   43.78   2
  -3  -4   3 1326.05   42.63   2
  -3  -4   3 1360.54   60.48   2
  -3  -4   3 1365.78   60.16   2
   3  -4  -3 1297.76   44.49   2
   3  -4  -3 1403.82   44.28   2
  -3  -4   3 1387.15   76.61   2
  -3  -4   3  1331.5   42.81   2
   3  -4  -2  367.01   17.36   2
   3  -4  -2  373.92   23.77   2
   3  -4  -2  405.43   24.05   2
  -3  -4   2  407.97   33.35   2
   3  -4  -2  379.97   22.21   2
  -3  -4   2  437.09   34.18   2
   3  -4  -2  382.55   18.28   2
  -3  -4   2  380.05   37.71   2
  -3  -4   2  366.88   19.56   2
   3  -4  -2   371.4   21.44   2
   3  -4  -1 1704.66   42.02   2
  -3  -4   1 1560.95   46.23   2
   3  -4  -1 1688.04   49.41   2
  -3  -4   1 1645.88   71.38   2
   3  -4  -1 1592.33   46.64   2
  -3  -4   1 1647.86   70.43   2
  -3  -4   1 1572.35   76.38   2
   3  -4  -1 1621.07   47.12   2
   3  -4  -1 1678.94   55.95   2
   3  -4   0 1081.32   34.02   2
  -3  -4   0  901.75   33.71   2
   3  -4   0 1036.79   36.41   2
  -3  -4   0 1070.25   58.51   2
   3  -4   0  979.56   35.66   2
  -3  -4   0 1041.32   56.72   2
  -3  -4   0  992.51   56.33   2
  -3  -4  -1 1081.46   37.18   2
   3  -4   1 1152.12   37.96   2
  -3  -4  -1 1219.71   64.15   2
   3  -4   1 1089.76   38.47   2
  -3  -4  -1  1109.5   60.41   2
  -3  -4  -1 1138.99   57.61   2
  -3  -4  -2   334.9   20.21   2
   3  -4   2  353.66   20.27   2
   3  -4   2  327.39   21.28   2
  -3  -4  -2  358.89    35.3   2
  -3  -4  -2  336.97   14.86   2
   3  -4   2  341.54   33.38   2
  -3  -4  -2  369.84   31.05   2
  -3  -4  -3 1278.12    69.2   2
  -3  -4  -3 1242.93   42.48   2
   3  -4   3 1276.67   41.66   2
   3  -4   3 1242.27   44.85   2
  -3  -4  -3 1180.47   32.27   2
   3  -4   3 1289.36   67.02   2
  -3  -4  -3 1270.88   55.97   2
  -3  -4  -4   492.4   27.01   2
   3  -4   4  518.28   26.51   2
  -3  -4  -4  446.46   20.58   2
   3  -4   4  502.89   29.52   2
  -3  -4  -4  462.21   41.84   2
   3  -4   4  512.11   42.21   2
  -3  -4  -4     496   33.13   2
  -3  -4  -5   587.1   31.18   2
   3  -4   5   606.6   35.03   2
  -3  -4  -5  556.03   25.76   2
  -3  -4  -5  606.94   48.88   2
   3  -4   5  600.21   45.33   2
  -3  -4  -5  601.12   35.67   2
  -3  -4  -6  129.17      15   2
   3  -4   6   156.7   18.51   2
  -3  -4  -6  121.21   13.35   2
  -3  -4  -6  122.12    23.6   2
   3  -4   6  180.01   24.15   2
  -3  -4  -7  404.53    29.4   2
   3  -4   7     455   35.47   2
   3  -4   7   400.7   24.64   2
  -3  -4  -7  425.31   44.65   2
   3  -4   7  518.39   40.43   2
  -3  -4  -8  181.09      21   2
  -3  -4  -8  184.33   29.72   2
   3  -4   8  259.97   27.24   2
   3  -4   8  166.54   23.22   2
  -3  -4  -9   93.08   17.11   2
  -3  -4  -9   89.22   20.44   2
   3  -4   9  101.92   19.97   2
  -3  -4 -10   19.39    7.28   2
  -3  -4 -10   28.92   12.52   2
   3  -4  10    17.1    6.81   2
  -3  -4 -11   71.41   17.78   2
  -3  -4 -11   68.78   19.13   2
   3  -4  11   42.14   13.16   2
  -3  -4 -12   15.66    6.16   2
  -3  -4 -12   20.97   11.55   2
   3  -4  12   13.45    8.07   2
  -3  -4 -13    7.16    3.99   2
   3  -4  13    4.83    5.73   2
  -3  -3  14  348.58   41.29   2
  -3  -3  13   30.07   11.83   2
   3  -3 -13   34.85   14.65   2
  -3  -3  12  554.22   55.41   2
  -3  -3  12  523.77   47.55   2
  -3  -3  11   36.28   14.43   2
  -3  -3  11   36.69   10.74   2
   3  -3 -11   51.55    15.5   2
  -3  -3  10  649.93    54.6   2
  -3  -3  10  636.26   45.91   2
   3  -3 -10   784.5   62.19   2
  -3  -3   9  141.69   23.78   2
  -3  -3   9   152.9   20.49   2
   3  -3  -9  144.65   25.48   2
  -3  -3   9  200.84   26.15   2
  -3  -3   8  810.66   51.85   2
  -3  -3   8  773.39   42.86   2
  -3  -3   8  706.54   50.66   2
   3  -3  -8  752.77   35.16   2
   3  -3  -8   716.4   56.68   2
   3  -3  -7  297.18   12.25   2
   3  -3  -7  384.06   32.24   2
  -3  -3   7  280.06   23.35   2
  -3  -3   7  326.56   34.76   2
   3  -3  -7  280.82   21.61   2
   3  -3  -7  285.98   34.25   2
   3  -3  -7  294.51   12.15   2
  -3  -3   7  288.79   27.31   2
  -3  -3   6  887.46    39.4   2
   3  -3  -6  935.73   25.43   2
  -3  -3   6  1108.2   37.85   2
   3  -3  -6  865.54   34.73   2
   3  -3  -6 1057.16   57.61   2
   3  -3  -6  863.28   24.31   2
   3  -3  -6   846.5   39.58   2
  -3  -3   6   967.8   62.07   2
   3  -3  -6  827.09   55.14   2
  -3  -3   6  876.46   44.68   2
   3  -3  -5  775.75   30.24   2
  -3  -3   5  774.22   34.63   2
   3  -3  -5  806.97   25.28   2
   3  -3  -5  774.47   24.87   2
  -3  -3   5  1013.6   42.85   2
   3  -3  -5  912.86    55.9   2
   3  -3  -5  758.56   38.07   2
  -3  -3   5  938.63   40.64   2
  -3  -3   5  759.85   55.11   2
   3  -3  -5  757.53   48.64   2
  -3  -3   5  776.67   37.67   2
   3  -3  -4  677.76   26.52   2
   3  -3  -4  668.81   25.11   2
  -3  -3   4  675.02   30.67   2
  -3  -3   4  709.46   40.38   2
   3  -3  -4  687.58   50.01   2
  -3  -3   4  678.18   39.12   2
   3  -3  -4  674.75   37.12   2
  -3  -3   4   643.5   50.29   2
   3  -3  -4  642.44   39.22   2
  -3  -3   4   666.7   31.48   2
   3  -3  -3  767.04   29.83   2
   3  -3  -3  802.28   35.16   2
  -3  -3   3  772.85   45.66   2
   3  -3  -3  751.27   53.01   2
   3  -3  -3  721.56   31.43   2
   3  -3  -3  797.79   27.82   2
   3  -3  -3  799.67    45.1   2
  -3  -3   3  700.38   42.74   2
  -3  -3   3  798.25   55.35   2
   3  -3  -3   801.9    36.7   2
  -3  -3   3  733.16   30.52   2
  -3  -3   3  783.09   31.37   2
   3  -3  -3  766.74   31.92   2
   3  -3  -2  828.12   33.82   2
  -3  -3   2  853.68   50.93   2
   3  -3  -2  757.74   31.11   2
   3  -3  -2  886.05   57.43   2
   3  -3  -2     797   26.86   2
   3  -3  -2  804.91   45.31   2
  -3  -3   2  788.22   48.31   2
  -3  -3   2  869.79   55.65   2
   3  -3  -2  834.64   30.55   2
   3  -3  -2  811.53    32.2   2
   3  -3  -1 1538.01   39.58   2
  -3  -3   1 1462.54   43.11   2
   3  -3  -1 1573.51   46.28   2
   3  -3  -1 1434.52   43.25   2
  -3  -3   1 1524.88   72.37   2
   3  -3  -1 1578.05   76.16   2
   3  -3  -1 1397.67   61.51   2
  -3  -3   1 1516.74   71.67   2
   3  -3  -1 1611.32   33.58   2
  -3  -3   1 1459.49   70.07   2
   3  -3  -1 1552.93   45.13   2
   3  -3   0  608.05   24.49   2
  -3  -3   0  554.54   25.02   2
   3  -3   0  612.67   26.47   2
  -3  -3   0  635.45   47.43   2
   3  -3   0  577.51   25.94   2
   3  -3   0  644.54   47.22   2
   3  -3   0  628.31   40.67   2
  -3  -3   0  641.26    43.3   2
  -3  -3   0  615.19   45.91   2
  -3  -3  -1 1088.53   36.67   2
   3  -3   1 1154.42   37.36   2
  -3  -3  -1 1189.86   66.71   2
   3  -3   1 1101.95   37.64   2
   3  -3   1 1105.92   61.67   2
  -3  -3  -1 1046.92   28.69   2
   3  -3   1 1121.85   56.85   2
   3  -3   1 1188.62   37.73   2
  -3  -3  -1 1098.45   54.69   2
  -3  -3  -1 1210.76   66.65   2
  -3  -3  -2  789.57   31.61   2
   3  -3   2  816.56    31.6   2
   3  -3   2  782.08   32.39   2
  -3  -3  -2  854.92   57.66   2
   3  -3   2  824.18   53.29   2
   3  -3   2  824.07   51.48   2
  -3  -3  -2  756.27   24.65   2
   3  -3   2  772.38   48.33   2
  -3  -3  -2  801.83   44.25   2
  -3  -3  -3 1986.39   55.11   2
   3  -3   3 2178.44   55.72   2
   3  -3   3 2039.26   57.84   2
  -3  -3  -3 2203.17   96.48   2
  -3  -3  -3  1980.8    46.1   2
   3  -3   3 2000.18   83.17   2
  -3  -3  -3 1956.41   69.16   2
  -3  -3  -4  483.08    26.3   2
   3  -3   4  502.16   28.87   2
  -3  -3  -4  515.28   46.77   2
  -3  -3  -4   467.3   22.28   2
   3  -3   4  519.01   41.42   2
  -3  -3  -5  1134.2   44.65   2
   3  -3   5 1189.02   32.94   2
   3  -3   5 1190.13   48.82   2
  -3  -3  -5 1121.61   39.37   2
  -3  -3  -5  1192.1   73.19   2
   3  -3   5 1177.76   63.92   2
  -3  -3  -6  375.15   26.75   2
   3  -3   6  361.94   22.14   2
   3  -3   6     382      29   2
  -3  -3  -6  365.63   23.95   2
  -3  -3  -6  357.45   40.29   2
   3  -3   6  430.85   38.15   2
  -3  -3  -7 1367.63   56.46   2
   3  -3   7 1533.99   65.61   2
  -3  -3  -7 1410.42   83.06   2
   3  -3   7 1368.07   53.96   2
  -3  -3  -8   198.6   22.46   2
  -3  -3  -8   214.8    31.6   2
   3  -3   8  190.46   21.99   2
   3  -3   8  260.88   27.99   2
   3  -3   8  234.07   27.34   2
  -3  -3  -9  975.65   54.85   2
   3  -3   9  1106.5   65.94   2
  -3  -3  -9 1122.83   74.73   2
  -3  -3 -10  165.19   28.56   2
  -3  -3 -10  131.68      21   2
   3  -3  10  166.33   27.07   2
  -3  -3 -11  885.28   60.32   2
   3  -3  11  989.24   71.79   2
  -3  -3 -12  111.79   24.38   2
   3  -3  12   67.14   20.08   2
   3  -3  12    79.1   21.01   2
  -3  -3 -12   38.23   11.65   2
   3  -3  13  608.39   58.26   2
  -3  -2  14   12.56    6.66   2
  -3  -2  13  174.47    32.3   2
  -3  -2  13  164.03   28.33   2
  -3  -2  12   98.46   22.26   2
  -3  -2  12  103.32   22.12   2
   3  -2 -12  151.92   27.39   2
  -3  -2  11  247.58   34.19   2
  -3  -2  11   233.2   30.65   2
   3  -2 -11  340.98   41.47   2
  -3  -2  10   96.86   21.61   2
  -3  -2  10  100.86   19.21   2
   3  -2 -10  115.53   24.79   2
  -3  -2  10  108.24   17.13   2
  -3  -2   9   522.6   39.99   2
   3  -2  -9  714.71   38.93   2
  -3  -2   9  600.48   48.12   2
  -3  -2   9  748.51   47.88   2
   3  -2  -9  536.37   28.43   2
   3  -2  -9   648.8   55.48   2
  -3  -2   8  449.25   37.71   2
  -3  -2   8   449.4   33.92   2
   3  -2  -8  567.87   36.85   2
  -3  -2   8  427.81   37.79   2
   3  -2  -8   451.4    27.1   2
   3  -2  -8  546.78   49.32   2
   3  -2  -7  606.59   40.57   2
  -3  -2   7   493.5   32.48   2
  -3  -2   7  583.83    45.7   2
   3  -2  -7   494.7   29.43   2
   3  -2  -7  680.57    54.2   2
  -3  -2   7  506.76   36.39   2
   3  -2  -6  322.96    21.4   2
  -3  -2   6  299.42   22.72   2
   3  -2  -6  240.12    9.03   2
   3  -2  -6  315.59   14.94   2
  -3  -2   6   391.1   34.38   2
   3  -2  -6  406.73   35.21   2
   3  -2  -6  316.62   26.32   2
  -3  -2   6  356.14   35.97   2
   3  -2  -6  319.66   23.63   2
   3  -2  -6  226.58    8.97   2
   3  -2  -6   362.5   38.67   2
  -3  -2   6  316.46   25.69   2
   3  -2  -5  824.14   32.46   2
  -3  -2   5   821.4   36.15   2
   3  -2  -5  873.26    22.6   2
   3  -2  -5  802.39   21.79   2
  -3  -2   5  790.12   29.24   2
   3  -2  -5  709.16   33.13   2
  -3  -2   5  913.43   54.77   2
   3  -2  -5  948.02   56.13   2
   3  -2  -5  870.52   44.85   2
  -3  -2   5  805.53   55.73   2
   3  -2  -5  779.45   38.87   2
   3  -2  -5  983.26   61.85   2
  -3  -2   5  836.86   38.41   2
  -3  -2   4 1119.85   40.04   2
  -3  -2   4 1205.49   49.14   2
   3  -2  -4  940.16   46.08   2
   3  -2  -4 1105.47   30.23   2
   3  -2  -4 1124.77   36.03   2
  -3  -2   4 1139.25    62.8   2
   3  -2  -4 1071.39   61.53   2
   3  -2  -4 1138.02   51.07   2
   3  -2  -4 1087.08   46.98   2
  -3  -2   4  1072.4   64.67   2
   3  -2  -4 1193.75   64.23   2
  -3  -2   4 1117.58    41.3   2
   3  -2  -3  431.31   20.53   2
   3  -2  -3  445.29   24.66   2
  -3  -2   3     510   37.13   2
   3  -2  -3  457.14   34.57   2
  -3  -2   3  416.61   37.44   2
   3  -2  -3   413.4   22.82   2
   3  -2  -3  430.44    38.1   2
   3  -2  -3  430.82   30.76   2
  -3  -2   3  435.65   23.33   2
   3  -2  -3  455.26   30.32   2
  -3  -2   3  436.76   40.01   2
   3  -2  -3  377.55    31.8   2
  -3  -2   3  431.27   22.88   2
   3  -2  -3  413.13   23.02   2
   3  -2  -2  334.07   17.28   2
   3  -2  -2  350.02   20.69   2
  -3  -2   2  318.42   18.98   2
  -3  -2   2  371.37   35.36   2
   3  -2  -2  355.01   32.25   2
   3  -2  -2  336.93   19.43   2
   3  -2  -2  329.14   32.58   2
   3  -2  -2  351.52   28.19   2
   3  -2  -2  341.17   27.45   2
  -3  -2   2  377.63   34.65   2
   3  -2  -2  371.27   27.32   2
   3  -2  -2  330.81   19.62   2
   3  -2  -1   974.4   30.61   2
  -3  -2   1  949.06   32.63   2
   3  -2  -1  957.67   34.12   2
  -3  -2   1 1005.94   63.39   2
   3  -2  -1  978.93   57.93   2
   3  -2  -1  949.16   33.16   2
   3  -2  -1 1041.74   57.72   2
   3  -2  -1  956.37   48.09   2
  -3  -2   1  988.14   55.11   2
   3  -2  -1  995.81   34.19   2
   3  -2  -1 1007.46   34.66   2
   3  -2   0  754.29   27.32   2
  -3  -2   0  719.16   27.88   2
   3  -2   0   780.3   29.61   2
  -3  -2   0  789.83   58.26   2
   3  -2   0  768.06   52.69   2
   3  -2   0   731.4   28.64   2
   3  -2   0  782.45   48.84   2
   3  -2   0  807.21   45.18   2
  -3  -2   0   734.2   44.84   2
   3  -2   0  754.39   17.36   2
   3  -2   1  681.64   27.11   2
  -3  -2  -1   599.7   25.72   2
   3  -2   1  658.25    27.4   2
  -3  -2  -1  719.32   57.34   2
   3  -2   1  644.57   27.03   2
   3  -2   1   650.7   49.84   2
  -3  -2  -1  604.08   21.84   2
   3  -2   1   697.4   44.74   2
   3  -2   1  630.99   41.26   2
  -3  -2  -1  623.02   38.84   2
  -3  -2  -2  177.95   14.21   2
   3  -2   2  151.91   13.19   2
   3  -2   2   149.5   13.01   2
  -3  -2  -2  139.74    10.7   2
  -3  -2  -2   173.8   28.44   2
   3  -2   2     164   24.52   2
   3  -2   2  153.77   20.76   2
   3  -2   2  139.35   19.43   2
  -3  -2  -2  138.69   17.65   2
   3  -2   2  166.86   14.08   2
  -3  -2  -3  680.87   30.02   2
   3  -2   3  707.34   30.35   2
   3  -2   3  704.18   31.01   2
  -3  -2  -3  791.74    62.1   2
  -3  -2  -3  650.62   25.38   2
   3  -2   3  755.51   45.73   2
   3  -2   3  698.39   47.14   2
  -3  -2  -4  338.76   21.99   2
   3  -2   4  316.99      16   2
   3  -2   4  353.02   23.33   2
  -3  -2  -4  333.98   19.31   2
  -3  -2  -4   337.3   39.75   2
   3  -2   4  347.85   30.59   2
   3  -2   4  326.57   32.45   2
  -3  -2  -5  502.95   28.98   2
   3  -2   5  520.09   27.49   2
   3  -2   5  526.42   31.11   2
  -3  -2  -5  514.15   26.82   2
  -3  -2  -5  534.11   49.92   2
   3  -2   5  537.08   42.83   2
   3  -2   6   22.68    6.88   2
  -3  -2  -6   20.94    8.05   2
  -3  -2  -6   21.69    6.49   2
   3  -2   6      22    6.52   2
   3  -2   6   23.42    9.17   2
  -3  -2  -7  372.24   28.92   2
   3  -2   7  384.57   30.59   2
   3  -2   7  426.13   33.81   2
  -3  -2  -7  437.95   45.04   2
   3  -2   7  464.56   38.74   2
   3  -2   8   72.14   14.29   2
  -3  -2  -8   66.42    17.5   2
   3  -2   8   77.14   15.88   2
  -3  -2  -8   61.19   12.73   2
   3  -2   8   75.79   14.11   2
  -3  -2  -9   199.5   24.85   2
   3  -2   9  195.73   27.23   2
  -3  -2  -9  208.05   31.26   2
   3  -2  10    5.08    5.08   2
  -3  -2 -10       4    8.35   2
   3  -2  10    2.44    3.64   2
  -3  -2 -10    5.49    5.98   2
  -3  -2 -10   10.59    6.89   2
  -3  -2 -11   76.74    16.9   2
  -3  -2 -11   69.45    16.9   2
   3  -2  11    42.4   10.66   2
   3  -2  11   70.73    17.8   2
   3  -2  12   14.63    6.38   2
  -3  -2 -12    9.36    7.24   2
  -3  -2 -12   11.27    5.39   2
   3  -2  12    4.15    1.87   2
  -3  -2 -13   -2.19    5.93   2
   3  -2  13    8.96    5.12   2
  -3  -2 -14    7.67     5.9   2
   3  -2  14   -6.01    8.59   2
  -3  -1  13   -6.73    3.87   2
  -3  -1  13    5.71    3.34   2
  -3  -1  12  612.62   57.25   2
  -3  -1  12  653.63   56.34   2
  -3  -1  11   37.02   14.36   2
  -3  -1  11   44.25   13.31   2
   3  -1 -11   57.74   15.17   2
  -3  -1  10  734.42   56.46   2
  -3  -1  10  708.34    52.6   2
  -3  -1  10 1084.87   46.67   2
   3  -1 -10 1014.69   44.32   2
   3  -1 -10  967.48   69.01   2
  -3  -1   9   96.74   18.47   2
  -3  -1   9   93.67   17.33   2
   3  -1  -9  125.64   23.58   2
  -3  -1   9  139.49   17.72   2
   3  -1  -9  123.13   16.26   2
   3  -1  -9   91.37   11.79   2
  -3  -1   8   993.8   52.75   2
  -3  -1   8 1357.55   59.46   2
   3  -1  -8 1255.21   58.11   2
  -3  -1   8  892.64   52.79   2
   3  -1  -8  947.97   41.27   2
   3  -1  -8 1195.23   74.46   2
  -3  -1   8 1007.84    56.7   2
  -3  -1   7  244.31   23.31   2
  -3  -1   7  309.47   29.44   2
   3  -1  -7  340.19   31.66   2
   3  -1  -7  265.43   22.82   2
  -3  -1   7   336.2    33.1   2
   3  -1  -7  252.57   21.21   2
   3  -1  -7  332.02   38.44   2
  -3  -1   7  273.03   26.13   2
  -3  -1   6 1015.76   44.73   2
  -3  -1   6 1089.16   57.34   2
   3  -1  -6 1257.94    64.1   2
   3  -1  -6 1021.35   46.43   2
  -3  -1   6 1164.05   64.41   2
   3  -1  -6 1011.92   44.58   2
   3  -1  -6 1198.71   71.32   2
  -3  -1   6 1053.47   47.28   2
   3  -1  -5  482.65    25.2   2
  -3  -1   5  499.31   30.84   2
  -3  -1   5  484.07   27.44   2
   3  -1  -5  474.12   16.07   2
  -3  -1   5  460.58   36.89   2
   3  -1  -5  496.04   15.98   2
   3  -1  -5  521.54   32.12   2
   3  -1  -5  549.98   42.95   2
  -3  -1   5  498.06   41.94   2
   3  -1  -5  508.42   30.96   2
   3  -1  -5  508.44    44.2   2
  -3  -1   5  482.19   28.36   2
   3  -1  -4  757.33   29.92   2
  -3  -1   4  771.53   34.99   2
  -3  -1   4   757.7   32.91   2
   3  -1  -4  598.78   28.39   2
  -3  -1   4  787.77   48.64   2
   3  -1  -4  797.65   40.06   2
   3  -1  -4  732.86   50.39   2
  -3  -1   4  738.66   51.16   2
   3  -1  -4  790.03   39.86   2
   3  -1  -4  709.11   49.78   2
  -3  -1   4  740.93   32.79   2
   3  -1  -4  801.09    23.2   2
   3  -1  -3  727.74   27.97   2
   3  -1  -3  715.75   30.74   2
  -3  -1   3  695.43   29.97   2
   3  -1  -3   573.3   36.76   2
  -3  -1   3  702.34    33.8   2
  -3  -1   3  754.69   46.79   2
   3  -1  -3  697.99   37.89   2
   3  -1  -3  718.25   49.13   2
  -3  -1   3   711.2   48.76   2
   3  -1  -3  740.01   39.83   2
   3  -1  -3  686.78   44.23   2
  -3  -1   3  667.87   29.03   2
   3  -1  -3  737.96    30.8   2
   3  -1  -2  812.58   28.96   2
   3  -1  -2  812.05   31.68   2
  -3  -1   2  806.07   30.76   2
   3  -1  -2  844.54    52.4   2
  -3  -1   2  776.97   44.27   2
  -3  -1   2  760.92   47.08   2
   3  -1  -2  795.44   29.65   2
   3  -1  -2  768.43   40.72   2
   3  -1  -2  834.16   51.29   2
  -3  -1   2  794.45   50.58   2
   3  -1  -2  813.75   43.07   2
   3  -1  -2  848.78   43.21   2
   3  -1  -2  804.57   31.05   2
  -3  -1   1 1093.84   34.53   2
   3  -1  -1 1167.25   36.86   2
  -3  -1   1 1109.07   35.97   2
   3  -1  -1 1128.96   33.88   2
   3  -1  -1 1097.47   66.83   2
  -3  -1   1 1068.22   61.84   2
   3  -1  -1 1138.28    35.4   2
  -3  -1   1 1173.74   58.05   2
   3  -1  -1 1086.77   50.37   2
   3  -1  -1 1114.61   58.22   2
  -3  -1   1 1179.36   58.46   2
   3  -1  -1  1231.6   55.44   2
   3  -1  -1 1168.39   36.79   2
   3  -1  -1 1143.63   42.46   2
   3  -1   0  340.24   17.96   2
  -3  -1   0  317.93   17.75   2
   3  -1   0  360.67   19.51   2
   3  -1   0  344.07   38.98   2
  -3  -1   0  288.36   34.71   2
   3  -1   0  318.95   17.89   2
  -3  -1   0  354.27    30.6   2
   3  -1   0  339.73   28.63   2
   3  -1   0  374.09   32.01   2
   3  -1   0  360.58   30.77   2
   3  -1   0  351.49    16.7   2
   3  -1   1 1258.64   37.84   2
   3  -1   1 1168.13    24.6   2
   3  -1   1 1255.71   37.94   2
   3  -1   1 1293.16   79.92   2
  -3  -1  -1  1160.5   75.75   2
   3  -1   1 1266.15   38.76   2
  -3  -1  -1 1281.43   59.48   2
  -3  -1  -1 1206.69   33.73   2
   3  -1   1 1300.52   59.43   2
   3  -1   1 1254.08   58.12   2
  -3  -1  -1 1247.88      38   2
   3  -1   1 1316.83   64.07   2
   3  -1   2     411   21.65   2
  -3  -1  -2  374.24   20.32   2
   3  -1   2  388.91   20.72   2
   3  -1   2  405.91   44.95   2
   3  -1   2  387.05   21.16   2
  -3  -1  -2  445.75   47.23   2
  -3  -1  -2  390.78   18.83   2
   3  -1   2   432.6   35.87   2
   3  -1   2  395.83   31.67   2
   3  -1   2  321.25   11.87   2
  -3  -1  -3 1604.21   47.25   2
   3  -1   3 1667.67      48   2
   3  -1   3 1826.89   95.85   2
  -3  -1  -3 1804.15   97.44   2
  -3  -1  -3 1600.57   43.16   2
   3  -1   3 1635.73   65.18   2
   3  -1   3 1654.62   74.04   2
  -3  -1  -4   43.03    8.35   2
   3  -1   4   51.36     8.8   2
  -3  -1  -4   55.07   16.47   2
   3  -1   4   41.27    7.42   2
  -3  -1  -4    36.9    6.73   2
   3  -1   4   52.05   13.31   2
   3  -1   4   42.15    9.67   2
  -3  -1  -5 1406.88   50.87   2
   3  -1   5 1481.97   53.75   2
  -3  -1  -5 1419.28   48.07   2
  -3  -1  -5 1723.36    93.5   2
   3  -1   5 1577.82      64   2
   3  -1   5 1457.17   73.14   2
   3  -1   5 1717.45   62.46   2
  -3  -1  -6  195.42   19.57   2
   3  -1   6  186.26   20.27   2
  -3  -1  -6  230.43   33.17   2
   3  -1   6  236.19   23.68   2
   3  -1   6  233.72   28.09   2
   3  -1   6  284.35   26.32   2
  -3  -1  -7 1712.82   66.15   2
   3  -1   7 1762.56   71.78   2
  -3  -1  -7 2078.83  102.55   2
   3  -1   7 2240.01   89.17   2
   3  -1   7 2100.08    88.1   2
   3  -1   7 2131.94   79.89   2
  -3  -1  -8   -0.43    2.53   2
  -3  -1  -8    6.49    4.58   2
   3  -1   8    4.24    5.19   2
  -3  -1  -8    2.66    6.88   2
   3  -1   8   -9.95    7.12   2
   3  -1   8    8.59    2.96   2
   3  -1   8    1.24    6.83   2
  -3  -1  -9 1121.13   61.86   2
   3  -1   9 1170.59   69.32   2
  -3  -1  -9 1168.72   56.17   2
   3  -1   9 1246.82   75.28   2
  -3  -1 -10   50.99   14.56   2
  -3  -1 -10   51.92   12.22   2
   3  -1  10   65.69   17.72   2
   3  -1  10   31.26   10.43   2
  -3  -1 -11 1061.31   68.82   2
   3  -1  11 1132.95   78.86   2
   3  -1  11 1250.42   76.56   2
  -3  -1 -11 1014.47   61.16   2
  -3  -1 -12    6.21    7.64   2
   3  -1  12    4.77     2.4   2
   3  -1  12    6.81    1.34   2
   3  -1  13  649.95   55.74   2
  -3  -1 -13  684.09   55.07   2
  -3  -1 -14   14.81    6.81   2
   3  -1  14   15.33    9.57   2
  -3   0  13  253.92    36.9   2
  -3   0  13  268.57   37.85   2
   3   0 -13  335.87   43.49   2
  -3   0  12   31.73   12.84   2
  -3   0  12   36.22   14.15   2
   3   0 -12   38.21   14.72   2
  -3   0  11   336.1   39.59   2
  -3   0  11  340.35   38.98   2
   3   0 -11   445.1   48.29   2
  -3   0  10    8.21    6.84   2
  -3   0  10   -0.21    4.34   2
   3   0 -10    0.64    4.04   2
  -3   0  10    4.23    5.07   2
   3   0 -10     6.3    4.34   2
  -3   0   9  678.53   48.97   2
  -3   0   9   939.5   49.03   2
   3   0  -9  953.43   50.14   2
   3   0  -9  665.79   35.27   2
   3   0  -9  811.91   63.47   2
  -3   0   9  635.45   47.64   2
  -3   0   8  379.02   33.26   2
  -3   0   8  457.14   35.04   2
   3   0  -8   347.7   25.22   2
   3   0  -8  405.86   42.69   2
  -3   0   8  363.93   32.49   2
  -3   0   7  675.65   40.66   2
  -3   0   7  798.65   47.61   2
   3   0  -7  676.82   35.14   2
   3   0  -7  682.45   36.52   2
   3   0  -7  725.75   55.13   2
  -3   0   7  695.38   41.01   2
  -3   0   6    60.6   11.11   2
  -3   0   6   53.98   10.16   2
   3   0  -6   52.08   14.08   2
  -3   0   6   59.05   13.06   2
   3   0  -6   54.07    9.77   2
   3   0  -6   65.94   11.87   2
   3   0  -6   71.39   16.09   2
  -3   0   5 1476.26   56.87   2
  -3   0   5 1483.63   51.44   2
  -3   0   5 1377.36   64.36   2
   3   0  -5 1508.62   54.41   2
   3   0  -5 1603.98   75.69   2
   3   0  -5 1541.35   57.73   2
   3   0  -5 1429.56   67.93   2
  -3   0   5 1472.26   50.96   2
   3   0  -4  665.95   28.86   2
  -3   0   4  642.25   30.34   2
  -3   0   4  669.71   32.73   2
   3   0  -4  683.99   31.02   2
   3   0  -4  514.79   19.51   2
   3   0  -4  696.66   22.27   2
  -3   0   4  643.11      43   2
   3   0  -4  658.69   35.47   2
   3   0  -4  636.07   46.91   2
   3   0  -4   682.1   37.68   2
  -3   0   4  647.38   30.28   2
   3   0  -4  660.76   40.49   2
   3   0  -3 1549.06   43.56   2
   3   0  -3 1559.95   45.85   2
  -3   0   3 1508.25   44.56   2
  -3   0   3 1479.29   45.33   2
   3   0  -3 1491.26   45.35   2
  -3   0   3 1464.26   64.42   2
   3   0  -3 1485.02   55.86   2
   3   0  -3 1493.72      44   2
   3   0  -3 1526.68   71.67   2
   3   0  -3 1491.95   58.52   2
  -3   0   3 1471.49   44.75   2
   3   0  -3 1432.06   53.68   2
   3   0  -2  240.97   17.94   2
   3   0  -2   245.3   15.58   2
  -3   0   2  228.15   14.96   2
  -3   0   2  251.17   16.54   2
   3   0  -2  263.79   22.34   2
   3   0  -2  235.73   16.06   2
   3   0  -2  238.07   15.13   2
  -3   0   2   227.4   23.94   2
   3   0  -2  224.66   21.31   2
   3   0  -2   261.7   27.82   2
   3   0  -2  255.17   24.39   2
   3   0  -2  253.25   21.25   2
   3   0  -2     245   16.41   2
   3   0  -1  1773.8   44.74   2
  -3   0   1 1708.69   43.63   2
   3   0  -1 1762.85   46.49   2
  -3   0   1 1734.28   46.34   2
   3   0  -1 1876.09   75.15   2
   3   0  -1 1724.79   44.05   2
   3   0  -1  1714.5   45.02   2
  -3   0   1 1697.84   67.55   2
   3   0  -1 1702.64   64.19   2
   3   0  -1 1675.17   70.59   2
   3   0  -1 1765.37   68.83   2
   3   0  -1 1859.35   73.85   2
   3   0  -1 1816.53   47.19   2
   3   0   0  968.47   32.08   2
  -3   0   0  989.41   31.77   2
   3   0   0  1053.1   28.48   2
   3   0   0  999.06   33.54   2
   3   0   0 1160.82   67.14   2
  -3   0   0 1004.56   55.89   2
   3   0   0   981.4   31.43   2
  -3   0   0   965.8    49.3   2
  -3   0   0  944.06    30.5   2
   3   0   0  984.72   50.12   2
   3   0   0 1003.03   51.39   2
   3   0   0 1067.03    54.6   2
   3   0   1 1404.47   40.37   2
  -3   0  -1 1398.05   40.01   2
   3   0   1 1393.36   41.65   2
   3   0   1 1371.76   80.12   2
   3   0   1 1407.28   39.06   2
  -3   0  -1 1416.76   76.19   2
  -3   0  -1 1441.06   38.74   2
  -3   0  -1 1397.95   59.49   2
   3   0   1 1414.82   63.55   2
   3   0   1 1367.76   58.74   2
   3   0   1 1587.13   70.73   2
   3   0   2  206.88   14.96   2
  -3   0  -2  184.07   14.05   2
   3   0   2  193.79   15.12   2
   3   0   2  189.11   13.68   2
   3   0   2   227.1   33.28   2
  -3   0  -2  186.16   13.54   2
  -3   0  -2  211.34   31.78   2
  -3   0  -2  187.01   20.96   2
   3   0   2  220.22   25.61   2
   3   0   2  202.01   21.58   2
   3   0   2   234.9   28.28   2
   3   0   2  196.48    9.92   2
   3   0   3 1823.79   51.93   2
  -3   0  -3  1779.7   50.54   2
   3   0   3 1776.41   49.55   2
  -3   0  -3 1867.87   98.31   2
  -3   0  -3 1778.28   48.72   2
  -3   0  -3 1817.87   69.33   2
   3   0   3 1776.63   77.79   2
   3   0   3 1831.53   67.21   2
   3   0   3 1808.88   83.03   2
   3   0   3 1860.02   42.46   2
  -3   0  -4  485.89   26.63   2
   3   0   4  517.13   27.61   2
  -3   0  -4   506.9   25.83   2
  -3   0  -4  590.45   54.91   2
   3   0   4  528.91   42.69   2
   3   0   4  487.96   33.06   2
   3   0   4  467.96   41.32   2
   3   0   4  561.21   25.76   2
  -3   0  -5  669.96   34.52   2
   3   0   5  733.43    36.4   2
  -3   0  -5   894.5   68.25   2
   3   0   5  668.01   49.04   2
   3   0   5  743.49   41.58   2
   3   0   5  812.26   55.28   2
   3   0   5  835.03   62.63   2
   3   0   5  671.68    34.6   2
  -3   0  -6   93.49   14.07   2
   3   0   6   106.6   16.13   2
   3   0   6   95.11   14.93   2
   3   0   6  122.84   23.93   2
   3   0   6  120.23   20.23   2
   3   0   6    99.2    15.2   2
   3   0   6  113.03   19.61   2
  -3   0  -7  559.85   36.82   2
   3   0   7  649.45   42.84   2
   3   0   7  491.63   34.15   2
  -3   0  -7  607.33   31.88   2
   3   0   7  750.21    49.9   2
   3   0   7  740.64   57.52   2
   3   0   7  673.95   44.37   2
  -3   0  -8  133.88   19.63   2
   3   0   8  165.78   23.41   2
   3   0   8  182.28   28.48   2
  -3   0  -8  144.85   17.18   2
   3   0   8  171.11    22.4   2
  -3   0  -9  144.45      22   2
   3   0   9  149.67   24.26   2
  -3   0  -9  139.38   18.56   2
   3   0   9  161.68    25.7   2
  -3   0 -10   12.48    7.18   2
  -3   0 -10   27.43    9.14   2
   3   0  10   11.91    6.87   2
   3   0  10    9.15    4.34   2
   3   0  11    52.5   15.56   2
  -3   0 -11    55.3   13.52   2
   3   0  11   48.73   15.64   2
  -3   0 -11   40.76    12.8   2
  -3   0 -12   21.29    9.72   2
   3   0  12   15.23    7.37   2
  -3   0 -12   -6.56    9.23   2
   3   0  12   29.52   11.54   2
  -3   0 -13   15.68    6.46   2
   3   0  13    9.17    5.17   2
   3   0  13   10.89    5.91   2
   3   0  14    8.19     7.5   2
  -3   1  13    1.51    6.95   2
  -3   1  13     5.7    8.33   2
   3   1 -13    7.83    7.22   2
  -3   1  12  680.64   59.83   2
  -3   1  12  701.19   60.21   2
  -3   1  11   16.93    7.84   2
   3   1 -11   38.66   13.94   2
  -3   1  11   16.73    6.54   2
  -3   1  10  744.29   56.66   2
  -3   1  10 1067.02   52.34   2
   3   1 -10  998.36    51.9   2
   3   1 -10  889.28   69.06   2
  -3   1  10  754.95   55.45   2
  -3   1   9   99.46   18.57   2
  -3   1   9  103.82   19.49   2
   3   1  -9   85.16   19.78   2
  -3   1   9  124.72   18.28   2
   3   1  -9   77.09   12.37   2
   3   1  -9  120.87   18.34   2
  -3   1   8 1143.91   60.05   2
  -3   1   8 1271.07   61.04   2
   3   1  -8 1020.68   41.11   2
   3   1  -8  1062.5   48.17   2
   3   1  -8 1133.34   71.36   2
  -3   1   8    1118   56.66   2
  -3   1   7  193.78    22.2   2
  -3   1   7  237.56   26.28   2
   3   1  -7  208.22   18.03   2
   3   1  -7   215.5   21.13   2
   3   1  -7  235.27    29.7   2
  -3   1   7  242.77   23.38   2
  -3   1   6 1062.49   48.02   2
  -3   1   6  987.75   54.75   2
   3   1  -6 1003.99   42.09   2
   3   1  -6  941.76   45.21   2
   3   1  -6 1011.77   57.37   2
  -3   1   6  992.75   44.15   2
  -3   1   5  414.14   26.98   2
   3   1  -5  304.59    9.36   2
   3   1  -5  299.19    9.21   2
  -3   1   5  380.36   33.55   2
   3   1  -5  449.54   28.03   2
   3   1  -5  415.81    29.5   2
  -3   1   5  409.76   30.75   2
  -3   1   5  411.52   25.42   2
   3   1  -5  416.37   32.33   2
   3   1  -4   894.1   43.09   2
   3   1  -4  875.95   34.72   2
  -3   1   4  847.98   39.19   2
   3   1  -4  878.87   34.95   2
  -3   1   4     890   36.65   2
  -3   1   4  835.68    48.8   2
   3   1  -4  911.07    41.8   2
   3   1  -4  922.54   45.46   2
   3   1  -4   922.9   24.42   2
  -3   1   4  836.69   34.69   2
   3   1  -3  612.08   28.18   2
   3   1  -3  611.47   31.74   2
   3   1  -3  610.58   27.19   2
  -3   1   3  583.89   27.37   2
   3   1  -3  597.19      27   2
  -3   1   3  594.64   27.79   2
   3   1  -3  607.66   24.35   2
  -3   1   3  632.43   41.54   2
   3   1  -3  604.95   34.73   2
   3   1  -3  655.65   39.24   2
   3   1  -2  850.15   31.19   2
   3   1  -2  871.34   34.07   2
  -3   1   2  837.52   28.88   2
  -3   1   2  804.69    27.4   2
   3   1  -2  810.85   30.69   2
  -3   1   2  813.03   31.38   2
   3   1  -2  865.62   34.88   2
   3   1  -2   841.1   34.22   2
   3   1  -2  812.98    28.4   2
  -3   1   2  782.48   45.46   2
   3   1  -2  830.36   42.55   2
   3   1  -2  855.82   46.21   2
   3   1  -2   824.5    31.2   2
   3   1  -1 1056.75   34.36   2
  -3   1   1 1047.68   31.99   2
   3   1  -1 1094.46   34.26   2
   3   1  -1 1056.15   34.55   2
  -3   1   1 1009.97   34.24   2
   3   1  -1 1087.27   46.52   2
   3   1  -1 1071.82   32.21   2
  -3   1   1 1078.15   52.11   2
   3   1  -1 1053.48   50.03   2
   3   1  -1 1053.01   45.49   2
   3   1  -1 1002.81   52.48   2
   3   1  -1 1079.16   53.91   2
   3   1  -1 1030.06   34.13   2
   3   1   0   370.9    19.3   2
  -3   1   0  358.25   18.11   2
   3   1   0   366.4   19.83   2
   3   1   0  441.55   33.82   2
   3   1   0  366.04   17.76   2
  -3   1   0  356.99   18.65   2
  -3   1   0  349.92   28.31   2
   3   1   0  386.66   31.32   2
   3   1   0  422.75    32.7   2
   3   1   0  382.22   30.24   2
   3   1   0  436.87   35.48   2
   3   1   0  377.27   19.37   2
   3   1   1 1186.01   36.86   2
  -3   1  -1 1144.27   34.97   2
   3   1   1 1153.73    37.7   2
   3   1   1 1363.81   69.35   2
   3   1   1 1182.92   34.18   2
  -3   1  -1  1173.5      36   2
  -3   1  -1 1184.86   53.08   2
   3   1   1 1184.73    58.5   2
   3   1   1 1268.53   65.89   2
   3   1   1 1133.55   52.31   2
  -3   1  -1 1202.93   58.59   2
   3   1   1 1269.73   64.26   2
   3   1   2  374.24    20.7   2
  -3   1  -2     400   20.74   2
   3   1   2  364.32   18.72   2
   3   1   2  435.21   42.92   2
  -3   1  -2  366.17   19.75   2
  -3   1  -2  379.48    28.9   2
   3   1   2  413.91   35.41   2
   3   1   2  369.78   38.48   2
   3   1   2   386.4   16.09   2
   3   1   2  381.85   29.29   2
  -3   1  -2  386.52   34.07   2
   3   1   2  438.59   38.45   2
   3   1   3  1437.6   44.83   2
  -3   1  -3 1441.14   44.57   2
   3   1   3 1427.16   42.88   2
   3   1   3 1499.17   84.79   2
  -3   1  -3 1431.99   43.79   2
  -3   1  -3 1489.72   59.32   2
   3   1   3 1356.81   69.55   2
   3   1   3 1394.78   56.55   2
   3   1   3 1377.62   80.62   2
  -3   1  -3 1423.68   68.28   2
   3   1   3 1475.02   74.56   2
   3   1   3  1389.3   36.48   2
  -3   1  -4   25.03    6.37   2
   3   1   4   20.46     4.6   2
   3   1   4   23.53    5.44   2
  -3   1  -4   19.58    5.41   2
   3   1   4   25.17   10.33   2
   3   1   4   17.31    6.26   2
   3   1   4   21.65    9.53   2
  -3   1  -4   26.66   10.37   2
   3   1   4    23.1   13.08   2
  -3   1  -5 1415.01   52.19   2
   3   1   5 1536.75   55.27   2
   3   1   5 1339.97   71.96   2
   3   1   5 1516.63   59.27   2
   3   1   5  1740.4   92.29   2
  -3   1  -5 1597.07   74.87   2
   3   1   5 1620.69   78.39   2
   3   1   5  1619.3   51.94   2
  -3   1  -6  155.37   17.67   2
   3   1   6  191.07   21.54   2
   3   1   6  198.23    20.2   2
   3   1   6  196.38   30.09   2
  -3   1  -6  182.99   14.73   2
  -3   1  -6  217.32    26.3   2
   3   1   6  213.92   26.47   2
   3   1   6  202.12   20.16   2
  -3   1  -7 1649.63   66.41   2
   3   1   7 1779.65    74.7   2
   3   1   7 1427.55   57.99   2
   3   1   7 2029.58   98.08   2
  -3   1  -7 1703.69    55.2   2
  -3   1  -7 2018.84   82.56   2
   3   1   7 1971.75    80.7   2
   3   1   7 1741.89   70.78   2
  -3   1  -8   -0.51    3.18   2
  -3   1  -8    6.59    3.85   2
   3   1   8   -3.54    4.62   2
   3   1   8       3     3.3   2
   3   1   8    2.53    2.99   2
   3   1   8   -0.48    3.49   2
  -3   1  -9 1079.38    62.9   2
   3   1   9 1098.79   70.11   2
  -3   1  -9 1044.82   52.83   2
  -3   1 -10   33.29    11.3   2
  -3   1 -10   23.78    7.73   2
   3   1  10   32.07   11.47   2
   3   1  10   54.47   15.57   2
  -3   1 -11 1044.02   71.23   2
   3   1  11 1105.44   80.06   2
   3   1  11 1231.16   75.66   2
  -3   1 -11 1069.75   61.52   2
  -3   1 -12    8.38    8.39   2
  -3   1 -12    6.23    4.44   2
   3   1  12   -6.87   10.43   2
   3   1  12   22.41    8.44   2
   3   1  13  723.96   67.84   2
   3   1  13  759.16   59.93   2
  -3   1 -13  659.83   52.06   2
   3   1  14   -0.29    3.97   2
  -3   2  13  158.56   29.07   2
  -3   2  13  217.02   34.47   2
  -3   2  12  114.11   23.59   2
  -3   2  12  129.78   26.27   2
   3   2 -12     152   29.76   2
  -3   2  11  216.91   32.95   2
  -3   2  11  343.94   30.31   2
   3   2 -11   312.7   42.18   2
  -3   2  11  233.67   31.14   2
  -3   2  10   90.55   18.84   2
  -3   2  10    67.4   15.55   2
   3   2 -10   80.17   20.18   2
  -3   2  10  101.15   17.28   2
  -3   2   9  584.02   47.51   2
  -3   2   9  746.73   47.33   2
   3   2  -9  662.96   56.68   2
  -3   2   9  638.71    45.2   2
  -3   2   8  445.29   38.31   2
  -3   2   8  576.52   42.07   2
   3   2  -8  435.15   24.71   2
   3   2  -8   500.1   45.07   2
  -3   2   8  494.14   36.23   2
  -3   2   7  499.28   36.82   2
  -3   2   7  517.33    40.2   2
   3   2  -7  480.11   27.07   2
   3   2  -7  474.86   33.51   2
  -3   2   7  472.84   32.39   2
   3   2  -7  493.63   40.99   2
  -3   2   6  290.67   25.13   2
  -3   2   6  311.91   31.49   2
   3   2  -6   302.3    22.3   2
   3   2  -6  288.96   25.89   2
  -3   2   6  292.91   22.99   2
   3   2  -6  291.25   28.58   2
  -3   2   5  949.46   42.25   2
   3   2  -5  812.19   21.06   2
   3   2  -5  969.46   22.55   2
  -3   2   5   898.5   49.64   2
  -3   2   5  944.44   54.28   2
   3   2  -5  977.23   42.53   2
   3   2  -5  954.95   47.97   2
   3   2  -5  985.24   48.15   2
  -3   2   5  970.77    39.9   2
  -3   2   4 1012.49   46.69   2
   3   2  -4 1080.78   38.46   2
  -3   2   4 1031.24   40.57   2
   3   2  -4  1131.9    47.5   2
   3   2  -4 1071.25   46.12   2
  -3   2   4 1014.27   55.86   2
   3   2  -4 1074.64    28.4   2
   3   2  -4 1074.37   50.95   2
  -3   2   4 1042.63   38.93   2
   3   2  -3  500.55   26.09   2
  -3   2   3  488.76   27.16   2
   3   2  -3  458.11   24.15   2
   3   2  -3  503.01   28.26   2
   3   2  -3  490.12   24.13   2
  -3   2   3  436.39   24.15   2
   3   2  -3  496.94   21.95   2
   3   2  -3  531.74   33.21   2
  -3   2   3  476.43   36.52   2
   3   2  -3  511.98   35.37   2
   3   2  -3  482.18   21.48   2
   3   2  -2  311.64   19.01   2
  -3   2   2  279.02   15.79   2
  -3   2   2  284.31   16.62   2
   3   2  -2   313.1   19.68   2
   3   2  -2  311.69   19.39   2
   3   2  -2  299.39   17.91   2
  -3   2   2  305.62   18.69   2
   3   2  -2  306.33   19.33   2
   3   2  -2  289.74   15.95   2
   3   2  -2  302.24   25.42   2
  -3   2   2  306.29    28.5   2
  -3   2   2  290.91   24.98   2
   3   2  -2  317.68   28.83   2
   3   2  -2  303.33    18.5   2
   3   2  -1  990.52      34   2
  -3   2   1  955.59   29.61   2
  -3   2   1  948.25   24.15   2
   3   2  -1   962.6   32.97   2
  -3   2   1  953.98   33.21   2
   3   2  -1  979.21   40.51   2
   3   2  -1  961.59   40.59   2
   3   2  -1  943.31   32.47   2
   3   2  -1  972.76   29.43   2
   3   2  -1  943.64   48.35   2
  -3   2   1 1006.78   51.18   2
  -3   2   1  963.31   48.63   2
   3   2  -1  937.82   52.21   2
   3   2  -1  976.46   32.62   2
   3   2   0   742.8   28.61   2
  -3   2   0  725.05   25.63   2
   3   2   0  755.62   29.28   2
  -3   2   0  722.29   27.84   2
   3   2   0  821.45   41.79   2
   3   2   0  767.53   40.26   2
   3   2   0  745.55   24.97   2
   3   2   0  764.59   46.09   2
  -3   2   0  724.11    28.2   2
  -3   2   0  690.81   40.94   2
  -3   2   0  781.88   45.17   2
   3   2   0  833.69   50.07   2
   3   2   0  732.87   27.31   2
   3   2   1  682.85   27.48   2
  -3   2  -1  646.98   25.04   2
   3   2   1  666.94   28.07   2
   3   2   1  735.88   45.13   2
   3   2   1  680.27   24.07   2
   3   2   1  714.59   44.16   2
  -3   2  -1  664.31   27.38   2
   3   2   1  661.37   44.73   2
  -3   2  -1   675.6   39.49   2
  -3   2  -1  724.66   45.65   2
   3   2   1  714.99   48.35   2
   3   2   2   93.88   10.28   2
  -3   2  -2  105.37   10.64   2
   3   2   2  104.02    9.52   2
   3   2   2   87.23   17.23   2
  -3   2  -2   94.02    10.4   2
   3   2   2  138.36   20.64   2
  -3   2  -2   99.99   14.66   2
   3   2   2   92.31   17.78   2
   3   2   2   84.82   17.41   2
  -3   2  -2  112.08    18.7   2
   3   2   2  102.99   14.84   2
  -3   2  -3  614.74   28.31   2
   3   2   3  641.69    27.5   2
  -3   2  -3  613.02   28.76   2
   3   2   3  650.95   51.49   2
   3   2   3  605.29   46.69   2
  -3   2  -3  641.13   37.85   2
  -3   2  -3  638.15   46.13   2
   3   2   3  630.35    37.2   2
   3   2   3  608.98   24.06   2
   3   2   3  632.57   48.57   2
  -3   2  -4  337.07   22.29   2
   3   2   4  363.06   23.17   2
   3   2   4     339   38.64   2
  -3   2  -4  376.36      29   2
  -3   2  -4  365.87    35.4   2
   3   2   4  392.46   28.69   2
   3   2   4  352.75   36.38   2
   3   2   4  363.48   20.18   2
   3   2   5  542.01   32.62   2
   3   2   5  562.33    51.8   2
  -3   2  -5  517.76   34.11   2
  -3   2  -5   519.1   30.44   2
   3   2   5  559.12   34.41   2
  -3   2  -5  479.51   19.65   2
   3   2   5  569.34   45.39   2
   3   2   5  543.34   28.29   2
  -3   2  -6   40.87    9.32   2
   3   2   6   38.79    8.41   2
  -3   2  -6   39.19    6.84   2
   3   2   6      44    9.45   2
  -3   2  -6   50.47   10.38   2
   3   2   6   47.73    9.36   2
   3   2   6   41.68   11.48   2
   3   2   6    34.4   10.91   2
  -3   2  -7  327.78   29.06   2
   3   2   7  383.31   34.65   2
   3   2   7  402.32   43.29   2
   3   2   7   277.5   23.73   2
  -3   2  -7   325.3   23.14   2
   3   2   7  388.96   34.45   2
  -3   2  -8   60.97   13.81   2
  -3   2  -8   69.15   11.56   2
   3   2   8   51.89   14.52   2
   3   2   8   76.12    17.1   2
   3   2   8   46.26    9.36   2
   3   2   8    77.3   14.05   2
  -3   2  -9  177.04   25.46   2
   3   2   9   219.3   32.01   2
   3   2   9  176.07   18.14   2
   3   2   9  160.82   26.03   2
  -3   2  -9  177.97    21.2   2
  -3   2 -10   13.81     7.4   2
  -3   2 -10      10    5.27   2
   3   2  10   24.55   11.51   2
   3   2  10   12.18    7.39   2
  -3   2 -11   48.46   14.73   2
  -3   2 -11   69.14    15.4   2
   3   2  11   71.53   17.51   2
   3   2  11   68.55   19.28   2
  -3   2 -12   28.06    14.9   2
   3   2  12   18.83    9.91   2
   3   2  12    -7.6   11.52   2
  -3   2 -12   12.04    4.56   2
   3   2  13    -5.2    6.66   2
   3   2  13   20.84   13.95   2
  -3   3  13    18.2    6.42   2
  -3   3  12   438.4    48.8   2
  -3   3  12  458.18   46.41   2
  -3   3  11    8.52    7.28   2
   3   3 -11   36.33   12.92   2
  -3   3  11   18.69    9.89   2
  -3   3  11   24.01    8.65   2
  -3   3  10  570.94   52.27   2
   3   3 -10  701.41   59.85   2
  -3   3  10   609.3   47.33   2
  -3   3   9  124.63   19.13   2
  -3   3   9  137.59   23.08   2
   3   3  -9  141.14   23.96   2
  -3   3   9  174.05   23.94   2
  -3   3   8  716.09   50.11   2
   3   3  -8  666.43   29.76   2
  -3   3   8  656.99    41.2   2
   3   3  -8  692.98   51.18   2
  -3   3   7   269.5   27.58   2
  -3   3   7  307.84   32.96   2
   3   3  -7  288.87   20.85   2
  -3   3   7  309.06   25.39   2
   3   3  -7  325.48   31.89   2
   3   3  -6  921.17    50.2   2
  -3   3   6  884.44   45.84   2
   3   3  -6  884.67   39.38   2
  -3   3   6  871.04    55.4   2
   3   3  -6  853.54   22.48   2
  -3   3   6  904.15    40.9   2
  -3   3   5  783.29   50.25   2
   3   3  -5  910.33   45.79   2
  -3   3   5  870.74   41.74   2
   3   3  -5  860.79   25.03   2
   3   3  -5  875.39   25.26   2
   3   3  -5  920.48   41.85   2
  -3   3   5  853.56   54.74   2
  -3   3   5  847.61   37.15   2
  -3   3   4  666.76   42.44   2
   3   3  -4  717.59   37.08   2
   3   3  -4  698.44   29.99   2
  -3   3   4  700.95   33.61   2
   3   3  -4  720.55   24.69   2
   3   3  -4  721.27   37.97   2
  -3   3   4  701.73   48.44   2
  -3   3   4  724.96   38.33   2
  -3   3   3  795.13   40.73   2
   3   3  -3  933.06   37.21   2
   3   3  -3  903.37   38.08   2
   3   3  -3  928.57   33.66   2
  -3   3   3  829.94   34.59   2
   3   3  -3   922.5   31.85   2
   3   3  -3  893.83    44.6   2
  -3   3   3  893.72   52.79   2
  -3   3   3  918.78   44.79   2
   3   3  -3  928.62   31.75   2
   3   3  -3  841.86   48.59   2
   3   3  -2  843.17   32.56   2
  -3   3   2  748.64   32.09   2
   3   3  -2  812.56   32.43   2
  -3   3   2     809   26.91   2
   3   3  -2  819.28   33.28   2
   3   3  -2  792.04   30.07   2
  -3   3   2  772.65   31.05   2
   3   3  -2  838.54    33.6   2
   3   3  -2  819.84   44.48   2
   3   3  -2  779.03   26.38   2
  -3   3   2  857.97   49.79   2
  -3   3   2  819.15   44.07   2
   3   3  -2  789.45   48.29   2
   3   3  -2  867.83   33.84   2
   3   3  -1 1714.92   54.77   2
  -3   3   1 1737.59   38.88   2
  -3   3   1 1729.56   41.13   2
   3   3  -1 1843.09   47.68   2
  -3   3   1  1767.5   47.42   2
   3   3  -1 1771.75   55.56   2
   3   3  -1 1782.39   40.78   2
   3   3  -1 1676.78   69.17   2
   3   3  -1 1817.87   49.54   2
  -3   3   1 1748.27   70.07   2
  -3   3   1 1787.41   69.52   2
   3   3  -1 1699.12   73.92   2
   3   3  -1 1799.23   47.01   2
   3   3   0  786.14   30.17   2
   3   3   0  766.58   38.58   2
   3   3   0  798.98   30.28   2
  -3   3   0  783.06   28.94   2
   3   3   0  838.77   40.57   2
   3   3   0  788.56   24.55   2
  -3   3   0  764.72   26.18   2
   3   3   0  803.52   49.19   2
  -3   3   0  785.83   30.25   2
  -3   3   0  796.98   44.98   2
  -3   3   0  790.59   47.46   2
   3   3   0  896.09   54.78   2
   3   3   0  775.35      28   2
   3   3   1 1351.47   41.35   2
  -3   3  -1 1299.82   36.86   2
   3   3   1 1396.68   42.93   2
   3   3   1 1433.64   59.42   2
   3   3   1 1441.62   60.32   2
   3   3   1 1326.12   34.01   2
  -3   3  -1  1357.1   41.91   2
   3   3   1 1330.83   67.49   2
  -3   3  -1 1373.91    58.8   2
  -3   3  -1 1432.58   67.41   2
   3   3   1 1501.04   73.95   2
   3   3   1  1323.1   37.44   2
   3   3   2  784.12   31.25   2
  -3   3  -2  771.32   29.53   2
   3   3   2   840.5   50.14   2
   3   3   2  773.61   26.98   2
   3   3   2  848.88   50.87   2
  -3   3  -2  767.42   42.62   2
  -3   3  -2  785.93   51.46   2
   3   3   2  816.31   56.48   2
  -3   3  -3 2316.27   59.34   2
   3   3   3 2441.24   58.53   2
   3   3   3 2437.44   96.47   2
  -3   3  -3 2332.67   75.84   2
   3   3   3 2302.87   55.56   2
   3   3   3 2202.16   96.84   2
  -3   3  -4  541.86   29.18   2
   3   3   4  639.71   31.84   2
   3   3   4  621.71   51.41   2
  -3   3  -4  572.98    35.6   2
  -3   3  -4  571.95   15.04   2
   3   3   4  637.23   37.61   2
   3   3   4  575.63   26.81   2
   3   3   4  622.97   49.58   2
  -3   3  -5 1216.05   48.98   2
   3   3   5 1380.16   54.77   2
   3   3   5 1253.34   77.98   2
  -3   3  -5 1307.08    55.1   2
   3   3   5 1320.99   54.43   2
  -3   3  -5 1286.83   34.24   2
   3   3   5 1289.71   45.66   2
   3   3   5 1433.45   74.41   2
  -3   3  -6  333.22   27.29   2
   3   3   6  353.74   30.86   2
   3   3   6  404.63   44.38   2
  -3   3  -6  306.89   25.79   2
   3   3   6  349.82   26.91   2
  -3   3  -6  306.43   19.74   2
   3   3   6  407.11   37.93   2
  -3   3  -7 1431.72   63.71   2
   3   3   7 1254.25   65.86   2
   3   3   7  1815.7   96.73   2
  -3   3  -7 1254.87   54.67   2
   3   3   7 1256.81   52.21   2
  -3   3  -7 1551.18   53.92   2
   3   3   7 1722.26   74.37   2
  -3   3  -8  197.78   24.91   2
   3   3   8  176.19   26.54   2
   3   3   8  291.06   38.24   2
   3   3   8  183.79   18.69   2
  -3   3  -8  221.51   22.19   2
   3   3   8  287.13   28.16   2
   3   3   9 1256.38   79.65   2
   3   3   9 1097.51   45.74   2
  -3   3  -9 1183.82   57.06   2
  -3   3 -10    82.6   17.69   2
  -3   3 -10  106.59   18.26   2
   3   3  10  124.32   24.95   2
   3   3  10   82.53   19.39   2
   3   3  11 1150.35    78.5   2
   3   3  11 1185.91   76.28   2
  -3   3 -11 1076.11   60.97   2
  -3   3 -12   73.53   20.09   2
   3   3  12   97.77   20.79   2
   3   3  12   93.85   21.64   2
   3   3  13  584.79    53.7   2
   3   3  13  695.69   63.25   2
  -3   4  13  176.26   29.14   2
  -3   4  12   47.19   14.44   2
  -3   4  12   33.28   12.96   2
   3   4 -12   38.55   14.26   2
  -3   4  11  194.01   31.92   2
   3   4 -11  272.06   38.04   2
  -3   4  11  248.65    31.2   2
  -3   4  10   24.57      10   2
   3   4 -10   25.22    7.42   2
  -3   4  10    43.2   12.18   2
  -3   4  10   37.56   11.41   2
  -3   4   9  539.06   47.36   2
  -3   4   9  592.65   41.34   2
   3   4  -9  600.06   50.03   2
  -3   4   8  299.52   31.99   2
  -3   4   8  324.13   35.36   2
  -3   4   8  219.99   23.34   2
   3   4  -8  295.59   32.26   2
   3   4  -7  872.68    51.9   2
  -3   4   7  831.63   49.95   2
   3   4  -7  847.97   37.07   2
  -3   4   7  919.41   60.95   2
  -3   4   7  817.54   41.89   2
   3   4  -6  132.02    9.93   2
  -3   4   6  164.66   19.99   2
   3   4  -6  149.07   15.82   2
   3   4  -6  124.82   18.25   2
  -3   4   6  141.51   23.68   2
  -3   4   6  112.04   13.89   2
   3   4  -5 1069.33   49.31   2
   3   4  -5 1037.81   50.67   2
  -3   4   5 1056.24   46.89   2
   3   4  -5 1076.78   32.43   2
   3   4  -5 1036.99   46.01   2
  -3   4   5 1047.95   64.28   2
  -3   4   5 1102.72   48.07   2
  -3   4   5 1238.49   68.49   2
   3   4  -4   697.6   36.22   2
   3   4  -4  745.95   31.15   2
  -3   4   4  723.15    35.1   2
   3   4  -4   739.2   28.06   2
   3   4  -4  739.41   27.82   2
   3   4  -4  744.18    40.3   2
  -3   4   4  798.46   54.29   2
  -3   4   4  715.18   39.71   2
  -3   4   4  799.66   52.03   2
   3   4  -3 1447.78   49.35   2
   3   4  -3 1432.79   49.22   2
   3   4  -3  1506.4   44.04   2
   3   4  -3 1486.21   44.66   2
  -3   4   3 1392.58   46.39   2
   3   4  -3 1428.55    59.9   2
  -3   4   3 1488.03   72.78   2
   3   4  -3 1460.24   43.71   2
  -3   4   3 1429.83   58.94   2
  -3   4   3 1348.94   63.05   2
   3   4  -2  236.31   17.27   2
   3   4  -2  224.15   15.42   2
  -3   4   2  213.96   15.96   2
   3   4  -2  211.94   16.79   2
   3   4  -2  230.62   17.77   2
   3   4  -2  221.28   24.17   2
   3   4  -2  217.44   12.89   2
  -3   4   2  236.01   27.62   2
  -3   4   2  225.61   23.78   2
   3   4  -2  220.62   17.28   2
  -3   4   2   200.5   20.94   2
   3   4  -1 1575.94    44.4   2
  -3   4   1 1526.97   37.22   2
  -3   4   1 1513.84   43.73   2
   3   4  -1 1613.46   54.04   2
   3   4  -1 1558.27   36.16   2
   3   4  -1 1534.58   69.79   2
  -3   4   1  1528.4   68.64   2
  -3   4   1    1565   67.99   2
   3   4  -1 1582.14    44.4   2
   3   4  -1 1602.67   53.16   2
  -3   4   1 1516.41   48.15   2
   3   4   0  933.15   34.07   2
  -3   4   0  903.61   28.25   2
   3   4   0  973.46    34.4   2
  -3   4   0  916.58   31.84   2
   3   4   0  977.17   43.93   2
   3   4   0  916.39   25.49   2
  -3   4   0  948.14   50.72   2
   3   4   0  940.93   31.52   2
   3   4   0  970.73   43.48   2
   3   4   1 1113.69   37.84   2
  -3   4  -1 1080.59   32.71   2
   3   4   1 1135.16    52.1   2
   3   4   1 1160.84   52.48   2
   3   4   1  1122.8   29.29   2
  -3   4  -1  1109.9   53.72   2
   3   4   1 1050.58   32.63   2
  -3   4  -2  301.57   17.79   2
   3   4   2   281.5   28.09   2
   3   4   2  315.61   16.77   2
  -3   4  -2  302.65   26.54   2
   3   4   2  322.93   36.28   2
  -3   4  -3 1160.85   40.09   2
   3   4   3 1237.21   65.42   2
   3   4   3 1262.63   40.54   2
  -3   4  -3 1153.78   52.66   2
   3   4   3 1168.95   40.28   2
   3   4   3 1069.91    69.2   2
  -3   4  -4   524.4   28.78   2
   3   4   4  544.28   46.18   2
   3   4   4   565.6   30.74   2
  -3   4  -4  509.85   33.57   2
   3   4   4  504.57   26.55   2
  -3   4  -4  505.81   15.59   2
   3   4   4  548.09   48.04   2
  -3   4  -5  519.41   31.38   2
   3   4   5  595.58   52.13   2
   3   4   5  561.07    35.4   2
  -3   4  -5  591.68   36.17   2
  -3   4  -5  541.04   23.68   2
   3   4   6  145.13   24.79   2
   3   4   6   86.28   15.31   2
  -3   4  -6   92.45   14.57   2
  -3   4  -6   89.34   14.16   2
   3   4   6    98.2   14.99   2
  -3   4  -6   97.06   11.69   2
   3   4   6  146.02   21.85   2
  -3   4  -7  318.32    29.8   2
   3   4   7   291.6    32.1   2
   3   4   7  399.11   45.58   2
  -3   4  -7  302.09   25.54   2
   3   4   7  333.68   26.16   2
  -3   4  -7  401.91   28.21   2
   3   4   7   431.9   37.16   2
  -3   4  -8  183.85   24.45   2
   3   4   8  267.18   37.31   2
   3   4   8  173.71   26.64   2
  -3   4  -8  223.37   21.56   2
   3   4   8  252.52   21.71   2
  -3   4  -8  257.19   24.85   2
   3   4   9  100.02   22.88   2
  -3   4  -9  117.79   18.06   2
   3   4   9   73.54    17.4   2
   3   4   9   88.09   12.05   2
  -3   4  -9   71.78   17.19   2
   3   4  10   49.82   16.03   2
  -3   4 -10   19.04    7.59   2
  -3   4 -10   43.48   10.94   2
   3   4  10   24.26   10.31   2
   3   4  11   59.45   18.31   2
   3   4  11   63.25   18.75   2
  -3   4 -11   21.78    9.47   2
   3   4  12   16.32     7.3   2
   3   4  12   12.73    1.79   2
   3   4  13   10.25    8.99   2
  -3   5  13   82.96   19.07   2
  -3   5  12  341.39   45.21   2
   3   5 -12  460.61   51.25   2
  -3   5  12  404.08   41.57   2
  -3   5  11   47.34   15.85   2
   3   5 -11   34.78   11.97   2
  -3   5  11   62.71   15.42   2
  -3   5  11   70.78   17.17   2
  -3   5  10  430.47    46.4   2
  -3   5  10  583.55   48.93   2
  -3   5  10  474.98   39.51   2
   3   5 -10  504.18   47.46   2
  -3   5   9  164.93   26.84   2
  -3   5   9  177.57   26.91   2
  -3   5   9  120.42   18.23   2
   3   5  -9   185.4   27.01   2
   3   5  -8  677.65   47.88   2
  -3   5   8  657.93    49.2   2
  -3   5   7   63.82   11.56   2
  -3   5   7  108.19   18.08   2
   3   5  -7  117.21   18.25   2
   3   5  -7  110.27   13.31   2
  -3   5   7   125.5   24.38   2
   3   5  -6  640.08   40.04   2
  -3   5   6  641.72   39.95   2
   3   5  -6   655.1    26.2   2
   3   5  -6  615.43   34.36   2
  -3   5   6  628.52   52.99   2
  -3   5   6  613.68   35.46   2
  -3   5   6  590.48   32.42   2
   3   5  -5  413.42   29.89   2
   3   5  -5  407.71   23.93   2
  -3   5   5  407.37   29.05   2
   3   5  -5  385.81   33.73   2
   3   5  -5  419.16   21.54   2
   3   5  -5   393.1   28.96   2
  -3   5   5   367.8   40.16   2
  -3   5   5  430.18   30.64   2
  -3   5   5  458.66   42.15   2
   3   5  -4  785.36   38.76   2
   3   5  -4  840.36   33.14   2
   3   5  -4   811.5   43.89   2
  -3   5   4  810.46   37.75   2
   3   5  -4  834.78    32.9   2
   3   5  -4  858.96   33.35   2
   3   5  -4  854.63   45.46   2
  -3   5   4  809.81    58.6   2
  -3   5   4  854.02   45.04   2
  -3   5   4  936.46   58.26   2
   3   5  -3  454.69   28.25   2
   3   5  -3  477.85   23.81   2
   3   5  -3  459.91   27.25   2
  -3   5   3  474.01   26.11   2
   3   5  -3  497.03   26.35   2
   3   5  -3  478.84   36.01   2
   3   5  -3  501.29   26.17   2
  -3   5   3  497.19   44.14   2
   3   5  -3  518.51   29.84   2
  -3   5   3   493.6    39.2   2
   3   5  -2  959.64   37.87   2
  -3   5   2  921.35   35.25   2
   3   5  -2   972.6      34   2
   3   5  -2 1029.75   41.12   2
   3   5  -2  961.41   27.29   2
  -3   5   2  996.44   60.34   2
   3   5  -2  964.56   39.55   2
  -3   5   2  883.35    48.5   2
   3   5  -1  988.09   35.13   2
  -3   5   1  919.24   26.87   2
   3   5  -1  954.07   33.83   2
  -3   5   1  896.99   32.84   2
   3   5  -1  972.45   42.36   2
   3   5  -1  961.45   25.11   2
  -3   5   1  907.51   54.92   2
   3   5  -1  948.76   41.77   2
  -3   5   1  965.49   44.42   2
  -3   5   0  587.98   21.81   2
   3   5   0  636.42    27.7   2
  -3   5   0  605.83   25.43   2
   3   5   0  601.48   18.45   2
  -3   5   0  608.78   42.61   2
   3   5   0  656.48   36.39   2
  -3   5   0  612.74   29.26   2
   3   5   0   643.4   25.94   2
  -3   5  -1   796.5   16.27   2
   3   5   1  878.81   24.46   2
  -3   5  -1  849.76   48.67   2
  -3   5  -1  806.63   27.42   2
   3   5   1  841.49   45.09   2
   3   5   1  847.68   28.68   2
  -3   5  -2  607.34    25.7   2
   3   5   2  665.56   24.48   2
  -3   5  -2  595.95   38.99   2
   3   5   2  563.06   22.53   2
   3   5   2  593.14   40.52   2
  -3   5  -3 1273.52   42.77   2
   3   5   3 1288.31   65.76   2
   3   5   3 1280.52   42.45   2
  -3   5  -3 1372.47   58.67   2
  -3   5  -4  392.42   24.98   2
   3   5   4  440.83   40.25   2
   3   5   4  439.58   28.23   2
  -3   5  -4  428.11   31.67   2
  -3   5  -4  491.86   22.68   2
  -3   5  -5  993.27   45.14   2
   3   5   5 1099.34   69.98   2
   3   5   5 1016.08   50.76   2
  -3   5  -5 1051.38   49.73   2
  -3   5  -5 1217.18   43.81   2
  -3   5  -6  201.84    21.6   2
   3   5   6  219.46   33.23   2
   3   5   6  132.56   20.17   2
  -3   5  -6  175.23   19.66   2
  -3   5  -6  251.37   21.66   2
  -3   5  -7 1038.92   55.91   2
   3   5   7 1177.25   79.62   2
   3   5   7 1265.11   68.19   2
  -3   5  -7 1195.78   52.12   2
   3   5   7 1248.48    52.9   2
  -3   5  -8   180.9    24.9   2
   3   5   8  237.26   36.16   2
   3   5   8  239.57   30.46   2
  -3   5  -8  209.46   20.62   2
   3   5   8  213.73   20.54   2
  -3   5  -8  295.61   27.58   2
   3   5   9  823.74   68.17   2
   3   5   9  888.33   61.24   2
  -3   5  -9   921.3   52.06   2
  -3   5 -10   80.09   19.64   2
   3   5  10   96.42   20.51   2
   3   5  10   135.1    26.3   2
   3   5  11  838.05   68.09   2
  -3   5 -11  641.88   59.45   2
   3   5  12  140.37   26.98   2
  -3   6  13  120.36   24.04   2
  -3   6  12  144.57   24.82   2
  -3   6  11  192.86   33.68   2
   3   6 -11  186.53    30.4   2
  -3   6  11  235.72   31.95   2
  -3   6  11  170.82   24.67   2
  -3   6  10  113.91   18.79   2
  -3   6  10  102.42   22.66   2
   3   6 -10  128.47   23.28   2
   3   6  -9  385.97   37.56   2
  -3   6   9  420.54   42.91   2
  -3   6   9  292.52   27.78   2
   3   6  -8   450.4   38.54   2
  -3   6   8  460.05   41.48   2
  -3   6   8  555.31   51.81   2
  -3   6   7  392.08   35.05   2
  -3   6   7  456.61   47.23   2
   3   6  -7  381.78   33.07   2
   3   6  -7  384.22    21.6   2
   3   6  -6   348.9   29.45   2
  -3   6   6  357.76   30.53   2
   3   6  -6  366.44   27.32   2
   3   6  -6  366.54   21.53   2
  -3   6   6  401.07   44.36   2
   3   6  -5  678.54   38.94   2
   3   6  -5  739.02   32.38   2
  -3   6   5  744.92   40.16   2
   3   6  -5  803.66   55.95   2
   3   6  -5  773.14   43.33   2
  -3   6   5  752.26   60.67   2
   3   6  -4  606.42   34.73   2
   3   6  -4  655.16   28.75   2
  -3   6   4  612.45   32.93   2
   3   6  -4  645.72   46.34   2
   3   6  -4  641.84   31.05   2
   3   6  -4  549.74   28.68   2
  -3   6   4  639.37    55.2   2
  -3   6   4  684.39   48.02   2
   3   6  -3  532.45   32.94   2
   3   6  -3  523.56   24.83   2
  -3   6   3  485.08   26.93   2
   3   6  -3  508.26   36.63   2
   3   6  -3   482.3   29.26   2
   3   6  -3  527.97   29.18   2
   3   6  -3  530.99   29.11   2
  -3   6   3  513.13   48.04   2
  -3   6   3  522.58   38.35   2
   3   6  -2  562.27   30.23   2
   3   6  -2  557.56   32.63   2
   3   6  -2  548.44   25.03   2
  -3   6   2  499.81   25.72   2
   3   6  -2     534    18.5   2
   3   6  -2  528.56   30.64   2
  -3   6   2  575.04   47.86   2
  -3   6   2  557.02   35.09   2
   3   6  -1  682.22   30.01   2
  -3   6   1  651.97   21.15   2
   3   6  -1  668.66   28.54   2
   3   6  -1  689.11   28.66   2
  -3   6   1  621.57   27.29   2
   3   6  -1  675.14   18.72   2
  -3   6   1  706.91   51.49   2
   3   6  -1  704.36   37.07   2
  -3   6   1   701.6   33.97   2
   3   6   0  556.99   24.63   2
  -3   6   0  514.54   19.67   2
   3   6   0  582.36    26.9   2
   3   6   0  552.76   15.72   2
  -3   6   0  513.27    41.1   2
  -3   6   0  527.49   23.71   2
   3   6   0  542.58    34.4   2
  -3   6   0  548.21   25.12   2
  -3   6  -1  377.63   18.02   2
   3   6   1  401.64   14.89   2
  -3   6  -1  416.05   35.56   2
   3   6   1  411.38   31.44   2
  -3   6  -1   380.1   16.97   2
   3   6   1  402.77    19.7   2
  -3   6  -2     279   17.08   2
  -3   6  -2  272.31   11.65   2
   3   6   2  286.35   16.54   2
  -3   6  -2  288.14   27.77   2
  -3   6  -2  265.39   11.71   2
   3   6   2     311   29.52   2
   3   6   2  284.26   15.44   2
  -3   6  -3  379.39   22.41   2
   3   6   3   383.4   24.94   2
  -3   6  -3  374.02   30.76   2
   3   6   3  384.41    35.5   2
   3   6   3  370.44    17.7   2
  -3   6  -3  373.48   16.91   2
  -3   6  -4  248.89    20.1   2
   3   6   4   351.1    28.1   2
  -3   6  -4   304.2   27.03   2
   3   6   4  328.03   35.14   2
  -3   6  -4  345.96   21.19   2
  -3   6  -5  261.61   22.87   2
   3   6   5  322.59   29.55   2
  -3   6  -5  306.84   23.58   2
   3   6   5  259.32   33.26   2
  -3   6  -6   99.87   15.17   2
   3   6   6  161.18   22.02   2
  -3   6  -6   81.29   13.57   2
   3   6   6  135.97   26.55   2
  -3   6  -6  152.67   18.23   2
  -3   6  -7  131.28    19.4   2
   3   6   7  194.65   26.09   2
  -3   6  -7  129.64   16.58   2
   3   6   7     148    27.7   2
  -3   6  -7  204.01   22.42   2
  -3   6  -8   82.22    16.5   2
  -3   6  -8  111.21   15.29   2
   3   6   8  132.85   22.03   2
   3   6   8  119.22   15.58   2
   3   6   8  134.25   27.55   2
  -3   6  -8  164.76   21.17   2
  -3   6  -9   85.98   18.61   2
   3   6   9   90.18   22.55   2
   3   6  10   40.36   15.81   2
  -3   6 -10   27.41   11.12   2
  -3   6 -11   31.16   14.86   2
   3   6  11   26.71   10.18   2
   3   6  12   12.03    5.57   2
  -3   7  12  224.57   29.44   2
  -3   7  11   73.34    19.9   2
  -3   7  11  101.95   18.47   2
   3   7 -11   82.55   19.05   2
  -3   7  11   122.5   23.18   2
  -3   7  10  197.67   32.22   2
  -3   7  10  255.63   34.85   2
  -3   7  10  221.68   25.42   2
   3   7 -10  210.81   29.36   2
   3   7  -9  283.14   32.37   2
  -3   7   9   296.3   37.07   2
  -3   7   9  338.85   41.89   2
  -3   7   9  287.48    27.1   2
   3   7  -8  296.53   31.13   2
  -3   7   8   326.1   35.37   2
  -3   7   8  353.68   42.52   2
   3   7  -7  235.01   26.43   2
  -3   7   7  261.38   28.58   2
  -3   7   7  272.29    39.6   2
   3   7  -7  257.89   19.43   2
   3   7  -6  309.53   21.87   2
  -3   7   6   286.8   27.16   2
   3   7  -6  313.42   28.35   2
  -3   7   6  299.55   39.85   2
   3   7  -5  708.34   40.46   2
   3   7  -5  684.76   31.17   2
  -3   7   5  743.86   40.13   2
  -3   7   5  635.48   59.18   2
   3   7  -4  470.54   24.05   2
   3   7  -4  503.09   32.53   2
   3   7  -4  377.85   25.78   2
  -3   7   4  505.01   51.81   2
  -3   7   4  481.77   29.25   2
   3   7  -3     677   40.84   2
   3   7  -3  710.69    29.1   2
  -3   7   3  629.05   31.57   2
   3   7  -3  665.92   36.03   2
   3   7  -3   744.2   47.29   2
   3   7  -3  662.09   35.08   2
  -3   7   3  694.27      59   2
  -3   7   3   690.8   42.02   2
   3   7  -2  524.41   24.52   2
  -3   7   2  514.14   26.34   2
   3   7  -2  571.94   34.11   2
   3   7  -2  530.32   32.59   2
   3   7  -2  561.66   17.41   2
  -3   7   2  568.56   50.48   2
  -3   7   2  517.32   32.28   2
   3   7  -2  533.12   32.63   2
   3   7  -1 1262.01   45.97   2
  -3   7   1 1344.16   30.74   2
   3   7  -1 1335.93   41.67   2
  -3   7   1 1365.94   41.96   2
   3   7  -1 1358.75   36.08   2
   3   7  -1 1304.66   23.71   2
   3   7  -1 1341.96   55.35   2
  -3   7   1 1458.48   78.38   2
  -3   7   1 1320.83   47.32   2
   3   7   0  803.87   31.88   2
  -3   7   0  790.75   23.96   2
   3   7   0  871.43    33.9   2
  -3   7   0  784.55   29.71   2
  -3   7   0  850.54   56.08   2
   3   7   0  866.17   45.29   2
  -3   7   0  800.51   31.66   2
   3   7   1  959.23   31.42   2
  -3   7  -1  931.53      29   2
  -3   7  -1  957.23   57.24   2
   3   7   1  937.86   50.02   2
  -3   7  -1  917.95   29.85   2
  -3   7  -2  694.99   27.58   2
  -3   7  -2  671.12   21.84   2
  -3   7  -2  662.61   45.22   2
   3   7   2  730.87   46.37   2
  -3   7  -2  678.59   22.96   2
   3   7   2  671.28   24.22   2
  -3   7  -3 1292.47   34.63   2
  -3   7  -3 1224.79   59.31   2
   3   7   3 1365.68   68.76   2
   3   7   3 1249.45   33.74   2
  -3   7  -4  569.49   31.33   2
  -3   7  -4  607.43   40.62   2
   3   7   4  783.13   55.88   2
   3   7   4  746.88   25.22   2
  -3   7  -4  779.49   30.42   2
  -3   7  -5  540.85   33.56   2
  -3   7  -5  577.31   38.33   2
   3   7   5  841.13   61.62   2
  -3   7  -5   852.7   38.35   2
  -3   7  -6  520.88   35.39   2
   3   7   6  596.43    55.3   2
  -3   7  -6  603.73   36.61   2
  -3   7  -7  689.76   46.31   2
  -3   7  -7  784.07   42.95   2
   3   7   7   805.6   67.77   2
  -3   7  -8  390.37   37.56   2
  -3   7  -8  466.53   31.75   2
   3   7   8  468.14   32.56   2
   3   7   8  460.19   52.04   2
   3   7   9  602.34   61.35   2
  -3   7  -9  433.49   43.63   2
  -3   7 -10  197.75   31.69   2
   3   7  10  337.34   46.04   2
   3   7  11  521.63   56.71   2
  -3   7 -11  350.46   45.01   2
  -3   8  12   96.85    21.4   2
  -3   8  11  117.36   19.49   2
  -3   8  11  178.52   30.04   2
  -3   8  10   56.43   16.82   2
   3   8 -10   51.56   13.57   2
  -3   8  10   76.61   21.13   2
   3   8  -9  350.26   35.97   2
  -3   8   9  332.16   39.56   2
  -3   8   9  393.84   46.14   2
   3   8  -8  188.92   25.14   2
  -3   8   8   196.7   27.09   2
  -3   8   8  223.88   35.42   2
   3   8  -7  462.97   37.34   2
  -3   8   7   448.2   38.25   2
  -3   8   7  563.47   58.07   2
   3   8  -7  477.67    29.2   2
   3   8  -6  175.62   17.85   2
   3   8  -6  185.17   22.23   2
  -3   8   6  177.26   21.41   2
  -3   8   6  169.25    32.7   2
   3   8  -5  672.03   41.02   2
   3   8  -5  713.79   36.79   2
  -3   8   5  723.71    39.9   2
  -3   8   5   675.1   64.82   2
   3   8  -4  437.05   22.86   2
   3   8  -4   463.8    32.3   2
  -3   8   4  429.45   27.98   2
   3   8  -4  328.35   25.46   2
  -3   8   4   391.7   47.94   2
   3   8  -3   775.8   30.33   2
  -3   8   3  764.43      35   2
   3   8  -3  739.46   40.06   2
   3   8  -3  629.08    37.1   2
  -3   8   3  798.38   67.75   2
  -3   8   3  732.49   42.73   2
   3   8  -2  314.89   18.54   2
  -3   8   2  292.62   19.83   2
   3   8  -2  292.32   11.42   2
   3   8  -2  246.82   23.37   2
   3   8  -2  306.42    9.68   2
  -3   8   2   320.1   40.36   2
  -3   8   2  303.64   24.56   2
   3   8  -1  806.26    41.2   2
   3   8  -1  778.65   31.07   2
  -3   8   1   769.2   30.97   2
   3   8  -1  776.49   43.74   2
  -3   8   1  817.11   61.68   2
  -3   8   1  752.73   35.37   2
  -3   8   0  628.69   19.84   2
   3   8   0  695.43   33.14   2
  -3   8   0  604.92   25.76   2
   3   8   0  643.54    41.1   2
  -3   8   0  609.55   50.19   2
  -3   8   0  596.21   28.58   2
  -3   8  -1  711.64   24.18   2
   3   8   1  753.07   29.62   2
   3   8   1  706.47   45.14   2
  -3   8  -1  715.01   51.45   2
  -3   8  -1  694.45   28.18   2
  -3   8  -2  330.28   18.44   2
   3   8   2     343   16.76   2
  -3   8  -2  344.91   16.71   2
  -3   8  -2  354.03    34.1   2
   3   8   2  365.13   33.53   2
  -3   8  -2  321.53   17.49   2
  -3   8  -3  345.72   21.48   2
  -3   8  -3  483.11    21.5   2
  -3   8  -3  348.04   33.04   2
   3   8   3  484.69   41.62   2
  -3   8  -4  503.51   29.17   2
  -3   8  -4  543.54   25.46   2
   3   8   4  536.96   45.74   2
  -3   8  -5  183.88   19.46   2
  -3   8  -5  150.45   20.12   2
   3   8   5  224.86   32.02   2
  -3   8  -5     224   18.65   2
  -3   8  -6  223.24   23.71   2
  -3   8  -6  199.64   22.54   2
   3   8   6  243.43   35.79   2
  -3   8  -6  235.38   22.18   2
  -3   8  -7   119.7      19   2
  -3   8  -7  152.41   19.04   2
   3   8   7  183.81   33.21   2
  -3   8  -8  102.37   19.25   2
   3   8   8  168.27   32.55   2
  -3   8  -9   43.34   11.81   2
   3   8   9   56.22   19.39   2
  -3   8 -10   58.68   18.07   2
   3   8  10   69.82   23.39   2
  -3   8 -11   28.42    13.7   2
  -3   9  11  174.24   31.74   2
  -3   9  10  144.05   28.58   2
  -3   9  10  165.24   29.87   2
   3   9  -9  208.26   28.18   2
  -3   9   9  244.25   34.02   2
  -3   9   9  289.12   41.43   2
   3   9  -8  285.93   31.61   2
  -3   9   8  249.87    31.1   2
  -3   9   8  242.18   38.84   2
   3   9  -7  160.49   22.51   2
  -3   9   7  153.17   22.24   2
  -3   9   7  209.98   36.16   2
   3   9  -7  186.31   19.37   2
   3   9  -6  280.19   24.17   2
   3   9  -6  280.31   28.21   2
  -3   9   6  283.11   27.79   2
  -3   9   6  235.88   40.08   2
   3   9  -5  338.51   26.84   2
   3   9  -5  302.94    28.7   2
  -3   9   5  318.05   26.62   2
  -3   9   5  342.24   48.65   2
  -3   9   4  362.65   25.82   2
   3   9  -4  388.17   31.08   2
   3   9  -4  266.05   24.42   2
  -3   9   4  375.51   50.13   2
  -3   9   3  148.37   15.17   2
   3   9  -3  167.73   19.52   2
   3   9  -3  100.93   15.59   2
  -3   9   3  146.15   31.06   2
  -3   9   2  307.37   20.37   2
   3   9  -2  238.23   24.46   2
  -3   9   1  351.48   20.53   2
   3   9  -1  343.66    30.2   2
  -3   9   1  326.99   41.03   2
  -3   9   1  334.95   24.51   2
  -3   9   0  437.84   14.65   2
   3   9   0  485.19   37.76   2
  -3   9   0  466.56   46.71   2
  -3   9   0  441.05   26.11   2
  -3   9  -1  308.32   14.69   2
   3   9   1  318.58    31.3   2
  -3   9  -1  327.39   36.94   2
  -3   9  -2  366.83   18.88   2
  -3   9  -2  376.36   19.45   2
   3   9   2  368.24   35.63   2
  -3   9  -2  357.06   35.71   2
  -3   9  -3  449.34   24.31   2
  -3   9  -3   430.8   21.97   2
   3   9   3  451.48   41.16   2
  -3   9  -4  400.61   26.01   2
  -3   9  -4  402.49   22.82   2
   3   9   4  401.65   41.46   2
  -3   9  -5  329.21   26.04   2
   3   9   5  348.69   40.43   2
  -3   9  -6  275.82   26.46   2
  -3   9  -6  335.22   30.16   2
   3   9   6  371.45    44.5   2
  -3   9  -7  353.62   33.51   2
  -3   9  -7  407.41   32.53   2
   3   9   7  456.37   52.41   2
  -3   9  -8  348.94   36.38   2
   3   9   8  338.89    45.7   2
  -3   9  -9  207.34      31   2
   3   9   9  216.73   38.68   2
  -3   9 -10  173.64   29.19   2
  -3  10   9  150.76   26.36   2
  -3  10   9  138.66   28.95   2
   3  10  -8  279.18   32.06   2
  -3  10   8  306.29   34.99   2
  -3  10   8  322.87   46.36   2
   3  10  -7  171.31   23.56   2
  -3  10   7  196.06   25.67   2
  -3  10   7   214.5   37.92   2
   3  10  -7  200.51    21.6   2
   3  10  -6  339.99   28.48   2
   3  10  -6  286.45   29.61   2
  -3  10   6  294.97   28.11   2
  -3  10   6  289.99   46.12   2
   3  10  -5  244.77   24.52   2
   3  10  -5  235.87   25.74   2
  -3  10   5  253.84   23.86   2
  -3  10   5  206.26   39.89   2
   3  10  -4  294.39   27.38   2
  -3  10   4  358.95   25.73   2
   3  10  -4  392.01   32.29   2
  -3  10   4  356.83    51.5   2
  -3  10   3  283.48   21.22   2
   3  10  -3  303.81   28.13   2
   3  10  -3  225.98   24.62   2
  -3  10   3  260.91    43.4   2
  -3  10   2  374.27   22.81   2
   3  10  -2  341.17   31.57   2
  -3  10   2  369.83   48.97   2
  -3  10   1  238.36    16.8   2
   3  10  -1  244.13   26.88   2
  -3  10   1  245.67   36.91   2
   3  10   0  409.01   36.52   2
  -3  10   0  406.58   44.42   2
   3  10   1  190.51   25.52   2
  -3  10  -1  164.37   26.95   2
  -3  10  -2  325.23   19.59   2
   3  10   2  339.85    35.2   2
  -3  10  -2  300.67   34.57   2
   3  10   3   185.2   27.16   2
  -3  10  -3  158.01   24.13   2
  -3  10  -4  238.22   19.56   2
   3  10   4  224.88   31.64   2
  -3  10  -4   181.4    24.7   2
  -3  10  -5  110.63   15.02   2
   3  10   5   143.2    27.4   2
  -3  10  -5  105.05   18.44   2
  -3  10  -6  117.46   17.31   2
   3  10   6  114.21   25.47   2
  -3  10  -6   137.5   19.97   2
  -3  10  -7   43.35   10.66   2
   3  10   7   63.18      20   2
  -3  10  -8  104.26   20.22   2
   3  10   8  113.35   28.41   2
  -3  10  -9   17.34     6.7   2
  -3  10 -10    8.99    8.29   2
  -3  11   9   243.8    33.8   2
  -3  11   8   86.14   18.21   2
   3  11  -7  242.55   29.67   2
  -3  11   7  255.34   29.15   2
  -3  11   7  264.93   45.08   2
   3  11  -7  245.95   25.33   2
  -3  11   6  107.93   16.94   2
   3  11  -6  102.25   17.74   2
  -3  11   6   70.26   23.81   2
   3  11  -6   96.61   15.36   2
   3  11  -5  333.55   30.34   2
   3  11  -5  335.89   32.61   2
  -3  11   5  333.83   27.49   2
  -3  11   5   271.1   49.26   2
   3  11  -4  157.33   20.71   2
  -3  11   4  146.13    16.6   2
   3  11  -4   179.8   23.11   2
  -3  11   4  179.37   37.82   2
  -3  11   3  217.77   18.76   2
   3  11  -3  250.86   27.41   2
   3  11  -3  267.51   28.03   2
  -3  11   3  259.01   44.01   2
  -3  11   2  221.72    17.5   2
   3  11  -2  239.69   27.56   2
  -3  11   2  195.84   36.76   2
   3  11  -1  459.52   39.72   2
  -3  11   1  477.74   54.57   2
   3  11   0  317.21    33.3   2
  -3  11   0  317.16   42.11   2
   3  11   1  200.93   28.32   2
  -3  11  -1  173.99   28.92   2
   3  11   2  340.56   36.94   2
  -3  11  -2  305.81   36.57   2
   3  11   3  393.01   41.38   2
  -3  11  -3  328.46   36.05   2
   3  11   4   474.7   48.01   2
  -3  11  -4  394.11   38.38   2
   3  11   5  203.21   33.54   2
  -3  11  -5  183.66   25.32   2
   3  11   6  505.65   55.47   2
  -3  11  -6  418.33   37.16   2
  -3  12   8  133.97   22.93   2
  -3  12   7  153.51   22.05   2
   3  12  -6  142.97   20.62   2
   3  12  -5  193.32   24.81   2
   3  12  -5  248.66   29.06   2
  -3  12   5  207.84   43.85   2
   3  12  -4  249.67   28.45   2
   3  12  -4  282.75   30.55   2
  -3  12   4   235.1   47.59   2
   3  12  -3  282.26   31.04   2
   3  12  -3  297.01   31.14   2
  -3  12   3   275.8   48.04   2
   3  12  -2  271.13   31.09   2
  -3  12   2  277.87   45.72   2
   3  12  -1  326.71   34.58   2
  -3  12   1  330.98   47.55   2
   3  12   0  321.95   35.97   2
  -3  12   0   331.3   45.14   2
   3  12   1  309.19   36.04   2
  -3  12  -1  273.91   38.71   2
   3  12   2  326.61   37.88   2
  -3  12  -2  353.36    41.3   2
   3  12   3  190.48   30.16   2
  -3  12  -3  193.82   29.42   2
   3  12   4  287.07   38.84   2
  -3  12  -4  262.49   32.93   2
  -3  12  -5  125.07   21.85   2
   3  13  -6   42.92   11.51   2
   3  13  -5  157.73   23.37   2
   3  13  -4  103.31   19.42   2
   3  13  -3   87.56   18.38   2
   3  13  -2   116.7   21.27   2
   3  13  -1   75.29   17.16   2
  -3  13   1   58.77   19.22   2
   3  13   0  190.63   28.33   2
  -3  13   0  128.87   28.09   2
   3  13   1   31.06   12.01   2
  -3  13  -1   35.01   14.22   2
  -3  13  -2  196.85   32.65   2
  -3  13  -3   55.65   17.36   2
  -3  13  -4  264.01   33.89   2
  -3  13  -5   26.53    8.97   2
   4 -13  -3   23.25    7.56   2
   4 -13  -2   72.36   14.51   2
   4 -13  -1   37.98    9.78   2
   4 -13   0  127.85   20.01   2
   4 -13   1   18.73    7.08   2
   4 -13   2  178.98   24.95   2
   4 -12  -6  308.83   31.39   2
  -4 -12   5  131.83   30.61   2
   4 -12  -5  158.98   23.06   2
   4 -12  -5  140.53   20.66   2
   4 -12  -4  376.97   36.93   2
  -4 -12   4  435.28   58.54   2
   4 -12  -4  324.54   30.94   2
   4 -12  -3  208.09   28.07   2
   4 -12  -3   211.9   24.65   2
  -4 -12   3  236.81   42.25   2
   4 -12  -2  531.26   47.08   2
  -4 -12   2  496.41   60.48   2
   4 -12  -2  490.81   37.31   2
   4 -12  -1  196.28   29.02   2
   4 -12  -1  191.66   23.02   2
  -4 -12   1  213.01    39.8   2
   4 -12   0  430.23   44.61   2
   4 -12   0  366.17   32.55   2
  -4 -12   0  415.09   52.67   2
  -4 -12   0  446.55   60.38   2
   4 -12   1  237.66   26.72   2
   4 -12   1  208.67    31.4   2
  -4 -12  -1  231.87   38.62   2
  -4 -12  -1  229.71    40.3   2
   4 -12   2  344.71   33.09   2
  -4 -12  -2  387.46   49.42   2
   4 -12   3  188.79   24.82   2
  -4 -12  -3     183    32.1   2
   4 -12   4  257.38   29.99   2
  -4 -12  -4  238.57   34.61   2
  -4 -12  -5   85.76   20.43   2
   4 -11  -7   46.52   12.16   2
   4 -11  -6   35.82   10.16   2
   4 -11  -5   91.73    15.8   2
  -4 -11   5   82.05   23.17   2
   4 -11  -5     100   16.75   2
   4 -11  -4   42.51   11.99   2
  -4 -11   4    41.2   17.11   2
   4 -11  -4   27.16    8.01   2
  -4 -11   4   32.15   16.05   2
   4 -11  -3   69.08   14.96   2
  -4 -11   3   72.91   23.25   2
   4 -11  -3   56.79   12.71   2
  -4 -11   3   40.58   18.18   2
   4 -11  -2   63.24    15.2   2
  -4 -11   2   67.21   19.53   2
   4 -11  -2   61.75   11.95   2
  -4 -11   2   48.23   17.27   2
   4 -11  -1  150.34   19.56   2
   4 -11  -1  144.79   22.93   2
  -4 -11   1   175.9   32.97   2
  -4 -11   1  144.72   34.38   2
   4 -11   0  147.27   19.52   2
   4 -11   0  148.57    24.9   2
  -4 -11   0  148.16   29.66   2
  -4 -11   0  157.39    33.4   2
   4 -11   1  149.98   20.01   2
  -4 -11  -1  149.73   30.39   2
  -4 -11  -1  145.96   30.65   2
   4 -11   2   214.4    24.2   2
  -4 -11  -2  212.14   34.29   2
  -4 -11  -2   195.5   33.74   2
   4 -11   3  158.54   21.94   2
  -4 -11  -3  138.21   28.36   2
  -4 -11  -3  148.04   27.24   2
   4 -11   4  298.07   31.22   2
  -4 -11  -4  309.94    43.3   2
  -4 -11  -4  281.79    35.7   2
  -4 -11  -5   109.2   16.13   2
   4 -11   5   96.74   18.42   2
  -4 -11  -5   94.47   20.05   2
  -4 -11  -6  228.71   30.28   2
   4 -10  -8  326.18    33.1   2
   4 -10  -7   159.5   22.26   2
  -4 -10   7  186.02    38.6   2
   4 -10  -6  416.64   32.83   2
  -4 -10   6  433.03   49.74   2
   4 -10  -6  473.75    37.3   2
  -4 -10   6  476.96   64.83   2
   4 -10  -5  222.16   24.65   2
  -4 -10   5  250.76   38.67   2
   4 -10  -5  272.34   27.19   2
  -4 -10   5  297.76   51.25   2
   4 -10  -4   585.3   41.46   2
  -4 -10   4  564.17   58.65   2
   4 -10  -4  577.99   38.86   2
  -4 -10   4  623.58   74.78   2
   4 -10  -3  236.27   26.78   2
  -4 -10   3  250.01    38.6   2
   4 -10  -3   211.1   22.71   2
  -4 -10   3  233.14   45.31   2
   4 -10  -2     556   43.13   2
  -4 -10   2  604.14   60.01   2
   4 -10  -2  514.07   35.49   2
  -4 -10   2  619.01    71.4   2
   4 -10  -1   264.1   30.78   2
  -4 -10   1  251.23   38.01   2
   4 -10  -1  231.93   23.05   2
  -4 -10   1  311.28   47.44   2
  -4 -10   0  574.04   57.27   2
   4 -10   0  550.16   36.23   2
  -4 -10   0  570.44   61.36   2
   4 -10   1  231.13    24.2   2
  -4 -10  -1  235.86   36.14   2
  -4 -10  -1  253.11   38.58   2
   4 -10   2  404.61   32.63   2
  -4 -10  -2  388.39    45.7   2
  -4 -10  -2   367.7   43.99   2
  -4 -10  -3  163.74   19.53   2
   4 -10   3   179.6   22.26   2
  -4 -10  -3  141.09   27.93   2
  -4 -10  -3  158.47   27.19   2
  -4 -10  -4  272.09   25.38   2
   4 -10   4  259.67   27.96   2
  -4 -10  -4  274.49   39.13   2
  -4 -10  -4  268.71   34.58   2
  -4 -10  -5  181.48   20.83   2
   4 -10   5  190.27   25.27   2
  -4 -10  -5   149.6   28.67   2
  -4 -10  -5  152.62   24.38   2
  -4 -10  -6  198.94   22.26   2
   4 -10   6  188.75   25.76   2
  -4 -10  -6  162.13    24.7   2
  -4 -10  -7   78.26   14.45   2
  -4  -9  10   118.7   23.86   2
  -4  -9   9  117.99   21.24   2
   4  -9  -9  103.54   18.68   2
  -4  -9   9  134.95   30.93   2
   4  -9  -8  207.72   25.53   2
  -4  -9   8  244.55    41.4   2
  -4  -9   8  190.25   24.72   2
  -4  -9   7   42.31    10.3   2
   4  -9  -7   53.39   12.53   2
  -4  -9   7   60.98    22.5   2
   4  -9  -6  151.02   18.43   2
  -4  -9   6  159.19   28.78   2
   4  -9  -6  153.62   20.71   2
  -4  -9   6  152.79   33.65   2
  -4  -9   6  145.43   17.92   2
   4  -9  -5  114.27   16.57   2
  -4  -9   5  105.48   23.22   2
   4  -9  -5  117.29   17.64   2
  -4  -9   5   95.22   27.51   2
  -4  -9   5   99.59   13.86   2
   4  -9  -4  234.11   24.45   2
  -4  -9   4  232.91   35.59   2
   4  -9  -4  246.72   24.77   2
  -4  -9   4  212.11   41.71   2
   4  -9  -3   57.88   12.76   2
  -4  -9   3   49.23   17.57   2
   4  -9  -3   53.73   10.93   2
  -4  -9   3   84.37   25.43   2
   4  -9  -2   159.2   21.79   2
   4  -9  -2  140.37   17.75   2
  -4  -9   2   157.8   29.31   2
  -4  -9   2  174.86   37.58   2
   4  -9  -1  158.65   18.33   2
  -4  -9   1  186.88   32.22   2
  -4  -9   1  178.89   34.12   2
   4  -9   0  175.74   19.31   2
  -4  -9   0  169.54   29.91   2
  -4  -9   0  209.97   35.32   2
  -4  -9  -1  143.57   26.78   2
   4  -9   1   89.48   13.86   2
  -4  -9  -1  110.67   23.62   2
  -4  -9  -2  146.09   17.76   2
   4  -9   2  153.56   19.04   2
  -4  -9  -2  153.77   27.17   2
  -4  -9  -2  143.34   26.55   2
  -4  -9  -3  197.39   20.79   2
   4  -9   3  209.87    23.2   2
  -4  -9  -3  245.74   35.99   2
  -4  -9  -3  200.25    29.1   2
  -4  -9  -4  273.38   24.53   2
   4  -9   4  260.04   26.56   2
  -4  -9  -4  270.69   37.58   2
  -4  -9  -4   217.9   29.34   2
  -4  -9  -5  194.07   20.78   2
   4  -9   5  207.89   25.34   2
  -4  -9  -5  247.73   36.23   2
  -4  -9  -5  212.01   27.54   2
  -4  -9  -6  196.03   22.04   2
   4  -9   6   233.9   28.09   2
  -4  -9  -6  223.51   35.05   2
  -4  -9  -6  193.76   25.37   2
  -4  -9  -7  254.62   26.24   2
   4  -9   7  274.63   32.75   2
  -4  -9  -7  227.26      36   2
  -4  -9  -7  228.39   26.62   2
  -4  -9  -8  182.97   22.56   2
  -4  -9  -9  197.09   24.23   2
  -4  -8  11  240.62    37.9   2
  -4  -8  10  131.97   25.37   2
   4  -8 -10  117.29   24.14   2
  -4  -8  10  149.03   29.86   2
   4  -8  -9  330.42      33   2
   4  -8  -9  319.89   36.47   2
  -4  -8   9  428.38   52.83   2
  -4  -8   9  331.89   36.57   2
   4  -8  -8  240.58   26.91   2
   4  -8  -8  260.01   29.79   2
  -4  -8   8  295.47   45.04   2
  -4  -8   8  225.03   27.16   2
   4  -8  -7  471.56   36.79   2
  -4  -8   7  480.09   36.67   2
   4  -8  -6  341.75   26.07   2
  -4  -8   6  318.39   37.21   2
   4  -8  -6  327.18   29.63   2
  -4  -8   6  374.67      53   2
  -4  -8   6  314.37   26.91   2
   4  -8  -5  720.61    39.5   2
  -4  -8   5  669.53   57.06   2
   4  -8  -5  777.61   44.11   2
  -4  -8   5  775.85   76.46   2
  -4  -8   5  690.97   37.12   2
   4  -8  -4  375.51   28.92   2
  -4  -8   4  406.21   44.74   2
   4  -8  -4  387.87    29.7   2
  -4  -8   4     387   54.57   2
   4  -8  -3  655.97   40.97   2
  -4  -8   3  795.62   63.87   2
   4  -8  -3  791.59   41.89   2
  -4  -8   3  799.08   75.69   2
  -4  -8   2  450.39   47.34   2
   4  -8  -2  457.76   31.24   2
  -4  -8   2  460.01   55.76   2
  -4  -8   1  958.03   70.16   2
   4  -8  -1  921.74   44.33   2
  -4  -8   1 1056.77   80.18   2
  -4  -8   0  400.26   44.26   2
   4  -8   0   370.2   27.44   2
  -4  -8   0  388.87   46.22   2
   4  -8   1  800.13   41.62   2
  -4  -8  -1  879.55   66.51   2
  -4  -8  -1  921.11   66.78   2
  -4  -8  -2  385.47   28.03   2
   4  -8   2  381.34    29.1   2
  -4  -8  -2  496.44    49.6   2
  -4  -8  -2  463.71   45.09   2
  -4  -8  -3  691.85   38.19   2
   4  -8   3  737.26   42.29   2
  -4  -8  -3  734.27   61.12   2
  -4  -8  -3  692.49   52.87   2
  -4  -8  -4  221.43   21.34   2
   4  -8   4   258.7   25.89   2
  -4  -8  -4  261.75   36.19   2
  -4  -8  -4  267.69   31.39   2
  -4  -8  -5  511.85   33.96   2
   4  -8   5  562.83   40.31   2
  -4  -8  -5  538.14   53.17   2
  -4  -8  -5  502.58   41.98   2
  -4  -8  -6  201.83   21.88   2
   4  -8   6   215.3   26.19   2
  -4  -8  -6   206.4   33.28   2
  -4  -8  -6  211.26    26.3   2
  -4  -8  -7  259.71   25.77   2
   4  -8   7  292.95    32.1   2
  -4  -8  -7  231.78   36.53   2
  -4  -8  -7  253.51   27.87   2
  -4  -8  -8      88   16.04   2
  -4  -8  -8   112.5    25.7   2
   4  -8   8    98.7   20.79   2
  -4  -8  -9  135.52   20.39   2
  -4  -8 -10   85.88   17.31   2
   4  -7 -11   35.87   13.48   2
  -4  -7  11   65.45   18.63   2
   4  -7 -10  207.07   31.31   2
  -4  -7  10   217.7   35.48   2
  -4  -7  10  195.48   30.94   2
  -4  -7   9  107.28   20.72   2
   4  -7  -9   97.19   19.78   2
  -4  -7   9  103.63   16.04   2
   4  -7  -9   68.19   14.15   2
  -4  -7   9  111.21    25.9   2
  -4  -7   8  161.42   19.13   2
   4  -7  -8  156.56      21   2
   4  -7  -8   166.5   24.18   2
  -4  -7   8  228.13   37.18   2
  -4  -7   8  163.39   23.13   2
  -4  -7   7   66.18   13.34   2
   4  -7  -7   54.06   12.33   2
  -4  -7   7   69.23   11.96   2
   4  -7  -7    71.6   13.62   2
  -4  -7   7   76.46   20.63   2
   4  -7  -6  162.71   16.64   2
  -4  -7   6  171.03   25.21   2
   4  -7  -6  155.41   19.82   2
   4  -7  -6  176.56   20.72   2
  -4  -7   6  148.45   31.48   2
  -4  -7   6  154.28    18.4   2
   4  -7  -5  216.33   19.64   2
  -4  -7   5  166.78   26.55   2
   4  -7  -5  207.81   22.04   2
  -4  -7   5  187.48   34.84   2
  -4  -7   5  200.09   19.78   2
   4  -7  -4   67.56   11.21   2
  -4  -7   4   75.64   18.88   2
   4  -7  -4   91.66   13.88   2
  -4  -7   4   93.61   25.84   2
  -4  -7   4   87.64   12.13   2
   4  -7  -3  195.45   19.65   2
  -4  -7   3  170.14   28.66   2
  -4  -7   3  157.33   31.31   2
  -4  -7   2  104.08   22.27   2
   4  -7  -2   89.36   12.99   2
  -4  -7   2  111.72   26.55   2
  -4  -7   1   379.1   42.44   2
   4  -7  -1  342.67   25.54   2
  -4  -7   1  433.97   48.67   2
  -4  -7   0  102.94   21.49   2
   4  -7   0   76.63   11.82   2
  -4  -7   0  103.75   22.43   2
  -4  -7  -1   274.4   22.32   2
  -4  -7  -1  279.24   36.93   2
   4  -7   1  266.54   22.72   2
  -4  -7  -1  289.54   35.64   2
  -4  -7  -2  142.84   16.27   2
   4  -7   2  149.76   17.83   2
  -4  -7  -2  129.12   25.05   2
  -4  -7  -2  130.64   22.09   2
  -4  -7  -3  562.56   33.32   2
   4  -7   3  595.02   36.66   2
  -4  -7  -3  604.27   55.61   2
  -4  -7  -3   559.8   45.72   2
  -4  -7  -4  187.44   19.52   2
   4  -7   4  176.61      21   2
  -4  -7  -4  194.56    30.9   2
  -4  -7  -4  198.18   25.89   2
  -4  -7  -5   374.6   28.79   2
   4  -7   5  407.03   33.21   2
  -4  -7  -5  422.72   46.56   2
  -4  -7  -5   398.1   35.93   2
  -4  -7  -6  189.47   20.83   2
   4  -7   6  220.16   25.46   2
  -4  -7  -6  214.56   33.61   2
  -4  -7  -6  193.05   24.13   2
  -4  -7  -7  513.93   36.11   2
   4  -7   7  533.48    42.6   2
  -4  -7  -7  558.86   56.22   2
  -4  -7  -8  254.98   26.29   2
   4  -7   8  307.65   34.33   2
  -4  -7  -8  263.49   39.72   2
  -4  -7  -9  287.14   29.38   2
   4  -7   9  290.29   34.77   2
  -4  -7  -9  357.01    47.8   2
  -4  -7 -10  169.48      24   2
  -4  -6  11  272.64   29.98   2
  -4  -6  11  413.36   45.74   2
   4  -6 -11  308.48   41.82   2
  -4  -6  11  300.75   40.52   2
  -4  -6  10  174.29   28.89   2
  -4  -6  10  144.98   20.65   2
   4  -6 -10  119.13    24.1   2
  -4  -6  10  184.48   31.05   2
  -4  -6   9  589.63   39.52   2
  -4  -6   9  697.53   61.84   2
   4  -6  -9  595.91   51.65   2
  -4  -6   9  578.15   48.21   2
  -4  -6   8  275.95   25.29   2
   4  -6  -8   268.9    32.1   2
  -4  -6   8   362.9   44.64   2
  -4  -6   8  323.29   32.77   2
  -4  -6   7  697.19   39.11   2
   4  -6  -7  658.91   41.68   2
   4  -6  -7  680.47   45.81   2
  -4  -6   7  773.98   67.39   2
  -4  -6   7  663.89   43.19   2
  -4  -6   6  186.04    19.4   2
   4  -6  -6  232.66   18.26   2
  -4  -6   6  279.05   30.06   2
   4  -6  -6  232.32   23.68   2
   4  -6  -6   249.1   24.52   2
  -4  -6   6  281.71   41.41   2
  -4  -6   6  237.42   23.65   2
   4  -6  -5  992.83   40.44   2
  -4  -6   5 1052.87   63.85   2
   4  -6  -5  936.36   46.61   2
   4  -6  -5  935.95   43.39   2
  -4  -6   5  926.94   76.31   2
  -4  -6   5  886.05    42.8   2
   4  -6  -4  548.59   25.21   2
  -4  -6   4  467.63   43.89   2
   4  -6  -4  544.37   34.25   2
   4  -6  -4  442.51   26.64   2
  -4  -6   4  507.94   56.34   2
  -4  -6   4  524.53   29.83   2
   4  -6  -3  980.12   34.86   2
  -4  -6   3  891.03   63.85   2
   4  -6  -3  945.39   43.69   2
  -4  -6   3  925.22    74.7   2
   4  -6  -2  330.74   20.15   2
  -4  -6   2  340.52   39.81   2
   4  -6  -2  298.03   23.15   2
  -4  -6   2  371.98   45.14   2
  -4  -6   1 1048.48   71.69   2
   4  -6  -1  959.86   42.49   2
  -4  -6   1 1118.78   75.56   2
   4  -6  -1  1097.1   39.86   2
  -4  -6   0  438.51   27.67   2
  -4  -6   0  484.79   48.86   2
   4  -6   0   410.3   27.04   2
  -4  -6   0  516.75      48   2
  -4  -6  -1  786.47   37.34   2
  -4  -6  -1  872.42    65.9   2
   4  -6   1  779.67   38.38   2
  -4  -6  -1  811.95   57.97   2
  -4  -6  -2  246.67   20.87   2
   4  -6   2  280.81   23.23   2
  -4  -6  -2  271.56    36.2   2
  -4  -6  -2  257.79   30.78   2
  -4  -6  -3   673.9   35.92   2
   4  -6   3  684.04   38.23   2
  -4  -6  -3  722.99   60.54   2
  -4  -6  -3  686.58   48.77   2
  -4  -6  -4  188.46   19.33   2
   4  -6   4   225.8   22.86   2
  -4  -6  -4  197.78   31.12   2
  -4  -6  -4  201.24   25.28   2
  -4  -6  -5  442.48   30.96   2
   4  -6   5  479.83   35.17   2
  -4  -6  -5  453.95    48.7   2
  -4  -6  -5  479.34   37.75   2
  -4  -6  -6   172.6   19.67   2
   4  -6   6  184.94    22.8   2
  -4  -6  -6  171.76   31.22   2
  -4  -6  -7  322.95   28.08   2
   4  -6   7  331.73   32.38   2
  -4  -6  -7  332.01   44.03   2
  -4  -6  -8   84.48   14.99   2
  -4  -6  -8   83.88   23.02   2
   4  -6   8   92.06   19.69   2
  -4  -6  -9  172.81   22.57   2
  -4  -6  -9  199.15   34.93   2
   4  -6   9  165.77   25.84   2
  -4  -6 -10   76.73   15.99   2
  -4  -6 -10   91.59   24.98   2
  -4  -6 -11   56.81   16.12   2
  -4  -5  12  146.14    23.8   2
   4  -5 -12  213.04   35.25   2
  -4  -5  11   40.48   14.24   2
  -4  -5  11   41.16   11.91   2
   4  -5 -11   52.64   17.08   2
  -4  -5  10  237.99   26.89   2
  -4  -5  10  308.95   37.81   2
   4  -5 -10  244.16   34.72   2
  -4  -5  10  285.93   36.01   2
  -4  -5   9   99.52      16   2
   4  -5  -9   67.13   17.41   2
  -4  -5   9  126.76   24.34   2
  -4  -5   9  137.68   24.25   2
  -4  -5   8  324.86   28.13   2
  -4  -5   8  320.23   41.18   2
  -4  -5   8  335.57   33.02   2
  -4  -5   7   34.74   10.23   2
  -4  -5   7   34.47     8.6   2
   4  -5  -7   41.52   11.82   2
  -4  -5   7   32.32    13.8   2
   4  -5  -6   413.5   22.25   2
  -4  -5   6  471.84   35.85   2
   4  -5  -6  382.72   29.79   2
  -4  -5   6  401.82   48.06   2
   4  -5  -6  374.25   31.94   2
  -4  -5   6   404.4   30.63   2
   4  -5  -5  162.69   14.34   2
  -4  -5   5  128.95   15.36   2
   4  -5  -5  129.46   13.21   2
   4  -5  -5  160.33   14.72   2
  -4  -5   5  168.62   23.88   2
   4  -5  -5  166.27   18.84   2
  -4  -5   5  164.17   23.18   2
   4  -5  -5  201.71   20.36   2
  -4  -5   5  127.76   25.72   2
  -4  -5   5  153.61   17.25   2
   4  -5  -4  299.82   19.09   2
   4  -5  -4  328.34    22.6   2
  -4  -5   4  326.79   35.45   2
   4  -5  -4  314.28   25.15   2
  -4  -5   4  317.56   34.95   2
   4  -5  -4  233.52   19.23   2
  -4  -5   4  319.32   42.98   2
  -4  -5   4   316.1   22.99   2
   4  -5  -3   96.51    10.6   2
  -4  -5   3   84.78   18.53   2
  -4  -5   3   83.03   18.91   2
   4  -5  -3   77.65   12.24   2
   4  -5  -3  111.84   11.18   2
  -4  -5   3   99.13   24.07   2
   4  -5  -2  189.14   15.13   2
   4  -5  -2  175.73   17.23   2
  -4  -5   2  166.13   28.15   2
  -4  -5   2  174.84   30.77   2
   4  -5  -1  517.61   26.47   2
  -4  -5   1  540.11   51.76   2
   4  -5  -1  480.04   28.63   2
  -4  -5   1  520.88   49.54   2
  -4  -5   0  155.74   15.61   2
   4  -5   0  167.18   16.66   2
  -4  -5   0  175.89    29.6   2
  -4  -5   0  199.53    29.7   2
   4  -5   0  188.03   16.53   2
  -4  -5  -1  483.45    28.2   2
  -4  -5  -1  563.19   54.11   2
   4  -5   1  500.61   29.32   2
  -4  -5  -1  515.51   44.35   2
  -4  -5  -2   42.66    8.25   2
  -4  -5  -2   39.27   12.17   2
   4  -5   2   44.23    9.02   2
  -4  -5  -2   47.58   12.08   2
  -4  -5  -3  892.15   40.91   2
   4  -5   3  921.94   43.46   2
  -4  -5  -3  981.08   73.04   2
  -4  -5  -3  846.21   28.84   2
  -4  -5  -3  875.25   53.62   2
  -4  -5  -4  100.46   13.65   2
   4  -5   4  113.36   15.63   2
  -4  -5  -4  103.68      24   2
  -4  -5  -4    98.7    9.98   2
  -4  -5  -4  111.45   19.04   2
  -4  -5  -5  715.32   38.75   2
   4  -5   5  731.19   42.76   2
  -4  -5  -5  749.39   64.68   2
  -4  -5  -5  663.14   28.93   2
  -4  -5  -6   43.69    9.45   2
  -4  -5  -6   46.04   17.54   2
   4  -5   6   54.72   12.79   2
  -4  -5  -7  803.88    44.7   2
   4  -5   7  895.87   52.78   2
  -4  -5  -7  872.64   72.56   2
  -4  -5  -8  108.03      17   2
  -4  -5  -8  112.38   25.13   2
   4  -5   8  128.22   21.46   2
  -4  -5  -9  516.96   39.99   2
   4  -5   9  629.76   50.28   2
  -4  -5  -9  621.16   61.54   2
  -4  -5 -10   64.43   20.07   2
  -4  -5 -10   58.74    12.8   2
   4  -5  10   51.98    16.5   2
  -4  -5 -11  442.07    41.6   2
  -4  -4  13  236.88   33.07   2
  -4  -4  12    64.4   16.13   2
   4  -4 -12   91.19   23.38   2
  -4  -4  11  352.55   36.44   2
   4  -4 -11  404.41   47.82   2
  -4  -4  11  374.95   44.52   2
  -4  -4  10   70.99   18.07   2
  -4  -4  10   52.32   12.08   2
   4  -4 -10   92.36   22.29   2
  -4  -4  10  120.65   21.94   2
  -4  -4   9  844.93   49.63   2
  -4  -4   9  985.39   67.61   2
  -4  -4   9   944.5   60.91   2
  -4  -4   8   92.91   17.66   2
  -4  -4   8   99.15   15.83   2
   4  -4  -8   55.24    15.1   2
  -4  -4   8    75.2   18.81   2
  -4  -4   7 1085.51   50.05   2
  -4  -4   7  997.34   72.23   2
  -4  -4   7 1097.95    55.1   2
  -4  -4   6  100.95   14.16   2
   4  -4  -6   77.45   15.85   2
   4  -4  -6   96.25    9.46   2
  -4  -4   6   95.25   14.81   2
   4  -4  -6  100.94   14.16   2
   4  -4  -6  127.09   23.96   2
  -4  -4   6   104.2   22.88   2
  -4  -4   6   97.53   15.03   2
  -4  -4   5 2081.12   66.08   2
   4  -4  -5 2040.67   52.73   2
  -4  -4   5 2605.68   90.98   2
   4  -4  -5 2442.76  111.73   2
   4  -4  -5 2134.06   69.11   2
  -4  -4   5 2029.48  107.41   2
   4  -4  -5 1604.28   67.53   2
  -4  -4   5 2065.36   66.65   2
   4  -4  -4  168.65    14.5   2
   4  -4  -4  172.38   15.15   2
  -4  -4   4   160.6    16.7   2
  -4  -4   4   203.2    27.3   2
   4  -4  -4  153.28    16.7   2
   4  -4  -4  186.55   31.95   2
   4  -4  -4  157.23   17.01   2
  -4  -4   4   158.1   29.41   2
  -4  -4   4  160.69    16.3   2
   4  -4  -3 2237.27   57.84   2
   4  -4  -3 2310.77   66.71   2
  -4  -4   3 2470.26  106.58   2
   4  -4  -3  2278.5   67.69   2
   4  -4  -3 2068.75  109.26   2
  -4  -4   3  2261.2  111.36   2
   4  -4  -3 2289.82   59.18   2
   4  -4  -2  115.08   11.76   2
   4  -4  -2  119.63   14.02   2
  -4  -4   2  103.41   22.41   2
   4  -4  -2  132.43   10.36   2
   4  -4  -2  150.86   29.29   2
  -4  -4   2  119.04   23.64   2
   4  -4  -2  108.47   14.38   2
   4  -4  -1 2928.77   68.21   2
  -4  -4   1 2680.29   70.96   2
  -4  -4   1 2561.23  120.78   2
   4  -4  -1 2696.43    71.4   2
   4  -4  -1 2665.27  121.57   2
  -4  -4   1 2776.63  114.14   2
   4  -4   0  220.15   17.61   2
  -4  -4   0  214.73   18.03   2
   4  -4   0  216.02   18.33   2
   4  -4   0  240.96   34.68   2
  -4  -4   0  230.19   34.84   2
  -4  -4   0  216.21   28.88   2
  -4  -4  -1  2229.4   63.14   2
   4  -4   1 2217.36   64.59   2
  -4  -4  -1 2351.61  118.63   2
  -4  -4  -1 2187.86   91.91   2
  -4  -4  -2  142.58   15.14   2
   4  -4   2  159.26   16.33   2
  -4  -4  -2  175.25    32.3   2
  -4  -4  -2  152.43   22.29   2
  -4  -4  -3 1799.31   58.61   2
   4  -4   3 1825.56   61.64   2
  -4  -4  -3 1969.93   109.9   2
  -4  -4  -3 1793.32   47.02   2
  -4  -4  -3 1894.35   78.12   2
  -4  -4  -4  176.38   18.09   2
   4  -4   4  167.66   18.48   2
  -4  -4  -4  180.81   14.46   2
  -4  -4  -4  162.83   30.22   2
  -4  -4  -5 1016.56   46.04   2
   4  -4   5 1128.69   52.17   2
  -4  -4  -5 1075.84   80.27   2
  -4  -4  -6   95.72   14.55   2
  -4  -4  -6   95.72   22.67   2
   4  -4   6   89.58   14.94   2
  -4  -4  -7  560.91   37.02   2
   4  -4   7  592.79    41.8   2
  -4  -4  -7  591.16   58.82   2
  -4  -4  -8   57.17   12.16   2
  -4  -4  -8   56.47   15.31   2
   4  -4   8   74.42   16.13   2
  -4  -4  -9  285.03   29.75   2
   4  -4   9  289.52   34.15   2
  -4  -4  -9  347.16   45.21   2
  -4  -4 -10    54.3    13.2   2
  -4  -4 -10   57.05   17.45   2
   4  -4  10   61.92   17.56   2
  -4  -4 -11   53.81   13.84   2
  -4  -4 -11   83.72   22.36   2
  -4  -3  13    50.7   17.05   2
  -4  -3  12  232.36   32.49   2
   4  -3 -12  336.93   43.46   2
  -4  -3  11   45.45   15.66   2
   4  -3 -11   42.15    14.3   2
  -4  -3  11   24.68    9.92   2
  -4  -3  10  255.47   29.37   2
  -4  -3  10  351.67      37   2
   4  -3 -10  325.38   41.28   2
  -4  -3  10  341.56   38.76   2
  -4  -3   9   76.84   18.15   2
  -4  -3   9   30.15    9.32   2
   4  -3  -9   65.76   17.54   2
   4  -3  -9   55.89   13.59   2
  -4  -3   9   44.82   13.88   2
  -4  -3   8  236.37    24.5   2
   4  -3  -8  326.16   34.05   2
  -4  -3   8   240.2   32.88   2
   4  -3  -8  235.45   33.52   2
  -4  -3   8  284.52   29.65   2
  -4  -3   7   29.41    8.46   2
  -4  -3   7   22.34    7.16   2
   4  -3  -7   33.01   13.13   2
   4  -3  -7   31.17   11.63   2
  -4  -3   7   20.73    9.96   2
  -4  -3   6  310.84   25.35   2
   4  -3  -6  351.98   16.04   2
   4  -3  -6  312.37   23.56   2
   4  -3  -6   313.8   15.23   2
  -4  -3   6  334.73   20.01   2
   4  -3  -6  387.88   41.41   2
  -4  -3   6  245.61   35.38   2
   4  -3  -6     221   30.21   2
  -4  -3   6  313.44   26.26   2
   4  -3  -5  157.17   12.21   2
  -4  -3   5  154.24   17.03   2
   4  -3  -5  103.48   18.44   2
  -4  -3   5  153.91   17.91   2
   4  -3  -5  172.45   21.48   2
   4  -3  -5  149.75   16.86   2
   4  -3  -5  157.91   27.36   2
  -4  -3   5  155.64   28.44   2
  -4  -3   5  157.73   17.25   2
   4  -3  -4  222.27   16.62   2
  -4  -3   4  196.47   18.26   2
  -4  -3   4  211.44      25   2
   4  -3  -4  243.76   28.77   2
   4  -3  -4  190.02   18.29   2
   4  -3  -4  194.29   31.37   2
   4  -3  -4  168.02   20.49   2
  -4  -3   4  195.79   31.66   2
  -4  -3   4  198.63   18.28   2
   4  -3  -3  299.82   19.53   2
  -4  -3   3  284.85    21.6   2
  -4  -3   3  328.23   36.71   2
   4  -3  -3   313.1   35.48   2
   4  -3  -3   276.9   21.45   2
   4  -3  -3  309.81   39.67   2
  -4  -3   3  331.24   39.17   2
   4  -3  -3  296.93   22.61   2
   4  -3  -3   295.8   21.29   2
   4  -3  -2  210.83      16   2
  -4  -3   2  235.83   34.28   2
   4  -3  -2  200.74   17.71   2
   4  -3  -2  179.88   28.89   2
  -4  -3   2  213.55   31.54   2
   4  -3  -2   222.4   33.39   2
   4  -3  -2  194.68   14.42   2
   4  -3  -1  697.45   30.68   2
  -4  -3   1     629   31.15   2
  -4  -3   1  634.08   60.91   2
   4  -3  -1  725.07    60.6   2
   4  -3  -1  668.94   32.03   2
   4  -3  -1  743.23   59.38   2
  -4  -3   1  795.78   57.36   2
   4  -3  -1  738.89   21.07   2
  -4  -3   0   39.09    7.69   2
  -4  -3   0   28.86   12.03   2
   4  -3   0   34.97    6.98   2
   4  -3   0   50.47   15.11   2
  -4  -3   0   43.97   13.65   2
  -4  -3  -1  934.52   38.12   2
   4  -3   1  965.81   39.68   2
  -4  -3  -1 1038.59   82.39   2
   4  -3   1 1047.46   68.09   2
  -4  -3  -1  931.77   56.92   2
  -4  -3  -2   77.57    10.7   2
   4  -3   2   75.93   11.08   2
  -4  -3  -2   96.38   24.79   2
  -4  -3  -2   70.24    8.33   2
   4  -3   2   75.11   18.48   2
  -4  -3  -2   86.55   15.98   2
  -4  -3  -3  1340.7   49.67   2
   4  -3   3 1355.61   50.65   2
  -4  -3  -3 1414.42   95.51   2
   4  -3   3  1407.5   75.21   2
  -4  -3  -3 1299.06   40.74   2
  -4  -3  -4   44.84    8.96   2
  -4  -3  -4   37.61   14.13   2
   4  -3   4   43.05    9.25   2
  -4  -3  -4   45.04     7.7   2
  -4  -3  -5 1089.03   47.48   2
   4  -3   5 1167.33   52.03   2
  -4  -3  -5 1183.94   86.17   2
  -4  -3  -6  106.16   25.07   2
   4  -3   6   73.37   13.95   2
  -4  -3  -6   67.91   11.98   2
  -4  -3  -7 1237.37   56.68   2
   4  -3   7 1249.95   61.06   2
  -4  -3  -7  1422.8   91.93   2
  -4  -3  -8  121.11   27.06   2
   4  -3   8  125.21   20.76   2
  -4  -3  -8   105.2   17.06   2
  -4  -3  -9  676.13   46.85   2
   4  -3   9  709.06   52.73   2
  -4  -3  -9   809.8   69.09   2
  -4  -3 -10   56.98   13.34   2
  -4  -3 -10   79.72      23   2
   4  -3  10   54.26   15.42   2
  -4  -3 -11  629.12   51.47   2
   4  -3  11  648.23   57.64   2
  -4  -3 -11  789.77   68.87   2
   4  -3  11  860.67   73.05   2
  -4  -2  12   12.94    9.17   2
   4  -2 -12   58.33   18.46   2
  -4  -2  11  462.77   43.99   2
   4  -2 -11   618.5   59.23   2
  -4  -2  11  498.38   49.52   2
  -4  -2  10   24.52    9.98   2
  -4  -2  10   25.19    9.73   2
   4  -2 -10   34.47   14.08   2
  -4  -2   9 1054.93   58.37   2
   4  -2  -9  987.27   72.44   2
  -4  -2   9 1163.53   66.04   2
  -4  -2   8  177.96   21.42   2
   4  -2  -8  163.82   29.22   2
   4  -2  -8  225.88   28.53   2
  -4  -2   8  178.48    28.3   2
  -4  -2   8   158.3   21.92   2
  -4  -2   7 1244.35   55.47   2
  -4  -2   7 1204.75    75.9   2
   4  -2  -7 1252.29   78.76   2
  -4  -2   7 1276.73   58.53   2
  -4  -2   6   45.16    9.71   2
  -4  -2   6   51.57   10.36   2
   4  -2  -6   42.72    4.57   2
   4  -2  -6   28.43    9.79   2
   4  -2  -6   32.29    4.32   2
   4  -2  -6   33.33    5.19   2
   4  -2  -6   42.34   12.37   2
  -4  -2   6   31.36   12.59   2
   4  -2  -6   30.22    4.62   2
   4  -2  -5 2292.51   49.22   2
  -4  -2   5 2278.23   70.15   2
   4  -2  -5 2370.92   67.55   2
  -4  -2   5 2401.77  107.03   2
  -4  -2   5 2348.49  111.52   2
   4  -2  -5 2079.28   98.36   2
  -4  -2   5  2218.2   68.87   2
  -4  -2   4   255.8   20.93   2
   4  -2  -4  242.59   25.61   2
  -4  -2   4  227.46   21.35   2
  -4  -2   4  264.61    34.4   2
   4  -2  -4  222.83   19.51   2
   4  -2  -4  261.97   35.75   2
  -4  -2   4  265.23   36.09   2
   4  -2  -4  251.49   30.87   2
  -4  -2   4  238.01   20.07   2
   4  -2  -4  248.62   16.57   2
  -4  -2   3 2028.14   60.78   2
   4  -2  -3 1996.27   89.45   2
  -4  -2   3 2101.56   81.23   2
   4  -2  -3 1996.08   59.82   2
   4  -2  -3 1976.77    99.4   2
  -4  -2   3 2035.71   100.8   2
   4  -2  -3 1918.46    81.4   2
   4  -2  -2   57.95   11.15   2
   4  -2  -2   64.47   17.73   2
  -4  -2   2   76.38   17.28   2
   4  -2  -2   75.36   10.39   2
   4  -2  -2   60.51   15.02   2
  -4  -2   2   71.63   17.97   2
  -4  -2   1 2313.84   62.04   2
   4  -2  -1 2203.12  112.94   2
  -4  -2   1 2318.16  113.37   2
   4  -2  -1 2356.67   62.64   2
   4  -2  -1 2367.03  104.09   2
  -4  -2   1 2469.65  101.99   2
   4  -2  -1  2446.8   62.44   2
  -4  -2   0  205.37   16.74   2
   4  -2   0  224.55    17.6   2
   4  -2   0  209.17   34.25   2
  -4  -2   0  178.76   33.23   2
   4  -2   0  233.96   30.21   2
   4  -2   0  172.29    8.62   2
  -4  -2  -1 1530.58   49.35   2
   4  -2   1 1592.74   50.65   2
  -4  -2  -1 1544.98   103.1   2
   4  -2   1 1618.97   79.91   2
  -4  -2  -2   39.77    7.75   2
  -4  -2  -2   66.69   22.74   2
   4  -2   2   46.16    7.81   2
  -4  -2  -2   39.38    6.36   2
   4  -2   2   44.73   12.46   2
  -4  -2  -3 1584.89   53.23   2
   4  -2   3 1615.73   54.77   2
  -4  -2  -3  1616.9   47.57   2
   4  -2   3 1654.41   78.82   2
  -4  -2  -4   52.75    9.62   2
   4  -2   4   60.23   10.04   2
   4  -2   4   53.22   14.16   2
  -4  -2  -5  654.21    36.3   2
   4  -2   5  676.62   23.16   2
   4  -2   5  678.62   38.41   2
   4  -2   5  697.34   50.09   2
  -4  -2  -6   49.94   10.11   2
  -4  -2  -6   55.91   17.15   2
   4  -2   6   69.76   12.95   2
  -4  -2  -7  447.89   33.17   2
   4  -2   7   501.3   37.56   2
  -4  -2  -8    6.84    5.24   2
  -4  -2  -8    9.94    8.58   2
   4  -2   8   22.36   10.13   2
  -4  -2  -9  179.56      24   2
   4  -2   9  194.43   27.46   2
  -4  -2  -9  266.72   39.21   2
   4  -2   9  238.83   37.08   2
  -4  -2 -10   27.28     9.5   2
   4  -2  10   42.36   15.56   2
   4  -2  10   34.12   13.51   2
  -4  -2 -11   76.46   17.77   2
   4  -2  11  125.77   26.41   2
   4  -2  11   66.73   16.92   2
  -4  -1  12  251.45   35.22   2
  -4  -1  12  231.07      35   2
  -4  -1  11   33.92    12.5   2
  -4  -1  11   26.63   11.99   2
   4  -1 -11   41.52   12.37   2
  -4  -1  10  277.19   32.66   2
   4  -1 -10   402.8   34.68   2
   4  -1 -10  390.64   45.54   2
  -4  -1  10  333.38    37.3   2
  -4  -1   9   20.51     8.7   2
  -4  -1   9   18.28    7.85   2
   4  -1  -9   25.79   11.47   2
  -4  -1   9   28.84    9.83   2
   4  -1  -9   34.23   10.17   2
  -4  -1   8  294.52   28.89   2
  -4  -1   8  406.11   38.61   2
   4  -1  -8  441.71    40.6   2
   4  -1  -8  286.73   38.57   2
  -4  -1   8  300.95   29.82   2
  -4  -1   7    1.49    1.63   2
  -4  -1   7    5.45     4.9   2
   4  -1  -7    9.18    8.47   2
  -4  -1   7   -3.94    5.31   2
   4  -1  -7   11.23    7.18   2
   4  -1  -6  380.49   11.92   2
  -4  -1   6     411   29.42   2
   4  -1  -6  376.56   11.23   2
   4  -1  -6  398.37   12.41   2
  -4  -1   6  411.12    41.1   2
   4  -1  -6  357.08   41.09   2
  -4  -1   6  383.03   28.89   2
   4  -1  -5   89.54    7.76   2
  -4  -1   5    96.5    13.6   2
   4  -1  -5   83.36   19.67   2
   4  -1  -5   84.45    8.77   2
   4  -1  -5   83.85     8.9   2
  -4  -1   5   79.61   18.49   2
   4  -1  -5  120.32   24.72   2
  -4  -1   5   97.58   13.65   2
  -4  -1   4  215.52    19.3   2
   4  -1  -4  196.66   17.56   2
  -4  -1   4  228.21   30.65   2
   4  -1  -4  198.13   17.97   2
   4  -1  -4   221.1   18.46   2
   4  -1  -4  209.75   31.11   2
   4  -1  -4  238.82   30.18   2
  -4  -1   3   292.6    21.5   2
   4  -1  -3  290.59    26.4   2
   4  -1  -3  279.96   20.08   2
  -4  -1   3  293.89   33.67   2
   4  -1  -3  320.44    39.1   2
   4  -1  -3  294.42    31.7   2
  -4  -1   2   334.6   21.45   2
  -4  -1   2  335.45   22.61   2
   4  -1  -2  412.36   38.36   2
  -4  -1   2  354.62   31.77   2
   4  -1  -2  329.73   21.79   2
  -4  -1   2  344.17   36.73   2
   4  -1  -2   409.4   41.73   2
   4  -1  -2  390.98      33   2
  -4  -1   1  864.31   35.07   2
  -4  -1   1  962.89   61.34   2
   4  -1  -1  889.04   35.58   2
  -4  -1   1  947.98   60.69   2
   4  -1  -1  978.25   63.43   2
   4  -1  -1   988.6   46.19   2
  -4  -1   0   58.78     8.5   2
   4  -1   0    61.2    8.74   2
   4  -1   0  103.98      24   2
  -4  -1   0   57.71   17.51   2
  -4  -1   0   64.08    14.8   2
   4  -1   0   63.19    9.02   2
   4  -1   0   56.52   14.59   2
   4  -1   1 1025.64   29.12   2
  -4  -1  -1 1013.55   38.36   2
   4  -1   1 1049.66   38.73   2
  -4  -1  -1  956.03   75.03   2
  -4  -1  -1 1060.97   61.88   2
  -4  -1  -1 1064.25   35.85   2
   4  -1   1 1064.23   61.07   2
  -4  -1  -2  109.69   12.73   2
   4  -1   2    91.9    6.26   2
   4  -1   2  126.69   13.67   2
  -4  -1  -2  116.15    27.4   2
   4  -1   2  123.39    7.03   2
   4  -1   2   118.7   19.76   2
  -4  -1  -3 1799.71   56.65   2
   4  -1   3 1738.67   55.99   2
   4  -1   3 1917.28   80.63   2
   4  -1   3 1816.38   43.78   2
   4  -1   4    5.13    2.93   2
  -4  -1  -4    12.6    5.17   2
   4  -1   4    6.08     3.9   2
   4  -1   4   -0.07    3.56   2
  -4  -1  -5 1333.19   53.39   2
   4  -1   5 1402.99   55.94   2
  -4  -1  -5 1663.35  104.05   2
   4  -1   5 1448.23   70.81   2
   4  -1   5 1789.32   59.26   2
  -4  -1  -6    12.4    4.66   2
   4  -1   6   16.19    6.01   2
  -4  -1  -6   11.76   10.18   2
   4  -1   6   23.63    7.13   2
   4  -1   6   15.95     8.8   2
  -4  -1  -7 1380.88   60.96   2
   4  -1   7 1559.65   67.63   2
  -4  -1  -7 1861.52  105.96   2
   4  -1   7 1769.56  100.21   2
   4  -1   8   34.93    11.5   2
  -4  -1  -8   37.93   10.95   2
   4  -1   8   52.05      13   2
  -4  -1  -9  816.87   52.98   2
   4  -1   9   935.3   60.97   2
   4  -1  10    7.34    6.37   2
  -4  -1 -10    5.01    6.32   2
   4  -1  10   -0.68    4.98   2
  -4  -1 -11  734.61   57.04   2
   4  -1  11  801.74   65.52   2
   4  -1  12   26.03   11.19   2
  -4   0  12    8.45    2.58   2
  -4   0  12   -2.09     3.5   2
   4   0 -12   -1.38    6.95   2
  -4   0  11  483.37    47.8   2
  -4   0  11   496.2    48.1   2
  -4   0  10    7.89    4.39   2
  -4   0  10    32.2   13.11   2
   4   0 -10   12.47    6.26   2
  -4   0  10   17.18    7.48   2
   4   0 -10   19.03    8.02   2
  -4   0   9 1277.11   68.03   2
  -4   0   9 1684.08   77.74   2
   4   0  -9 1670.86   79.08   2
   4   0  -9 1537.84   91.88   2
  -4   0   9  1251.4    66.9   2
  -4   0   8    8.08     4.3   2
  -4   0   8   12.76    6.31   2
   4   0  -8   13.38    8.92   2
  -4   0   8    14.2    8.51   2
   4   0  -8   16.97    9.47   2
  -4   0   7 1699.01    67.8   2
  -4   0   7 2031.44   90.58   2
   4   0  -7 1405.99   83.81   2
  -4   0   7 1738.81   67.94   2
  -4   0   6   10.15    5.98   2
  -4   0   6   -0.69    3.08   2
   4   0  -6    4.74    2.49   2
  -4   0   6    3.65    3.32   2
   4   0  -6    0.49    3.65   2
   4   0  -5 3003.24   56.29   2
  -4   0   5 2815.13   80.59   2
   4   0  -5 2986.66   56.77   2
  -4   0   5 2589.76  106.64   2
   4   0  -5  3179.3  127.09   2
  -4   0   5 2791.47   78.81   2
   4   0  -5  2824.9  106.51   2
  -4   0   4    88.7   11.77   2
  -4   0   4    80.6   11.86   2
   4   0  -4   90.64   10.51   2
   4   0  -4  108.15    17.6   2
   4   0  -4   86.74   10.06   2
  -4   0   4   91.68   20.13   2
   4   0  -4   80.09   10.79   2
   4   0  -4  103.46   21.96   2
  -4   0   3 3181.03   79.24   2
   4   0  -3 3077.33   81.37   2
   4   0  -3 3179.71   74.92   2
  -4   0   3 3096.77  113.42   2
   4   0  -3 3097.62   80.33   2
   4   0  -3 3081.41  122.03   2
   4   0  -3 3040.42   91.53   2
  -4   0   2    6.83       3   2
  -4   0   2   13.59     5.2   2
   4   0  -2    7.35    3.54   2
   4   0  -2   -0.39    2.68   2
  -4   0   2    10.1    3.91   2
   4   0  -2    4.96    2.58   2
   4   0  -2    9.29    5.68   2
   4   0  -2   11.46    6.38   2
   4   0  -1 3888.92   86.02   2
  -4   0   1 4153.52   85.09   2
   4   0  -1 4191.62  128.51   2
   4   0  -1 4170.63   84.94   2
  -4   0   1  4013.2  126.75   2
   4   0  -1 3912.95  129.27   2
   4   0  -1 4064.46  124.51   2
  -4   0   0   99.22   11.12   2
   4   0   0  111.94   10.56   2
   4   0   0  105.06   11.43   2
   4   0   0  140.16   24.81   2
  -4   0   0  106.47   18.89   2
   4   0   0  137.19   21.78   2
   4   0   0  114.78   20.88   2
  -4   0  -1 3136.45   73.51   2
   4   0   1 3299.42   61.27   2
   4   0   1 3245.37   73.37   2
  -4   0  -1 3252.02  108.76   2
   4   0   1  3024.1  105.35   2
   4   0   1 3051.05  131.24   2
  -4   0  -2    6.68    2.65   2
   4   0   2    7.87    1.97   2
   4   0   2    5.45    0.57   2
  -4   0  -2    2.44    2.45   2
   4   0   2   -1.68    9.48   2
   4   0   2    4.03    5.41   2
  -4   0  -3 2294.39   64.43   2
   4   0   3 2341.35   64.42   2
  -4   0  -3 2345.82   91.06   2
   4   0   3 2368.43      89   2
   4   0   3 2409.89   51.04   2
   4   0   3 2619.51  128.59   2
  -4   0  -4   77.71    11.2   2
   4   0   4  115.93   26.83   2
   4   0   4   84.41   12.18   2
   4   0   4   84.58   15.27   2
   4   0   4  109.68   11.37   2
  -4   0  -5 1480.21   56.09   2
   4   0   5 1552.49   57.59   2
   4   0   5 1602.36   71.27   2
   4   0   5 1555.48    53.5   2
  -4   0  -6    3.33    3.86   2
   4   0   6   -0.14    2.91   2
   4   0   6   -4.25    7.17   2
   4   0   6     3.9    3.57   2
   4   0   6    0.11    0.81   2
  -4   0  -7  723.87   43.49   2
   4   0   7  742.14    45.9   2
   4   0   8   11.85    8.48   2
  -4   0  -8   13.37    6.52   2
   4   0   8   -1.21    2.55   2
  -4   0  -9  271.45   30.42   2
   4   0   9  291.96   33.99   2
   4   0   9  307.98    39.5   2
  -4   0 -10    0.06    4.19   2
   4   0  10   12.91    7.05   2
   4   0  10    10.1    5.04   2
   4   0  11  131.01   25.67   2
  -4   0 -11   88.66   19.57   2
   4   0  11    89.1   20.05   2
   4   0  12   15.01   10.92   2
   4   0  12    7.66    5.58   2
  -4   1  12  283.19   39.25   2
   4   1 -12  322.79   44.26   2
  -4   1  12   243.9    34.5   2
  -4   1  11   32.55   12.39   2
  -4   1  11   50.88   16.08   2
   4   1 -11   46.42   17.03   2
  -4   1  10  347.47    38.2   2
  -4   1  10  483.78   40.28   2
   4   1 -10  452.69   39.95   2
   4   1 -10  394.93   47.72   2
  -4   1  10  308.47   34.04   2
  -4   1   9   42.62   11.28   2
  -4   1   9   39.97   11.62   2
   4   1  -9   22.58    9.12   2
  -4   1   9    31.4   10.14   2
   4   1  -9   43.12   13.38   2
  -4   1   8  339.89   32.95   2
  -4   1   8  458.86   41.63   2
   4   1  -8  498.02   45.81   2
   4   1  -8  368.42   42.66   2
  -4   1   8  351.51   31.75   2
  -4   1   7    7.82    4.63   2
  -4   1   7    8.64    6.22   2
   4   1  -7   10.29    4.37   2
  -4   1   7   19.15    8.98   2
   4   1  -7   19.94    9.68   2
  -4   1   6  477.49   32.97   2
  -4   1   6   454.4   42.28   2
   4   1  -6  536.15   50.24   2
  -4   1   6  461.04   30.93   2
   4   1  -6   382.4   37.23   2
  -4   1   5   74.15   11.75   2
  -4   1   5   74.89   12.14   2
   4   1  -5   76.84    7.16   2
   4   1  -5   83.95   15.18   2
  -4   1   5   77.21   16.87   2
   4   1  -5   84.94    7.41   2
   4   1  -5   56.83    15.6   2
   4   1  -4  258.22   24.93   2
   4   1  -4  268.74   16.79   2
  -4   1   4  268.98   20.37   2
  -4   1   4  229.97   20.21   2
   4   1  -4   263.3    16.9   2
  -4   1   4  212.99   28.67   2
   4   1  -4  224.26   31.94   2
   4   1  -3  235.98   21.55   2
  -4   1   3  236.63   19.54   2
  -4   1   3  222.24   16.06   2
   4   1  -3  246.91   19.01   2
   4   1  -3   234.9   18.69   2
   4   1  -3  230.23   17.53   2
  -4   1   3  221.19   28.45   2
   4   1  -3     251   32.27   2
   4   1  -2  365.22   24.36   2
  -4   1   2  341.79   20.75   2
  -4   1   2  329.73   22.51   2
   4   1  -2  378.31   27.43   2
   4   1  -2  388.95   27.59   2
   4   1  -2  340.19    20.8   2
  -4   1   2  379.24   36.06   2
   4   1  -2  318.52   35.32   2
  -4   1   1   829.1   32.65   2
  -4   1   1  799.21   34.78   2
   4   1  -1  933.55   50.07   2
   4   1  -1  882.12   33.38   2
  -4   1   1  864.92   54.51   2
   4   1  -1  924.37   49.02   2
   4   1  -1  884.26      58   2
   4   1  -1   900.7   35.45   2
  -4   1   0   72.82    9.13   2
   4   1   0   83.05    9.39   2
   4   1   0   82.74   16.14   2
   4   1   0    80.5    9.75   2
   4   1   0   100.2   18.19   2
  -4   1   0   74.45   15.98   2
   4   1   0   86.39   16.27   2
  -4   1  -1  945.64   36.04   2
   4   1   1  982.97   35.72   2
  -4   1  -1  911.11   54.47   2
   4   1   1 1031.72   65.87   2
   4   1   1  932.01   55.59   2
  -4   1  -2   96.55   11.42   2
   4   1   2  103.55   11.36   2
  -4   1  -2  110.52   17.94   2
   4   1   2   114.6   24.45   2
   4   1   2   97.89     8.5   2
   4   1   2   95.51   16.87   2
  -4   1  -3 1774.15   55.21   2
   4   1   3  1794.9   54.22   2
  -4   1  -3 1808.93   76.37   2
   4   1   3 1838.75   75.87   2
   4   1   3 1772.35  101.83   2
   4   1   3 1750.34   43.77   2
  -4   1  -4    7.35    3.44   2
   4   1   4   11.13       4   2
   4   1   4   15.43    5.42   2
  -4   1  -4    8.93    5.46   2
   4   1   4   22.58    9.33   2
   4   1   4    8.92    5.18   2
  -4   1  -5 1247.18   51.14   2
   4   1   5 1314.37   52.71   2
   4   1   5 1334.09   63.74   2
   4   1   5 1320.51   47.75   2
  -4   1  -6   15.98     5.8   2
   4   1   6   12.47    5.16   2
   4   1   6   29.24   11.76   2
   4   1   6   19.64    7.24   2
   4   1   6    9.08    4.09   2
   4   1   7 1116.78   58.43   2
   4   1   7  1143.4   59.17   2
  -4   1  -8   69.21    14.2   2
   4   1   8   59.15   16.93   2
   4   1   8   52.26    13.9   2
   4   1   8   61.79   13.62   2
  -4   1  -9  838.06   54.66   2
   4   1   9  887.86   61.88   2
  -4   1 -10    4.64    2.28   2
   4   1  10    8.93    7.07   2
  -4   1 -11  764.07   60.32   2
   4   1  11  734.02   64.36   2
   4   1  12   59.43   20.86   2
   4   1  12   73.18   19.78   2
  -4   2  12   34.04   12.41   2
   4   2 -12   50.26   17.54   2
  -4   2  12   59.68   18.28   2
  -4   2  11  474.56   49.02   2
  -4   2  11  483.31   45.57   2
  -4   2  10   19.14    8.47   2
  -4   2  10    4.02    5.02   2
   4   2 -10    4.53    0.87   2
  -4   2  10   21.88   10.03   2
   4   2 -10   21.56    8.95   2
  -4   2   9 1052.07   64.44   2
  -4   2   9 1345.92   72.04   2
   4   2  -9  1384.1   75.79   2
   4   2  -9 1153.94      79   2
  -4   2   9 1061.29   59.53   2
  -4   2   8  227.16   26.91   2
  -4   2   8  272.38   32.68   2
   4   2  -8  270.89   34.13   2
  -4   2   8  202.89   23.27   2
   4   2  -8     229   32.28   2
  -4   2   7 1260.92   60.06   2
  -4   2   7 1371.07   75.72   2
  -4   2   7 1301.01   56.81   2
   4   2  -7  1273.8   72.16   2
  -4   2   6   30.79    8.55   2
   4   2  -6   28.65    3.42   2
   4   2  -6   25.75    3.22   2
   4   2  -6   15.95    7.24   2
  -4   2   6   36.46   13.27   2
  -4   2   6   19.93    6.04   2
   4   2  -5 2177.44   81.28   2
  -4   2   5 2059.55   71.92   2
  -4   2   5 2138.09    69.8   2
   4   2  -5 2237.12   47.07   2
   4   2  -5 2244.85   46.55   2
   4   2  -4  306.63   26.73   2
  -4   2   4  305.32   22.65   2
  -4   2   4  306.09   23.44   2
   4   2  -4  341.09   19.23   2
  -4   2   4     303   34.75   2
   4   2  -4  337.43   18.99   2
   4   2  -3 2126.38   58.46   2
  -4   2   3 1995.33   53.19   2
  -4   2   3 2046.06    62.2   2
   4   2  -3 2079.68   67.09   2
   4   2  -3 2071.11   58.17   2
   4   2  -3 1978.86   54.93   2
  -4   2   3 1988.37   89.56   2
  -4   2   2   75.13    9.56   2
   4   2  -2   76.81    11.1   2
   4   2  -2   71.77   10.87   2
  -4   2   2   82.71   11.16   2
   4   2  -2   78.32   11.52   2
   4   2  -2   68.07    8.89   2
  -4   2   2      82   17.56   2
  -4   2   1 2360.19   58.37   2
   4   2  -1 2417.81   62.57   2
  -4   2   1 2315.33   62.55   2
   4   2  -1    2357   77.17   2
   4   2  -1 2423.81   79.04   2
   4   2  -1 2415.15   57.76   2
  -4   2   1  2384.8   93.82   2
   4   2  -1 2164.19    93.1   2
  -4   2   0  256.05   17.45   2
   4   2   0  270.39   17.84   2
   4   2   0  289.28   28.98   2
   4   2   0  321.39   30.12   2
   4   2   0  272.23   17.44   2
  -4   2   0  266.79   29.52   2
   4   2   0  277.56    30.1   2
  -4   2  -1 1621.12   48.53   2
   4   2   1 1638.15   46.53   2
   4   2   1 1708.81   79.63   2
  -4   2  -1 1589.67   72.95   2
   4   2   1 1482.62   71.08   2
  -4   2  -2    37.8    6.84   2
   4   2   2   40.71     6.9   2
  -4   2  -2   37.11   10.59   2
   4   2   2   47.47   14.99   2
   4   2   2   41.76   12.46   2
  -4   2  -3 1522.26   50.61   2
   4   2   3  1573.9   49.43   2
   4   2   3 1611.36   91.92   2
  -4   2  -3 1667.52   72.21   2
   4   2   3 1528.36   68.82   2
   4   2   3 1455.08   41.93   2
  -4   2  -4   92.41   12.51   2
   4   2   4   77.56    11.2   2
  -4   2  -4   75.52   14.14   2
   4   2   4    75.2    9.42   2
   4   2   4   73.19   14.85   2
   4   2   4   74.64   21.39   2
  -4   2  -5  733.72   38.38   2
   4   2   5  674.26   37.29   2
   4   2   5  781.23   67.82   2
  -4   2  -5  661.83   45.27   2
   4   2   5  648.18   43.71   2
   4   2   5  779.61   35.32   2
  -4   2  -6   55.38   11.01   2
   4   2   6   58.72   10.62   2
   4   2   6   46.59      11   2
  -4   2  -6   35.14    9.84   2
   4   2   6   53.07   12.07   2
   4   2   6   67.12   20.65   2
  -4   2  -7  471.99   35.54   2
   4   2   7  405.86   35.12   2
   4   2   7  386.19   33.09   2
  -4   2  -8   11.96    3.69   2
   4   2   8   12.75    6.45   2
   4   2   8   16.68   12.55   2
   4   2   8   12.46    8.08   2
  -4   2  -9  206.66   27.36   2
   4   2   9  279.03   39.78   2
   4   2   9  244.09   25.57   2
   4   2   9  160.86   26.99   2
   4   2  10   41.08    15.2   2
   4   2  10   29.52    8.34   2
  -4   2 -10   37.11   11.43   2
   4   2  11  129.07   26.84   2
   4   2  11   82.15   19.79   2
  -4   2 -11    83.2   19.06   2
   4   2  12   38.95   16.73   2
  -4   3  12  270.62    35.3   2
  -4   3  11   21.63    9.75   2
   4   3 -11   15.71     6.5   2
  -4   3  10  265.69   34.79   2
  -4   3  10  331.07    36.1   2
   4   3 -10  271.33   39.18   2
  -4   3  10  254.49   30.48   2
  -4   3   9   56.87    13.6   2
  -4   3   9   52.87   14.83   2
   4   3  -9   50.02   14.55   2
  -4   3   9   43.84   13.22   2
  -4   3   8  281.07   30.71   2
  -4   3   8  357.72   38.68   2
  -4   3   8  276.52    27.4   2
   4   3  -8  276.98   34.74   2
  -4   3   7   42.56    9.88   2
  -4   3   7   46.05   11.73   2
   4   3  -7   32.85   12.05   2
  -4   3   7   31.89   10.44   2
   4   3  -6  252.07   27.82   2
  -4   3   6  267.36   25.33   2
   4   3  -6  260.32   12.77   2
  -4   3   6  236.37   31.21   2
   4   3  -5  178.87   21.75   2
  -4   3   5  180.07   21.05   2
  -4   3   5  172.35   18.89   2
   4   3  -5   174.5   12.28   2
   4   3  -5   185.8   12.73   2
  -4   3   5   160.2   25.69   2
   4   3  -4  194.48    20.7   2
  -4   3   4  177.22   18.33   2
  -4   3   4  181.39   18.29   2
   4   3  -4   188.7   14.46   2
  -4   3   4  169.94   26.83   2
   4   3  -4  180.38   14.14   2
   4   3  -3   310.1    24.5   2
  -4   3   3  297.61   19.64   2
  -4   3   3  299.66   22.26   2
   4   3  -3  324.61   21.94   2
   4   3  -3  278.81   18.56   2
  -4   3   3  312.75    35.7   2
   4   3  -3  355.76   22.66   2
   4   3  -2  173.12   17.11   2
  -4   3   2  168.93   13.88   2
   4   3  -2   178.9   16.85   2
  -4   3   2  165.61   11.53   2
  -4   3   2  160.85   15.71   2
   4   3  -2  173.16   17.35   2
   4   3  -2  168.11   13.84   2
  -4   3   2  165.85   24.18   2
  -4   3   1  703.96   28.92   2
   4   3  -1  744.96   39.98   2
   4   3  -1  729.44   32.97   2
  -4   3   1  707.29    32.4   2
   4   3  -1  839.09   42.63   2
   4   3  -1  731.21   28.61   2
  -4   3   1  792.96   53.03   2
  -4   3   0   12.72    3.16   2
   4   3   0   21.65    6.86   2
   4   3   0   18.49    4.15   2
  -4   3   0   29.19   10.39   2
  -4   3  -1   880.2   34.35   2
   4   3   1  923.77   54.91   2
   4   3   1  910.05   32.51   2
  -4   3  -1  937.65    54.8   2
  -4   3  -2   69.27    9.71   2
   4   3   2   64.05   16.66   2
   4   3   2   49.51    7.78   2
  -4   3  -2   63.37   13.68   2
   4   3   2   65.46   13.59   2
  -4   3  -3 1288.23   46.06   2
   4   3   3 1378.63   45.66   2
  -4   3  -3 1352.85   65.24   2
   4   3   3 1278.89   41.75   2
   4   3   3 1281.33   63.51   2
  -4   3  -4   60.81    10.2   2
   4   3   4   87.26    21.6   2
   4   3   4    59.2   10.13   2
  -4   3  -4   88.46   16.78   2
   4   3   4    75.8   10.06   2
   4   3   4   87.74   16.05   2
  -4   3  -5 1072.08   47.04   2
   4   3   5  924.91   45.12   2
   4   3   5 1112.51   80.77   2
  -4   3  -5  877.36   51.65   2
   4   3   5  907.91   52.13   2
  -4   3  -6   43.85   10.45   2
   4   3   6   39.94   12.34   2
   4   3   6   42.97   11.29   2
  -4   3  -6   22.88    8.13   2
   4   3   6   37.65   10.57   2
  -4   3  -7 1158.42   56.72   2
   4   3   7  996.58   58.06   2
  -4   3  -7  961.03   54.58   2
   4   3   7 1079.66   55.78   2
  -4   3  -8  133.51   20.39   2
   4   3   8   150.8   30.48   2
   4   3   8  137.78   18.72   2
   4   3   8   82.21    18.4   2
  -4   3  -9  643.26   48.91   2
   4   3   9  615.84   53.44   2
   4   3   9  741.75   43.96   2
  -4   3 -10   54.13    15.7   2
   4   3  10   73.09   20.15   2
   4   3  10   39.98   15.47   2
  -4   3 -11  541.57    51.6   2
   4   3  11  694.61   63.31   2
   4   3  12  124.92   28.63   2
  -4   4  12   72.51   18.13   2
  -4   4  11  391.83   46.52   2
  -4   4  11  552.74    47.9   2
   4   4 -11  498.53   54.77   2
  -4   4  11  427.22      42   2
  -4   4  10   64.05   14.83   2
  -4   4  10   50.19   16.49   2
   4   4 -10   38.34   13.95   2
  -4   4  10   52.03   15.49   2
  -4   4   9 1012.97   65.21   2
  -4   4   9  896.38   52.89   2
   4   4  -9  967.93   67.51   2
  -4   4   8   92.32   17.82   2
   4   4  -8   110.5   20.38   2
  -4   4   8  113.34   21.88   2
  -4   4   8  120.38   17.75   2
   4   4  -7 1087.38    62.5   2
  -4   4   7 1100.12   57.55   2
  -4   4   7 1164.87   75.56   2
   4   4  -6  101.11    9.13   2
  -4   4   6   92.16   15.18   2
   4   4  -6   84.24   15.46   2
  -4   4   6   81.32   19.87   2
  -4   4   5 1919.45   78.56   2
   4   4  -5 2133.85    77.1   2
  -4   4   5 2029.45   69.55   2
   4   4  -5 2028.58   51.22   2
   4   4  -5 2173.17   52.32   2
  -4   4   5 2039.49   99.95   2
  -4   4   4  195.64   21.25   2
   4   4  -4  216.63   21.79   2
  -4   4   4  188.34   18.78   2
   4   4  -4  211.76   16.49   2
  -4   4   4  212.95   30.42   2
   4   4  -4  201.63   15.77   2
   4   4  -3 2145.95   67.67   2
  -4   4   3 2111.48   63.56   2
   4   4  -3 2181.59   61.92   2
  -4   4   3 1971.48   60.12   2
  -4   4   3 2106.39   96.37   2
   4   4  -3 2244.86   62.08   2
  -4   4   2  126.72    11.6   2
  -4   4   2  127.24   10.74   2
   4   4  -2  118.72   14.03   2
  -4   4   2  124.65   13.95   2
   4   4  -2  133.24   15.73   2
   4   4  -2  128.61   11.48   2
  -4   4   2   111.1   19.84   2
   4   4  -2  141.97   16.04   2
  -4   4   1 2572.68    59.5   2
  -4   4   1 2559.97    42.9   2
   4   4  -1 2589.66   68.43   2
  -4   4   1 2494.41    66.1   2
   4   4  -1 2720.05   58.47   2
  -4   4   1 2685.51  103.34   2
   4   4  -1 2469.16   77.34   2
   4   4   0  329.03    28.7   2
  -4   4   0  297.51   18.29   2
   4   4   0  303.36   17.01   2
  -4   4   0  295.77   32.07   2
  -4   4  -1  2191.8   56.74   2
   4   4   1 2120.41   82.91   2
   4   4   1 2274.33   52.97   2
  -4   4  -1 2264.71   89.23   2
   4   4   1 2172.91   58.24   2
  -4   4  -2   149.3    13.9   2
   4   4   2  141.15   21.67   2
   4   4   2  151.21      13   2
  -4   4  -2  144.15   20.75   2
  -4   4  -3 1769.34    55.1   2
   4   4   3 1863.11   92.08   2
   4   4   3 1877.03    54.5   2
  -4   4  -3 1743.09    75.4   2
  -4   4  -4  218.97    19.5   2
   4   4   4  177.95   17.74   2
  -4   4  -4  165.15   22.57   2
   4   4   4  188.89    23.4   2
  -4   4  -5 1050.65   47.04   2
   4   4   5 1062.43   77.96   2
   4   4   5 1101.28   50.39   2
  -4   4  -5  898.34   52.26   2
   4   4   5  932.49   53.25   2
  -4   4  -6   83.78   13.87   2
   4   4   6   78.17   20.02   2
   4   4   6    94.1   15.88   2
  -4   4  -6   62.89   13.66   2
   4   4   6   62.42      13   2
  -4   4  -7  514.13   38.21   2
   4   4   7  567.02   43.93   2
   4   4   7   694.7   66.07   2
  -4   4  -7  560.01   40.67   2
   4   4   7  617.55   41.61   2
   4   4   8  116.76   27.73   2
  -4   4  -8   70.61   14.44   2
   4   4   8   82.36   18.16   2
   4   4   8   97.02   16.96   2
  -4   4  -9   297.9   33.63   2
   4   4   9  331.49   39.31   2
   4   4   9  384.13   30.72   2
  -4   4 -10   48.91   14.26   2
   4   4  10    78.3   20.62   2
   4   4  10  102.11   24.22   2
   4   4  11  129.47   28.61   2
  -4   4 -11   76.73   20.22   2
   4   4  11   94.65   22.78   2
   4   4  12   31.67   15.62   2
  -4   5  12  235.56   32.75   2
  -4   5  11   54.71   15.42   2
  -4   5  11   64.71   19.18   2
   4   5 -11   50.04    13.9   2
  -4   5  11   67.15   17.33   2
  -4   5  10  274.25    37.2   2
  -4   5  10   375.4   41.89   2
  -4   5  10  271.33   30.61   2
   4   5 -10  309.24   39.48   2
  -4   5   9  122.85   19.05   2
  -4   5   9   115.2   21.82   2
   4   5  -9  102.13    20.5   2
  -4   5   9  147.61   26.76   2
   4   5  -8  416.78   40.18   2
  -4   5   8   404.2   38.34   2
  -4   5   8  492.79   50.44   2
  -4   5   7   54.52   12.93   2
   4   5  -7   48.07   12.33   2
  -4   5   7   46.36   15.14   2
   4   5  -6  395.19   34.18   2
  -4   5   6     419   32.67   2
   4   5  -6  439.27   21.98   2
  -4   5   6  436.52   47.65   2
   4   5  -5  188.49   21.87   2
  -4   5   5   176.2   20.07   2
   4   5  -5  182.15   15.15   2
   4   5  -5  175.07    14.7   2
  -4   5   5  155.92   28.52   2
  -4   5   4  371.32   32.62   2
   4   5  -4  365.96   28.66   2
  -4   5   4  357.87   26.44   2
   4   5  -4  370.99   23.37   2
   4   5  -4  312.04    21.3   2
  -4   5   4  380.34   43.19   2
  -4   5   3   83.47   12.18   2
  -4   5   3   73.99   12.42   2
   4   5  -3   76.11    11.2   2
   4   5  -3   71.79   11.71   2
   4   5  -3   58.44    9.54   2
   4   5  -3   53.38    7.54   2
  -4   5   3   80.89   19.02   2
  -4   5   2  146.17   13.81   2
   4   5  -2  136.36   15.49   2
  -4   5   2   136.1   14.69   2
   4   5  -2  149.66   12.03   2
  -4   5   2  148.45   24.65   2
   4   5  -2  123.86   15.32   2
  -4   5   1  432.87   21.33   2
  -4   5   1  419.65   15.93   2
  -4   5   1  414.14   25.03   2
   4   5  -1  475.71   20.88   2
  -4   5   1  477.01   43.67   2
   4   5  -1  436.89   31.45   2
  -4   5   0   180.9   14.01   2
   4   5   0  202.36   13.17   2
  -4   5   0  163.35   24.32   2
   4   5   0  206.45   22.98   2
   4   5   0  197.12   16.72   2
  -4   5  -1  415.76   22.52   2
   4   5   1  460.92   21.11   2
  -4   5  -1  410.14   37.66   2
   4   5   1  452.58   24.64   2
   4   5   1  473.26   36.88   2
   4   5   2   22.74    5.27   2
  -4   5  -2   21.17    5.23   2
   4   5   2   30.07    5.46   2
  -4   5  -2   23.47    9.05   2
   4   5   2    29.4    9.98   2
   4   5   3  865.52   60.01   2
   4   5   3  899.77    36.3   2
  -4   5  -3  778.07   49.64   2
   4   5   3  780.16    32.9   2
  -4   5  -4  156.65    16.7   2
   4   5   4   194.8   30.56   2
   4   5   4  178.13   18.49   2
  -4   5  -4  130.28    19.4   2
  -4   5  -5  573.51   34.74   2
   4   5   5   653.6   59.99   2
   4   5   5  613.16   38.24   2
  -4   5  -5  485.52   38.18   2
   4   5   5  480.48   38.46   2
  -4   5  -6   56.19   11.17   2
   4   5   6   65.01   13.75   2
  -4   5  -6   50.51   12.32   2
   4   5   6   44.77   10.35   2
   4   5   6   50.62    16.8   2
  -4   5  -7  768.05   46.87   2
   4   5   7  835.82   73.42   2
   4   5   7  779.55   53.12   2
  -4   5  -7  804.42   48.67   2
   4   5   7  930.39   52.04   2
  -4   5  -8  153.67   22.14   2
  -4   5  -8  152.09   20.53   2
   4   5   8  159.96   25.57   2
   4   5   8  162.17   20.79   2
   4   5   8  193.88   36.06   2
   4   5   9  723.91   67.94   2
   4   5   9  601.23   51.67   2
  -4   5 -10   50.75   14.94   2
   4   5  10   105.2   22.21   2
   4   5  10    58.6   19.53   2
  -4   6  11  404.31    44.2   2
  -4   6  11  297.69   33.91   2
  -4   6  10  171.31   30.27   2
   4   6 -10  154.41   25.67   2
  -4   6  10  226.39   33.72   2
   4   6  -9  598.63   50.11   2
  -4   6   9  629.61   52.51   2
  -4   6   9  759.84   64.41   2
   4   6  -8  379.54   37.86   2
  -4   6   8  374.32   37.08   2
  -4   6   8  404.42   47.46   2
   4   6  -7  672.29   47.45   2
  -4   6   7  660.39   45.54   2
  -4   6   7  762.85   66.57   2
   4   6  -6  257.18   26.83   2
  -4   6   6  287.02   27.33   2
   4   6  -6   287.4   19.63   2
  -4   6   6  293.74   40.86   2
   4   6  -5  835.78   46.94   2
  -4   6   5  850.85   44.53   2
   4   6  -5  935.08   37.78   2
  -4   6   5  875.28   70.77   2
   4   6  -4  668.21   39.62   2
   4   6  -4  700.92   43.24   2
  -4   6   4  661.69   36.89   2
   4   6  -4  756.17   35.86   2
  -4   6   4  753.85   63.99   2
  -4   6   4  673.96   49.68   2
   4   6  -3  967.08   45.87   2
  -4   6   3  927.17   41.74   2
   4   6  -3 1023.37   33.65   2
  -4   6   3  1059.9   74.51   2
  -4   6   3  960.85   53.78   2
   4   6  -2  364.87   26.61   2
  -4   6   2  356.68   24.14   2
   4   6  -2  375.32   18.45   2
  -4   6   2  380.43   41.83   2
   4   6  -2  291.89   25.02   2
  -4   6   2  400.34    28.2   2
  -4   6   1 1000.14   33.55   2
  -4   6   1  960.59   32.12   2
  -4   6   1  925.57   38.43   2
   4   6  -1 1041.07   30.37   2
  -4   6   1  1056.6   67.94   2
   4   6   0  586.64   29.81   2
  -4   6   0  508.31   23.42   2
   4   6   0  634.62    22.6   2
  -4   6   0  580.82   48.24   2
   4   6   0   451.6   34.94   2
   4   6   1  958.15   30.02   2
  -4   6  -1  933.83   58.72   2
   4   6   1  944.54   53.95   2
   4   6   1  897.12   35.96   2
   4   6   2  298.97   17.91   2
  -4   6  -2  296.11   31.58   2
   4   6   2   311.6   32.96   2
   4   6   2  279.98   18.96   2
  -4   6  -3  504.36   28.25   2
   4   6   3  696.99    32.4   2
  -4   6  -3  538.28   42.68   2
   4   6   3  687.03   29.82   2
   4   6   3  743.93   55.49   2
  -4   6  -4  194.63   18.41   2
   4   6   4  259.29   22.58   2
  -4   6  -4  196.05   24.76   2
  -4   6  -5  389.08   28.42   2
  -4   6  -5  432.47   36.42   2
  -4   6  -6  158.76    19.6   2
   4   6   6  150.79    21.5   2
  -4   6  -6  134.57   19.94   2
   4   6   6   140.7    20.6   2
   4   6   6  140.26   28.41   2
  -4   6  -7  311.96   29.57   2
   4   6   7  376.42   49.02   2
   4   6   7  348.46   35.26   2
  -4   6  -7   339.9   31.44   2
   4   6   7  362.02   32.84   2
  -4   6  -8   82.28      16   2
  -4   6  -8   81.98   14.44   2
   4   6   8   108.5   27.72   2
   4   6   8    85.7   15.12   2
  -4   6  -9  196.29   27.82   2
   4   6   9  304.49   45.91   2
  -4   6 -10   70.59    17.3   2
   4   6  10   81.28   21.71   2
  -4   7  11   65.28   18.62   2
  -4   7  10  212.08   32.92   2
  -4   7  10  174.73   30.83   2
  -4   7   9   94.19   21.41   2
   4   7  -9   95.92    20.2   2
  -4   7   9   98.12   23.12   2
   4   7  -8  154.12   24.05   2
  -4   7   8  191.19   26.78   2
  -4   7   8   215.7   37.21   2
  -4   7   7   67.23   14.23   2
   4   7  -7   55.76   13.93   2
  -4   7   7   79.07   22.43   2
   4   7  -6  143.59   20.66   2
   4   7  -6  137.56   14.71   2
  -4   7   6  120.55   17.85   2
  -4   7   6  152.49   32.42   2
   4   7  -5  192.87   22.32   2
  -4   7   5  199.94    21.4   2
   4   7  -5  216.65   18.96   2
  -4   7   5  199.27   36.05   2
  -4   7   4    78.9   12.65   2
   4   7  -4    80.2   12.12   2
   4   7  -4   70.46   12.73   2
   4   7  -4   75.07    8.86   2
  -4   7   4   94.72   23.91   2
   4   7  -3  139.86   17.78   2
  -4   7   3  160.23   16.84   2
   4   7  -3  127.69    16.2   2
   4   7  -3  157.56   12.03   2
  -4   7   3   183.8   31.35   2
  -4   7   2   77.13   11.17   2
   4   7  -2   59.54   11.43   2
   4   7  -2   84.66     7.9   2
   4   7  -2    84.7   13.48   2
  -4   7   2  107.11   23.71   2
   4   7  -1  426.19   27.67   2
  -4   7   1  399.68   19.44   2
  -4   7   1  372.61   23.87   2
   4   7  -1   411.4   16.52   2
  -4   7   1  415.97   44.42   2
   4   7  -1  313.43   28.02   2
   4   7   0  152.36   15.28   2
  -4   7   0  135.29   11.41   2
   4   7   0  155.74    9.79   2
  -4   7   0  136.37   24.59   2
   4   7   0  107.36    17.2   2
   4   7   1  315.03      21   2
  -4   7  -1   265.7   17.35   2
   4   7   1   304.3   14.98   2
  -4   7  -1  297.25   34.02   2
   4   7   1  294.22   30.32   2
  -4   7  -2  166.73   14.58   2
  -4   7  -2  165.08   24.74   2
   4   7   2  168.37   24.13   2
  -4   7  -3  579.67   44.58   2
   4   7   3  644.48   51.49   2
  -4   7  -4  228.76   20.01   2
  -4   7  -4  169.59   23.77   2
   4   7   4  265.18   36.09   2
  -4   7  -5  377.73   28.39   2
   4   7   5  471.78   51.54   2
  -4   7  -6     211   22.51   2
  -4   7  -6  146.84   21.23   2
   4   7   6  251.29   38.76   2
  -4   7  -7  484.17   37.64   2
  -4   7  -7  557.89   40.77   2
   4   7   7  546.78   41.58   2
   4   7   7  609.36   64.51   2
  -4   7  -8  247.11   29.16   2
  -4   7  -8  315.85   30.01   2
   4   7   8  296.67   29.36   2
   4   7   8  327.54   47.59   2
  -4   7  -9   279.6   33.59   2
   4   7   9  414.32   54.79   2
  -4   7 -10  113.21   23.21   2
  -4   8  11  248.18   37.05   2
  -4   8  10  130.25   27.62   2
   4   8  -9   312.3   36.51   2
  -4   8   9  356.99   40.02   2
  -4   8   9  392.01   49.95   2
   4   8  -8   250.4   30.84   2
  -4   8   8  248.34   30.67   2
  -4   8   8  316.37   45.77   2
   4   8  -7  483.63   40.49   2
  -4   8   7  497.04   39.88   2
   4   8  -6   290.9   29.88   2
   4   8  -6  307.12   23.76   2
  -4   8   6  276.74   27.69   2
  -4   8   6  345.41    47.9   2
   4   8  -5   669.7   43.63   2
  -4   8   5  683.21   40.28   2
   4   8  -5   707.8   37.91   2
  -4   8   5  690.65   68.77   2
   4   8  -4  447.36    34.1   2
  -4   8   4  418.09    29.5   2
   4   8  -4  462.82   31.65   2
  -4   8   4  455.35   54.66   2
   4   8  -3  788.67   44.41   2
  -4   8   3  765.44   38.15   2
  -4   8   3  757.52   68.97   2
  -4   8   2  510.18   29.47   2
   4   8  -2  414.46    32.7   2
  -4   8   1  832.42   36.52   2
   4   8  -1  724.75    45.3   2
  -4   8   0  461.43   20.83   2
  -4   8   0  503.88   48.23   2
   4   8   0  517.48   39.71   2
  -4   8  -1  825.86    30.6   2
  -4   8  -1  809.35   59.14   2
   4   8   1  833.59      53   2
  -4   8  -2  449.49   23.98   2
  -4   8  -2  406.71   39.93   2
   4   8   2  420.46   39.26   2
  -4   8  -3  651.09   31.89   2
  -4   8  -3  630.91   48.51   2
   4   8   3  745.93   56.19   2
  -4   8  -4  283.09   22.67   2
  -4   8  -4  252.34   30.06   2
   4   8   4  327.42   39.68   2
  -4   8  -5  522.14   33.61   2
   4   8   5  581.52   56.45   2
  -4   8  -6  170.75   20.49   2
  -4   8  -6  194.28   24.95   2
   4   8   6  195.89   34.76   2
  -4   8  -7  215.38   25.42   2
  -4   8  -7  253.69   27.97   2
   4   8   7   258.2   41.57   2
  -4   8  -8   89.96   17.41   2
   4   8   8  134.64   29.26   2
  -4   8  -9  120.56   21.62   2
  -4   8 -10   44.59   13.46   2
  -4   9   9  119.38   22.93   2
  -4   9   9  126.13   28.22   2
   4   9  -8  232.21   29.75   2
  -4   9   8  211.26   28.69   2
  -4   9   8  237.29   40.73   2
  -4   9   7   44.12   11.85   2
   4   9  -7   52.88   13.94   2
  -4   9   7    67.4   22.84   2
   4   9  -6  145.01   21.11   2
   4   9  -6  159.32   18.27   2
  -4   9   6  141.75   20.13   2
  -4   9   6  131.42   30.33   2
   4   9  -5  101.28   15.27   2
  -4   9   5   77.16   12.87   2
   4   9  -5   102.4   17.42   2
  -4   9   5   88.32   25.58   2
   4   9  -4  238.42    25.8   2
  -4   9   4  200.99   20.38   2
   4   9  -4  228.13   23.43   2
  -4   9   4  210.37   38.92   2
  -4   9   3   54.85    10.4   2
   4   9  -3   54.17   11.52   2
   4   9  -3   44.86   10.62   2
  -4   9   3   57.44   17.78   2
  -4   9   2  149.23   15.89   2
   4   9  -2  112.17   17.72   2
  -4   9   2  155.76   31.06   2
  -4   9   1  159.52    15.9   2
   4   9  -1  144.15   21.08   2
  -4   9   1  155.93   28.85   2
   4   9   0  191.51   24.96   2
  -4   9   0  188.62   31.38   2
   4   9   1  103.17    18.6   2
  -4   9  -1   76.92   18.91   2
  -4   9  -2  218.01   29.91   2
   4   9   2  204.98   27.96   2
  -4   9  -3  235.51   18.52   2
  -4   9  -3  239.57   30.32   2
   4   9   3  251.99   32.71   2
  -4   9  -4  313.71   23.73   2
  -4   9  -4  246.56   30.07   2
   4   9   4  320.37   39.43   2
  -4   9  -5  212.41   21.03   2
  -4   9  -5  219.99   27.83   2
   4   9   5  235.05   36.54   2
  -4   9  -6  270.75   26.08   2
   4   9   6  267.89   40.56   2
  -4   9  -6  231.67   27.92   2
  -4   9  -7   204.1   24.76   2
  -4   9  -7  246.07   27.94   2
   4   9   7  230.87   40.73   2
  -4   9  -8  203.01   27.07   2
  -4   9  -9  180.28   26.99   2
  -4  10   8  390.99   38.82   2
  -4  10   7  201.21   25.39   2
  -4  10   7  229.59   44.35   2
   4  10  -6  463.89   40.38   2
  -4  10   6  454.58   35.84   2
  -4  10   6  526.47   65.85   2
   4  10  -5  296.84   31.17   2
   4  10  -5  279.95   26.59   2
  -4  10   5  232.01   23.87   2
  -4  10   5  293.24   49.09   2
   4  10  -4  727.46    47.8   2
  -4  10   4  651.04   38.01   2
   4  10  -4  713.31   44.36   2
  -4  10   4   683.1   75.18   2
   4  10  -3  313.42   30.53   2
  -4  10   3  294.35   23.84   2
   4  10  -3  320.78   30.89   2
  -4  10   3  360.13   52.37   2
  -4  10   2  586.65   32.22   2
   4  10  -2  646.91   45.19   2
  -4  10   2  643.63   66.39   2
   4  10  -1  325.56   32.94   2
  -4  10   1  303.88   43.34   2
   4  10   0  670.38   49.25   2
  -4  10   0  651.75   60.42   2
   4  10   1  343.39   36.68   2
  -4  10  -1  316.15   39.79   2
   4  10   2  438.97   42.34   2
  -4  10  -2  408.21   43.78   2
  -4  10  -3  211.19   29.63   2
   4  10   3  212.23   31.18   2
  -4  10  -4  264.65   32.25   2
   4  10   4  304.45   39.78   2
  -4  10  -5  221.83   28.65   2
   4  10   5  234.47   36.88   2
  -4  10  -6  159.03   23.41   2
  -4  11   8   42.49   13.22   2
  -4  11   7    50.6   12.98   2
  -4  11   6   15.66    6.66   2
   4  11  -5   78.76   15.26   2
  -4  11   5   78.24   13.59   2
   4  11  -4   41.76   10.81   2
  -4  11   4   35.79    8.33   2
   4  11  -4    48.1   12.89   2
  -4  11   4   38.29   18.18   2
   4  11  -3   71.97   15.07   2
   4  11  -3   66.49   14.87   2
  -4  11   3   58.19   23.12   2
   4  11  -2   103.9   18.82   2
  -4  11   2  117.19   30.35   2
   4  11  -1  167.03   24.94   2
  -4  11   1  149.13   32.42   2
   4  11   0  199.07   28.05   2
  -4  11   0  222.55   36.86   2
   4  11   1  142.69   24.31   2
  -4  11  -1  161.37   29.28   2
   4  11   2  225.49   31.54   2
  -4  11  -2  246.76   34.88   2
   4  11   3  189.37   30.13   2
  -4  11  -3  177.74   28.31   2
   4  11   4  349.51   44.17   2
  -4  11  -4  325.21   37.68   2
  -4  11  -5  142.31   24.12   2
  -4  11  -6  242.46   30.46   2
   4  12  -5  156.67    22.6   2
   4  12  -4  380.07   35.94   2
   4  12  -3  259.53    30.7   2
   4  12  -2   476.3   43.02   2
   4  12  -1  182.33   26.92   2
   4  12   0  462.54   44.65   2
  -4  12   0  460.03   55.17   2
   4  12   1  227.57   32.24   2
  -4  12  -1  222.99   37.17   2
  -4  12  -2  333.76   42.46   2
  -4  12  -3  156.18    27.8   2
  -4  12  -4  188.48   29.39   2
  -4  12  -5    78.7   17.52   2
   5 -11  -4    7.99    4.38   2
  -5 -11   4   -6.94   12.76   2
   5 -11  -3   -1.91    2.93   2
  -5 -11   3   20.96   15.23   2
   5 -11  -2   11.28    7.77   2
  -5 -11   2   23.08   17.89   2
   5 -11  -2   13.35    6.96   2
   5 -11  -1   45.15   13.58   2
  -5 -11   1   37.35   19.08   2
   5 -11  -1   32.55    9.86   2
  -5 -11   0   42.06   21.02   2
   5 -11   0   42.43   11.83   2
   5 -10  -4  445.78   37.78   2
  -5 -10   4  402.13   55.48   2
   5 -10  -4  488.64   39.23   2
   5 -10  -3  300.75   32.37   2
   5 -10  -3  280.97   29.05   2
  -5 -10   3  280.37   47.25   2
   5 -10  -2  513.75   44.42   2
  -5 -10   2  528.68   67.42   2
   5 -10  -2  520.06    39.4   2
  -5 -10   2  619.54   74.21   2
   5 -10  -1  249.72   26.92   2
  -5 -10   1  298.01   48.43   2
  -5 -10   1  345.21   53.23   2
   5 -10   0  379.34   33.31   2
  -5 -10   0  417.74   57.82   2
  -5 -10   0  405.13   53.84   2
   5 -10   1  268.64   28.01   2
  -5 -10  -1  265.53   45.58   2
  -5 -10  -1  260.87    41.5   2
   5 -10   2  418.52   35.63   2
  -5 -10  -2  452.55   59.14   2
  -5 -10  -2  434.63   50.34   2
   5 -10   3  165.91   23.49   2
  -5 -10  -3  172.54   30.51   2
  -5 -10  -4  260.22   27.64   2
  -5 -10  -4  265.24   35.74   2
  -5 -10  -5  148.68   21.22   2
  -5 -10  -5   144.1   25.94   2
  -5 -10  -6  202.84   25.19   2
  -5 -10  -6  189.13   29.12   2
  -5  -9   8   23.66    9.97   2
  -5  -9   7   13.33    5.89   2
   5  -9  -6    10.3    5.31   2
   5  -9  -5   12.43    6.59   2
  -5  -9   5   11.61   11.93   2
   5  -9  -4     9.9    4.03   2
  -5  -9   4   10.12    8.41   2
   5  -9  -4   19.48    8.38   2
   5  -9  -3   -1.21    2.46   2
  -5  -9   3   -3.81   11.68   2
   5  -9  -3   -0.02    0.96   2
  -5  -9   3    5.13    6.91   2
  -5  -9   2   10.89    9.37   2
   5  -9  -2   28.15    8.61   2
  -5  -9   2   24.58    7.78   2
  -5  -9   1   39.74   17.02   2
   5  -9  -1   40.29   10.42   2
  -5  -9   1   34.25   14.96   2
   5  -9   0   77.92   14.81   2
  -5  -9   0    81.1   22.59   2
  -5  -9  -1   46.46   20.65   2
   5  -9   1   50.98    11.5   2
  -5  -9  -1   43.81   13.64   2
  -5  -9  -2   76.26   23.24   2
   5  -9   2   87.81   15.99   2
  -5  -9  -2   88.84   22.07   2
  -5  -9  -3  141.68   19.48   2
   5  -9   3  166.66   22.26   2
  -5  -9  -3  186.68   37.26   2
  -5  -9  -3  162.47   28.81   2
  -5  -9  -4   81.46   14.74   2
  -5  -9  -4   84.13    21.6   2
   5  -9   4   103.2   18.08   2
  -5  -9  -4    90.2   19.96   2
  -5  -9  -5  128.62   19.19   2
  -5  -9  -5  141.86   24.93   2
  -5  -9  -6   95.31   17.08   2
  -5  -9  -6  101.51   20.36   2
  -5  -9  -7  178.98    23.6   2
  -5  -8   9  270.53   32.39   2
  -5  -8   8  288.98    46.4   2
  -5  -8   8  206.27   26.27   2
   5  -8  -7  345.01   33.74   2
  -5  -8   7  368.76   53.85   2
  -5  -8   7  307.22   30.02   2
   5  -8  -6   365.7   34.06   2
  -5  -8   6  346.44   54.75   2
   5  -8  -5  597.79   37.58   2
   5  -8  -5  599.13   42.11   2
  -5  -8   5  571.73   70.13   2
   5  -8  -4  451.25   34.53   2
  -5  -8   4  508.52   57.85   2
   5  -8  -4  427.02   35.08   2
  -5  -8   4  456.39   61.51   2
  -5  -8   3  680.57   70.39   2
   5  -8  -3   755.5   45.61   2
  -5  -8   3  738.22    77.4   2
  -5  -8   2  525.31   62.98   2
   5  -8  -2  546.89   37.89   2
  -5  -8   2  614.46   67.73   2
  -5  -8   1   879.9   82.18   2
   5  -8  -1  787.51   44.74   2
  -5  -8   1  895.67   78.06   2
   5  -8   0  469.03   34.59   2
  -5  -8   0   484.8   60.78   2
  -5  -8   0  519.21   57.29   2
   5  -8   1  721.63   43.24   2
  -5  -8  -1  797.34   77.48   2
  -5  -8  -1  737.15   64.49   2
  -5  -8  -2  445.84    33.7   2
   5  -8   2  450.51   35.01   2
  -5  -8  -2  539.09   62.42   2
  -5  -8  -2  467.68   48.42   2
  -5  -8  -3  593.82   39.22   2
   5  -8   3  674.32   43.76   2
  -5  -8  -3     671   70.19   2
  -5  -8  -3  595.63   53.21   2
  -5  -8  -4  280.23   27.44   2
   5  -8   4  283.59   29.49   2
  -5  -8  -4  325.38   48.02   2
  -5  -8  -4  269.06   33.97   2
  -5  -8  -5  415.35      34   2
   5  -8   5  464.86   39.39   2
  -5  -8  -5  497.82   60.27   2
  -5  -8  -5  464.48   43.34   2
  -5  -8  -6  241.57   26.37   2
   5  -8   6  246.34   29.71   2
  -5  -8  -7   223.6   26.59   2
  -5  -7  10   54.03      19   2
  -5  -7   9    29.9   10.52   2
  -5  -7   9    9.82    7.02   2
  -5  -7   8    55.6   14.48   2
   5  -7  -8   44.39   11.77   2
  -5  -7   8   67.79   23.13   2
  -5  -7   7   18.34    7.47   2
   5  -7  -7   19.15    8.88   2
   5  -7  -6   85.13   15.62   2
  -5  -7   6   81.44   24.21   2
   5  -7  -5    4.26    3.77   2
  -5  -7   5    0.43    1.92   2
   5  -7  -5     5.4    5.48   2
  -5  -7   5     1.6    8.04   2
  -5  -7   4    17.7   12.55   2
   5  -7  -4   25.91    9.03   2
  -5  -7   4   13.17   11.79   2
  -5  -7   3    6.11    6.92   2
   5  -7  -3   -2.72    3.74   2
  -5  -7   3   -7.48     9.6   2
  -5  -7   2   13.55   11.62   2
   5  -7  -2   31.07    8.22   2
  -5  -7   2      41   17.45   2
  -5  -7   1   45.71   20.42   2
   5  -7  -1   57.81   11.36   2
  -5  -7   1   70.07   22.33   2
  -5  -7   0   51.85   19.62   2
   5  -7   0   37.65    9.65   2
  -5  -7   0   48.98   16.66   2
  -5  -7  -1   90.51   14.27   2
  -5  -7  -1  121.01   28.96   2
   5  -7   1   84.76   14.13   2
  -5  -7  -1  110.16    23.9   2
  -5  -7  -2   37.24    9.24   2
  -5  -7  -2   55.57   19.14   2
   5  -7   2   38.68    9.58   2
  -5  -7  -2   22.34    7.45   2
  -5  -7  -3  166.79   20.08   2
   5  -7   3  169.43   21.05   2
  -5  -7  -3  186.22    36.3   2
  -5  -7  -3  172.77   27.59   2
  -5  -7  -4  176.02   20.75   2
   5  -7   4  171.63   22.32   2
  -5  -7  -4     210   39.97   2
  -5  -7  -4  166.84   26.25   2
  -5  -7  -5  147.48   19.83   2
   5  -7   5  170.52    23.6   2
  -5  -7  -5  177.09   36.65   2
  -5  -7  -5  180.49    26.4   2
  -5  -7  -6  126.09   19.04   2
  -5  -7  -6  133.53   31.65   2
   5  -7   6  145.05   21.96   2
  -5  -7  -7   192.6   23.57   2
   5  -7   7   210.7    28.2   2
  -5  -7  -8  150.21   22.55   2
   5  -6 -10   68.19   18.15   2
  -5  -6  10   81.72   17.18   2
  -5  -6   9  471.41   38.63   2
  -5  -6   9  623.94   63.01   2
   5  -6  -9  495.81   47.35   2
  -5  -6   9  521.59   45.14   2
  -5  -6   8  200.75   24.08   2
   5  -6  -8   205.7   25.67   2
   5  -6  -8  235.73   29.52   2
  -5  -6   8  261.65   40.67   2
  -5  -6   8  231.29    27.4   2
   5  -6  -7  586.76   42.85   2
  -5  -6   7  708.24   70.01   2
   5  -6  -7   612.5   43.04   2
  -5  -6   7  596.58    41.5   2
   5  -6  -6  346.53   31.77   2
   5  -6  -6  326.95   27.81   2
  -5  -6   6  413.48   55.13   2
  -5  -6   6  331.35   28.92   2
   5  -6  -5  861.86   40.65   2
  -5  -6   5 1070.79   71.35   2
   5  -6  -5  903.28   50.07   2
  -5  -6   5  868.93   80.85   2
  -5  -6   4  418.22   48.23   2
   5  -6  -4  382.58   31.27   2
  -5  -6   4  351.88   50.77   2
  -5  -6   3  868.29   75.29   2
   5  -6  -3  801.97   44.17   2
  -5  -6   3  806.91   75.83   2
  -5  -6   2  432.88   55.57   2
   5  -6  -2  503.49   34.01   2
  -5  -6   2  566.72   61.06   2
  -5  -6   1  760.76   75.81   2
   5  -6  -1  843.36   43.98   2
  -5  -6   1  952.09   76.45   2
  -5  -6   0  460.43   32.08   2
  -5  -6   0  588.18   67.59   2
   5  -6   0  491.82   33.08   2
  -5  -6   0  499.07   52.33   2
  -5  -6  -1  672.19   38.91   2
   5  -6   1  632.69   38.44   2
  -5  -6  -1  766.52   78.35   2
  -5  -6  -1   711.8   60.37   2
  -5  -6  -2  401.94   30.07   2
   5  -6   2  466.56   33.14   2
  -5  -6  -2  487.69   47.52   2
  -5  -6  -3  545.03   35.97   2
   5  -6   3  568.25   38.11   2
  -5  -6  -3  702.58   74.06   2
  -5  -6  -3  624.12   50.98   2
  -5  -6  -4  240.52   24.32   2
   5  -6   4  253.89   26.08   2
  -5  -6  -4  286.23   46.87   2
  -5  -6  -4  255.78   31.95   2
  -5  -6  -5  412.43   32.85   2
   5  -6   5  434.11   36.37   2
  -5  -6  -5  468.38   59.93   2
  -5  -6  -6     188   22.45   2
   5  -6   6  193.29   25.47   2
  -5  -6  -6  206.65   37.96   2
  -5  -6  -7  271.31   28.65   2
   5  -6   7  261.54   30.81   2
  -5  -6  -7  316.93   47.73   2
  -5  -6  -8   91.61   17.83   2
  -5  -5  11   47.96   13.52   2
   5  -5 -11   48.51      13   2
  -5  -5  10   40.22   12.93   2
   5  -5 -10   25.84   12.29   2
  -5  -5  10   70.59   20.86   2
  -5  -5   9   28.22    10.7   2
  -5  -5   9    25.5    9.73   2
   5  -5  -9   15.36    8.39   2
   5  -5  -9   18.49    8.27   2
  -5  -5   9   34.69   17.57   2
  -5  -5   8   29.64   10.18   2
  -5  -5   8   16.06    6.53   2
   5  -5  -8   20.16    9.22   2
   5  -5  -8   19.08    7.65   2
  -5  -5   8    4.86     7.4   2
  -5  -5   7   12.03    6.04   2
   5  -5  -7   24.12    9.46   2
  -5  -5   7    18.7    7.14   2
   5  -5  -7    0.92    1.51   2
  -5  -5   7   23.86    15.8   2
  -5  -5   6    5.58    4.44   2
   5  -5  -6    24.9    9.01   2
  -5  -5   6    8.93    5.55   2
   5  -5  -6      15    6.84   2
  -5  -5   6   25.37   11.94   2
   5  -5  -5    5.81    4.76   2
  -5  -5   5   -5.01    3.87   2
   5  -5  -5    1.47    1.74   2
  -5  -5   5  -10.65   10.54   2
   5  -5  -4    6.88     3.2   2
  -5  -5   4    4.51    2.97   2
   5  -5  -4    6.49     3.9   2
  -5  -5   4    6.19   12.96   2
  -5  -5   3    2.74    6.81   2
   5  -5  -3   25.34    7.08   2
  -5  -5   3   37.38   13.67   2
  -5  -5   2    68.6   22.82   2
   5  -5  -2    32.3    7.51   2
  -5  -5   2   54.77   16.95   2
  -5  -5   1   79.61   22.79   2
   5  -5  -1   77.57   12.79   2
  -5  -5   1   54.54   15.89   2
  -5  -5   0    90.1   13.48   2
  -5  -5   0   94.13    28.1   2
   5  -5   0   86.74   13.31   2
  -5  -5   0  102.78   23.57   2
  -5  -5  -1   86.85   13.25   2
   5  -5   1   97.89   14.71   2
  -5  -5  -1   83.38   25.57   2
  -5  -5  -1   99.74   21.45   2
  -5  -5  -2  109.98   14.89   2
   5  -5   2  122.12   16.07   2
  -5  -5  -2  132.27   32.72   2
  -5  -5  -2   98.08   19.88   2
  -5  -5  -3  232.14   22.71   2
   5  -5   3  250.32   24.37   2
  -5  -5  -3  286.71      48   2
  -5  -5  -4  174.57   20.37   2
   5  -5   4  168.58   20.66   2
  -5  -5  -4  161.51   35.36   2
  -5  -5  -5  169.94   20.48   2
   5  -5   5   182.5   22.76   2
  -5  -5  -5  181.53   38.05   2
  -5  -5  -6  131.87   19.11   2
  -5  -5  -6  135.43   31.88   2
   5  -5   6  140.36   20.23   2
  -5  -5  -7  276.12    28.7   2
   5  -5   7  311.38   32.59   2
  -5  -5  -7  345.07   50.39   2
  -5  -5  -8  167.43   22.88   2
   5  -5   8  201.25   28.83   2
  -5  -5  -8  174.37   35.69   2
  -5  -5  -9  158.62   23.07   2
  -5  -4  11  299.23   35.36   2
   5  -4 -11  365.65   45.79   2
  -5  -4  10   57.77   16.93   2
  -5  -4  10   50.11      13   2
   5  -4 -10   53.09   17.86   2
  -5  -4  10   71.29   19.25   2
  -5  -4   9  648.09   46.44   2
  -5  -4   9  840.94   68.46   2
   5  -4  -9  680.44   60.04   2
  -5  -4   9  693.24   51.78   2
  -5  -4   8  117.77   19.37   2
  -5  -4   8   93.94    16.7   2
   5  -4  -8   88.56   19.23   2
   5  -4  -8   97.74   17.28   2
  -5  -4   8   143.2   28.51   2
  -5  -4   7  785.83   46.31   2
   5  -4  -7  987.92   72.99   2
   5  -4  -7  759.82   46.56   2
  -5  -4   7  928.34   77.11   2
   5  -4  -7  738.95   55.21   2
  -5  -4   7  706.78   45.33   2
  -5  -4   6  200.11   22.62   2
   5  -4  -6  191.51   22.21   2
   5  -4  -6  211.37    35.2   2
   5  -4  -6  196.51   25.69   2
  -5  -4   6  224.47   37.84   2
  -5  -4   6  192.27    21.8   2
  -5  -4   5 1212.34   54.85   2
  -5  -4   5 1308.51    64.4   2
   5  -4  -5 1267.65   57.42   2
  -5  -4   5 1312.88   95.41   2
   5  -4  -5 1263.96   57.28   2
  -5  -4   4  281.77   33.84   2
   5  -4  -4  263.85   24.87   2
   5  -4  -4  233.48   41.06   2
   5  -4  -4  253.19   21.17   2
  -5  -4   4  282.11   42.75   2
  -5  -4   3 1262.18   83.38   2
   5  -4  -3 1236.22    52.9   2
   5  -4  -3 1140.25   91.34   2
  -5  -4   3 1262.15   91.54   2
   5  -4  -3 1201.49   39.67   2
  -5  -4   2  460.54   54.92   2
   5  -4  -2  361.68   27.49   2
   5  -4  -2  398.56   53.57   2
   5  -4  -2  410.39   17.09   2
  -5  -4   2  376.89   47.29   2
  -5  -4   1 1537.93   57.38   2
  -5  -4   1 1513.14  109.51   2
   5  -4  -1 1568.92   58.38   2
   5  -4  -1 1612.26   105.7   2
  -5  -4   1 1693.67   97.74   2
  -5  -4   0  293.88   23.87   2
   5  -4   0  278.33   23.45   2
   5  -4   0  348.43   47.22   2
  -5  -4   0  244.23   43.66   2
  -5  -4   0  310.59   38.97   2
  -5  -4  -1  1321.9   53.01   2
   5  -4   1 1345.05   54.53   2
  -5  -4  -1 1387.31  111.48   2
   5  -4   1 1434.95    92.3   2
  -5  -4  -1 1467.31   82.67   2
  -5  -4  -2  288.86    24.4   2
   5  -4   2  321.41   26.07   2
  -5  -4  -2  324.68    51.6   2
  -5  -4  -3 1193.98   52.31   2
   5  -4   3 1228.54   54.84   2
  -5  -4  -4  156.66   18.67   2
   5  -4   4   156.1   19.76   2
  -5  -4  -4  188.59   39.01   2
  -5  -4  -5  913.13   48.35   2
   5  -4   5  934.58   51.42   2
  -5  -4  -6  201.03   22.93   2
   5  -4   6  223.73   25.85   2
  -5  -4  -6  254.83   44.28   2
  -5  -4  -7  569.38   40.76   2
   5  -4   7  622.91   45.95   2
  -5  -4  -7   692.6   70.15   2
  -5  -4  -8    66.6    14.5   2
  -5  -4  -8  103.08   27.41   2
   5  -4   8   87.25   18.45   2
  -5  -4  -9  310.29   33.31   2
   5  -4   9  335.94   37.68   2
  -5  -4  -9  392.78   52.22   2
  -5  -3  11   52.98   15.04   2
   5  -3 -11   31.11   13.75   2
  -5  -3  10   69.35   17.37   2
  -5  -3  10   87.49   17.28   2
   5  -3 -10  101.13    23.5   2
  -5  -3   9   13.57    6.05   2
  -5  -3   9   21.83    8.27   2
   5  -3  -9   17.18    8.33   2
   5  -3  -9   20.25    5.69   2
  -5  -3   8   86.87   17.53   2
  -5  -3   8    57.2   13.16   2
   5  -3  -8   69.06   18.89   2
   5  -3  -8   86.26   20.12   2
  -5  -3   8    47.7   16.61   2
  -5  -3   7   21.19    8.26   2
  -5  -3   7   13.79    5.39   2
   5  -3  -7    5.99     5.8   2
   5  -3  -7   11.59    4.98   2
   5  -3  -7       4    3.92   2
  -5  -3   7    6.12     8.3   2
  -5  -3   6   74.71   13.25   2
  -5  -3   6   84.67   14.25   2
   5  -3  -6   63.87   14.66   2
   5  -3  -6    83.7   13.95   2
   5  -3  -6  111.58   25.28   2
  -5  -3   6  100.45   28.03   2
  -5  -3   5     3.3    4.22   2
   5  -3  -5    3.89    3.29   2
   5  -3  -5    8.19    4.03   2
   5  -3  -5   -0.34    7.06   2
  -5  -3   5   -2.02   10.85   2
   5  -3  -4   27.35    7.54   2
  -5  -3   4   43.27   12.67   2
   5  -3  -4   38.28    8.77   2
   5  -3  -4   40.74   15.84   2
  -5  -3   4   52.78   17.23   2
   5  -3  -3   14.16    3.84   2
  -5  -3   3   25.63   11.79   2
   5  -3  -3   14.62    4.96   2
   5  -3  -3   20.64   11.99   2
  -5  -3   3   35.83   16.57   2
   5  -3  -2   42.09    6.42   2
  -5  -3   2   15.65    2.22   2
   5  -3  -2   40.95    8.36   2
   5  -3  -2   30.68   13.05   2
  -5  -3   2   54.65   18.37   2
  -5  -3   1   154.1   17.16   2
   5  -3  -1  158.04   17.44   2
  -5  -3   1  148.04   31.81   2
   5  -3  -1  160.23    7.52   2
   5  -3  -1  203.86   35.67   2
  -5  -3   0   59.26   10.54   2
  -5  -3   0   60.71   22.95   2
   5  -3   0    53.3     9.5   2
   5  -3   0   97.46   22.82   2
  -5  -3  -1   55.07   10.14   2
  -5  -3  -1   52.66   20.66   2
   5  -3   1   61.06   10.58   2
   5  -3   1   80.77   21.04   2
  -5  -3  -2   34.22    8.21   2
  -5  -3  -2   37.58   18.59   2
   5  -3   2   35.03    8.86   2
   5  -3   2   20.24    9.28   2
  -5  -3  -3  237.17   22.13   2
   5  -3   3  259.12   23.71   2
   5  -3   3  305.87   38.87   2
  -5  -3  -4  212.44   21.74   2
   5  -3   4  206.18   22.05   2
   5  -3   4  270.41   35.91   2
  -5  -3  -4  246.23   43.37   2
  -5  -3  -5  150.52    19.3   2
   5  -3   5  175.72   21.89   2
  -5  -3  -5  184.37   36.77   2
  -5  -3  -6  118.47   17.76   2
  -5  -3  -6  153.21   32.92   2
   5  -3   6  119.01   18.62   2
  -5  -3  -7  305.26   29.45   2
   5  -3   7  306.69   31.75   2
  -5  -3  -7   369.3   51.36   2
  -5  -3  -8  203.69   25.17   2
   5  -3   8     241   30.23   2
  -5  -3  -8  254.67   42.13   2
  -5  -3  -9  158.88   23.75   2
   5  -3   9  196.72   28.99   2
  -5  -3  -9  241.69    40.9   2
   5  -3   9  225.86   38.21   2
  -5  -2  11  529.63   48.64   2
   5  -2 -11  671.77   64.21   2
  -5  -2  10   39.34   13.93   2
  -5  -2  10   29.61   10.06   2
   5  -2 -10   45.55   19.39   2
  -5  -2   9  900.82    56.7   2
   5  -2  -9 1278.31   76.28   2
   5  -2  -9 1183.18   83.04   2
  -5  -2   9  935.86   59.22   2
  -5  -2   8   46.69   13.08   2
  -5  -2   8   33.32    9.99   2
   5  -2  -8   64.28    20.6   2
   5  -2  -8   48.37   15.36   2
  -5  -2   7  980.28   52.83   2
   5  -2  -7  922.11   50.26   2
   5  -2  -7 1286.17   85.02   2
   5  -2  -7 1309.45   84.57   2
  -5  -2   7  996.21   53.35   2
  -5  -2   6   68.44   13.43   2
   5  -2  -6   78.63   19.92   2
   5  -2  -6   57.04   11.66   2
   5  -2  -6   76.36   23.04   2
  -5  -2   5 1265.55   55.67   2
   5  -2  -5 1247.58   54.28   2
   5  -2  -5 1522.19   99.88   2
   5  -2  -5 1282.96    49.3   2
   5  -2  -5 1436.35      83   2
   5  -2  -4  101.12   15.89   2
  -5  -2   4  108.52   15.34   2
   5  -2  -4   87.51   18.25   2
   5  -2  -4  109.79   15.13   2
   5  -2  -4   103.5   24.85   2
   5  -2  -3  1177.1   67.44   2
   5  -2  -3 1165.16    49.3   2
   5  -2  -3 1159.75   86.12   2
   5  -2  -3 1162.44   61.54   2
   5  -2  -2  112.09   14.35   2
  -5  -2   2  101.55   21.07   2
   5  -2  -2  119.56   27.52   2
   5  -2  -2   132.8   16.39   2
  -5  -2   1  1136.4    46.7   2
  -5  -2   1  1257.9   82.57   2
   5  -2  -1  1099.5   46.46   2
   5  -2  -1 1219.24   82.47   2
   5  -2  -1 1282.81   39.38   2
  -5  -2   0   85.27   12.05   2
   5  -2   0   99.59   13.31   2
  -5  -2   0  112.48   27.14   2
   5  -2   0   75.54   18.88   2
  -5  -2  -1  845.72   39.86   2
   5  -2   1  843.79   40.65   2
  -5  -2  -1  885.43   81.24   2
   5  -2   1  875.05   65.85   2
  -5  -2  -2  123.59   15.41   2
   5  -2   2  114.72   15.39   2
  -5  -2  -2  103.09   27.98   2
   5  -2   2   98.67   21.83   2
  -5  -2  -3  760.86   39.82   2
   5  -2   3  813.88   42.15   2
   5  -2   3  802.13   61.22   2
  -5  -2  -4   53.48   11.18   2
   5  -2   4   58.63   11.52   2
   5  -2   4   57.49   16.37   2
  -5  -2  -5  596.81    37.9   2
   5  -2   5     684   42.05   2
   5  -2   5  661.25   54.89   2
  -5  -2  -6   79.39   14.17   2
  -5  -2  -6  112.19   29.36   2
   5  -2   6   73.03   14.06   2
  -5  -2  -7  487.69   37.65   2
   5  -2   7   480.5   39.16   2
  -5  -2  -7  608.41   65.69   2
   5  -2   7  604.55   62.88   2
  -5  -2  -8   63.53      14   2
   5  -2   8   69.84   17.42   2
   5  -2   8   84.77    24.3   2
  -5  -2  -9  296.51   32.84   2
   5  -2   9  299.64   35.11   2
   5  -2   9  362.67   47.91   2
   5  -2  10   88.92   20.86   2
  -5  -1  11   30.77   10.15   2
   5  -1 -11   64.41   20.38   2
  -5  -1  10   60.93   15.44   2
  -5  -1  10   49.66   14.11   2
   5  -1 -10   72.01   21.02   2
  -5  -1   9   24.16      10   2
  -5  -1   9   20.86    8.93   2
   5  -1  -9   19.94   12.91   2
  -5  -1   9    27.2   11.68   2
   5  -1  -9   38.63   12.54   2
  -5  -1   8    35.2   10.37   2
  -5  -1   8   15.37    6.58   2
   5  -1  -8   32.42   14.01   2
  -5  -1   8   33.62   13.98   2
   5  -1  -8   32.98   13.12   2
  -5  -1   7   10.98     6.1   2
  -5  -1   7    9.48    5.22   2
   5  -1  -7    8.39    2.02   2
  -5  -1   7    9.16    9.66   2
   5  -1  -7    2.34    2.01   2
  -5  -1   6   53.18    11.6   2
   5  -1  -6   59.12   19.79   2
  -5  -1   6   41.95   15.57   2
   5  -1  -6   46.39   10.18   2
   5  -1  -6   49.53   15.98   2
  -5  -1   5   30.36    8.71   2
   5  -1  -5   36.95   13.35   2
  -5  -1   5   24.84   10.23   2
   5  -1  -5   24.34    5.76   2
   5  -1  -5    22.9    7.21   2
   5  -1  -5   41.57   15.98   2
  -5  -1   4   38.48    8.41   2
   5  -1  -4   45.24   14.44   2
   5  -1  -4   36.85     8.6   2
   5  -1  -4   30.31    7.39   2
  -5  -1   4   39.31    14.6   2
   5  -1  -4   36.34    8.48   2
   5  -1  -4   21.65   11.49   2
   5  -1  -3   30.09    6.88   2
  -5  -1   3   26.99    8.05   2
   5  -1  -3   23.45     9.7   2
   5  -1  -3   21.62     8.5   2
  -5  -1   3   29.09   13.35   2
   5  -1  -3   29.99    7.04   2
   5  -1  -3   40.42   14.72   2
   5  -1  -2   27.27    7.96   2
  -5  -1   2   19.62    8.42   2
   5  -1  -2   29.74    7.41   2
   5  -1  -2   16.12    5.67   2
   5  -1  -2    9.25    5.02   2
  -5  -1   1  107.11   13.62   2
   5  -1  -1  130.11   20.01   2
   5  -1  -1   105.8   13.39   2
  -5  -1   1  106.94   23.66   2
   5  -1  -1   72.86   16.31   2
   5  -1  -1  128.94    25.8   2
  -5  -1   0   89.25   12.35   2
   5  -1   0   88.15   13.34   2
   5  -1   0   56.82    16.1   2
  -5  -1   0   71.48   17.83   2
   5  -1   0   83.22   11.69   2
   5  -1   0  100.14   21.81   2
  -5  -1  -1   91.78   12.56   2
   5  -1   1   77.85   11.16   2
   5  -1   1  105.07    6.17   2
   5  -1   1   75.06   18.27   2
   5  -1   1   87.39   10.74   2
  -5  -1  -2   71.13   11.59   2
   5  -1   2   73.53   11.85   2
   5  -1   2    64.7   20.32   2
   5  -1   2   68.81   17.36   2
  -5  -1  -3  257.62   22.66   2
   5  -1   3  328.87   25.78   2
   5  -1   3  260.45   31.87   2
   5  -1   3  265.17   42.91   2
  -5  -1  -4  201.74   20.88   2
   5  -1   4  218.46   21.65   2
   5  -1   4  245.89   41.28   2
   5  -1   4   202.4   28.51   2
  -5  -1  -5  153.45   18.84   2
   5  -1   5  156.26   19.42   2
   5  -1   5  159.75   32.69   2
   5  -1   5  146.45   24.42   2
  -5  -1  -6   85.22   14.63   2
   5  -1   6   76.82   14.56   2
   5  -1   6   89.45   19.52   2
   5  -1   6  100.16    25.6   2
  -5  -1  -7  269.12   27.79   2
   5  -1   7  312.18   31.66   2
   5  -1   7  239.18   31.36   2
  -5  -1  -8  190.65    24.6   2
   5  -1   8  193.84   26.55   2
   5  -1   8   222.1   37.68   2
  -5  -1  -9  198.47   26.66   2
   5  -1   9   171.2   26.24   2
   5  -1   9  218.01   36.56   2
   5  -1  10   67.26   17.56   2
   5   0 -11   546.1   58.73   2
  -5   0  10   47.84   14.78   2
  -5   0  10   28.27    7.99   2
   5   0 -10   24.03    8.83   2
  -5   0   9   956.5   60.47   2
  -5   0   9 1233.89   75.43   2
   5   0  -9 1258.98   78.65   2
   5   0  -9  1192.2   85.51   2
  -5   0   9  931.64   58.28   2
  -5   0   8    8.61    7.16   2
  -5   0   8    7.65    4.64   2
   5   0  -8    4.77    3.44   2
  -5   0   8   12.31   12.77   2
   5   0  -8   -0.47    7.09   2
  -5   0   7  879.72   50.73   2
  -5   0   7  1072.8   74.13   2
   5   0  -7 1155.77   81.53   2
   5   0  -7   721.6   63.66   2
  -5   0   7  871.48   49.45   2
  -5   0   6    30.5    8.77   2
   5   0  -6   27.19   11.87   2
  -5   0   6   37.27   13.31   2
   5   0  -6   24.49     7.5   2
   5   0  -6   36.32   16.79   2
   5   0  -5 1759.72   48.59   2
  -5   0   5 1636.75   64.54   2
  -5   0   5 1601.52   93.26   2
   5   0  -5 1571.28   59.86   2
   5   0  -5 1826.52  107.11   2
   5   0  -5 1639.99   88.24   2
  -5   0   4    6.54    5.11   2
   5   0  -4   10.39    6.06   2
   5   0  -4   -0.16    2.24   2
   5   0  -4    7.98    3.35   2
  -5   0   4   10.45   10.85   2
   5   0  -4     3.6    2.83   2
   5   0  -4   11.08    9.85   2
  -5   0   3 1298.44   53.06   2
   5   0  -3 1327.57   55.69   2
   5   0  -3 1401.59   52.11   2
   5   0  -3 1048.32   49.44   2
  -5   0   3 1403.87   85.72   2
   5   0  -3 1499.02   94.38   2
   5   0  -3  1089.3   60.98   2
  -5   0   2    5.85    3.56   2
   5   0  -2    0.82    2.31   2
   5   0  -2    1.09    0.99   2
  -5   0   2    3.18    6.11   2
   5   0  -2    7.57    3.46   2
   5   0  -1 1875.45   64.12   2
  -5   0   1 1751.06   57.12   2
   5   0  -1 1882.06   58.81   2
  -5   0   1 1898.24   96.29   2
   5   0  -1 2005.23  100.94   2
  -5   0   0    1.15    1.93   2
   5   0   0    3.85    0.92   2
  -5   0   0    1.75    3.07   2
   5   0   0    1.24    1.88   2
   5   0   1 1489.88    43.6   2
  -5   0  -1 1429.71   51.54   2
   5   0   1 1142.98   46.38   2
  -5   0  -1 1510.17    82.3   2
   5   0   1 1492.69   81.59   2
   5   0   1 1162.96   83.44   2
  -5   0  -2   18.12    5.34   2
   5   0   2   22.11     3.7   2
   5   0   2   27.45   11.95   2
   5   0   2   19.46    4.14   2
   5   0   2   21.81    6.63   2
  -5   0  -2   35.92    12.6   2
   5   0   2   28.66    9.98   2
  -5   0  -3 1588.64   58.38   2
   5   0   3 1722.45   40.33   2
   5   0   3  1651.4   82.86   2
   5   0   3 1735.12  111.92   2
  -5   0  -4   17.44    6.16   2
   5   0   4   40.95   17.41   2
   5   0   4   21.38    7.07   2
   5   0   4   30.71    8.76   2
  -5   0  -5  970.87   48.13   2
   5   0   5 1003.35    49.9   2
   5   0   5 1068.42   65.43   2
  -5   0  -6   37.87   10.06   2
   5   0   6   36.67   10.15   2
   5   0   6   41.53   12.64   2
   5   0   6   63.21   19.33   2
  -5   0  -7   736.3   46.08   2
   5   0   7  783.13    49.7   2
  -5   0  -8   66.06    14.4   2
   5   0   8  121.19   27.42   2
   5   0   8  101.73   19.79   2
   5   0   8   99.48    19.6   2
  -5   0  -9  455.78   40.48   2
   5   0   9  489.25   45.27   2
   5   0   9  601.91   61.44   2
   5   0  10  128.31   25.48   2
   5   1 -11    67.9    19.4   2
  -5   1  10   63.65    15.5   2
  -5   1  10   56.74   15.58   2
   5   1 -10   63.09   17.47   2
  -5   1  10   83.78   19.32   2
   5   1 -10   87.56   20.35   2
  -5   1   9   21.44   10.05   2
  -5   1   9    9.02    6.27   2
   5   1  -9    4.61     5.3   2
  -5   1   9   25.29    9.77   2
   5   1  -9   27.14   11.78   2
  -5   1   8   50.39   12.76   2
  -5   1   8   39.28    9.84   2
   5   1  -8   23.35    8.96   2
  -5   1   8    34.4   11.51   2
   5   1  -8   41.45   14.36   2
  -5   1   7   12.71    5.74   2
   5   1  -7   -3.68     8.6   2
  -5   1   7   17.09    8.37   2
   5   1  -7    6.65    5.84   2
  -5   1   6    62.3    12.9   2
   5   1  -6   45.73   13.27   2
  -5   1   6   41.24   15.36   2
   5   1  -6   58.91   18.71   2
  -5   1   5    28.2    9.07   2
   5   1  -5   26.85    8.87   2
  -5   1   5   34.91   15.31   2
   5   1  -5   30.39     7.8   2
   5   1  -5   21.18     4.5   2
   5   1  -5   26.11   12.59   2
   5   1  -4   32.18    6.66   2
  -5   1   4   46.81   10.46   2
   5   1  -4    24.2     9.2   2
   5   1  -4   41.36     7.7   2
  -5   1   4   39.49   12.06   2
   5   1  -4   31.29    7.57   2
   5   1  -4    29.8   13.13   2
  -5   1   3   20.11    5.98   2
   5   1  -3   13.22    3.65   2
   5   1  -3   16.28    6.57   2
   5   1  -3   15.51    4.68   2
  -5   1   3    19.9    9.94   2
   5   1  -3   16.45    4.82   2
   5   1  -3   32.74   13.21   2
  -5   1   2    13.3    5.32   2
  -5   1   2   18.27    6.46   2
   5   1  -2      16    5.65   2
   5   1  -2   17.49     7.2   2
  -5   1   2   20.67   11.25   2
   5   1  -2   14.66    4.91   2
   5   1  -2   17.14    7.79   2
   5   1  -1  108.81   14.17   2
  -5   1   1  103.66   12.91   2
   5   1  -1   89.37   11.82   2
  -5   1   1   120.2   22.65   2
   5   1  -1   95.51   17.18   2
   5   1  -1  135.33   25.67   2
   5   1   0   60.44   15.48   2
   5   1   0    78.5   10.75   2
  -5   1   0   48.09    8.41   2
   5   1   0   44.15    8.43   2
  -5   1   0   76.57   18.36   2
   5   1   0    77.1   18.76   2
  -5   1  -1   89.97   12.33   2
   5   1   1   85.24    20.5   2
   5   1   1     100   10.79   2
   5   1   1   72.15   10.69   2
  -5   1  -1   99.38   19.65   2
   5   1   1    82.1    18.7   2
  -5   1  -2    47.5    9.32   2
   5   1   2   41.47    5.98   2
   5   1   2   62.43   19.56   2
   5   1   2   43.38    7.06   2
   5   1   2   26.31    5.74   2
  -5   1  -2   39.37   11.69   2
   5   1   2   45.14   14.32   2
  -5   1  -3  237.67   21.53   2
   5   1   3  269.92   40.99   2
   5   1   3  202.91   19.41   2
  -5   1  -3  250.12   32.07   2
   5   1   3  263.49    31.7   2
  -5   1  -4  187.95   19.58   2
   5   1   4   156.6   17.86   2
   5   1   4  217.08   38.87   2
  -5   1  -4  225.21   30.21   2
   5   1   4  207.56   28.01   2
  -5   1  -5  166.05   19.53   2
   5   1   5  179.78   34.65   2
   5   1   5  123.61   16.93   2
   5   1   5  129.94   21.88   2
  -5   1  -6   81.21   14.25   2
   5   1   6  119.85   28.39   2
   5   1   6   76.77   14.12   2
   5   1   6   67.21   15.71   2
  -5   1  -7  320.82    30.4   2
   5   1   7  321.04   32.19   2
   5   1   7  282.75   32.78   2
  -5   1  -8  172.54   23.15   2
   5   1   8  241.87   39.57   2
   5   1   8  198.19   27.86   2
   5   1   8  188.86   26.68   2
  -5   1  -9  156.16   24.13   2
   5   1   9  217.51   30.02   2
   5   1   9  220.96   28.38   2
   5   1   9  269.82   41.98   2
   5   1  10    50.4   15.08   2
   5   1  11   236.9   36.37   2
   5   2 -11  650.68   67.35   2
  -5   2  10   10.19    7.43   2
  -5   2  10   16.43    9.89   2
   5   2 -10    5.42    7.43   2
  -5   2  10   19.66    7.98   2
   5   2 -10   23.69    8.87   2
  -5   2   9     919   60.87   2
  -5   2   9 1172.65   75.57   2
   5   2  -9  1259.3   81.49   2
   5   2  -9  974.53   76.76   2
  -5   2   9  921.56   57.18   2
  -5   2   8   37.68    9.69   2
   5   2  -8   40.07   13.19   2
  -5   2   8   60.06   17.28   2
   5   2  -8    43.8   14.46   2
  -5   2   7 1021.06   56.12   2
  -5   2   7 1071.86    75.2   2
   5   2  -7 1209.07   84.96   2
  -5   2   6   43.76   10.82   2
   5   2  -6   28.83    10.6   2
  -5   2   6   54.82    15.8   2
   5   2  -6   60.15    20.4   2
  -5   2   5 1272.47   56.82   2
   5   2  -5  945.49   44.66   2
  -5   2   5 1122.45   77.39   2
   5   2  -5 1337.35   91.03   2
   5   2  -5  1387.1   40.91   2
   5   2  -5  993.94   59.23   2
  -5   2   4  119.47   16.47   2
   5   2  -4   95.24   16.47   2
   5   2  -4   97.74   13.01   2
  -5   2   4  148.22   28.41   2
   5   2  -4  112.35   26.94   2
   5   2  -4  143.59    14.6   2
   5   2  -3  905.69   48.39   2
   5   2  -3 1295.96   50.91   2
  -5   2   3  1174.3   50.46   2
   5   2  -3 1234.44   50.24   2
   5   2  -3  952.04   41.62   2
  -5   2   3 1186.32   77.68   2
   5   2  -3  1221.9   83.94   2
  -5   2   2   94.96   12.08   2
   5   2  -2   69.66   12.73   2
  -5   2   2   79.36   12.27   2
   5   2  -2   69.12   11.83   2
   5   2  -2   68.69    10.3   2
  -5   2   2  104.98   22.53   2
   5   2  -2   80.83   21.41   2
  -5   2   1 1192.85   44.21   2
   5   2  -1 1007.53   43.94   2
   5   2  -1   942.3   52.79   2
   5   2  -1  940.58   39.46   2
  -5   2   1 1259.24    75.8   2
   5   2  -1 1305.94   80.82   2
  -5   2   0  104.86   12.44   2
   5   2   0   99.85   12.57   2
   5   2   0   95.11   11.61   2
   5   2   0   102.3   19.12   2
  -5   2   0  113.88   21.54   2
   5   2   0  121.63   22.77   2
  -5   2  -1   929.3   40.13   2
   5   2   1  818.51    35.1   2
   5   2   1  770.68   35.61   2
   5   2   1  810.67   59.68   2
  -5   2  -1  962.98    63.4   2
   5   2   1 1054.52   66.91   2
  -5   2  -2  105.15   13.46   2
   5   2   2   78.99   11.07   2
  -5   2  -2  114.01   21.35   2
   5   2   2  106.78   10.64   2
   5   2   2  110.66   23.55   2
   5   2   2  112.35   21.13   2
  -5   2  -3  856.97   40.79   2
   5   2   3 1033.01      79   2
  -5   2  -3  887.04   59.57   2
   5   2   3  916.17   59.84   2
   5   2   3  842.28   32.59   2
  -5   2  -4   87.12   13.31   2
   5   2   4      62   11.71   2
  -5   2  -4   76.45   17.13   2
   5   2   4   75.38   22.35   2
   5   2   4   73.86   16.49   2
  -5   2  -5   658.8   39.11   2
   5   2   5  499.33   34.67   2
   5   2   5  739.34    72.4   2
  -5   2  -5  699.57   52.34   2
   5   2   5  560.11   45.94   2
  -5   2  -6   59.96   12.66   2
   5   2   6   57.85   12.85   2
   5   2   6   83.03   23.19   2
   5   2   6   61.14   14.95   2
  -5   2  -7  424.04   34.45   2
   5   2   7  330.51    32.6   2
   5   2   7  390.59   38.16   2
  -5   2  -8   52.92   11.66   2
   5   2   8   58.81   15.13   2
   5   2   8   71.44   21.06   2
   5   2   8   71.76   16.12   2
  -5   2  -9  297.94   32.74   2
   5   2   9  324.54    38.5   2
   5   2   9  410.06   52.19   2
   5   2   9  325.14   33.77   2
   5   2  10   73.39    19.8   2
   5   2  11  137.61   26.45   2
  -5   3  10   38.57   13.04   2
  -5   3  10   65.48   18.62   2
   5   3 -10   47.39   12.93   2
  -5   3  10   83.16   19.53   2
   5   3 -10   67.96   18.09   2
   5   3  -9   15.65    5.76   2
  -5   3   9    8.34    0.79   2
  -5   3   8    27.9    9.33   2
   5   3  -8    53.1   15.32   2
  -5   3   8    48.8   13.54   2
   5   3  -8   61.21   19.25   2
  -5   3   7    31.8   10.59   2
   5   3  -7   51.18   14.93   2
  -5   3   7   23.84       7   2
   5   3  -7   26.72    12.5   2
  -5   3   6   54.63   11.45   2
   5   3  -6   45.38   13.13   2
  -5   3   6   69.79   18.06   2
   5   3  -6   80.54    21.5   2
  -5   3   5   12.21    6.07   2
   5   3  -5    5.76     4.1   2
   5   3  -5   10.08    3.23   2
  -5   3   5   11.44       8   2
   5   3  -5    7.49     3.1   2
  -5   3   4   39.38    9.66   2
   5   3  -4   32.68    9.43   2
   5   3  -4   42.35    8.36   2
  -5   3   4    32.8   11.82   2
   5   3  -4   23.81     6.4   2
  -5   3   3   15.94    6.28   2
   5   3  -3    7.27    1.61   2
   5   3  -3    3.84    1.73   2
  -5   3   3   22.76   11.96   2
   5   3  -3   10.35    5.13   2
   5   3  -3   21.94   11.03   2
  -5   3   2   36.74    7.32   2
  -5   3   2   60.99   11.21   2
   5   3  -2   51.22   10.06   2
   5   3  -2   45.92    8.24   2
  -5   3   2   66.45    17.7   2
   5   3  -2   45.09    9.71   2
   5   3  -2   40.41   13.49   2
  -5   3   1  145.61   14.69   2
   5   3  -1  119.35   14.77   2
   5   3  -1  108.59   17.22   2
   5   3  -1  119.25   13.03   2
  -5   3   1  164.39   27.77   2
   5   3  -1  173.77   29.17   2
  -5   3   0   71.76   10.25   2
   5   3   0   49.34   12.42   2
   5   3   0   75.41   11.11   2
   5   3   0   45.98     8.2   2
  -5   3   0   69.06   18.21   2
   5   3   0   51.84   13.66   2
  -5   3  -1   80.29   11.24   2
   5   3   1   69.11   15.62   2
   5   3   1   55.76     9.1   2
  -5   3  -1    81.7   17.93   2
   5   3   1   81.05   17.97   2
  -5   3  -2   52.22   10.03   2
   5   3   2    48.3   12.77   2
   5   3   2   31.99    6.93   2
  -5   3  -2   34.97   11.04   2
   5   3   2   45.93   13.51   2
  -5   3  -3     250   21.75   2
   5   3   3  270.74   39.69   2
   5   3   3  241.68   20.62   2
  -5   3  -3  272.76   32.63   2
   5   3   3  256.13   30.94   2
  -5   3  -4  195.37   19.96   2
   5   3   4  159.23   18.11   2
   5   3   4  186.06   33.71   2
  -5   3  -4  194.84   27.35   2
   5   3   4  186.93   26.46   2
  -5   3  -5  175.68   19.97   2
   5   3   5  192.12   21.09   2
   5   3   5  164.94   33.17   2
   5   3   5  146.48   23.34   2
  -5   3  -5   126.3   21.42   2
  -5   3  -6   86.54    14.5   2
   5   3   6  115.34   29.39   2
   5   3   6  100.42   17.11   2
  -5   3  -6    83.3   17.39   2
   5   3   6   70.07   16.46   2
  -5   3  -7  315.19   29.93   2
   5   3   7  352.37   34.85   2
   5   3   7  420.43    54.5   2
   5   3   7  342.81   35.17   2
  -5   3  -8  150.99   21.83   2
   5   3   8  195.25   28.39   2
   5   3   8  179.18   24.79   2
  -5   3  -9  188.58   27.04   2
   5   3   9  278.09   44.15   2
   5   3   9  193.39   30.16   2
   5   3  10   54.46    18.1   2
   5   3  11  213.67   36.55   2
   5   4 -10   45.05   15.84   2
  -5   4  10   80.32   21.08   2
   5   4 -10   53.91   15.54   2
  -5   4   9  679.49   53.31   2
  -5   4   9  742.21   64.19   2
   5   4  -9  633.28   59.04   2
  -5   4   8  126.73   21.64   2
   5   4  -8  124.24   24.41   2
  -5   4   8   137.5   28.38   2
   5   4  -7  847.35   59.28   2
  -5   4   7  782.09   50.35   2
  -5   4   7  894.36   72.56   2
  -5   4   6  125.02   18.59   2
   5   4  -6  122.37   20.79   2
  -5   4   6  131.23   27.11   2
  -5   4   5 1191.46   55.69   2
   5   4  -5 1167.49   47.64   2
   5   4  -5  1296.6   42.59   2
  -5   4   5 1229.19   85.22   2
   5   4  -4  198.62   23.28   2
  -5   4   4  230.13   22.74   2
   5   4  -4  172.04   16.85   2
  -5   4   4  248.43   37.33   2
   5   4  -4  256.41   20.03   2
  -5   4   3 1311.02   54.04   2
   5   4  -3 1338.66   47.19   2
  -5   4   3 1261.17   83.09   2
   5   4  -3 1405.08    54.4   2
  -5   4   2  227.01   18.39   2
   5   4  -2  219.98   21.77   2
  -5   4   2  308.18   24.66   2
   5   4  -2  298.08   20.59   2
  -5   4   2  307.59   38.84   2
   5   4  -2  239.24   23.83   2
   5   4  -1 1201.32    58.1   2
  -5   4   1 1121.58   42.61   2
   5   4  -1  1196.4   50.34   2
   5   4  -1 1636.48   49.17   2
  -5   4   1 1620.95   87.58   2
  -5   4   0  197.21   17.02   2
   5   4   0  219.41   26.34   2
   5   4   0  208.15   19.61   2
   5   4   0  267.58   18.88   2
  -5   4   0  273.92   34.45   2
   5   4   1 1444.98   46.97   2
  -5   4  -1 1437.62   78.69   2
   5   4   1 1373.57   79.02   2
  -5   4  -2  202.91   18.75   2
   5   4   2  278.16   34.41   2
   5   4   2  288.27   21.09   2
  -5   4  -2     282   33.56   2
   5   4   2  281.56   34.16   2
  -5   4  -3 1123.19   47.36   2
   5   4   3 1282.82   49.06   2
  -5   4  -3 1158.48   68.44   2
   5   4   3 1173.27    69.9   2
  -5   4  -4  134.42   16.73   2
   5   4   4  155.26   31.12   2
   5   4   4  170.22   18.71   2
  -5   4  -4  148.46   23.54   2
   5   4   4  175.79    26.1   2
  -5   4  -5  863.17   45.16   2
   5   4   5     977   81.55   2
   5   4   5   955.3   49.51   2
  -5   4  -5  726.71   53.04   2
   5   4   5  785.74   55.39   2
  -5   4  -6  182.27   21.73   2
   5   4   6  180.42   34.86   2
   5   4   6  195.07   24.33   2
  -5   4  -6   145.4   23.01   2
   5   4   6  127.96   21.81   2
  -5   4  -7   536.1   39.49   2
   5   4   7  669.72   69.97   2
   5   4   7  554.51   44.57   2
  -5   4  -7  564.24   46.12   2
   5   4   7  619.38   47.87   2
  -5   4  -8   56.74   13.18   2
   5   4   8   75.68    23.6   2
   5   4   8   50.68   13.65   2
   5   4   8   69.32    14.9   2
  -5   4  -9  282.58    33.1   2
   5   4   9  298.75   37.96   2
  -5   5  10   33.43   14.67   2
  -5   5   9   31.72   11.94   2
   5   5  -9   23.12   10.09   2
  -5   5   9   17.45    4.21   2
  -5   5   8   23.34    8.79   2
   5   5  -8   11.22    3.61   2
  -5   5   7      14    5.83   2
   5   5  -7   26.12    9.27   2
  -5   5   7    7.05    5.64   2
  -5   5   6    9.31    3.01   2
   5   5  -6    16.6     8.1   2
  -5   5   6   23.33   10.89   2
  -5   5   5   -0.15     2.4   2
   5   5  -5    4.37    3.49   2
   5   5  -5   15.55    8.39   2
  -5   5   5    8.71    7.68   2
   5   5  -5    0.17    2.23   2
  -5   5   4    7.51    4.43   2
   5   5  -4    3.69    2.12   2
   5   5  -4    1.82     2.1   2
   5   5  -4    4.52    2.94   2
  -5   5   4   11.41    7.44   2
  -5   5   3   13.86    5.45   2
   5   5  -3    6.54    3.56   2
   5   5  -3   10.74    3.14   2
   5   5  -3    13.5    4.97   2
  -5   5   3   22.72      15   2
  -5   5   2    26.5    7.54   2
   5   5  -2   21.46    7.25   2
   5   5  -2   23.42    8.54   2
   5   5  -2   30.76    6.75   2
  -5   5   1   57.76     8.9   2
   5   5  -1   82.26   10.09   2
   5   5  -1   60.37   11.35   2
  -5   5   1   81.78    19.1   2
   5   5  -1    56.7   12.37   2
  -5   5   0   47.18    8.03   2
   5   5   0   79.52    10.1   2
   5   5   0   51.97   12.91   2
  -5   5  -1   49.89    8.77   2
   5   5   1   72.24    9.94   2
  -5   5  -1   75.97    18.1   2
   5   5   1   73.57   16.22   2
  -5   5  -2   46.62     8.6   2
   5   5   2   71.88   10.42   2
  -5   5  -2   59.68   16.14   2
   5   5   2   68.97   17.65   2
  -5   5  -3  269.19   22.37   2
   5   5   3  313.26   39.39   2
   5   5   3  295.56   22.92   2
  -5   5  -3  286.35   33.82   2
   5   5   3  302.21   35.14   2
  -5   5  -4  123.55   15.91   2
   5   5   4  146.95    17.5   2
  -5   5  -4  130.16   21.25   2
   5   5   4  121.21   21.44   2
   5   5   4  149.68   28.51   2
   5   5   5  207.18   38.47   2
  -5   5  -5   154.7   19.09   2
   5   5   5  191.65   22.08   2
  -5   5  -5  155.33   24.27   2
   5   5   5  213.51   28.63   2
   5   5   6  120.83   29.59   2
  -5   5  -6   89.58   15.24   2
   5   5   6   99.41   17.58   2
  -5   5  -6   64.75   15.75   2
   5   5   6   97.45   19.46   2
  -5   5  -7  271.44   27.79   2
   5   5   7  336.02    50.5   2
  -5   5  -7  311.82   33.84   2
   5   5   7  315.78   34.13   2
  -5   5  -8  125.35   19.79   2
  -5   5  -8  165.98   24.49   2
   5   5   8  175.06   24.22   2
   5   5   8  210.02   41.45   2
  -5   5  -9  156.52   24.83   2
  -5   6  10  108.49   23.83   2
  -5   6   9  502.14   46.71   2
   5   6  -9  427.93   45.15   2
   5   6  -8  195.91   28.95   2
  -5   6   8  213.01   27.98   2
  -5   6   8  277.12   42.36   2
   5   6  -7   592.1   47.74   2
  -5   6   7  582.31   43.87   2
   5   6  -6  326.81   33.93   2
  -5   6   6  318.47   30.43   2
   5   6  -6  305.49   24.37   2
  -5   6   6  252.23   40.72   2
   5   6  -5   813.6   50.93   2
  -5   6   5  838.26   47.03   2
   5   6  -5  863.14   39.03   2
   5   6  -5  846.34   38.48   2
  -5   6   5  851.09   76.32   2
   5   6  -4  346.62   30.96   2
  -5   6   4  350.28    29.2   2
   5   6  -4  378.12   24.06   2
   5   6  -4  426.89   28.65   2
  -5   6   4  370.72   49.08   2
  -5   6   3  789.59   42.15   2
   5   6  -3  853.35   34.65   2
  -5   6   3  868.98   72.67   2
   5   6  -3   876.1   44.44   2
   5   6  -2  353.48   29.39   2
  -5   6   2  414.13   29.01   2
   5   6  -2  480.18   24.78   2
  -5   6   2  503.86   52.95   2
   5   6  -2  435.72   33.04   2
  -5   6   1   873.6   35.29   2
   5   6  -1  680.27   40.21   2
   5   6  -1  932.33   34.03   2
  -5   6   1  912.63   69.24   2
   5   6  -1  670.99   44.28   2
  -5   6   0  398.91    23.8   2
   5   6   0  469.69    23.7   2
  -5   6   0  432.22   45.87   2
  -5   6  -1  773.71   35.26   2
   5   6   1  898.82   34.82   2
  -5   6  -1  880.06   63.83   2
   5   6   1  844.76   56.18   2
  -5   6  -2  445.83   43.37   2
   5   6   2  430.86   42.52   2
  -5   6  -3     544   32.19   2
  -5   6  -3  583.91   49.01   2
   5   6   3     636   55.97   2
   5   6   4  287.61   40.66   2
  -5   6  -4   224.5   22.02   2
  -5   6  -4  250.15   31.39   2
   5   6   4   282.6   34.04   2
  -5   6  -5  454.82   32.85   2
  -5   6  -5   468.5   42.72   2
   5   6   5  374.49   39.06   2
  -5   6  -6  152.34   19.95   2
  -5   6  -6  172.63   25.68   2
   5   6   6  186.72   26.74   2
   5   6   6   216.9   39.04   2
  -5   6  -7  238.14   26.57   2
  -5   6  -7  240.15   29.62   2
   5   6   7  254.16   30.85   2
   5   6   7   263.9   45.46   2
  -5   6  -8   64.62   14.85   2
  -5   6  -8   89.36   17.14   2
  -5   6  -9  183.06   26.81   2
  -5   7   9    8.25    6.38   2
  -5   7   8    16.5     7.7   2
   5   7  -8   19.97   10.41   2
  -5   7   8   27.79   11.87   2
  -5   7   7   16.98    5.47   2
   5   7  -7   15.97    6.71   2
  -5   7   7   33.84   12.32   2
  -5   7   6    50.9   11.45   2
   5   7  -6   43.69   11.78   2
  -5   7   6   68.64   22.38   2
  -5   7   5   -0.35    3.27   2
   5   7  -5   -2.78    4.29   2
  -5   7   5    9.25    2.14   2
  -5   7   4   21.18    7.75   2
   5   7  -4   15.22    6.02   2
   5   7  -4   15.75    5.46   2
  -5   7   4   15.16     9.7   2
  -5   7   3   11.48    5.29   2
   5   7  -3   -3.73    3.76   2
   5   7  -3    5.38    3.23   2
  -5   7   3    0.78     5.2   2
  -5   7   2   50.72   10.06   2
   5   7  -2   34.75    9.87   2
   5   7  -2   57.97   12.19   2
  -5   7   2   42.28   16.06   2
  -5   7   1   58.64    8.59   2
   5   7  -1   56.08   12.01   2
   5   7  -1   45.97   10.77   2
  -5   7   1   74.86   19.89   2
  -5   7   0    47.9       8   2
   5   7   0   39.41   10.72   2
  -5   7   0    23.3   10.45   2
  -5   7  -1   90.24   11.68   2
   5   7   1   102.4   19.24   2
  -5   7  -1   94.55   21.14   2
  -5   7  -2   45.19    8.88   2
   5   7   2   33.71   11.83   2
  -5   7  -2   39.13   14.08   2
  -5   7  -3  169.36   17.58   2
  -5   7  -3  181.07   27.54   2
   5   7   3  199.63   31.93   2
  -5   7  -4  112.81   15.06   2
  -5   7  -4  143.31   24.37   2
   5   7   4  165.63   30.47   2
  -5   7  -5  152.65   18.74   2
  -5   7  -5  158.69   25.18   2
   5   7   5  210.78   37.54   2
   5   7   5   188.2   27.55   2
  -5   7  -6   75.99   13.92   2
  -5   7  -6   92.61   19.28   2
   5   7   6   88.53   25.68   2
   5   7   6   87.89   18.67   2
  -5   7  -7  198.53   24.36   2
  -5   7  -7  211.23   28.11   2
   5   7   7  225.94   29.66   2
  -5   7  -8   87.89   16.83   2
  -5   8   8  244.68    30.7   2
   5   8  -7  320.62    35.4   2
  -5   8   7  360.74   34.69   2
  -5   8   7  374.06   53.61   2
   5   8  -6  293.72   32.72   2
  -5   8   6  270.09   28.71   2
  -5   8   6  335.64   51.58   2
   5   8  -5  552.13   43.18   2
  -5   8   5  516.41   37.21   2
  -5   8   5  564.19    66.6   2
   5   8  -4  361.85   33.42   2
  -5   8   4  331.96   28.53   2
   5   8  -4  364.21   29.77   2
  -5   8   4   389.1   54.65   2
   5   8  -3  703.61   45.99   2
  -5   8   3  655.36   39.01   2
   5   8  -3   753.7   45.07   2
  -5   8   3  824.17   77.21   2
   5   8  -2  433.61   34.76   2
  -5   8   2  364.59   27.63   2
   5   8  -2  423.21   35.15   2
  -5   8   2  441.12   53.55   2
   5   8  -1  749.02   45.78   2
  -5   8   1  752.26   68.02   2
  -5   8   0  396.21   46.64   2
   5   8   0   416.9   38.02   2
  -5   8  -1  712.98   60.51   2
   5   8   1   719.7   52.95   2
  -5   8  -2  367.54   24.32   2
  -5   8  -2  364.09   41.98   2
   5   8   2  373.46   40.28   2
  -5   8  -3  542.65   31.89   2
  -5   8  -3  527.28   48.81   2
   5   8   3  566.58   53.07   2
  -5   8  -4  258.03   23.19   2
  -5   8  -4  238.04   31.72   2
   5   8   4   312.9   42.51   2
  -5   8  -5  407.03   31.09   2
  -5   8  -5  388.47   39.93   2
   5   8   5  491.77   57.28   2
  -5   8  -6  209.15   24.05   2
  -5   8  -6  208.25   28.47   2
   5   8   6  199.71   28.81   2
  -5   8  -7  149.18   20.96   2
  -5   8  -7  190.35   27.25   2
   5   8   7  195.81   28.45   2
  -5   8  -8   83.07   16.56   2
  -5   9   7   10.34    4.08   2
  -5   9   6    8.22    6.54   2
  -5   9   5    5.28    4.61   2
   5   9  -5    5.66    4.08   2
   5   9  -4   16.15    6.69   2
  -5   9   4    3.75    4.03   2
   5   9  -4   28.49    9.19   2
  -5   9   4   25.28   17.04   2
  -5   9   3    7.24     3.8   2
   5   9  -3    5.58    3.52   2
   5   9  -3   -1.75    4.43   2
  -5   9   3    1.74    3.84   2
  -5   9   2    15.7    6.33   2
   5   9  -2   16.97    7.39   2
   5   9  -2   20.61    7.97   2
  -5   9   2   16.74    9.87   2
   5   9  -1   25.58    9.09   2
  -5   9   1   49.98   16.71   2
   5   9   0   50.88   13.58   2
  -5   9   0   50.21   19.57   2
   5   9   1   60.93   15.16   2
  -5   9  -1   50.69   15.05   2
   5   9   2      57   16.51   2
  -5   9  -2   49.47   14.37   2
   5   9   3  161.39   28.57   2
  -5   9  -3  147.13    26.4   2
   5   9   4   68.66   17.34   2
  -5   9  -4   79.61   19.39   2
  -5   9  -5   86.93   20.03   2
  -5   9  -6   82.26   18.31   2
  -5  10   6  355.14   33.37   2
  -5  10   5  218.63   24.65   2
  -5  10   4  393.38   31.59   2
   5  10  -4  425.32   35.74   2
   5  10  -3  276.72   30.89   2
  -5  10   3   280.1   25.42   2
   5  10  -3  319.01   32.17   2
   5  10  -2  448.75   39.03   2
   5  10  -2  467.84   40.67   2
  -5  10   2  452.24   59.27   2
   5  10  -1  252.17   30.75   2
  -5  10   1  277.14   43.61   2
   5  10   0  366.73   38.38   2
  -5  10   0  401.85   50.28   2
   5  10   1  273.28   34.38   2
  -5  10  -1  241.86   36.71   2
  -5  10  -2  368.17   44.01   2
   5  10   2  397.61   43.56   2
  -5  10  -3  156.52   27.75   2
  -5  10  -4  271.41   36.49   2
  -5  10  -5  153.58   26.26   2
  -5  10  -6  176.08   27.95   2
   5  11  -3   -1.66    3.56   2
   5  11  -2   22.07    8.77   2
   5  11  -1   30.53   11.65   2
   5  11   0   42.26   13.46   2
  -6 -10   2  242.28   51.03   2
  -6  -9   2    1.46   15.09   2
  -6  -9   1   64.68   24.89   2
  -6  -9   0   29.28   17.56   2
  -6  -9  -1   94.08   34.53   2
  -6  -8   3  474.04   66.17   2
  -6  -8   2  250.43    50.9   2
  -6  -8   1  368.74   65.86   2
  -6  -8   0  256.67   54.57   2
  -6  -8  -1  487.56   76.04   2
  -6  -8  -2  184.34   23.98   2
  -6  -8  -2  206.93   48.73   2
   6  -7  -4   94.07   16.93   2
  -6  -7   4   67.53    22.7   2
  -6  -7   3   52.94   21.45   2
   6  -7  -3   43.54   10.11   2
  -6  -7   3   21.09   12.72   2
  -6  -7   2   36.91   18.86   2
   6  -7  -2  111.77   18.06   2
  -6  -7   2    73.6   25.64   2
  -6  -7   1   14.35    8.23   2
   6  -7  -1   45.34   11.31   2
  -6  -7   1   52.58   20.24   2
   6  -7   0  196.19   23.84   2
  -6  -7   0  179.36   45.75   2
  -6  -7   0  180.36   35.42   2
  -6  -7  -1   85.61   15.87   2
  -6  -7  -1  143.96   44.66   2
   6  -7   1   79.93   14.72   2
  -6  -7  -1  107.58   26.18   2
  -6  -7  -2  203.87   24.62   2
   6  -7   2  182.42   23.86   2
  -6  -7  -2  247.72   54.08   2
  -6  -7  -2  199.29    33.5   2
  -6  -7  -3  134.44   20.03   2
  -6  -7  -3  188.47   46.58   2
  -6  -7  -4  223.71   26.24   2
  -6  -6   6  131.44   32.47   2
   6  -6  -5  688.34   47.34   2
  -6  -6   5  712.54   80.24   2
   6  -6  -4  178.01   23.09   2
  -6  -6   4  183.56   41.51   2
  -6  -6   3  641.33   68.61   2
   6  -6  -3  616.94   42.88   2
  -6  -6   3   700.8   77.04   2
   6  -6  -2   170.2    21.7   2
  -6  -6   2  147.18   34.94   2
  -6  -6   2  205.39   39.68   2
   6  -6  -1  645.97   42.36   2
  -6  -6   1  619.63   79.28   2
  -6  -6   1  663.47    69.1   2
   6  -6   0    92.4   16.34   2
  -6  -6   0  125.52   28.34   2
  -6  -6  -1  450.14    35.5   2
   6  -6   1  465.58   36.05   2
  -6  -6  -1  513.83   77.11   2
  -6  -6  -1  557.24   57.95   2
  -6  -6  -2  113.64   18.07   2
  -6  -6  -2  149.68   40.52   2
   6  -6   2  102.29   17.88   2
  -6  -6  -3  323.27   30.19   2
   6  -6   3  335.51   31.85   2
  -6  -6  -3  399.64   64.56   2
  -6  -6  -4   54.26    11.8   2
  -6  -6  -4   57.32    21.2   2
   6  -6   4   58.19   13.67   2
  -6  -6  -5   249.9   27.82   2
  -6  -5   8  -13.57   11.67   2
  -6  -5   7  130.89   32.85   2
   6  -5  -6   13.91    7.88   2
  -6  -5   6    9.88   11.39   2
   6  -5  -5   32.29   10.47   2
  -6  -5   5   41.05   20.65   2
   6  -5  -4   90.16   16.05   2
  -6  -5   4   57.04    22.9   2
   6  -5  -3   14.93    7.71   2
  -6  -5   3    25.3   15.12   2
  -6  -5   2    64.9   20.63   2
   6  -5  -2   93.86   16.02   2
  -6  -5   2  101.29    27.1   2
  -6  -5   1   28.13   12.85   2
   6  -5  -1   20.64    6.55   2
  -6  -5   1   37.07   14.43   2
  -6  -5   0  239.14   24.74   2
   6  -5   0  235.35   24.89   2
  -6  -5   0   292.1   54.82   2
  -6  -5  -1   33.13    9.37   2
   6  -5   1   22.92    7.43   2
  -6  -5  -2  212.37   23.35   2
   6  -5   2  221.79   24.89   2
  -6  -5  -3  101.48   16.64   2
  -6  -5  -3  120.99   33.99   2
   6  -5   3  113.99   18.26   2
  -6  -5  -4  338.79   31.15   2
   6  -5   4  366.47   33.89   2
  -6  -5  -5   89.58      17   2
  -6  -5  -5  146.88   36.51   2
   6  -5   5  103.84   19.63   2
  -6  -4   8  123.89   21.17   2
  -6  -4   7   433.3   37.48   2
   6  -4  -7  567.12   62.66   2
   6  -4  -7  468.77   39.26   2
   6  -4  -6  126.78   20.13   2
   6  -4  -6  134.12   31.47   2
   6  -4  -5  826.75   49.79   2
   6  -4  -5 1012.81   93.81   2
   6  -4  -4  130.97      19   2
   6  -4  -4  147.23    37.1   2
  -6  -4   3  971.49    70.3   2
   6  -4  -3  925.07   50.36   2
   6  -4  -3  987.21   94.42   2
  -6  -4   2      84   24.13   2
   6  -4  -2   79.87   14.45   2
   6  -4  -2  100.97      31   2
   6  -4  -1 1100.49   53.48   2
  -6  -4   1 1128.35   94.45   2
   6  -4  -1 1160.45   98.51   2
  -6  -4   0   70.58   12.79   2
  -6  -4   0   87.12   26.99   2
   6  -4   0   57.68   11.64   2
  -6  -4  -1  863.31   46.94   2
   6  -4   1  917.31   49.13   2
  -6  -4  -1  948.97   98.29   2
   6  -4   1  925.54   80.96   2
  -6  -4  -2    59.6   11.78   2
  -6  -4  -2   60.46   27.93   2
   6  -4   2   45.49   10.38   2
  -6  -4  -3  880.32   49.31   2
   6  -4   3  969.22   53.11   2
  -6  -4  -4   35.45    10.4   2
  -6  -4  -4   52.99   21.38   2
   6  -4   4   46.11   11.88   2
  -6  -4  -5  540.92   40.33   2
   6  -4   5   592.2   44.46   2
  -6  -4  -6   54.35   13.76   2
  -6  -4  -6   84.37    25.9   2
   6  -4   6   49.85   14.19   2
  -6  -3   8   40.34   12.26   2
   6  -3  -8   61.63   23.88   2
  -6  -3   7   149.8   21.89   2
   6  -3  -7  143.26   21.43   2
  -6  -3   6   77.79   15.76   2
   6  -3  -6   47.21   12.46   2
   6  -3  -6   39.48   12.22   2
   6  -3  -5   53.89   12.43   2
   6  -3  -5   55.59   20.39   2
   6  -3  -4  135.58   18.82   2
   6  -3  -4  184.56   39.71   2
   6  -3  -3   67.04   13.37   2
   6  -3  -3   92.97   30.03   2
  -6  -3   2   298.9   39.53   2
   6  -3  -2  222.61   23.47   2
   6  -3  -2  275.54   46.65   2
  -6  -3   1    5.81    5.54   2
  -6  -3   1   -3.01    4.05   2
   6  -3  -1   -1.24    2.51   2
  -6  -3   0  395.41   30.61   2
   6  -3   0  420.44   31.74   2
  -6  -3   0  378.31   54.82   2
   6  -3   0  460.29   57.13   2
  -6  -3  -1    32.9    8.75   2
  -6  -3  -1   47.89   20.62   2
   6  -3   1   34.38    8.88   2
   6  -3   1   49.44   19.52   2
  -6  -3  -2  346.43   29.29   2
   6  -3   2  310.93   28.19   2
  -6  -3  -2  337.67   58.77   2
   6  -3   2  344.43   46.86   2
  -6  -3  -3  111.46   16.68   2
   6  -3   3  119.31   18.29   2
   6  -3   3  121.58   27.91   2
  -6  -3  -4   446.5   35.06   2
   6  -3   4  407.68   34.79   2
  -6  -3  -4  548.34   73.81   2
   6  -3   4  455.77   51.57   2
  -6  -3  -5   76.48    14.5   2
  -6  -3  -5  118.22   34.93   2
   6  -3   5   97.99   18.22   2
  -6  -3  -6  305.19   31.08   2
   6  -3   6  325.33   33.44   2
   6  -3   7  185.33   26.33   2
   6  -2  -9  828.91   72.08   2
  -6  -2   8   60.44   14.46   2
   6  -2  -8   62.83   14.15   2
  -6  -2   7  679.76   47.44   2
   6  -2  -7  691.25   46.33   2
  -6  -2   6   59.94   13.91   2
   6  -2  -6   64.55   13.43   2
   6  -2  -6   80.04   26.52   2
   6  -2  -5 1284.45   60.46   2
   6  -2  -5 1468.66  110.31   2
   6  -2  -4   73.87   13.47   2
   6  -2  -4   84.64   26.89   2
   6  -2  -3 1053.68   51.47   2
   6  -2  -3 1171.74   97.15   2
   6  -2  -3 1088.43    63.6   2
   6  -2  -2      28    8.72   2
   6  -2  -2   31.13    12.5   2
   6  -2  -2   33.55   19.95   2
  -6  -2   1 1271.26   55.29   2
   6  -2  -1 1293.54   55.99   2
   6  -2  -1 1447.43  101.21   2
  -6  -2   0   16.82     6.9   2
   6  -2   0   -2.52   11.58   2
   6  -2   0    8.85    3.02   2
   6  -2   0   -3.94    8.77   2
  -6  -2  -1 1006.15   49.17   2
   6  -2   1 1063.15   51.35   2
   6  -2   1 1079.72   81.28   2
   6  -2   1  995.65   90.42   2
  -6  -2  -2   23.11    6.99   2
   6  -2   2   10.28     6.3   2
   6  -2   2    9.25    5.56   2
   6  -2   2   28.34   12.29   2
  -6  -2  -3  815.53   46.22   2
   6  -2   3  865.18   48.48   2
   6  -2   3  863.25   69.98   2
  -6  -2  -4   20.65    6.75   2
   6  -2   4    29.1    9.51   2
   6  -2   4   21.07    9.22   2
  -6  -2  -5  534.28   39.32   2
   6  -2   5  564.03   41.88   2
   6  -2   5  588.87   57.26   2
   6  -2   5  661.02   73.82   2
  -6  -2  -6   57.63   13.76   2
   6  -2   6   53.67   13.08   2
   6  -2   6   45.05   20.92   2
  -6  -2  -7  281.18   31.02   2
   6  -2   7  304.62   33.89   2
   6  -1 -10     2.7   10.11   2
   6  -1  -9     165   31.52   2
   6  -1  -9  186.82   32.92   2
  -6  -1   8   33.08   10.75   2
   6  -1  -8   57.26    21.4   2
   6  -1  -8   34.04   10.43   2
   6  -1  -8   47.94   18.54   2
  -6  -1   7   183.9   24.93   2
   6  -1  -7  175.46   22.88   2
  -6  -1   7  263.25   40.68   2
   6  -1  -7  268.31   43.91   2
   6  -1  -7  271.52   41.05   2
  -6  -1   6   69.88   14.69   2
   6  -1  -6  104.63   24.11   2
  -6  -1   6   66.04   21.07   2
   6  -1  -6   76.11   13.68   2
   6  -1  -6   89.08   26.41   2
  -6  -1   5   87.45   15.59   2
   6  -1  -5   99.53   23.03   2
  -6  -1   5   93.52   25.77   2
   6  -1  -5   91.41   15.84   2
   6  -1  -5   93.88   25.39   2
   6  -1  -4  246.32   24.47   2
  -6  -1   4  254.31   41.65   2
   6  -1  -4  239.04   42.56   2
   6  -1  -3   89.08   16.24   2
  -6  -1   3   90.24   25.75   2
   6  -1  -3   73.31   13.11   2
   6  -1  -3   55.98      17   2
   6  -1  -2  299.25   25.93   2
  -6  -1   2  268.95   42.35   2
   6  -1  -2  343.97   49.65   2
   6  -1  -2   265.4   31.47   2
  -6  -1   1    1.54    3.31   2
   6  -1  -1    4.35     2.8   2
   6  -1  -1     1.2       3   2
   6  -1  -1    7.18    2.52   2
  -6  -1   0  509.71    33.7   2
   6  -1   0  520.15   33.95   2
   6  -1   0  532.75   56.09   2
  -6  -1  -1     0.6    2.61   2
   6  -1   1    -2.3   10.11   2
   6  -1   1     6.4    3.05   2
   6  -1   1    6.09    5.67   2
  -6  -1  -2  371.45   29.55   2
   6  -1   2  371.91   29.84   2
   6  -1   2  411.68   46.95   2
   6  -1   2  371.84   53.26   2
  -6  -1  -3   123.7   17.24   2
   6  -1   3   82.82   24.74   2
   6  -1   3   108.3   16.67   2
   6  -1   3   122.7   25.95   2
  -6  -1  -4  487.77   35.83   2
   6  -1   4  514.21   37.73   2
   6  -1   4  527.13   53.08   2
   6  -1   4  610.11   71.67   2
  -6  -1  -5   90.86   16.49   2
   6  -1   5  108.49   30.65   2
   6  -1   5   70.16   13.84   2
   6  -1   5   66.61   18.44   2
  -6  -1  -6  271.38   28.58   2
   6  -1   6  285.43   30.37   2
   6  -1   6  339.83   42.34   2
   6  -1   6   337.1   52.48   2
  -6  -1  -7  189.73   25.02   2
   6  -1   7  179.78    25.5   2
   6  -1   7  218.48   33.32   2
   6  -1   7  189.34    38.5   2
   6  -1   8  343.33   37.88   2
   6   0 -10   27.97   14.68   2
  -6   0   9  541.56    55.4   2
   6   0  -9  546.06   57.01   2
   6   0  -9  549.54      60   2
  -6   0   8    80.1   16.73   2
   6   0  -8  109.36   26.12   2
  -6   0   8   87.45   22.59   2
   6   0  -8   87.16   16.59   2
   6   0  -8   86.03   24.32   2
  -6   0   7  623.12   46.07   2
  -6   0   7  677.09   66.75   2
   6   0  -7  622.93   42.94   2
   6   0  -7   824.1   76.77   2
   6   0  -7  735.88   68.88   2
  -6   0   6   32.58    10.6   2
   6   0  -6   16.07   10.73   2
  -6   0   6   31.58   14.04   2
   6   0  -6   21.18    7.74   2
   6   0  -6    8.99   10.17   2
  -6   0   5 1027.17   55.33   2
   6   0  -5  984.66   51.35   2
  -6   0   5 1006.03   83.14   2
   6   0  -5 1252.45   98.97   2
   6   0  -5 1163.58   82.09   2
  -6   0   4   76.25   13.95   2
   6   0  -4   76.01   19.47   2
  -6   0   4   72.73   20.84   2
   6   0  -4   73.27   13.44   2
   6   0  -4   55.83   19.64   2
   6   0  -3 1247.84   58.81   2
   6   0  -3 1168.01   52.73   2
  -6   0   3 1223.53   90.75   2
   6   0  -3 1319.08   98.94   2
   6   0  -3 1438.29   82.46   2
  -6   0   2    2.59    3.88   2
   6   0  -2    2.02    2.03   2
   6   0  -2    1.81    4.89   2
   6   0  -2   14.34   14.13   2
  -6   0   1 1464.89   57.85   2
   6   0  -1 1509.95   58.88   2
  -6   0   1 1494.82   96.68   2
   6   0  -1 1502.77   80.03   2
   6   0  -1  1733.3   105.1   2
  -6   0   0    2.17    2.66   2
   6   0   0    8.36    3.18   2
   6   0   0   13.15    4.38   2
  -6   0   0   16.87    8.48   2
   6   0   0   10.48    9.06   2
  -6   0  -1 1340.67   55.52   2
   6   0   1 1337.49   55.98   2
  -6   0  -1 1467.52   90.86   2
   6   0   1 1220.05    87.9   2
   6   0   1 1510.83   91.62   2
  -6   0  -2    13.6    2.92   2
   6   0   2   10.27    8.57   2
   6   0   2   22.61    7.71   2
   6   0   2   17.86    6.24   2
  -6   0  -3 1165.93   54.43   2
   6   0   3 1236.04   56.16   2
   6   0   3 1212.15   78.83   2
   6   0   3  1187.7   97.28   2
  -6   0  -4   22.34     9.6   2
   6   0   4   13.37     2.6   2
   6   0   4   12.69    6.24   2
   6   0   4   12.31    8.36   2
  -6   0  -5   805.7   48.44   2
   6   0   5  821.26   49.56   2
   6   0   5  914.82   68.06   2
   6   0   5  976.47   88.79   2
  -6   0  -6   65.65   14.41   2
   6   0   6    84.7   25.84   2
   6   0   6   68.15   14.52   2
   6   0   6    76.1   20.13   2
  -6   0  -7  455.68   38.79   2
   6   0   7  540.12    44.3   2
   6   0   7  531.52   51.88   2
   6   0   8   93.91   20.62   2
   6   0   8   78.06   19.87   2
   6   1 -10    4.17    1.56   2
   6   1  -9  149.72   32.33   2
  -6   1   9     178   33.38   2
   6   1  -9  135.85   21.57   2
   6   1  -9  212.26   36.51   2
  -6   1   8   24.02   11.36   2
   6   1  -8   32.48   11.86   2
  -6   1   8   31.41   16.02   2
   6   1  -8   19.94    7.43   2
   6   1  -8   40.82   15.26   2
  -6   1   7  176.79   24.76   2
   6   1  -7  163.35   30.36   2
   6   1  -7  153.91   20.55   2
  -6   1   7  207.88    36.6   2
   6   1  -7  231.53   40.89   2
  -6   1   6   44.88   11.48   2
   6   1  -6   50.11    14.2   2
  -6   1   6    68.4   21.68   2
   6   1  -6   40.19   10.38   2
   6   1  -6   60.45   19.24   2
  -6   1   5   86.21   16.02   2
   6   1  -5  106.93   21.63   2
  -6   1   5   92.51   25.61   2
   6   1  -5   93.19   14.89   2
   6   1  -5  101.75   26.37   2
  -6   1   4  191.73   23.09   2
   6   1  -4  188.16   20.73   2
  -6   1   4  179.53   34.31   2
   6   1  -4  252.67   44.09   2
   6   1  -4  210.27   28.99   2
   6   1  -3   57.44   11.16   2
   6   1  -3   60.96   13.59   2
  -6   1   3   88.54   23.84   2
   6   1  -3    65.7   12.02   2
   6   1  -3   77.74   23.13   2
   6   1  -2  200.32   24.46   2
   6   1  -2   159.7   18.18   2
  -6   1   2   224.8   36.74   2
   6   1  -2  184.65   35.93   2
   6   1  -2  196.96   23.73   2
  -6   1   1    8.49    5.06   2
   6   1  -1     8.2    7.49   2
   6   1  -1    3.49    4.09   2
  -6   1   1   -0.52    4.38   2
   6   1  -1    0.46    5.74   2
  -6   1   0  417.74   29.42   2
   6   1   0  329.71   26.21   2
   6   1   0  326.48   38.34   2
  -6   1   0   418.2   48.61   2
   6   1   0  457.06   50.34   2
  -6   1  -1   -4.37    3.79   2
   6   1   1     1.9    2.35   2
  -6   1  -1    6.53    8.74   2
   6   1   1    -1.6    1.04   2
   6   1   1    1.88    8.79   2
  -6   1  -2  323.18   26.59   2
   6   1   2     249   23.63   2
   6   1   2  412.59   51.83   2
  -6   1  -2  372.87   44.17   2
   6   1   2  400.63   45.12   2
   6   1   3  133.69   30.62   2
  -6   1  -3  104.73   15.59   2
   6   1   3   66.77    12.3   2
  -6   1  -3  145.07   26.83   2
   6   1   3  114.41   24.48   2
  -6   1  -4  500.24   36.03   2
   6   1   4   362.9   31.01   2
   6   1   4  502.47   62.75   2
   6   1   4  495.83   48.93   2
   6   1   5    77.4    24.9   2
  -6   1  -5   88.05   15.74   2
   6   1   5   86.96   15.87   2
   6   1   5   79.39   20.45   2
  -6   1  -6  236.61   26.63   2
   6   1   6  276.88   29.32   2
   6   1   6  271.92   36.52   2
   6   1   6  292.85   49.11   2
  -6   1  -7   196.3   25.45   2
   6   1   7  186.46   26.16   2
   6   1   7  203.89   31.05   2
   6   1   8  327.81   36.91   2
   6   1   8  307.28   38.49   2
   6   1   9  101.96   22.29   2
  -6   2   9  734.03   66.24   2
   6   2  -9  559.23   44.35   2
   6   2  -9  828.26   72.25   2
   6   2  -9  633.68   66.11   2
  -6   2   8  103.05   20.66   2
   6   2  -8   74.34   20.46   2
  -6   2   8   87.57   23.56   2
   6   2  -8   65.89    13.5   2
   6   2  -8   86.27   23.48   2
  -6   2   7  710.38   49.98   2
   6   2  -7  642.18   43.03   2
  -6   2   7  762.38      70   2
   6   2  -7   826.6   68.36   2
  -6   2   6   64.58    14.8   2
   6   2  -6   38.28   10.49   2
  -6   2   6   40.79   14.23   2
   6   2  -6   54.28   10.94   2
   6   2  -6   72.92    24.4   2
  -6   2   5  1195.5      60   2
   6   2  -5  932.07   48.88   2
  -6   2   5 1161.94   89.09   2
   6   2  -5 1256.11   99.68   2
   6   2  -5 1229.52   73.25   2
  -6   2   4   72.88   13.81   2
   6   2  -4   83.87    17.8   2
  -6   2   4   107.1    26.1   2
   6   2  -4   59.52   11.44   2
   6   2  -4   81.37   24.67   2
   6   2  -3 1013.78   57.05   2
   6   2  -3 1118.62   52.11   2
  -6   2   3 1151.26   86.45   2
   6   2  -3 1172.13   92.23   2
   6   2  -2   36.42     9.9   2
   6   2  -2   29.46    8.65   2
   6   2  -2   31.95    7.79   2
  -6   2   2   19.48    8.38   2
   6   2  -2    28.5   12.09   2
   6   2  -1  1382.4   58.06   2
  -6   2   1 1153.78    49.5   2
   6   2  -1  954.82   58.27   2
   6   2  -1  913.87   44.06   2
  -6   2   1  1337.1    87.8   2
   6   2  -1 1397.73   93.61   2
  -6   2   0   18.39    4.83   2
   6   2   0     3.3    5.41   2
   6   2   0   13.73    4.99   2
   6   2   0   14.75    4.29   2
  -6   2   0   27.32   11.98   2
   6   2   0   12.68    7.82   2
  -6   2  -1   954.7   45.17   2
   6   2   1 1148.89   76.22   2
  -6   2  -1 1066.18   75.49   2
   6   2   1 1106.78   77.05   2
  -6   2  -2    9.16    4.06   2
   6   2   2    9.21    4.96   2
  -6   2  -2    8.37    5.86   2
   6   2   2    8.03    2.67   2
  -6   2  -3  749.91   42.54   2
   6   2   3  724.53   41.65   2
   6   2   3  820.69   76.02   2
  -6   2  -3     829   64.55   2
   6   2   3  785.17    62.3   2
  -6   2  -4   12.28    7.36   2
   6   2   4    9.23    5.16   2
   6   2   4   -0.29    7.62   2
  -6   2  -4   20.53    8.54   2
   6   2   4   20.18   10.64   2
  -6   2  -5  468.51   35.87   2
   6   2   5  533.75   39.15   2
   6   2   5  536.94   65.52   2
   6   2   5  520.75   49.69   2
  -6   2  -6   39.47   10.95   2
   6   2   6   51.32   13.61   2
   6   2   6   50.84   13.62   2
   6   2   6   66.01   18.03   2
  -6   2  -7  250.42   28.48   2
   6   2   7  296.27    33.5   2
   6   2   7  365.62   54.48   2
   6   2   7  311.89   37.97   2
   6   2   8   31.46   11.53   2
   6   2   8   41.02   13.61   2
   6   2   9  180.89   29.45   2
   6   3  -9     120   26.74   2
  -6   3   9  160.52   31.87   2
   6   3  -9  170.43   32.69   2
   6   3  -8   30.56   13.29   2
  -6   3   8   33.66   15.84   2
   6   3  -8   24.93    7.47   2
   6   3  -8   28.04    9.38   2
  -6   3   7  172.47   24.48   2
   6   3  -7  156.88   28.67   2
   6   3  -7  141.43   19.93   2
  -6   3   7  135.51   29.62   2
   6   3  -7  217.67   40.08   2
  -6   3   6   67.28   14.95   2
   6   3  -6   41.41   12.29   2
  -6   3   6   60.76   20.97   2
   6   3  -6   63.18    12.4   2
   6   3  -6   75.43    26.6   2
  -6   3   5   39.64   10.63   2
   6   3  -5   39.98   11.77   2
  -6   3   5   24.97   15.26   2
   6   3  -5   38.56    9.52   2
   6   3  -5    65.3   22.89   2
   6   3  -4  173.01   24.92   2
  -6   3   4   169.5   21.64   2
   6   3  -4  174.57   19.45   2
  -6   3   4  154.32   31.13   2
   6   3  -4   154.4   32.29   2
  -6   3   3   48.22   11.37   2
   6   3  -3   51.42   12.59   2
   6   3  -3   59.45   11.12   2
  -6   3   3   53.86   17.57   2
   6   3  -3      64   11.51   2
   6   3  -3   77.68    21.7   2
   6   3  -2  269.29   27.25   2
   6   3  -2  256.16   26.23   2
   6   3  -2  224.68   21.17   2
  -6   3   2  223.63   36.89   2
   6   3  -2  307.45   45.73   2
   6   3  -1    2.11    1.53   2
  -6   3   1    5.48    3.83   2
   6   3  -1    5.23    2.81   2
   6   3  -1    6.82    3.01   2
  -6   3   1     6.6    3.02   2
  -6   3   0  404.79   28.23   2
   6   3   0  458.59   31.85   2
   6   3   0  332.03   35.91   2
   6   3   0  437.24   29.17   2
  -6   3   0  457.46   50.37   2
   6   3   0  467.62    52.4   2
  -6   3  -1   28.33    7.28   2
   6   3   1    9.11    4.05   2
   6   3   1   34.01    8.15   2
   6   3   1   29.05     7.3   2
  -6   3  -1   42.14   16.33   2
   6   3   1   30.74    13.4   2
  -6   3  -2   339.5   27.32   2
   6   3   2  388.79   45.98   2
   6   3   2  382.47   28.41   2
  -6   3  -2  333.55   40.87   2
   6   3   2  413.31   45.71   2
  -6   3  -3  113.76   16.19   2
   6   3   3  167.96   32.73   2
   6   3   3  140.57   17.77   2
  -6   3  -3  131.42    24.9   2
   6   3   3  145.22   26.17   2
  -6   3  -4  466.47   34.53   2
   6   3   4  502.08    60.5   2
   6   3   4  509.72   36.53   2
  -6   3  -4  494.53   49.35   2
   6   3   4  482.68   48.44   2
  -6   3  -5   64.05   13.32   2
   6   3   5   57.51   23.01   2
   6   3   5   98.41   16.68   2
  -6   3  -5   73.21   18.26   2
   6   3   5  112.66   23.73   2
  -6   3  -6   293.4   29.32   2
   6   3   6   334.9      34   2
   6   3   6  345.31    53.1   2
   6   3   6  348.45   39.92   2
  -6   3  -7  160.75   22.84   2
   6   3   7  171.44   25.83   2
   6   3   7  168.26   27.56   2
   6   3   8  303.89   37.12   2
   6   3   8  304.05   36.45   2
  -6   4   9   447.3   54.72   2
   6   4  -9  497.85   59.51   2
   6   4  -9  463.31   53.59   2
   6   4  -8  125.55   25.82   2
  -6   4   8  105.84   27.89   2
   6   4  -8  116.91   18.78   2
   6   4  -8  142.56   32.73   2
  -6   4   7  528.72   44.25   2
   6   4  -7  491.18   36.67   2
  -6   4   7  582.74   64.13   2
   6   4  -7  641.85   70.99   2
   6   4  -7  555.19   52.45   2
  -6   4   6  119.92   19.23   2
   6   4  -6  118.63   22.56   2
   6   4  -6  109.56    16.5   2
  -6   4   6  117.29   27.49   2
   6   4  -6  107.67   29.03   2
   6   4  -5  774.91    55.1   2
  -6   4   5  768.42   48.33   2
   6   4  -5  787.02   42.88   2
  -6   4   5  834.86   76.69   2
   6   4  -5  796.32      81   2
   6   4  -4  162.92   23.76   2
  -6   4   4  146.42   20.45   2
   6   4  -4  149.82   17.42   2
  -6   4   4  149.57   30.67   2
   6   4  -4  166.72   36.09   2
   6   4  -3  887.25   53.18   2
  -6   4   3  927.08   50.08   2
   6   4  -3  912.34      43   2
  -6   4   3  903.84   77.71   2
   6   4  -3   917.5   82.68   2
   6   4  -3  992.01   49.94   2
   6   4  -2   98.98   14.11   2
   6   4  -2   103.3   16.82   2
  -6   4   2   105.1   24.55   2
   6   4  -2   81.45   14.91   2
   6   4  -2   71.73    21.8   2
   6   4  -1 1100.46   60.34   2
  -6   4   1  947.46   43.72   2
   6   4  -1 1097.95   54.21   2
   6   4  -1 1029.54   44.42   2
  -6   4   1 1070.05   80.28   2
   6   4  -1 1053.82   83.32   2
  -6   4   0    91.8   12.78   2
   6   4   0  118.86   16.82   2
   6   4   0  105.43   13.75   2
  -6   4   0  101.08   24.33   2
   6   4   0   96.65   18.67   2
   6   4   0  161.91   30.73   2
  -6   4  -1  807.96   41.09   2
   6   4   1   903.3   64.43   2
   6   4   1  901.44   45.98   2
   6   4   1  917.07   42.83   2
  -6   4  -1  895.62   69.28   2
   6   4   1  946.21   73.49   2
   6   4   2   50.51   14.28   2
  -6   4  -2    51.4    10.5   2
   6   4   2   51.62   10.14   2
  -6   4  -2   52.11   16.48   2
   6   4   2   42.23   12.58   2
  -6   4  -3  767.13   42.86   2
   6   4   3  890.85   75.51   2
   6   4   3  886.21   45.72   2
  -6   4  -3  866.23   66.25   2
   6   4   3  801.57   64.42   2
  -6   4  -4   32.69    9.84   2
   6   4   4   21.57   10.72   2
   6   4   4   28.63    7.62   2
  -6   4  -4   31.26   11.42   2
   6   4   4   42.85   15.59   2
  -6   4  -5  463.92   35.93   2
   6   4   5  550.39   66.25   2
   6   4   5  556.09   40.78   2
  -6   4  -5  504.02   49.15   2
   6   4   5  593.77   53.41   2
  -6   4  -6   55.13    12.8   2
   6   4   6   44.71   22.48   2
  -6   4  -6   46.41   15.64   2
   6   4   6    55.3   16.35   2
  -6   4  -7  254.81   28.55   2
   6   4   7  295.92   36.54   2
   6   4   8   66.22      17   2
   6   5  -9   61.69   14.75   2
   6   5  -8   -1.69    8.24   2
  -6   5   8    2.68   10.07   2
   6   5  -8    8.28    6.21   2
   6   5  -8   -4.97   10.19   2
   6   5  -7   77.71   19.78   2
  -6   5   7  111.27   30.39   2
   6   5  -7   75.17   13.76   2
   6   5  -7  121.41   31.43   2
  -6   5   6   12.62    6.91   2
   6   5  -6   13.82    7.79   2
  -6   5   6    8.91    9.45   2
   6   5  -6   12.12    6.47   2
  -6   5   5   18.74    7.86   2
   6   5  -5   25.11    10.1   2
   6   5  -5   16.93    6.42   2
  -6   5   5   18.36   16.91   2
  -6   5   4   32.61    9.97   2
   6   5  -4   45.88   12.58   2
   6   5  -4   41.21    8.81   2
  -6   5   4     7.5    6.01   2
  -6   5   3   17.52    7.15   2
   6   5  -3    2.87    2.76   2
   6   5  -3   13.18    4.52   2
   6   5  -3   18.31    5.93   2
  -6   5   3   14.32   13.06   2
   6   5  -3    6.13    1.33   2
   6   5  -2   60.33   12.94   2
   6   5  -2   68.21   14.28   2
   6   5  -2   73.12   11.65   2
  -6   5   2   73.43   23.42   2
   6   5  -2   73.87   23.64   2
  -6   5   1   47.51    9.69   2
   6   5  -1   38.38    9.54   2
   6   5  -1   39.78     8.4   2
  -6   5   1   59.89    20.7   2
   6   5  -1   36.91   11.53   2
   6   5  -1    39.7    16.6   2
  -6   5   0  181.97   18.23   2
   6   5   0  199.65   22.43   2
  -6   5   0  186.06   32.89   2
   6   5   0  181.34    33.2   2
   6   5   0  190.71    26.9   2
  -6   5  -1   24.17    6.77   2
   6   5   1   38.51    9.57   2
  -6   5  -1   27.08   11.31   2
   6   5   1    16.4     5.6   2
   6   5   1   29.67   13.24   2
  -6   5  -2  173.84   19.16   2
  -6   5  -2  141.21   27.16   2
   6   5   2  201.04   31.54   2
   6   5   2  205.71   32.85   2
  -6   5  -3  131.58   17.58   2
  -6   5  -3  148.26    26.7   2
   6   5   3  148.24   26.81   2
   6   5   3  141.39   29.78   2
  -6   5  -4  329.54   28.85   2
   6   5   4  408.68   53.61   2
  -6   5  -4  372.19   42.45   2
   6   5   4  379.84   43.96   2
  -6   5  -5   97.24   16.13   2
  -6   5  -5     113   22.87   2
   6   5   5  100.71   22.53   2
   6   5   5   94.22   26.13   2
  -6   5  -6  218.58   25.47   2
   6   5   6  264.33   35.76   2
  -6   5  -6  186.39    29.1   2
  -6   5  -7  115.53   19.09   2
  -6   5  -7  141.38   25.26   2
   6   5   7  135.73   24.93   2
   6   6  -7   494.3   48.09   2
  -6   6   6  142.16   21.52   2
   6   6  -6   140.4   24.38   2
  -6   6   6  189.11   39.95   2
   6   6  -5  688.08   51.88   2
  -6   6   5  662.99   45.33   2
  -6   6   5  665.47   73.72   2
   6   6  -4  204.35   26.69   2
  -6   6   4  201.39   23.42   2
  -6   6   4  262.94   44.61   2
   6   6  -3  651.21   47.04   2
  -6   6   3   620.5   40.91   2
  -6   6   3   711.9    71.8   2
   6   6  -3  715.29   43.63   2
   6   6  -2  210.08   25.02   2
  -6   6   2  208.93   37.57   2
   6   6  -2  192.42   23.85   2
  -6   6   1  565.07   32.45   2
   6   6  -1  591.55   41.62   2
  -6   6   1  579.52   60.28   2
   6   6  -1  602.14   44.98   2
  -6   6   0  139.26   15.78   2
   6   6   0   152.4   20.48   2
   6   6   0  161.48   24.41   2
  -6   6   0  148.75   28.96   2
  -6   6  -1  452.28   29.85   2
   6   6   1  511.18   37.38   2
  -6   6  -1  463.33   51.02   2
   6   6   1  510.75   54.95   2
   6   6   1  520.15   47.95   2
  -6   6  -2  112.61   15.17   2
  -6   6  -2   142.5   27.47   2
   6   6   2  152.89   27.78   2
   6   6   2  130.56   26.52   2
  -6   6  -3  311.85    26.9   2
  -6   6  -3   363.8   42.32   2
   6   6   3  350.01   42.78   2
   6   6   3  353.97   45.43   2
  -6   6  -4  100.52   15.62   2
  -6   6  -4   96.71   21.67   2
   6   6   4   88.28   23.86   2
   6   6   4  104.19   22.97   2
  -6   6  -5  234.13   25.35   2
  -6   6  -5  258.39   35.43   2
   6   6   5  271.37   36.35   2
  -6   6  -6   61.37   13.53   2
  -6   6  -6   56.61   16.65   2
   6   6   6  103.77   22.15   2
  -6   6  -7  138.57   21.61   2
  -6   6  -7  124.58   23.52   2
   6   6   7  134.19   24.78   2
   6   7  -6   58.38   15.37   2
  -6   7   5   10.88    2.05   2
   6   7  -5   16.71     6.6   2
  -6   7   4   73.43   14.62   2
   6   7  -4   82.16   17.07   2
  -6   7   4   92.72   30.65   2
  -6   7   3   48.61   11.28   2
   6   7  -3    46.8   10.91   2
   6   7  -3   37.54   10.53   2
  -6   7   3   16.31   14.95   2
   6   7  -2  127.35   20.42   2
   6   7  -2  113.75   18.59   2
  -6   7   2  115.98   28.37   2
   6   7  -1   54.18   12.28   2
   6   7  -1   91.51   18.11   2
  -6   7   1   59.59   19.44   2
   6   7   0  198.05   24.36   2
  -6   7   0  202.56   34.86   2
   6   7   0  216.07   28.55   2
   6   7   1   92.83   20.38   2
  -6   7  -1   62.64      19   2
  -6   7  -2  236.15   22.16   2
  -6   7  -2  258.66   37.16   2
   6   7   2  255.96   37.46   2
   6   7   2  251.36    36.6   2
  -6   7  -3   138.2   17.69   2
  -6   7  -3  153.05   28.59   2
   6   7   3   136.6   27.02   2
   6   7   3  150.66    28.4   2
  -6   7  -4  280.43   26.77   2
  -6   7  -4  259.59   36.14   2
   6   7   4  271.63    37.4   2
  -6   7  -5   90.93   15.34   2
  -6   7  -5  111.31   23.24   2
   6   7   5    84.2   20.27   2
  -6   7  -6  222.86   25.84   2
  -6   7  -6  178.45   28.83   2
   6   7   6  240.53   34.32   2
  -6   8   5  350.71   33.11   2
   6   8  -4  229.34   29.47   2
  -6   8   4  237.38   26.06   2
   6   8  -3  379.96   36.64   2
  -6   8   3  374.71   31.88   2
   6   8  -2   292.8   31.97   2
   6   8  -2  262.65   30.18   2
   6   8  -1   394.7   36.45   2
   6   8  -1  383.62   37.35   2
   6   8   0  237.62   27.95   2
   6   8   0  291.14   34.27   2
   6   8   1  392.42   42.25   2
  -6   8  -2  238.97   37.52   2
   6   8   2  233.79   33.71   2
  -6   9   4    8.48    5.34   2
   6   9  -2   19.52    8.95   2
   6   9  -2    29.7   13.83   2
   6   9  -1   72.64   17.82   2
   6   9  -1   71.15   16.38   2
   6   9   0   37.47   12.14   2
   6   9   0   39.13   11.76   2
   6   9   1  103.98   21.66   2
  -7  -7   1  134.85   41.11   2
  -7  -7   0  258.97   58.03   2
  -7  -6   1  264.91    50.5   2
  -7  -6   0   98.87   35.13   2
  -7  -6  -1  151.63   41.87   2
  -7  -5   1   38.32    18.1   2
  -7  -5   0  275.44   52.62   2
  -7  -5  -1  129.15   38.73   2
  -7  -5  -2  230.74   52.71   2
  -7  -4   0   95.92   28.53   2
  -7  -4  -1  284.39   55.06   2
  -7  -4  -2   93.05   35.61   2
  -7  -4  -3  177.17   47.01   2
   7  -3  -5  121.71   37.72   2
   7  -3  -4  297.91   57.05   2
   7  -3  -3   70.98   14.62   2
   7  -3  -3  106.63   34.76   2
   7  -3  -2  192.74   24.71   2
   7  -3  -2  286.14   54.17   2
   7  -3  -1   55.49   12.65   2
   7  -3  -1   61.13   16.17   2
   7  -3  -1    79.4   27.99   2
  -7  -3   0  309.29   30.35   2
   7  -3   0  328.33    31.9   2
   7  -3   0  401.26   59.02   2
   7  -3   0  403.58   57.51   2
   7  -3   1   51.23   16.59   2
   7  -3   1   68.67   13.93   2
   7  -3   2  294.19   30.78   2
   7  -3   2   309.1   54.28   2
   7  -3   3    52.5   20.73   2
   7  -2  -6   52.59   22.37   2
   7  -2  -5  547.76   74.26   2
   7  -2  -4   47.72   11.55   2
   7  -2  -4   73.51   24.68   2
   7  -2  -3  311.11   30.22   2
   7  -2  -3  396.36   62.81   2
   7  -2  -2   43.58   10.87   2
   7  -2  -2   46.69   20.35   2
   7  -2  -1  330.97    30.5   2
   7  -2  -1  388.72   58.32   2
   7  -2  -1   323.8   43.45   2
  -7  -2   0   38.39   10.92   2
   7  -2   0   27.35    8.89   2
   7  -2   0   53.81   21.51   2
   7  -2   0   46.55   17.04   2
  -7  -2  -1  192.37   23.31   2
   7  -2   1  255.78   46.58   2
   7  -2   1  235.86    26.2   2
   7  -2   1  220.54   39.22   2
  -7  -2  -2    20.7    8.06   2
   7  -2   2   17.12    8.38   2
   7  -2   2   25.63    8.91   2
   7  -2   3  141.53   35.81   2
   7  -2   3  163.41   22.73   2
   7  -1  -6   92.74   30.38   2
   7  -1  -5   55.64   14.45   2
   7  -1  -5   36.84    15.5   2
   7  -1  -4  170.29   22.15   2
   7  -1  -4  216.29   46.05   2
   7  -1  -3   43.72   11.17   2
   7  -1  -3   76.59   25.23   2
   7  -1  -2  202.25   24.15   2
   7  -1  -2  257.19   47.59   2
   7  -1  -1    9.08    8.45   2
   7  -1  -1   -0.27    3.84   2
   7  -1  -1   17.88   12.56   2
  -7  -1   0  329.56   30.04   2
   7  -1   0  335.78   31.09   2
   7  -1   0  415.59   57.08   2
   7  -1   0   318.9   44.15   2
  -7  -1  -1   16.22    7.04   2
   7  -1   1    9.52    7.51   2
   7  -1   1   12.63    5.13   2
  -7  -1  -2  282.33   28.28   2
   7  -1   2  324.05   31.37   2
   7  -1   2  316.55   50.86   2
   7  -1   2  346.38   47.93   2
   7  -1   3   -0.07    4.03   2
   7  -1   3    4.96    2.92   2
   7  -1   4  467.85   39.87   2
   7  -1   4  468.81   66.41   2
  -7   0   7  209.47   39.35   2
  -7   0   6   81.14    24.3   2
   7   0  -6   75.36   25.82   2
   7   0  -5  260.47   28.05   2
  -7   0   5  284.04   49.41   2
   7   0  -5  371.96   58.42   2
  -7   0   4   94.22   28.68   2
   7   0  -4   64.48   13.97   2
   7   0  -4  113.87   31.95   2
   7   0  -3  241.25   26.17   2
  -7   0   3  289.12   48.65   2
   7   0  -3   269.7   48.62   2
  -7   0   2   41.89    18.5   2
   7   0  -2   39.16   10.08   2
   7   0  -2    25.3   10.61   2
  -7   0   1  305.02   28.91   2
   7   0  -1  290.53    27.7   2
   7   0  -1  322.29    38.2   2
   7   0  -1  349.42   51.96   2
  -7   0   0   56.99   12.21   2
   7   0   0   42.27   10.05   2
   7   0   0   59.38   18.84   2
   7   0   0   56.32   22.31   2
  -7   0  -1  211.12   23.82   2
   7   0   1  222.54   24.96   2
   7   0   1  231.26    38.7   2
   7   0   1  227.21   38.35   2
   7   0   2   33.62   11.21   2
  -7   0  -2   31.83    9.84   2
   7   0   2    35.2   10.01   2
   7   0   2    38.7   15.64   2
   7   0   3  223.59   44.68   2
  -7   0  -3  177.35    22.8   2
   7   0   3  203.02   25.38   2
   7   0   3  221.77   36.76   2
   7   0   4    2.82    4.98   2
   7   0   4   13.68    8.49   2
   7   0   5  163.35   23.84   2
  -7   1   6   89.78   25.69   2
   7   1  -6   87.61   16.14   2
  -7   1   5   41.55    19.5   2
   7   1  -5      49   12.18   2
   7   1  -5   53.45   20.49   2
   7   1  -4  137.56    19.9   2
  -7   1   4  175.87   37.76   2
   7   1  -4   163.8   39.38   2
  -7   1   3   86.94   27.19   2
   7   1  -3   75.47   14.51   2
   7   1  -3   112.4    32.6   2
   7   1  -2  178.04   21.75   2
  -7   1   2   208.2   40.34   2
   7   1  -2  206.78   41.26   2
  -7   1   1   11.78    7.04   2
   7   1  -1   10.84    6.12   2
   7   1  -1    8.97     3.5   2
  -7   1   1   12.98    2.82   2
   7   1  -1   -3.42    10.7   2
  -7   1   0  261.05   26.04   2
   7   1   0  328.46   40.96   2
   7   1   0  293.65   28.07   2
  -7   1   0  354.91   49.57   2
   7   1   0  311.36    47.2   2
  -7   1  -1   14.23    5.44   2
   7   1   1   10.24    7.92   2
   7   1   1   16.97    6.31   2
  -7   1  -1    24.6   12.66   2
   7   1   1   25.91   14.17   2
  -7   1  -2  262.87   26.72   2
   7   1   2  276.37   28.47   2
   7   1   2  342.11   47.02   2
   7   1   2  298.91   45.44   2
  -7   1  -3    6.14    4.17   2
   7   1   3   -0.72    3.04   2
   7   1   3   15.83    5.37   2
   7   1   3   10.33   10.89   2
   7   1   4  415.74   36.85   2
   7   1   4   407.4   60.63   2
   7   1   5    1.12    3.28   2
   7   1   6  328.55   35.71   2
   7   2  -6   22.86    8.77   2
   7   2  -5  419.04   34.85   2
  -7   2   4   59.11   25.56   2
   7   2  -4   44.13   11.09   2
   7   2  -4   48.83   21.34   2
   7   2  -3  323.87   29.27   2
  -7   2   3  393.91   56.27   2
   7   2  -3  365.79   56.79   2
   7   2  -2   20.61    7.88   2
  -7   2   2   12.88     6.8   2
   7   2  -2   24.65   13.83   2
  -7   2   1  350.13   29.72   2
   7   2  -1  343.27   36.49   2
   7   2  -1  352.37   29.85   2
  -7   2   1  338.27   50.88   2
   7   2  -1  342.67    51.8   2
  -7   2   0   28.23    8.73   2
   7   2   0   22.62    9.44   2
   7   2   0   41.91    10.1   2
  -7   2   0   40.72   18.78   2
   7   2   0   69.69   24.04   2
  -7   2  -1  214.13   23.57   2
   7   2   1  263.65   37.93   2
   7   2   1  232.07   24.69   2
   7   2   1  287.93   44.24   2
  -7   2  -1  241.59   39.89   2
  -7   2  -2   14.06    7.36   2
   7   2   2   24.89   13.23   2
   7   2   2   14.31    5.42   2
  -7   2  -2   27.17   11.52   2
   7   2   2   12.48    9.15   2
  -7   2  -3  163.34   21.88   2
   7   2   3  176.28   22.99   2
   7   2   3  204.94   39.62   2
   7   2   4   11.56    4.94   2
   7   2   5  124.38   20.83   2
   7   2   6   12.12    7.95   2
   7   3  -7   100.9   18.55   2
   7   3  -6  137.83   20.02   2
   7   3  -5   85.39   15.58   2
   7   3  -4  217.35    24.1   2
   7   3  -3   96.32   16.29   2
   7   3  -2  273.15   25.81   2
  -7   3   1   68.96   12.93   2
   7   3  -1   84.55   13.95   2
  -7   3   1   94.79   25.79   2
   7   3  -1  111.91   28.91   2
   7   3  -1   79.48    17.5   2
  -7   3   0  385.03    31.2   2
   7   3   0  385.96   41.33   2
   7   3   0  438.46   33.28   2
  -7   3   0  462.43   56.93   2
   7   3   0  459.83   57.01   2
   7   3   1   72.01   19.06   2
  -7   3  -1   66.72   12.67   2
   7   3   1   57.27   12.47   2
  -7   3  -2  333.99   29.96   2
   7   3   2   388.4   48.78   2
   7   3   2  385.33   32.85   2
  -7   3  -3   39.76   10.46   2
   7   3   3   27.83   12.52   2
  -7   4   1   209.3   22.58   2
   7   4  -1  239.14   29.78   2
  -7   4   0    67.2   12.48   2
   7   4   0   83.37   19.18   2
   7   4   1  251.32   36.11   2
  -7   4  -1  221.51   23.69   2
  -7   4  -2   51.43   10.97   2
   7   4   2   60.59   18.17   2
   7   4   3  205.21   37.22   2
  -7   4  -3  163.23   21.48   2
  -7   4  -4   63.22   14.29   2
   7   5  -1   93.43   19.43   2
  -7   5   0  192.83   21.39   2
   7   5   0   223.8   31.01   2
  -7   5  -1   89.77   14.86   2
   7   5   1   94.16   21.13   2
   7   5   2  237.41   36.78   2
  -7   5  -2  197.92   22.73   2
  -7   5  -3   57.45   12.75   2
  -7   5  -4  246.44   27.38   2
   7   6  -1  231.15   29.84   2
   7   6   0   79.29   18.77   2
   7   6   1  199.87    31.5   2
   7   7   0  284.57   35.48   2
   0   0   0    0.00    0.00   2
;
_shelx_hkl_checksum              52694
loop_
_space_group_symop_operation_xyz
'x, y, z'
'-x, y+1/2, -z'
loop_
_atom_site_label
_atom_site_type_symbol
_atom_site_fract_x
_atom_site_fract_y
_atom_site_fract_z
_atom_site_U_iso_or_equiv
_atom_site_adp_type
_atom_site_occupancy
_atom_site_site_symmetry_order
_atom_site_calc_flag
_atom_site_refinement_flags_posn
_atom_site_refinement_flags_adp
_atom_site_refinement_flags_occupancy
_atom_site_disorder_assembly
_atom_site_disorder_group
Pb1 Pb 0.51299(6) 0.49321(3) 0.51464(3) 0.01829(12) Uani 1 1 d . . . . .
Pb2 Pb 0.40401(6) 0.46599(4) 1.00283(3) 0.02225(13) Uani 1 1 d . . . . .
Cl1 Cl 0.9031(4) 0.5397(3) 1.0356(3) 0.0292(6) Uani 1 1 d . . . . .
Cl2 Cl 0.6184(5) 0.2437(3) 0.9816(3) 0.0337(7) Uani 1 1 d . . . . .
Cl3 Cl 0.5066(5) 0.4738(4) 0.2605(2) 0.0383(7) Uani 1 1 d . . . . .
Cl4 Cl 0.0139(4) 0.4724(3) 0.5232(3) 0.0422(9) Uani 1 1 d . . . . .
Cl5 Cl 0.4714(6) 0.2473(3) 0.5270(4) 0.0434(8) Uani 1 1 d . . . . .
Cl6 Cl 0.5488(6) 0.5099(4) 0.7616(3) 0.0468(9) Uani 1 1 d . . . . .
C1 C -0.015(3) 0.1968(13) 0.6999(12) 0.041(3) Uani 1 1 d . . . . .
H1A H -0.134357 0.163750 0.747025 0.062 Uiso 1 1 calc R U . . .
H1B H 0.053241 0.135458 0.654610 0.062 Uiso 1 1 calc R U . . .
H1C H -0.083580 0.255173 0.648043 0.062 Uiso 1 1 calc R U . . .
N1 N 0.1681(18) 0.2526(10) 0.7777(9) 0.034(2) Uani 1 1 d . . . . .
H1D H 0.221775 0.199092 0.829258 0.041 Uiso 1 1 calc R U . . .
H1E H 0.286609 0.273886 0.734183 0.041 Uiso 1 1 calc R U . . .
N2 N 0.0913(17) 0.3530(9) 0.8403(9) 0.031(2) Uani 1 1 d . . . . .
H2A H 0.031805 0.403919 0.794494 0.037 Uiso 1 1 d R U . . .
H2B H -0.011554 0.330990 0.886027 0.037 Uiso 1 1 d R U . . .
C2 C -0.064(3) 0.2321(13) 1.3023(15) 0.051(4) Uani 1 1 d . . . . .
H20A H -0.160311 0.178640 1.256607 0.077 Uiso 1 1 calc R U . . .
H20B H -0.154329 0.267684 1.361947 0.077 Uiso 1 1 calc R U . . .
H20C H 0.065078 0.189727 1.338670 0.077 Uiso 1 1 calc R U . . .
N3 N 0.026(2) 0.3245(11) 1.2254(10) 0.042(3) Uani 1 1 d . . . . .
H3A H -0.095401 0.366236 1.196896 0.050 Uiso 1 1 calc R U . . .
H3B H 0.114910 0.372983 1.269287 0.050 Uiso 1 1 calc R U . . .
N4 N 0.1584(19) 0.2858(10) 1.1285(9) 0.036(2) Uani 1 1 d . . . . .
H4A H 0.270170 0.244631 1.154856 0.043 Uiso 1 1 d R U . . .
H4B H 0.077625 0.244486 1.081214 0.043 Uiso 1 1 d R U . . .
loop_
_atom_site_aniso_label
_atom_site_aniso_U_11
_atom_site_aniso_U_22
_atom_site_aniso_U_33
_atom_site_aniso_U_23
_atom_site_aniso_U_13
_atom_site_aniso_U_12
Pb1 0.01885(18) 0.0180(2) 0.01810(19) 0.00074(15) 0.00104(13) -0.00041(13)
Pb2 0.0230(2) 0.0227(2) 0.0210(2) -0.00141(14) 0.00012(14) 0.00110(15)
Cl1 0.0209(11) 0.0262(14) 0.0403(16) -0.0038(12) 0.0007(11) -0.0005(10)
Cl2 0.0275(15) 0.0205(13) 0.054(2) 0.0011(13) 0.0069(13) 0.0026(13)
Cl3 0.0421(14) 0.0491(19) 0.0236(14) -0.0050(13) -0.0006(11) -0.0021(18)
Cl4 0.0238(13) 0.037(2) 0.066(2) 0.0065(16) 0.0030(14) 0.0027(14)
Cl5 0.0421(17) 0.0188(15) 0.070(3) 0.0005(16) 0.0094(15) 0.0002(16)
Cl6 0.0512(19) 0.071(3) 0.0184(13) 0.0032(16) 0.0031(12) -0.004(2)
C1 0.051(9) 0.047(8) 0.024(7) -0.005(6) -0.011(6) -0.018(7)
N1 0.032(5) 0.037(6) 0.033(6) -0.003(5) 0.005(4) 0.001(5)
N2 0.028(5) 0.031(6) 0.033(6) -0.010(4) -0.003(4) 0.001(4)
C2 0.064(11) 0.040(8) 0.051(10) 0.009(7) 0.024(8) -0.007(8)
N3 0.041(6) 0.039(6) 0.046(7) -0.003(5) 0.008(6) 0.002(5)
N4 0.038(6) 0.038(6) 0.033(6) -0.003(5) 0.009(5) -0.005(5)
loop_
_atom_type_symbol
_atom_type_description
_atom_type_scat_dispersion_real
_atom_type_scat_dispersion_imag
_atom_type_scat_source
C C 0.0033 0.0016 'International Tables Vol C Tables 4.2.6.8 and 6.1.1.4'
H H 0.0000 0.0000 'International Tables Vol C Tables 4.2.6.8 and 6.1.1.4'
N N 0.0061 0.0033 'International Tables Vol C Tables 4.2.6.8 and 6.1.1.4'
Cl Cl 0.1484 0.1585 'International Tables Vol C Tables 4.2.6.8 and 6.1.1.4'
Pb Pb -3.3944 10.1111 'International Tables Vol C Tables 4.2.6.8 and 6.1.1.4'
loop_
_geom_angle_atom_site_label_1
_geom_angle_atom_site_label_2
_geom_angle_atom_site_label_3
_geom_angle
_geom_angle_site_symmetry_1
_geom_angle_site_symmetry_3
_geom_angle_publ_flag
Cl5 Pb1 Cl6 91.10(12) . . ?
Cl5 Pb1 Cl4 80.21(10) . . ?
Cl6 Pb1 Cl4 90.20(10) . . ?
Cl5 Pb1 Cl4 90.20(10) . 1_655 ?
Cl6 Pb1 Cl4 86.53(9) . 1_655 ?
Cl4 Pb1 Cl4 169.82(14) . 1_655 ?
Cl5 Pb1 Cl3 88.69(12) . . ?
Cl6 Pb1 Cl3 176.52(9) . . ?
Cl4 Pb1 Cl3 93.19(9) . . ?
Cl4 Pb1 Cl3 89.99(9) 1_655 . ?
Cl5 Pb1 Cl5 172.953(18) . 2_656 ?
Cl6 Pb1 Cl5 95.43(12) . 2_656 ?
Cl4 Pb1 Cl5 97.09(10) . 2_656 ?
Cl4 Pb1 Cl5 92.82(10) 1_655 2_656 ?
Cl3 Pb1 Cl5 84.94(12) . 2_656 ?
Cl2 Pb2 Cl6 86.02(11) . . ?
Cl2 Pb2 Cl3 92.43(11) . 1_556 ?
Cl6 Pb2 Cl3 149.88(10) . 1_556 ?
Cl2 Pb2 Cl1 80.97(8) . . ?
Cl6 Pb2 Cl1 76.40(9) . . ?
Cl3 Pb2 Cl1 73.66(9) 1_556 . ?
Cl2 Pb2 Cl1 132.55(8) . 1_455 ?
Cl6 Pb2 Cl1 111.88(9) . 1_455 ?
Cl3 Pb2 Cl1 91.17(8) 1_556 1_455 ?
Cl1 Pb2 Cl1 144.55(11) . 1_455 ?
Pb2 Cl1 Pb2 144.55(11) . 1_655 ?
Pb1 Cl3 Pb2 169.02(12) . 1_554 ?
Pb1 Cl4 Pb1 169.82(14) . 1_455 ?
Pb1 Cl5 Pb1 165.84(15) . 2_646 ?
Pb1 Cl6 Pb2 155.26(14) . . ?
N1 C1 H1A 109.5 . . ?
N1 C1 H1B 109.5 . . ?
H1A C1 H1B 109.5 . . ?
N1 C1 H1C 109.5 . . ?
H1A C1 H1C 109.5 . . ?
H1B C1 H1C 109.5 . . ?
N2 N1 C1 114.4(10) . . ?
N2 N1 H1D 108.7 . . ?
C1 N1 H1D 108.7 . . ?
N2 N1 H1E 108.7 . . ?
C1 N1 H1E 108.7 . . ?
H1D N1 H1E 107.6 . . ?
N1 N2 H2A 111.4 . . ?
N1 N2 H2B 108.2 . . ?
H2A N2 H2B 108.2 . . ?
N3 C2 H20A 109.5 . . ?
N3 C2 H20B 109.5 . . ?
H20A C2 H20B 109.5 . . ?
N3 C2 H20C 109.5 . . ?
H20A C2 H20C 109.5 . . ?
H20B C2 H20C 109.5 . . ?
N4 N3 C2 116.6(12) . . ?
N4 N3 H3A 108.1 . . ?
C2 N3 H3A 108.1 . . ?
N4 N3 H3B 108.1 . . ?
C2 N3 H3B 108.1 . . ?
H3A N3 H3B 107.3 . . ?
N3 N4 H4A 108.4 . . ?
N3 N4 H4B 111.7 . . ?
H4A N4 H4B 108.2 . . ?
loop_
_geom_bond_atom_site_label_1
_geom_bond_atom_site_label_2
_geom_bond_distance
_geom_bond_site_symmetry_2
_geom_bond_publ_flag
Pb1 Cl5 2.803(4) . ?
Pb1 Cl6 2.819(3) . ?
Pb1 Cl4 2.873(2) . ?
Pb1 Cl4 2.876(2) 1_655 ?
Pb1 Cl3 2.903(3) . ?
Pb1 Cl5 2.922(4) 2_656 ?
Pb2 Cl2 2.818(3) . ?
Pb2 Cl6 2.945(3) . ?
Pb2 Cl3 2.971(3) 1_556 ?
Pb2 Cl1 2.986(3) . ?
Pb2 Cl1 3.026(3) 1_455 ?
Pb2 Cl5 3.170(3) . ?
C1 N1 1.488(16) . ?
C1 H1A 0.9600 . ?
C1 H1B 0.9600 . ?
C1 H1C 0.9600 . ?
N1 N2 1.423(14) . ?
N1 H1D 0.8900 . ?
N1 H1E 0.8900 . ?
N2 H2A 0.8411 . ?
N2 H2B 0.8399 . ?
C2 N3 1.471(18) . ?
C2 H20A 0.9600 . ?
C2 H20B 0.9600 . ?
C2 H20C 0.9600 . ?
N3 N4 1.434(14) . ?
N3 H3A 0.8900 . ?
N3 H3B 0.8900 . ?
N4 H4A 0.8376 . ?
N4 H4B 0.8389 . ?
loop_
_geom_hbond_atom_site_label_D
_geom_hbond_atom_site_label_H
_geom_hbond_atom_site_label_A
_geom_hbond_distance_DH
_geom_hbond_distance_HA
_geom_hbond_distance_DA
_geom_hbond_angle_DHA
_geom_hbond_site_symmetry_A
_geom_hbond_publ_flag
N1 H1D Cl1 0.89 2.50 3.254(12) 143.1 2_647 yes
N1 H1E Cl5 0.89 2.64 3.403(11) 144.0 . yes
N2 H2B Cl2 0.84 2.62 3.437(11) 166.1 1_455 yes
N3 H3A Cl1 0.89 2.69 3.317(12) 128.2 1_455 yes
N3 H3A Cl3 0.89 2.71 3.458(12) 142.5 1_456 yes
N3 H3B Cl3 0.89 2.52 3.244(12) 138.5 1_556 yes
N4 H4B Cl1 0.84 2.68 3.369(11) 140.3 2_647 yes
N4 H4B Cl2 0.84 2.82 3.489(12) 137.8 1_455 yes
