#------------------------------------------------------------------------------
#$Date: 2019-11-22 22:28:59 +0200 (Fri, 22 Nov 2019) $
#$Revision: 231432 $
#$URL: file:///home/coder/svn-repositories/cod/cif/4/00/32/4003211.cif $
#------------------------------------------------------------------------------
#
# This file is available in the Crystallography Open Database (COD),
# http://www.crystallography.net/
#
# All data on this site have been placed in the public domain by the
# contributors.
#
data_4003211
loop_
_publ_author_name
'Boal, Ben W.'
'Schmidt, Joel E.'
'Deimund, Mark A.'
'Deem, Michael W.'
'Henling, Lawrence M.'
'Brand, Stephen K.'
'Zones, Stacey I.'
'Davis, Mark E.'
_publ_section_title
;
 Facile Synthesis and Catalysis of Pure-Silica and Heteroatom LTA
;
_journal_issue                   22
_journal_name_full               'Chemistry of Materials'
_journal_page_first              7774
_journal_paper_doi               10.1021/acs.chemmater.5b03579
_journal_volume                  27
_journal_year                    2015
_chemical_formula_moiety         '0.08(O24 Si12), 0.08(F)'
_chemical_formula_sum            'F0.08 O2 Si'
_chemical_formula_weight         61.69
_space_group_crystal_system      cubic
_space_group_IT_number           221
_space_group_name_Hall           '-P 4 2 3'
_space_group_name_H-M_alt        'P m -3 m'
_atom_sites_solution_primary     direct
_atom_sites_solution_secondary   difmap
_audit_creation_date             2015-07-31
_audit_creation_method
;
Olex2 1.2
(compiled 2015.01.26 svn.r3150 for OlexSys, GUI svn.r4998)),
 SHELXL-2014,
 and manual edit
;
_cell_angle_alpha                90
_cell_angle_beta                 90
_cell_angle_gamma                90
_cell_formula_units_Z            24
_cell_length_a                   11.813(3)
_cell_length_b                   11.813(3)
_cell_length_c                   11.813(3)
_cell_measurement_reflns_used    9972
_cell_measurement_temperature    100
_cell_measurement_theta_max      47.73
_cell_measurement_theta_min      2.44
_cell_volume                     1648.5(7)
_computing_cell_refinement       'SAINT v8.34A (Bruker-AXS, 2007)'
_computing_data_collection       'APEX2 2014.11-0 (Bruker-AXS, 2007)'
_computing_data_reduction        'SAINT V8.34A (Bruker-AXS, 2007)'
_computing_molecular_graphics    'DIAMOND 3 (Crystal Impact, 1999)'
_computing_publication_material  'Olex2 (Dolomanov et al., 2009)'
_computing_structure_refinement
;
SHELXL-2014/7 (Sheldrick, 2014)
PLATON-30715 SQUEEZE (Spek, 2015)  
;
_computing_structure_solution    'XT-2014/4 (Sheldrick, 2012)'
_diffrn_ambient_temperature      100
_diffrn_detector                 'CMOS Area Detector'
_diffrn_detector_area_resol_mean 10.24
_diffrn_detector_type            'Bruker PHOTON 100 CMOS'
_diffrn_measured_fraction_theta_full 0.991
_diffrn_measured_fraction_theta_max 0.986
_diffrn_measurement_device       '\k-geometry diffractometer'
_diffrn_measurement_device_type  'Bruker D8 VENTURE Kappa Duo PHOTON 100 CMOS'
_diffrn_measurement_method       '\f and \w scans'
_diffrn_radiation_monochromator  'multilayer mirrors'
_diffrn_radiation_type           MoK\a
_diffrn_radiation_wavelength     0.71073
_diffrn_reflns_av_R_equivalents  0.0535
_diffrn_reflns_av_unetI/netI     0.0332
_diffrn_reflns_Laue_measured_fraction_full 0.991
_diffrn_reflns_Laue_measured_fraction_max 0.986
_diffrn_reflns_limit_h_max       14
_diffrn_reflns_limit_h_min       -17
_diffrn_reflns_limit_k_max       24
_diffrn_reflns_limit_k_min       -19
_diffrn_reflns_limit_l_max       18
_diffrn_reflns_limit_l_min       -22
_diffrn_reflns_number            25900
_diffrn_reflns_point_group_measured_fraction_full 0.991
_diffrn_reflns_point_group_measured_fraction_max 0.986
_diffrn_reflns_theta_full        25.000
_diffrn_reflns_theta_max         47.986
_diffrn_reflns_theta_min         2.987
_diffrn_source                   'I\mS HB micro-focus sealed tube'
_diffrn_source_current           1
_diffrn_source_power             0.05
_diffrn_source_type              'Incoatech I\mS HB'
_diffrn_source_voltage           50
_diffrn_standards_number         0
_exptl_absorpt_coefficient_mu    0.552
_exptl_absorpt_correction_T_max  1.0000
_exptl_absorpt_correction_T_min  0.8819
_exptl_absorpt_correction_type   multi-scan
_exptl_absorpt_process_details   'SADABS-2014/5 (Sheldrick, 2014)'
_exptl_crystal_colour            colourless
_exptl_crystal_colour_primary    colourless
_exptl_crystal_density_diffrn    1.491
_exptl_crystal_density_method    'not measured'
_exptl_crystal_description       block
_exptl_crystal_F_000             738
_exptl_crystal_size_max          0.08
_exptl_crystal_size_mid          0.07
_exptl_crystal_size_min          0.05
_refine_diff_density_max         0.814
_refine_diff_density_min         -1.019
_refine_diff_density_rms         0.131
_refine_ls_extinction_method     none
_refine_ls_goodness_of_fit_ref   1.099
_refine_ls_hydrogen_treatment    undef
_refine_ls_matrix_type           full
_refine_ls_number_parameters     24
_refine_ls_number_reflns         1599
_refine_ls_number_restraints     0
_refine_ls_restrained_S_all      1.099
_refine_ls_R_factor_all          0.0623
_refine_ls_R_factor_gt           0.0497
_refine_ls_shift/su_max          0.001
_refine_ls_shift/su_mean         0.000
_refine_ls_structure_factor_coef Fsqd
_refine_ls_weighting_details
'w=1/[\s^2^(Fo^2^)+(0.0541P)^2^+1.7885P] where P=(Fo^2^+2Fc^2^)/3'
_refine_ls_weighting_scheme      calc
_refine_ls_wR_factor_gt          0.1145
_refine_ls_wR_factor_ref         0.1188
_reflns_Friedel_coverage         0.000
_reflns_number_gt                1330
_reflns_number_total             1599
_reflns_threshold_expression     'I > 2\s(I)'
_iucr_refine_instructions_details
;

    p15133.res created by SHELXL-2014/7

TITL p15133_a.res in Pm-3m
REM Old TITL p15133 in Pm-3m
REM SHELXT solution in Pm-3m
REM R1 0.096, Rweak 0.007, Alpha 0.031, Orientation as input
REM Formula found by SHELXT: N3 O16 Si8
CELL 0.71073 11.813 11.813 11.813 90 90 90
ZERR 24 0.003 0.003 0.003 0 0 0
LATT 1
SYMM -X,-Y,+Z
SYMM -X,+Y,-Z
SYMM +X,-Y,-Z
SYMM +Z,+X,+Y
SYMM +Z,-X,-Y
SYMM -Z,-X,+Y
SYMM -Z,+X,-Y
SYMM +Y,+Z,+X
SYMM -Y,+Z,-X
SYMM +Y,-Z,-X
SYMM -Y,-Z,+X
SYMM +Y,+X,-Z
SYMM -Y,-X,-Z
SYMM +Y,-X,+Z
SYMM -Y,+X,+Z
SYMM +X,+Z,-Y
SYMM -X,+Z,+Y
SYMM -X,-Z,-Y
SYMM +X,-Z,+Y
SYMM +Z,+Y,-X
SYMM +Z,-Y,+X
SYMM -Z,+Y,+X
SYMM -Z,-Y,-X
SFAC F O Si
UNIT 2.02 48 24
 
L.S. 25 0 6
PLAN  20
SIZE 0.05 0.07 0.08
TEMP -173.15
BOND $H
MORE -1
CONF
ABIN
fmap -2
acta 50
OMIT 2 2 2
REM <olex2.extras>
REM <HklSrc "%.\\p15133.hkl">
REM </olex2.extras>
 
WGHT    0.054100    1.788500
FVAR       0.14461
SI1   3    0.500000    0.870418    0.317377    10.50000    0.00238    0.00174 =
         0.00210   -0.00013    0.00000    0.00000
O1    2    0.500000    0.796642    0.203358    10.25000    0.00717    0.00330 =
         0.00330   -0.00201    0.00000    0.00000
O2    2    0.613426    0.839500    0.386574    10.50000    0.00824    0.01390 =
         0.00824   -0.00534   -0.00590    0.00534
O3    2    0.500000    1.000000    0.274635    10.25000    0.02369    0.00098 =
         0.00791    0.00000    0.00000    0.00000
F1    1    0.500000    1.000000    0.500000     0.04213    0.01011    0.01214 =
         0.01011    0.00000    0.00000    0.00000
HKLF 4
 
REM  p15133_a.res in Pm-3m
REM R1 =  0.0497 for    1330 Fo > 4sig(Fo)  and  0.0623 for all    1599 data
REM     24 parameters refined using      0 restraints
 
END  
     
WGHT      0.0541      1.7885 

REM Highest difference peak  0.814,  deepest hole -1.019,  1-sigma level  0.131
Q1    1   0.5000  0.6871  0.5000  10.12500  0.05   -1.02
Q2    1   0.6840  0.6840  0.3160  10.16667  0.05   -1.00
Q3    1   0.5000  1.0529  0.5000  10.12500  0.05   -0.86
Q4    1   0.5000  0.7529  0.1969  10.50000  0.05    0.81
Q5    1   0.5000  0.8339  0.2179  10.50000  0.05    0.76
Q6    1   0.5000  1.0390  0.2918  10.50000  0.05    0.74
Q7    1   0.5875  0.8323  0.4125  10.50000  0.05    0.66
Q8    1   0.6910  0.9488  0.3090  10.50000  0.05   -0.64
Q9    1   0.4684  0.7927  0.2073  10.50000  0.05    0.62
Q10   1   0.5000  0.8663  0.2744  10.50000  0.05    0.61
Q11   1   0.5000  0.8212  0.1788  10.25000  0.05    0.60
Q12   1   0.6107  0.8794  0.3893  10.50000  0.05    0.60
Q13   1   0.5000  0.8003  0.3152  10.50000  0.05   -0.57
Q14   1   0.5000  1.0000  0.2339  10.25000  0.05    0.56
Q15   1   0.5000  1.0000  0.0000  10.06250  0.05   -0.56
Q16   1   0.4678  1.0000  0.2960  10.50000  0.05    0.55
Q17   1   0.5000  0.8617  0.1383  10.25000  0.05    0.54
Q18   1   0.5884  0.8605  0.3539  11.00000  0.05    0.54
Q19   1   0.5000  0.8643  0.3907  10.50000  0.05   -0.53
Q20   1   0.5000  0.9058  0.3857  10.50000  0.05   -0.52

REM The information below was added by Olex2.
REM
REM R1 = 0.0497 for 1330 Fo > 4sig(Fo) and 0.0623 for all 25910 data
REM n/a parameters refined using n/a restraints
REM Highest difference peak 0.81, deepest hole -1.02
REM Mean Shift 0, Max Shift -0.001.

REM +++ Tabular Listing of Refinement Information +++
REM R1_all = 0.0623
REM R1_gt = 0.0497
REM wR_ref = 0.1188
REM GOOF = 1.099
REM Shift_max = -0.001
REM Shift_mean = 0
REM Reflections_all = 25910
REM Reflections_gt = 1330
REM Parameters = n/a
REM Hole = -1.02
REM Peak = 0.81
REM Flack = n/a

;
_cod_data_source_file            cm5b03579_si_002.cif
_cod_data_source_block           p15133
_cod_original_cell_volume        1648.5(13)
_cod_database_code               4003211
_shelx_space_group_comment
;
The symmetry employed for this shelxl refinement is uniquely defined
by the following loop, which should always be used as a source of
symmetry information in preference to the above space-group names.
They are only intended as comments.
;
_shelx_estimated_absorpt_t_max   0.973
_shelx_estimated_absorpt_t_min   0.957
_exptl_absorpt_special_details
;
SADABS-2014/5 (Bruker,2014/5) was used for absorption correction. wR2(int) was 0.0584 before and 0.0510 after correction. The Ratio of minimum to maximum transmission is 0.8819. The \l/2 correction factor is 0.00150.
;
_olex2_refinement_description
;
;
_shelx_fab_checksum              91569
_shelx_fab_file
;
    1    1    1    -42.38      0.00
    0    0    2      8.13      0.00
    0    1    2    -37.77      0.00
    1    1    2    -29.27      0.00
    0    2    2      7.33      0.00
    1    2    2    -20.43      0.00
    2    2    2     -2.18      0.00
    0    0    3    -11.22      0.00
    0    1    3     -1.76      0.00
    1    1    3    -13.55      0.00
    0    2    3     22.26      0.00
    1    2    3     12.66      0.00
    2    2    3      4.60      0.00
    0    3    3     40.11      0.00
    1    3    3     20.30      0.00
    2    3    3      7.71      0.00
    3    3    3      5.57      0.00
    0    0    4      5.39      0.00
    0    1    4      0.73      0.00
    1    1    4     -2.91      0.00
    0    2    4     11.78      0.00
    1    2    4      1.45      0.00
    2    2    4     -1.79      0.00
    0    3    4     12.04      0.00
    1    3    4      4.14      0.00
    2    3    4     -4.06      0.00
    3    3    4      1.32      0.00
    0    4    4     -9.07      0.00
    1    4    4    -16.30      0.00
    2    4    4    -12.13      0.00
    3    4    4     -4.34      0.00
    4    4    4     -4.24      0.00
    0    0    5      8.08      0.00
    0    1    5      4.37      0.00
    1    1    5     -1.19      0.00
    0    2    5      2.25      0.00
    1    2    5     -0.99      0.00
    2    2    5     -3.46      0.00
    0    3    5      1.87      0.00
    1    3    5     -3.28      0.00
    2    3    5      0.48      0.00
    3    3    5      4.91      0.00
    0    4    5    -14.03      0.00
    1    4    5    -12.07      0.00
    2    4    5     -6.66      0.00
    3    4    5      1.10      0.00
    4    4    5     -2.23      0.00
    0    5    5     -5.80      0.00
    1    5    5     -6.11      0.00
    2    5    5     -0.49      0.00
    3    5    5      2.48      0.00
    4    5    5      3.27      0.00
    5    5    5      8.58      0.00
    0    0    6      9.90      0.00
    0    1    6      1.00      0.00
    1    1    6     -2.40      0.00
    0    2    6     -0.22      0.00
    1    2    6     -4.57      0.00
    2    2    6     -0.03      0.00
    0    3    6      4.11      0.00
    1    3    6      4.26      0.00
    2    3    6      7.76      0.00
    3    3    6     10.29      0.00
    0    4    6      3.62      0.00
    1    4    6      2.83      0.00
    2    4    6      5.06      0.00
    3    4    6      2.55      0.00
    4    4    6     -3.59      0.00
    0    5    6      6.43      0.00
    1    5    6      5.62      0.00
    2    5    6      5.33      0.00
    3    5    6      3.16      0.00
    4    5    6      0.38      0.00
    5    5    6      6.88      0.00
    0    6    6      5.25      0.00
    1    6    6      4.16      0.00
    2    6    6      5.18      0.00
    3    6    6      4.83      0.00
    4    6    6      3.99      0.00
    5    6    6      7.82      0.00
    6    6    6      9.11      0.00
    0    0    7      7.06      0.00
    0    1    7     -0.39      0.00
    1    1    7     -7.80      0.00
    0    2    7     -5.78      0.00
    1    2    7     -7.95      0.00
    2    2    7     -3.54      0.00
    0    3    7      2.76      0.00
    1    3    7      1.87      0.00
    2    3    7      3.43      0.00
    3    3    7      2.31      0.00
    0    4    7      4.55      0.00
    1    4    7      2.83      0.00
    2    4    7      1.54      0.00
    3    4    7     -5.30      0.00
    4    4    7    -13.42      0.00
    0    5    7      2.50      0.00
    1    5    7      1.10      0.00
    2    5    7      0.61      0.00
    3    5    7     -3.34      0.00
    4    5    7     -8.92      0.00
    5    5    7     -5.72      0.00
    0    6    7     -4.35      0.00
    1    6    7     -2.30      0.00
    2    6    7      0.56      0.00
    3    6    7      0.97      0.00
    4    6    7     -1.15      0.00
    5    6    7      0.84      0.00
    6    6    7      2.62      0.00
    0    7    7     -6.21      0.00
    1    7    7     -5.56      0.00
    2    7    7     -1.12      0.00
    3    7    7      0.54      0.00
    4    7    7     -0.54      0.00
    5    7    7      0.73      0.00
    6    7    7     -0.59      0.00
    7    7    7     -3.73      0.00
    0    0    8     14.37      0.00
    0    1    8      7.64      0.00
    1    1    8      0.29      0.00
    0    2    8      0.52      0.00
    1    2    8     -2.15      0.00
    2    2    8     -2.49      0.00
    0    3    8      3.14      0.00
    1    3    8      0.75      0.00
    2    3    8      2.38      0.00
    3    3    8      1.96      0.00
    0    4    8      1.61      0.00
    1    4    8      0.63      0.00
    2    4    8      1.39      0.00
    3    4    8     -1.27      0.00
    4    4    8     -7.03      0.00
    0    5    8     -2.10      0.00
    1    5    8     -1.13      0.00
    2    5    8      0.85      0.00
    3    5    8     -0.36      0.00
    4    5    8     -6.14      0.00
    5    5    8     -6.55      0.00
    0    6    8     -4.01      0.00
    1    6    8     -3.55      0.00
    2    6    8      0.26      0.00
    3    6    8      1.55      0.00
    4    6    8     -1.50      0.00
    5    6    8     -1.71      0.00
    6    6    8     -0.47      0.00
    0    7    8     -1.79      0.00
    1    7    8     -1.39      0.00
    2    7    8     -0.64      0.00
    3    7    8      0.18      0.00
    4    7    8     -0.44      0.00
    5    7    8     -0.46      0.00
    6    7    8     -0.67      0.00
    7    7    8     -1.28      0.00
    0    8    8      6.02      0.00
    1    8    8      4.08      0.00
    2    8    8      0.44      0.00
    3    8    8     -0.38      0.00
    4    8    8     -0.54      0.00
    5    8    8      1.08      0.00
    6    8    8      0.70      0.00
    7    8    8      0.31      0.00
    8    8    8      2.11      0.00
    0    0    9     13.03      0.00
    0    1    9      6.11      0.00
    1    1    9      2.98      0.00
    0    2    9      2.73      0.00
    1    2    9     -2.18      0.00
    2    2    9     -2.50      0.00
    0    3    9      1.28      0.00
    1    3    9     -0.52      0.00
    2    3    9      1.22      0.00
    3    3    9      4.80      0.00
    0    4    9     -0.96      0.00
    1    4    9     -0.16      0.00
    2    4    9      2.81      0.00
    3    4    9      4.89      0.00
    4    4    9      2.28      0.00
    0    5    9     -2.75      0.00
    1    5    9     -1.77      0.00
    2    5    9      2.52      0.00
    3    5    9      4.49      0.00
    4    5    9      1.26      0.00
    5    5    9     -0.59      0.00
    0    6    9     -2.66      0.00
    1    6    9     -1.57      0.00
    2    6    9      1.93      0.00
    3    6    9      3.67      0.00
    4    6    9      2.04      0.00
    5    6    9      0.56      0.00
    6    6    9      1.14      0.00
    0    7    9      0.98      0.00
    1    7    9      1.18      0.00
    2    7    9      0.20      0.00
    3    7    9      1.00      0.00
    4    7    9      0.50      0.00
    5    7    9      1.07      0.00
    6    7    9      0.21      0.00
    7    7    9     -0.49      0.00
    0    8    9      7.24      0.00
    1    8    9      3.75      0.00
    2    8    9      0.36      0.00
    3    8    9     -0.97      0.00
    4    8    9      0.01      0.00
    5    8    9      1.88      0.00
    6    8    9      1.07      0.00
    7    8    9     -0.41      0.00
    8    8    9     -0.72      0.00
    0    9    9      4.66      0.00
    1    9    9      2.76      0.00
    2    9    9     -1.61      0.00
    3    9    9     -2.46      0.00
    4    9    9     -0.50      0.00
    5    9    9      2.53      0.00
    6    9    9      0.08      0.00
    7    9    9     -1.38      0.00
    8    9    9      0.17      0.00
    9    9    9     -0.16      0.00
    0    0   10      0.45      0.00
    0    1   10     -0.46      0.00
    1    1   10     -3.59      0.00
    0    2   10     -2.09      0.00
    1    2   10     -4.25      0.00
    2    2   10     -4.55      0.00
    0    3   10     -1.05      0.00
    1    3   10     -1.93      0.00
    2    3   10     -1.59      0.00
    3    3   10      1.62      0.00
    0    4   10     -1.18      0.00
    1    4   10     -1.97      0.00
    2    4   10     -0.11      0.00
    3    4   10      2.25      0.00
    4    4   10      1.65      0.00
    0    5   10     -2.98      0.00
    1    5   10     -2.16      0.00
    2    5   10      0.54      0.00
    3    5   10      1.78      0.00
    4    5   10      0.97      0.00
    5    5   10      0.77      0.00
    0    6   10     -2.11      0.00
    1    6   10     -0.20      0.00
    2    6   10      0.18      0.00
    3    6   10      1.23      0.00
    4    6   10      0.59      0.00
    5    6   10      1.47      0.00
    6    6   10      1.53      0.00
    0    7   10     -0.10      0.00
    1    7   10     -1.16      0.00
    2    7   10     -0.76      0.00
    3    7   10     -1.34      0.00
    4    7   10     -0.36      0.00
    5    7   10      1.22      0.00
    6    7   10      0.80      0.00
    7    7   10     -1.35      0.00
    0    8   10     -0.38      0.00
    1    8   10     -0.36      0.00
    2    8   10     -1.82      0.00
    3    8   10     -1.64      0.00
    4    8   10     -0.11      0.00
    5    8   10      1.76      0.00
    6    8   10     -0.86      0.00
    7    8   10     -1.46      0.00
    8    8   10     -0.53      0.00
    0    9   10     -0.67      0.00
    1    9   10     -1.98      0.00
    2    9   10     -2.75      0.00
    3    9   10     -2.31      0.00
    4    9   10     -1.02      0.00
    5    9   10     -0.08      0.00
    6    9   10     -0.71      0.00
    7    9   10     -0.93      0.00
    8    9   10      0.47      0.00
    9    9   10      0.72      0.00
    0   10   10     -0.99      0.00
    1   10   10     -2.03      0.00
    2   10   10     -2.58      0.00
    3   10   10     -2.04      0.00
    4   10   10     -2.46      0.00
    5   10   10     -1.89      0.00
    6   10   10     -1.71      0.00
    7   10   10      1.45      0.00
    8   10   10      2.18      0.00
    9   10   10     -1.60      0.00
   10   10   10     -4.15      0.00
    0    0   11      0.65      0.00
    0    1   11     -0.04      0.00
    1    1   11     -1.26      0.00
    0    2   11     -0.32      0.00
    1    2   11     -0.69      0.00
    2    2   11     -1.62      0.00
    0    3   11      2.87      0.00
    1    3   11      0.76      0.00
    2    3   11     -0.60      0.00
    3    3   11      0.03      0.00
    0    4   11      2.33      0.00
    1    4   11      1.01      0.00
    2    4   11     -0.88      0.00
    3    4   11     -0.84      0.00
    4    4   11     -0.70      0.00
    0    5   11      1.84      0.00
    1    5   11      1.30      0.00
    2    5   11     -1.22      0.00
    3    5   11     -1.11      0.00
    4    5   11     -1.14      0.00
    5    5   11     -0.04      0.00
    0    6   11      2.59      0.00
    1    6   11      1.29      0.00
    2    6   11     -0.14      0.00
    3    6   11     -2.17      0.00
    4    6   11     -1.58      0.00
    5    6   11      0.71      0.00
    6    6   11      0.87      0.00
    0    7   11     -0.28      0.00
    1    7   11      0.04      0.00
    2    7   11     -0.74      0.00
    3    7   11     -1.10      0.00
    4    7   11     -0.29      0.00
    5    7   11      1.30      0.00
    6    7   11     -0.15      0.00
    7    7   11     -0.46      0.00
    0    8   11     -1.74      0.00
    1    8   11     -0.50      0.00
    2    8   11      0.79      0.00
    3    8   11      1.56      0.00
    4    8   11      1.89      0.00
    5    8   11      1.44      0.00
    6    8   11     -0.12      0.00
    7    8   11     -1.26      0.00
    8    8   11     -0.19      0.00
    0    9   11     -1.26      0.00
    1    9   11     -1.14      0.00
    2    9   11      0.55      0.00
    3    9   11      1.46      0.00
    4    9   11      1.11      0.00
    5    9   11      0.72      0.00
    6    9   11     -0.89      0.00
    7    9   11      0.32      0.00
    8    9   11      0.83      0.00
    9    9   11     -0.19      0.00
    0   10   11      0.09      0.00
    1   10   11      0.31      0.00
    2   10   11      0.71      0.00
    3   10   11      0.94      0.00
    4   10   11      0.29      0.00
    5   10   11     -1.34      0.00
    6   10   11     -0.34      0.00
    7   10   11      2.62      0.00
    8   10   11      2.00      0.00
    9   10   11     -0.95      0.00
   10   10   11     -2.62      0.00
    0   11   11      1.83      0.00
    1   11   11      2.40      0.00
    2   11   11      2.46      0.00
    3   11   11      2.96      0.00
    4   11   11      1.68      0.00
    5   11   11     -0.15      0.00
    6   11   11      0.57      0.00
    7   11   11      2.98      0.00
    8   11   11      3.58      0.00
    9   11   11     -0.32      0.00
   10   11   11      0.22      0.00
   11   11   11      1.95      0.00
    0    0   12      3.75      0.00
    0    1   12      2.26      0.00
    1    1   12      2.51      0.00
    0    2   12      2.64      0.00
    1    2   12      1.78      0.00
    2    2   12      1.05      0.00
    0    3   12      3.52      0.00
    1    3   12      2.70      0.00
    2    3   12      1.11      0.00
    3    3   12     -0.05      0.00
    0    4   12      3.31      0.00
    1    4   12      1.96      0.00
    2    4   12     -1.11      0.00
    3    4   12     -1.36      0.00
    4    4   12     -2.10      0.00
    0    5   12      3.31      0.00
    1    5   12      1.65      0.00
    2    5   12     -1.18      0.00
    3    5   12     -2.68      0.00
    4    5   12     -1.95      0.00
    5    5   12     -0.05      0.00
    0    6   12      2.89      0.00
    1    6   12      1.67      0.00
    2    6   12     -0.66      0.00
    3    6   12     -2.14      0.00
    4    6   12     -2.11      0.00
    5    6   12     -0.54      0.00
    6    6   12     -0.67      0.00
    0    7   12     -0.44      0.00
    1    7   12      0.77      0.00
    2    7   12      0.37      0.00
    3    7   12     -0.47      0.00
    4    7   12     -0.88      0.00
    5    7   12     -0.10      0.00
    6    7   12     -0.32      0.00
    7    7   12     -0.72      0.00
    0    8   12      0.11      0.00
    1    8   12     -0.06      0.00
    2    8   12      1.79      0.00
    3    8   12      1.38      0.00
    4    8   12      0.64      0.00
    5    8   12      0.75      0.00
    6    8   12     -0.10      0.00
    7    8   12      0.02      0.00
    8    8   12     -0.34      0.00
    0    9   12     -1.18      0.00
    1    9   12      0.65      0.00
    2    9   12      1.30      0.00
    3    9   12      0.78      0.00
    4    9   12      1.03      0.00
    5    9   12      0.14      0.00
    6    9   12      0.04      0.00
    7    9   12      0.36      0.00
    8    9   12     -0.38      0.00
    9    9   12     -1.18      0.00
    0   10   12     -0.49      0.00
    1   10   12      0.51      0.00
    2   10   12      0.61      0.00
    3   10   12      0.67      0.00
    4   10   12     -0.10      0.00
    5   10   12     -0.48      0.00
    6   10   12     -0.18      0.00
    7   10   12      0.07      0.00
    8   10   12      0.32      0.00
    9   10   12     -1.37      0.00
   10   10   12     -0.77      0.00
    0   11   12      0.98      0.00
    1   11   12      1.17      0.00
    2   11   12      1.08      0.00
    3   11   12      0.78      0.00
    4   11   12      0.40      0.00
    5   11   12      0.45      0.00
    6   11   12     -1.04      0.00
    7   11   12      0.16      0.00
    8   11   12      0.55      0.00
    9   11   12      0.50      0.00
   10   11   12     -0.03      0.00
   11   11   12      2.57      0.00
    0   12   12      0.85      0.00
    1   12   12      0.80      0.00
    2   12   12     -0.55      0.00
    3   12   12     -1.09      0.00
    4   12   12      0.21      0.00
    5   12   12     -0.49      0.00
    6   12   12     -2.03      0.00
    7   12   12     -2.34      0.00
    8   12   12      0.30      0.00
    9   12   12     -0.84      0.00
   10   12   12      1.15      0.00
   11   12   12      1.03      0.00
   12   12   12      2.49      0.00
    0    0   13     -2.75      0.00
    0    1   13     -1.58      0.00
    1    1   13     -1.48      0.00
    0    2   13     -1.03      0.00
    1    2   13     -0.83      0.00
    2    2   13     -0.23      0.00
    0    3   13     -0.52      0.00
    1    3   13     -0.19      0.00
    2    3   13     -0.58      0.00
    3    3   13      0.73      0.00
    0    4   13     -1.26      0.00
    1    4   13     -1.29      0.00
    2    4   13     -0.83      0.00
    3    4   13     -0.07      0.00
    4    4   13      0.59      0.00
    0    5   13     -1.20      0.00
    1    5   13     -0.97      0.00
    2    5   13     -0.42      0.00
    3    5   13      0.16      0.00
    4    5   13      1.28      0.00
    5    5   13      2.16      0.00
    0    6   13     -1.10      0.00
    1    6   13      0.18      0.00
    2    6   13      0.58      0.00
    3    6   13      0.22      0.00
    4    6   13     -0.58      0.00
    5    6   13      0.19      0.00
    6    6   13     -0.18      0.00
    0    7   13      0.06      0.00
    1    7   13     -0.42      0.00
    2    7   13      0.94      0.00
    3    7   13     -0.14      0.00
    4    7   13     -1.60      0.00
    5    7   13     -0.68      0.00
    6    7   13      0.06      0.00
    7    7   13      0.45      0.00
    0    8   13     -1.13      0.00
    1    8   13      0.62      0.00
    2    8   13      0.28      0.00
    3    8   13     -1.41      0.00
    4    8   13     -0.97      0.00
    5    8   13     -0.17      0.00
    6    8   13      0.65      0.00
    7    8   13      0.88      0.00
    8    8   13      0.33      0.00
    0    9   13     -0.70      0.00
    1    9   13     -0.02      0.00
    2    9   13     -0.22      0.00
    3    9   13     -0.28      0.00
    4    9   13     -0.73      0.00
    5    9   13     -0.42      0.00
    6    9   13      0.25      0.00
    7    9   13     -0.02      0.00
    8    9   13     -0.32      0.00
    9    9   13     -1.52      0.00
    0   10   13     -1.29      0.00
    1   10   13     -0.94      0.00
    2   10   13      0.02      0.00
    3   10   13     -0.74      0.00
    4   10   13     -0.25      0.00
    5   10   13     -0.68      0.00
    6   10   13     -0.79      0.00
    7   10   13     -0.87      0.00
    8   10   13     -1.00      0.00
    9   10   13     -0.41      0.00
   10   10   13     -0.26      0.00
    0   11   13     -0.87      0.00
    1   11   13     -0.05      0.00
    2   11   13     -1.14      0.00
    3   11   13     -0.92      0.00
    4   11   13     -0.55      0.00
    5   11   13     -0.15      0.00
    6   11   13     -0.66      0.00
    7   11   13     -1.99      0.00
    8   11   13     -0.07      0.00
    9   11   13      0.17      0.00
   10   11   13      1.29      0.00
   11   11   13      0.27      0.00
    0   12   13     -0.19      0.00
    1   12   13      0.36      0.00
    2   12   13     -1.52      0.00
    3   12   13     -1.00      0.00
    4   12   13     -1.38      0.00
    5   12   13     -0.15      0.00
    6   12   13     -1.33      0.00
    7   12   13     -1.73      0.00
    8   12   13     -0.68      0.00
    9   12   13     -0.83      0.00
   10   12   13     -0.26      0.00
   11   12   13      1.69      0.00
   12   12   13      0.84      0.00
    0   13   13      1.12      0.00
    1   13   13      0.27      0.00
    2   13   13      0.64      0.00
    3   13   13     -1.07      0.00
    4   13   13     -0.63      0.00
    5   13   13      0.53      0.00
    6   13   13     -0.66      0.00
    7   13   13      0.60      0.00
    8   13   13     -0.89      0.00
    9   13   13     -2.01      0.00
   10   13   13     -0.69      0.00
   11   13   13      1.04      0.00
   12   13   13      1.71      0.00
   13   13   13     -0.53      0.00
    0    0   14     -1.93      0.00
    0    1   14     -2.08      0.00
    1    1   14     -0.92      0.00
    0    2   14     -0.57      0.00
    1    2   14     -0.21      0.00
    2    2   14     -0.68      0.00
    0    3   14      0.24      0.00
    1    3   14     -0.46      0.00
    2    3   14     -0.63      0.00
    3    3   14     -0.33      0.00
    0    4   14     -1.35      0.00
    1    4   14     -1.00      0.00
    2    4   14     -0.25      0.00
    3    4   14      1.02      0.00
    4    4   14      2.98      0.00
    0    5   14     -3.32      0.00
    1    5   14     -1.56      0.00
    2    5   14      1.15      0.00
    3    5   14      3.06      0.00
    4    5   14      3.38      0.00
    5    5   14      3.70      0.00
    0    6   14     -2.72      0.00
    1    6   14     -1.55      0.00
    2    6   14      1.43      0.00
    3    6   14      1.81      0.00
    4    6   14      0.82      0.00
    5    6   14      0.43      0.00
    6    6   14     -0.20      0.00
    0    7   14     -0.62      0.00
    1    7   14      0.25      0.00
    2    7   14      0.96      0.00
    3    7   14      0.10      0.00
    4    7   14     -1.11      0.00
    5    7   14     -0.97      0.00
    6    7   14      0.59      0.00
    7    7   14      1.61      0.00
    0    8   14      0.98      0.00
    1    8   14      1.20      0.00
    2    8   14      0.39      0.00
    3    8   14     -0.66      0.00
    4    8   14     -0.69      0.00
    5    8   14      0.61      0.00
    6    8   14      2.03      0.00
    7    8   14      0.88      0.00
    8    8   14      0.07      0.00
    0    9   14      0.39      0.00
    1    9   14      0.50      0.00
    2    9   14      0.80      0.00
    3    9   14     -0.57      0.00
    4    9   14      0.94      0.00
    5    9   14      0.97      0.00
    6    9   14      1.01      0.00
    7    9   14      0.25      0.00
    8    9   14     -0.72      0.00
    9    9   14     -0.80      0.00
    0   10   14     -0.89      0.00
    1   10   14      0.01      0.00
    2   10   14     -0.86      0.00
    3   10   14      1.67      0.00
    4   10   14      1.43      0.00
    5   10   14      0.80      0.00
    6   10   14      0.84      0.00
    7   10   14      0.37      0.00
    8   10   14      0.58      0.00
    9   10   14      0.52      0.00
   10   10   14      1.42      0.00
    0   11   14      0.35      0.00
    1   11   14     -0.30      0.00
    2   11   14     -0.32      0.00
    3   11   14      0.37      0.00
    4   11   14      0.93      0.00
    5   11   14      0.45      0.00
    6   11   14      1.64      0.00
    7   11   14      0.70      0.00
    8   11   14      1.28      0.00
    9   11   14      1.37      0.00
   10   11   14     -0.18      0.00
   11   11   14     -1.62      0.00
    0   12   14     -0.28      0.00
    1   12   14      0.10      0.00
    2   12   14      0.20      0.00
    3   12   14     -0.58      0.00
    4   12   14     -0.91      0.00
    5   12   14      1.01      0.00
    6   12   14      0.77      0.00
    7   12   14      1.37      0.00
    8   12   14      0.32      0.00
    9   12   14     -0.75      0.00
   10   12   14     -2.05      0.00
   11   12   14     -2.91      0.00
   12   12   14     -1.32      0.00
    0   13   14     -0.80      0.00
    1   13   14      1.92      0.00
    2   13   14      0.65      0.00
    3   13   14      0.18      0.00
    4   13   14      0.38      0.00
    5   13   14      1.21      0.00
    6   13   14      2.19      0.00
    7   13   14      1.41      0.00
    8   13   14      0.64      0.00
    9   13   14     -1.67      0.00
   10   13   14     -0.42      0.00
   11   13   14     -1.36      0.00
   12   13   14     -0.96      0.00
   13   13   14     -1.19      0.00
    0   14   14      1.63      0.00
    1   14   14      0.33      0.00
    2   14   14      0.64      0.00
    3   14   14     -0.35      0.00
    4   14   14     -0.40      0.00
    5   14   14      2.00      0.00
    6   14   14      0.85      0.00
    7   14   14      2.67      0.00
    8   14   14     -0.61      0.00
    9   14   14      2.56      0.00
   10   14   14      1.59      0.00
   11   14   14      1.06      0.00
   12   14   14     -0.85      0.00
    0    0   15     -1.51      0.00
    0    1   15      0.55      0.00
    1    1   15     -0.10      0.00
    0    2   15      1.45      0.00
    1    2   15      1.18      0.00
    2    2   15     -0.32      0.00
    0    3   15      2.67      0.00
    1    3   15      1.21      0.00
    2    3   15     -1.30      0.00
    3    3   15     -2.93      0.00
    0    4   15      1.38      0.00
    1    4   15      0.73      0.00
    2    4   15     -0.43      0.00
    3    4   15     -0.94      0.00
    4    4   15     -0.92      0.00
    0    5   15     -1.67      0.00
    1    5   15     -0.50      0.00
    2    5   15      1.46      0.00
    3    5   15      1.13      0.00
    4    5   15      1.07      0.00
    5    5   15      0.67      0.00
    0    6   15     -2.20      0.00
    1    6   15     -1.34      0.00
    2    6   15      0.72      0.00
    3    6   15      0.79      0.00
    4    6   15     -0.91      0.00
    5    6   15     -1.13      0.00
    6    6   15     -0.27      0.00
    0    7   15     -0.69      0.00
    1    7   15      0.19      0.00
    2    7   15      0.19      0.00
    3    7   15     -1.07      0.00
    4    7   15     -1.69      0.00
    5    7   15     -1.78      0.00
    6    7   15      0.50      0.00
    7    7   15      1.46      0.00
    0    8   15      1.03      0.00
    1    8   15      0.74      0.00
    2    8   15      0.21      0.00
    3    8   15     -1.13      0.00
    4    8   15     -0.84      0.00
    5    8   15      0.14      0.00
    6    8   15      0.72      0.00
    7    8   15      0.62      0.00
    8    8   15     -0.67      0.00
    0    9   15      0.17      0.00
    1    9   15      0.81      0.00
    2    9   15     -0.50      0.00
    3    9   15     -0.79      0.00
    4    9   15      0.28      0.00
    5    9   15      0.23      0.00
    6    9   15     -0.38      0.00
    7    9   15     -0.79      0.00
    8    9   15     -0.44      0.00
    9    9   15      0.22      0.00
    0   10   15      0.45      0.00
    1   10   15     -0.32      0.00
    2   10   15     -0.35      0.00
    3   10   15     -0.04      0.00
    4   10   15      1.71      0.00
    5   10   15     -0.48      0.00
    6   10   15     -0.43      0.00
    7   10   15     -0.99      0.00
    8   10   15      0.83      0.00
    9   10   15      1.48      0.00
   10   10   15      1.53      0.00
    0   11   15      0.84      0.00
    1   11   15      0.57      0.00
    2   11   15     -1.45      0.00
    3   11   15      0.17      0.00
    4   11   15     -0.52      0.00
    5   11   15     -0.39      0.00
    6   11   15     -1.33      0.00
    7   11   15      0.24      0.00
    8   11   15      0.52      0.00
    9   11   15      1.47      0.00
   10   11   15      0.21      0.00
   11   11   15     -3.08      0.00
    0   12   15     -1.05      0.00
    1   12   15     -0.37      0.00
    2   12   15     -0.79      0.00
    3   12   15     -1.56      0.00
    4   12   15     -0.61      0.00
    5   12   15     -1.83      0.00
    6   12   15      0.20      0.00
    7   12   15      0.09      0.00
    8   12   15      0.51      0.00
    9   12   15      0.18      0.00
   10   12   15     -1.21      0.00
   11   12   15     -2.49      0.00
   12   12   15      0.24      0.00
    0   13   15     -1.21      0.00
    1   13   15     -0.37      0.00
    2   13   15      0.55      0.00
    3   13   15      0.76      0.00
    4   13   15      0.41      0.00
    5   13   15      1.72      0.00
    6   13   15      0.26      0.00
    7   13   15      1.15      0.00
    8   13   15     -1.13      0.00
    9   13   15      0.66      0.00
   10   13   15     -0.28      0.00
   11   13   15      0.47      0.00
   12   13   15      3.41      0.00
    0   14   15     -1.67      0.00
    1   14   15      0.57      0.00
    2   14   15      0.09      0.00
    3   14   15     -1.67      0.00
    4   14   15      0.27      0.00
    5   14   15      0.53      0.00
    6   14   15     -0.23      0.00
    7   14   15     -0.12      0.00
    8   14   15     -1.61      0.00
    9   14   15     -0.13      0.00
   10   14   15      3.34      0.00
   11   14   15      1.25      0.00
   12   14   15      1.97      0.00
    0   15   15     -0.68      0.00
    1   15   15     -1.23      0.00
    2   15   15     -1.35      0.00
    3   15   15     -2.31      0.00
    4   15   15     -2.78      0.00
    5   15   15     -1.29      0.00
    6   15   15     -1.86      0.00
    7   15   15     -1.57      0.00
    8   15   15     -5.28      0.00
    9   15   15     -0.80      0.00
   10   15   15     -0.10      0.00
   11   15   15      0.74      0.00
   12   15   15      1.75      0.00
    0    0   16      0.60      0.00
    0    1   16      0.56      0.00
    1    1   16      1.56      0.00
    0    2   16      3.33      0.00
    1    2   16      1.12      0.00
    2    2   16     -0.61      0.00
    0    3   16      2.52      0.00
    1    3   16      1.18      0.00
    2    3   16     -1.39      0.00
    3    3   16     -2.68      0.00
    0    4   16      1.59      0.00
    1    4   16      0.84      0.00
    2    4   16     -0.07      0.00
    3    4   16     -1.77      0.00
    4    4   16     -1.74      0.00
    0    5   16      0.27      0.00
    1    5   16      0.29      0.00
    2    5   16      0.65      0.00
    3    5   16     -0.02      0.00
    4    5   16     -1.63      0.00
    5    5   16     -2.17      0.00
    0    6   16     -0.88      0.00
    1    6   16      0.44      0.00
    2    6   16      0.56      0.00
    3    6   16     -1.56      0.00
    4    6   16     -2.11      0.00
    5    6   16     -1.42      0.00
    6    6   16      0.14      0.00
    0    7   16      0.80      0.00
    1    7   16      0.71      0.00
    2    7   16      0.31      0.00
    3    7   16     -0.89      0.00
    4    7   16     -1.79      0.00
    5    7   16     -0.31      0.00
    6    7   16      1.04      0.00
    7    7   16      0.88      0.00
    0    8   16      0.16      0.00
    1    8   16      0.90      0.00
    2    8   16      0.78      0.00
    3    8   16     -0.54      0.00
    4    8   16      1.60      0.00
    5    8   16      0.52      0.00
    6    8   16     -0.37      0.00
    7    8   16     -0.30      0.00
    8    8   16     -0.30      0.00
    0    9   16      0.05      0.00
    1    9   16      0.48      0.00
    2    9   16      0.05      0.00
    3    9   16      0.17      0.00
    4    9   16      1.31      0.00
    5    9   16     -0.12      0.00
    6    9   16     -1.74      0.00
    7    9   16     -1.06      0.00
    8    9   16      0.20      0.00
    9    9   16      0.01      0.00
    0   10   16      0.32      0.00
    1   10   16      0.69      0.00
    2   10   16     -0.09      0.00
    3   10   16      0.28      0.00
    4   10   16      0.92      0.00
    5   10   16      0.97      0.00
    6   10   16     -2.90      0.00
    7   10   16     -1.19      0.00
    8   10   16     -0.21      0.00
    9   10   16      0.95      0.00
   10   10   16      0.31      0.00
    0   11   16      1.56      0.00
    1   11   16      0.85      0.00
    2   11   16     -0.01      0.00
    3   11   16     -1.03      0.00
    4   11   16      1.25      0.00
    5   11   16     -1.30      0.00
    6   11   16     -0.63      0.00
    7   11   16     -2.37      0.00
    8   11   16      0.00      0.00
    9   11   16      1.50      0.00
   10   11   16     -0.26      0.00
   11   11   16     -3.02      0.00
    0   12   16     -0.02      0.00
    1   12   16      0.74      0.00
    2   12   16     -0.89      0.00
    3   12   16      0.39      0.00
    4   12   16     -0.92      0.00
    5   12   16     -1.23      0.00
    6   12   16     -1.92      0.00
    7   12   16      0.54      0.00
    8   12   16     -0.01      0.00
    9   12   16      1.63      0.00
   10   12   16      0.79      0.00
   11   12   16     -1.96      0.00
   12   12   16      2.01      0.00
    0   13   16     -0.53      0.00
    1   13   16      0.05      0.00
    2   13   16      0.87      0.00
    3   13   16     -0.23      0.00
    4   13   16      1.05      0.00
    5   13   16     -0.40      0.00
    6   13   16     -0.47      0.00
    7   13   16      0.83      0.00
    8   13   16     -0.35      0.00
    9   13   16      0.98      0.00
   10   13   16      0.68      0.00
   11   13   16      1.30      0.00
   12   13   16      4.33      0.00
    0   14   16      0.28      0.00
    1   14   16      0.82      0.00
    2   14   16      0.04      0.00
    3   14   16     -0.37      0.00
    4   14   16     -0.24      0.00
    5   14   16      0.83      0.00
    6   14   16      0.76      0.00
    7   14   16      0.02      0.00
    8   14   16     -1.30      0.00
    9   14   16      1.46      0.00
   10   14   16     -0.12      0.00
   11   14   16     -0.98      0.00
   12   14   16      2.80      0.00
    0   15   16     -0.99      0.00
    1   15   16      0.29      0.00
    2   15   16      0.53      0.00
    3   15   16     -1.73      0.00
    4   15   16     -0.63      0.00
    5   15   16      0.67      0.00
    6   15   16     -1.61      0.00
    7   15   16      0.39      0.00
    8   15   16     -1.91      0.00
    9   15   16     -1.15      0.00
   10   15   16     -0.65      0.00
    0   16   16      1.38      0.00
    1   16   16      0.04      0.00
    2   16   16      0.14      0.00
    3   16   16      1.25      0.00
    4   16   16      0.86      0.00
    5   16   16      0.45      0.00
    6   16   16      1.09      0.00
    7   16   16      2.33      0.00
    8   16   16     -0.02      0.00
    9   16   16      0.63      0.00
    0    0   17     -1.49      0.00
    0    1   17     -1.23      0.00
    1    1   17     -1.59      0.00
    0    2   17     -0.32      0.00
    1    2   17     -1.08      0.00
    2    2   17     -1.00      0.00
    0    3   17      0.17      0.00
    1    3   17     -0.51      0.00
    2    3   17     -0.51      0.00
    3    3   17     -0.03      0.00
    0    4   17      0.86      0.00
    1    4   17      0.80      0.00
    2    4   17      0.89      0.00
    3    4   17      0.83      0.00
    4    4   17      1.52      0.00
    0    5   17      1.08      0.00
    1    5   17      0.70      0.00
    2    5   17      0.65      0.00
    3    5   17      0.61      0.00
    4    5   17     -0.02      0.00
    5    5   17     -0.58      0.00
    0    6   17      0.48      0.00
    1    6   17      0.11      0.00
    2    6   17     -0.40      0.00
    3    6   17     -0.54      0.00
    4    6   17     -0.95      0.00
    5    6   17     -0.66      0.00
    6    6   17      1.39      0.00
    0    7   17     -0.17      0.00
    1    7   17      0.55      0.00
    2    7   17      0.85      0.00
    3    7   17     -1.10      0.00
    4    7   17      0.41      0.00
    5    7   17      1.16      0.00
    6    7   17      1.10      0.00
    7    7   17      0.51      0.00
    0    8   17     -0.96      0.00
    1    8   17     -0.33      0.00
    2    8   17     -0.20      0.00
    3    8   17      1.07      0.00
    4    8   17      0.86      0.00
    5    8   17      1.77      0.00
    6    8   17      0.57      0.00
    7    8   17     -0.54      0.00
    8    8   17     -2.20      0.00
    0    9   17     -1.28      0.00
    1    9   17     -1.09      0.00
    2    9   17     -0.62      0.00
    3    9   17     -1.03      0.00
    4    9   17      0.18      0.00
    5    9   17      0.57      0.00
    6    9   17     -1.37      0.00
    7    9   17      0.54      0.00
    8    9   17     -0.74      0.00
    9    9   17     -0.74      0.00
    0   10   17     -0.70      0.00
    1   10   17     -1.12      0.00
    2   10   17     -1.42      0.00
    3   10   17     -1.95      0.00
    4   10   17     -0.15      0.00
    5   10   17     -1.02      0.00
    6   10   17     -0.27      0.00
    7   10   17     -1.03      0.00
    8   10   17      0.76      0.00
    9   10   17      0.71      0.00
   10   10   17      0.41      0.00
    0   11   17     -0.27      0.00
    1   11   17      0.53      0.00
    2   11   17     -0.73      0.00
    3   11   17     -0.01      0.00
    4   11   17     -0.93      0.00
    5   11   17      1.34      0.00
    6   11   17     -1.19      0.00
    7   11   17      0.63      0.00
    8   11   17     -0.20      0.00
    9   11   17      1.71      0.00
   10   11   17      0.07      0.00
   11   11   17     -2.74      0.00
    0   12   17      1.52      0.00
    1   12   17      1.53      0.00
    2   12   17      2.94      0.00
    3   12   17      1.55      0.00
    4   12   17      1.30      0.00
    5   12   17     -0.87      0.00
    6   12   17      0.17      0.00
    7   12   17     -0.06      0.00
    8   12   17     -0.02      0.00
    9   12   17      0.78      0.00
   10   12   17     -0.42      0.00
   11   12   17     -0.08      0.00
   12   12   17      0.52      0.00
    0   13   17      1.16      0.00
    1   13   17      2.40      0.00
    2   13   17      0.78      0.00
    3   13   17      0.95      0.00
    4   13   17      0.44      0.00
    5   13   17     -0.64      0.00
    6   13   17      0.19      0.00
    7   13   17      0.24      0.00
    8   13   17     -0.01      0.00
    9   13   17      0.65      0.00
   10   13   17      1.01      0.00
   11   13   17      0.21      0.00
    0   14   17      2.31      0.00
    1   14   17      1.16      0.00
    2   14   17      0.80      0.00
    3   14   17     -0.19      0.00
    4   14   17      0.27      0.00
    5   14   17      2.64      0.00
    6   14   17      0.93      0.00
    7   14   17      2.07      0.00
    8   14   17      1.73      0.00
    9   14   17      4.88      0.00
   10   14   17      1.27      0.00
    0   15   17      0.23      0.00
    1   15   17      0.05      0.00
    2   15   17      0.68      0.00
    3   15   17      2.07      0.00
    4   15   17      1.26      0.00
    5   15   17      0.31      0.00
    6   15   17      1.33      0.00
    7   15   17      0.18      0.00
    8   15   17      1.49      0.00
    9   15   17      4.93      0.00
    0   16   17      0.69      0.00
    1   16   17      0.08      0.00
    2   16   17      0.61      0.00
    3   16   17      1.16      0.00
    4   16   17      1.31      0.00
    5   16   17      1.41      0.00
    6   16   17     -0.32      0.00
    7   16   17      2.40      0.00
    0   17   17      2.33      0.00
    1   17   17     -0.17      0.00
    2   17   17     -2.24      0.00
    3   17   17      0.09      0.00
    4   17   17      0.27      0.00
    5   17   17      0.55      0.00
    0    0   18      0.72      0.00
    0    1   18     -0.20      0.00
    1    1   18     -2.16      0.00
    0    2   18     -2.11      0.00
    1    2   18     -0.69      0.00
    2    2   18      1.07      0.00
    0    3   18     -1.42      0.00
    1    3   18     -0.64      0.00
    2    3   18      1.07      0.00
    3    3   18      0.27      0.00
    0    4   18     -0.10      0.00
    1    4   18     -0.62      0.00
    2    4   18      0.41      0.00
    3    4   18      1.25      0.00
    4    4   18      0.75      0.00
    0    5   18     -0.22      0.00
    1    5   18     -0.38      0.00
    2    5   18     -0.43      0.00
    3    5   18      0.22      0.00
    4    5   18      0.83      0.00
    5    5   18     -0.68      0.00
    0    6   18      0.13      0.00
    1    6   18     -0.89      0.00
    2    6   18     -0.76      0.00
    3    6   18     -0.07      0.00
    4    6   18      0.62      0.00
    5    6   18      0.04      0.00
    6    6   18     -0.78      0.00
    0    7   18     -0.18      0.00
    1    7   18     -0.54      0.00
    2    7   18     -0.57      0.00
    3    7   18      1.65      0.00
    4    7   18     -0.50      0.00
    5    7   18     -0.41      0.00
    6    7   18      0.31      0.00
    7    7   18      0.05      0.00
    0    8   18     -1.70      0.00
    1    8   18     -1.42      0.00
    2    8   18      0.56      0.00
    3    8   18      0.19      0.00
    4    8   18     -0.64      0.00
    5    8   18      0.00      0.00
    6    8   18      0.72      0.00
    7    8   18     -0.83      0.00
    8    8   18     -4.16      0.00
    0    9   18      0.71      0.00
    1    9   18     -0.30      0.00
    2    9   18      0.02      0.00
    3    9   18      0.19      0.00
    4    9   18     -1.72      0.00
    5    9   18     -0.64      0.00
    6    9   18      1.05      0.00
    7    9   18      0.51      0.00
    8    9   18     -1.62      0.00
    9    9   18      0.96      0.00
    0   10   18      0.67      0.00
    1   10   18      0.25      0.00
    2   10   18     -1.77      0.00
    3   10   18     -1.07      0.00
    4   10   18     -2.98      0.00
    5   10   18     -0.77      0.00
    6   10   18     -1.69      0.00
    7   10   18      2.42      0.00
    8   10   18      1.21      0.00
    9   10   18      2.28      0.00
   10   10   18      1.71      0.00
    0   11   18      0.16      0.00
    1   11   18     -1.65      0.00
    2   11   18     -1.57      0.00
    3   11   18     -1.86      0.00
    4   11   18     -1.66      0.00
    5   11   18     -1.83      0.00
    6   11   18      1.24      0.00
    7   11   18      1.30      0.00
    8   11   18      1.71      0.00
    9   11   18      0.11      0.00
   10   11   18     -1.90      0.00
   11   11   18     -2.58      0.00
    0   12   18     -1.72      0.00
    1   12   18      0.22      0.00
    2   12   18      0.45      0.00
    3   12   18      0.79      0.00
    4   12   18      0.61      0.00
    5   12   18      0.95      0.00
    6   12   18      0.04      0.00
    7   12   18      0.97      0.00
    8   12   18     -1.17      0.00
    9   12   18     -3.17      0.00
   10   12   18     -4.32      0.00
   11   12   18     -3.70      0.00
    0   13   18     -1.10      0.00
    1   13   18     -0.89      0.00
    2   13   18     -0.93      0.00
    3   13   18     -1.02      0.00
    4   13   18     -1.17      0.00
    5   13   18      1.39      0.00
    6   13   18     -0.25      0.00
    7   13   18     -0.77      0.00
    8   13   18     -1.77      0.00
    9   13   18     -2.85      0.00
   10   13   18     -5.10      0.00
    0   14   18     -0.19      0.00
    1   14   18     -0.45      0.00
    2   14   18     -1.20      0.00
    3   14   18     -0.84      0.00
    4   14   18      0.33      0.00
    5   14   18      0.09      0.00
    6   14   18      2.96      0.00
    7   14   18      0.41      0.00
    8   14   18      0.41      0.00
    9   14   18      0.88      0.00
    0   15   18     -1.45      0.00
    1   15   18     -1.82      0.00
    2   15   18      0.56      0.00
    3   15   18      2.54      0.00
    4   15   18     -0.04      0.00
    5   15   18      0.50      0.00
    6   15   18     -0.51      0.00
    7   15   18     -0.28      0.00
    0   16   18     -0.26      0.00
    1   16   18     -0.26      0.00
    2   16   18      0.30      0.00
    3   16   18      2.02      0.00
    4   16   18      0.34      0.00
    5   16   18     -0.58      0.00
    0    0   19      2.48      0.00
    0    1   19     -1.43      0.00
    1    1   19     -0.71      0.00
    0    2   19     -0.36      0.00
    1    2   19      0.37      0.00
    2    2   19      2.69      0.00
    0    3   19      0.26      0.00
    1    3   19     -0.22      0.00
    2    3   19      0.79      0.00
    3    3   19      0.14      0.00
    0    4   19     -1.53      0.00
    1    4   19     -0.96      0.00
    2    4   19     -0.07      0.00
    3    4   19     -0.34      0.00
    4    4   19     -0.06      0.00
    0    5   19     -0.94      0.00
    1    5   19     -1.15      0.00
    2    5   19     -0.48      0.00
    3    5   19     -0.89      0.00
    4    5   19     -1.26      0.00
    5    5   19     -0.70      0.00
    0    6   19      0.78      0.00
    1    6   19      0.18      0.00
    2    6   19     -0.93      0.00
    3    6   19     -0.01      0.00
    4    6   19      0.04      0.00
    5    6   19      0.13      0.00
    6    6   19     -0.43      0.00
    0    7   19      0.88      0.00
    1    7   19     -0.36      0.00
    2    7   19     -0.01      0.00
    3    7   19      0.71      0.00
    4    7   19      0.56      0.00
    5    7   19     -0.77      0.00
    6    7   19      0.34      0.00
    7    7   19      1.51      0.00
    0    8   19     -0.86      0.00
    1    8   19     -1.76      0.00
    2    8   19     -0.48      0.00
    3    8   19      2.26      0.00
    4    8   19     -1.79      0.00
    5    8   19     -0.28      0.00
    6    8   19      1.20      0.00
    7    8   19     -0.16      0.00
    8    8   19     -4.39      0.00
    0    9   19      0.81      0.00
    1    9   19      1.74      0.00
    2    9   19      1.74      0.00
    3    9   19      2.27      0.00
    4    9   19     -0.44      0.00
    5    9   19      0.59      0.00
    6    9   19      0.02      0.00
    7    9   19      1.00      0.00
    8    9   19     -0.77      0.00
    9    9   19      1.87      0.00
    0   10   19      4.06      0.00
    1   10   19      1.32      0.00
    2   10   19      1.57      0.00
    3   10   19      1.40      0.00
    4   10   19     -0.39      0.00
    5   10   19     -0.87      0.00
    6   10   19      0.21      0.00
    7   10   19      2.02      0.00
    8   10   19      1.93      0.00
    9   10   19      3.36      0.00
   10   10   19      2.96      0.00
    0   11   19      1.30      0.00
    1   11   19      1.21      0.00
    2   11   19     -1.42      0.00
    3   11   19     -0.14      0.00
    4   11   19     -0.78      0.00
    5   11   19     -0.23      0.00
    6   11   19     -0.47      0.00
    7   11   19      3.57      0.00
    8   11   19      0.93      0.00
    9   11   19      0.29      0.00
   10   11   19      0.85      0.00
    0   12   19      0.70      0.00
    1   12   19      0.81      0.00
    2   12   19     -0.07      0.00
    3   12   19      1.95      0.00
    4   12   19      1.87      0.00
    5   12   19      2.10      0.00
    6   12   19     -0.22      0.00
    7   12   19      0.28      0.00
    8   12   19      0.79      0.00
    9   12   19     -1.22      0.00
    0   13   19      0.28      0.00
    1   13   19      0.57      0.00
    2   13   19      0.60      0.00
    3   13   19     -1.69      0.00
    4   13   19      1.08      0.00
    5   13   19     -0.14      0.00
    6   13   19     -1.10      0.00
    7   13   19     -1.06      0.00
    8   13   19     -0.06      0.00
    0   14   19      1.49      0.00
    1   14   19      2.41      0.00
    2   14   19      0.60      0.00
    3   14   19      0.11      0.00
    4   14   19     -2.77      0.00
    5   14   19     -0.22      0.00
    6   14   19     -0.27      0.00
    7   14   19      0.44      0.00
    0   15   19     -0.39      0.00
    1   15   19     -0.03      0.00
    2   15   19      0.94      0.00
    3   15   19      1.28      0.00
    4   15   19     -0.08      0.00
    0    0   20      1.65      0.00
    0    1   20      1.09      0.00
    1    1   20      0.47      0.00
    0    2   20      2.32      0.00
    1    2   20      0.75      0.00
    2    2   20      1.37      0.00
    0    3   20      0.97      0.00
    1    3   20      0.39      0.00
    2    3   20     -1.17      0.00
    3    3   20     -1.33      0.00
    0    4   20      0.96      0.00
    1    4   20     -0.52      0.00
    2    4   20     -0.58      0.00
    3    4   20      0.26      0.00
    4    4   20      0.22      0.00
    0    5   20     -0.73      0.00
    1    5   20     -0.70      0.00
    2    5   20      0.21      0.00
    3    5   20     -1.44      0.00
    4    5   20     -1.19      0.00
    5    5   20     -0.38      0.00
    0    6   20     -1.04      0.00
    1    6   20      0.84      0.00
    2    6   20      0.48      0.00
    3    6   20     -1.15      0.00
    4    6   20      0.37      0.00
    5    6   20      0.23      0.00
    6    6   20     -0.73      0.00
    0    7   20      0.73      0.00
    1    7   20      0.40      0.00
    2    7   20     -0.01      0.00
    3    7   20      0.87      0.00
    4    7   20     -0.38      0.00
    5    7   20      1.06      0.00
    6    7   20     -0.70      0.00
    7    7   20     -0.64      0.00
    0    8   20     -1.17      0.00
    1    8   20     -0.94      0.00
    2    8   20     -0.91      0.00
    3    8   20     -0.41      0.00
    4    8   20     -0.78      0.00
    5    8   20     -0.61      0.00
    6    8   20     -1.05      0.00
    7    8   20     -0.53      0.00
    8    8   20     -4.01      0.00
    0    9   20      0.51      0.00
    1    9   20     -0.47      0.00
    2    9   20      0.89      0.00
    3    9   20      1.25      0.00
    4    9   20     -1.70      0.00
    5    9   20     -0.56      0.00
    6    9   20     -1.31      0.00
    7    9   20     -0.59      0.00
    8    9   20     -1.94      0.00
    9    9   20     -0.31      0.00
    0   10   20     -1.78      0.00
    1   10   20      1.49      0.00
    2   10   20      0.80      0.00
    3   10   20      1.43      0.00
    4   10   20     -0.21      0.00
    5   10   20      0.57      0.00
    6   10   20     -1.52      0.00
    7   10   20      1.31      0.00
    8   10   20     -0.16      0.00
    9   10   20     -0.01      0.00
   10   10   20      1.40      0.00
    0   11   20      0.27      0.00
    1   11   20     -0.61      0.00
    2   11   20     -0.49      0.00
    3   11   20      0.41      0.00
    4   11   20     -0.55      0.00
    5   11   20      0.20      0.00
    6   11   20     -1.19      0.00
    7   11   20      0.62      0.00
    8   11   20     -0.83      0.00
    9   11   20     -0.73      0.00
    0   12   20     -0.12      0.00
    1   12   20     -0.10      0.00
    2   12   20      0.14      0.00
    3   12   20      1.11      0.00
    4   12   20      3.65      0.00
    5   12   20      0.66      0.00
    6   12   20     -1.70      0.00
    7   12   20     -0.13      0.00
    0   13   20     -0.55      0.00
    1   13   20      2.09      0.00
    2   13   20     -0.46      0.00
    3   13   20      1.38      0.00
    4   13   20      0.61      0.00
    5   13   20      1.21      0.00
    6   13   20     -2.12      0.00
    0   14   20      3.15      0.00
    1   14   20      2.57      0.00
    2   14   20      2.61      0.00
    3   14   20     -1.12      0.00
    0    0   21      1.62      0.00
    0    1   21      2.68      0.00
    1    1   21      0.08      0.00
    0    2   21      0.74      0.00
    1    2   21      0.65      0.00
    2    2   21     -2.81      0.00
    0    3   21      1.08      0.00
    1    3   21     -2.79      0.00
    2    3   21     -3.24      0.00
    3    3   21     -2.62      0.00
    0    4   21      2.61      0.00
    1    4   21     -0.51      0.00
    2    4   21     -1.79      0.00
    3    4   21     -1.43      0.00
    4    4   21      1.09      0.00
    0    5   21     -0.18      0.00
    1    5   21      0.96      0.00
    2    5   21     -1.39      0.00
    3    5   21     -0.86      0.00
    4    5   21     -1.29      0.00
    5    5   21     -1.53      0.00
    0    6   21     -0.95      0.00
    1    6   21     -0.37      0.00
    2    6   21      2.72      0.00
    3    6   21     -0.48      0.00
    4    6   21     -1.14      0.00
    5    6   21      0.18      0.00
    6    6   21     -1.19      0.00
    0    7   21     -2.39      0.00
    1    7   21      0.96      0.00
    2    7   21      1.12      0.00
    3    7   21     -1.12      0.00
    4    7   21     -0.32      0.00
    5    7   21      0.45      0.00
    6    7   21     -2.05      0.00
    7    7   21      0.56      0.00
    0    8   21     -0.77      0.00
    1    8   21     -1.34      0.00
    2    8   21     -1.97      0.00
    3    8   21     -1.34      0.00
    4    8   21     -2.34      0.00
    5    8   21      0.02      0.00
    6    8   21      0.08      0.00
    7    8   21      0.68      0.00
    8    8   21      1.16      0.00
    0    9   21     -1.77      0.00
    1    9   21     -0.37      0.00
    2    9   21     -1.20      0.00
    3    9   21     -0.49      0.00
    4    9   21     -1.72      0.00
    5    9   21      0.20      0.00
    6    9   21     -0.53      0.00
    7    9   21      2.24      0.00
    8    9   21     -1.34      0.00
    9    9   21     -1.24      0.00
    0   10   21     -1.19      0.00
    1   10   21     -1.28      0.00
    2   10   21      1.96      0.00
    3   10   21      2.52      0.00
    4   10   21      0.86      0.00
    5   10   21      2.22      0.00
    6   10   21     -0.24      0.00
    7   10   21      0.35      0.00
    0   11   21     -2.82      0.00
    1   11   21      0.00      0.00
    2   11   21      0.02      0.00
    3   11   21      1.39      0.00
    4   11   21      0.73      0.00
    5   11   21     -0.24      0.00
    6   11   21     -2.26      0.00
    0   12   21     -2.68      0.00
    1   12   21     -1.44      0.00
    2   12   21     -1.64      0.00
    3   12   21      0.77      0.00
    4   12   21     -0.26      0.00
    0    0   22     -4.39      0.00
    0    1   22     -4.05      0.00
    1    1   22     -1.44      0.00
    0    2   22      1.21      0.00
    1    2   22     -3.27      0.00
    2    2   22     -1.68      0.00
    0    3   22     -1.43      0.00
    1    3   22     -2.02      0.00
    2    3   22     -2.55      0.00
    3    3   22     -0.30      0.00
    0    4   22      1.98      0.00
    1    4   22     -0.35      0.00
    2    4   22     -2.34      0.00
    3    4   22      2.46      0.00
    4    4   22      2.59      0.00
    0    5   22      3.72      0.00
    1    5   22     -0.66      0.00
    2    5   22      1.22      0.00
    3    5   22      0.27      0.00
    4    5   22      1.76      0.00
    5    5   22     -0.48      0.00
    0    6   22     -0.90      0.00
    1    6   22      3.69      0.00
    2    6   22      3.40      0.00
    3    6   22      2.73      0.00
    4    6   22     -0.48      0.00
    5    6   22      0.92      0.00
    6    6   22      0.50      0.00
    0    7   22     -0.91      0.00
    1    7   22      0.17      0.00
    2    7   22      3.09      0.00
    3    7   22      0.52      0.00
    4    7   22     -1.35      0.00
    5    7   22     -0.41      0.00
    6    7   22      1.17      0.00
    7    7   22      1.58      0.00
    0    8   22     -1.64      0.00
    1    8   22     -1.23      0.00
    2    8   22     -1.52      0.00
    3    8   22     -0.70      0.00
    4    8   22     -0.85      0.00
    5    8   22      1.06      0.00
    6    8   22      0.83      0.00
    7    8   22      6.23      0.00
    0    9   22      0.47      0.00
    1    9   22     -2.02      0.00
    2    9   22     -2.83      0.00
    3    9   22     -0.95      0.00
    4    9   22     -1.07      0.00
    5    9   22      1.67      0.00
    6    9   22      3.25      0.00
    0   10   22     -0.15      0.00
    1   10   22      0.08      0.00
    2   10   22     -1.45      0.00
    3   10   22      2.56      0.00
    4   10   22      1.64      0.00
    5   10   22      3.12      0.00
    0   11   22      0.91      0.00
    1   11   22     -0.68      0.00
    0    0   23     -3.85      0.00
    0    1   23      0.80      0.00
    1    1   23     -1.06      0.00
    0    2   23      2.01      0.00
    1    2   23      2.35      0.00
    2    2   23     -0.60      0.00
    0    3   23      3.10      0.00
    1    3   23     -0.42      0.00
    2    3   23      0.35      0.00
    3    3   23      1.72      0.00
    0    4   23      1.12      0.00
    1    4   23     -1.56      0.00
    2    4   23     -1.31      0.00
    3    4   23     -0.50      0.00
    4    4   23      3.15      0.00
    0    5   23     -0.73      0.00
    1    5   23     -0.48      0.00
    2    5   23     -3.23      0.00
    3    5   23      0.80      0.00
    4    5   23     -0.18      0.00
    5    5   23      1.87      0.00
    0    6   23      1.64      0.00
    1    6   23      0.00      0.00
    2    6   23      3.33      0.00
    3    6   23      0.73      0.00
    4    6   23      0.82      0.00
    5    6   23     -0.09      0.00
    6    6   23      2.47      0.00
    0    7   23     -2.56      0.00
    1    7   23      0.46      0.00
    2    7   23      1.97      0.00
    3    7   23      1.80      0.00
    4    7   23     -1.56      0.00
    5    7   23     -0.76      0.00
    0    8   23     -0.82      0.00
    1    8   23     -0.69      0.00
    2    8   23      1.00      0.00
    3    8   23      2.25      0.00
    0    0   24     -1.12      0.00
    0    1   24     -1.55      0.00
    1    1   24     -0.77      0.00
    0    2   24      1.50      0.00
    1    2   24     -1.53      0.00
    2    2   24     -0.08      0.00
    0    3   24      1.35      0.00
    1    3   24      1.66      0.00
    2    3   24     -0.16      0.00
    3    3   24     -0.83      0.00
    0    4   24      2.71      0.00
    1    4   24      0.73      0.00
    2    4   24     -1.70      0.00
    3    4   24     -1.81      0.00
    0    5   24      2.07      0.00
    1    5   24     -0.23      0.00
    2    5   24     -1.49      0.00
    3    5   24     -4.14      0.00
    0    0    1     95.39      0.00
    0    1    1     54.42      0.00
   13   14   14     -3.62      0.00
   14   14   14     -2.29      0.00
   13   13   15      2.26      0.00
   13   14   15      0.52      0.00
   13   13   16      5.30      0.00
   11   15   16     -2.21      0.00
   10   16   16     -1.13      0.00
   12   13   17      3.77      0.00
   11   14   17     -0.04      0.00
   10   15   17      2.03      0.00
    8   16   17      1.66      0.00
    6   17   17      0.74      0.00
   12   12   18     -0.28      0.00
   11   13   18     -1.06      0.00
    8   15   18     -0.96      0.00
    0   17   18      1.54      0.00
    1   17   18      0.23      0.00
   11   11   19     -0.25      0.00
   10   12   19     -2.20      0.00
    9   13   19     -1.12      0.00
    5   15   19     -2.18      0.00
    8   12   20     -0.63      0.00
    4   14   20     -0.17      0.00
    8   10   21     -0.30      0.00
    7   11   21     -0.53      0.00
    5   12   21      0.01      0.00
    0   13   21     -1.11      0.00
    1   13   21     -1.88      0.00
    2   13   21     -0.54      0.00
    8    8   22      3.32      0.00
    7    9   22      2.91      0.00
    2   11   22      0.41      0.00
    3   11   22      1.87      0.00
    6    7   23     -1.34      0.00
    4    8   23      0.69      0.00
    0    9   23      1.87      0.00
    1    9   23     -0.16      0.00
    2    9   23     -2.10      0.00
    4    4   24     -3.26      0.00
    0    6   24      0.87      0.00
    1    6   24      1.91      0.00
    0    0    0      0.00      0.00
# SQUEEZE RESULTS (Version =  30715)
# Note: Data are Listed for all Voids in the P1 Unit Cell
# i.e. Centre of Gravity, Solvent Accessible Volume,
# Recovered number of Electrons in the Void and
# Details about the Squeezed Material
loop_
  _platon_squeeze_void_nr
  _platon_squeeze_void_average_x
  _platon_squeeze_void_average_y
  _platon_squeeze_void_average_z
  _platon_squeeze_void_volume
  _platon_squeeze_void_count_electrons
  _platon_squeeze_void_content
   1 -0.002 -0.001 -0.001       664       218 ' '
   2  0.500  0.500  0.500        95        24 ' '
# Missing Reflections Below sin(th)/lambda = 0.25
loop_
  _platon_missing_refln_index_h
  _platon_missing_refln_index_k
  _platon_missing_refln_index_l
  _platon_missing_refln_theta
    0    0    1     1.724
    0    1    1     2.438
_platon_squeeze_void_probe_radius                  1.20
_platon_squeeze_details
)
TITL p15133    P m -3 m     R = 0.09
CELL   11.8130   11.8130   11.8130     90.00     90.00     90.00
SPGR Pm-3m
# Solvent Accessible Volume =     770.8
# Electrons Found in S.A.V. =     234.4
# Note: Atoms in Void as Cxxx and Qxxx all others
C101 0.352 1.000 0.000 !       6.18 eA-3
C102 0.648 1.000 0.000 !       6.18 eA-3
C103 0.830 0.826 0.174 !       4.45 eA-3
C104 0.884 0.885 0.212 !       3.86 eA-3
C105 1.000 0.080 0.254 !       3.56 eA-3
C106 0.815 0.816 0.034 !       2.50 eA-3
C107 0.185 0.971 0.809 !       2.50 eA-3
C108 1.000 1.000 0.000 !       2.49 eA-3
C109 0.500 0.501 0.437 !       2.46 eA-3
C110 0.859 0.141 0.141 !       2.20 eA-3
C111 1.000 0.422-0.005 !       2.17 eA-3
C112 0.479 0.479 0.479 !       2.08 eA-3
Q113 0.500 0.503 0.250 !       1.61 eA-3
C114 0.500 0.996 0.047 !       1.61 eA-3
C115 0.409 0.422 0.494 !       1.43 eA-3
C116 0.409 0.494 0.422 !       1.43 eA-3
Q117 0.141 0.281 0.498 !       1.39 eA-3
C118 1.000 0.125 0.002 !       1.35 eA-3
C119 0.048 0.046 0.485 !       1.32 eA-3
C120 0.500 0.505 0.344 !       1.29 eA-3
C121 0.063 1.000 0.062 !       1.27 eA-3
C122 0.538 0.474 0.417 !       1.27 eA-3
C123 0.573 0.460 0.542 !       1.27 eA-3
C124 0.975 0.991 0.963 !       1.27 eA-3
C125 0.783 0.780 0.220 !       1.24 eA-3
Q126 0.611 0.108 0.108 !       1.24 eA-3
Q127 0.108 0.111 0.608 !       1.24 eA-3
Q128 0.892 0.889 0.392 !       1.24 eA-3
Q129 0.108 0.422 0.005 !       1.23 eA-3
C130 0.624 0.546 0.454 !       1.22 eA-3
C131 0.453 0.546 0.626 !       1.22 eA-3
C132 0.450 0.504 0.359 !       1.22 eA-3
C133 0.500 0.644 0.543 !       1.22 eA-3
Q134 0.500 0.234-0.001 !       1.22 eA-3
C135 1.000 0.737 0.027 !       1.19 eA-3
Q136 0.284 0.391 0.498 !       1.19 eA-3
Q137 0.500 0.720 0.607 !       1.19 eA-3
Q138 0.375 0.891 0.375 !       1.19 eA-3
Q139 0.751 0.219 0.496 !       1.18 eA-3
Q140 0.249 0.504 0.781 !       1.17 eA-3
Q141 0.829 0.392 0.424 !       1.17 eA-3
C142 0.248 0.234 0.005 !       1.15 eA-3
C143 1.000 0.745 0.768 !       1.15 eA-3
Q144 0.907 0.500 0.313 !       1.14 eA-3
Q145 0.253 0.252 0.331 !       1.12 eA-3
Q146 0.797 0.454 0.803 !       1.12 eA-3
Q147 0.203 0.546 0.197 !       1.12 eA-3
Q148 0.530 0.327 0.526 !       1.12 eA-3
Q149 0.203 0.547 0.791 !       1.12 eA-3
Q150 0.360 0.644 0.421 !       1.12 eA-3
Q151 0.157 0.626 0.159 !       1.11 eA-3
Q152 0.166 0.219 0.504 !       1.11 eA-3
Q153 0.166 0.781 0.496 !       1.11 eA-3
Q154 0.834 0.219 0.504 !       1.11 eA-3
Q155 0.500 0.225 0.833 !       1.11 eA-3
Q156 0.343 0.343 0.343 !       1.09 eA-3
C157 0.095 0.203-0.003 !       1.08 eA-3
C158 0.186 0.047 0.047 !       1.08 eA-3
C159 0.689 0.922 0.078 !       1.07 eA-3
Q160 0.500 0.220 0.107 !       1.07 eA-3
Q161 1.000 0.539 0.256 !       1.05 eA-3
Q162 0.548 1.000 0.156 !       1.05 eA-3
Q163 0.732 0.998 0.406 !       1.03 eA-3
C164 0.357 0.081 0.957 !       1.03 eA-3
C165 0.643 0.919 0.043 !       1.03 eA-3
Q166 1.000 0.377 0.314 !       1.03 eA-3
Q167 0.624 0.998 0.688 !       1.03 eA-3
Q168 0.315 1.001 0.375 !       1.03 eA-3
Q169 0.685 0.625 0.999 !       1.03 eA-3
C170 0.813 0.719 0.939 !       1.03 eA-3
C171 0.187 0.281 0.061 !       1.03 eA-3
C172 0.938 0.719 0.814 !       1.03 eA-3
C173 0.279 0.813 0.938 !       1.03 eA-3
C174 0.721 0.813 0.938 !       1.03 eA-3
Q175 0.034 0.266 0.504 !       1.02 eA-3
C176 0.028 0.323 0.111 !       1.01 eA-3
C177 0.972 0.677 0.889 !       1.01 eA-3
C178 0.890 0.891 0.109 !       1.01 eA-3
C179 0.896 0.332 0.970 !       1.01 eA-3
Q180 0.346 0.471 0.346 !       1.00 eA-3
Q181 0.654 0.529 0.654 !       1.00 eA-3
C182 0.074 0.262 0.136 !       1.00 eA-3
C183 0.926 0.738 0.864 !       1.00 eA-3
C184 0.863 0.270 0.917 !       1.00 eA-3
C185 0.863 0.739 0.927 !       1.00 eA-3
C186 0.740 0.864 0.926 !       1.00 eA-3
Q187 1.000 0.217 0.344 !       0.99 eA-3
C188 0.841 0.846 0.060 !       0.99 eA-3
C189 0.376 0.484 0.624 !       0.98 eA-3
Q190 0.234 0.140 0.231 !       0.97 eA-3
C191 0.589 0.558 0.587 !       0.97 eA-3
Q192 1.000 0.312 0.496 !       0.96 eA-3
Q193 0.500 0.313 0.996 !       0.96 eA-3
Q194 0.500 1.004 0.687 !       0.96 eA-3
Q195 0.738 0.453 0.453 !       0.95 eA-3
Q196 0.832 0.328 0.498 !       0.94 eA-3
Q197 0.547 0.311 0.251 !       0.94 eA-3
Q198 0.279 0.234 0.234 !       0.93 eA-3
Q199 0.766 0.469 0.063 !       0.92 eA-3
)
;
_shelx_shelxl_version_number     2014/7
_olex2_submission_special_instructions 'No special instructions were received'
loop_
_space_group_symop_operation_xyz
'x, y, z'
'-x, -y, z'
'-x, y, -z'
'x, -y, -z'
'z, x, y'
'z, -x, -y'
'-z, -x, y'
'-z, x, -y'
'y, z, x'
'-y, z, -x'
'y, -z, -x'
'-y, -z, x'
'y, x, -z'
'-y, -x, -z'
'y, -x, z'
'-y, x, z'
'x, z, -y'
'-x, z, y'
'-x, -z, -y'
'x, -z, y'
'z, y, -x'
'z, -y, x'
'-z, y, x'
'-z, -y, -x'
'-x, -y, -z'
'x, y, -z'
'x, -y, z'
'-x, y, z'
'-z, -x, -y'
'-z, x, y'
'z, x, -y'
'z, -x, y'
'-y, -z, -x'
'y, -z, x'
'-y, z, x'
'y, z, -x'
'-y, -x, z'
'y, x, z'
'-y, x, -z'
'y, -x, -z'
'-x, -z, y'
'x, -z, -y'
'x, z, y'
'-x, z, -y'
'-z, -y, x'
'-z, y, -x'
'z, -y, -x'
'z, y, x'
loop_
_atom_site_label
_atom_site_type_symbol
_atom_site_fract_x
_atom_site_fract_y
_atom_site_fract_z
_atom_site_U_iso_or_equiv
_atom_site_adp_type
_atom_site_occupancy
_atom_site_site_symmetry_order
_atom_site_calc_flag
_atom_site_refinement_flags_posn
_atom_site_refinement_flags_adp
_atom_site_refinement_flags_occupancy
Si1 Si 0.5000 0.87042(3) 0.31738(3) 0.00207(7) Uani 1 2 d S T P
O1 O 0.5000 0.79664(8) 0.20336(8) 0.00459(17) Uani 1 4 d S T P
O2 O 0.61343(6) 0.83950(9) 0.38657(6) 0.01013(17) Uani 1 2 d S T P
O3 O 0.5000 1.0000 0.27463(12) 0.0109(2) Uani 1 4 d S T P
F1 F 0.5000 1.0000 0.5000 0.0108(8) Uani 0.674(14) 16 d S T P
loop_
_atom_site_aniso_label
_atom_site_aniso_U_11
_atom_site_aniso_U_22
_atom_site_aniso_U_33
_atom_site_aniso_U_23
_atom_site_aniso_U_13
_atom_site_aniso_U_12
Si1 0.00238(12) 0.00174(12) 0.00210(12) -0.00013(8) 0.000 0.000
O1 0.0072(4) 0.0033(2) 0.0033(2) -0.0020(3) 0.000 0.000
O2 0.0082(2) 0.0139(4) 0.0082(2) -0.0053(2) -0.0059(3) 0.0053(2)
O3 0.0237(7) 0.0010(4) 0.0079(5) 0.000 0.000 0.000
F1 0.0101(10) 0.0121(16) 0.0101(10) 0.000 0.000 0.000
loop_
_atom_type_symbol
_atom_type_description
_atom_type_scat_dispersion_real
_atom_type_scat_dispersion_imag
_atom_type_scat_source
F F 0.0171 0.0103 'International Tables Vol C Tables 4.2.6.8 and 6.1.1.4'
O O 0.0106 0.0060 'International Tables Vol C Tables 4.2.6.8 and 6.1.1.4'
Si Si 0.0817 0.0704 'International Tables Vol C Tables 4.2.6.8 and 6.1.1.4'
loop_
_exptl_crystal_face_index_h
_exptl_crystal_face_index_k
_exptl_crystal_face_index_l
_exptl_crystal_face_perp_dist
0.00 -1.00 1.00 0.0240
0.00 1.00 -1.00 0.0140
1.00 1.00 1.00 0.0290
0.00 -1.00 -1.00 0.0200
-1.00 1.00 1.00 0.0360
1.00 -1.00 -1.00 0.0090
-1.00 0.00 0.00 0.0430
1.00 0.00 1.00 0.0330
-1.00 1.00 -1.00 0.0360
-1.00 -1.00 0.00 0.0270
1.00 0.00 0.00 0.0300
-1.00 1.00 2.00 0.0380
loop_
_geom_angle_atom_site_label_1
_geom_angle_atom_site_label_2
_geom_angle_atom_site_label_3
_geom_angle
_geom_angle_site_symmetry_1
_geom_angle_site_symmetry_3
O1 Si1 O2 107.62(4) . .
O1 Si1 O2 107.62(4) . 28_655
O1 Si1 O3 104.65(7) . .
O2 Si1 O2 112.50(8) . 28_655
O2 Si1 O3 111.97(5) 28_655 .
O2 Si1 O3 111.97(5) . .
Si1 O1 Si1 155.81(9) . 42_566
Si1 O2 Si1 142.39(7) 46_656 .
Si1 O3 Si1 143.49(10) 2_675 .
loop_
_geom_bond_atom_site_label_1
_geom_bond_atom_site_label_2
_geom_bond_distance
_geom_bond_site_symmetry_2
Si1 O1 1.6043(6) .
Si1 O2 1.6115(5) 28_655
Si1 O2 1.6115(6) .
Si1 O3 1.6119(7) .
O1 Si1 1.6043(6) 42_566
O2 Si1 1.6115(6) 46_656
O3 Si1 1.6119(7) 2_675
loop_
_geom_torsion_atom_site_label_1
_geom_torsion_atom_site_label_2
_geom_torsion_atom_site_label_3
_geom_torsion_atom_site_label_4
_geom_torsion
_geom_torsion_site_symmetry_1
_geom_torsion_site_symmetry_4
O1 Si1 O2 Si1 178.13(12) . 46_656
O1 Si1 O3 Si1 180.000(0) . 2_675
O2 Si1 O1 Si1 60.74(5) . 42_566
O2 Si1 O1 Si1 -60.74(5) 28_655 42_566
O2 Si1 O2 Si1 -63.48(16) 28_655 46_656
O2 Si1 O3 Si1 63.71(4) 28_655 2_675
O2 Si1 O3 Si1 -63.71(4) . 2_675
O3 Si1 O1 Si1 180.000(0) . 42_566
O3 Si1 O2 Si1 63.66(15) . 46_656
loop_
_refln_index_h
_refln_index_k
_refln_index_l
_refln_F_squared_meas
_refln_F_squared_sigma
-1 1 1 294.3 7.69
-2 0 0 45.41 1.28
0 -2 0 51.9 1.3
0 -2 0 49 1.29
0 0 -2 45.81 1.28
0 0 2 45.18 1.28
0 2 0 42.63 1.31
0 2 0 47.9 1.3
2 0 0 46.02 1.28
2 1 0 16.76 0.48
2 1 0 17.16 0.55
2 1 0 17.25 0.48
0 2 1 16.69 0.58
0 2 1 17.42 0.55
1 0 2 16.79 0.55
2 -1 0 17.53 0.49
2 -1 0 17.85 0.5
-1 0 2 16.63 0.5
-1 0 2 16.69 0.5
0 -2 -1 18.37 0.55
0 -2 -1 16.72 0.52
0 -2 -1 17.63 0.54
-2 1 0 16.82 0.5
-1 0 -2 16.91 0.56
-2 1 0 17.21 0.5
-2 -1 0 17.2 0.56
-2 -1 0 17.86 0.49
2 0 -1 16.5 0.51
2 0 1 17.14 0.56
1 2 0 17.61 0.54
2 0 -1 17.25 0.48
1 2 0 16.91 0.53
1 2 0 17.42 0.56
0 1 2 16.4 0.57
0 1 2 16.52 0.51
1 -2 0 17.88 0.54
1 -2 0 18.3 0.54
-1 -2 0 18.9 0.54
-1 -2 0 16.72 0.56
-1 -2 0 18.31 0.54
-1 2 0 17.54 0.55
0 -1 -2 18.34 0.55
0 -1 -2 16.6 0.52
-2 0 -1 17.28 0.56
-2 0 1 16.41 0.5
-2 -1 -1 0.91 0.11
-2 -1 -1 0.54 0.16
-2 -1 -1 0.59 0.09
-1 2 1 0.41 0.15
-2 1 1 0.74 0.11
-1 -2 -1 0.81 0.15
-1 -2 -1 0.6 0.15
-1 -2 -1 0.63 0.14
2 1 -1 0.32 0.13
-1 -1 -2 0.66 0.15
-1 -1 -2 0.46 0.15
-1 1 2 0.42 0.16
-1 2 1 0.46 0.15
1 -2 -1 0.63 0.15
1 -1 -2 0.81 0.15
1 -1 -2 0.5 0.07
1 -2 -1 0.73 0.15
1 1 2 0.5 0.15
1 1 2 0.28 0.13
-2 -1 1 0.53 0.14
1 2 1 0.54 0.16
1 2 1 0.49 0.14
1 2 1 0.57 0.14
2 -1 -1 0.63 0.11
2 -1 -1 0.55 0.11
-1 -2 1 0.55 0.16
2 1 1 0.57 0.1
2 1 1 0.39 0.15
-2 -2 0 261.9 6.48
-2 -2 0 237.56 6.53
-2 0 -2 230.09 6.52
0 -2 -2 250.52 6.51
0 -2 -2 246.67 6.51
0 2 2 246.22 6.51
2 -2 0 264.77 6.49
2 -2 0 250.92 6.49
2 0 -2 250.1 6.47
2 0 2 237.85 6.52
2 2 0 240.75 6.53
2 2 0 240.28 6.47
-2 -2 -1 254.19 6.33
-2 -2 -1 234.34 6.38
-2 -2 -1 241.92 6.33
2 2 -1 229.69 6.37
-2 -1 -2 251.14 6.34
-2 -1 -2 234.81 6.38
-1 -2 -2 252.48 6.36
-1 -2 -2 235.48 6.35
-1 2 2 237.4 6.35
2 -1 2 227.19 6.36
1 -2 -2 242.81 6.35
1 -2 -2 245.56 6.36
1 2 2 242.04 6.36
2 -2 -1 266.35 6.34
2 -2 -1 237.77 6.34
2 -1 -2 252.94 6.33
2 1 2 229.17 6.37
-2 -2 1 236.14 6.38
2 2 1 229.95 6.37
2 2 1 232.64 6.32
-2 -2 -2 3.37 0.28
-2 -2 -2 3.21 0.32
-2 -2 -2 3.28 0.23
2 2 -2 3.55 0.29
-2 2 2 2.97 0.25
2 -2 -2 3.27 0.25
2 -2 -2 2.9 0.25
-2 -2 2 3.19 0.29
2 2 2 3.44 0.26
2 2 2 3.14 0.31
0 -3 0 466.56 12.22
0 3 1 17.17 0.59
0 3 1 17.34 0.6
1 0 3 15.71 0.59
3 -1 0 16.82 0.53
3 -1 0 17.18 0.5
3 1 0 16.22 0.47
3 1 0 16.29 0.58
3 1 0 16.53 0.47
0 -3 -1 18.01 0.59
0 3 -1 17.32 0.59
-3 1 0 16.99 0.49
-3 1 0 16.62 0.5
-1 0 -3 16.07 0.59
-1 0 3 15.52 0.52
0 -3 -1 16.95 0.59
0 -3 -1 16.74 0.56
-3 -1 0 17.08 0.59
-3 -1 0 17.19 0.47
0 -3 -2 182.61 4.73
0 -3 -2 170.88 4.69
0 3 2 178.51 4.73
2 0 -3 184.58 4.7
2 0 3 168.41 4.74
3 -2 0 187.8 4.68
3 -2 0 179.16 4.68
3 2 0 172.35 4.66
3 2 0 176.12 4.75
-3 2 0 176.06 4.68
-2 0 3 170.22 4.65
0 3 2 170.77 4.67
-3 -2 0 185.12 4.66
0 3 2 174.74 4.73
0 1 3 16.76 0.58
0 1 3 16.11 0.53
3 0 1 16.37 0.59
3 0 -1 16.88 0.47
1 -3 0 18.08 0.59
1 3 0 17.15 0.57
1 3 0 16.79 0.59
1 3 0 16.6 0.58
-3 0 -1 16.6 0.58
-3 0 1 16.28 0.52
-1 -3 0 17.55 0.58
-1 -3 0 16.79 0.6
0 -1 -3 15.44 0.55
-1 -3 0 16.62 0.57
-1 3 0 16.71 0.58
-1 3 0 16.63 0.59
0 -1 -3 18.91 0.63
3 0 -1 16.56 0.54
1 -3 0 17.21 0.59
3 1 -1 236.64 6.38
1 3 -1 242.85 6.38
-1 3 1 245.27 6.39
3 -1 1 233.64 6.38
-1 -1 -3 230.71 6.39
-3 -1 -1 238.6 6.4
-1 1 3 240.65 6.38
-1 -3 -1 252.48 6.39
-1 -3 -1 238.9 6.4
-1 3 1 246.95 6.4
-1 -3 -1 255.57 6.39
-3 1 1 232.06 6.32
1 3 1 246.11 6.39
1 3 1 242.97 6.39
-1 3 -1 243.94 6.39
-1 -3 1 240.66 6.41
1 1 3 237.39 6.39
1 1 3 238.08 6.38
1 -3 -1 251.02 6.4
1 3 1 236.16 6.39
3 1 1 239.16 6.41
-3 -2 -1 111.85 2.97
-2 1 3 110.18 3.01
-3 -2 -1 110.98 3.06
-3 2 1 106.88 2.99
3 2 -1 111.37 3.05
-3 2 1 114.27 2.98
-3 -2 -1 119.06 2.98
2 -1 3 109.05 3.05
-1 3 2 110.28 3.03
-1 -3 -2 108.38 3.03
-1 -3 -2 113.17 3.03
-1 3 2 110.2 3.04
3 2 -1 110.78 2.97
-2 -1 3 110.36 3.01
3 2 1 102.25 3
3 2 1 112.64 3.06
1 -3 -2 117.83 3.04
2 1 3 110.47 3.01
2 1 3 110.96 3.05
2 -1 -3 115.71 3.01
3 2 1 108.78 2.96
3 -2 -1 110.49 2.99
1 3 2 110.26 3.02
3 -2 -1 120.92 2.99
1 3 2 112.74 3.03
1 3 2 107.93 3.03
2 3 0 180.14 4.78
2 3 0 177.58 4.78
3 0 -2 171.08 4.75
2 3 0 176.01 4.82
2 -3 0 188.53 4.8
-2 -3 0 189 4.78
-2 3 0 178.14 4.79
2 -3 0 196.32 4.8
-2 3 0 175.1 4.79
0 -2 -3 168.68 4.76
0 2 3 183.01 4.81
3 0 2 172.55 4.82
3 0 -2 182.97 4.74
3 -1 2 108.91 3.06
3 1 -2 108.86 3.03
-1 2 3 112.68 3.05
2 3 -1 115.33 3.03
-2 3 1 107.09 3.04
-2 -3 -1 118.78 3.04
-2 -3 -1 115.64 3.03
2 3 -1 115.82 3.08
-2 3 1 112.21 3.04
-3 -1 -2 108.79 3.08
-3 -1 -2 117.39 3
-1 -2 -3 110.75 3.05
1 2 3 110.82 3.05
2 3 1 110.62 3.03
2 -3 -1 118.22 3.05
-2 -3 1 110.28 3.08
-2 3 -1 115.25 3.04
-2 3 -1 111.25 3.04
2 3 1 111.49 3.07
2 3 1 113.44 3.03
3 -1 -2 115.14 2.99
1 2 3 107.78 3.03
-3 -1 2 110.64 3.02
3 1 2 108.2 2.99
3 1 2 110.93 3.07
1 -2 -3 108.04 2.97
-3 -2 -2 61.08 1.68
-3 -2 -2 58.45 1.76
-3 -2 -2 60.03 1.67
-3 2 2 60.1 1.68
-2 -3 -2 62.84 1.77
-2 -3 -2 64.52 1.71
-2 2 3 60.06 1.71
-2 -2 -3 60.46 1.76
3 2 -2 63.39 1.75
-2 3 2 59.29 1.73
-2 3 2 60.06 1.72
-2 -3 2 60.23 1.76
2 -3 -2 62.76 1.72
-3 -2 2 53.25 1.78
2 2 3 59.61 1.71
2 2 3 60.83 1.74
-2 -2 3 57.72 1.79
2 3 2 60.73 1.72
2 3 2 60.73 1.74
2 3 2 60.18 1.71
3 -2 -2 63.19 1.69
3 -2 -2 62.89 1.7
3 2 2 59.9 1.68
3 2 2 62.23 1.76
-3 -3 0 35.8 1.04
-3 -3 0 35.69 1.12
-3 0 -3 35.12 1.12
-3 0 3 33.66 0.97
-3 3 0 35.68 1.06
-3 3 0 34.38 1.06
0 -3 -3 34.24 1.04
0 -3 -3 35.31 1.08
0 3 3 35.22 1.09
0 3 3 33.01 1
3 -3 0 39.89 1.11
3 -3 0 37.04 1.06
3 0 -3 34.66 1.02
3 0 -3 34.8 1.02
3 0 3 35.19 1.11
3 3 0 34.73 1.03
3 3 0 34.52 1.11
3 3 0 35.16 1.04
-3 -3 -1 41.25 1.18
-3 -3 -1 39.16 1.25
-3 -3 -1 41.29 1.17
3 3 -1 41.67 1.25
-3 -1 -3 40.11 1.26
3 1 -3 41.15 1.2
-3 1 3 39.36 1.16
3 3 -1 41.27 1.17
3 -1 3 40.69 1.24
-3 3 1 40.62 1.18
-3 3 1 39.36 1.19
-1 -3 -3 40.49 1.22
-1 -3 -3 40.94 1.21
-1 3 3 39.77 1.22
1 -3 -3 40.58 1.22
1 -3 -3 39.86 1.12
1 3 3 38.92 1.22
1 3 3 40.12 1.19
3 -3 -1 42.28 1.19
3 -1 -3 41.56 1.17
3 -1 -3 38.92 1.09
-3 3 -1 40.69 1.19
-3 -1 3 39.79 1.17
3 1 3 39.76 1.24
-3 3 -1 40.17 1.19
-3 -3 1 38.59 1.24
3 3 1 40.78 1.17
3 3 1 40.53 1.25
3 3 1 39.96 1.16
-3 -3 -2 177.06 4.82
-3 -3 -2 184.7 4.74
3 2 -3 175.31 4.79
-3 -2 -3 180.01 4.83
-3 -2 -3 178.87 4.73
3 3 -2 179.72 4.82
-3 2 3 176.78 4.75
-3 3 2 172.8 4.75
-3 3 2 173.35 4.76
-2 -3 -3 176.21 4.81
-2 -3 -3 185.7 4.77
-2 3 3 176.18 4.77
2 -3 -3 183.75 4.79
-2 -3 3 178.51 4.81
2 3 3 178.84 4.78
2 3 3 173.07 4.79
3 -3 -2 187.96 4.77
3 -2 -3 181.09 4.76
-3 -3 2 177.95 4.81
3 2 3 174.85 4.75
3 2 3 174.04 4.81
-3 -2 3 175.4 4.78
3 3 2 174.47 4.75
3 3 2 171.76 4.81
3 3 2 178.05 4.74
-3 -3 -3 121.31 3.32
-3 -3 -3 124.43 3.23
-3 3 3 114.03 3.24
3 -3 -3 118.68 3.25
-3 -3 3 118.1 3.29
3 3 3 117.82 3.24
3 3 3 117.09 3.29
-4 0 0 -0.26 0.16
0 -4 0 -0.29 0.23
0 0 4 -0.27 0.16
0 4 0 -0.35 0.23
0 4 0 -0.23 0.23
4 0 0 -0.33 0.16
1 0 4 184.8 5.06
4 -1 0 181.79 5.02
4 1 0 191.05 5.06
-1 0 -4 172.21 5.07
-1 0 4 184.1 5.01
0 -4 -1 191.88 5.05
0 -4 -1 207.43 5.08
0 4 -1 193.65 5.07
0 4 -1 185.63 5.06
0 4 1 195.97 5.07
0 4 1 187.54 5.07
-4 1 0 190.26 4.95
4 -2 0 0.93 0.16
4 2 0 0.86 0.13
4 2 0 0.79 0.21
0 4 2 0.82 0.2
0 4 2 0.55 0.24
0 -4 -2 0.83 0.17
0 -4 -2 0.7 0.19
2 0 4 0.76 0.22
4 2 0 1.05 0.13
-2 0 4 0.99 0.13
-2 0 4 0.93 0.13
-4 -2 0 0.7 0.14
-4 -2 0 0.79 0.21
-4 2 0 0.97 0.18
-4 2 0 0.86 0.16
-2 0 -4 1.03 0.22
-3 0 -4 0.78 0.23
-4 3 0 0.75 0.2
3 0 -4 0.69 0.15
3 0 4 0.73 0.23
-3 0 4 0.73 0.1
-3 0 4 0.69 0.1
0 4 3 0.89 0.24
0 4 3 0.67 0.24
0 -4 -3 0.9 0.18
4 -3 0 1.1 0.2
4 3 0 0.78 0.16
4 3 0 0.69 0.22
4 3 0 0.59 0.15
-4 -3 0 0.79 0.18
-4 -3 0 0.75 0.22
-4 3 0 0.88 0.18
-4 0 1 179.55 5.05
4 0 -1 188.53 5.08
4 0 1 191.12 5.12
1 4 0 190.69 5.11
1 4 0 189.66 5.12
0 1 4 183.87 5.07
-1 -4 0 188.43 5.14
-1 4 0 196.26 5.13
-4 0 -1 192.94 5.01
-1 4 0 188.72 5.12
0 -1 -4 193.12 5.1
1 -4 0 211.88 5.14
4 1 -1 67.16 1.84
4 -1 1 66.76 1.95
-4 -1 -1 66.93 1.84
-1 4 1 68.82 1.98
-1 -4 -1 77.79 1.99
-4 -1 -1 69.12 1.86
4 1 -1 70.61 1.96
-1 4 1 72.51 1.98
-1 1 4 66.5 1.88
-4 -1 -1 70.14 1.99
-4 1 1 66.04 1.86
1 4 -1 71.41 1.97
1 4 -1 68.68 1.97
1 -1 4 67.37 1.97
4 1 1 66.01 1.86
4 1 1 71.65 1.99
1 1 4 69.36 1.96
-1 4 -1 72.13 1.98
1 4 1 70.3 1.97
1 4 1 70.23 1.96
4 -1 -1 70.51 1.86
4 -1 -1 68.74 1.9
4 -1 -1 70.26 1.88
-4 1 -1 67.25 1.86
-1 -4 1 72.5 2.01
1 4 1 69.53 1.97
1 -1 -4 67.81 1.91
-1 4 -1 71.37 1.98
1 -4 -1 72.86 1.98
-4 -1 1 69.74 1.95
-4 -2 -1 45.98 1.24
-4 2 1 43.5 1.28
2 -1 4 44.75 1.37
-4 2 1 45.44 1.27
-4 -2 -1 47.81 1.26
4 2 -1 44.52 1.36
-4 -2 -1 45.02 1.38
-1 4 2 45.32 1.36
-1 -4 -2 46.49 1.35
-2 -1 -4 43.11 1.37
-1 4 2 45.17 1.36
1 4 2 44.95 1.33
-4 2 -1 43.97 1.27
1 4 2 44.84 1.35
1 -4 -2 45.12 1.36
2 1 4 43.89 1.36
4 -2 -1 48.12 1.27
-2 -1 4 45.61 1.32
-4 -2 1 46.15 1.36
-4 2 -1 46.41 1.28
4 2 1 43.97 1.24
1 4 2 43.82 1.35
4 -2 -1 44.95 1.28
4 2 1 45.69 1.38
2 -1 -4 43.73 1.26
-1 -4 -3 0.47 0.19
-1 -4 -3 0.61 0.24
4 3 -1 0.39 0.15
3 -1 4 0.46 0.2
-1 4 3 0.05 0.21
-4 -3 -1 0.46 0.18
-4 3 1 0.72 0.17
-4 3 1 0.25 0.17
-3 -1 -4 0.14 0.21
-4 -3 -1 0.43 0.16
-1 4 3 0.5 0.23
-4 -3 -1 0.24 0.19
4 3 -1 0.34 0.2
3 -1 -4 0.39 0.1
1 -4 -3 0.27 0.11
3 1 4 0.4 0.21
-3 -1 4 0.27 0.15
4 3 1 0.4 0.15
4 3 1 0.48 0.21
1 4 3 0.18 0.22
-4 3 -1 0.37 0.17
-4 3 -1 0.47 0.19
4 -3 -1 0.43 0.16
-4 -3 1 0.51 0.2
1 4 3 0.49 0.24
1 4 3 0.26 0.15
4 3 1 0.44 0.15
2 4 0 0.8 0.22
2 4 0 0.78 0.21
2 4 0 0.74 0.21
4 0 -2 0.79 0.15
4 0 2 0.65 0.21
4 0 -2 0.92 0.12
-4 0 -2 1.09 0.22
-4 0 2 0.8 0.11
-4 0 -2 1.15 0.16
-2 -4 0 0.65 0.23
-2 4 0 0.93 0.24
0 2 4 0.83 0.14
2 -4 0 1.23 0.24
0 2 4 1.17 0.24
0 -2 -4 0.83 0.17
-2 4 0 0.93 0.24
-2 4 1 45.48 1.35
-4 -1 -2 44.48 1.38
-2 -4 -1 44.8 1.38
-2 -4 -1 48.46 1.34
2 4 -1 44.33 1.33
2 4 -1 46.08 1.39
2 4 -1 44.66 1.34
-4 -1 -2 46.64 1.27
4 -1 2 44.88 1.36
4 1 -2 45.13 1.33
-1 2 4 45.69 1.36
-2 4 1 45.25 1.36
1 2 4 44.5 1.32
4 -1 -2 43.32 1.25
4 -1 -2 46.11 1.26
2 4 1 45.59 1.34
1 2 4 46.53 1.36
-2 -4 1 44.63 1.38
-2 4 -1 46.32 1.36
-4 -1 2 43.95 1.31
2 -4 -1 46.59 1.36
2 4 1 44.89 1.34
-2 4 -1 44.61 1.36
4 1 2 45.36 1.38
1 -2 -4 44.34 1.28
2 4 1 45.14 1.37
-2 -2 -4 46.56 1.43
4 -2 2 47.75 1.4
4 2 -2 46.88 1.41
-2 4 2 46.31 1.4
-2 2 4 45.27 1.39
-4 2 2 46.25 1.33
-4 -2 -2 45.19 1.43
-4 -2 -2 46.83 1.31
2 4 -2 46.85 1.39
-4 -2 -2 47.57 1.33
-2 4 2 44.28 1.4
-2 -4 -2 47.57 1.43
-2 -4 -2 48.91 1.4
2 2 4 46.78 1.4
2 4 2 48.05 1.4
2 -2 -4 45.76 1.28
4 2 2 47.91 1.44
4 -2 -2 47.95 1.33
4 -2 -2 47.65 1.34
2 -4 -2 48.66 1.41
2 4 2 46.28 1.41
-4 -2 2 47.74 1.4
4 2 2 46.32 1.33
-2 -4 2 46.03 1.44
-2 -2 4 45.65 1.39
2 2 4 44.97 1.4
2 4 2 45.42 1.38
4 3 -2 2.41 0.29
-2 -4 -3 2.09 0.28
-4 3 2 2.12 0.23
-3 2 4 2.48 0.27
-2 -4 -3 2.31 0.28
-4 -3 -2 1.97 0.28
-4 -3 -2 2.18 0.25
-2 4 3 2.35 0.3
3 -2 4 1.94 0.27
4 3 -2 2.49 0.24
-3 -2 -4 2.03 0.28
3 -2 -4 2.07 0.1
4 3 2 2.15 0.29
-2 -4 3 1.92 0.27
2 4 3 2.14 0.28
3 -2 -4 2.06 0.1
3 2 4 2.09 0.28
-4 -3 2 1.8 0.27
3 2 4 2.39 0.27
-3 -2 4 1.83 0.23
4 -3 -2 2.3 0.25
4 3 2 1.98 0.25
2 4 3 1.78 0.24
-4 0 -3 0.91 0.22
-3 -4 0 0.6 0.22
3 -4 0 1.23 0.23
-3 4 0 0.59 0.23
4 0 -3 1.05 0.16
4 0 -3 0.67 0.14
4 0 3 1.06 0.24
3 4 0 0.75 0.21
3 4 0 0.68 0.23
3 4 0 0.51 0.21
-3 4 0 0.78 0.22
0 3 4 0.71 0.23
0 3 4 0.65 0.13
-4 0 3 0.69 0.09
0 -3 -4 0.73 0.17
-1 3 4 0.33 0.22
-1 -3 -4 0.4 0.19
-4 1 3 0.16 0.14
-1 -3 -4 0.26 0.23
3 4 -1 0.37 0.19
3 4 -1 0.47 0.22
3 4 -1 0.69 0.21
-3 4 1 0.3 0.21
-3 -4 -1 0.56 0.22
-3 4 1 0.56 0.21
4 -1 3 0.41 0.21
4 1 -3 0.5 0.16
-4 -1 -3 0.41 0.22
-3 -4 -1 0.81 0.21
-4 -1 3 0.37 0.15
4 1 3 0.77 0.23
3 4 1 0.28 0.18
3 4 1 0.38 0.21
3 4 1 0.21 0.18
-3 -4 1 0.3 0.2
-3 4 -1 0.43 0.2
-3 4 -1 0.6 0.22
4 -1 -3 0.54 0.16
1 3 4 0.48 0.16
3 -4 -1 0.74 0.22
4 -1 -3 0.36 0.1
1 3 4 0.44 0.23
1 -3 -4 0.3 0.11
-3 -4 -2 2.97 0.3
-3 -4 -2 1.91 0.27
-4 2 3 2.02 0.24
4 -2 3 2.27 0.27
4 2 -3 2.18 0.28
3 4 -2 2.44 0.29
-4 -2 -3 1.92 0.24
-4 -2 -3 2.02 0.28
-3 4 2 2.3 0.27
-3 4 2 2.14 0.28
-2 -3 -4 2.21 0.29
-2 -3 -4 2.26 0.28
3 4 -2 2.01 0.25
-2 3 4 2.65 0.29
2 -3 -4 2.29 0.14
-2 -3 4 1.9 0.25
2 3 4 2.14 0.28
2 3 4 1.98 0.24
3 -4 -2 2.38 0.28
-3 4 -2 2.26 0.29
3 4 2 2.33 0.27
-4 -2 3 2.17 0.28
4 -2 -3 2.39 0.27
3 4 2 2.18 0.27
3 4 2 1.98 0.25
4 2 3 2.26 0.25
4 2 3 2.19 0.29
-3 -4 2 2.02 0.27
-4 -3 -3 44.48 1.42
-4 -3 -3 46.52 1.3
4 3 -3 45.17 1.39
-4 3 3 43.79 1.32
-3 -4 -3 44.39 1.4
-3 -4 -3 44.16 1.33
-3 -3 -4 45.31 1.41
-3 -3 -4 43.51 1.33
-3 4 3 43.1 1.35
-3 3 4 43.91 1.35
-3 -3 4 43.86 1.37
3 3 4 44.62 1.35
3 3 4 42.8 1.37
3 4 3 44.56 1.35
3 4 3 44.21 1.38
4 -3 -3 44.55 1.33
-3 -4 3 44.22 1.4
-4 -3 3 46.08 1.38
4 3 3 44.4 1.32
4 3 3 43.36 1.4
-4 -4 0 163.88 4.35
-4 0 -4 159.13 4.33
-4 4 0 160.12 4.25
-4 4 0 155.59 4.25
0 -4 -4 158.55 4.24
0 4 4 155.91 4.3
0 4 4 150.99 4.17
4 0 -4 157.29 4.21
4 0 4 159.05 4.33
4 4 0 153.66 4.22
4 4 0 158.98 4.33
4 4 0 154.27 4.22
-4 -4 -1 15.26 0.68
-4 -4 -1 16.15 0.59
4 -1 4 16.47 0.69
-4 -1 -4 15.14 0.66
4 4 -1 15.19 0.57
4 4 -1 16.14 0.59
4 1 -4 15.7 0.59
-4 4 1 15.94 0.6
-4 4 1 15.3 0.61
-1 -4 -4 15.13 0.6
-1 4 4 15.33 0.65
4 4 -1 14.92 0.67
-4 -1 4 16.13 0.55
1 -4 -4 15.23 0.53
1 4 4 14.14 0.64
1 4 4 15 0.58
4 -4 -1 15.69 0.6
4 -1 -4 15.17 0.5
-4 -4 1 15.82 0.67
-4 4 -1 15.28 0.6
4 1 4 16.1 0.67
-4 4 -1 15.68 0.61
4 4 1 15.67 0.58
4 4 1 15.26 0.67
4 4 1 15.98 0.57
-4 -4 -2 54.59 1.64
-4 -4 -2 54.89 1.53
4 -2 4 52.31 1.61
-4 -2 -4 50.25 1.62
-2 -4 -4 53.55 1.6
-4 2 4 52.36 1.53
4 2 -4 52.27 1.57
-4 4 2 51.19 1.53
-4 4 2 50.95 1.55
4 4 -2 52.71 1.52
4 4 -2 54.94 1.63
-2 4 4 51.3 1.58
-4 -2 4 50.55 1.53
-2 -4 4 51.07 1.6
2 4 4 50.53 1.58
2 4 4 50.97 1.56
4 -4 -2 59.34 1.63
4 -2 -4 51.78 1.39
-4 -4 2 52.99 1.62
-4 4 -2 49.86 1.53
4 2 4 51.73 1.53
4 2 4 53.46 1.62
2 -4 -4 51.34 1.43
-4 4 -2 50.55 1.54
4 4 2 53.51 1.53
4 4 2 50.87 1.61
4 4 2 51.63 1.51
-4 -4 -3 167.93 4.64
-4 -4 -3 173.25 4.52
-4 -3 -4 166.08 4.63
-4 -3 -4 172.33 4.52
-4 3 4 164.41 4.54
-4 4 3 162.58 4.54
-3 -4 -4 168.25 4.62
-3 4 4 162.04 4.56
4 4 -3 174.37 4.63
-3 -4 4 170.82 4.62
3 4 4 168.08 4.57
3 4 4 164.33 4.59
-4 -4 3 166.8 4.61
4 3 4 164.17 4.54
4 3 4 171.52 4.62
-4 -3 4 165.21 4.57
4 4 3 169.16 4.54
4 4 3 166.1 4.62
-4 -4 -4 7.21 0.49
-4 4 4 6.72 0.45
-4 -4 4 7.95 0.49
4 4 4 7.15 0.43
4 4 4 6.77 0.52
-5 0 0 91.11 2.86
0 0 5 100.82 2.84
0 5 0 105.37 2.88
0 5 0 111.19 3.13
5 0 0 105.26 2.85
5 -1 0 21.84 0.73
5 1 0 23.21 0.79
-5 -1 0 22.49 0.77
-5 1 0 21.88 0.62
-1 0 -5 21.48 0.77
-1 0 5 22.14 0.72
0 -5 -1 21.6 0.77
0 5 -1 20.94 0.78
0 5 -1 21.72 0.84
0 5 1 22.68 0.79
0 5 1 20.6 0.79
1 0 5 22.44 0.78
0 5 -2 3.83 0.39
5 2 0 4.34 0.19
0 5 2 4.6 0.38
0 5 2 4.03 0.39
2 0 5 3.82 0.37
5 -2 0 4.62 0.29
5 2 0 4.39 0.2
5 2 0 4.26 0.36
-2 0 -5 4.29 0.37
-2 0 5 4.12 0.26
-2 0 5 4.41 0.27
-5 2 0 4 0.24
-5 2 0 3.85 0.26
-5 -2 0 4.05 0.36
-5 -3 0 1.05 0.18
0 5 3 1.27 0.28
-5 3 0 1.02 0.19
5 3 0 1.17 0.16
5 3 0 0.87 0.25
0 5 3 1.11 0.28
3 0 5 0.71 0.24
-3 0 -5 0.99 0.24
-3 0 5 0.92 0.12
-3 0 5 0.95 0.12
-5 3 0 1.25 0.2
5 3 0 1.04 0.16
-5 -3 0 1.11 0.26
5 4 0 58.26 1.62
-4 0 -5 57.64 1.75
-5 4 0 56.39 1.66
-5 -4 0 57.93 1.76
-5 4 0 57.2 1.65
5 4 0 55.72 1.61
5 4 0 58.12 1.79
0 5 4 56.51 1.74
4 0 5 56.09 1.76
0 -5 -4 57.54 1.67
-4 0 5 55.05 1.5
-5 0 1 23.08 0.71
-1 5 0 23.02 0.78
-1 5 0 22.99 0.79
0 -1 -5 20.11 0.82
0 -1 5 21.98 0.77
5 0 -1 21.82 0.63
0 1 5 20.77 0.72
1 5 0 21.93 0.78
5 0 1 22.34 0.78
-1 -5 0 22.49 0.79
-5 0 -1 22.73 0.62
-5 0 -1 21.99 0.75
1 5 0 21.72 0.79
5 0 -1 22.68 0.74
1 5 -1 36.42 1.16
-1 -1 -5 35.7 1.15
5 -1 1 36.38 1.14
-1 5 1 36.82 1.17
-1 5 1 36.08 1.17
5 1 -1 37 1.14
-5 1 1 35.75 1
-1 -5 -1 36.08 1.15
-5 -1 -1 36.32 1.16
-5 -1 -1 37.72 1.01
-1 1 5 35.04 1.05
5 1 -1 35.52 0.97
1 5 -1 37.75 1.17
1 -1 5 36.95 1.16
-5 1 -1 35.61 1.01
-1 5 -1 38.14 1.16
1 5 1 37.6 1.16
1 5 1 37.24 1.17
5 -1 -1 36.7 1
5 -1 -1 37.1 1.08
-1 5 -1 38.17 1.17
5 1 1 37.46 1.17
1 1 5 35.85 1.13
-1 -1 5 36.48 1.12
-1 -5 1 37.19 1.18
-5 -1 1 36.55 1.12
1 -1 -5 36.48 1.1
5 -1 -1 37.11 1.03
5 2 -1 39.68 1.27
-5 -2 -1 42.35 1.14
2 -1 5 39.92 1.28
-2 -1 -5 39.75 1.28
-5 -2 -1 40.44 1.29
-1 -5 -2 41.74 1.27
-1 5 2 40.85 1.28
-2 1 5 39.92 1.09
5 -2 1 40.28 1.24
5 2 -1 40.26 1.12
-1 5 2 41.79 1.28
1 5 -2 41.21 1.28
-5 2 1 39.65 1.15
-5 2 -1 40.18 1.16
1 5 2 39.56 1.28
-2 -1 5 40.95 1.22
5 -2 -1 42.45 1.15
5 2 1 39.6 1.29
-1 -5 2 40.85 1.31
-1 5 -2 42.16 1.28
1 5 2 41.52 1.28
1 5 2 39.42 1.23
2 1 5 40.42 1.27
1 -5 -2 41.55 1.2
5 -2 -1 40.43 1.17
-5 -2 1 40.77 1.26
5 -2 -1 40.99 1.17
-5 2 -1 41.74 1.16
-1 -5 -3 32.47 1.03
-5 -3 -1 32.24 0.94
-5 -3 -1 32.83 1.08
-5 3 1 32.01 0.95
-3 -1 -5 29.92 1.06
3 -1 5 31.8 1.08
-1 5 3 30.35 1.05
-1 5 3 30.1 1.05
5 3 -1 31.31 1.06
5 3 -1 31.63 0.92
-5 3 1 29.72 0.96
1 5 3 30.74 0.99
-5 3 -1 31.72 0.96
-3 -1 5 29.71 1.02
-5 -3 1 30.76 1.05
5 -3 -1 32.64 0.97
1 5 3 31.71 1.04
1 -5 -3 30.42 0.95
5 3 1 31.81 0.93
5 3 1 32.2 1.08
-5 3 -1 31.2 0.96
5 3 1 31.26 0.91
3 1 5 30.4 1.06
1 5 3 30.85 1.05
5 4 -1 132.69 3.91
5 4 -1 134.44 3.65
5 4 -1 134.51 3.66
-5 -4 -1 140.73 3.81
-1 5 4 135.85 3.77
-1 -5 -4 137.85 3.73
4 -1 5 120.26 3.86
-4 -1 -5 136.96 3.8
-5 4 1 138.52 3.68
-5 4 1 130.97 3.69
1 5 4 138.59 3.77
5 4 1 137.26 3.65
-5 4 -1 131.13 3.68
5 -4 -1 144.72 3.71
5 4 1 135.26 3.66
5 4 1 128.12 3.91
1 5 4 134.86 3.68
4 -1 -5 135.72 3.63
1 -5 -4 135.63 3.66
4 1 5 140.57 3.8
-5 4 -1 135.12 3.69
-5 -4 1 138.09 3.79
-5 0 -2 4.2 0.34
-2 -5 0 3.75 0.35
-2 5 0 4.24 0.37
0 2 5 4.08 0.27
5 0 -2 4.31 0.2
5 0 -2 4.53 0.29
-5 0 -2 4.68 0.25
2 5 0 4.25 0.36
2 5 0 3.58 0.34
-2 5 0 4.8 0.39
2 5 0 3.87 0.36
5 0 2 4.32 0.37
0 2 5 4.63 0.33
-5 0 2 4.41 0.23
-5 -1 -2 39.9 1.11
2 5 -1 42.02 1.27
-5 1 2 35.83 1.15
-1 2 5 39.29 1.26
-2 5 1 39.94 1.27
-2 -5 -1 40.07 1.28
5 1 -2 41.68 1.24
-5 -1 -2 42.04 1.15
-5 -1 -2 40.18 1.28
-1 2 5 39.62 1.11
-1 -2 -5 41.15 1.26
-2 5 1 41.77 1.27
-2 -5 -1 41.16 1.26
2 5 -1 41.4 1.25
5 -1 2 38.99 1.26
-2 -5 1 39.13 1.29
-2 5 -1 42.1 1.27
-2 5 -1 41.83 1.27
1 2 5 42.34 1.27
5 -1 -2 40.35 1.15
5 1 2 42.52 1.29
2 5 1 40.14 1.25
-5 -1 2 33.79 1.34
1 2 5 40.46 1.22
1 -2 -5 40.16 1.19
5 -1 -2 42.21 1.13
2 5 1 41.79 1.28
2 5 1 39.61 1.29
5 -1 -2 40.81 1.16
2 5 -2 46.12 1.39
-2 -5 -2 45.52 1.42
5 -2 2 45.06 1.39
-2 2 5 45.37 1.39
-5 -2 -2 45.53 1.29
-5 -2 -2 45.24 1.26
5 2 -2 46.07 1.4
-5 2 2 44.8 1.29
2 -2 5 45.9 1.42
-2 5 2 44.73 1.4
-2 5 2 45.57 1.41
-2 -2 -5 44.72 1.41
-5 -2 -2 46.84 1.44
2 5 2 46.13 1.4
-2 -2 5 45.34 1.38
2 5 2 45.05 1.39
5 -2 -2 46.99 1.29
5 -2 -2 44.15 1.25
2 -2 -5 43.93 1.28
-2 5 -2 43.53 1.4
2 2 5 46.48 1.4
-5 -2 2 45.69 1.37
5 2 2 46.89 1.44
2 5 2 44.82 1.39
-2 -5 2 44.29 1.43
5 -2 -2 45.68 1.31
5 2 2 45.5 1.29
2 2 5 45.45 1.39
-3 2 5 28.06 0.94
-2 5 3 27.61 0.99
3 -2 5 27.67 1
-5 3 2 27.75 0.88
-2 -5 -3 28.38 0.98
-2 5 3 28.39 0.98
5 3 -2 28.58 0.86
-5 -3 -2 26.86 1
5 3 -2 28.67 0.99
-5 -3 -2 28.67 0.86
-3 -2 -5 29.07 1.01
5 3 2 28.7 1.01
3 2 5 28.83 1
5 -3 -2 29.24 0.9
-5 -3 2 27.43 0.96
-5 3 -2 27.23 0.89
-2 -5 3 28.93 1.01
3 -2 -5 27.66 0.82
5 3 2 29.41 0.88
-3 -2 5 28.31 0.93
2 5 3 28.61 0.98
2 5 3 27.44 0.95
2 5 3 26.96 0.96
-5 -4 -2 1.7 0.26
-2 -5 -4 1.3 0.24
5 4 -2 1.73 0.24
-5 -4 -2 1.38 0.29
4 -2 5 1.47 0.32
-5 4 2 1.41 0.26
-4 2 5 1.52 0.27
-2 5 4 1.44 0.3
5 4 -2 1.58 0.5
-5 4 2 1.58 0.26
-4 -2 -5 1.59 0.29
-4 -2 5 1.52 0.22
2 5 4 2.01 0.3
2 -5 -4 1.58 0.18
5 4 2 1.77 0.25
5 4 2 1.67 0.23
-2 -5 4 1.6 0.27
-5 -4 2 1.78 0.29
2 5 4 1.47 0.26
-5 4 -2 1.62 0.26
-5 4 -2 1.32 0.26
4 -2 -5 1.64 0.15
4 2 5 1.82 0.31
-3 -5 0 1.03 0.25
5 0 -3 1.25 0.18
3 5 0 0.87 0.25
3 5 0 1.24 0.24
0 3 5 0.91 0.15
5 0 3 1.15 0.27
3 5 0 0.92 0.23
-3 5 0 1.31 0.27
-3 5 0 0.96 0.27
-5 0 -3 0.98 0.23
-5 0 3 1.03 0.12
5 0 -3 1.05 0.16
0 3 5 0.9 0.27
-3 5 1 31.66 1.05
-3 -5 -1 31.3 1.01
-1 -3 -5 30.95 1.02
-3 -5 -1 31.87 1.08
-1 3 5 31.72 1.05
5 -1 3 31.27 1.06
3 5 -1 32.24 1.01
3 5 -1 31.43 1.08
3 5 -1 31.16 1.02
-3 5 1 30.97 1.03
5 1 -3 31.52 1
-5 -1 -3 32.15 1.08
5 1 3 30.66 1.07
-3 5 -1 30.1 1.04
3 5 1 32.08 1.02
5 -1 -3 31.86 0.92
-3 5 -1 31.14 1.03
1 3 5 30.87 1.05
1 3 5 31 0.98
-3 -5 1 32.66 1.09
-5 -1 3 26.93 1.08
1 -3 -5 31.76 0.96
3 5 1 31.03 1.06
3 5 1 31.72 1.02
5 -1 -3 31.47 0.92
3 5 -2 28.73 0.95
-2 -3 -5 28.94 0.99
-3 -5 -2 26.57 0.99
5 -2 3 27.75 0.98
5 2 -3 28.52 0.97
-2 3 5 27.74 0.97
-3 5 2 27.89 0.97
-5 2 3 28.21 0.87
-5 -2 -3 27.66 0.85
-3 5 2 28.85 0.98
-5 -2 -3 28.35 1.02
-5 -2 3 28.32 0.93
5 2 3 28.56 0.88
5 2 3 28.3 1.01
-3 -5 2 29.63 1.03
-3 5 -2 29.48 0.98
3 5 2 27.55 0.94
2 3 5 27.49 0.97
3 5 2 28.52 0.95
3 5 2 28.91 1
-2 -3 5 29.49 0.99
2 3 5 29.28 0.96
-3 5 -2 27.72 0.97
2 -3 -5 29.1 0.84
5 -2 -3 28.95 0.91
5 -2 -3 27.78 0.8
5 -3 3 39.95 1.27
-3 5 3 39.59 1.28
3 5 -3 40.29 1.26
-5 -3 -3 39.25 1.32
-5 -3 -3 40.22 1.18
-3 3 5 39.74 1.26
5 3 -3 41.33 1.3
-3 5 3 39.64 1.27
-3 -5 -3 39.29 1.3
-5 3 3 38.78 1.18
-3 -3 -5 39.14 1.3
3 5 3 39.68 1.26
5 3 3 36.27 1.41
3 5 3 39.74 1.28
-3 -3 5 39.29 1.26
5 3 3 39.74 1.19
-5 -3 3 40.47 1.27
3 5 3 39.87 1.25
3 3 5 39.14 1.28
5 -3 -3 38.35 1.21
3 -3 -5 39.57 1.09
-3 -5 3 40.98 1.32
3 3 5 37.87 1.25
-4 3 5 4.99 0.38
5 4 -3 4.76 0.44
-5 -4 -3 4.82 0.44
-3 -5 -4 4.92 0.4
4 -3 5 5.06 0.43
-5 4 3 4.29 0.37
-4 -3 -5 4.73 0.44
-5 -4 -3 5.14 0.38
5 4 -3 5.42 0.36
-3 5 4 4.66 0.43
5 4 3 4.23 0.34
4 3 5 4.7 0.45
3 5 4 5.05 0.45
5 4 3 5.36 0.48
-3 -5 4 5.22 0.43
4 3 5 5.23 0.39
3 5 4 4.66 0.4
-5 -4 3 5.35 0.41
4 -3 -5 5.04 0.17
4 -3 -5 4.99 0.17
-4 -3 5 5.23 0.39
-4 5 0 55.84 1.69
-5 0 -4 57.34 1.77
4 5 0 57.44 1.67
4 5 0 58.67 1.78
-4 -5 0 57.24 1.78
4 5 0 56.16 1.67
5 0 -4 58.37 1.64
0 4 5 58.37 1.75
0 4 5 55.15 1.59
5 0 4 57.24 1.79
-4 5 0 57.18 1.71
0 -4 -5 59.16 1.68
-1 -4 -5 139.16 3.74
4 5 -1 135.55 3.7
4 5 -1 129.11 3.92
4 5 -1 136.57 3.71
-4 5 1 137.79 3.72
-1 4 5 137.46 3.77
5 -1 4 117.41 3.87
5 1 -4 136.56 3.71
-4 -5 -1 136.8 3.81
-4 -5 -1 140.99 3.7
-5 -1 -4 138.95 3.81
-4 5 1 136.37 3.73
-4 5 -1 135.37 3.73
4 5 1 139.83 3.71
-4 5 -1 136.14 3.73
-5 -1 4 126.14 3.67
5 1 4 128.92 3.91
1 -4 -5 137.7 3.66
-4 -5 1 136.6 3.81
4 5 1 137.36 3.7
5 -1 -4 135.96 3.62
1 4 5 142.73 3.78
1 4 5 132.16 3.68
4 5 1 139.64 3.8
-5 2 4 1.86 0.25
-2 4 5 1.48 0.31
5 2 -4 1.55 0.26
-4 -5 -2 1.57 0.28
-5 -2 -4 1.34 0.29
4 5 -2 1.5 0.25
4 5 -2 1.58 0.32
5 -2 4 1.47 0.46
-2 -4 -5 1.63 0.25
-4 5 2 1.19 0.26
-4 5 2 1.55 0.3
-4 5 -2 1.85 0.3
-4 -5 2 1.53 0.28
2 -4 -5 1.71 0.18
-2 -4 5 1.81 0.29
2 4 5 1.34 0.29
2 4 5 1.7 0.26
4 5 2 1.8 0.27
5 -2 -4 1.32 0.13
-4 5 -2 1.69 0.3
4 5 2 1.48 0.27
4 5 2 1.92 0.33
-5 -2 4 1.28 0.21
-5 -3 -4 4.88 0.36
-5 3 4 4.56 0.33
5 -3 4 4.93 0.42
-5 -3 -4 5.46 0.45
-3 -4 -5 4.78 0.42
-4 5 3 5.19 0.42
-4 -5 -3 5.42 0.44
-4 5 3 4.17 0.4
4 5 -3 4.64 0.41
-3 4 5 4.54 0.41
-4 -5 3 4.03 0.41
-5 -3 4 5.18 0.39
-3 -4 5 4.13 0.4
3 -4 -5 4.99 0.2
5 3 4 4.51 0.33
5 3 4 4.38 0.46
3 4 5 4.85 0.41
3 4 5 4.48 0.43
4 5 3 4.42 0.37
4 5 3 4.34 0.47
4 5 3 4.32 0.36
-5 -4 -4 158.82 4.46
5 4 -4 165.85 4.45
-5 4 4 157.11 4.34
-4 -5 -4 160.04 4.45
-4 -4 -5 160.54 4.45
-4 5 4 155.04 4.36
-4 4 5 154.74 4.36
-4 -5 4 161.42 4.44
4 4 5 157.39 4.37
-4 -4 5 160.3 4.41
4 5 4 160.87 4.37
-5 -4 4 154.91 4.39
5 4 4 157.45 4.33
5 4 4 157.07 4.44
-5 -5 0 359.1 9.68
-5 0 -5 351.77 9.66
-5 5 0 364.34 9.57
-5 5 0 349.18 9.57
0 -5 -5 356.38 9.56
0 5 5 359.19 9.65
5 0 -5 370.04 9.54
5 0 5 362.81 9.67
5 5 0 362.18 9.54
5 5 0 367.89 9.68
5 5 0 363.66 9.54
-5 -5 -1 1.16 0.28
5 1 -5 1.33 0.22
-5 -1 -5 1.09 0.29
5 5 -1 1.4 0.25
5 5 -1 1.82 0.32
5 5 -1 1.67 0.26
-1 5 5 1.83 0.35
-5 5 1 1.66 0.28
-5 5 1 1.65 0.3
-1 -5 -5 1.19 0.24
5 -1 5 1.24 0.3
1 -5 -5 1.76 0.22
-5 5 -1 1.53 0.28
-5 5 -1 2.53 0.32
1 5 5 1.81 0.33
1 5 5 1.8 0.22
5 -1 -5 1.93 0.21
-5 -5 1 1.52 0.29
5 1 5 1.77 0.35
-5 -1 5 1.4 0.24
5 5 1 1.7 0.26
5 5 1 0.94 0.3
5 5 1 1.65 0.26
-5 -5 -2 49.54 1.63
-5 -5 -2 49.63 1.5
-2 -5 -5 50.39 1.58
-5 -2 -5 50.84 1.64
5 5 -2 50.57 1.63
5 -2 5 51.57 1.63
-5 5 2 50.69 1.52
-5 5 2 49.46 1.54
-2 5 5 48.51 1.65
5 2 -5 52.8 1.57
5 5 -2 49.14 1.49
-2 -5 5 51.39 1.63
2 -5 -5 50.27 1.43
-5 5 -2 49.83 1.53
-5 5 -2 48.26 1.53
2 5 5 49.48 1.58
2 5 5 48.86 1.52
5 -2 -5 50.23 1.39
-5 -5 2 50.91 1.62
5 2 5 50.16 1.62
-5 -2 5 50.72 1.49
5 5 2 50.83 1.51
5 5 2 49.73 1.62
5 5 2 49.84 1.5
-5 -5 -3 9.46 0.58
5 5 -3 10.67 0.51
-5 -3 -5 10.09 0.61
-5 3 5 9.98 0.5
-5 5 3 9.73 0.55
-3 -5 -5 10.43 0.58
5 5 -3 10.35 0.63
5 -3 5 10.86 0.6
-3 5 5 10.23 0.58
-3 -5 5 9.91 0.56
-5 5 -3 10.52 0.58
3 5 5 9.04 0.55
3 5 5 10.08 0.58
-5 -5 3 10.12 0.57
5 -3 -5 10.07 0.29
5 -3 -5 10.48 0.3
-5 -3 5 10.29 0.51
5 3 5 10.19 0.52
5 3 5 9.43 0.6
3 -5 -5 10.32 0.36
5 5 3 10.52 0.52
5 5 3 10.46 0.61
-5 -5 -4 77.02 2.43
-5 5 4 77.8 2.33
-5 -4 -5 81.59 2.45
-5 4 5 78.79 2.32
-4 5 5 81.85 2.37
-4 -5 -5 79.73 2.43
5 -4 5 79.57 2.4
-4 -5 5 80.78 2.4
4 5 5 79.33 2.35
4 5 5 81.64 2.4
-5 -5 4 79.63 2.4
5 4 5 79.9 2.33
5 4 5 79.45 2.41
-5 -4 5 80.38 2.36
5 5 4 81.22 2.33
5 5 4 81.24 2.43
-5 -5 -5 98.97 2.96
-5 5 5 97.5 2.85
-5 -5 5 100.31 2.91
5 5 5 101.04 2.85
5 5 5 97.4 2.93
-6 0 0 1000 26.95
0 -6 0 937.75 27.28
0 0 -6 971.93 27.04
0 6 0 915.91 26.91
6 0 0 941.6 26.69
-6 1 0 25.22 0.7
-1 0 6 25.1 0.84
0 -6 -1 25.85 0.89
0 6 -1 27.23 0.94
0 6 -1 25.21 0.94
0 6 1 26.05 0.93
0 6 1 25.39 0.93
1 0 6 25.73 0.9
6 -1 0 26.62 0.87
6 1 0 25.25 0.91
-6 -1 0 25.59 0.88
6 2 0 0.2 0.23
6 2 0 0.23 0.07
-6 -2 0 0.61 0.22
6 2 0 0.47 0.08
-6 2 0 0.37 0.12
-2 0 6 0.26 0.13
0 -6 -2 0.21 0.16
0 6 -2 0.14 0.27
0 6 -2 0.49 0.29
0 6 2 0.3 0.25
0 6 2 0.08 0.27
2 0 6 0.36 0.21
6 -2 0 0.09 0.15
0 6 -3 20.94 0.83
0 6 3 20.16 0.79
-6 3 0 21.01 0.67
-6 3 0 19.8 0.68
-3 0 -6 19.89 0.81
-3 0 6 20.02 0.63
-3 0 6 20.62 0.64
0 -6 -3 21.3 0.74
6 3 0 20.87 0.63
6 3 0 20.52 0.63
6 -3 0 20.11 0.7
-6 -3 0 20.51 0.8
0 6 3 19.79 0.82
3 0 6 20.06 0.81
0 -6 -4 0.28 0.16
-4 0 6 0.3 0.06
0 6 4 -0.07 0.27
4 0 6 0.17 0.26
6 4 0 0.24 0.16
6 4 0 0.26 0.24
6 4 0 0.26 0.16
-6 4 0 0.18 0.21
0 6 4 0.48 0.3
-6 4 0 0.33 0.2
-6 -4 0 0.03 0.22
-4 0 -6 0.25 0.21
-6 5 0 140.26 3.94
6 5 0 146.48 4.07
6 5 0 141.04 3.89
-6 5 0 141.56 3.92
0 6 5 147.86 4.05
-5 0 -6 143.36 4.06
-6 -5 0 144.99 4.07
5 0 6 142.38 4.06
0 -6 -5 143.07 3.95
6 5 0 142.4 3.89
1 6 0 25.42 0.92
6 0 -1 26.36 0.87
-6 0 -1 25.87 0.71
-6 0 -1 26.01 0.88
-1 -6 0 26.05 0.93
-1 6 0 25.72 0.92
-1 6 0 25.22 0.94
0 -1 -6 26.5 0.88
0 -1 6 24.6 0.88
0 1 6 25.46 0.84
6 0 -1 25.94 0.71
6 0 1 25.28 0.89
1 6 0 25.28 0.91
1 -1 6 8.48 0.47
-6 -1 -1 7.8 0.46
-1 1 6 7.95 0.37
-1 -1 -6 7.54 0.44
6 -1 1 7.88 0.45
6 1 -1 7.5 0.43
-6 -1 -1 8.47 0.27
1 6 -1 7.89 0.49
1 6 -1 7.97 0.5
-1 6 1 8.66 0.48
-1 -6 -1 8.22 0.45
-6 1 1 8.36 0.26
-1 6 1 8 0.49
1 6 1 7.96 0.49
-6 1 -1 8.19 0.3
1 1 6 8.89 0.46
-6 1 -1 7.95 0.27
-1 -6 1 8.2 0.48
-1 -1 6 8.29 0.44
-1 6 -1 7.77 0.52
1 -1 -6 8.7 0.42
-1 6 -1 7.97 0.51
-6 -1 1 7.92 0.42
1 6 1 8.01 0.48
6 -1 -1 8.25 0.4
6 -1 -1 8.41 0.31
6 1 1 8.52 0.5
6 -2 1 3.97 0.34
6 2 -1 4.46 0.39
6 2 -1 4.1 0.18
-6 -2 -1 4.2 0.23
2 -1 6 3.58 0.38
-1 6 2 4.17 0.42
-6 2 1 4.02 0.25
-2 -1 -6 4.44 0.39
1 6 -2 3.88 0.41
1 6 -2 4.48 0.43
-1 -6 -2 3.72 0.34
-1 6 2 3.51 0.4
-6 -2 -1 4.15 0.4
-2 1 6 4.51 0.21
-2 1 6 4.14 0.21
1 -6 -2 3.47 0.31
-1 6 -2 4.14 0.43
-6 2 -1 3.52 0.24
6 -2 -1 4.16 0.28
-1 6 -2 4.36 0.38
1 6 2 3.33 0.39
-6 -2 1 4.56 0.36
-1 -6 2 3.9 0.38
6 2 1 3.88 0.21
6 2 1 4.04 0.42
-2 -1 6 4.27 0.32
-2 -1 6 4.62 0.33
1 6 2 3.44 0.4
-6 2 -1 4.22 0.26
2 1 6 4.37 0.4
6 -2 -1 4.87 0.27
-3 -1 -6 2.89 0.37
6 3 -1 2.72 0.21
-6 3 1 2.31 0.25
6 3 -1 2.69 0.23
1 6 -3 2.07 0.35
-6 -3 -1 2.74 0.35
6 -3 1 2.85 0.3
-1 6 3 2.43 0.36
-1 6 3 2.81 0.36
-6 -3 -1 2.79 0.26
-1 -6 -3 2.87 0.31
3 -1 6 2.55 0.41
6 -3 -1 2.86 0.24
6 -3 -1 3.01 0.27
-3 -1 6 2.67 0.27
-3 -1 6 2.69 0.27
1 6 3 3.09 0.38
-6 3 -1 2.52 0.26
6 3 1 2.71 0.19
-1 6 -3 3.12 0.39
6 3 1 2.08 0.21
-6 -3 1 2.65 0.33
3 1 6 2.61 0.32
6 3 1 2.6 0.35
-6 3 -1 2.61 0.27
1 6 3 2.96 0.33
4 -1 6 119.45 3.36
-1 6 4 117.12 3.33
-1 6 4 117.96 3.34
-6 4 1 114.59 3.22
6 4 -1 121.5 3.36
6 4 -1 115.93 3.18
6 4 -1 115.69 3.17
-6 4 1 116.75 3.2
-4 -1 -6 117.41 3.36
-6 -4 -1 119.47 3.37
-1 -6 -4 119.21 3.29
6 4 1 116.14 3.16
-6 4 -1 116.43 3.21
4 1 6 120.97 3.35
-4 -1 6 117.08 3.18
-4 -1 6 115.15 3.17
1 6 4 117.83 3.33
1 -6 -4 100.42 3.27
6 4 1 118.62 3.18
6 4 1 115.14 3.35
-6 4 -1 115.08 3.21
6 -4 -1 121.7 3.23
1 6 4 116.45 3.22
1 6 4 118.67 3.33
-6 -4 1 120.65 3.35
6 5 -1 5.6 0.39
5 -1 6 5.65 0.54
6 5 -1 5.11 0.49
-6 5 1 5.26 0.38
-1 -6 -5 5 0.39
-1 6 5 4.94 0.5
-5 -1 -6 4.52 0.49
-6 -5 -1 4.85 0.46
-6 5 1 4.86 0.39
6 5 -1 5.49 0.36
-6 5 -1 5.84 0.43
1 6 5 4.66 0.47
1 6 5 5.65 0.35
6 5 1 4.84 0.36
-6 -5 1 6.28 0.51
6 5 1 5.7 0.5
1 -6 -5 5.43 0.34
6 5 1 5.38 0.35
5 1 6 4.73 0.5
-6 5 -1 5.03 0.43
-2 -6 0 0.33 0.22
2 6 0 0.01 0.23
2 6 0 0.37 0.27
6 0 -2 0.39 0.08
6 0 -2 0.39 0.17
6 0 2 0.27 0.22
-6 0 -2 0.15 0.18
-6 0 2 0.25 0.12
0 2 6 0.33 0.15
-6 0 -2 0.39 0.14
0 -2 -6 0.13 0.16
-2 6 0 0.02 0.25
-2 6 0 0.45 0.24
6 1 -2 4.44 0.18
-6 -1 -2 4.15 0.24
-6 -1 -2 4.44 0.38
-6 -1 -2 4.22 0.17
1 -2 6 4.56 0.38
2 6 -1 3.76 0.39
-2 -6 -1 4.37 0.39
-2 6 1 3.27 0.4
-2 6 1 3.97 0.43
6 -1 2 3.94 0.36
-1 2 6 3.92 0.22
6 1 -2 4.34 0.34
2 6 -1 4.66 0.42
-1 2 6 4.55 0.4
-1 -2 -6 4.4 0.34
2 6 1 4.33 0.4
-2 6 -1 3.8 0.42
1 -2 -6 3.14 0.4
1 2 6 4.37 0.35
6 1 2 4.14 0.41
-6 -1 2 4.07 0.31
-2 6 -1 3.82 0.41
6 -1 -2 4.48 0.21
6 -1 -2 3.96 0.28
6 -1 -2 4.15 0.25
2 6 1 4.08 0.38
-2 -6 1 4.37 0.39
2 6 1 3.81 0.38
-6 2 2 17.83 0.58
-6 -2 -2 18.61 0.55
6 -2 2 17.57 0.72
-6 -2 -2 18.71 0.6
-6 -2 -2 18.44 0.77
2 6 -2 18.97 0.75
-2 6 2 18.19 0.77
2 6 -2 18.06 0.73
-2 6 2 17.25 0.74
-2 -2 -6 18.12 0.73
2 -2 6 18.36 0.76
-2 -6 -2 19.22 0.75
6 2 -2 14.91 0.64
6 2 -2 18.4 0.72
-2 -2 6 19.33 0.71
-6 2 -2 17.81 0.59
-2 6 -2 16.83 0.75
2 6 2 17.94 0.72
-6 -2 2 17.36 0.68
6 -2 -2 18.99 0.58
6 -2 -2 18.08 0.6
6 -2 -2 18.65 0.61
2 6 2 18.85 0.74
2 2 6 18.87 0.73
-2 -6 2 17.57 0.76
-2 6 -2 18.67 0.77
2 -2 -6 18.64 0.63
2 6 2 18 0.73
-3 -2 -6 27.73 1.03
6 3 -2 28.45 0.86
6 -3 2 27.84 0.98
-6 -3 -2 29.94 0.86
-2 6 3 26.84 1.01
-2 6 3 27.47 1.03
-2 -6 -3 28.96 1.02
3 -2 6 28.63 1.05
-6 3 2 27.42 0.89
-6 -3 -2 28.34 1.05
2 6 -3 28.75 1.03
6 3 2 29.34 1.06
-3 -2 6 28.16 0.95
6 3 2 27.76 0.87
-6 3 -2 27.99 0.9
3 2 6 28.96 1.03
6 -3 -2 27.91 0.84
3 -2 -6 28.75 0.87
6 -3 -2 28.76 0.91
2 6 3 28.48 0.99
2 6 3 29.24 1.02
-2 6 -3 30.64 1.03
-6 3 -2 29.07 0.92
2 6 3 27.54 1.01
-2 -6 3 29.14 1.06
-6 -3 2 29.45 1.01
2 -6 -3 29.44 0.9
-6 4 2 11.07 0.49
-2 6 4 10.85 0.6
-4 -2 -6 10.17 0.59
6 4 -2 11.27 0.63
-6 -4 -2 10.86 0.48
-2 -6 -4 11.66 0.56
4 -2 6 10.69 0.61
6 4 -2 11.17 0.46
-6 -4 -2 10 0.6
2 6 4 10.93 0.53
6 4 2 11.73 0.63
2 6 4 10.77 0.59
-6 4 -2 10.72 0.51
-2 -6 4 9.79 0.59
2 -6 -4 11.24 0.44
-4 -2 6 10.98 0.5
4 2 6 11.08 0.62
-6 4 -2 11.11 0.52
-6 -4 2 9.99 0.57
6 4 2 10.54 0.46
-6 -5 -2 2.27 0.31
-2 -6 -5 1.24 0.27
6 5 -2 1.44 0.25
-6 -5 -2 0.84 0.29
5 -2 6 1.41 0.33
-2 6 5 1.23 0.35
6 5 -2 1.84 0.28
6 5 -2 1.44 0.33
-6 5 2 1.1 0.28
-6 5 2 1.27 0.28
-5 -2 -6 1.16 0.32
6 5 2 1.61 0.28
-6 5 -2 1.51 0.3
-2 -6 5 1.08 0.31
2 -6 -5 1.35 0.2
-6 5 -2 1.56 0.33
-6 -5 2 1.41 0.3
2 6 5 1.21 0.36
2 6 5 1.35 0.27
-5 -2 6 1.47 0.22
5 2 6 1.45 0.37
6 5 2 1.23 0.24
6 5 2 1.77 0.34
0 3 6 18.59 0.8
-6 0 3 21.01 0.6
-6 0 -3 22.17 0.83
-3 6 0 21.15 0.81
0 -3 -6 21.68 0.75
6 0 -3 21.01 0.71
3 6 0 20.34 0.78
3 6 0 20.65 0.77
-3 -6 0 20.62 0.82
0 3 6 20.53 0.68
6 0 -3 20.36 0.63
-3 6 0 19.3 0.8
3 6 0 20.89 0.83
-6 -1 -3 2.23 0.32
6 1 -3 2.51 0.21
3 6 -1 2.7 0.33
-1 3 6 2.73 0.36
-3 6 1 3.03 0.36
3 6 -1 2.79 0.36
-1 -3 -6 2.25 0.3
6 1 -3 2.68 0.31
-3 -6 -1 2.99 0.35
-3 6 1 2.74 0.36
-3 6 -1 2.95 0.38
3 6 1 2.4 0.33
6 1 3 3.02 0.37
-3 -6 1 2.71 0.34
1 3 6 2.63 0.35
1 3 6 2.89 0.31
3 6 1 2.78 0.35
6 -1 -3 2.63 0.24
6 -1 -3 2.78 0.26
3 6 1 3.02 0.34
-6 -1 3 2.89 0.27
6 -1 -3 2.6 0.22
-3 6 -1 2.77 0.35
-3 6 2 28.57 1.02
6 -2 3 24.28 1.07
-2 -3 -6 27.69 1
3 6 -2 29.09 1
-6 2 3 28.47 0.87
-6 -2 -3 29.69 0.85
-3 -6 -2 28.96 1.03
-6 -2 -3 28.21 1.04
-3 6 2 28.72 1.01
3 6 -2 27.97 0.98
6 2 -3 27.15 0.97
-2 3 6 27.35 1.06
-3 -6 2 27.89 1.05
6 -2 -3 29.35 0.91
-3 6 -2 27.79 1.01
2 -3 -6 28.88 0.88
6 2 3 29.69 1.07
-2 -3 6 28.09 0.99
3 6 2 28.85 1.02
3 6 2 28.23 0.99
6 -2 -3 28.88 0.84
-6 -2 3 29.33 0.95
3 6 2 28 0.99
-3 6 -2 27.75 1.02
2 3 6 28.84 1.02
2 3 6 27.9 0.97
6 3 -3 23.6 0.89
-3 -3 -6 23.05 0.91
-3 6 3 23.34 0.89
-6 -3 -3 23.74 0.75
-3 -6 -3 23.76 0.91
3 -3 6 21.9 0.9
-6 3 3 22.34 0.76
-6 -3 -3 23.38 0.92
3 6 -3 22.34 0.87
-3 3 6 23.6 0.88
6 -3 3 22.69 0.88
-3 6 3 23.05 0.91
3 -3 -6 22.66 0.71
3 3 6 22.69 0.87
-6 -3 3 23.78 0.86
6 3 3 22.96 0.76
6 3 3 23.4 0.93
-3 -6 3 22.84 0.92
3 3 6 23.25 0.89
-3 -3 6 22.77 0.86
3 6 3 22.12 0.86
3 6 3 23.23 0.9
3 6 3 22.05 0.86
6 -3 -3 23.25 0.68
-3 6 -3 23.97 0.92
-4 3 6 30.66 1.1
-3 -6 -4 32.53 1.15
-6 4 3 30.79 1.03
6 4 -3 33.2 1.02
6 4 -3 34.04 1.18
4 -3 6 30.68 1.16
-6 -4 -3 31.58 1.19
-6 -4 -3 32.42 1.02
-4 -3 -6 33.35 1.18
-3 6 4 32.27 1.14
6 -4 3 33.96 1.14
3 6 4 31.7 1.12
4 3 6 32.41 1.11
4 3 6 32.33 1.18
3 6 4 31.63 1.13
6 4 3 31.87 1.03
6 4 3 32.06 1.18
-4 -3 6 32.06 1.08
-6 -4 3 32.22 1.13
4 -3 -6 31.71 0.92
-3 -6 4 31.76 1.18
-6 5 3 60.16 1.83
-5 -3 -6 60.09 1.97
-3 -6 -5 61.21 1.94
-5 3 6 60.27 1.86
6 5 -3 62.07 1.81
-3 6 5 61.32 1.93
6 5 -3 63.74 1.98
-6 -5 -3 61.42 1.98
5 -3 6 62.76 1.97
3 6 5 61.82 1.9
-6 5 -3 60.82 1.85
-6 5 -3 61.11 1.86
-5 -3 6 61.89 1.85
-3 -6 5 61.96 1.97
3 6 5 62.87 1.93
6 5 3 60.69 1.97
-6 -5 3 62.72 1.94
5 3 6 63 1.97
6 5 3 61.96 1.83
3 -6 -5 62.44 1.72
-4 6 0 0.36 0.24
4 6 0 0.35 0.26
0 4 6 0.03 0.27
4 6 0 0.29 0.27
6 0 -4 0.19 0.15
6 0 4 0.5 0.28
-4 6 0 0.18 0.29
0 -4 -6 0.3 0.15
0 4 6 0.32 0.13
4 6 0 0.39 0.23
-6 0 -4 0.32 0.23
-4 -6 0 0.31 0.24
-4 -6 -1 116.74 3.39
-6 -1 -4 117.83 3.38
-4 6 1 118.92 3.31
6 1 -4 118.88 3.28
-1 4 6 121.14 3.36
4 6 -1 117.3 3.29
4 6 -1 118.31 3.39
4 6 -1 120.24 3.31
6 -1 4 114.48 3.36
-4 6 1 117.99 3.33
-1 -4 -6 118.05 3.31
4 6 1 118.27 3.29
6 -1 -4 117.18 3.2
-4 6 -1 115.2 3.32
6 1 4 117.79 3.38
-4 6 -1 118.07 3.32
4 6 1 118.06 3.29
4 6 1 120.72 3.39
1 4 6 115.64 3.24
-4 -6 1 120.59 3.4
1 4 6 117.42 3.35
-2 -4 -6 12 0.58
-6 -2 -4 10.83 0.47
4 6 -2 10.26 0.54
-4 6 2 12.82 0.61
-4 6 2 10.23 0.6
4 6 -2 11.81 0.58
-4 -6 -2 10.98 0.62
6 -2 4 10.57 0.6
6 2 -4 10.94 0.57
-6 -2 -4 10.72 0.61
-6 2 4 10.95 0.48
-2 4 6 11.32 0.6
6 -2 -4 11.37 0.4
2 4 6 10.09 0.59
4 6 2 10.55 0.54
-4 -6 2 10.63 0.63
-4 6 -2 10.59 0.59
-4 6 -2 10.85 0.61
6 2 4 11.8 0.64
2 -4 -6 11.53 0.45
-2 -4 6 11.95 0.62
2 4 6 11.08 0.54
4 6 2 10.79 0.56
4 6 2 12.11 0.73
-6 -2 4 10.96 0.49
-4 6 3 32.05 1.12
-6 -3 -4 32.32 1.01
-6 3 4 31.36 1.02
4 6 -3 32.8 1.1
-6 -3 -4 31.48 1.18
-3 4 6 33.13 1.13
-4 -6 -3 31.51 1.16
6 -3 4 31.17 1.14
6 3 -4 33.03 1.14
-4 6 3 30.97 1.13
-3 -4 -6 33.13 1.16
-4 6 -3 32.76 1.14
6 3 4 32.04 1.03
3 -4 -6 32.5 0.94
-6 -3 4 31.23 1.07
4 6 3 31.81 1.09
6 3 4 32.96 1.2
6 -3 -4 31.62 0.88
-4 -6 3 31.21 1.16
-3 -4 6 31.68 1.12
4 6 3 32.21 1.09
-4 6 -3 32.53 1.14
3 4 6 29.97 1.11
3 4 6 31.94 1.12
4 6 3 30.99 1.15
-6 -4 -4 5.37 0.47
6 4 -4 4.17 0.44
4 6 -4 3.77 0.42
-4 4 6 3.59 0.41
6 -4 4 3.62 0.41
-4 -6 -4 3.45 0.42
4 -4 6 3.16 0.41
-4 -4 -6 3.14 0.4
-6 4 4 3.43 0.35
-6 -4 -4 4.06 0.45
-4 6 4 3.83 0.43
-4 -6 4 3.69 0.41
6 4 4 3.29 0.43
6 4 4 2.91 0.35
-6 -4 4 3.58 0.41
-4 -4 6 3.56 0.4
4 4 6 3.59 0.44
4 -4 -6 3.4 0.18
4 4 6 3.57 0.41
4 6 4 3.36 0.45
4 6 4 3.28 0.38
5 -4 6 6.91 0.56
-5 -4 -6 7.35 0.56
-6 -5 -4 7.15 0.56
6 5 -4 8.16 0.48
-6 5 4 6.54 0.48
-5 4 6 7.1 0.51
-4 -6 -5 8.24 0.54
6 5 -4 7.27 0.57
-4 6 5 7.17 0.54
5 -4 -6 7.09 0.24
6 5 4 7.58 0.64
4 6 5 6.87 0.58
5 4 6 7.18 0.5
6 5 4 7.39 0.47
-5 -4 6 7.31 0.49
-4 -6 5 7.5 0.54
4 -6 -5 7.24 0.28
-6 -5 4 6.9 0.52
5 4 6 7.22 0.62
4 6 5 6.26 0.5
-5 6 0 137.33 3.92
-6 0 -5 145.78 4.02
0 -5 -6 143.1 3.9
5 6 0 140.42 3.89
-5 -6 0 138.56 4.03
-5 6 0 140.53 3.93
0 5 6 139.97 3.99
0 5 6 137.1 3.77
6 0 5 145.37 4.03
6 0 -5 140.33 3.86
5 6 0 143.64 3.9
5 6 0 147.93 4.04
5 6 -1 5.26 0.42
-5 6 1 5.08 0.46
5 6 -1 5.72 0.45
-1 5 6 4.89 0.42
-6 -1 -5 4.29 0.45
5 6 -1 5.44 0.5
6 -1 5 5.8 0.52
6 1 -5 5.72 0.4
-5 -6 -1 5.29 0.47
-1 -5 -6 4.78 0.38
-5 6 1 4.71 0.44
1 -5 -6 5.34 0.35
6 -1 -5 5.35 0.31
5 6 1 4.53 0.4
5 6 1 5.51 0.55
-5 -6 1 5.86 0.5
-5 6 -1 5.33 0.45
-5 6 -1 5.15 0.48
1 5 6 5.05 0.35
6 1 5 5.11 0.5
1 5 6 4.74 0.47
5 6 1 5.22 0.4
-6 -1 5 5.25 0.3
-2 -5 -6 1.67 0.28
-5 6 2 1.14 0.33
-5 -6 -2 0.71 0.28
6 -2 5 1.36 0.33
6 2 -5 1.29 0.31
-5 6 2 1.39 0.33
-6 -2 -5 1.12 0.32
5 6 -2 1.48 0.31
5 6 -2 1.45 0.3
-2 5 6 1.74 0.34
5 6 -2 1.43 0.35
6 -2 -5 1.41 0.18
6 2 5 1.64 0.35
-6 -2 5 1.17 0.2
2 5 6 1.21 0.34
2 5 6 1.56 0.27
-5 6 -2 1.56 0.35
-5 -6 2 1.02 0.28
-2 -5 6 1.36 0.31
5 6 2 1.42 0.28
5 6 2 1.72 0.35
5 6 2 1.36 0.29
2 -5 -6 1.32 0.19
-5 6 -2 1.59 0.34
-6 3 5 61.77 1.82
5 6 -3 61.89 1.84
-5 -6 -3 60.06 1.96
-5 6 3 59.98 1.87
-3 5 6 59.77 1.91
6 -3 5 61.43 1.95
6 3 -5 61.88 1.91
-3 -5 -6 60.67 1.93
-5 6 3 61.02 1.89
-6 -3 -5 59.31 1.96
5 6 3 63.37 1.97
-5 -6 3 64.41 1.97
5 6 3 59.06 1.85
-5 6 -3 62.64 1.91
5 6 3 60.33 1.84
6 3 5 62.48 1.98
3 5 6 61.3 1.88
3 5 6 61.85 1.92
-6 -3 5 61.43 1.84
-3 -5 6 62.97 1.96
6 -3 -5 61.28 1.66
3 -5 -6 61.83 1.71
-5 6 -3 62.36 1.9
-6 4 5 7.3 0.48
-5 -6 -4 7.18 0.55
6 -4 5 7.42 0.56
6 4 -5 7.38 0.57
-5 6 4 7.34 0.53
5 6 -4 7.65 0.54
-6 -4 -5 7.01 0.55
-4 5 6 7.04 0.53
-4 -5 -6 7.97 0.56
6 4 5 7.88 0.46
5 6 4 7.64 0.6
6 4 5 7.55 0.6
5 6 4 7.11 0.49
-6 -4 5 7.44 0.49
4 5 6 6.77 0.52
4 5 6 6.98 0.58
-5 -6 4 7.14 0.53
-5 6 -4 6.95 0.55
4 -5 -6 7.46 0.28
-4 -5 6 6.41 0.49
-6 -5 -5 188 5.33
-5 6 5 191.92 5.23
-6 5 5 183.6 5.18
-5 -6 -5 185.04 5.32
6 -5 5 191.32 5.28
-5 5 6 188.58 5.22
-5 -5 -6 186.34 5.32
-5 -6 5 186.53 5.28
5 -5 -6 176.36 4.93
-6 -5 5 191.48 5.26
5 5 6 196.05 5.23
5 5 6 189.29 5.28
5 6 5 192.33 5.22
5 6 5 189.94 5.28
-5 -5 6 190.19 5.26
6 5 5 186.6 5.18
6 5 5 197.51 5.32
-6 -6 0 97.58 2.93
-6 0 -6 97.63 2.91
-6 6 0 101.16 2.82
-6 6 0 96.76 2.81
0 -6 -6 98.81 2.8
0 6 6 92.77 2.89
6 0 -6 99.2 2.76
6 0 6 103.18 2.95
6 6 0 96.17 2.76
6 6 0 100.48 2.93
6 6 0 97.27 2.77
-6 -6 -1 35.54 1.35
6 -1 6 37.79 1.37
-6 -1 -6 38.26 1.37
-1 -6 -6 38.28 1.27
6 6 -1 36.48 1.2
6 6 -1 38.74 1.38
6 6 -1 37.54 1.22
6 1 -6 37.29 1.34
-6 6 1 38.67 1.24
-6 6 1 37.16 1.26
-1 6 6 37.93 1.32
-6 -1 6 38.22 1.07
1 -6 -6 37.61 1.18
-6 6 -1 37.87 1.26
-6 -6 1 37.39 1.35
1 6 6 37.43 1.33
1 6 6 37.81 1.16
-6 -1 6 38.12 1.08
6 -1 -6 37.36 1.15
-6 6 -1 36.76 1.25
6 1 6 38.58 1.38
6 6 1 37.53 1.21
6 6 1 39.23 1.39
6 6 1 37.39 1.2
-6 -6 -2 11.36 0.67
-6 -2 -6 11.15 0.67
6 6 -2 11.25 0.56
6 6 -2 11.97 0.7
6 6 -2 11.62 0.6
-2 6 6 10.77 0.66
-6 6 2 10.41 0.57
-6 6 2 9.82 0.59
-2 -6 -6 12.22 0.61
6 -2 6 10.95 0.68
-2 -6 6 12.2 0.68
-6 6 -2 11.96 0.62
2 6 6 10.96 0.66
2 6 6 11 0.57
-6 6 -2 10.87 0.6
6 -2 -6 11.6 0.44
-6 -6 2 10.37 0.63
6 2 6 12.2 0.7
-6 -2 6 11.14 0.49
6 6 2 10.42 0.54
6 6 2 11.5 0.69
6 6 2 11.36 0.55
-6 -6 -3 46.63 1.61
6 6 -3 45.72 1.44
-6 -3 -6 45.72 1.59
6 -3 6 45.73 1.58
-6 3 6 45.84 1.62
6 6 -3 50.2 1.61
-6 6 3 46.23 1.48
-3 -6 -6 43.51 1.52
-3 6 6 45.04 1.54
3 -6 -6 44.74 1.32
-6 -6 3 43.46 1.54
-3 -6 6 45.44 1.56
3 6 6 45.52 1.54
3 6 6 44.08 1.49
-6 6 -3 44.15 1.48
6 -3 -6 45.32 1.27
-6 -3 6 46.71 1.44
6 3 6 46.83 1.6
-6 6 -3 44.96 1.48
6 6 3 45.69 1.44
6 6 3 46.57 1.59
-6 -6 -4 5.17 0.52
6 6 -4 5.39 0.47
-6 -4 -6 6.54 0.56
-6 4 6 5.53 0.49
6 -4 6 5.69 0.55
-6 6 4 6.23 0.49
-4 -6 -6 5.48 0.49
-4 6 6 6.32 0.54
-6 6 -4 6.59 0.56
4 -6 -6 5.88 0.27
-4 -6 6 5.93 0.53
4 6 6 5.66 0.52
4 6 6 5.51 0.56
6 -4 -6 6.18 0.21
-6 6 -4 7.45 0.59
-6 -4 6 5.98 0.47
6 4 6 6.02 0.5
6 4 6 5.93 0.59
-6 -6 4 5.92 0.5
6 6 4 5.37 0.47
6 6 4 6.46 0.65
-6 -6 -5 59.38 2.02
-6 -5 -6 62.28 2.04
6 6 -5 63.86 1.89
-6 5 6 61.82 1.9
6 -5 6 61.03 1.99
-6 6 5 61.11 1.9
-5 -6 -6 60.74 2.01
-5 6 6 59.95 1.93
5 -6 -6 60.63 1.63
5 6 6 58.35 1.91
5 6 6 60.12 1.97
-6 -5 6 62.76 1.94
-5 -6 6 59.79 1.96
-6 -6 5 58.66 1.95
6 5 6 60.43 1.9
6 5 6 59.37 2
6 6 5 59.42 1.88
6 6 5 62.63 2.03
-6 -6 -6 26.2 1.14
-6 6 6 25.91 1.03
-6 -6 6 26.16 1.09
6 6 6 25.68 1.02
6 6 6 26.54 1.14
-7 0 0 8.31 0.43
0 -7 0 8.5 0.49
0 0 7 7.53 0.45
0 7 0 7.65 0.48
0 7 0 7.13 0.54
7 0 0 7.86 0.47
7 -1 0 136.38 3.76
7 1 0 127.39 3.89
0 7 -1 142.3 3.83
0 7 -1 133.94 3.82
0 7 1 137.29 3.82
0 7 1 135.29 3.82
1 0 7 140.47 3.79
0 -7 -1 137.81 3.79
-1 0 7 132.04 3.71
-7 -1 0 137.89 3.76
-7 -2 0 77.07 2.24
7 -2 0 77.85 2.18
2 0 7 76.49 2.25
7 2 0 74.54 2.25
0 7 -2 74.06 2.26
0 7 -2 78.14 2.28
0 7 2 74.12 2.26
0 7 2 75.23 2.27
0 -7 -2 75.15 2.21
-2 0 7 74.35 2.12
-2 0 7 75.69 2.12
3 0 7 7.09 0.56
0 7 -3 7.42 0.55
7 3 0 6.91 0.5
7 3 0 6.74 0.27
7 -3 0 7.19 0.42
-7 3 0 6.6 0.35
-3 0 7 6.49 0.38
-3 0 7 6.88 0.36
-7 -3 0 7.48 0.5
0 7 3 7.46 0.54
0 -7 -3 6.99 0.42
-7 3 0 7.05 0.34
0 7 3 6.93 0.54
0 7 4 39.87 1.39
4 0 7 40.57 1.39
7 -4 0 40.6 1.25
0 7 4 40.25 1.39
7 4 0 40.01 1.17
7 4 0 40.57 1.39
7 4 0 40.56 1.16
-7 4 0 39.67 1.21
-7 4 0 38.47 1.22
-4 0 7 40.02 1.08
0 -7 -4 39.65 1.28
0 7 -4 40.36 1.39
-7 -4 0 38.62 1.36
-7 -5 0 15.93 0.79
0 7 5 15.01 0.78
-7 5 0 15.77 0.66
-7 5 0 15.99 0.66
5 0 7 16.17 0.81
7 5 0 16.35 0.79
7 5 0 16.02 0.6
7 5 0 15.63 0.6
0 -7 -5 15.82 0.66
-7 6 0 -0.16 0.26
7 6 0 -0.1 0.29
7 6 0 0.42 0.23
0 -7 -6 -0.13 0.16
0 7 6 0.17 0.33
-7 -6 0 -0.09 0.26
7 6 0 -0.13 0.21
6 0 7 0.09 0.33
-7 6 0 -0.32 0.28
7 0 -1 138.19 3.73
-1 -7 0 139.07 3.8
-7 0 -1 135.56 3.73
1 7 0 137.04 3.79
-1 7 0 138.42 3.81
0 -1 -7 135.81 3.74
1 7 0 138.18 3.8
0 1 7 129.62 3.69
-7 0 1 134.85 3.66
0 -1 7 134.81 3.75
7 0 1 126.06 3.86
7 0 -1 132.75 3.53
-1 7 0 134.2 3.78
1 7 -1 60.97 1.88
1 -1 7 62.42 1.87
-1 7 1 61.94 1.89
-7 -1 -1 61.77 1.85
1 7 -1 63.18 1.89
-1 -7 -1 62.72 1.88
-1 1 7 60.67 1.74
7 1 -1 57.98 1.61
-1 -1 -7 58.8 1.84
7 1 -1 61.63 1.85
-1 7 1 60.89 1.89
7 -1 1 62.65 1.85
1 1 7 60.42 1.82
7 -1 -1 61.42 1.8
-1 7 -1 61.37 1.89
-1 -7 1 61.55 1.9
7 -1 -1 62.49 1.66
-7 -1 1 62.4 1.8
-1 7 -1 60.74 1.89
-7 1 -1 61.31 1.65
-1 -1 7 61.39 1.82
1 7 1 62.09 1.88
1 7 1 60.49 1.88
7 1 1 61.07 1.88
-2 1 7 2.76 0.21
-2 1 7 3.11 0.23
-1 -7 -2 2.52 0.31
7 2 -1 3.19 0.17
-1 7 2 3.3 0.41
1 7 -2 2.59 0.42
7 2 -1 2.3 0.34
1 7 -2 2.81 0.39
-7 -2 -1 2.55 0.32
7 -2 1 2.81 0.33
-7 -2 -1 2.98 0.19
-1 7 2 2.51 0.41
-2 -1 -7 2.99 0.38
7 2 -1 2.64 0.1
-1 -7 2 2.47 0.35
2 1 7 2.87 0.38
-1 7 -2 2.75 0.39
7 -2 -1 3.01 0.24
1 7 2 2.91 0.39
1 7 2 2.9 0.39
7 2 1 3.36 0.44
-2 -1 7 2.22 0.27
-1 7 -2 2.97 0.41
-7 2 -1 2.85 0.23
1 -7 -2 2.67 0.28
-7 -2 1 3.07 0.35
-7 2 -1 2.44 0.21
7 -2 -1 3.12 0.3
1 7 -3 111.2 3.16
7 -3 1 111.23 3.1
-1 -7 -3 112.47 3.13
-1 7 3 112.46 3.18
-7 -3 -1 115.12 2.96
-7 -3 -1 107.14 3.16
7 3 -1 106.21 2.94
-7 3 1 106.99 2.97
-1 7 3 111.29 3.17
-3 -1 -7 109.62 3.18
7 3 -1 110.06 3.17
3 -1 7 109.65 3.17
-7 -3 1 110.75 3.14
1 7 3 111.08 3.16
7 -3 -1 107.52 3.02
7 3 1 109.52 2.95
-1 -7 3 109.12 3.2
-7 3 -1 104 2.98
-1 7 -3 107.87 3.16
7 -3 -1 111.49 3
7 3 1 113.27 3.2
-3 -1 7 108.8 3.03
1 7 3 110.99 3.17
-7 3 -1 107.72 2.98
1 -7 -3 110.24 3.07
-3 -1 7 112.9 3.03
-4 -1 -7 0.47 0.26
7 4 -1 0.53 0.18
-7 4 1 0.35 0.21
-7 -4 -1 0.18 0.26
-7 4 1 0.4 0.21
7 4 -1 0.62 0.17
1 7 -4 0.47 0.35
7 -4 1 0.7 0.24
4 -1 7 0.36 0.31
7 4 -1 0.61 0.3
-1 7 4 0.35 0.31
-1 7 4 0.1 0.33
-1 -7 -4 0.29 0.2
7 -4 -1 0.51 0.17
7 -4 -1 0.82 0.24
1 7 4 0.5 0.32
7 4 1 0.15 0.16
-4 -1 7 0.42 0.16
-4 -1 7 0.63 0.17
1 -7 -4 0.38 0.16
-7 4 -1 0.65 0.22
7 4 1 0.93 0.3
7 4 1 0.54 0.15
4 1 7 0.28 0.31
-7 -4 1 0.36 0.25
-1 7 -4 0.67 0.3
-7 4 -1 0.02 0.21
1 7 4 -0.42 0.3
7 5 -1 48.08 1.57
7 5 -1 46.34 1.35
-1 -7 -5 44.48 1.45
-7 5 1 43.86 1.4
7 5 -1 44.27 1.34
5 -1 7 44.72 1.55
-1 7 5 44.19 1.54
-7 -5 -1 42.85 1.54
-5 -1 -7 46.42 1.56
-7 5 1 44.33 1.39
-7 5 -1 44.59 1.39
7 5 1 45.54 1.55
-7 5 -1 44.77 1.39
-5 -1 7 44.84 1.29
5 1 7 45.05 1.56
-7 -5 1 44.62 1.52
1 7 5 44.4 1.51
7 5 1 44.94 1.35
1 -7 -5 45.84 1.39
7 5 1 45.87 1.33
7 6 -1 20.97 0.97
7 6 -1 20.48 0.78
-7 6 1 21.16 0.86
-7 -6 -1 20.74 0.95
-7 6 1 20.68 0.84
6 -1 7 21.65 1
-1 7 6 22.67 0.94
-6 -1 -7 20.67 0.94
-1 -7 -6 20.96 0.85
7 6 -1 23.05 0.81
7 6 1 22.01 0.8
7 6 1 20.63 0.99
7 6 1 20.89 0.78
1 -7 -6 21.42 0.78
6 1 7 22.66 1.01
-6 -1 7 22.73 0.63
-7 6 -1 21.39 0.85
-7 -6 1 21.91 0.95
1 7 6 21.59 0.95
-7 6 -1 20.03 0.85
0 2 7 76.43 2.14
7 0 -2 77.43 2.05
7 0 2 75.4 2.25
2 7 0 75.56 2.25
0 -2 -7 77.43 2.2
7 0 -2 76.8 2.18
-2 7 0 75.7 2.27
-7 0 -2 78.13 2.05
-7 0 -2 76.56 2.23
-7 0 2 69.63 2.12
-2 -7 0 75.2 2.27
-2 7 0 75.37 2.25
2 7 0 75.68 2.24
0 -2 7 74.63 2.23
2 7 -1 3.22 0.38
1 -2 7 2.3 0.42
2 7 -1 2.84 0.39
-2 7 1 2.64 0.39
-2 7 1 2.16 0.38
-2 -7 -1 2.75 0.34
7 -1 2 2.97 0.38
-7 -1 -2 2.4 0.32
-1 2 7 2.44 0.22
-7 -1 -2 3.01 0.22
-1 -2 -7 2.45 0.32
7 1 -2 2.82 0.35
2 7 1 2.76 0.38
7 -1 -2 2.43 0.29
-2 7 -1 2.64 0.4
2 7 1 2.83 0.37
7 -1 -2 2.7 0.16
-2 -7 1 2.5 0.34
-1 -2 7 3.52 0.38
7 1 2 2.96 0.37
-7 1 -2 2.53 0.17
1 -2 -7 2.77 0.27
-7 -1 2 2.77 0.29
1 2 7 2.8 0.34
7 -1 -2 2.74 0.22
-2 7 -1 2.81 0.39
-2 -7 -2 9.15 0.53
-2 7 2 7.69 0.58
-7 2 2 9 0.35
-7 -2 -2 8.82 0.54
2 -2 7 8.24 0.57
-2 7 2 9.16 0.57
7 2 -2 7.98 0.53
2 7 -2 8.1 0.55
2 7 -2 9.42 0.58
7 -2 2 8.6 0.52
-2 -2 -7 8.41 0.5
7 2 -2 8.55 0.3
-7 -2 -2 9.38 0.37
-7 2 -2 8.63 0.39
-2 7 -2 9 0.6
-2 7 -2 8.3 0.58
2 -2 -7 9.21 0.42
-2 -7 2 9.42 0.56
7 -2 -2 8.64 0.4
7 -2 -2 9.06 0.4
2 7 2 8.2 0.55
2 7 2 8.27 0.56
7 -2 -2 8.48 0.35
-7 -2 2 8.48 0.47
7 2 2 9.23 0.57
2 2 7 8.52 0.51
-7 2 -2 8.71 0.36
-3 -2 -7 19.87 0.85
7 3 -2 20.44 0.64
7 3 -2 20.57 0.86
-2 -7 -3 20.46 0.82
-7 -3 -2 20.66 0.87
-2 7 3 20.27 0.87
2 7 -3 19.79 0.86
3 -2 7 21.62 0.89
-7 3 2 19.88 0.68
-2 7 3 20.95 0.88
7 -3 2 20.43 0.82
-3 -2 7 22.23 0.78
2 7 3 20.81 0.81
2 7 3 20.48 0.86
-2 7 -3 20.68 0.89
2 7 3 18.87 0.84
-2 7 -3 21.23 0.88
7 -3 -2 20.64 0.69
7 -3 -2 21.19 0.72
-7 3 -2 19.61 0.69
2 -7 -3 20.83 0.73
-7 3 -2 20.43 0.71
-2 -7 3 20.03 0.88
-7 -3 2 21.6 0.82
3 2 7 19.66 0.94
7 3 2 20.65 0.67
7 3 2 20.35 0.87
-7 -4 -2 18.6 0.84
2 7 -4 19.5 0.86
-2 -7 -4 18.93 0.79
-2 7 4 18.63 0.86
4 -2 7 19.43 0.88
-7 4 2 18.26 0.68
-2 7 4 19.19 0.85
7 -4 2 18.48 0.76
7 4 -2 19.39 0.64
7 4 -2 19.85 0.84
-4 -2 -7 19.5 0.84
-2 -7 4 19.92 0.88
-7 -4 2 19.9 0.83
7 -4 -2 19.79 0.64
-7 4 -2 18.61 0.7
-7 4 -2 18.99 0.71
4 2 7 18.56 0.84
-4 -2 7 18.83 0.71
7 4 2 18.57 0.66
-2 7 -4 19.16 0.87
2 7 4 18.38 0.83
2 7 4 18.83 0.77
2 7 4 17.7 0.83
2 -7 -4 18.28 0.69
7 4 2 18.32 0.86
-7 5 2 6.43 0.44
-5 -2 -7 6.37 0.52
7 5 -2 6.82 0.56
5 -2 7 6.97 0.59
-2 -7 -5 6.92 0.47
-2 7 5 6.53 0.56
-7 -5 -2 6.31 0.52
7 5 -2 6.38 0.38
7 5 -2 6.82 0.42
-5 -2 7 7.44 0.4
2 7 5 7.28 0.49
-2 -7 5 6.84 0.53
7 5 2 7.05 0.6
-7 5 -2 6.46 0.43
5 2 7 6.03 0.57
-7 -5 2 6.36 0.52
7 5 2 5.95 0.39
2 7 5 6.7 0.55
-7 5 -2 6.15 0.46
2 -7 -5 7.37 0.38
7 6 -2 11.47 0.54
-7 6 2 10.86 0.63
-6 -2 -7 10.9 0.68
7 6 -2 11.37 0.57
-2 -7 -6 11.68 0.61
-7 6 2 10.57 0.59
6 -2 7 12.32 0.74
-2 7 6 11.89 0.7
-7 -6 -2 10.67 0.68
7 6 -2 9.75 0.69
6 2 7 11.56 0.74
-7 6 -2 10.88 0.62
-7 6 -2 10.43 0.59
7 6 2 10.66 0.53
2 7 6 9.83 0.67
-2 -7 6 10.5 0.66
-7 -6 2 10.51 0.67
-6 -2 7 11.91 0.49
7 6 2 11.89 0.75
2 -7 -6 11.55 0.48
7 6 2 10.79 0.56
2 7 6 11.22 0.58
3 7 0 6.53 0.49
-7 0 -3 7.3 0.47
-3 -7 0 7.38 0.53
-3 7 0 6.8 0.52
-3 7 0 7.06 0.54
0 -3 -7 7.42 0.42
0 3 7 7.15 0.52
0 3 7 7.03 0.36
7 0 -3 6.86 0.41
3 7 0 6.72 0.51
7 0 -3 6.97 0.28
7 0 3 6.69 0.51
7 1 -3 109.77 3.09
3 7 -1 108.14 3.13
-7 -1 -3 109.98 3.16
-3 7 1 110.18 3.15
-3 7 1 114.16 3.17
-7 -1 -3 107.17 2.92
-1 -3 -7 112.32 3.13
3 7 -1 111.82 3.13
7 1 -3 110.21 2.93
7 -1 3 110.54 3.17
-3 -7 -1 109.99 3.19
-1 3 7 107.83 3.15
-3 7 -1 108.11 3.15
3 7 1 108.35 3.12
3 7 1 104.84 3.28
-7 -1 3 108.24 3
1 -3 -7 111.14 3.06
7 1 3 111.88 3.19
7 -1 -3 113.21 2.94
1 3 7 110.22 3.16
-3 7 -1 109.47 3.16
3 7 1 109.01 3.13
7 -1 -3 109.7 3.03
7 -1 -3 110.07 2.99
1 3 7 110.42 3.05
-3 -7 1 109.22 3.19
-3 7 2 19.9 0.86
-7 -2 -3 20.46 0.86
-2 3 7 20.06 0.85
-3 -7 -2 19.58 0.85
-3 7 2 19.75 0.86
-2 -3 -7 20.36 0.82
2 -3 7 21.17 0.87
3 7 -2 19.78 0.84
3 7 -2 21.04 0.87
7 2 -3 21.59 0.82
-7 2 3 19.8 0.66
-7 -2 -3 20.84 0.63
7 -2 3 18.9 0.83
3 7 2 19.51 0.82
-3 7 -2 20.53 0.88
2 3 7 19.6 0.84
-3 7 -2 20.04 0.86
2 -3 -7 19.63 0.76
7 -2 -3 21.29 0.72
7 -2 -3 20.58 0.68
-7 -2 3 20.07 0.75
-3 -7 2 20.72 0.87
7 2 3 20.58 0.88
2 3 7 20.18 0.8
3 7 2 20.4 0.84
-3 7 3 11.29 0.65
-7 -3 -3 11.43 0.47
3 7 -3 11.75 0.65
-7 3 3 11.71 0.49
-3 7 3 11.41 0.67
7 -3 3 12.31 0.65
3 -3 7 12.19 0.69
-7 -3 -3 12.4 0.68
7 3 -3 12.79 0.63
-3 -3 -7 11.65 0.62
-3 3 7 11.8 0.64
-3 -7 -3 12.08 0.65
7 3 -3 12.16 0.46
3 -3 -7 11.59 0.48
-7 3 -3 11.71 0.51
3 7 3 10.6 0.63
3 3 7 12.51 0.67
-7 -3 3 11.44 0.57
7 -3 -3 11.78 0.44
3 7 3 11.88 0.68
-3 -3 7 12.38 0.59
-3 7 -3 12.61 0.7
3 7 3 11.33 0.63
7 3 3 11.2 0.67
-3 7 -3 12.02 0.69
-3 -7 3 11.58 0.65
7 3 3 12.19 0.49
7 4 -3 37.73 1.34
-7 4 3 36.15 1.17
3 7 -4 38.1 1.31
-3 7 4 34.59 1.31
-3 7 4 36.97 1.33
-4 -3 -7 37.5 1.34
7 4 -3 37.46 1.14
-3 -7 -4 37.06 1.31
-7 -4 -3 37.43 1.36
4 -3 7 37.87 1.36
7 -4 3 37.5 1.3
-4 3 7 37.24 1.27
-7 -4 -3 38.75 1.16
-4 -3 7 37.63 1.23
-3 7 -4 38.45 1.33
-7 -4 3 37.89 1.29
-7 4 -3 37.34 1.21
4 3 7 38.01 1.34
3 7 4 38.73 1.31
3 7 4 36.7 1.29
3 -7 -4 38.79 1.14
-3 -7 4 36.96 1.35
7 4 3 37.29 1.16
7 4 3 37.17 1.36
-7 4 -3 37.07 1.19
7 -4 -3 37.32 1.08
3 7 4 36.86 1.3
4 -3 -7 38.55 1.11
7 5 -3 11.01 0.68
5 -3 7 11.58 0.71
-3 -7 -5 10.26 0.6
-7 -5 -3 10.12 0.66
-5 -3 -7 10.31 0.66
-3 7 5 10.25 0.67
7 5 -3 10.62 0.5
-7 -5 -3 11.18 0.62
3 7 -5 12.47 0.69
7 -5 3 10.32 0.63
-7 5 3 10.49 0.54
-7 5 -3 10.68 0.58
3 -7 -5 11.29 0.46
-5 -3 7 10.96 0.55
3 7 5 10.29 0.65
-3 -7 5 10.35 0.64
-7 5 -3 10.77 0.6
3 7 5 10.66 0.65
5 3 7 10.53 0.69
7 5 3 10.43 0.51
7 5 3 11.55 0.72
-7 -5 3 11.08 0.63
-7 6 3 7.99 0.51
7 6 -3 8.32 0.51
7 6 -3 7.69 0.49
-3 7 6 8.11 0.63
-6 -3 -7 8.32 0.65
6 -3 7 8.23 0.65
7 6 -3 8.33 0.69
-3 -7 -6 7.8 0.52
-7 -6 -3 6.93 0.58
6 3 7 8.45 0.68
7 6 3 8.13 0.67
7 6 3 8.86 0.51
3 7 6 5.82 0.65
-7 6 -3 7.47 0.58
3 7 6 7.49 0.6
-7 6 -3 8.38 0.58
3 -7 -6 8.58 0.42
-6 -3 7 8.56 0.48
-3 -7 6 9.51 0.67
-7 -6 3 7.56 0.61
-4 -7 0 38.84 1.39
-4 7 0 39.65 1.35
-4 7 0 37.98 1.34
-7 0 -4 39.78 1.35
4 7 0 39.34 1.32
0 -4 -7 40.93 1.28
4 7 0 40.3 1.31
0 4 7 40.45 1.37
0 4 7 38.58 1.16
7 0 -4 41.26 1.25
7 0 4 39.96 1.38
4 7 0 42.26 1.4
4 7 -1 0.53 0.32
-1 4 7 0.22 0.32
-7 -1 -4 0.28 0.25
-4 7 1 0.47 0.33
7 -1 4 0.2 0.29
7 1 -4 0.58 0.23
-1 -4 -7 0.42 0.19
-4 -7 -1 0.33 0.22
4 7 -1 0.41 0.27
-4 7 1 0.27 0.32
7 1 4 0.49 0.28
-4 -7 1 0.39 0.27
1 4 7 0.21 0.32
4 7 1 0.24 0.28
1 4 7 0.28 0.18
4 7 1 0.27 0.27
-4 7 -1 0.42 0.32
1 -4 -7 0.45 0.17
-4 7 -1 0.13 0.33
7 -1 -4 0.58 0.17
4 7 1 0.44 0.29
4 7 -2 19.68 0.8
-7 -2 -4 18.67 0.86
-2 4 7 18.36 0.83
-7 -2 -4 19.78 0.66
7 -2 4 19.02 0.84
7 2 -4 19.7 0.8
-4 7 2 17.86 0.83
-2 -4 -7 18.9 0.79
4 7 -2 19.61 0.84
-4 7 2 18.02 0.82
-4 -7 -2 19.88 0.86
4 7 2 18.98 0.8
2 4 7 18.78 0.84
2 4 7 18.43 0.77
-7 -2 4 19.41 0.71
7 2 4 19.73 0.87
7 -2 -4 19.66 0.65
-4 -7 2 18.64 0.86
-4 7 -2 18.27 0.84
-4 7 -2 19.38 0.85
4 7 2 19.96 0.88
4 7 2 18.84 0.81
-7 3 4 36.52 1.17
-3 4 7 36.78 1.3
7 -3 4 37 1.33
4 7 -3 37.47 1.28
-4 7 3 37.32 1.32
-3 -4 -7 37.53 1.32
7 3 -4 38.6 1.31
3 -4 7 36.32 1.33
-7 -3 -4 37.21 1.15
-4 -7 -3 37.33 1.35
-7 -3 -4 37.84 1.36
-4 7 3 37.45 1.3
4 7 3 37.71 1.27
4 7 3 36.07 1.27
4 7 3 38.26 1.33
3 4 7 37.95 1.29
-4 7 -3 38.27 1.32
-4 7 -3 38.2 1.33
3 -4 -7 37.2 1.13
-3 -4 7 38.39 1.31
-4 -7 3 38.27 1.37
7 -3 -4 37.81 1.08
7 3 4 39.14 1.38
3 4 7 37.32 1.31
-7 -3 4 38.35 1.24
-4 7 4 20.3 0.89
-7 -4 -4 20.16 0.76
7 4 -4 21.06 0.91
-4 -7 -4 19.5 0.89
-4 -4 -7 20.24 0.9
7 -4 4 20.6 0.91
-7 4 4 20.29 0.76
7 4 -4 20.89 0.74
4 7 -4 20.67 0.87
-4 4 7 20.15 0.87
-7 -4 -4 20.46 0.92
4 -4 7 20.87 0.94
-7 -4 4 20.74 0.84
7 4 4 21.14 0.77
-4 -7 4 19.81 0.9
4 7 4 19.73 0.86
-4 7 -4 20.28 0.92
4 -4 -7 20.44 0.66
-4 -4 7 19.8 0.83
7 4 4 21.32 0.96
4 7 4 20.06 0.91
7 -4 -4 20.87 0.61
4 4 7 19.84 0.87
4 4 7 18.93 0.87
4 7 -5 136.44 3.86
7 -5 4 132.69 3.87
-5 4 7 134.79 3.84
-7 5 4 135.05 3.77
-5 -4 -7 136.45 3.96
-4 -7 -5 132.76 3.92
-4 7 5 141.46 3.89
-7 -5 -4 135.87 3.96
7 5 -4 135.01 3.73
7 5 -4 141.02 3.94
5 -4 7 134.81 3.93
-5 -4 7 135.73 3.83
-7 -5 4 135.81 3.88
4 -7 -5 136.14 3.65
-7 5 -4 132.19 3.78
4 7 5 133.83 3.87
4 7 5 134.28 3.88
5 -4 -7 134.44 3.62
7 5 4 133.13 3.76
5 4 7 139.46 3.92
-7 5 -4 136.15 3.81
-4 -7 5 134.01 3.94
7 5 4 139.69 3.97
7 6 -4 38.84 1.25
-6 4 7 37.53 1.31
6 -4 7 37.3 1.51
-4 7 6 37.28 1.38
-7 6 4 37.87 1.3
7 6 -4 38.06 1.44
-6 -4 -7 38.39 1.46
-4 -7 -6 37.88 1.39
-7 -6 -4 36.27 1.45
-7 -6 4 36.8 1.38
-4 -7 6 36.88 1.41
4 7 6 39.47 1.38
4 -7 -6 39.65 1.12
7 6 4 38.96 1.27
6 4 7 39.09 1.44
-7 6 -4 37.46 1.33
7 6 4 37.06 1.44
4 7 6 35.81 1.36
-7 6 -4 38.71 1.32
-6 -4 7 38.28 1.3
7 0 -5 16.41 0.64
7 0 5 16.34 0.79
5 7 0 14.96 0.69
0 5 7 14.74 0.73
0 5 7 15.46 0.51
-7 0 -5 16.51 0.78
0 -5 -7 15.89 0.65
5 7 0 15.5 0.71
-5 7 0 15.65 0.77
-5 7 0 15.55 0.76
-5 -7 0 15.99 0.8
5 7 0 15.65 0.81
-5 7 1 43.99 1.47
7 -1 5 46.46 1.55
5 7 -1 44.35 1.55
5 7 -1 43.92 1.44
-7 -1 -5 44.54 1.53
-1 -5 -7 45.38 1.45
-5 -7 -1 45.58 1.56
-5 7 1 43.32 1.47
-1 5 7 43.66 1.51
5 7 -1 43.94 1.43
5 7 1 45.08 1.43
1 -5 -7 45.36 1.38
7 1 5 44.45 1.55
5 7 1 44.74 1.43
5 7 1 46.88 1.57
-5 7 -1 44.73 1.48
1 5 7 44.05 1.52
1 5 7 44.37 1.35
7 -1 -5 43.45 1.33
-7 -1 5 46.06 1.26
-5 -7 1 44.97 1.56
-5 7 -1 43.65 1.48
7 2 -5 6.07 0.49
-5 -7 -2 6.66 0.53
7 -2 5 7.25 0.58
-5 7 2 6.4 0.56
-5 7 2 7.08 0.54
-2 -5 -7 7.32 0.48
-7 -2 -5 6.37 0.44
5 7 -2 7.13 0.62
-2 5 7 6.17 0.55
5 7 -2 6.44 0.47
5 7 -2 7.28 0.52
-7 -2 -5 6.86 0.58
2 -5 -7 6.91 0.39
-7 -2 5 6.67 0.39
-5 7 -2 6.72 0.57
7 -2 -5 7.16 0.34
-5 7 -2 6.38 0.55
5 7 2 7.18 0.6
-5 -7 2 6.51 0.54
-2 -5 7 7.06 0.56
5 7 2 6.23 0.46
7 2 5 6.87 0.62
5 7 2 7.03 0.5
2 5 7 6.47 0.46
2 5 7 7.02 0.55
-5 -7 -3 10.03 0.64
-7 3 5 10.4 0.52
-5 7 3 11.31 0.66
5 7 -3 10.1 0.59
-3 5 7 10.43 0.65
5 7 -3 11.31 0.63
7 3 -5 10.41 0.65
-3 -5 -7 10.74 0.62
-7 -3 -5 11.74 0.61
7 -3 5 10.33 0.67
-7 -3 -5 10.7 0.69
-5 7 3 10.24 0.63
3 5 7 10.54 0.66
3 5 7 10.12 0.63
-5 -7 3 10.88 0.65
-5 7 -3 10.68 0.66
-5 7 -3 9.33 0.63
-3 -5 7 10.26 0.64
5 7 3 10.76 0.59
5 7 3 10.29 0.68
5 7 3 10.9 0.59
7 -3 -5 10.82 0.39
7 3 5 10.28 0.72
-7 -3 5 10.9 0.54
3 -5 -7 11.18 0.46
7 4 -5 136.89 3.89
-7 4 5 134.53 3.75
-5 7 4 136.69 3.85
-4 -5 -7 134.23 3.92
-7 -4 -5 132.8 3.94
-5 -7 -4 134.41 3.94
5 7 -4 140.57 3.83
-4 5 7 134.79 3.86
7 -4 5 130.3 3.89
4 -5 -7 133.42 3.62
-7 -4 5 136.22 3.81
-4 -5 7 135.33 3.87
4 5 7 134.93 3.86
7 -4 -5 131.13 3.57
5 7 4 140.92 3.92
-5 7 -4 133.06 3.86
7 4 5 135.49 3.76
7 4 5 134.76 3.93
4 5 7 137.2 3.87
-5 7 -4 136.99 3.86
-5 -7 4 134.91 3.93
5 7 4 135.7 3.83
7 5 -5 37.81 1.22
-5 5 7 36.35 1.32
7 -5 5 36.34 1.36
-5 -7 -5 36.75 1.38
-7 -5 -5 37.09 1.43
-5 -5 -7 36.33 1.38
-7 5 5 37.62 1.26
7 5 -5 38.8 1.43
-5 7 5 35.8 1.33
5 -5 7 37.34 1.39
5 7 -5 35.17 1.29
5 5 7 37.28 1.32
7 5 5 36.29 1.24
5 7 5 37.54 1.41
-5 -7 5 35.62 1.37
-5 -5 7 37.81 1.32
7 5 5 38.47 1.45
5 -5 -7 37.42 1.05
-7 -5 5 37.74 1.32
-5 7 -5 36.21 1.36
5 7 5 36.52 1.31
5 5 7 37.64 1.4
-5 7 6 27.88 1.16
7 6 -5 29.42 1.06
-7 6 5 29.02 1.27
-7 -6 -5 27.84 1.22
-5 -7 -6 29.82 1.2
7 -6 5 28.19 1.17
-6 5 7 29.18 1.12
-6 -5 -7 30.4 1.22
-5 -7 6 29.41 1.21
6 5 7 29.83 1.11
7 6 5 29.55 1.09
-7 6 -5 29.85 1.14
6 -5 -7 29.17 0.82
5 -7 -6 29.44 0.86
-6 -5 7 29.5 1.12
-7 -6 5 28.54 1.16
5 7 6 29.07 1.14
5 7 6 29.57 1.19
6 5 7 29.37 1.22
7 6 5 29.36 1.25
0 -6 -7 0.09 0.18
0 6 7 0.29 0.32
6 7 0 -0.1 0.29
-7 0 -6 0.31 0.28
-6 7 0 -0.16 0.33
7 0 -6 -0.12 0.18
7 0 6 0.17 0.32
6 7 0 -0.28 0.26
-6 -7 0 -0.41 0.26
-6 7 0 -0.41 0.3
6 7 0 -0.23 0.25
-6 7 1 22.98 0.91
-6 7 1 21.46 0.9
-6 -7 -1 21.04 0.96
6 7 -1 21.52 1.01
-1 6 7 21.1 0.95
-7 -1 -6 20.66 0.94
-1 -6 -7 21.68 0.86
6 7 -1 21.3 0.82
6 7 -1 22.41 0.87
7 1 -6 21.58 0.85
7 -1 6 21.01 0.97
1 6 7 21.14 0.94
-6 7 -1 24.09 0.91
6 7 1 21.24 0.84
1 -6 -7 21.72 0.79
-6 -7 1 20.37 0.94
1 6 7 20.84 0.75
7 1 6 21.52 1.01
7 -1 -6 21.95 0.76
-6 7 -1 22.11 0.9
6 7 1 19.66 0.97
6 7 1 21.88 0.85
-6 -7 -2 10.3 0.68
7 -2 6 9.59 0.7
7 2 -6 11 0.63
-6 7 2 10.12 0.64
-2 -6 -7 11.75 0.62
-6 7 2 12.28 0.68
6 7 -2 10.63 0.57
-7 -2 -6 11.07 0.71
6 7 -2 12.38 0.65
6 7 -2 13.62 0.8
-2 6 7 10.5 0.69
-2 -6 7 10.95 0.68
-6 7 -2 11.25 0.65
6 7 2 10.6 0.6
-7 -2 6 11.84 0.49
2 6 7 10.93 0.68
2 6 7 11.53 0.58
6 7 2 10.33 0.73
6 7 2 11.62 0.6
2 -6 -7 10.93 0.48
7 -2 -6 11.08 0.46
7 2 6 11.59 0.75
-6 -7 2 11.72 0.7
-6 7 -2 11.24 0.68
6 7 -3 7.89 0.55
-7 -3 -6 7.85 0.61
7 3 -6 7.74 0.62
-6 7 3 8.39 0.57
-6 7 3 7.14 0.58
-3 -6 -7 7.12 0.51
-3 6 7 7.82 0.61
7 -3 6 8.25 0.68
-6 -7 -3 6.79 0.59
6 7 -3 8.15 0.55
-7 -3 6 7.65 0.46
-6 -7 3 7.97 0.61
-6 7 -3 8.14 0.59
6 7 3 7.44 0.5
-3 -6 7 7.48 0.58
3 6 7 8.57 0.6
6 7 3 7.97 0.65
7 -3 -6 7.82 0.34
3 6 7 8.74 0.62
7 3 6 7.95 0.68
6 7 3 7.76 0.55
3 -6 -7 8.27 0.42
-6 7 -3 9.03 0.6
-7 -4 -6 36.05 1.42
-6 7 4 38.12 1.34
6 7 -4 39.2 1.31
-4 -6 -7 37.77 1.39
-7 4 6 38.8 1.28
-4 6 7 38.49 1.38
-6 -7 -4 39.29 1.47
7 -4 6 37.34 1.42
4 6 7 38.29 1.38
-6 -7 4 37.39 1.41
-6 7 -4 37.37 1.34
-6 7 -4 37.44 1.36
-7 -4 6 38.03 1.29
6 7 4 36.74 1.3
4 6 7 38.28 1.37
-4 -6 7 37.71 1.39
4 -6 -7 38.53 1.12
7 4 6 37.77 1.44
7 -4 -6 38.09 1.06
6 7 4 39.1 1.45
-7 5 6 29.13 1.1
-7 -5 -6 28.6 1.22
-6 -7 -5 28.55 1.21
7 -5 6 30.21 1.25
-5 6 7 29.3 1.17
-5 -6 -7 28.3 1.2
-6 7 5 30.57 1.14
6 7 -5 29.11 1.09
6 7 5 29.81 1.22
7 5 6 30.57 1.1
7 5 6 28.78 1.23
5 6 7 30.43 1.22
5 -6 -7 29.73 0.86
6 7 5 27.34 1.09
-6 -7 5 29.74 1.22
-6 7 -5 29.95 1.19
-7 -5 6 29.34 1.13
5 6 7 28.35 1.14
-5 -6 7 29.71 1.18
-7 -6 -6 30.56 1.3
-6 7 6 31.68 1.22
-7 6 6 30.97 1.18
-6 -7 -6 28.28 1.24
-6 -6 -7 27.97 1.24
7 6 -6 31.64 1.13
6 7 -6 31.15 1.17
-6 6 7 32.49 1.22
7 -6 6 29.35 1.28
6 -6 -7 30.56 0.85
-7 -6 6 32.01 1.24
6 6 7 32.11 1.19
6 6 7 30.45 1.31
6 7 6 29.48 1.16
6 7 6 31.43 1.34
-6 -6 7 31.2 1.23
-6 -7 6 30.57 1.25
7 6 6 29.65 1.14
7 6 6 32.6 1.36
-7 -7 0 40.05 1.53
-7 7 0 41.51 1.4
-7 7 0 40.73 1.41
0 -7 -7 43.26 1.39
0 7 7 45 1.53
7 0 7 42.56 1.56
7 7 0 42.76 1.36
7 7 0 42.9 1.57
7 7 0 42.66 1.36
-7 -7 -1 1.01 0.32
7 7 -1 0.72 0.29
7 7 -1 1.25 0.41
7 7 -1 0.89 0.29
-7 -1 -7 0.98 0.31
-1 7 7 0.49 0.41
7 -1 7 0.81 0.41
-7 7 1 0.66 0.32
-7 7 1 0.77 0.33
-1 -7 -7 0.67 0.22
1 -7 -7 0.93 0.2
-7 7 -1 0.88 0.34
1 7 7 0.2 0.36
7 -1 -7 0.98 0.23
-7 7 -1 0.86 0.36
7 1 7 0.61 0.42
-7 -7 1 0.81 0.33
7 7 1 0.63 0.28
7 7 1 1.5 0.41
7 7 1 1 0.28
-7 -7 -2 26.33 1.13
-7 -2 -7 25.58 1.14
-2 -7 -7 26.95 1.03
-2 7 7 25 1.11
7 7 -2 25.52 0.95
7 7 -2 26.61 0.98
-7 7 2 25.19 1
-7 7 2 24.8 1.01
-7 -2 7 26.77 0.85
-2 -7 7 25.79 1.1
-7 7 -2 26.68 1.02
2 -7 -7 26.04 0.89
2 7 7 26.19 1.1
2 7 7 27.43 0.96
7 -2 -7 26.2 0.86
-7 -7 2 26.76 1.14
7 2 7 25.95 1.15
-7 7 -2 25.74 1.03
7 7 2 25.63 0.96
7 7 2 26.18 1.15
7 7 2 26.82 0.95
-7 -7 -3 156.98 4.6
-7 -3 -7 157.51 4.59
-7 7 3 160.19 4.43
-3 7 7 160.78 4.54
7 7 -3 156.34 4.36
7 7 -3 158.41 4.4
-3 -7 -7 154.48 4.51
-7 -3 7 158.32 4.34
3 -7 -7 155.9 4.3
-3 -7 7 155.1 4.57
3 7 7 159.89 4.53
-7 -7 3 157.15 4.55
7 -3 -7 153.1 4.24
-7 7 -3 155.84 4.43
7 3 7 162.79 4.59
-7 7 -3 157.9 4.44
7 7 3 163.69 4.41
7 7 3 162.24 4.59
-7 -7 -4 24.19 1.11
-7 -4 -7 26.05 1.14
-4 7 7 25.26 1.1
7 7 -4 24.18 0.96
-7 4 7 25.18 0.98
-7 7 4 25.08 1.03
-4 -7 -7 24.93 1.06
-7 -4 7 25.34 0.98
-7 7 -4 24.98 1.04
-4 -7 7 24.44 1.1
4 7 7 24.49 1.06
4 7 7 24.83 1.08
-7 -7 4 26.65 1.11
7 -4 -7 24.45 0.75
-7 7 -4 24.99 1.08
7 4 7 24.63 1.15
4 -7 -7 25.92 0.82
7 7 4 25.02 0.97
7 7 4 26.57 1.16
-7 -7 -5 22.42 1.08
-7 -5 -7 21.21 1.06
-5 7 7 23.93 1.07
7 7 -5 23.41 0.93
-7 5 7 23.9 1.01
-7 7 5 23.03 0.99
-5 -7 -7 21.47 1.02
-7 -5 7 22.58 0.98
-7 7 -5 22.82 1.05
-5 -7 7 22.06 1.06
5 7 7 21.9 1.01
5 7 7 23.56 1.09
-7 -7 5 23.44 1.05
-7 7 -5 23.82 1.08
7 5 7 21.41 1.14
5 -7 -7 23.32 0.72
7 7 5 23.32 0.95
7 7 5 24.51 1.15
-7 -7 -6 2.82 0.47
-7 -6 -7 3.39 0.5
7 -7 6 1.77 0.47
7 7 -6 3.46 0.46
-7 6 7 2.78 0.52
-7 7 6 3.47 0.54
-6 -7 -7 3.11 0.48
-6 7 7 2.82 0.57
6 -7 -7 2.76 0.18
-7 -7 6 2.8 0.51
6 7 7 2.89 0.48
6 7 7 3.28 0.57
-7 -6 7 3.46 0.52
7 -6 -7 3.06 0.12
-7 7 -6 3.43 0.58
7 6 7 3.19 0.44
7 6 7 3.33 0.62
-6 -7 7 2.63 0.51
7 7 6 2.99 0.46
7 7 6 3.43 0.62
-7 -7 -7 57.93 2.09
7 7 -7 61.88 1.92
-7 7 7 56.44 1.97
7 -7 -7 57.46 1.56
-7 -7 7 58.35 2.05
7 7 7 60.13 1.94
7 7 7 59 2.1
-8 0 0 453.42 11.89
0 -8 0 449.76 12
0 0 8 445.73 11.93
0 8 0 443.83 12.01
0 8 0 456.97 12.03
8 0 0 448.57 11.96
-1 0 8 3.41 0.37
0 -8 -1 3.5 0.35
0 -8 1 3.86 0.4
0 8 -1 3.55 0.47
0 8 -1 3.25 0.46
0 8 1 3.51 0.41
0 8 1 2.76 0.46
1 0 8 2.7 0.34
8 -1 0 3.04 0.46
8 1 0 4.07 0.45
-8 -1 0 2.94 0.35
0 8 -2 47.61 1.65
0 8 2 49.72 1.65
0 8 2 47.27 1.64
2 0 8 51.69 1.62
8 -2 0 45.67 1.63
-2 0 8 51.5 1.47
0 -8 -2 49.67 1.57
8 2 0 49.09 1.62
0 8 -2 52.5 1.66
-2 0 8 50.11 1.47
-8 2 0 50.16 1.35
-8 -2 0 49.87 1.58
-8 -3 0 66.93 2.05
8 -3 0 66.03 1.99
0 8 -3 66.78 2.1
0 8 3 65.65 2.08
0 8 3 66.02 2.09
8 3 0 66.2 2.08
0 -8 -3 68.12 2.01
0 8 -3 67.94 2.09
8 3 0 64.49 1.78
-3 0 8 66.1 1.87
3 0 8 66.08 2.07
-8 3 0 65.25 1.84
-3 0 8 66.8 1.86
8 4 0 1.95 0.2
8 -4 0 1.73 0.46
8 4 0 2.09 0.2
-8 -4 0 1.88 0.34
4 0 8 2.54 0.42
0 8 4 1.61 0.37
-8 4 0 2.1 0.28
-4 0 8 1.94 0.13
0 -8 -4 2.01 0.3
0 8 -4 2.28 0.45
8 4 0 2.55 0.41
0 8 4 1.6 0.43
-8 4 0 2.38 0.26
-8 5 0 21.74 0.82
0 -8 -5 22.7 0.87
8 -5 0 21.46 0.9
0 8 -5 22.71 1.02
0 8 5 22.82 1
5 0 8 24.05 1.04
-8 5 0 22.89 0.83
-8 -5 0 22.77 0.99
8 5 0 22.74 0.76
8 5 0 24.51 1.05
8 5 0 22.75 0.75
-8 6 0 71.52 2.14
8 6 0 72.33 2.07
8 6 0 72.76 2.36
8 6 0 71.35 2.06
0 8 6 71.86 2.29
-8 6 0 72.78 2.13
0 -8 -6 72.73 2.17
6 0 8 72.72 2.33
-8 -6 0 71.18 2.31
0 -8 -7 12.6 0.61
8 7 0 13.55 0.61
0 8 7 13.22 0.83
8 7 0 12.92 0.6
7 0 8 14 0.88
-8 7 0 13.31 0.7
-8 7 0 12.97 0.69
-8 -7 0 12.54 0.79
-1 8 0 3.34 0.46
-8 0 -1 3.39 0.36
-8 0 1 3.58 0.29
-1 -8 0 3 0.36
1 8 0 2.42 0.41
0 -1 8 3.57 0.43
-1 8 0 3.18 0.45
1 8 0 3.17 0.45
8 0 -1 2.85 0.46
8 0 1 3.86 0.43
0 1 8 3.12 0.37
-1 8 1 18.82 0.83
1 8 -1 17.91 0.84
8 -1 1 18.34 0.78
-1 1 8 18.82 0.69
-8 -1 -1 18.2 0.77
8 1 -1 18.75 0.79
-1 -1 -8 19.04 0.79
-1 -8 -1 18.09 0.78
1 8 -1 18.38 0.87
-1 8 1 17.82 0.84
1 8 1 18.42 0.84
-1 8 -1 19.2 0.86
8 -1 -1 19.06 0.75
1 1 8 20.25 0.78
-8 1 -1 19.34 0.53
-1 8 -1 18.46 0.87
-1 -1 8 18.77 0.77
-8 1 -1 19.01 0.52
8 1 1 19.14 0.84
1 -8 -1 18.03 0.74
-8 -1 1 19.26 0.73
-1 -8 1 19.11 0.82
1 8 1 19.58 0.87
-1 -8 -2 31.77 1.12
1 8 -2 31.69 1.18
-2 1 8 32.21 0.95
1 8 -2 34.09 1.22
8 -2 1 30.73 1.1
2 -1 8 30.51 1.17
8 2 -1 31.11 1.13
-1 8 2 31.55 1.18
-1 8 2 31.25 1.19
-8 2 1 31.35 0.88
-2 -1 -8 31.29 1.13
-8 -2 -1 31.02 1.12
1 -8 -2 31.99 1.08
-1 8 -2 31.58 1.2
-1 8 -2 31.7 1.18
1 8 2 32.44 1.16
-2 -1 8 31.97 1.06
1 8 2 30.23 1.17
-8 2 -1 31.27 0.94
-1 -8 2 30.66 1.16
2 1 8 32.24 1.16
-8 -2 1 32.25 1.09
8 -2 -1 31.84 1.06
-8 2 -1 30.54 0.89
8 2 1 31.59 1.17
-8 -3 -1 9.2 0.56
1 8 -3 9.64 0.64
3 -1 8 9.9 0.67
-1 -8 -3 9.69 0.55
8 3 -1 9.31 0.34
8 3 -1 9.71 0.61
-1 8 3 9.26 0.65
-1 8 3 9.32 0.64
1 8 -3 10.14 0.67
-8 3 1 9.5 0.39
-3 -1 -8 9.01 0.57
8 -3 1 9.7 0.54
8 3 -1 9.64 0.32
-1 -8 3 9.08 0.6
-8 3 -1 9.52 0.42
8 3 1 9.15 0.62
8 -3 -1 9.91 0.48
-1 8 -3 9.29 0.59
1 -8 -3 9.66 0.48
-1 8 -3 10.73 0.69
-8 -3 1 8.8 0.55
3 1 8 8.54 0.63
1 8 3 8.88 0.64
1 8 3 9.42 0.58
-3 -1 8 10.04 0.49
-3 -1 8 9.78 0.47
-8 3 -1 8.81 0.4
-1 -8 -4 55.79 1.75
8 4 -1 55.58 1.56
4 -1 8 56.9 1.84
-4 -1 -8 56.06 1.82
-1 8 4 53.76 1.81
-1 8 4 54.06 1.82
-8 -4 -1 54.57 1.81
1 8 -4 55.14 1.82
8 4 -1 55.63 1.82
8 4 -1 56.28 1.55
-8 4 1 54.45 1.6
8 -4 1 53.52 1.71
4 1 8 57.65 1.82
-4 -1 8 55.01 1.6
-4 -1 8 55.34 1.6
-8 -4 1 55.09 1.78
1 8 4 52.7 1.8
1 8 4 54.46 1.81
-8 4 -1 53.81 1.61
1 -8 -4 56.04 1.69
-1 -8 4 56.47 1.85
8 4 1 55.21 1.56
8 -4 -1 56.18 1.65
8 4 1 57.11 1.84
-8 4 -1 55.17 1.61
-1 8 -4 54.29 1.82
1 8 -5 37.96 1.41
-1 -8 -5 40.48 1.34
-5 -1 -8 38.81 1.42
8 5 -1 38.04 1.18
-8 -5 -1 38.32 1.42
8 -5 1 38.49 1.3
-8 5 1 38.06 1.22
8 5 -1 40.81 1.46
8 5 -1 39.05 1.17
5 -1 8 38.87 1.45
-8 5 1 38.19 1.24
-1 8 5 39.05 1.43
-8 5 -1 40.15 1.25
-1 -8 5 37.75 1.43
1 8 5 39.02 1.41
8 -5 -1 40.95 1.24
-5 -1 8 38.37 1.13
8 5 1 38.14 1.18
5 1 8 38.47 1.44
8 5 1 37.18 1.43
-8 -5 1 38.63 1.4
-1 8 -5 39.96 1.44
1 -8 -5 38.87 1.26
-8 5 -1 39.67 1.25
8 5 1 39.28 1.16
8 6 -1 69.45 2.02
6 -1 8 72.3 2.3
-1 8 6 68.97 2.25
-8 6 1 67.82 2.08
-1 -8 -6 69.2 2.15
-6 -1 -8 68.31 2.25
8 6 -1 70.95 2.03
-8 6 1 70.4 2.08
8 6 -1 71.52 2.29
-8 -6 -1 69.58 2.27
6 1 8 71.56 2.3
8 6 1 73.15 2.32
1 -8 -6 70.62 2.08
-8 -6 1 70.41 2.25
8 6 1 72.1 2.02
-8 6 -1 68.76 2.08
-8 6 -1 67.79 2.09
8 6 1 70.04 2.03
1 8 6 69.32 2.25
-1 -8 -7 5.59 0.44
-8 7 1 4.6 0.51
8 7 -1 4.95 0.43
7 -1 8 5.06 0.67
-8 7 1 4.44 0.49
-1 8 7 5 0.6
-7 -1 -8 4.75 0.56
-8 -7 -1 5.35 0.58
8 7 -1 4.25 0.42
1 -8 -7 5.12 0.37
8 7 1 5.61 0.43
8 7 1 5.3 0.4
-8 7 -1 4.82 0.54
1 8 7 4.92 0.6
7 1 8 4.91 0.6
-8 7 -1 4.54 0.53
-8 -7 1 4.33 0.55
8 7 1 5.2 0.65
2 8 0 50.83 1.64
8 0 -2 47.09 1.6
8 0 -2 50.39 1.37
8 0 2 49.24 1.63
-8 0 2 52.98 1.53
2 8 0 49.75 1.62
-2 -8 0 49.98 1.64
-2 8 0 48.06 1.64
-2 8 0 49.57 1.64
0 -2 -8 49.44 1.56
0 2 8 49.12 1.49
-8 0 -2 50.12 1.36
-8 0 -2 49.09 1.56
-2 -8 -1 30.02 1.14
-2 8 1 30.25 1.17
8 -1 2 30.1 1.14
-2 8 1 31.9 1.17
-1 -2 -8 32.62 1.13
2 8 -1 30.21 1.15
8 1 -2 32.55 1.13
-8 -1 -2 31.83 1.14
1 -2 8 32.9 1.19
-8 -1 -2 32.51 0.9
-1 2 8 31.33 0.96
2 8 -1 32.69 1.18
-8 1 -2 32.41 0.94
8 -1 -2 33.24 0.94
-1 -2 8 31.76 1.13
1 -2 -8 33.2 1.07
-8 1 -2 33.58 0.93
8 -1 -2 32.57 1.07
1 2 8 30.91 1.08
-2 8 -1 33.17 1.2
-2 -8 1 29.38 1.16
2 8 1 31.6 1.16
2 8 1 31.02 1.17
-2 8 -1 29.75 1.17
8 1 2 32.28 1.19
-8 -1 2 31.32 1.02
-2 -8 -2 16.09 0.74
8 2 -2 15.21 0.72
-2 8 2 15.35 0.74
-2 8 2 14.55 0.77
-8 -2 -2 16.05 0.52
-8 -2 -2 14.67 0.73
2 8 -2 15.73 0.78
8 -2 2 14.14 0.7
-2 -2 -8 15.75 0.74
2 8 -2 14.62 0.71
2 -2 8 15.66 0.76
-8 2 -2 15.55 0.54
2 8 2 14.36 0.75
-2 8 -2 15.21 0.74
-2 8 -2 14.48 0.8
8 -2 -2 15.42 0.61
2 2 8 14.74 0.71
-2 -8 2 14.38 0.74
8 -2 -2 15.52 0.55
2 8 2 15.31 0.77
8 2 2 14.92 0.76
-2 -2 8 15.04 0.68
-8 -2 2 14.97 0.65
-8 2 -2 14.78 0.5
-8 -3 -2 173.42 4.19
-2 8 3 156.88 4.39
3 -2 8 155.25 4.38
2 8 -3 155.85 4.37
-8 -3 -2 153.22 4.38
-8 3 2 148.48 4.13
-3 -2 -8 152.36 4.38
-2 8 3 152.93 4.37
8 -3 2 156.07 4.32
8 3 -2 154.91 4.35
2 8 -3 155.72 4.36
-2 -8 -3 153.73 4.36
-3 -2 8 153.43 4.25
2 8 3 152.68 4.35
3 2 8 156.26 4.34
-8 3 -2 144.99 4.13
-2 8 -3 155.71 4.37
-2 8 -3 151.97 4.37
2 -8 -3 157.18 4.24
-2 -8 3 153.39 4.42
8 3 2 153.81 4.39
2 8 3 152.69 4.35
8 -3 -2 149.76 4.19
-3 -2 8 155.57 4.26
8 -3 -2 158.13 4.18
-8 -3 2 159.45 4.31
-8 3 -2 146.42 4.15
8 4 -2 40.29 1.19
8 4 -2 40.86 1.43
-2 -8 -4 40.25 1.38
8 4 -2 39.47 1.16
-2 8 4 38.26 1.41
-4 -2 -8 38.13 1.41
8 -4 2 39.21 1.35
4 -2 8 40.53 1.45
-8 4 2 39.67 1.21
-8 -4 -2 40.04 1.43
2 8 -4 39.34 1.42
-2 8 4 38.21 1.43
-8 4 -2 38.7 1.22
2 8 4 38.94 1.41
-8 4 -2 39.07 1.23
8 4 2 41.08 1.47
2 8 4 39.97 1.41
-8 -4 2 39.35 1.36
-2 -8 4 39.69 1.45
2 -8 -4 41.56 1.25
-2 8 -4 41.43 1.45
-4 -2 8 40.01 1.27
-4 -2 8 41.37 1.27
8 4 2 40.34 1.19
4 2 8 41.17 1.42
8 -4 -2 39.62 1.21
-8 -5 -2 4.42 0.51
8 5 -2 5.12 0.35
5 -2 8 5.34 0.66
8 5 -2 5.84 0.39
-5 -2 -8 5.02 0.55
-2 8 5 5.07 0.56
-8 5 2 5.25 0.41
8 -5 2 5.25 0.48
8 5 -2 4.53 0.57
2 8 -5 5.37 0.6
-2 -8 -5 4.97 0.43
-5 -2 8 6.16 0.38
-2 -8 5 4.75 0.52
-5 -2 8 5.83 0.41
-8 5 -2 4.7 0.43
2 -8 -5 5.59 0.35
8 5 2 4.96 0.36
8 5 2 4.93 0.59
5 2 8 6.76 0.67
-2 8 -5 5.11 0.6
8 -5 -2 5.8 0.35
2 8 5 5.65 0.55
-8 -5 2 5.48 0.5
-8 5 -2 5.17 0.45
-8 6 2 0.18 0.26
-6 -2 -8 -0.2 0.29
8 6 -2 0.13 0.22
-8 -6 -2 -0.1 0.28
-2 8 6 0.15 0.37
-2 -8 -6 -0.27 0.18
8 6 -2 0.66 0.34
8 6 -2 0.26 0.23
6 -2 8 -0.17 0.38
-8 6 -2 0.33 0.31
-8 6 -2 0.03 0.28
-8 -6 2 -0.12 0.24
-6 -2 8 -0.05 0.16
6 2 8 0.21 0.38
-6 -2 8 0.11 0.19
8 6 2 0.08 0.22
8 6 2 -0.21 0.36
2 8 6 -0.36 0.34
2 -8 -6 0.13 0.14
-2 -8 6 -0.06 0.29
-8 -7 -2 0 0.31
-7 -2 -8 -0.05 0.31
8 7 -2 0.05 0.24
-2 8 7 1.64 0.46
-2 -8 -7 0.07 0.24
-8 7 2 -0.07 0.28
8 7 -2 -0.15 0.27
-8 7 2 -0.47 0.32
2 -8 -7 -0.07 0.13
2 8 7 -0.04 0.27
2 8 7 -0.09 0.31
8 7 2 -0.13 0.25
8 7 2 0.25 0.41
8 7 2 0.15 0.22
-2 -8 7 0.39 0.34
-7 -2 8 0.02 0.17
-7 -2 8 0.03 0.16
-8 7 -2 -0.64 0.29
7 2 8 1.12 0.46
-8 -7 2 -0.03 0.31
-8 7 -2 -0.53 0.32
0 -3 8 67.01 2.05
-8 0 -3 65.82 2.03
-3 8 0 68.7 2.08
8 0 -3 67.06 1.78
0 3 8 63.55 1.88
8 0 3 66.97 2.09
3 8 0 64.92 2.04
3 8 0 67.18 2.06
-8 0 -3 63.78 1.77
8 0 -3 67.43 1.86
-3 8 0 65.47 2.09
0 -3 -8 67.66 2
-3 -8 0 66.52 2.1
8 0 -3 68.09 1.99
-1 3 8 10.01 0.35
-8 -1 -3 8.68 0.57
3 8 -1 9.4 0.63
8 -1 3 10.05 0.64
8 1 -3 9.58 0.31
1 -3 8 10.12 0.65
8 1 -3 9.57 0.54
3 8 -1 8.76 0.6
-3 8 1 10.33 0.64
-8 -1 -3 9.35 0.29
-3 -8 -1 10.34 0.6
-3 8 1 9.04 0.65
-1 -3 -8 9.1 0.53
-8 1 -3 9.14 0.35
8 1 3 8.73 0.61
-3 -8 1 9.18 0.61
8 -1 -3 9.71 0.34
-3 8 -1 9.49 0.66
1 3 8 9.16 0.5
-8 -1 3 9.64 0.43
-3 8 -1 9.3 0.64
3 8 1 9.24 0.62
8 -1 -3 9.67 0.48
8 -1 -3 10.09 0.42
3 8 1 8.85 0.59
1 -3 -8 8.97 0.47
-2 -3 -8 156.13 4.34
8 2 -3 153.4 4.06
-8 -2 -3 152.04 4.36
2 -3 8 156.82 4.36
8 -2 3 156.65 4.34
8 2 -3 151.81 4.29
3 8 -2 150.91 4.32
-3 -8 -2 157.31 4.38
-3 8 2 157.35 4.35
-3 8 2 157.61 4.36
-8 -2 -3 147.82 4.04
3 8 -2 151.3 4.31
8 2 3 158.24 4.38
-8 2 -3 145.18 4.1
2 -3 -8 151.61 4.2
8 -2 -3 155.53 4.15
-3 8 -2 152.29 4.34
-8 -2 3 156.9 4.22
3 8 2 157.1 4.33
2 3 8 154.44 4.26
8 -2 -3 152.77 4.09
8 -2 -3 149.52 4.17
-3 -8 2 153.56 4.39
3 8 2 155.07 4.32
-3 8 -2 150.85 4.34
3 -3 8 596.61 15.35
-8 3 3 561.59 15.09
-3 -8 -3 585.09 15.34
-3 8 3 570.18 15.3
-3 8 3 582.72 15.33
-3 -3 -8 583.08 15.34
-8 -3 -3 566.28 15.34
8 3 -3 583.65 15.3
3 8 -3 561.25 15.27
3 8 -3 575.76 15.29
8 -3 3 585.93 15.3
-8 -3 -3 574.85 15.03
8 -3 -3 561.21 15.1
3 8 3 573.84 15.29
-3 -3 8 595.57 15.26
-3 8 -3 564.58 15.31
-3 8 -3 568.25 15.3
3 3 8 582.02 15.27
3 8 3 577.33 15.28
3 8 3 580.38 15.27
8 3 3 578.05 15.35
-8 -3 3 589.84 15.23
-8 3 -3 553.9 15.09
-3 -8 3 565.24 15.36
-8 4 3 6.37 0.4
-3 8 4 6.89 0.58
8 4 -3 5.82 0.55
-4 -3 -8 6.15 0.53
4 -3 8 6.31 0.6
8 4 -3 5.7 0.33
-8 -4 -3 5.85 0.52
-8 -4 -3 5.87 0.4
-3 -8 -4 6.43 0.51
-3 8 4 6.1 0.61
8 -4 3 6.26 0.52
3 8 -4 5.03 0.56
-3 -8 4 6.05 0.58
-8 -4 3 5.91 0.49
8 4 3 6.28 0.37
8 4 3 7.66 0.64
-4 -3 8 6.04 0.45
4 3 8 7.11 0.63
-3 8 -4 5.9 0.62
3 8 4 5.43 0.58
3 8 4 6.54 0.56
-8 4 -3 6.56 0.46
-8 4 -3 5.68 0.42
3 -8 -4 6.12 0.35
-3 8 -4 5.82 0.61
8 -4 -3 6.4 0.34
3 8 4 5.86 0.55
8 5 -3 82.66 2.38
8 5 -3 88.01 2.66
-8 5 3 84.01 2.43
-8 -5 -3 85.81 2.67
-3 8 5 85.74 2.62
3 8 -5 83.58 2.6
8 -5 3 87.54 2.58
5 -3 8 85.05 2.66
-3 -8 -5 86.88 2.61
-5 -3 -8 83.16 2.64
8 5 3 85.28 2.66
-8 -5 3 86.46 2.59
8 -5 -3 85.87 2.35
3 -8 -5 87.62 2.4
-8 5 -3 84.89 2.45
3 8 5 81.65 2.6
8 5 3 85.3 2.41
5 3 8 84.9 2.62
-5 -3 8 85.81 2.47
-3 -8 5 82.23 2.65
-3 8 -5 86.97 2.63
3 8 5 82.04 2.58
-8 5 -3 83.28 2.46
8 6 -3 31.66 1.08
6 -3 8 33.64 1.48
-8 6 3 33.24 1.15
3 8 -6 34.36 1.3
-3 -8 -6 32.79 1.25
8 6 -3 34.14 1.12
-6 -3 -8 32.02 1.31
-8 -6 -3 32.78 1.33
8 6 -3 34.48 1.35
8 -6 3 34.65 1.26
-3 8 6 34.35 1.32
-8 6 -3 33.25 1.18
8 6 3 32.84 1.35
-6 -3 8 32.76 1.11
-8 -6 3 32.38 1.27
8 6 3 33.13 1.11
-8 6 -3 32.2 1.16
6 3 8 33.67 1.34
-3 -8 6 32.18 1.33
3 -8 -6 33.02 1.05
3 8 6 32.67 1.28
-8 7 3 1.4 0.4
-3 -8 -7 1.35 0.35
8 7 -3 1.92 0.33
-3 8 7 1.32 0.51
-7 -3 -8 1.76 0.43
-8 -7 -3 1.09 0.4
8 7 -3 1.59 0.33
8 7 3 1.67 0.33
8 7 3 1.18 0.49
7 3 8 1.87 0.5
-7 -3 8 1.21 0.24
3 -8 -7 1.75 0.23
-3 -8 7 1.32 0.39
-8 7 -3 1.38 0.38
-8 7 -3 1.96 0.46
3 8 7 1.05 0.41
-8 -7 3 1.9 0.43
4 8 0 1.96 0.38
8 0 4 2.15 0.41
0 -4 -8 2.19 0.28
4 8 0 2.18 0.39
0 4 8 1.96 0.4
0 4 8 2.02 0.24
-4 -8 0 1.94 0.35
-4 8 0 1.72 0.4
-4 8 0 1.68 0.41
-8 0 -4 1.82 0.34
8 0 -4 2.06 0.31
8 0 -4 1.85 0.22
8 -1 4 57.13 1.85
8 1 -4 53.71 1.56
4 8 -1 54.52 1.77
4 8 -1 55.56 1.79
-4 8 1 56.3 1.81
8 1 -4 56.29 1.75
-8 -1 -4 55.58 1.56
-1 -4 -8 56.71 1.77
-1 4 8 54.2 1.82
-8 -1 -4 56.5 1.84
-4 8 1 57.31 1.84
-4 -8 -1 54.5 1.85
8 -1 -4 60.8 1.7
-4 -8 1 56.73 1.86
-4 8 -1 53.84 1.81
4 8 1 58.1 1.87
4 8 1 55.27 1.78
8 -1 -4 56.68 1.67
4 8 1 58.01 1.79
1 4 8 54.91 1.67
8 1 4 59.12 1.88
1 4 8 53.97 1.82
1 -4 -8 56.43 1.7
-4 8 -1 57.62 1.83
-2 4 8 38.7 1.4
-4 8 2 39.32 1.42
4 8 -2 40.26 1.39
-8 -2 -4 39.2 1.16
2 -4 8 40.04 1.44
-8 -2 -4 38.22 1.42
8 2 -4 40.56 1.36
4 8 -2 38.75 1.35
-4 -8 -2 40.31 1.44
8 -2 4 40.17 1.42
-2 -4 -8 40.38 1.38
-4 8 2 42.21 1.42
-4 8 -2 39.92 1.42
-8 -2 4 41.37 1.25
2 -4 -8 40.86 1.25
2 4 8 40.07 1.41
2 4 8 39.28 1.31
-4 -8 2 38.44 1.44
-4 8 -2 39.97 1.41
4 8 2 39.22 1.36
4 8 2 39.98 1.43
4 8 2 39.93 1.37
8 -2 -4 40.43 1.22
8 2 4 39.92 1.46
8 -3 4 8.25 0.6
8 3 -4 6.15 0.35
-8 -3 -4 6.18 0.54
-8 3 4 6.18 0.39
-8 -3 -4 6.35 0.4
-4 8 3 6.42 0.61
-3 -4 -8 6.12 0.52
4 8 -3 6.47 0.57
-4 8 3 5.94 0.56
-3 4 8 5.92 0.54
4 8 -3 5.35 0.53
-4 -8 -3 5.52 0.53
3 -4 8 6.13 0.61
8 3 -4 6.29 0.52
8 3 4 7.54 0.64
3 4 8 7.19 0.56
3 -4 -8 6.47 0.37
4 8 3 5.64 0.51
4 8 3 4.81 0.51
3 4 8 5.57 0.61
4 8 3 6.31 0.63
-3 -4 8 6.62 0.51
-4 8 -3 5.41 0.58
8 -3 -4 6.25 0.34
-4 8 -3 6.29 0.61
-8 -3 4 6.09 0.45
-4 -8 3 6.22 0.55
-4 -4 -8 149.65 4.3
8 4 -4 153.89 4.28
4 8 -4 146.38 4.21
-4 4 8 149.94 4.24
-8 4 4 146.67 4.07
-4 -8 -4 147.76 4.3
-8 -4 -4 148.79 4.33
8 4 -4 147.41 4.04
-4 8 4 146.04 4.26
-4 8 4 150.98 4.26
4 -4 8 150.9 4.31
8 -4 4 148.37 4.26
-8 -4 -4 149.46 4.04
-4 -4 8 147.12 4.19
4 8 4 152.01 4.22
-4 8 -4 148.42 4.26
4 8 4 143.73 4.22
4 8 4 150.21 4.24
4 -4 -8 153.5 4.04
-4 -8 4 145.73 4.31
4 4 8 150.73 4.23
8 -4 -4 146.94 3.99
-4 8 -4 147.5 4.26
-8 4 -4 146.9 4.08
-8 -4 4 148.82 4.2
8 4 4 157.27 4.34
8 5 -4 20.18 0.99
-8 -5 -4 19.18 0.96
-8 5 4 19 0.77
5 -4 8 18.34 0.98
-4 8 5 18.82 0.92
-4 -8 -5 17.74 0.89
-5 -4 -8 19.16 0.92
-5 4 8 18.62 0.88
8 5 -4 19.8 0.73
8 -5 4 18.8 0.9
4 8 -5 18.37 0.89
-8 -5 4 18.92 0.88
-5 -4 8 19.69 0.84
8 5 4 19.25 0.75
4 -8 -5 20.27 0.7
-8 5 -4 19.38 0.81
5 4 8 21.95 0.99
8 -5 -4 19.91 0.62
4 8 5 19.74 0.92
-4 -8 5 19.92 0.95
-8 5 -4 19.04 0.81
-4 8 -5 20.22 0.96
8 5 4 19.15 0.98
4 8 5 18.94 0.9
-6 -4 -8 1.92 0.41
-8 -6 -4 2.22 0.44
8 6 -4 2.48 0.49
-8 6 4 2.37 0.38
-4 -8 -6 2.32 0.36
-4 8 6 2.42 0.5
8 -6 4 2.52 0.43
4 8 -6 2.78 0.47
8 6 -4 1.89 0.32
-8 6 -4 2.93 0.46
4 8 6 2.91 0.45
6 4 8 2.57 0.52
4 8 6 2.17 0.43
-8 6 -4 3.14 0.42
-6 -4 8 2.58 0.38
4 -8 -6 2.43 0.26
8 6 4 2.54 0.35
-4 -8 6 2.4 0.43
-8 -6 4 2.72 0.42
-4 8 -6 2.52 0.52
8 6 4 2.02 0.49
8 7 -4 35.17 1.19
-8 7 4 34.1 1.28
-7 -4 -8 34.12 1.41
-4 8 7 35.32 1.44
-8 -7 -4 34.11 1.43
-4 -8 -7 33.97 1.35
8 7 -4 35.08 1.23
4 8 7 36.33 1.37
-4 -8 7 33.87 1.41
8 7 4 36.94 1.55
7 4 8 37.33 1.51
-8 7 -4 34.35 1.28
8 7 4 35.4 1.22
-8 7 -4 34.53 1.32
-7 -4 8 34.29 1.22
4 8 7 35.15 1.34
-8 -7 4 34.77 1.39
0 5 8 23.12 0.97
-5 -8 0 22.87 1
-5 8 0 21.46 0.96
0 -5 -8 22.34 0.86
-8 0 -5 22.04 0.97
5 8 0 23.19 0.95
8 0 5 23.34 1.02
-5 8 0 22.79 0.96
0 5 8 22.96 0.69
5 8 0 22.22 0.9
5 8 0 24.05 1.03
-5 8 1 39.55 1.37
8 -1 5 38.62 1.43
-5 -8 -1 37.81 1.42
-8 -1 -5 38.45 1.41
-1 5 8 37.66 1.4
-5 8 1 36.86 1.36
5 8 -1 36.63 1.31
5 8 -1 39.68 1.34
8 1 -5 38.43 1.3
-1 -5 -8 39.58 1.33
1 -5 -8 40.28 1.26
5 8 1 40.61 1.44
5 8 1 38.94 1.33
-5 -8 1 38.9 1.43
-8 -1 5 39.44 1.07
1 5 8 37.49 1.4
-5 8 -1 39.26 1.39
5 8 1 38.73 1.33
8 -1 -5 39.04 1.23
-5 8 -1 37.74 1.36
8 1 5 40.51 1.44
1 5 8 38.39 1.21
-5 8 2 5.33 0.57
5 8 -2 4.95 0.55
-2 5 8 5.41 0.56
-8 -2 -5 5.61 0.42
-2 -5 -8 5.57 0.45
8 2 -5 4.72 0.51
-8 -2 -5 6.01 0.54
-5 -8 -2 4.4 0.5
8 -2 5 5.01 0.57
-5 8 2 4.76 0.54
5 8 -2 3.96 0.48
-5 8 -2 4.51 0.55
8 -2 -5 5.25 0.34
-5 8 -2 5.81 0.57
5 8 2 5.19 0.51
2 -5 -8 5.01 0.34
2 5 8 5.1 0.45
5 8 2 5.6 0.6
5 8 2 4.59 0.48
2 5 8 5.3 0.56
-8 -2 5 5.34 0.34
-5 -8 2 5.58 0.53
-2 -5 8 5.68 0.55
8 2 5 5.22 0.6
-5 8 3 80.64 2.58
8 -3 5 84.9 2.64
8 3 -5 88.62 2.6
5 8 -3 84.67 2.54
5 8 -3 86.96 2.56
-5 -8 -3 85.93 2.67
-8 -3 -5 83.6 2.4
-3 5 8 82.52 2.6
-5 8 3 83.83 2.57
-3 -5 -8 84.92 2.61
-8 -3 -5 82.92 2.65
5 8 3 84.8 2.56
8 3 5 86.54 2.67
5 8 3 88.71 2.65
3 5 8 86.7 2.62
-5 8 -3 85.5 2.59
-8 -3 5 89.55 2.48
-5 -8 3 84.54 2.67
3 -5 -8 83.69 2.4
-3 -5 8 85.85 2.61
8 -3 -5 84.89 2.35
5 8 3 85.34 2.55
-5 8 -3 84.69 2.59
-5 -8 -4 18.47 0.92
-8 4 5 19.17 0.77
8 -4 5 19.22 0.97
-4 -5 -8 19.57 0.93
-8 -4 -5 18.95 0.95
8 4 -5 19.56 0.95
5 8 -4 18.72 0.89
-4 5 8 18.95 0.92
4 -5 8 18.82 0.96
-5 8 4 20.08 0.95
-5 -8 4 18.92 0.94
4 5 8 19.36 0.9
5 8 4 18.94 0.9
5 8 4 21.73 0.98
8 -4 -5 20.06 0.63
4 -5 -8 20.37 0.7
8 4 5 21.81 1.02
-5 8 -4 19.2 0.93
4 5 8 20.81 0.93
-4 -5 8 20 0.88
-5 8 -4 18.95 0.95
-8 -4 5 20.1 0.84
8 5 -5 69.6 2.04
-5 -5 -8 66.72 2.25
-8 -5 -5 68.38 2.31
-5 5 8 68.24 2.2
8 5 -5 70.64 2.25
-8 5 5 69.16 2.08
-5 -8 -5 69.01 2.28
8 -5 5 68.6 2.24
-5 8 5 70.62 2.22
5 8 -5 72.6 2.2
5 -5 -8 69.03 1.93
-8 -5 5 71 2.18
8 -5 -5 68.99 1.88
8 5 5 69.95 2.3
8 5 5 70.07 2.07
-5 8 -5 67.23 2.23
5 8 5 70.21 2.19
-5 -5 8 69.71 2.19
-5 8 -5 67.14 2.22
-5 -8 5 69.04 2.28
5 5 8 70.36 2.2
5 5 8 70.76 2.24
5 8 5 68.74 2.24
-8 -6 -5 33.5 1.35
5 8 -6 30.45 1.22
8 -6 5 31.48 1.29
-5 8 6 32.74 1.33
-5 -8 -6 31.14 1.27
-8 6 5 31.8 1.17
-6 5 8 32.54 1.25
8 6 -5 32.82 1.11
-6 -5 -8 30.82 1.31
8 6 -5 32.1 1.34
6 5 8 29.42 1.33
-8 6 -5 32.03 1.17
-8 6 -5 30.13 1.2
-8 -6 5 30.8 1.23
5 8 6 31.18 1.23
5 -8 -6 31.57 0.96
-6 -5 8 31.71 1.21
8 6 5 32.65 1.14
5 8 6 33.79 1.33
-5 8 -6 30.79 1.32
-5 -8 6 30.04 1.3
8 6 5 31.68 1.38
-7 5 8 -0.27 0.41
-8 -7 -5 0.26 0.36
5 8 -7 0.44 0.42
-7 -5 -8 0.24 0.33
8 7 -5 0.18 0.27
8 -7 5 -0.22 0.36
-8 7 5 -0.04 0.4
-5 -8 -7 -0.08 0.27
-5 8 7 -0.21 0.51
7 5 8 0.24 0.5
-8 7 -5 -0.21 0.46
-7 -5 8 -0.29 0.34
5 8 7 0.12 0.33
-8 7 -5 0.31 0.48
-5 -8 7 0.23 0.42
8 7 5 0.09 0.28
5 -8 -7 0.1 0.14
5 8 7 0.18 0.47
-8 -7 5 -0.25 0.39
8 0 6 75.03 2.39
-6 8 0 71.09 2.25
6 8 0 74.02 2.2
-6 -8 0 71.99 2.36
8 0 -6 72.35 2.16
6 8 0 74.27 2.36
6 8 0 72.55 2.2
0 6 8 70.74 2.31
-6 8 0 71.83 2.24
0 -6 -8 75.34 2.2
6 8 -1 71.93 2.13
-1 6 8 72.49 2.26
8 1 -6 71.63 2.14
-1 -6 -8 70.26 2.17
6 8 -1 71.8 2.31
6 8 -1 70.85 2.14
8 -1 6 71.24 2.29
-6 8 1 70.32 2.21
-8 -1 -6 68.09 2.25
-6 -8 -1 70.05 2.29
-6 8 1 70.15 2.18
1 6 8 69.47 2.26
1 6 8 69.41 2.01
6 8 1 68.63 2.14
6 8 1 73.27 2.33
8 1 6 70.49 2.29
-6 8 -1 69.4 2.18
-6 -8 1 68.8 2.28
1 -6 -8 72.29 2.1
8 -1 -6 70.26 2.05
-6 8 -1 69.17 2.19
6 8 1 71.63 2.15
6 8 -2 0.06 0.29
-8 -2 -6 -0.5 0.28
6 8 -2 0.11 0.33
-2 6 8 -0.39 0.31
-2 -6 -8 -0.21 0.17
8 2 -6 -0.09 0.27
8 -2 6 -0.52 0.32
-6 -8 -2 0.25 0.29
-6 8 2 -0.3 0.31
-6 8 2 0.03 0.33
6 8 2 0.02 0.29
-6 8 -2 -0.5 0.35
2 -6 -8 0.12 0.13
8 -2 -6 0.06 0.16
2 6 8 -0.27 0.32
2 6 8 0.08 0.24
-8 -2 6 0.2 0.16
-2 -6 8 0.31 0.31
-6 8 -2 -0.17 0.36
6 8 2 -0.37 0.35
8 2 6 0.11 0.38
-6 -8 2 -0.05 0.28
6 8 2 0.11 0.3
8 -3 6 34.35 1.34
-3 -6 -8 33.71 1.27
-6 8 3 33.29 1.28
-6 -8 -3 32.92 1.33
-6 8 3 33.05 1.26
-8 -3 -6 32.92 1.33
-3 6 8 32.02 1.3
8 3 -6 33.36 1.26
6 8 -3 33.74 1.22
6 8 -3 32.9 1.2
8 -3 -6 32.67 1.01
-6 8 -3 35.06 1.3
-3 -6 8 32.64 1.3
-6 -8 3 32.74 1.33
-6 8 -3 33.48 1.26
6 8 3 33.28 1.19
3 6 8 33.89 1.29
6 8 3 33.11 1.2
-8 -3 6 33.43 1.11
3 -6 -8 33.41 1.06
6 8 3 32.81 1.34
8 3 6 34.37 1.36
-8 4 6 2.63 0.39
-6 -8 -4 2.97 0.45
8 -4 6 2.53 0.47
6 8 -4 2.3 0.42
6 8 -4 2.56 0.46
-4 6 8 2.01 0.49
-4 -6 -8 1.74 0.33
-6 8 4 2.5 0.47
8 4 -6 1.82 0.43
-8 -4 -6 2.68 0.47
-8 -4 6 2.22 0.33
4 6 8 2.7 0.45
4 -6 -8 2.43 0.29
8 4 6 2.62 0.51
4 6 8 2.35 0.44
6 8 4 2.16 0.4
6 8 4 1.88 0.49
8 -4 -6 2.24 0.2
-6 8 -4 2.54 0.49
-4 -6 8 2.11 0.4
-6 -8 4 1.84 0.41
-6 8 -4 2.91 0.51
8 -5 6 31.56 1.33
-5 6 8 30.2 1.28
-6 8 5 32.23 1.26
-6 -8 -5 31.19 1.32
-5 -6 -8 31.14 1.27
-8 5 6 32.37 1.16
-8 -5 -6 28.46 1.29
6 8 -5 30.7 1.17
5 6 8 31.55 1.25
-6 -8 5 29.49 1.31
-8 -5 6 31.66 1.21
5 -6 -8 33.04 0.96
6 8 5 31.67 1.2
8 5 6 31.61 1.37
5 6 8 31.16 1.29
8 -5 -6 32.46 0.89
-6 8 -5 32.41 1.29
6 8 5 32.34 1.37
-6 8 -5 32.16 1.31
-5 -6 8 30.97 1.26
-6 -6 -8 10.03 0.73
-8 6 6 10.55 0.72
-6 -8 -6 8.59 0.72
8 -6 6 10.3 0.79
-6 8 6 11.26 0.84
6 8 -6 10.48 0.71
8 6 -6 10.47 0.62
-8 -6 -6 9.85 0.75
-6 6 8 10.99 0.8
-8 -6 6 9.17 0.75
6 -6 -8 10.03 0.38
8 6 6 10.31 0.62
-6 -8 6 9.66 0.84
6 6 8 11.72 0.84
-6 8 -6 11.33 0.87
6 -8 -6 10.13 0.39
6 8 6 10.89 0.89
8 -6 -6 9.93 0.31
-6 -6 8 10.57 0.8
6 8 6 10.07 0.66
6 6 8 10.14 0.69
-6 8 7 3.05 0.65
-7 6 8 3.03 0.61
-8 7 6 2.66 0.56
-7 -6 -8 2.47 0.48
6 8 -7 3.19 0.49
-6 -8 -7 2.27 0.44
-8 -7 -6 1.77 0.45
8 7 -6 2.86 0.42
-8 7 -6 2.39 0.59
6 8 7 2.49 0.5
6 8 7 2.13 0.61
-7 -6 8 2.84 0.55
-8 -7 6 2.91 0.53
7 6 8 2.28 0.57
8 7 6 2.56 0.4
-8 7 -6 3.07 0.62
-6 -8 7 2.64 0.55
6 -8 -7 2.72 0.22
-7 8 0 13.4 0.74
7 8 0 13.15 0.86
7 8 0 13.19 0.67
8 0 -7 12.97 0.65
-7 -8 0 13.29 0.83
7 8 0 13.5 0.68
-7 8 0 12.45 0.73
0 -7 -8 12.89 0.62
0 7 8 12.58 0.8
-1 7 8 4.57 0.59
7 8 -1 5.41 0.51
-7 8 1 4.64 0.56
-7 -8 -1 4.69 0.56
8 1 -7 4.93 0.48
-1 -7 -8 5.09 0.43
-8 -1 -7 5.62 0.62
-7 8 1 5.56 0.59
7 8 -1 5.12 0.62
7 8 -1 4.55 0.46
7 8 1 4.98 0.48
8 -1 -7 4.51 0.59
1 -7 -8 4.78 0.36
-7 8 -1 5.16 0.57
1 7 8 4.94 0.6
8 1 7 4.49 0.57
7 8 1 5.02 0.66
-7 8 -1 4.83 0.57
-7 -8 1 4.76 0.57
7 8 1 5.13 0.48
-7 8 2 -0.36 0.35
-2 7 8 0.32 0.38
7 8 -2 0.25 0.3
-7 -8 -2 -0.11 0.31
7 8 -2 -0.08 0.26
-8 -2 -7 0.16 0.32
-2 -7 -8 -0.22 0.22
-7 8 2 0.24 0.4
-7 8 -2 0.51 0.37
-2 -7 8 0.37 0.33
8 2 7 -0.14 0.43
-7 -8 2 -0.49 0.32
-7 8 -2 0.49 0.41
7 8 2 -0.08 0.4
7 8 2 0.31 0.3
8 -2 -7 0.25 0.17
2 7 8 0.2 0.26
2 7 8 -0.48 0.34
7 8 2 0.11 0.3
7 8 -3 1.52 0.38
-8 -3 -7 2.13 0.44
-7 8 3 1.65 0.46
-3 -7 -8 1.57 0.35
-3 7 8 1.33 0.49
-7 8 3 1.29 0.46
-7 -8 -3 1.68 0.41
7 8 -3 1.6 0.34
3 -7 -8 1.75 0.21
7 8 3 1.06 0.36
3 7 8 2.09 0.44
-7 8 -3 1.41 0.45
-3 -7 8 1.77 0.41
8 3 7 2.01 0.52
-7 -8 3 2.02 0.46
-8 -3 7 1.64 0.27
-7 8 -3 1.65 0.46
7 8 3 2.84 0.53
8 -3 -7 1.96 0.26
-4 -7 -8 34.78 1.36
-7 -8 -4 34.41 1.43
7 8 -4 36.06 1.24
-8 -4 -7 35.12 1.45
-7 8 4 34.7 1.32
-4 7 8 35.79 1.42
7 8 -4 34.9 1.29
8 4 7 36.43 1.5
8 -4 -7 35.03 1.03
-8 -4 7 35.37 1.23
-7 8 -4 34.44 1.36
7 8 4 35.21 1.26
7 8 4 36.01 1.47
-7 8 -4 35.59 1.39
4 7 8 34.7 1.37
4 7 8 33.01 1.32
-7 -8 4 34.59 1.44
-4 -7 8 35.38 1.41
-7 8 5 -0.17 0.46
-7 -8 -5 0.08 0.36
7 8 -5 -0.42 0.33
-8 -5 -7 0.29 0.34
-8 5 7 0.4 0.4
-5 7 8 0.14 0.51
-5 -7 -8 -0.34 0.29
7 8 5 -0.1 0.5
-7 8 -5 -0.17 0.52
8 -5 -7 0.13 0.1
-8 -5 7 -0.02 0.34
7 8 5 0.15 0.32
5 7 8 -0.01 0.35
-5 -7 8 0.22 0.43
5 7 8 1.08 0.46
-7 -8 5 -0.13 0.42
-7 8 -5 0.04 0.48
5 -7 -8 0.31 0.14
-8 -6 -7 1.98 0.47
-8 6 7 2.69 0.55
7 8 -6 2.28 0.44
-6 7 8 2.46 0.62
-7 -8 -6 1.94 0.47
-7 8 6 1.97 0.57
-6 -7 -8 2.37 0.44
7 8 6 2.02 0.42
-7 8 -6 1.65 0.6
8 -6 -7 2.19 0.12
6 7 8 2.32 0.6
-6 -7 8 1.81 0.53
7 8 6 1.49 0.59
6 -7 -8 2.61 0.21
-7 -8 6 2.34 0.56
-8 -6 7 1.83 0.53
-7 8 -6 3.19 0.69
6 7 8 3.13 0.52
-8 -7 -7 7.99 0.89
-7 7 8 9.19 0.89
-8 7 7 8.94 0.87
-7 -8 -7 8.39 0.78
8 7 -7 9.22 0.66
-7 -7 -8 9.12 0.81
7 8 -7 8.93 0.71
-7 8 7 7.87 0.86
-7 -8 7 9.88 0.95
7 -8 -7 8.68 0.32
7 -7 -8 8.68 0.32
7 7 8 9.26 0.69
7 7 8 8.66 1.13
-8 -7 7 9.35 0.88
7 8 7 8.16 0.67
7 8 7 8.94 1.07
-7 8 -7 9.62 0.97
-7 -7 8 10.19 0.86
8 7 7 9.44 0.67
-8 -8 0 11.46 0.84
-8 8 0 11.43 0.73
-8 8 0 10.03 0.77
0 -8 -8 11.56 0.61
0 8 8 11.27 0.85
8 8 0 10.95 0.62
8 8 0 10.97 0.59
-8 -8 -1 0.44 0.36
-1 8 8 0.27 0.48
-1 -8 -8 0.24 0.2
-8 -1 -8 0.24 0.35
8 8 -1 0.02 0.27
8 8 -1 0.14 0.26
-8 8 1 0.3 0.42
-8 8 1 -0.03 0.38
-8 8 -1 0.3 0.41
1 -8 -8 0.57 0.19
-8 -8 1 0.33 0.38
1 8 8 0.21 0.4
-8 8 -1 0.08 0.35
8 8 1 0.24 0.28
8 8 1 0.66 0.29
-8 -8 -2 83.72 2.79
8 8 -2 85.67 2.52
8 8 -2 87.73 2.54
-2 8 8 85.55 2.76
-8 -2 -8 83.88 2.75
-2 -8 -8 84.95 2.64
-8 8 2 85.71 2.6
-8 8 2 85.56 2.62
-8 8 -2 86.4 2.62
2 -8 -8 86.67 2.5
-8 8 -2 84.48 2.6
-2 -8 8 85.76 2.77
2 8 8 86.59 2.74
2 8 8 86.48 2.47
-8 -8 2 83.93 2.76
8 8 2 85.26 2.53
8 8 2 88.18 2.52
-8 -8 -3 291.57 8.23
-8 -3 -8 296.2 8.22
-8 8 3 297.76 8.02
-3 8 8 295.89 8.17
8 8 -3 299.37 7.98
8 8 -3 290.88 7.94
-3 -8 -8 291.14 8.12
-8 -3 8 297.6 7.85
3 -8 -8 294.87 7.89
-8 8 -3 292.19 8.03
-3 -8 8 296.39 8.21
3 8 8 293.66 8.14
-8 -8 3 290.85 8.17
-8 8 -3 296.5 8.02
8 8 3 293.31 7.96
-8 -8 -4 1.35 0.45
8 8 -4 0.56 0.3
-8 -4 -8 0.42 0.39
-4 8 8 0.82 0.62
8 8 -4 0.68 0.34
-8 8 4 0.32 0.46
-4 -8 -8 0.5 0.36
-4 -8 8 0.97 0.49
4 -8 -8 0.78 0.17
-8 8 -4 0.88 0.51
-8 -8 4 0.02 0.47
4 8 8 0.63 0.47
4 8 8 0.58 0.44
-8 -4 8 0.77 0.3
-8 8 -4 0.4 0.55
8 8 4 0.34 0.32
-8 -8 -5 2.85 0.56
8 8 -5 2.84 0.44
-8 -5 -8 3.15 0.58
-5 8 8 3.07 0.74
-8 8 5 3.01 0.57
-5 -8 -8 2.97 0.48
-5 -8 8 3.14 0.66
5 -8 -8 2.53 0.31
-8 8 -5 2.75 0.59
-8 -8 5 3.13 0.61
5 8 8 3.14 0.55
5 8 8 3.45 0.61
-8 -5 8 2.74 0.48
-8 8 -5 2.72 0.69
8 8 5 2.58 0.39
-8 -8 -6 1.19 0.53
6 8 -8 1.12 0.42
-8 -6 -8 0.93 0.5
-6 8 8 0.59 0.68
-6 -8 -8 0.63 0.39
-8 6 8 1.29 0.55
8 8 -6 0.71 0.36
-8 8 6 0.91 0.59
-8 8 -6 0.74 0.6
-8 -6 8 0.07 0.43
6 -8 -8 0.62 0.16
-6 -8 8 1.2 0.54
6 8 8 0.1 0.52
6 8 8 0.44 0.57
-8 -8 6 1.26 0.58
-8 8 -6 0.12 0.57
8 8 6 0.5 0.36
-8 -8 -7 16.69 1.18
-8 -7 -8 19.44 1.2
-7 8 8 18.03 1.18
8 8 -7 19.17 0.91
-8 7 8 20.12 1.17
8 7 -8 19.04 0.9
-8 8 7 19.01 1.16
-7 -8 -8 18.65 1.12
7 8 -8 21.04 1.03
-8 -7 8 18.54 1.12
7 -8 -8 18.1 0.58
-7 -8 8 18.89 1.18
-8 8 -7 18.14 1.17
7 8 8 17.31 1.19
8 -8 -7 17.99 0.54
-8 -8 7 18.4 1.19
-8 8 -7 17.27 1.27
8 8 7 18.5 0.93
-8 -8 -8 201.94 6.05
8 8 -8 216.36 5.77
-8 8 8 199.02 6.04
8 -8 -8 196.16 5.35
-8 8 -8 205.91 5.88
-8 -8 8 207.05 5.89
-9 0 0 77.92 2.22
0 -9 0 76.6 2.34
0 0 9 78.43 2.28
0 9 0 71.62 2.35
0 9 0 77.63 2.38
9 0 0 77.35 2.32
9 -1 0 16.63 0.76
9 1 0 16.33 0.8
0 9 1 17.06 0.8
0 9 1 16.48 0.86
0 9 -1 16.78 0.86
0 -9 1 16.26 0.77
0 9 -1 14.79 0.82
0 -9 -1 15.96 0.74
-9 -1 0 17.16 0.71
-1 0 9 16.95 0.7
-2 0 9 40.94 1.3
9 2 0 44.5 1.5
2 0 9 42.54 1.46
9 -2 0 43.37 1.41
0 9 -2 42.73 1.52
0 9 2 40.32 1.49
0 9 2 41.02 1.5
0 -9 2 43.77 1.49
0 9 -2 40.63 1.49
-9 -2 0 43.54 1.42
0 -9 -2 42.53 1.42
-2 0 9 42.12 1.3
9 -3 0 49.12 1.59
3 0 9 49.27 1.69
0 9 3 49.18 1.71
0 9 -3 49.14 1.73
-9 -3 0 50.68 1.66
-9 3 0 49.73 1.41
-3 0 9 49.92 1.45
-3 0 9 51.03 1.45
0 -9 -3 50.11 1.62
0 9 -3 51.63 1.71
9 3 0 52.18 1.71
0 9 3 49.62 1.71
0 9 -4 148.82 4.17
4 0 9 152.26 4.18
9 -4 0 145.64 4.03
9 4 0 141.53 3.84
9 4 0 146.66 4.18
-9 -4 0 146.12 4.14
-9 4 0 145.65 3.9
-4 0 9 123.4 3.76
0 -9 -4 144.88 4.07
0 9 -4 141.92 4.17
0 9 4 146.85 4.18
0 9 4 149.82 4.18
0 9 -5 125.21 3.71
0 -9 -5 125.03 3.6
-9 -5 0 123.99 3.71
9 5 0 125.54 3.41
9 5 0 133.46 3.77
9 5 0 124.63 3.4
0 9 5 124.5 3.71
5 0 9 130.16 3.75
-9 5 0 121.99 3.48
9 -5 0 127.8 3.57
-9 5 0 126.38 3.48
0 9 -6 1.19 0.45
9 -6 0 0.89 0.28
6 0 9 1.6 0.49
-9 6 0 0.95 0.29
-9 6 0 0.94 0.31
-9 -6 0 0.91 0.35
9 6 0 0.99 0.22
0 9 6 1.05 0.45
9 6 0 1.04 0.23
0 -9 -6 1.18 0.21
9 7 0 53.39 1.58
0 9 7 52.01 1.89
0 -9 -7 51.39 1.68
9 7 0 52.37 1.59
-9 7 0 50.88 1.67
-9 -7 0 51.92 1.88
-9 7 0 52.01 1.68
-9 8 0 4.05 0.59
-9 -8 0 4.45 0.67
9 8 0 5.03 0.44
9 8 0 4.49 0.43
0 -9 -8 3.38 0.39
-9 8 0 4.45 0.54
-1 9 0 16.41 0.83
1 -9 0 16.71 0.73
9 0 -1 15.76 0.74
-1 -9 0 16.23 0.78
-9 0 1 17.28 0.63
-1 9 0 16.15 0.86
1 9 0 16.63 0.84
1 9 0 15.48 0.83
9 0 1 15.55 0.77
0 1 9 16.96 0.71
-9 0 -1 16.68 0.7
-1 9 1 17.01 0.88
-1 9 1 18.67 0.92
-1 1 9 19.59 0.72
9 -1 1 19.5 0.86
9 1 -1 17.88 0.83
1 -1 9 18.68 0.85
-9 -1 -1 19.48 0.81
-1 -9 -1 18.74 0.82
1 9 -1 19.87 0.92
1 9 -1 19.75 0.86
9 1 1 19.26 0.87
1 -9 -1 19.91 0.8
1 9 1 18.26 0.9
9 -1 -1 18.95 0.8
-9 -1 1 19.72 0.75
-1 9 -1 18.98 0.86
1 1 9 18.91 0.82
-1 -9 1 17.87 0.84
1 9 1 18.32 0.89
-1 -1 9 19.71 0.81
-1 9 -1 19.64 0.93
-2 1 9 30.96 0.95
-1 -9 -2 30.22 1.13
1 9 -2 31.78 1.24
-1 9 2 30.79 1.19
-1 9 2 30.43 1.23
9 2 -1 31.98 1.17
1 9 -2 30.21 1.2
9 -2 1 31.94 1.13
-9 -2 -1 30.83 1.14
-2 1 9 31.78 0.96
2 -1 9 32.11 1.22
1 -9 -2 31.1 1.1
-1 -9 2 29.52 1.2
-9 2 -1 31.57 0.88
-1 9 -2 31.47 1.23
-1 9 -2 29.74 1.22
-2 -1 9 31.55 1.06
-9 -2 1 31.84 1.1
-2 -1 9 30.35 1.07
9 -2 -1 30.67 1.09
1 9 2 29.79 1.2
2 1 9 32.07 1.18
9 2 1 29.95 1.18
1 9 2 30.44 1.21
9 3 -1 16.65 0.83
-9 3 1 16.78 0.56
-1 -9 -3 17.11 0.77
9 -3 1 17.42 0.79
-3 -1 -9 17.56 0.81
3 -1 9 17.67 0.87
-9 -3 -1 17.7 0.83
-1 9 3 16.14 0.87
-1 9 3 15.66 0.85
9 3 -1 16.32 0.48
1 9 -3 17.82 0.85
1 9 -3 16.26 0.86
-9 -3 1 17.62 0.78
1 9 3 16.8 0.87
-3 -1 9 16.71 0.68
1 9 3 16.32 0.86
-3 -1 9 17.55 0.67
-1 -9 3 16.65 0.84
3 1 9 17.56 0.87
-9 3 -1 16.65 0.57
1 -9 -3 17.08 0.72
9 -3 -1 17.68 0.73
9 3 1 16.83 0.89
-9 3 -1 16.76 0.58
-1 9 -3 16.98 0.9
-1 9 -3 16.93 0.88
9 4 -1 1.73 0.39
-9 4 1 1.69 0.24
-9 -4 -1 1.57 0.34
9 4 -1 1.26 0.16
-1 9 4 1.39 0.44
-1 9 4 1.13 0.45
1 9 -4 2.08 0.48
1 9 -4 1.35 0.44
-4 -1 -9 1.33 0.34
4 -1 9 1.68 0.44
-1 -9 -4 1.81 0.3
9 -4 1 1.58 0.33
-1 9 -4 1.52 0.44
4 1 9 1.76 0.45
-9 4 -1 1.22 0.25
9 -4 -1 2.05 0.31
1 -9 -4 0.95 0.21
1 9 4 1.29 0.44
-4 -1 9 1.48 0.23
1 9 4 1.41 0.38
-9 -4 1 1.59 0.32
-9 4 -1 1.43 0.25
-1 -9 4 1.63 0.34
-1 9 -4 1.69 0.48
-4 -1 9 1.57 0.21
9 4 1 1.45 0.41
9 4 1 1.62 0.19
-9 5 1 40.85 1.29
-5 -1 -9 40.61 1.53
-1 9 5 40.8 1.53
9 -5 1 41.99 1.42
9 5 -1 40.79 1.22
-1 -9 -5 42.36 1.43
9 5 -1 41.51 1.23
-9 -5 -1 40.54 1.52
5 -1 9 42.97 1.59
9 5 -1 44.14 1.56
1 9 -5 40.36 1.52
-1 -9 5 40.15 1.54
5 1 9 45.39 1.57
-9 5 -1 41.7 1.31
9 5 1 40.58 1.23
-5 -1 9 41.68 1.19
-1 9 -5 42.02 1.55
9 -5 -1 42.22 1.35
1 9 5 40.24 1.52
1 -9 -5 41.54 1.36
-9 5 -1 41.21 1.3
-9 -5 1 41.7 1.5
-1 -9 -6 1.11 0.25
9 6 -1 1.56 0.26
9 6 -1 1.53 0.24
1 9 -6 0.73 0.42
-6 -1 -9 1.21 0.37
-9 6 1 1.31 0.32
6 -1 9 1.71 0.48
-9 -6 -1 1.06 0.39
-9 6 1 0.56 0.28
9 -6 1 1.08 0.33
-1 9 6 0.87 0.44
-9 -6 1 0.5 0.39
1 -9 -6 1.02 0.21
1 9 6 1.13 0.38
9 6 1 1.3 0.23
-9 6 -1 0.98 0.32
-1 9 -6 1.47 0.41
9 -6 -1 0.94 0.26
-1 -9 6 1.65 0.38
6 1 9 1.36 0.5
-9 6 -1 1.13 0.33
-9 7 1 1.38 0.39
-9 -7 -1 1.86 0.47
-9 7 1 0.85 0.36
9 7 -1 1 0.26
-1 9 7 0.76 0.52
9 7 -1 1.11 0.27
-1 -9 -7 0.88 0.26
1 9 -7 1.19 0.5
1 9 7 0.86 0.47
1 -9 -7 1.23 0.22
9 7 1 1.03 0.27
7 1 9 1.16 0.62
-1 -9 7 0.98 0.41
-9 -7 1 0.88 0.41
-9 7 -1 1.13 0.38
9 7 1 0.96 0.25
-9 7 -1 0.33 0.37
-1 -9 -8 23.02 0.96
9 8 -1 21.93 0.87
9 8 -1 23.66 0.88
-9 8 1 21.67 1
-1 9 8 20.65 1.46
-9 -8 -1 21.67 1.2
-9 8 1 20.87 1.04
1 -9 -8 23.28 0.89
9 8 1 22.79 0.87
-9 -8 1 24.61 1.21
-9 8 -1 22.49 1.04
1 9 8 17.44 1.33
-1 -9 8 20.95 1.15
9 8 1 23 0.88
-9 8 -1 23.51 1.03
-2 9 0 41.77 1.49
-9 0 -2 43.65 1.41
0 -2 -9 43.49 1.4
0 -2 9 43.98 1.47
9 0 -2 43.27 1.41
-2 9 0 41.03 1.51
2 9 0 41.5 1.49
9 0 -2 42.83 1.16
9 0 2 42.81 1.48
0 2 9 42.53 1.32
-2 -9 0 40.7 1.47
2 9 0 40.58 1.46
-9 0 -2 41.49 1.13
-9 0 -2 42.14 1.13
2 9 -1 30.63 1.18
9 1 -2 31.53 0.85
9 1 -2 30.8 1.14
-9 -1 -2 30.91 0.83
2 9 -1 29.77 1.2
-2 -9 -1 30.3 1.17
-2 9 1 30.58 1.21
-2 9 1 32.58 1.24
9 -1 2 31.2 1.19
1 -2 9 31.47 1.21
-1 -2 -9 30.64 1.12
-1 2 9 31.06 0.96
-9 -1 -2 32.48 1.15
9 -1 -2 31.67 0.9
-2 9 -1 31.06 1.23
2 9 1 30.2 1.18
-1 -2 9 30.2 1.25
2 9 1 30.06 1.19
-9 1 -2 31.64 0.89
9 1 2 30.5 1.19
-2 9 -1 31.42 1.22
9 -1 -2 31.84 1.1
1 2 9 30.61 1.09
-9 -1 2 30.84 1.01
-2 -9 1 29.85 1.18
-9 1 -2 31.15 0.88
-9 -2 -2 64.02 2.04
2 -2 9 64.24 2.07
-9 -2 -2 65.31 1.73
-2 -2 -9 64.03 2.03
9 2 -2 65.03 2.03
2 9 -2 65.22 2.06
2 9 -2 62.37 2.06
-2 9 2 67.25 2.1
-2 9 2 66.12 2.09
9 -2 2 69.01 2.05
9 2 -2 62.12 1.73
-2 -9 -2 64.8 2.05
9 -2 -2 65.6 1.8
-2 -9 2 65.72 2.11
-9 2 -2 61.38 1.73
2 9 2 62.79 2.05
2 -9 -2 63.59 1.94
-9 -2 2 64.42 1.93
9 2 2 63.73 2.08
-2 9 -2 63.4 2.08
-9 2 -2 64.72 1.78
2 9 2 60.92 2.05
-2 -2 9 65.26 1.98
-2 9 -2 64.14 2.09
-9 -3 -2 0.84 0.21
9 3 -2 0.98 0.34
9 3 -2 0.82 0.15
-9 3 2 0.85 0.18
-2 -9 -3 0.44 0.25
-2 9 3 0.86 0.41
2 9 -3 0.72 0.4
2 9 -3 1.04 0.41
3 -2 9 0.68 0.37
-2 9 3 0.83 0.4
9 -3 2 1.36 0.35
-3 -2 -9 0.57 0.28
-9 -3 -2 0.81 0.31
2 9 3 0.22 0.38
-3 -2 9 1.4 0.3
-3 -2 9 0.83 0.24
2 9 3 1.22 0.39
9 3 2 0.33 0.34
-2 -9 3 0.96 0.35
9 -3 -2 1.22 0.24
-2 9 -3 0.75 0.37
3 2 9 0.67 0.33
9 -3 -2 0.74 0.24
-9 -3 2 0.69 0.26
-2 9 -3 1.36 0.46
-9 3 -2 1.03 0.19
2 -9 -3 0.85 0.21
-9 3 -2 1.06 0.22
9 4 -2 75.6 2.35
4 -2 9 74.81 2.37
-4 -2 -9 72.69 2.33
2 9 -4 74.77 2.34
-2 -9 -4 73.89 2.29
-9 4 2 73.74 2.07
9 4 -2 72.46 2.03
-2 9 4 74.53 2.36
9 4 -2 72.71 2
-2 9 4 72.53 2.33
-9 -4 -2 71.12 2.32
9 -4 2 74.85 2.27
2 9 -4 70.21 2.3
-2 -9 4 72.72 2.38
9 4 2 74.84 2.38
2 9 4 72.8 2.32
-4 -2 9 73.69 2.14
-9 4 -2 70.41 2.07
-9 -4 2 73.45 2.27
-9 4 -2 71.99 2.09
-2 9 -4 75.12 2.34
-2 9 -4 70.9 2.34
2 -9 -4 75.45 2.17
4 2 9 74.19 2.31
-4 -2 9 74.04 2.15
2 9 4 74.09 2.32
9 -4 -2 73.43 2.13
-5 -2 -9 0.61 0.29
2 9 -5 1.15 0.41
-9 5 2 0.8 0.27
-2 9 5 0.68 0.42
9 5 -2 0.82 0.19
9 5 -2 0.94 0.22
-2 -9 -5 0.58 0.26
5 -2 9 1.02 0.4
9 -5 2 0.57 0.31
9 5 -2 0.69 0.41
-9 -5 -2 0.62 0.37
-9 5 -2 0.89 0.28
-9 -5 2 0.75 0.32
-9 5 -2 0.91 0.28
-5 -2 9 0.89 0.25
2 9 5 0.82 0.37
2 -9 -5 0.68 0.16
-2 -9 5 0.54 0.31
9 -5 -2 0.66 0.22
-2 9 -5 1.3 0.45
-5 -2 9 0.79 0.21
9 5 2 0.91 0.21
9 6 -2 1.84 0.49
2 9 -6 2.01 0.47
6 -2 9 1.15 0.47
-2 -9 -6 1.44 0.3
-9 6 2 1.6 0.47
9 6 -2 1.26 0.27
9 -6 2 1.1 0.34
-6 -2 -9 1.63 0.4
9 6 -2 1.22 0.25
-2 9 6 0.91 0.46
-9 -6 -2 1.01 0.41
-2 -9 6 0.55 0.36
-9 6 -2 0.99 0.32
-9 -6 2 0.59 0.36
-9 6 -2 0.95 0.32
-2 9 -6 1.34 0.48
9 6 2 1.39 0.26
6 2 9 0.72 0.47
2 -9 -6 0.57 0.19
-6 -2 9 0.83 0.22
-6 -2 9 0.75 0.19
9 -6 -2 1.02 0.33
2 9 6 0.7 0.33
-2 9 7 26.4 1.28
-9 7 2 26.9 1.03
9 7 -2 25.54 0.93
-9 -7 -2 24.83 1.24
-2 -9 -7 25.53 1.07
-7 -2 -9 24.94 1.18
9 7 -2 26.52 0.93
2 9 -7 26.08 1.21
9 -7 2 25.93 1.08
9 7 2 26.09 0.93
-9 7 -2 26.03 1.04
-2 9 -7 25.89 1.27
-7 -2 9 25.86 0.85
2 9 7 26.37 1.21
-2 -9 7 25.37 1.2
2 -9 -7 26.03 0.93
-9 7 -2 25.84 1.05
-9 -7 2 25 1.19
7 2 9 26.23 1.32
-2 -9 -8 0.81 0.26
-8 -2 -9 0.62 0.47
9 8 -2 0.75 0.3
9 8 -2 0.84 0.31
-9 -8 -2 0.86 0.5
-2 9 8 0.51 0.82
-9 8 2 1.41 0.45
-9 -8 2 0.89 0.51
2 9 8 0.99 0.62
-9 8 -2 1.71 0.49
-2 -9 8 1.16 0.51
2 -9 -8 1.21 0.23
9 8 2 0.99 0.34
-9 8 -2 0.35 0.45
9 0 3 50.04 1.72
-3 9 0 49.34 1.72
0 -3 -9 50.37 1.62
-9 0 -3 50.16 1.43
0 -3 9 51.75 1.7
3 9 0 48.08 1.68
9 0 -3 49.04 1.6
9 0 -3 51.09 1.43
-9 0 -3 53.72 1.67
-3 -9 0 51.74 1.73
0 3 9 50.19 1.49
-3 9 0 49.91 1.71
3 9 0 51.69 1.69
-9 -1 -3 17.05 0.59
-3 9 1 17.48 0.87
3 9 -1 16.65 0.85
3 9 -1 16.45 0.83
-1 -3 -9 16.68 0.74
9 -1 3 17.63 0.84
-3 -9 -1 16.57 0.82
-9 -1 -3 17.66 0.83
-1 3 9 17.15 0.54
1 -3 9 18.1 0.87
-3 9 1 16.78 0.87
9 1 -3 17.25 0.78
3 9 1 15.69 0.82
9 1 3 16.33 0.86
-3 9 -1 15.67 0.86
3 9 1 16.06 0.82
9 -1 -3 17.16 0.72
9 -1 -3 16.99 0.59
-9 1 -3 16.9 0.48
-9 -1 3 17.28 0.62
-3 9 -1 16.08 0.87
-3 -9 1 16.63 0.84
-1 -3 9 17.72 0.84
1 3 9 16.63 0.7
1 -3 -9 15.59 0.7
2 -3 9 0.81 0.37
-3 9 2 0.36 0.4
-3 -9 -2 0.58 0.31
3 9 -2 1.16 0.39
-2 -3 -9 0.41 0.27
9 2 -3 0.41 0.28
-3 9 2 0.98 0.43
3 9 -2 0.45 0.37
-9 -2 -3 0.77 0.32
9 -2 3 1.32 0.36
2 3 9 0.72 0.31
-3 9 -2 0.48 0.4
9 -2 -3 0.59 0.22
3 9 2 0.33 0.36
3 9 2 0.95 0.37
-3 9 -2 0.68 0.39
-9 2 -3 0.91 0.17
-2 -3 9 0.9 0.34
9 2 3 0.93 0.36
2 -3 -9 1.03 0.2
-3 -9 2 0.35 0.3
9 -2 -3 1.05 0.16
-9 -2 3 0.5 0.22
-9 2 -3 1.08 0.23
9 -2 -3 0.57 0.22
9 -3 3 102.25 3.04
9 3 -3 104.35 3.05
-3 -9 -3 102.24 3.07
-9 3 3 101.43 2.78
-9 -3 -3 102.27 3.07
-3 9 3 104.15 3.07
-3 9 3 102.26 3.08
-3 -3 -9 99.52 3.05
3 9 -3 102.67 3.04
3 9 -3 101.45 3.05
9 3 -3 104.51 2.72
3 -3 9 101.67 3.09
3 3 9 102.78 3
3 9 3 101.81 3.03
-3 9 -3 101.61 3.06
-9 -3 3 101.95 2.94
-9 3 -3 102.46 2.83
-9 3 -3 98.84 2.79
9 -3 -3 103.52 2.86
-3 -9 3 99.16 3.1
3 -9 -3 100.36 2.89
-3 9 -3 102.48 3.08
9 3 3 101.6 3.09
3 9 3 98.21 3.02
-3 -3 9 105.81 3.07
-3 9 4 20.74 0.98
3 9 -4 20.83 1
-9 -4 -3 19.93 0.98
9 4 -3 20.87 0.67
9 -4 3 21.52 0.96
-3 9 4 21.24 1.06
9 4 -3 21.26 1
-9 4 3 20.36 0.74
-4 -3 -9 21.38 0.96
-3 -9 -4 20.01 0.93
4 -3 9 21.99 1.04
3 9 -4 21.02 0.97
-9 4 -3 20.45 0.78
4 3 9 20.34 0.99
3 -9 -4 20.47 0.76
-3 -9 4 21.86 1.02
3 9 4 19.89 0.95
3 9 4 21.45 0.96
-9 -4 3 20.32 0.89
-3 9 -4 19.72 1
9 -4 -3 20.72 0.74
-4 -3 9 21.39 0.88
-9 4 -3 20.5 0.76
-3 9 -4 20.47 1.03
-4 -3 9 20.56 0.84
9 5 -3 55.46 1.64
-3 -9 -5 55.85 1.89
-3 9 5 57.89 1.95
-9 5 3 57.84 1.71
-5 -3 -9 56.7 1.95
-9 -5 -3 56.84 1.98
9 -5 3 57.21 1.88
5 -3 9 59.51 2.02
9 5 -3 59.33 1.97
9 5 -3 58.48 1.69
3 9 -5 54.97 1.91
5 3 9 58.9 1.95
9 -5 -3 57.3 1.67
-3 -9 5 57.51 1.98
-9 5 -3 57.14 1.75
-9 5 -3 56.86 1.74
9 5 3 57.69 1.69
-5 -3 9 57.97 1.77
3 9 5 59.08 1.93
-9 -5 3 58.54 1.89
-3 9 -5 57.24 1.95
-3 9 -5 48.58 2.07
3 -9 -5 56.77 1.71
9 6 -3 1.95 0.31
3 9 -6 1.89 0.47
-9 6 3 2.46 0.37
9 -6 3 1.82 0.45
9 6 -3 3.14 0.34
-3 9 6 1.81 0.57
-3 -9 -6 1.63 0.33
9 6 -3 2.26 0.5
-9 -6 -3 1.33 0.42
-6 -3 -9 1.67 0.41
-9 6 -3 1.71 0.37
9 6 3 1.69 0.28
-3 -9 6 1.52 0.42
-9 6 -3 1.59 0.37
-3 9 -6 2.25 0.58
9 -6 -3 1.81 0.24
3 9 6 1.81 0.44
3 9 6 1.15 0.43
-6 -3 9 1.59 0.28
6 3 9 1.66 0.48
3 -9 -6 2.01 0.24
-9 -6 3 1.76 0.42
3 9 -7 25.81 1.15
9 7 -3 24.96 0.93
-3 -9 -7 23.26 1.06
9 7 -3 24.83 0.9
-9 -7 -3 23.71 1.23
-9 7 3 25.16 1.02
-3 9 7 24.67 1.28
9 -7 3 24 1.07
-7 -3 -9 24.5 1.16
9 7 3 24.93 0.92
-3 -9 7 24.86 1.21
3 -9 -7 23.66 0.86
-9 -7 3 23.94 1.15
-9 7 -3 24.68 1.03
3 9 7 23.13 1.16
7 3 9 24.06 1.3
-7 -3 9 26.04 0.9
-7 -3 9 25.62 0.91
-3 9 -7 24.54 1.3
-9 7 -3 24.73 1.04
-9 -8 -3 37.34 1.63
-3 -9 -8 38.14 1.46
-9 8 3 37.34 1.42
9 8 -3 38.42 1.29
9 8 -3 41.16 1.34
-8 -3 -9 38.5 1.6
-3 9 8 35.41 1.67
3 -9 -8 37.9 1.23
3 9 8 36.2 1.59
9 8 3 38.59 1.31
-9 -8 3 38.54 1.63
-9 8 -3 36.64 1.45
-8 -3 9 39.82 1.19
-9 8 -3 37.47 1.44
-3 -9 8 37.9 1.66
-8 -3 9 39.03 1.2
0 4 9 142.77 3.94
4 9 0 145.66 4.17
4 9 0 144.41 4.15
-9 0 -4 143.69 3.88
9 0 -4 145.32 4.08
9 0 -4 146.28 3.97
-4 9 0 147.34 4.2
-4 9 0 147.22 4.21
-4 -9 0 145.36 4.26
-9 0 -4 147.2 4.19
9 0 -4 145.83 3.88
9 0 4 151.35 4.26
0 -4 9 150.82 4.2
0 -4 -9 149.9 4.13
-1 -4 -9 1.64 0.29
9 -1 4 1.69 0.43
-9 -1 -4 0.7 0.32
-4 9 1 1.3 0.44
9 1 -4 1.5 0.32
-4 9 1 1.26 0.4
9 1 -4 1.57 0.18
4 9 -1 0.94 0.36
4 9 -1 1.58 0.39
-4 -9 -1 1.52 0.35
1 -4 9 1.48 0.4
-9 -1 -4 1.63 0.19
9 1 4 1.72 0.42
-4 -9 1 1.67 0.37
1 4 9 0.96 0.25
9 -1 -4 1.23 0.43
-4 9 -1 1.04 0.41
1 -4 -9 1.43 0.25
4 9 1 1.49 0.39
4 9 1 0.84 0.37
9 -1 -4 1.72 0.18
-4 9 -1 1.25 0.47
9 -1 -4 1.7 0.25
-4 9 2 74.14 2.31
9 -2 4 74.27 2.33
-4 -9 -2 72.96 2.34
9 2 -4 72.93 1.99
9 2 -4 71.09 1.99
9 2 -4 75.15 2.27
-9 -2 -4 73.55 2.33
2 -4 9 73.5 2.34
4 9 -2 70.36 2.25
-4 9 2 72.86 2.32
-2 -4 -9 72.25 2.28
4 9 -2 75.78 2.31
-9 -2 -4 74.23 1.98
-4 9 -2 72.08 2.3
-4 -9 2 72.15 2.35
4 9 2 72.96 2.27
-4 9 -2 72.28 2.31
9 -2 -4 74.16 2.12
-9 2 -4 69.57 2.03
-9 -2 4 72.73 2.1
9 2 4 75.08 2.36
4 9 2 75.29 2.28
2 -4 -9 71.73 2.14
2 4 9 71.87 2.18
-2 -4 9 73.93 2.28
4 9 -3 23.36 0.99
-4 9 3 20.96 0.99
-4 -9 -3 21.73 0.97
9 3 -4 22.17 0.98
9 -3 4 20.59 0.99
-4 9 3 19.95 1.01
-9 -3 -4 19.86 0.97
3 -4 9 21.9 1.03
-9 -3 -4 21.24 0.69
9 3 -4 20.99 0.68
4 9 -3 21.03 0.94
-3 -4 -9 20.5 0.94
4 9 3 21.58 0.95
4 9 3 22.12 1.03
3 -4 -9 20.79 0.75
-4 9 -3 21.07 1.02
-3 -4 9 19.89 0.9
-4 -9 3 21.29 1.02
-9 3 -4 20.17 0.74
3 4 9 20.4 0.93
4 9 3 20.3 0.95
-9 -3 4 20.51 0.84
9 -3 -4 20.33 0.75
-4 9 -3 20.35 0.99
-4 -4 -9 145.99 4.28
4 -4 9 146.18 4.29
9 4 -4 152.32 4.26
9 4 -4 142.81 3.96
9 -4 4 147.77 4.24
4 9 -4 147.81 4.23
-9 4 4 145.87 4.01
4 9 -4 144.88 4.2
-4 -9 -4 144.12 4.27
-9 -4 -4 139.2 4.28
-4 9 4 145.04 4.24
-9 -4 -4 146.26 3.95
9 -4 -4 141.06 3.97
-9 4 -4 142.95 4.02
-9 -4 4 148.96 4.15
-4 9 -4 142.58 4.24
4 9 4 150.94 4.22
4 9 4 149.41 4.22
-9 4 -4 145.81 4.06
4 9 4 151.24 4.23
4 4 9 150.51 4.21
-4 9 -4 143.02 4.29
-4 -4 9 165.56 4.2
4 -9 -4 145.15 4.02
4 -4 -9 147.82 4.01
-4 -9 4 146.81 4.32
-4 -9 -5 0.97 0.31
-9 5 4 1.23 0.31
-5 -4 -9 1.05 0.35
9 5 -4 1.38 0.24
9 5 -4 0.85 0.42
-9 -5 -4 0.47 0.34
5 -4 9 0.86 0.44
4 9 -5 0.91 0.38
9 -5 4 1.49 0.39
-9 -5 -4 1.32 0.4
-4 9 5 1.09 0.5
4 9 5 0.62 0.35
-4 9 -5 1.21 0.52
-9 5 -4 1.56 0.34
9 -5 -4 1.6 0.21
5 4 9 1.24 0.49
4 -9 -5 1.25 0.19
-4 -9 5 1.31 0.39
-9 -5 4 1.54 0.35
-9 5 -4 0.93 0.33
9 5 4 0.82 0.52
-5 -4 9 0.48 0.3
9 5 4 1.19 0.27
-4 9 -5 1.37 0.54
9 6 -4 4.91 0.64
9 6 -4 4.06 0.39
-6 -4 -9 4.43 0.57
4 9 -6 5.04 0.61
-9 -6 -4 4.15 0.6
-9 6 4 4.33 0.49
9 -6 4 5.24 0.57
-4 9 6 5.29 0.7
-4 -9 -6 4.53 0.49
4 9 6 5.46 0.61
6 4 9 5.06 0.65
4 -9 -6 5.12 0.32
-9 -6 4 4.76 0.62
4 9 6 5.43 0.7
-9 6 -4 4.94 0.53
9 6 4 4.35 0.42
9 -6 -4 4.76 0.32
-6 -4 9 4.91 0.52
-4 9 -6 4.64 0.71
-4 -9 6 5.17 0.64
-9 6 -4 5.22 0.56
9 7 -4 21.52 0.84
9 7 -4 22.81 0.89
-9 -7 -4 22.15 1.22
-4 -9 -7 20.27 1.01
4 9 -7 22.28 1.07
-9 7 4 20.99 0.96
-4 9 7 21.81 1.25
-7 -4 -9 21.09 1.11
9 -7 4 21.15 1.06
4 -9 -7 21.64 0.75
-4 9 -7 19.62 1.27
-7 -4 9 21.73 0.91
-4 -9 7 20.85 1.2
-9 7 -4 20.37 0.99
4 9 7 21.64 1.06
-9 7 -4 21.49 1.02
4 9 7 22.46 1.13
-9 -7 4 21.69 1.12
7 4 9 23.47 1.44
9 7 4 21.36 0.87
9 8 -4 12.6 0.69
-4 9 8 11.93 1.08
-4 -9 -8 12.22 0.79
-8 -4 -9 10.92 0.91
9 8 -4 10.61 0.63
-9 -8 -4 12.3 0.98
-9 8 4 11.19 0.81
4 9 8 11.08 0.91
-9 8 -4 11.29 0.9
-9 -8 4 11.38 0.95
-4 -9 8 11.87 0.97
4 9 8 12.51 0.93
4 -9 -8 12.9 0.51
-9 8 -4 12.1 0.85
-8 -4 9 12.02 0.69
9 8 4 12.59 0.67
0 -5 -9 127.25 3.6
-5 9 0 124.3 3.65
-5 -9 0 125.63 3.75
0 5 9 121.19 3.69
5 9 0 128.79 3.63
9 0 5 131.72 3.75
-5 9 0 126.12 3.67
5 9 0 122 3.6
9 0 -5 125.63 3.55
5 9 -1 40.71 1.44
-5 9 1 43.1 1.5
-5 -9 -1 39.98 1.54
9 -1 5 40.84 1.54
-9 -1 -5 41.08 1.5
9 1 -5 41.4 1.4
-5 9 1 41.07 1.51
-1 5 9 40.15 1.51
-9 -1 -5 41.89 1.22
5 9 -1 41.13 1.45
-1 -5 -9 41.1 1.42
-5 9 -1 41.84 1.49
-5 9 -1 38.81 1.49
9 -1 -5 40.73 1.35
1 5 9 42.57 1.53
1 5 9 41.17 1.28
5 9 1 42.03 1.45
-5 -9 1 41.08 1.54
5 9 1 42.85 1.56
5 9 1 43.1 1.46
1 -5 -9 42.64 1.36
9 2 -5 0.65 0.31
-9 -2 -5 1.05 0.25
-5 -9 -2 0.34 0.31
5 9 -2 0.31 0.35
9 -2 5 1.21 0.39
5 9 -2 0.29 0.36
-9 -2 -5 0.58 0.35
-5 9 2 0.79 0.42
-5 9 2 0.45 0.45
-2 -5 -9 0.58 0.27
2 -5 9 0.59 0.39
-2 5 9 0.88 0.4
2 5 9 0.53 0.28
-9 -2 5 0.64 0.18
2 5 9 0.87 0.37
5 9 2 1.08 0.36
5 9 2 1.42 0.44
9 -2 -5 0.81 0.21
-5 -9 2 0.46 0.3
5 9 2 0.25 0.37
2 -5 -9 0.65 0.17
-2 -5 9 1 0.33
-5 9 -2 0.74 0.39
-5 9 -2 0.43 0.46
5 9 -3 56.99 1.84
5 9 -3 56.09 1.87
-9 -3 -5 56.8 1.97
-5 9 3 55.89 1.89
-3 -5 -9 56.48 1.9
-9 -3 -5 55.75 1.64
-5 -9 -3 58.59 1.97
-5 9 3 56.41 1.94
9 -3 5 56.68 1.94
-3 5 9 59.3 1.93
9 3 -5 56.62 1.88
3 -5 9 54.93 1.93
3 5 9 50.47 2.27
3 5 9 58.03 1.91
5 9 3 59.04 1.95
9 -3 -5 57.31 1.66
-3 -5 9 58.4 1.9
5 9 3 58.63 1.87
-5 9 -3 56.04 1.91
-5 9 -3 53.84 1.91
-5 -9 3 55.15 1.95
3 -5 -9 57.17 1.69
-9 -3 5 58.4 1.73
5 9 3 54.81 1.84
5 9 -4 1.46 0.42
-5 -9 -4 1.3 0.36
-9 4 5 1.27 0.3
-9 -4 -5 0.49 0.36
5 9 -4 1.32 0.44
9 4 -5 1.24 0.38
4 -5 9 0.64 0.45
-4 -5 -9 0.94 0.33
-4 5 9 1.35 0.46
9 -4 5 1.05 0.4
9 4 -5 1.46 0.26
-5 9 4 0.81 0.52
-5 9 4 1.06 0.46
-9 -4 -5 0.82 0.33
5 9 4 1.13 0.38
-9 -4 5 1.19 0.32
-5 -9 4 1.04 0.38
-9 4 -5 1.32 0.33
4 -5 -9 0.73 0.16
4 5 9 1.24 0.4
-5 9 -4 1.29 0.47
-4 -5 9 1.23 0.38
5 9 4 1.42 0.4
5 9 4 0.86 0.46
9 4 5 1.32 0.56
9 -4 -5 1.21 0.19
9 5 -5 0.03 0.41
-5 -9 -5 0.03 0.28
-9 -5 -5 0.53 0.39
-5 9 5 0.25 0.5
9 -5 5 0.12 0.38
5 9 -5 0.29 0.36
-5 5 9 -0.07 0.48
-9 5 5 -0.04 0.3
-5 -5 -9 0.6 0.31
9 5 -5 0.34 0.24
5 5 9 -0.07 0.46
-9 5 -5 -0.09 0.35
5 -9 -5 0.26 0.16
-5 9 -5 0.44 0.54
5 9 5 0.24 0.35
-5 -9 5 0.92 0.43
5 9 5 0.98 0.49
9 -5 -5 0.04 0.14
-9 5 -5 0.32 0.33
-9 -5 5 -0.12 0.34
-5 9 -5 0.06 0.51
-5 -5 9 0.04 0.33
9 6 -5 5.28 0.71
5 9 -6 5.7 0.67
-9 -6 -5 4.79 0.65
-5 -9 -6 4.87 0.54
-5 9 6 6.05 0.75
9 6 -5 4.82 0.44
9 -6 5 5.41 0.72
-6 -5 -9 5.06 0.6
-9 6 5 5.19 0.58
-5 9 -6 5.28 0.79
9 6 5 6.29 0.47
-9 -6 5 6.02 0.7
6 5 9 5.8 0.67
9 -6 -5 5.34 0.29
-9 6 -5 5.43 0.62
-6 -5 9 5.61 0.66
-9 6 -5 5.6 0.67
-5 -9 6 5.68 0.74
-5 9 -6 5.69 0.74
5 9 6 6.09 0.76
5 9 6 5.43 0.61
-5 9 7 25.38 1.36
-9 -7 -5 26.03 1.32
-9 7 5 25.82 1.11
-5 -9 -7 25.33 1.21
9 7 -5 28.45 1.01
-7 -5 -9 25.69 1.29
5 9 -7 25.91 1.18
5 9 7 26.27 1.21
5 9 7 29.09 1.3
9 7 5 26.98 1.03
9 -7 -5 25.54 0.82
-7 -5 9 25.63 1.13
-9 -7 5 27.15 1.29
-5 -9 7 26.77 1.37
-9 7 -5 27.06 1.14
-9 7 -5 26.56 1.19
9 8 -5 4.7 0.58
9 8 -5 4.29 0.46
-5 9 8 4.12 0.8
-9 8 5 5.56 0.68
-5 -9 -8 4.56 0.61
-9 -8 -5 4.99 0.76
-8 -5 -9 3.97 0.68
9 8 5 4.55 0.49
5 9 8 5.5 0.72
-5 -9 8 4.33 0.75
-9 8 -5 4.29 0.89
-9 -8 5 4.17 0.7
-9 8 -5 5 0.67
5 -9 -8 4.03 0.31
-5 9 -8 5.05 0.8
-8 -5 9 4.14 0.52
5 9 8 4.76 0.68
-6 9 0 0.78 0.4
0 -6 -9 0.86 0.2
0 6 9 0.85 0.44
6 9 0 1.53 0.49
6 9 0 1.06 0.37
9 0 -6 0.75 0.27
6 9 0 0.5 0.32
-6 9 0 0.7 0.47
-6 -9 0 1.01 0.38
6 9 -1 1.25 0.37
6 9 -1 1.47 0.43
-6 9 1 0.96 0.51
-9 -1 -6 1.01 0.37
-6 -9 -1 1.05 0.35
-1 6 9 1.21 0.46
9 1 -6 1.4 0.33
-1 -6 -9 1.54 0.28
-6 9 1 1.09 0.41
-9 -1 -6 1.32 0.33
-6 9 -1 1.11 0.46
1 6 9 1.05 0.45
-6 -9 1 1.31 0.38
-6 9 -1 0.81 0.42
6 9 1 0.95 0.36
1 -6 -9 1.24 0.24
1 6 9 1.36 0.22
6 9 1 1.26 0.38
9 -1 -6 1.12 0.27
6 9 1 1.56 0.52
-2 -6 -9 1.23 0.28
6 9 -2 0.82 0.38
-6 -9 -2 0.55 0.33
-9 -2 -6 1.11 0.4
9 2 -6 1.24 0.34
6 9 -2 0.98 0.39
-6 9 2 0.89 0.48
-2 6 9 0.91 0.48
-6 9 2 1.11 0.46
9 -2 6 -0.16 0.36
-9 -2 -6 1.33 0.43
-6 -9 2 0.38 0.35
6 9 2 0.97 0.49
-6 9 -2 1.16 0.46
6 9 2 0.61 0.34
-6 9 -2 0.54 0.49
-2 -6 9 0.58 0.35
-9 -2 6 1.05 0.21
2 6 9 0.44 0.4
9 -2 -6 1.28 0.25
6 9 2 0.69 0.33
2 6 9 1.47 0.33
2 -6 -9 1.29 0.2
9 -3 6 2.04 0.47
-3 6 9 2.29 0.57
6 9 -3 1.68 0.41
-9 -3 -6 1.45 0.42
6 9 -3 1.63 0.44
-3 -6 -9 1.77 0.33
-6 -9 -3 2.38 0.44
-6 9 3 1.9 0.51
9 3 -6 1.64 0.42
9 -3 -6 1.89 0.24
-6 9 -3 1.95 0.52
3 -6 -9 1.63 0.22
3 6 9 1.19 0.43
3 6 9 1.62 0.46
-9 -3 6 1.99 0.28
-6 -9 3 1.66 0.44
6 9 3 2.4 0.41
6 9 3 1.7 0.4
-6 9 -3 2.04 0.57
-3 -6 9 2.05 0.44
6 9 3 1.67 0.54
6 9 -4 5.44 0.61
-4 -6 -9 5.58 0.53
-6 9 4 4.69 0.64
-4 6 9 5.82 0.73
-6 -9 -4 4.81 0.57
6 9 -4 4.25 0.53
9 -4 6 5.89 0.7
-9 -4 -6 5.24 0.64
9 4 -6 5.04 0.64
4 -6 -9 4.21 0.32
4 6 9 4.9 0.6
-6 9 -4 5.13 0.67
6 9 4 4.79 0.56
6 9 4 5.17 0.66
-6 -9 4 4.79 0.62
-4 -6 9 5.11 0.67
4 6 9 4.55 0.55
-9 -4 6 4.75 0.5
9 -4 -6 5.17 0.31
6 9 -5 6.22 0.58
-9 5 6 5.71 0.58
9 5 -6 5.39 0.65
-5 -6 -9 4.71 0.56
-9 -5 -6 5.57 0.71
9 5 -6 5.51 0.47
-6 -9 -5 4.63 0.58
6 9 -5 6.05 0.74
-6 9 5 5.7 0.7
-5 6 9 6.05 0.75
5 6 9 5.92 0.68
6 9 5 6.44 0.58
6 9 5 6.91 0.79
5 6 9 6.09 0.62
5 -6 -9 5.9 0.4
-6 -9 5 5.85 0.68
-6 9 -5 5.94 0.79
9 -5 -6 6.03 0.3
-9 -5 6 4.62 0.6
-6 9 -5 6.55 0.74
-5 -6 9 5.63 0.7
-6 -6 -9 8.88 0.7
-6 -9 -6 7.88 0.68
6 9 -6 6.48 0.64
-6 9 6 9.74 0.92
9 6 -6 8.17 0.55
-9 6 6 7.94 0.69
-9 -6 -6 9.17 0.86
-6 6 9 9.38 0.86
-9 -6 6 8.04 0.79
6 -9 -6 7.84 0.4
-6 9 -6 8.34 0.97
-9 6 -6 8.11 0.73
-6 9 -6 8.34 0.96
-6 -6 9 6.44 0.76
-9 6 -6 8.57 0.79
6 9 6 8.43 0.67
9 -6 -6 8.64 0.33
6 -6 -9 8.57 0.38
6 9 6 7.96 0.89
-6 -9 6 7.2 0.86
6 6 9 9.06 0.89
-6 -9 -7 0.8 0.41
-9 -7 -6 0.81 0.55
-7 6 9 0.78 0.58
-6 9 7 1.04 0.73
-9 7 6 1.03 0.52
-7 -6 -9 1.84 0.52
9 7 -6 0.55 0.34
6 9 -7 1.47 0.46
9 7 6 1.1 0.35
-9 7 -6 1.35 0.56
9 -7 -6 1.27 0.15
-9 7 -6 1.6 0.56
-9 -7 6 1.4 0.56
6 9 7 0.27 0.57
6 9 7 0.84 0.51
6 -9 -7 1.15 0.19
-6 -9 7 1.11 0.57
-6 9 -7 1.87 0.73
-7 -6 9 1.12 0.49
-6 9 8 4.96 0.83
-9 8 6 4.83 0.67
9 8 -6 4.78 0.53
-6 -9 -8 4.56 0.67
9 8 6 5.9 0.58
6 9 8 4.51 0.8
-9 -8 6 5.27 1.19
6 -9 -8 4.93 0.35
-6 9 -8 3.99 0.83
6 9 8 5.38 0.7
-9 8 -6 5.48 0.76
-8 -6 9 3.61 0.59
-6 -9 8 5.6 0.81
-9 8 -6 4.62 0.69
0 7 9 50.62 1.88
-7 9 0 51.53 1.79
7 9 0 53.08 1.7
9 0 -7 52.35 1.66
0 -7 -9 51.4 1.68
-7 9 0 49.94 1.76
-7 -9 0 50.97 1.87
7 9 0 52.46 1.7
-7 -9 -1 0.84 0.39
-9 -1 -7 0.63 0.39
-1 -7 -9 0.9 0.23
-7 9 1 0.44 0.5
-1 7 9 1.09 0.57
-7 9 1 0.27 0.44
7 9 -1 0.49 0.31
7 9 -1 0.56 0.39
9 1 -7 0.64 0.32
7 9 1 0.5 0.55
-7 9 -1 0.9 0.48
7 9 1 0.81 0.31
-7 -9 1 0.74 0.37
1 7 9 0.94 0.51
-7 9 -1 0.06 0.53
1 -7 -9 0.81 0.19
9 -1 -7 1.13 0.27
7 9 1 0.99 0.36
-2 -7 -9 23.58 1.03
-2 7 9 25.28 1.27
-7 -9 -2 26.12 1.2
-9 -2 -7 24.65 1.19
-7 9 2 25.18 1.32
9 2 -7 25.96 1.08
7 9 -2 26.69 1.04
-7 9 2 25.3 1.17
7 9 -2 25.54 1.02
-7 -9 2 25.54 1.24
7 9 2 24.87 1.02
-7 9 -2 26.06 1.19
7 9 2 25.48 1.34
2 7 9 27.36 1.23
-2 -7 9 26.02 1.19
-7 9 -2 26.26 1.15
2 -7 -9 24.11 0.91
7 9 2 27.19 1.05
2 7 9 26.33 0.96
7 9 -3 24.43 1.01
-7 9 3 21.47 1.36
7 9 -3 26.03 1.05
-7 -9 -3 24.25 1.16
-3 -7 -9 24.2 1.06
9 3 -7 25.58 1.1
-3 7 9 27.64 1.29
-7 9 3 25.45 1.15
-9 -3 -7 24.43 1.19
3 -7 -9 25.18 0.88
-7 9 -3 25.54 1.16
-7 -9 3 25.42 1.26
3 7 9 24.01 1.18
9 -3 -7 24.56 0.85
-7 9 -3 23.26 1.39
7 9 3 24.94 1.26
-3 -7 9 26.27 1.24
-9 -3 7 26.15 0.88
7 9 3 24.64 1.02
7 9 3 25.56 1.03
7 9 -4 20.64 0.93
-4 -7 -9 21.69 1.05
-7 -9 -4 22.26 1.14
7 9 -4 22 1.04
-7 9 4 21.47 1.08
-4 7 9 20.31 1.2
-9 -4 -7 21.76 1.21
4 7 9 20.25 1.06
-7 9 -4 21.19 1.12
-4 -7 9 20.85 1.13
-7 -9 4 21.48 1.21
7 9 4 21.53 0.97
7 9 4 19.33 1.5
4 7 9 23.53 1.12
-9 -4 7 21.71 0.9
-7 9 -4 21.32 1.18
9 -4 -7 21.35 0.71
4 -7 -9 21.68 0.75
-9 -5 -7 25.7 1.31
7 9 -5 25.36 1.15
-5 -7 -9 26.6 1.19
-5 7 9 28.14 1.36
-7 9 5 26.8 1.29
7 9 -5 26.32 1.09
-7 -9 -5 23.76 1.23
7 9 5 25.63 1.09
-5 -7 9 26.94 1.28
5 7 9 27.16 1.22
9 -5 -7 25.42 0.79
5 7 9 26.3 1.26
-7 9 -5 26.36 1.33
-7 -9 5 25.19 1.3
-7 9 -5 25.46 1.26
-9 -5 7 24.33 1.11
-6 7 9 1.18 0.68
-9 6 7 0.89 0.5
-6 -7 -9 1.27 0.41
-7 9 6 1.24 0.62
-9 -6 -7 0.45 0.54
9 6 -7 0.75 0.35
-7 -9 -6 2.03 0.52
7 9 -6 1.4 0.43
-6 -7 9 1.28 0.53
6 7 9 0.93 0.68
9 -6 -7 1.23 0.13
6 7 9 1.38 0.59
7 -9 -6 1.1 0.17
6 -7 -9 1.43 0.19
-9 -6 7 1.29 0.49
-7 9 -6 1.11 0.62
7 9 6 1.27 0.43
-7 -9 6 0.57 0.56
-7 9 -6 1.02 0.69
9 7 -7 16.66 0.82
7 9 -7 17.16 0.92
-9 7 7 17.72 1.03
-7 -7 -9 15.03 1.07
-7 -9 -7 17.54 1.11
-7 7 9 18.45 1.25
7 9 7 13.53 1.47
-7 9 -7 17.35 1.27
-9 7 -7 16.75 1.27
-7 9 -7 15.01 1.11
7 -9 -7 16.93 0.57
-7 -9 7 15.24 1.17
7 -7 -9 16.87 0.55
-7 -7 9 15.28 1.07
9 -7 -7 17.55 0.48
-9 -7 7 17.33 1.06
-9 7 -7 15.79 1.11
-9 8 7 2.15 0.66
-8 -7 -9 3.23 0.72
-8 7 9 2.17 0.85
-7 9 8 2.21 0.71
9 8 -7 2.07 0.43
-7 -9 -8 2 0.64
-9 -8 -7 3.03 0.73
-7 -9 8 1.48 0.7
7 9 8 2.78 0.65
-8 -7 9 1.87 0.61
-7 9 -8 2.84 0.78
9 8 7 2.17 0.48
9 -8 -7 2.13 0.15
-9 8 -7 2.42 0.67
7 -9 -8 1.87 0.24
-9 -8 7 2.6 0.67
8 9 0 4.3 0.48
0 -8 -9 3.95 0.4
-8 9 0 4.12 0.72
-8 -9 0 3.32 0.56
-8 9 0 5.08 0.66
8 9 0 3.69 0.46
-9 -1 -8 24.33 1.19
-1 -8 -9 21 0.93
-8 9 1 21.79 1.1
-8 -9 -1 22.31 1.22
8 9 -1 22.02 0.93
-8 9 1 21.87 1.14
8 9 -1 23.92 0.95
-8 9 -1 22.48 1.13
-8 -9 1 22.32 1.2
8 9 1 23.18 0.92
1 -8 -9 21.35 0.86
8 9 1 21.08 0.92
-8 9 -1 23.5 1.13
-2 8 9 0.38 0.75
-2 -8 -9 0.48 0.25
-8 -9 -2 0.89 0.47
-9 -2 -8 0.87 0.49
8 9 -2 0.44 0.31
8 9 -2 0.37 0.35
-8 9 2 1.26 0.51
-8 -9 2 0.87 0.5
2 -8 -9 0.85 0.22
2 8 9 0.51 0.66
-2 -8 9 1.26 0.54
8 9 2 0.07 0.28
-8 9 -2 1.21 0.63
-8 9 -2 2.36 0.61
8 9 2 1.01 0.31
-8 9 3 37.75 1.46
8 9 -3 41.12 1.39
-9 -3 -8 36.09 1.59
-3 8 9 33.73 1.81
-3 -8 -9 36.92 1.42
8 9 -3 38.87 1.33
-8 -9 -3 37.02 1.6
-8 -9 3 36.51 1.59
3 8 9 36.73 1.48
8 9 3 37.25 1.34
3 8 9 35.93 1.58
3 -8 -9 37.34 1.21
-9 -3 8 39.2 1.15
-3 -8 9 36.52 1.62
-8 9 -3 37.37 1.47
-9 -4 -8 11.96 1.02
8 9 -4 12.67 0.76
-8 -9 -4 12.49 0.96
-4 8 9 12.83 1.11
8 9 -4 11.61 0.66
-8 9 4 12.42 0.89
-4 -8 -9 10.89 0.81
-9 -4 8 11.98 0.68
-8 9 -4 11.66 0.93
4 8 9 10.54 0.9
4 8 9 10.88 0.93
4 -8 -9 12.43 0.51
-4 -8 9 13.22 1.03
-8 9 -4 12.36 0.94
-8 -9 4 10.73 0.98
8 9 4 12.76 0.72
8 9 -5 4.09 0.48
8 9 -5 4.95 0.55
-5 -8 -9 3.74 0.57
-5 8 9 5.28 0.83
-8 9 5 4.19 0.7
-9 -5 -8 4.65 0.73
-8 -9 -5 3.98 0.71
-5 -8 9 4.36 0.74
5 -8 -9 3.37 0.31
-8 -9 5 3.4 0.74
-8 9 -5 4.55 0.73
8 9 5 4.29 0.53
-8 9 -5 4.18 0.74
5 8 9 4.74 0.71
5 8 9 4.46 0.71
-9 -5 8 4.01 0.52
-8 9 6 4.93 0.75
-6 -8 -9 5.85 0.75
8 9 -6 4.92 0.55
-6 8 9 6.1 0.87
-9 -6 -8 3.76 1.19
-8 -9 6 5.07 0.8
6 8 9 5.43 0.69
6 8 9 5.28 0.79
-9 -6 8 5.3 0.64
-6 -8 9 4.64 0.75
-8 9 -6 6.12 0.82
8 9 6 5.14 0.6
6 -8 -9 5.02 0.33
9 7 -8 1.88 0.44
-9 -7 -8 2.42 0.72
-9 7 8 2.31 0.67
-7 -8 -9 2.18 0.65
8 9 -7 2.8 0.55
-7 8 9 2.47 0.74
-8 -9 -7 2.27 0.69
7 8 9 2.24 0.56
7 -8 -9 1.94 0.24
-8 9 -7 2.24 0.79
-9 -7 8 2.53 0.61
-8 9 -7 4.18 0.74
8 -9 -7 1.91 0.21
-7 -8 9 2.18 0.7
-8 -9 7 2.84 0.77
-9 -8 -8 12.26 1.14
-8 9 8 11.56 1.05
9 8 -8 10.67 0.8
-8 -9 -8 10.55 1.13
-8 -8 -9 10.74 1.07
-8 8 9 10.86 1.05
-8 -8 9 10.59 1.11
-8 9 -8 12.23 1.11
-8 9 -8 11.27 1.06
-9 -8 8 12.56 1.11
8 -9 -8 10.52 0.39
-9 8 -8 10.98 1.06
8 9 8 12.56 0.9
-9 8 -8 12.03 1.12
-9 -9 0 0.38 0.57
-9 9 0 1.57 0.57
-9 9 0 0.95 0.69
0 -9 -9 1.66 0.33
0 9 9 1.58 0.63
9 9 0 1.28 0.34
9 9 0 1.21 0.32
-9 -9 -1 7.53 0.89
-1 9 9 6.61 0.87
9 9 -1 8.08 0.55
-9 9 1 7.89 0.82
-1 -9 -9 6.64 0.53
9 9 -1 7.07 0.56
-1 -9 9 7.62 0.91
-9 9 -1 6.9 0.81
-9 9 -1 9.04 1.01
1 -9 -9 8.12 0.5
-9 -9 1 6.67 0.82
1 9 9 7.59 0.93
9 9 1 7.38 0.56
9 9 1 7.62 0.56
-9 -9 -2 30.91 1.5
9 9 -2 30.67 1.14
-2 9 9 30.45 1.49
-9 -2 -9 30.7 1.47
-9 9 2 28.89 1.29
-9 9 2 31.63 1.34
-2 -9 -9 31.2 1.24
9 9 -2 30.07 1.12
-2 -9 9 31.06 1.48
-9 9 -2 30.6 1.34
2 -9 -9 30.89 1.09
2 9 9 29.73 1.46
-9 -9 2 29.64 1.47
9 9 2 31.14 1.14
9 9 2 30.09 1.11
-9 -9 -3 -0.89 0.45
-9 -3 -9 0.39 0.57
9 9 -3 0.25 0.34
-3 9 9 0.55 0.7
9 9 -3 0.21 0.28
-9 9 3 -0.46 0.47
-3 -9 -9 -0.22 0.3
-3 -9 9 -0.22 0.58
-9 9 -3 0.04 0.64
3 -9 -9 0.08 0.18
-9 9 -3 -0.22 0.51
3 9 9 0.01 0.56
3 9 9 -0.22 0.44
-9 -9 3 -0.25 0.58
9 9 3 0.53 0.3
9 9 -4 0.07 0.31
-4 9 9 -0.06 0.68
-4 -9 -9 0.22 0.34
9 9 -4 0.09 0.38
-9 9 4 -0.05 0.49
-4 -9 9 0.7 0.63
-9 -4 9 0.37 0.3
4 -9 -9 0.78 0.18
-9 9 -4 -0.2 0.54
4 9 9 0.33 0.55
4 9 9 0.74 0.55
-9 -9 4 -0.09 0.56
-9 9 -4 1.18 0.62
9 9 4 0.33 0.33
-9 -9 -5 66.43 2.53
-9 -5 -9 68.73 2.54
9 9 -5 69.02 2.23
5 9 -9 68.8 2.37
9 9 -5 69.85 2.18
-9 9 5 71.88 2.35
-5 -9 -9 67.74 2.42
-5 9 9 70.28 2.52
-5 -9 9 70.3 2.54
5 -9 -9 70.69 2.02
-9 9 -5 72.57 2.43
5 9 9 68.52 2.4
5 9 9 73.25 2.39
-9 -9 5 69.68 2.48
-9 9 -5 69.61 2.33
-9 -5 9 69.33 2.19
9 9 5 71.15 2.23
-9 -9 -6 0.81 0.59
6 9 -9 1.04 0.53
9 9 -6 0.98 0.37
-9 -6 -9 0.4 0.58
-6 9 9 0.84 0.72
9 9 -6 0.53 0.34
-9 9 6 0.2 0.65
-6 -9 9 1.26 0.7
6 -9 -9 0.23 0.3
-9 -9 6 0.04 0.63
-9 9 -6 0.4 0.82
6 9 9 0.59 0.51
6 9 9 -0.89 0.68
-9 -6 9 0.74 0.49
-9 9 -6 -0.17 0.55
9 9 6 0.6 0.43
-9 -9 -7 8.97 1.01
-9 -7 -9 8.63 1.04
-7 9 9 9.2 1.14
9 9 -7 8.12 0.72
7 9 -9 8.69 0.79
9 7 -9 9.33 0.78
-9 9 7 9.51 1.12
-7 -9 -9 9.77 1
7 -9 -9 8.83 0.4
-9 -7 9 8.54 0.94
-9 9 -7 8.21 0.97
-7 9 -9 10.16 1.11
7 9 9 8.36 0.83
9 -9 -7 7.18 0.32
-9 9 -7 8.43 1.02
9 9 7 7.5 0.92
-9 -9 -8 12.08 1.21
-9 -8 -9 13.17 1.3
-8 9 9 11.73 1.14
-9 8 9 13.22 1.1
8 9 -9 8.48 0.79
-9 9 8 11.94 1.11
-8 -9 -9 11.85 1.12
-8 -9 9 12.07 1.23
-9 8 -9 12.67 1.11
-8 9 -9 11.7 1.27
-9 9 -8 11.72 1.12
-9 -8 9 9.92 1.11
8 9 9 12.66 0.97
-9 -9 8 12.45 1.19
-9 9 -8 10.13 1.06
9 9 8 11.1 0.83
-9 -9 -9 50.12 2.17
9 9 -9 51.33 1.85
-9 9 9 52.53 2.07
-9 9 -9 51.57 2.1
-9 9 -9 51.34 2.09
-9 -9 9 53.46 2.17
0 -10 0 353.51 9.63
0 0 10 360.91 9.52
0 10 0 341.39 9.62
0 10 0 357.51 9.66
10 0 0 361.6 9.59
10 1 0 4.11 0.49
0 10 -1 3.94 0.58
0 10 1 3.02 0.5
0 10 1 3.83 0.58
1 0 10 3.5 0.44
10 -1 0 3.73 0.43
0 -10 1 3.36 0.44
0 10 -1 2.86 0.49
0 -10 -1 3.17 0.41
-1 0 10 3.65 0.44
-10 -1 0 4.75 0.42
-10 -2 0 7.85 0.55
0 10 -2 6.58 0.73
-2 0 10 7.79 0.43
-2 0 10 7.42 0.47
10 -2 0 8.29 0.58
10 2 0 9.47 0.7
0 -10 2 6.85 0.57
0 10 -2 8.22 0.69
2 0 10 7.93 0.69
0 10 2 7.61 0.6
0 10 2 6.83 0.74
0 -10 -2 7.76 0.5
10 -3 0 63.26 1.97
0 10 -3 63.66 2.09
0 10 -3 58.06 2.27
0 10 3 62.23 2.09
3 0 10 63.15 2.07
0 -10 3 61.57 2.08
-10 -3 0 63.91 2.02
10 3 0 65.49 2.1
-3 0 10 63.32 1.79
-3 0 10 64.39 1.79
0 -10 -3 63.51 2
-10 -4 0 0.39 0.33
0 10 4 0.82 0.43
10 -4 0 0.6 0.28
10 4 0 0.52 0.4
0 -10 -4 0.34 0.2
-10 4 0 0.42 0.2
4 0 10 0.44 0.43
0 -10 4 0.36 0.32
0 10 4 0.23 0.4
0 10 -4 0.81 0.46
0 10 -4 0.1 0.4
0 10 5 34.76 1.4
0 10 5 33.11 1.37
10 -5 0 34.7 1.23
0 10 -5 33.16 1.38
10 5 0 32.82 0.99
0 -10 -5 33.01 1.22
5 0 10 34.88 1.45
-10 -5 0 33.68 1.35
0 10 -5 32.66 1.37
-10 5 0 34.46 1.09
0 10 -6 53.9 2
-10 -6 0 56.29 1.99
10 6 0 55.7 1.6
10 6 0 56.03 1.58
-10 6 0 54.7 1.69
10 -6 0 56.17 1.79
0 10 6 55.68 2
6 0 10 55.06 2.04
0 -10 -6 54.38 1.78
-10 6 0 54.28 1.7
0 10 7 5.46 0.84
0 10 -7 5.94 0.82
0 -10 -7 6.62 0.46
10 7 0 6.77 0.42
-10 7 0 5.32 0.6
10 7 0 5.82 0.43
-10 -7 0 6.41 0.75
-10 7 0 5.83 0.59
10 -7 0 6.32 0.6
0 -10 -8 14.29 0.7
-10 -8 0 13.42 1.06
-10 8 0 13.06 0.84
0 10 8 13.89 0.97
10 8 0 13.16 0.62
0 10 -8 11.39 1.06
10 8 0 13.49 0.64
-10 8 0 14.41 0.87
10 -8 0 12.79 0.75
-10 -9 0 0.89 0.73
0 -10 -9 0.43 0.24
10 9 0 0.62 0.3
0 10 9 -0.07 0.68
10 9 0 0.39 0.31
-10 9 0 0.26 0.52
-1 -10 0 2.76 0.37
-1 10 0 3.01 0.56
10 0 -1 3.27 0.41
1 -10 0 2.72 0.37
10 0 1 3.9 0.49
1 10 0 2.63 0.55
-1 10 0 3.52 0.47
0 1 10 4.06 0.47
1 10 0 3.72 0.49
0 -1 10 4.03 0.47
-1 -10 -1 95.76 2.95
-1 10 1 101.45 3
-1 10 1 100.9 3.02
1 -10 1 99.16 2.97
1 10 -1 98.06 3
-1 1 10 97.85 2.77
1 -1 10 99.66 2.93
10 -1 1 97.33 2.93
10 1 -1 100.81 2.94
1 10 -1 93.69 2.96
-10 -1 -1 101.71 2.9
-1 10 -1 95.68 2.98
-10 -1 1 99.88 2.81
10 1 1 98.34 2.96
1 10 1 99.4 3
10 -1 -1 99.23 2.89
1 10 1 97.47 2.97
-1 -10 1 96.6 2.99
1 -10 -1 98.52 2.92
-1 -1 10 100.21 2.88
-1 10 -1 95.37 3.01
10 -2 1 0.45 0.31
10 2 -1 0.35 0.35
-1 10 2 0.37 0.4
1 10 -2 0.3 0.48
-1 -10 -2 0.21 0.21
2 -1 10 0.45 0.38
-10 -2 -1 0.04 0.29
-2 1 10 0.76 0.19
1 10 -2 0.62 0.33
-2 1 10 0.75 0.17
10 -2 -1 0.08 0.27
2 1 10 0.82 0.37
-1 -10 2 0.28 0.29
-10 -2 1 0.72 0.27
-1 10 -2 0.41 0.41
1 10 2 -0.14 0.39
1 10 2 0.18 0.45
-2 -1 10 0.49 0.25
1 -10 -2 0.04 0.19
-2 -1 10 1.03 0.28
10 2 1 0.66 0.35
-1 10 3 45.99 1.7
-1 -10 -3 46.79 1.61
-10 -3 -1 48.79 1.67
1 10 -3 48.84 1.67
-1 10 3 42.65 1.71
3 -1 10 46.85 1.71
-10 3 1 47.8 1.31
10 3 -1 48.95 1.69
10 -3 1 50.25 1.63
1 -10 -3 48 1.57
-10 3 -1 46.55 1.34
1 10 3 47.51 1.69
-3 -1 10 48.2 1.47
-10 -3 1 48.69 1.6
-1 10 -3 48.49 1.71
-3 -1 10 48.38 1.48
-1 -10 3 47.95 1.71
10 -3 -1 47.16 1.55
3 1 10 50.52 1.69
-1 10 -3 45.33 1.75
10 3 1 49.69 1.72
-1 -10 -4 4.23 0.45
1 10 -4 4.92 0.56
10 -4 1 4.96 0.53
1 10 -4 4.2 0.59
-10 4 1 4.71 0.33
10 4 -1 5.23 0.62
-1 10 4 4.93 0.62
-1 10 4 5.59 0.65
4 -1 10 5.22 0.61
-10 -4 -1 4.83 0.59
10 4 1 4.76 0.59
-10 4 -1 4.62 0.33
4 1 10 5.1 0.61
1 -10 -4 4.54 0.38
1 10 4 4.72 0.57
-1 -10 4 4.4 0.55
-10 -4 1 4.62 0.55
-4 -1 10 4.51 0.33
-10 4 -1 4.79 0.36
-1 10 -4 4.03 0.58
-4 -1 10 4.63 0.37
10 -4 -1 4.97 0.47
-1 10 -4 4.36 0.57
1 10 4 5.06 0.62
5 -1 10 10 0.89
10 5 -1 8.78 0.36
-1 -10 -5 9.2 0.57
10 5 -1 8.31 0.35
-10 -5 -1 8.66 0.72
-10 5 1 8.67 0.48
1 10 -5 9.02 0.74
-1 10 5 8.06 0.72
10 -5 1 8.71 0.63
10 5 -1 9.62 0.81
1 10 -5 8.35 0.75
-1 10 5 7.71 0.79
-10 5 -1 7.65 0.5
-1 -10 5 8.3 0.67
-10 5 -1 9.26 0.5
-1 10 -5 9.45 0.8
5 1 10 9.73 0.89
1 10 5 6.66 0.72
1 10 5 7.25 0.67
1 -10 -5 8.71 0.51
10 5 1 8.85 0.38
10 -5 -1 8.58 0.56
-1 10 -5 9.44 0.72
-10 -5 1 8.06 0.7
1 10 -6 3.09 0.6
10 6 -1 2.42 0.29
10 6 -1 2.51 0.27
10 -6 1 2.24 0.41
-10 6 1 2.45 0.37
-1 10 6 2.24 0.64
-10 -6 -1 2.54 0.53
-1 -10 -6 2.73 0.36
-10 6 -1 2.66 0.39
1 10 6 3.15 0.63
-1 10 -6 2.61 0.66
-1 -10 6 2.54 0.49
6 1 10 3.1 0.61
10 -6 -1 2.14 0.33
10 6 1 2.28 0.27
-10 -6 1 2.33 0.51
-10 6 -1 2.92 0.44
1 -10 -6 3.79 0.35
-1 -10 -7 20.18 0.92
10 7 -1 20.77 0.77
1 10 -7 19.22 1.32
10 -7 1 22.05 0.98
10 7 -1 20.29 0.76
-10 -7 -1 21.53 1.18
-10 7 1 20.92 0.9
-1 10 7 20.62 1.23
-1 10 -7 20.93 1.24
10 -7 -1 21.73 0.9
-10 7 -1 22.6 0.92
1 10 7 21.06 1.2
10 7 1 21.59 0.78
-10 7 -1 20.98 0.93
-1 -10 7 19.56 1.12
-10 -7 1 19.65 1.18
1 -10 -7 20.12 0.85
-1 -10 -8 4.42 0.46
-10 8 1 5.03 0.58
10 -8 1 4.56 0.5
10 8 -1 4.18 0.43
10 8 -1 3.65 0.41
-10 -8 -1 4.79 0.76
1 10 -8 4.43 0.76
-1 10 8 3.71 0.8
-10 8 1 4.64 0.61
-10 8 -1 5.26 0.6
-1 -10 8 4.11 0.71
-1 10 -8 4.27 0.77
1 -10 -8 4.8 0.41
-10 -8 1 5.21 0.75
10 -8 -1 4.2 0.53
-10 8 -1 5.31 0.63
10 8 1 3.47 0.44
1 10 8 4.2 0.79
-1 10 9 6.71 0.95
-1 -10 -9 6.64 0.58
-10 9 1 6.97 0.79
-10 9 1 7.01 0.83
10 9 -1 6.13 0.52
10 9 -1 6.04 0.51
1 10 -9 6.55 0.85
1 -10 -9 7.36 0.51
-10 -9 1 6.47 0.89
10 9 1 6.66 0.54
10 9 1 7.35 0.53
-10 9 -1 7.31 0.83
1 10 9 5.46 0.82
10 0 2 7.48 0.63
10 0 -2 7.4 0.58
2 10 0 7.26 0.61
-2 10 0 6.7 0.72
-2 -10 0 7.8 0.61
2 10 0 7.88 0.69
0 -2 10 7.72 0.65
-2 10 0 6.92 0.65
0 2 10 6.85 0.49
1 -2 10 0.65 0.38
-1 2 10 0.49 0.19
-2 -10 -1 0.29 0.27
2 10 -1 0.68 0.4
-10 -1 -2 0.15 0.28
-2 10 1 0.88 0.42
10 -1 2 0.42 0.34
-1 -2 -10 0.49 0.24
10 1 -2 0.32 0.31
-2 10 1 0.6 0.57
2 10 -1 0.27 0.37
2 10 1 0.89 0.44
2 -10 -1 0.36 0.22
-1 -2 10 0.43 0.33
-2 10 -1 0.22 0.56
-2 -10 1 0.59 0.28
-2 10 -1 0.74 0.43
2 10 1 0.37 0.38
10 1 2 0.59 0.35
1 2 10 0.5 0.3
-10 -1 2 0.76 0.21
10 -1 -2 0.16 0.26
-2 -10 -2 6.3 0.52
2 10 -2 6.48 0.7
2 -2 10 6.3 0.64
-10 -2 -2 6.45 0.6
2 10 -2 6.65 0.55
10 -2 2 6.09 0.62
10 2 -2 6.88 0.62
-2 10 2 5.55 0.64
-2 -2 -10 6.55 0.55
2 2 10 6.55 0.61
2 10 2 6.16 0.67
-2 -10 2 6.14 0.56
2 -10 -2 6.11 0.44
-2 10 -2 6.91 0.66
-10 2 -2 6.36 0.34
-2 -2 10 6.37 0.52
10 2 2 6.49 0.64
2 10 2 6.7 0.62
10 -2 -2 6.8 0.5
-10 -2 2 6.29 0.49
10 3 -2 1.03 0.12
2 10 -3 0.85 0.4
3 -2 10 0.44 0.41
10 -3 2 0.96 0.36
-2 -10 -3 0.8 0.25
-2 10 3 1.16 0.47
-3 -2 -10 1.56 0.33
10 3 -2 1.19 0.39
-10 -3 -2 1.09 0.37
-2 10 3 0.38 0.44
-2 -10 3 0.63 0.29
2 -10 -3 1.21 0.22
-3 -2 10 0.68 0.26
10 -3 -2 1.26 0.27
3 2 10 1.4 0.42
2 10 3 0.49 0.37
-3 -2 10 1.12 0.34
-2 10 -3 0.51 0.49
-10 3 -2 0.9 0.17
10 3 2 1.21 0.41
-10 3 -2 1.17 0.22
-10 -3 2 0.19 0.26
-2 10 -3 1.03 0.45
10 4 -2 3.97 0.52
10 4 -2 3.71 0.17
-2 -10 -4 3.11 0.41
-10 4 2 4.03 0.33
-4 -2 -10 3.85 0.47
2 10 -4 3.85 0.56
-2 10 4 4.07 0.59
10 4 -2 3.71 0.24
10 -4 2 3.53 0.48
-10 -4 -2 3.25 0.48
2 10 -4 3.82 0.55
4 -2 10 4.07 0.58
-2 10 4 4.22 0.6
4 2 10 3.91 0.55
10 -4 -2 3.13 0.4
-2 10 -4 3.32 0.56
-10 -4 2 3.31 0.44
-2 10 -4 4.09 0.6
-10 4 -2 3.65 0.36
-10 4 -2 3.65 0.35
-4 -2 10 3.37 0.39
-2 -10 4 3.93 0.52
-4 -2 10 3.61 0.4
2 10 4 3.54 0.55
2 10 4 4.18 0.56
2 -10 -4 3.65 0.33
2 10 -5 0.32 0.37
5 -2 10 0.99 0.49
-10 -5 -2 0.57 0.42
10 5 -2 0.09 0.17
10 5 -2 0.48 0.15
10 5 -2 0.47 0.46
10 -5 2 0.29 0.3
-10 5 2 -0.02 0.25
2 10 -5 0.82 0.45
-5 -2 -10 0.22 0.31
-2 -10 -5 0.44 0.3
-2 10 5 0.01 0.53
2 10 5 0.16 0.41
10 -5 -2 0.45 0.24
2 -10 -5 0.77 0.18
-2 -10 5 -0.22 0.34
-10 5 -2 0.38 0.27
-2 10 -5 0.72 0.5
-10 5 -2 0.15 0.27
-5 -2 10 0.38 0.24
-5 -2 10 0.37 0.21
10 5 2 0.45 0.18
-2 10 -5 0.63 0.5
5 2 10 0.26 0.42
-10 -5 2 -0.1 0.37
10 -6 2 3.47 0.46
10 6 -2 3.34 0.32
-2 -10 -6 2.92 0.42
2 10 -6 2.91 0.61
-2 10 6 3.6 0.69
-6 -2 -10 3.64 0.54
-10 -6 -2 2.45 0.53
-10 6 2 2.9 0.39
10 6 -2 3.08 0.34
-10 6 -2 3.65 0.43
-6 -2 10 2.74 0.34
-10 6 -2 3.54 0.45
-6 -2 10 2.74 0.3
6 2 10 4.17 0.68
-2 10 -6 3.02 0.73
-2 -10 6 2.94 0.54
10 -6 -2 3.18 0.35
2 -10 -6 4.17 0.34
2 10 6 2.98 0.62
10 6 2 3.06 0.34
-10 -6 2 3.06 0.56
-2 -10 -7 0.19 0.28
-7 -2 -10 0.13 0.4
-10 -7 -2 -0.19 0.52
-10 7 2 0.03 0.37
10 7 -2 -0.05 0.24
-2 10 7 -0.64 0.59
2 10 -7 0.99 0.73
10 7 -2 -0.03 0.21
10 -7 2 0.43 0.38
2 10 7 -0.08 0.57
-10 -7 2 -0.35 0.48
10 -7 -2 -0.18 0.24
-2 -10 7 0.47 0.49
10 7 2 0.17 0.23
-10 7 -2 0.3 0.41
2 -10 -7 0.12 0.17
-2 10 -7 0.89 0.67
-10 7 -2 0.39 0.38
-8 -2 -10 1.46 0.57
-10 8 2 1.87 0.5
10 -8 2 1.29 0.41
2 10 -8 1.46 0.65
10 8 -2 1.51 0.3
-2 -10 -8 1.43 0.33
10 8 -2 0.58 0.29
-10 -8 -2 0.79 0.59
-2 10 8 -0.36 0.65
-2 10 -8 0.56 0.67
2 10 8 0.35 0.65
10 -8 -2 1.19 0.3
2 -10 -8 0.83 0.22
-10 -8 2 0.94 0.59
-10 8 -2 0.9 0.49
-10 8 -2 1.7 0.53
10 8 2 1.6 0.29
-2 -10 8 0.38 0.56
-10 9 2 1.6 0.56
10 9 -2 2.59 0.39
-10 -9 -2 1.52 0.72
2 10 -9 2.61 0.72
-9 -2 -10 1.81 0.66
10 9 -2 1.78 0.36
-2 10 9 1.89 0.76
-2 -10 -9 2.27 0.41
-10 9 -2 2.07 0.58
-10 -9 2 1.69 0.67
2 10 9 2.28 0.72
10 9 2 1.69 0.37
-2 -10 9 2.49 0.89
10 0 -3 62.63 1.71
3 10 0 61.28 2.02
10 0 3 64.19 2.07
10 0 -3 63.77 1.95
-10 0 -3 61.5 1.7
0 3 10 61.73 1.81
3 10 0 61.47 2.05
-3 -10 0 62.67 2.08
-3 10 0 60.81 2.06
0 -3 10 62.25 2.04
0 -3 -10 61.6 1.95
-10 -1 -3 47.11 1.32
3 10 -1 46.72 1.65
3 10 -1 46.52 1.68
-1 -3 -10 47.08 1.61
-1 3 10 48.38 1.31
-3 10 1 47.26 1.69
1 -3 10 49.58 1.7
10 1 -3 48.62 1.6
10 1 -3 49.05 1.33
-10 -1 -3 48.11 1.65
10 -1 3 47.13 1.67
-3 -10 -1 46.73 1.68
-10 -1 3 48.87 1.4
1 -3 -10 46.87 1.54
10 -1 -3 48.36 1.36
10 1 3 49.2 1.72
3 10 1 47.06 1.65
-3 -10 1 44.17 1.67
3 10 1 48.09 1.69
1 3 10 46.76 1.5
-3 10 -1 48.26 1.69
-10 1 -3 47.57 1.36
10 -1 -3 46.93 1.54
-1 -3 10 50.69 1.66
-10 1 -3 47.16 1.35
-10 -2 -3 0.96 0.22
10 2 -3 0.58 0.32
3 10 -2 1.66 0.49
-3 10 2 0.65 0.53
10 -2 3 1.42 0.38
-2 -3 -10 0.62 0.29
-10 -2 -3 1.15 0.38
2 -3 10 1.54 0.45
3 10 -2 0.09 0.39
-3 -10 -2 0.87 0.31
-3 10 2 0.63 0.41
-3 10 -2 0.4 0.44
10 -2 -3 0.76 0.26
10 -2 -3 0.99 0.22
-3 -10 2 1.34 0.36
3 10 2 0.83 0.44
-2 -3 10 0.87 0.37
-10 -2 3 0.67 0.23
-10 2 -3 1.18 0.22
10 2 3 0.77 0.42
3 -10 -2 1.29 0.22
-10 2 -3 0.92 0.12
-3 10 -2 1.12 0.61
3 10 2 0.89 0.39
-2 -3 10 0.89 0.31
-3 10 3 0.14 0.43
10 3 -3 0.61 0.34
-3 10 3 -0.04 0.42
-3 -10 -3 0.39 0.25
10 -3 3 0.42 0.36
-10 -3 -3 0.29 0.37
3 -3 10 0.22 0.44
-3 -3 -10 -0.26 0.22
3 10 -3 0.24 0.36
3 10 3 -0.14 0.54
-3 10 -3 0.12 0.47
3 10 3 0.41 0.36
-10 3 -3 0.12 0.18
3 -10 -3 -0.12 0.15
3 3 10 -0.09 0.38
-3 10 -3 0.15 0.41
-3 -3 10 0.16 0.34
-10 3 -3 0.32 0.21
-3 -10 3 0.1 0.3
-10 -3 3 0.01 0.25
10 -3 -3 0.1 0.23
-3 -3 10 -0.06 0.24
-3 -10 -4 9.65 0.66
10 4 -3 10.38 0.45
4 -3 10 11.2 0.85
3 10 -4 10.28 0.74
-10 4 3 10.56 0.5
3 10 -4 12.53 0.8
-3 10 4 10.85 0.85
-4 -3 -10 10.46 0.68
10 -4 3 10.73 0.75
10 4 -3 10.8 0.81
-10 -4 -3 11.24 0.82
-3 10 4 10.78 0.87
-3 10 -4 10.9 0.88
3 10 4 9.66 0.75
-10 4 -3 10.41 0.52
3 -10 -4 10.94 0.52
4 3 10 10.96 0.83
-10 4 -3 10.57 0.54
-10 -4 3 10.88 0.68
3 10 4 10.11 0.75
-3 10 -4 9.6 0.85
-4 -3 10 11.76 0.64
-3 -10 4 10.67 0.78
10 -4 -3 10.01 0.63
-10 -5 -3 0.08 0.41
-3 10 5 0.51 0.5
-3 -10 -5 0.22 0.29
10 -5 3 0.34 0.34
3 10 -5 0 0.39
10 5 -3 0.51 0.43
10 5 -3 0.27 0.21
-10 5 3 0.78 0.28
3 10 -5 0.23 0.4
-5 -3 -10 0.38 0.3
10 5 -3 0.48 0.17
-5 -3 10 0.57 0.34
5 3 10 0.13 0.45
-10 5 -3 0.16 0.34
3 10 5 0.1 0.41
-3 10 -5 0.21 0.53
-3 -10 5 -0.12 0.33
3 -10 -5 0.13 0.16
-10 5 -3 0.07 0.27
-3 10 -5 0.44 0.58
-10 -5 3 0.42 0.37
-5 -3 10 0.21 0.27
-6 -3 -10 4.56 0.58
10 -6 3 5.7 0.66
-3 10 6 4.67 0.82
-10 6 3 5.81 0.52
10 6 -3 5.35 0.37
3 10 -6 4.86 0.68
-3 -10 -6 4.87 0.51
-10 -6 -3 5.07 0.71
10 6 -3 5.25 0.4
3 10 6 4.53 0.67
10 6 3 5.27 0.4
-10 6 -3 6.56 0.56
6 3 10 5.87 0.73
10 -6 -3 4.77 0.5
-6 -3 10 5.12 0.48
-10 -6 3 6.5 0.75
-3 -10 6 4.71 0.67
-10 6 -3 4.97 0.54
-3 10 -6 5.46 0.77
-6 -3 10 5.42 0.54
-3 -10 -7 39.17 1.51
10 7 -3 38.63 1.28
10 7 -3 39.86 1.25
-10 7 3 38.23 1.37
-7 -3 -10 39.79 1.62
-3 10 7 39.46 1.71
3 10 -7 33.4 1.75
10 -7 3 38.9 1.51
-10 -7 -3 39.02 1.67
-10 -7 3 38.15 1.61
3 -10 -7 39.81 1.28
-10 7 -3 39.68 1.41
-10 7 -3 39.33 1.42
-3 -10 7 36.86 1.65
-3 10 -7 40.37 1.7
10 -7 -3 39.54 1.28
10 7 3 40.2 1.29
3 10 7 40.92 1.64
-7 -3 10 40.01 1.25
-7 -3 10 40.01 1.26
-10 -8 -3 -0.81 0.57
10 8 -3 0.1 0.25
10 8 -3 -0.32 0.26
-3 -10 -8 0.12 0.3
-8 -3 -10 0.79 0.54
-3 10 8 -0.34 0.65
-10 8 3 0.17 0.46
3 10 -8 1.2 0.6
-3 -10 8 -0.17 0.56
10 -8 -3 -0.11 0.24
-10 8 -3 0.4 0.5
-10 8 -3 -0.02 0.47
3 10 8 -0.72 0.56
-8 -3 10 0.1 0.2
3 -10 -8 0.81 0.19
10 8 3 0.22 0.26
-3 10 -8 0.48 0.73
-10 -8 3 0.04 0.56
-10 -9 -3 7.43 0.98
10 9 -3 6.92 0.54
-3 10 9 6.83 0.97
-9 -3 -10 8.11 0.98
-3 -10 -9 7.08 0.62
10 9 -3 7.06 0.58
-10 9 3 7.62 0.83
3 10 -9 7.07 0.89
3 -10 -9 7.14 0.44
-3 10 -9 8.03 0.98
-10 -9 3 7.94 1
3 10 9 8.33 1
10 9 3 7.01 0.55
-10 9 -3 7.52 0.79
-3 -10 9 7.25 0.9
-10 9 -3 7.58 0.81
10 0 4 0.46 0.35
0 -4 10 0.5 0.44
4 10 0 0.07 0.34
4 10 0 0.4 0.41
10 0 -4 0.47 0.2
10 0 -4 0.76 0.28
-4 -10 0 1.18 0.35
0 -4 -10 0.41 0.21
-4 10 0 0.35 0.45
0 4 10 0.48 0.21
-10 -1 -4 4.4 0.58
4 10 -1 4.06 0.56
-4 10 1 4.36 0.66
-1 -4 -10 4.33 0.44
1 -4 10 4.92 0.61
10 -1 4 6.04 0.64
-4 10 1 4.93 0.6
-4 -10 -1 4.09 0.5
10 1 -4 4.7 0.52
4 10 -1 4.1 0.51
10 -1 -4 4.79 0.46
-4 -10 1 4.71 0.53
4 10 1 4.49 0.54
10 -1 -4 4.35 0.2
-1 -4 10 4.8 0.6
1 4 10 4.58 0.44
10 1 4 5.98 0.66
10 -1 -4 3.76 0.33
-4 10 -1 4.27 0.59
-4 10 -1 4.16 0.78
-10 1 -4 4.38 0.21
4 10 1 3.96 0.55
1 -4 -10 4.13 0.37
2 -4 10 4.88 0.62
-2 -4 -10 3.14 0.42
10 2 -4 4.41 0.56
-4 10 2 3.46 0.58
10 -2 4 3.91 0.54
4 10 -2 4.21 0.62
-4 10 2 3.18 0.6
4 10 -2 3.71 0.5
-10 -2 -4 3.73 0.51
-4 -10 -2 3.96 0.51
4 10 2 3.28 0.53
-2 -4 10 3.13 0.44
10 -2 -4 3 0.24
-4 -10 2 3.57 0.53
-2 -4 10 3.68 0.52
-10 2 -4 3.83 0.27
-4 10 -2 3.43 0.61
-10 -2 4 3.86 0.36
10 -2 -4 3.77 0.4
2 -4 -10 3.99 0.33
-4 10 -2 3.54 0.6
4 10 2 4.06 0.54
2 4 10 3.51 0.43
10 3 -4 10.33 0.36
-4 -10 -3 11.16 0.7
-4 10 3 10.53 0.84
-10 -3 -4 10.42 0.76
3 -4 10 11.16 0.84
4 10 -3 9.51 0.71
10 -3 4 10.8 0.82
10 3 -4 10.78 0.71
-3 -4 -10 9.75 0.64
-4 10 3 10.42 0.86
-3 -4 10 11.54 0.72
-4 10 -3 9.82 0.85
10 -3 -4 9.92 0.8
3 4 10 10.01 0.72
-10 3 -4 9.79 0.54
-3 -4 10 11.07 0.76
-10 3 -4 10.14 0.48
-4 10 -3 10.1 0.86
4 10 3 10.33 0.89
-4 -10 3 10.83 0.76
4 10 3 9.68 0.7
3 -4 -10 10.46 0.5
-10 -3 4 11.01 0.59
-4 -4 -10 3.64 0.49
-4 -10 -4 3.56 0.48
-4 10 4 3.92 0.66
4 10 -4 3.72 0.55
10 4 -4 5.15 0.67
-10 -4 -4 3.1 0.55
10 -4 4 2.93 0.53
-10 4 4 3.48 0.39
-4 10 4 3.14 0.62
10 4 -4 3.38 0.26
4 10 -4 2.96 0.5
-10 -4 4 3.14 0.44
-4 10 -4 3.92 0.66
-10 4 -4 3.52 0.39
-10 4 -4 3.59 0.41
-4 10 -4 3.22 0.63
4 10 4 3.96 0.54
4 10 4 3.79 0.56
10 -4 -4 3.48 0.38
4 -10 -4 3.16 0.3
4 4 10 3.56 0.53
-4 -10 4 3.16 0.5
-4 -4 10 3.97 0.49
-10 -5 -4 24.43 1.22
-10 5 4 25.54 0.92
4 10 -5 24.92 1.13
10 -5 4 24.43 1.15
10 5 -4 25.17 0.82
10 5 -4 24.41 1.16
4 10 -5 25.2 1.15
-4 10 5 25.7 1.28
-5 -4 -10 23.92 1.1
-4 -10 -5 23.86 1.11
4 -10 -5 24.8 0.87
-5 -4 10 24.39 1.05
-4 -10 5 25.58 1.25
5 4 10 24.85 1.19
10 -5 -4 24.55 0.86
4 10 5 21.57 1.09
-10 5 -4 23.78 0.92
-4 10 -5 24.65 1.25
-10 5 -4 25.52 0.97
-10 -5 4 23.91 1.1
-4 10 -5 26.47 1.3
-10 -6 -4 22.42 1.23
4 10 -6 21 1.08
-6 -4 -10 20.57 1.06
10 6 -4 21.72 0.84
-10 6 4 22.75 0.9
10 6 -4 21.28 0.78
-4 10 6 21.12 1.44
-4 -10 -6 21.02 1.04
10 -6 4 22.75 1.11
-4 -10 6 22.72 1.25
6 4 10 22.49 1.16
-6 -4 10 20.73 0.95
-10 6 -4 22.02 0.97
4 10 6 21.54 1.15
10 -6 -4 22.8 0.79
-4 10 -6 21.3 1.22
4 -10 -6 21.68 0.79
-10 -6 4 22.61 1.12
10 6 4 22.12 0.84
-10 6 -4 21.14 0.94
-10 -7 -4 0.36 0.51
10 7 -4 0.56 0.27
-4 -10 -7 0.86 0.33
-10 7 4 0.43 0.44
-7 -4 -10 0.97 0.5
4 10 -7 0.5 0.7
-4 10 7 0.89 0.66
10 7 -4 0.7 0.28
-7 -4 10 0.24 0.33
-4 10 -7 1.09 0.71
4 10 7 0.13 0.54
-4 -10 7 0.69 0.61
-10 7 -4 0.57 0.49
-10 7 -4 1.3 0.48
10 -7 -4 0.73 0.24
10 7 4 0.35 0.27
4 10 7 0.76 0.57
-10 -7 4 1.07 0.54
-7 -4 10 0.19 0.39
4 -10 -7 0.9 0.18
10 8 -4 30.28 1.07
10 8 -4 29.55 1.11
-4 -10 -8 28.63 1.29
-10 8 4 31.28 1.26
-4 10 8 29.09 1.53
4 10 -8 30.59 1.38
-4 10 -8 29.98 1.53
4 10 8 29.24 1.4
4 10 8 28.94 1.37
-10 8 -4 30.42 1.3
10 8 4 31.15 1.12
-8 -4 10 29.95 1.14
-8 -4 10 30.64 1.09
-10 -8 4 28.05 1.48
10 -8 -4 26.35 1.08
-4 -10 8 30.88 1.57
4 -10 -8 30.94 1.02
-10 8 -4 30.52 1.31
-10 -9 -4 0.84 0.65
-9 -4 -10 0.39 0.64
-4 10 9 0.48 0.74
10 9 -4 1.08 0.35
10 9 -4 0.91 0.42
-4 -10 -9 0.44 0.43
4 10 -9 1.48 0.64
-10 9 4 0.65 0.57
-9 -4 10 1.23 0.29
-9 -4 10 0.67 0.39
4 10 9 0.32 0.64
10 9 4 0.75 0.34
-4 10 -9 1.31 0.72
-10 -9 4 0.86 0.8
-4 -10 9 1.4 0.7
4 -10 -9 1.32 0.2
-10 9 -4 1.79 0.6
-10 9 -4 1.5 0.66
5 10 0 33.87 1.27
5 10 0 33.97 1.32
0 -5 10 33.89 1.36
10 0 -5 33.04 1.2
10 0 -5 31.93 0.97
-5 10 0 33.79 1.37
-10 0 -5 33.23 0.98
-5 -10 0 35.67 1.41
0 -5 -10 32.86 1.2
-5 10 0 32.51 1.39
10 1 -5 8.55 0.62
-5 10 1 8.52 0.76
1 -5 10 7.31 0.75
10 -1 5 9.4 0.77
-1 -5 -10 7.8 0.54
10 1 -5 8.35 0.35
-10 -1 -5 8.04 0.68
-5 10 1 7.47 0.8
5 10 -1 8.7 0.64
5 10 -1 8.73 0.73
-10 -1 -5 8.4 0.37
-5 -10 -1 8.62 0.67
1 5 10 8.76 0.5
5 10 1 8.46 0.64
1 -5 -10 8.48 0.49
-5 10 -1 8.17 0.83
5 10 1 9.46 0.71
10 -1 -5 8.72 0.56
-5 10 -1 7.94 0.77
-5 -10 1 8.15 0.71
5 10 -2 0.47 0.43
-10 -2 -5 0.5 0.41
10 2 -5 0.75 0.35
2 -5 10 0.47 0.44
10 2 -5 0.26 0.16
-10 -2 -5 0.42 0.21
5 10 -2 -0.35 0.33
-5 10 2 0.09 0.48
-2 -5 -10 0.31 0.27
10 2 -5 0.99 0.29
-5 -10 -2 0.32 0.34
-5 10 2 0.43 0.48
10 -2 5 -0.39 0.39
-5 -10 2 -0.16 0.31
2 5 10 0.46 0.31
2 -5 -10 0 0.14
-5 10 -2 0.35 0.54
-2 -5 10 -0.06 0.36
-10 2 -5 0.15 0.23
5 10 2 -0.06 0.31
5 10 2 -0.11 0.38
-5 10 -2 0.56 0.5
10 -2 -5 0.62 0.25
-10 -2 5 0.24 0.17
-5 10 3 0.02 0.57
10 -3 5 0.11 0.41
-10 -3 -5 0.52 0.43
-10 -3 -5 0.38 0.25
-5 10 3 0.22 0.54
10 3 -5 0.32 0.18
-5 -10 -3 0.29 0.31
-3 -5 -10 0.67 0.34
5 10 -3 0.12 0.71
10 3 -5 0.2 0.33
5 10 -3 -0.06 0.37
-5 -10 3 -0.16 0.36
-5 10 -3 0.2 0.52
-10 3 -5 0.01 0.3
5 10 3 0.71 0.38
5 10 3 0.22 0.5
-10 -3 5 0.23 0.24
-5 10 -3 0.38 0.55
3 5 10 0.45 0.38
3 -5 -10 0.66 0.19
5 10 3 -0.03 0.44
-3 -5 10 0.61 0.38
-5 10 4 25.54 1.25
10 4 -5 24.14 0.82
-5 -10 -4 25.49 1.16
-10 -4 -5 25.38 1.27
10 -4 5 24.18 1.17
5 10 -4 24.4 1.09
5 10 -4 24.88 1.11
-10 -4 -5 23.89 0.87
-4 -5 -10 25.37 1.1
-5 10 4 25.04 1.26
10 4 -5 25.18 1.18
-5 10 -4 25.44 1.27
-10 4 -5 24.59 0.98
-10 4 -5 25.45 0.92
-5 -10 4 25.74 1.26
4 5 10 25.26 1.15
5 10 4 27.39 1.13
5 10 4 24.27 1.11
4 -5 -10 24.69 0.86
-5 10 -4 25.68 1.26
5 10 4 24.56 1.21
-4 -5 10 24.95 1.13
-10 -4 5 24.49 1.01
10 -4 -5 25.27 0.87
-5 10 5 6.53 0.83
-10 5 5 6.62 0.56
-5 -10 -5 5.68 0.6
10 5 -5 6.28 0.41
-5 -5 -10 6.55 0.65
5 10 -5 5.95 0.65
5 10 -5 5.81 0.69
-10 -5 -5 6.62 0.8
5 10 5 6.55 0.67
-5 -5 10 6.17 0.72
5 5 10 6.42 0.84
-5 -10 5 6.65 0.81
-5 10 -5 8.19 0.92
10 -5 -5 6.86 0.39
5 -10 -5 5.85 0.35
-10 -5 5 6.82 0.67
5 10 5 6.43 0.73
-10 5 -5 5.99 0.58
-5 10 -5 7.28 0.88
-10 5 -5 7.11 0.63
-10 6 5 -0.35 0.37
-10 -6 -5 0.69 0.55
-6 -5 -10 0.25 0.36
10 6 -5 -0.25 0.23
-5 -10 -6 0.55 0.35
5 10 -6 0.56 0.49
5 10 6 -0.02 0.61
-10 6 -5 0.21 0.44
5 -10 -6 0.45 0.13
6 5 10 -0.01 0.56
10 -6 -5 -0.19 0.18
5 10 6 0.22 0.55
-10 -6 5 0.4 0.46
-6 -5 10 -0.08 0.42
-5 -10 6 0.37 0.55
-5 10 -6 -0.45 0.59
-10 6 -5 -0.07 0.47
-5 10 -6 0.3 0.68
5 10 -7 9.9 1.02
-5 10 7 12.45 1.09
-10 7 5 13.2 0.83
-7 -5 -10 11.48 0.96
-5 -10 -7 11.99 0.85
10 7 -5 12.24 0.67
10 7 -5 12.06 0.61
-10 -7 -5 11.24 1.07
-10 -7 5 12.03 1
-5 -10 7 11.46 1.07
5 10 7 10.6 1.05
5 -10 -7 12.13 0.5
10 -7 -5 12.35 0.51
-7 -5 10 11.96 0.84
-10 7 -5 11.76 0.86
-5 10 -7 13.5 1.14
5 10 7 10.82 0.88
-5 10 -7 12.33 1.07
10 7 5 12.95 0.66
-10 7 -5 12.16 0.88
-8 -5 -10 13.21 1.18
10 8 -5 14.57 0.79
-10 -8 -5 15.28 1.25
-5 10 8 15.22 1.19
-10 8 5 12.85 0.92
-5 -10 -8 15.52 1.04
5 10 -8 14.43 1.04
10 8 -5 12.8 0.69
-10 8 -5 16.81 1.06
-8 -5 10 15.74 0.88
5 10 8 14.69 1
5 -10 -8 14.9 0.57
10 8 5 14.79 0.77
5 10 8 15 1.19
10 -8 -5 13.85 0.59
-5 10 -8 15.13 1.18
-10 -8 5 13.31 1.12
10 9 -5 14.49 0.77
-5 10 9 14.7 1.22
-10 -9 -5 16.03 1.25
5 10 -9 13.77 1.08
-9 -5 -10 13.89 1.18
-10 9 5 13.29 1
10 9 -5 13.75 0.81
5 10 9 15.79 1.12
-5 10 -9 13.7 1.21
5 10 9 13.62 1.24
-10 9 -5 13.08 0.99
-9 -5 10 13.66 0.82
-10 9 -5 15.67 1.2
10 9 5 14.73 0.81
-5 -10 9 14.51 1.21
5 -10 -9 14.27 0.58
-6 10 0 55.23 1.99
6 10 0 58.08 1.88
10 0 -6 54.37 1.79
-6 -10 0 55.94 2
-6 10 0 56.93 1.95
6 10 0 53.19 1.83
0 -6 -10 55.56 1.81
0 6 10 58.34 2.04
-6 -10 -1 1.83 0.44
-1 6 10 1.68 0.59
6 10 -1 2.09 0.48
10 1 -6 2.22 0.4
-10 -1 -6 2.23 0.49
-6 10 1 2.64 0.6
-10 -1 -6 3.26 0.35
-1 -6 -10 3.17 0.4
6 10 -1 2.27 0.44
-6 10 1 2.08 0.58
1 6 10 2.6 0.63
-6 10 -1 2.4 0.63
6 10 1 1.95 0.46
10 -1 -6 2.43 0.34
-6 10 -1 2.46 0.6
1 6 10 2.61 0.33
-6 -10 1 2.31 0.5
6 10 1 2.62 0.47
1 -6 -10 2.86 0.33
-10 -2 -6 3.23 0.58
10 2 -6 3.37 0.48
-6 10 2 3.28 0.63
-2 -6 -10 3.76 0.48
-10 -2 -6 4.57 0.48
6 10 -2 3.23 0.49
-2 6 10 2.4 0.65
-6 10 2 2.67 0.63
-6 -10 -2 2.99 0.49
6 10 -2 3.71 0.6
6 10 2 3.61 0.51
2 -6 -10 4.39 0.34
10 -2 -6 2.74 0.34
2 6 10 3.14 0.39
-6 -10 2 3.3 0.56
-6 10 -2 3.51 0.65
-2 -6 10 2.71 0.54
6 10 2 2.83 0.47
6 10 2 4.84 0.66
-6 10 -2 2.32 0.61
2 6 10 2.97 0.65
-3 6 10 4.81 0.79
-6 10 3 6.1 0.77
-6 10 3 5.01 0.75
-3 -6 -10 5.67 0.54
-10 -3 -6 5.15 0.69
6 10 -3 5.12 0.72
10 3 -6 5.46 0.65
-6 -10 -3 4.73 0.62
6 10 -3 5.27 0.56
-6 -10 3 5.3 0.71
6 10 3 4.74 0.56
-3 -6 10 4.8 0.63
3 6 10 5.12 0.67
-6 10 -3 4.87 0.72
3 -6 -10 5.88 0.37
6 10 3 5.06 0.68
-10 -3 6 5.11 0.44
6 10 3 5.47 0.65
-6 10 -3 5.73 0.76
3 6 10 4.62 0.85
-6 -10 -4 22.93 1.13
6 10 -4 21.54 1.01
10 4 -6 21.69 1.05
-10 -4 -6 20.4 1.2
10 4 -6 22.35 0.8
6 10 -4 23.23 1.01
-4 6 10 24.72 1.29
-6 10 4 22.35 1.22
-4 -6 -10 21.59 1.05
4 6 10 21.07 1.08
-10 4 -6 20.62 0.91
6 10 4 22.18 1.02
6 10 4 24 1.24
10 -4 -6 21.82 0.78
-10 -4 6 22.1 0.94
4 -6 -10 22.49 0.79
-4 -6 10 21.51 1.1
-6 10 -4 21.49 1.18
-6 -10 4 21.66 1.21
-6 10 -4 22.49 1.24
-5 6 10 -0.31 0.68
-6 10 5 0.2 0.65
6 10 -5 -0.13 0.37
-10 -5 -6 0.4 0.54
-5 -6 -10 0.19 0.36
-6 -10 -5 0.23 0.35
10 5 -6 0.13 0.26
6 10 -5 0.35 0.39
6 -10 -5 0.46 0.13
-6 10 -5 0.49 0.59
6 10 5 0.03 0.41
6 10 5 0.77 0.57
-5 -6 10 0.09 0.47
5 6 10 -0.55 0.51
-10 -5 6 0.2 0.4
-6 -10 5 0.7 0.54
-10 5 -6 0.09 0.39
5 -6 -10 0.59 0.13
-10 5 -6 0.96 0.47
10 -5 -6 0.3 0.18
10 6 -6 2.77 0.36
-6 -6 -10 3.29 0.54
-6 -10 -6 2.74 0.57
-10 -6 -6 2.95 0.72
-6 10 6 2.32 0.88
6 10 -6 2.99 0.57
6 10 -6 3.07 0.57
-10 6 6 3.72 0.55
-10 -6 6 3.48 0.58
-10 6 -6 2.94 0.6
6 10 6 3.39 0.69
10 -6 -6 2.68 0.27
-6 -6 10 2.28 0.56
-10 6 -6 3.57 0.56
-6 -10 6 2.71 0.71
6 -10 -6 3.97 0.27
6 6 10 2.81 0.63
-6 10 -6 2.94 0.76
-6 10 -6 3.07 0.76
-10 7 6 6.04 0.68
6 10 -7 6.37 0.86
-6 10 7 6.49 0.88
10 7 -6 6.81 0.52
-6 -10 -7 5.67 0.74
-10 -7 -6 6.35 0.88
6 -10 -7 6.08 0.38
-10 7 -6 8.28 0.89
-10 -7 6 5.44 0.72
10 -7 -6 6.36 0.33
6 10 7 5.82 0.8
-6 10 -7 6.57 0.86
-10 7 -6 6.78 0.74
-6 -10 7 5.81 0.85
6 10 7 6.21 0.74
-7 -6 10 5.94 0.68
-6 10 -7 6.59 0.88
6 10 -8 20.63 1.19
-10 -8 -6 22.97 1.46
10 8 -6 20.46 0.9
-10 8 6 21.93 1.14
-8 -6 -10 20.77 1.3
-6 -10 -8 20.63 1.44
-6 10 8 23.04 1.38
6 -10 -8 21.56 0.75
6 10 8 20.16 1.16
10 -8 -6 21.55 0.69
-6 10 -8 21.97 1.33
-10 8 -6 20.09 1.16
-6 -10 8 19.33 1.4
10 8 6 22.15 0.96
-6 10 -8 22.65 1.36
6 10 8 21.78 1.39
-8 -6 10 21.46 1.14
-10 8 -6 21.91 1.24
-10 -8 6 20.93 1.3
-6 10 9 0.66 0.75
-9 -6 -10 0.66 0.66
6 10 -9 0.22 0.58
10 9 -6 0.47 0.36
-6 -10 -9 0.31 0.5
-10 -9 -6 0.68 0.7
-10 9 6 1.36 0.69
10 9 -6 0.57 0.35
6 10 9 0.76 0.81
6 10 9 0.92 0.61
-6 10 -9 0.72 0.8
-10 9 -6 -0.19 0.57
-10 9 -6 1.24 0.73
-6 -10 9 0.04 0.68
-10 -9 6 0.74 0.73
-9 -6 10 0.55 0.47
10 9 6 0.87 0.47
10 0 -7 5.5 0.58
7 10 0 6.04 0.63
0 7 10 6.73 0.84
0 -7 -10 6.33 0.45
7 10 0 6.15 0.56
-7 10 0 6.44 0.79
-7 -10 0 5.32 0.68
-7 10 0 6.78 0.83
-7 10 1 20.46 1.11
-1 7 10 20.14 1.22
-1 -7 -10 20.8 0.91
10 1 -7 21.11 0.96
-7 10 1 20.42 1.12
7 10 -1 21.38 1.01
7 10 -1 21.73 0.93
-7 -10 -1 22.35 1.16
-10 -1 -7 20.32 1.12
1 7 10 19.13 1.2
-7 10 -1 20.2 1.12
10 -1 -7 21.38 0.88
-7 10 -1 19.31 1.1
1 -7 -10 21.36 0.86
-7 -10 1 21.02 1.16
7 10 1 20.07 0.94
7 10 1 20.56 0.95
-2 -7 -10 0.08 0.28
-10 -2 -7 -0.04 0.46
10 2 -7 0.59 0.36
-7 -10 -2 -0.1 0.42
-2 7 10 -0.15 0.59
-7 10 2 0.15 0.6
7 10 -2 -0.22 0.45
-7 10 2 -0.02 0.56
7 10 -2 0.16 0.32
-7 10 -2 -0.05 0.58
-2 -7 10 -0.1 0.48
2 7 10 0 0.58
2 -7 -10 0.18 0.18
-7 -10 2 -0.1 0.45
10 -2 -7 -0.06 0.24
-7 10 -2 -0.01 0.59
2 7 10 -0.06 0.29
7 10 2 0.25 0.35
7 10 2 0.44 0.41
-7 10 3 40.49 1.59
7 10 -3 39.77 1.44
-10 -3 -7 37.97 1.66
-7 10 3 38.79 1.59
-7 -10 -3 37.69 1.65
-3 7 10 37.59 1.7
7 10 -3 34.69 1.54
10 3 -7 38.92 1.51
-3 -7 -10 40.34 1.52
-3 -7 10 40.7 1.65
-10 -3 7 41.38 1.2
-7 10 -3 40.45 1.59
-7 -10 3 39.96 1.69
10 -3 -7 38.28 1.27
3 -7 -10 39.91 1.28
7 10 3 42.22 1.49
3 7 10 38.83 1.63
-7 10 -3 39.67 1.66
7 10 3 39.09 1.43
-4 7 10 0.05 0.68
-10 -4 -7 1.55 0.56
-7 -10 -4 0.81 0.52
7 10 -4 0.45 0.34
-7 10 4 0.98 0.64
-4 -7 -10 0.95 0.38
7 10 -4 0.68 0.39
4 -7 -10 1.29 0.17
4 7 10 0.15 0.54
-7 10 -4 0.08 0.61
-7 -10 4 1.52 0.63
7 10 4 0.66 0.39
-10 -4 7 0.24 0.31
-4 -7 10 1.14 0.5
4 7 10 0.35 0.51
-7 10 -4 1.05 0.68
10 -4 -7 0.86 0.22
-10 -5 -7 10.74 1.04
10 5 -7 12.34 0.64
7 10 -5 13.65 0.79
-5 -7 -10 12.59 0.88
-5 7 10 12.6 1.07
7 10 -5 13.04 0.81
-7 -10 -5 11.82 1.05
-7 10 5 11.88 1.05
10 -5 -7 11.84 0.5
5 7 10 12.42 1.07
-5 -7 10 11.51 1.02
-10 -5 7 11.71 0.81
5 -7 -10 13.12 0.51
-7 10 -5 12.85 1.28
5 7 10 12.04 0.91
-7 10 -5 11.38 0.99
7 10 5 13.84 0.85
-7 -10 5 11.68 1.15
-6 -7 -10 6.25 0.81
10 6 -7 6.11 0.53
-10 -6 -7 8.4 1.03
7 10 -6 7.13 0.79
7 10 -6 6.33 0.65
-10 6 7 6.13 0.73
-6 7 10 6 0.85
-7 10 6 6.51 0.93
-7 -10 6 7.02 1
-7 10 -6 6.3 0.89
-10 6 -7 7.21 0.87
-7 10 -6 5.89 0.87
10 -6 -7 5.7 0.32
7 10 6 5.46 0.81
-10 -6 7 6.31 0.81
-6 -7 10 6.19 0.73
-10 6 -7 6.42 0.71
6 7 10 6.74 0.83
-10 7 7 0.16 0.53
-10 -7 -7 -0.12 0.6
-7 -7 -10 0.46 0.58
-7 10 7 0.69 0.71
10 7 -7 -0.21 0.3
-7 7 10 1.27 0.69
7 10 -7 0 0.49
-7 -10 -7 0.04 0.53
7 10 7 -0.15 0.48
-10 -7 7 0.11 0.53
-7 -7 10 0.2 0.55
-7 10 -7 0.39 0.66
-7 10 -7 0.51 0.67
-7 -10 7 0.63 0.74
-10 7 -7 -0.19 0.66
7 -10 -7 0.05 0.2
-10 7 -7 -0.05 0.65
10 -7 -7 0.16 0.12
-7 -10 -8 1.92 0.63
-10 -8 -7 2.06 0.8
10 8 -7 1.5 0.4
-10 8 7 2.14 0.7
-8 -7 -10 0.8 0.67
-7 10 8 1.02 0.73
7 10 -8 2.52 0.53
-10 -8 7 1.17 0.65
7 -10 -8 1.66 0.24
-7 -10 8 1.61 0.71
-7 10 -8 2.08 0.8
-8 -7 10 1.8 0.61
10 -8 -7 1.83 0.18
-10 8 -7 1.97 0.79
-7 10 -8 0.96 0.76
7 10 8 2.32 0.61
-10 8 -7 1.14 0.64
-9 -7 -10 0.14 0.63
10 9 -7 0.34 0.45
-7 10 9 1.1 0.81
10 9 -7 0.16 0.41
7 10 -9 -0.14 0.5
-10 9 7 1.4 0.71
-7 -10 -9 0.34 0.62
-10 -9 -7 -0.1 0.61
-7 10 -9 0.14 0.78
-7 -10 9 1.39 0.76
-10 9 -7 0.68 0.66
-10 9 -7 0.84 0.64
7 10 9 -0.26 0.62
10 9 7 0.78 0.52
-9 -7 10 0.23 0.56
7 -10 -9 0.76 0.23
-7 10 -9 2 0.86
-10 -9 7 -0.26 0.68
-8 10 0 11.9 0.96
-8 10 0 14.7 1.04
8 10 0 13.56 0.75
8 10 0 13.16 0.76
10 0 -8 12.26 0.75
0 -8 -10 12.39 0.66
-8 -10 0 13.76 1.11
0 8 10 13.89 1.1
8 10 -1 4.51 0.52
-8 -10 -1 3.91 0.67
-8 10 1 4.94 0.69
-8 10 1 4.78 0.71
8 10 -1 4.57 0.56
-1 8 10 4.22 0.83
-1 -8 -10 3.87 0.46
-1 -8 10 4.56 0.72
1 -8 -10 3.67 0.4
8 10 1 4.61 0.54
-8 10 -1 4.68 0.72
-8 10 -1 3.83 0.7
-8 -10 1 4.53 0.7
10 -1 -8 4.35 0.49
1 8 10 4.37 0.78
8 10 1 4.99 0.53
8 10 -2 1.17 0.35
-2 -8 -10 0.88 0.29
-8 10 2 0.44 0.59
8 10 -2 0.82 0.47
-8 -10 -2 1.39 0.56
-10 -2 -8 0.4 0.53
-8 10 2 0.92 0.58
-2 8 10 1.62 0.7
8 10 2 1.29 0.41
2 -8 -10 1.55 0.26
-8 10 -2 1.14 0.61
-2 -8 10 1.76 0.63
-8 10 -2 1.05 0.64
10 -2 -8 1.28 0.29
-8 -10 2 1.54 0.6
2 8 10 0.85 0.63
8 10 2 1.19 0.35
8 10 -3 0.3 0.33
8 10 -3 0.35 0.43
-10 -3 -8 -0.02 0.58
-3 -8 -10 0.38 0.31
-8 10 3 0.5 0.58
-3 8 10 -0.57 0.64
-8 10 3 1.2 0.65
-8 -10 -3 0.23 0.5
-8 10 -3 0.18 0.58
3 8 10 0.6 0.59
-8 -10 3 0.21 0.59
-8 10 -3 0.2 0.57
3 -8 -10 0.2 0.17
3 8 10 0.27 0.46
10 -3 -8 0.43 0.23
8 10 3 0.34 0.33
-3 -8 10 0.92 0.59
-8 10 4 30.26 1.4
8 10 -4 30.09 1.2
8 10 -4 31.46 1.2
-4 8 10 30.87 1.54
-4 -8 -10 30.08 1.33
-10 -4 8 30.28 1.06
-4 -8 10 31.58 1.52
4 8 10 28.81 1.35
-8 -10 4 30.6 1.53
-8 10 -4 30.16 1.44
4 -8 -10 30.38 1.02
10 -4 -8 28.07 1.06
8 10 4 29.97 1.25
-8 10 -4 28.93 1.62
4 8 10 29.67 1.43
-10 -5 -8 14.24 1.16
-5 8 10 13.06 1.17
-5 -8 -10 14.4 1.02
8 10 -5 14.44 0.8
8 10 -5 13.14 0.77
-8 -10 -5 15.15 1.17
8 10 5 13.62 0.92
-8 10 -5 14.71 1.06
10 -5 -8 12.87 0.54
-10 -5 8 15.16 0.84
5 8 10 12.82 1.03
5 8 10 15.48 1.18
-8 10 -5 14.08 1.14
5 -8 -10 14.97 0.57
-5 -8 10 15.9 1.18
10 6 -8 21.49 0.94
-10 -6 -8 20.75 1.36
-8 -10 -6 20.56 1.38
8 10 -6 21.15 1.02
-6 -8 -10 17.01 1.41
-8 10 6 23.13 1.36
8 10 -6 22.41 1.11
-6 8 10 23.11 1.38
8 10 6 20.25 1.06
-8 10 -6 21.73 1.32
6 8 10 20.39 1.41
-10 -6 8 21.15 1.12
6 8 10 20.35 1.21
-8 -10 6 21.98 1.41
6 -8 -10 20.28 0.81
-6 -8 10 21.89 1.34
-8 10 -6 22.07 1.34
-7 8 10 1.7 0.7
-8 -10 -7 1.66 0.68
-7 -8 -10 1.65 0.66
10 7 -8 1.66 0.43
-10 -7 -8 1.93 0.78
8 10 -7 1.15 0.55
8 10 -7 1.33 0.52
-8 10 7 1.57 0.75
-10 7 8 2.65 0.64
-10 -7 8 0.92 0.59
-10 7 -8 1.19 0.77
8 -10 -7 1.48 0.2
-10 7 -8 1.53 0.66
7 -8 -10 1.54 0.21
-7 -8 10 2.58 0.68
-8 10 -7 0.91 0.77
-8 10 -7 1.33 0.73
-8 -10 7 1.49 0.7
8 10 7 1.66 0.49
-10 -8 -8 6.37 0.96
-8 8 10 6.29 0.87
-8 -10 -8 6.8 0.91
-8 10 8 7.99 0.92
-8 -8 -10 9.17 1.05
10 8 -8 6.13 0.7
8 10 -8 6.43 0.73
8 8 -10 6.81 0.78
8 -10 -8 6.33 0.41
-8 10 -8 8.01 1
8 10 8 6.68 0.77
-8 -8 10 7.24 0.88
-10 -8 8 6.7 0.86
-10 8 -8 6.99 0.88
-8 10 -8 7.52 1.01
-10 8 -8 7.49 0.84
-8 -10 8 7.91 1.03
8 10 -9 1.05 0.54
-10 9 8 1.01 0.7
9 8 -10 0.28 0.47
-8 -10 -9 0.93 0.7
-8 10 9 1.05 0.81
-10 -9 -8 1.21 0.78
-9 -8 -10 1.65 0.67
-10 -9 8 0.79 0.74
8 10 9 1.11 0.57
-8 -10 9 0.71 0.79
-8 10 -9 1.19 0.83
-9 -8 10 1.31 0.72
-10 9 -8 0.13 0.68
-8 10 -9 0.67 0.8
-10 9 -8 1.58 0.75
-9 10 0 0.79 0.54
9 10 0 0.25 0.34
9 10 0 0.61 0.34
0 -9 -10 0.97 0.26
0 9 10 0.93 0.71
-9 10 0 1.14 0.63
-9 -10 -1 6.26 1.08
-9 10 1 6.17 0.75
-1 9 10 6.21 0.94
-1 -9 -10 5.76 0.54
-9 10 1 7.91 0.92
9 10 -1 6.1 0.59
9 10 -1 6.01 0.56
1 -9 -10 6.76 0.49
9 10 1 7.28 0.61
-9 10 -1 6.79 0.78
9 10 1 6.5 0.58
-9 10 -1 5.49 0.8
1 9 10 6.55 0.82
-2 9 10 1.99 0.77
-10 -2 -9 2.32 0.69
9 10 -2 1.88 0.42
-9 10 2 1.66 0.64
9 10 -2 2.56 0.54
-2 -9 -10 1.95 0.4
-9 10 2 1.94 0.67
-9 -10 -2 1.56 0.66
2 -9 -10 2.55 0.33
2 9 10 2.23 0.75
-9 10 -2 1.5 0.62
9 10 2 2.33 0.43
-9 10 -2 2.69 0.7
9 10 2 2.5 0.42
9 10 -3 7.64 0.66
9 10 -3 6.6 0.6
-3 9 10 7.81 0.98
-10 -3 -9 6.35 0.85
-9 -10 -3 6.76 0.9
-3 -9 -10 7.92 0.68
-9 10 3 8.36 0.89
-9 -10 3 8.11 1.14
3 9 10 6.66 0.89
-9 10 -3 7.84 0.93
3 -9 -10 6.94 0.46
9 10 3 7.43 0.63
-9 10 -3 8.34 0.93
9 10 -4 1.32 0.39
-4 9 10 0.3 0.73
-10 -4 -9 1.02 0.68
9 10 -4 0.87 0.37
-9 10 4 0.62 0.68
-4 -9 -10 1.41 0.46
-9 -10 -4 0.95 0.65
4 9 10 2.1 0.64
-9 -10 4 0.94 0.72
9 10 4 0.12 0.39
-10 -4 9 0.86 0.26
4 -9 -10 0.84 0.2
4 9 10 1.76 0.66
-9 10 -4 0.96 0.64
-10 -5 -9 14.7 1.2
-5 9 10 13.28 1.2
9 10 -5 13.99 0.82
9 10 -5 13.32 0.79
-9 -10 -5 15.95 1.23
-9 -10 5 12.22 1.17
-9 10 -5 14.46 1.12
9 10 5 15.15 0.9
-10 -5 9 15.79 0.83
5 9 10 11.88 1.06
-9 10 -5 15.15 1.19
5 -9 -10 13.49 0.57
-5 -9 10 14.8 1.29
5 9 10 17.33 1.25
-6 -9 -10 0.72 0.53
-9 10 6 -0.55 0.63
-9 -10 -6 0.91 0.69
-6 9 10 -0.57 0.71
10 6 -9 0.87 0.39
-10 -6 -9 1.08 0.69
9 10 -6 0.33 0.5
9 10 -6 -0.17 0.4
6 9 10 -1.27 0.78
-9 -10 6 -0.79 0.62
-6 -9 10 0.43 0.7
9 10 6 -0.1 0.46
-9 10 -6 0.24 0.67
-9 10 -6 0.39 0.66
6 9 10 0.29 0.63
-10 -6 9 -0.65 0.45
7 9 -10 0.49 0.51
-10 -7 -9 -0.2 0.66
9 10 -7 1.17 0.56
-7 9 10 1.64 0.84
-9 10 7 0.63 0.69
9 10 -7 -0.32 0.45
-7 -9 -10 0.3 0.64
-9 -10 -7 1.01 0.71
10 7 -9 0.33 0.45
7 9 10 0.31 0.66
7 -9 -10 0.74 0.21
-10 -7 9 0.47 0.58
-7 -9 10 0.46 0.69
-9 -10 7 0.68 0.78
-9 10 -7 1.14 0.76
-9 10 -7 0.33 0.74
9 10 7 1.01 0.47
-8 -9 -10 0.69 0.7
-10 -8 -9 0.49 0.75
9 10 -8 0.58 0.48
-9 -10 -8 0.83 0.66
-8 9 10 1.57 0.8
8 9 -10 1.21 0.59
-9 10 8 1.2 0.8
-8 9 -10 1.23 0.88
-9 10 -8 0.04 0.8
-8 -9 10 1.01 0.75
-10 8 -9 1.01 0.78
-10 8 -9 0.78 0.68
9 10 8 0.69 0.49
-9 -10 8 1.09 0.77
-9 10 -8 1.25 0.78
-10 -8 9 0.36 0.66
-10 -9 -9 2.24 0.92
9 9 -10 1.19 0.54
9 10 -9 1.3 0.56
-9 9 10 2.34 0.8
-10 9 9 3.24 0.84
-9 -10 -9 2.52 0.82
-9 -9 -10 3.69 0.87
-9 10 9 4.48 0.91
10 9 -9 3.86 0.53
-9 -9 10 2.26 0.79
-10 9 -9 4.37 0.88
-9 10 -9 1.29 0.92
-9 10 -9 1.53 0.85
-9 9 -10 2.88 0.9
-9 -10 9 3.53 0.84
-10 -9 9 2.92 0.79
-10 9 -9 1.35 0.88
9 10 9 1.68 0.59
-9 9 -10 2.26 0.88
-10 -10 0 12.19 1.28
-10 10 0 14.17 1.05
-10 10 0 14.4 1.02
0 -10 -10 14.25 0.75
0 10 10 13.69 1.21
10 10 0 13.31 0.75
10 10 0 13.83 0.73
-10 -10 -1 16.57 1.33
10 10 -1 15.76 0.78
10 10 -1 16.72 0.82
-1 -10 -10 14.68 0.85
-1 10 10 16.63 1.3
-10 10 1 17.07 1.07
-10 10 1 14.75 1.04
-10 10 -1 15.49 1.09
-10 10 -1 15.91 1.06
-1 -10 10 16.79 1.33
1 -10 -10 15.16 0.79
1 10 10 14.93 1.27
-10 -10 1 13.66 1.29
10 10 1 16.09 0.8
10 10 1 16.69 0.8
-10 -10 -2 3.17 0.76
-2 10 10 3.12 0.9
10 10 -2 3.98 0.5
10 10 -2 2.73 0.5
-2 -10 -10 4.38 0.57
-10 10 2 3.1 0.7
-10 10 -2 3.97 0.79
-10 -10 2 3.12 0.81
2 -10 -10 3.97 0.41
-10 10 -2 3.22 0.67
-2 -10 10 3.63 0.79
2 10 10 2.95 0.76
10 10 2 4.54 0.5
-10 -10 -3 45.08 2.07
10 10 -3 48.59 1.64
-10 -3 -10 49.59 2.07
-3 10 10 50.78 2.15
-3 -10 -10 48.85 1.86
-10 10 3 48.6 1.85
-10 10 -3 48.51 1.83
-10 10 -3 48.07 2.12
-3 -10 10 49.66 2.06
3 -10 -10 50.4 1.61
3 10 10 50 2.04
-10 -10 3 47.99 2.06
10 10 3 48.54 1.67
-10 -10 -4 -0.8 0.66
10 10 -4 0.26 0.34
10 10 -4 0.36 0.33
-10 -4 -10 -0.26 0.64
4 10 -10 -0.13 0.65
-4 10 10 -0.78 0.78
-10 10 4 -0.28 0.71
-4 -10 10 -0.4 0.6
4 -10 -10 0.19 0.22
-10 -10 4 0.3 0.71
-10 10 -4 0.72 0.7
4 10 10 -0.28 0.67
-10 10 -4 0.24 0.63
10 10 4 -0.11 0.38
-10 -10 -5 0.69 0.72
-10 -5 -10 0.23 0.69
10 10 -5 0.37 0.42
10 10 -5 0.13 0.33
-10 10 5 0.65 0.72
-5 -10 -10 -0.22 0.54
-5 10 10 0.21 0.8
5 10 -10 -0.17 0.67
-5 -10 10 1.15 0.74
-5 10 -10 0.87 0.81
-10 -10 5 0.06 0.71
5 -10 -10 0.86 0.21
-10 10 -5 -0.17 0.68
-10 10 -5 -0.14 0.63
5 10 10 0.87 0.7
-10 -5 10 0.35 0.36
10 10 5 -0.21 0.55
-10 -10 -6 0.3 0.72
-10 10 6 0.91 0.64
-10 -6 -10 0.69 0.72
10 10 -6 -0.23 0.44
6 10 -10 0.85 0.68
-6 10 10 0.82 0.85
-6 -10 -10 0.89 0.58
10 10 -6 1.07 0.5
-6 10 -10 2.11 0.9
-6 -10 10 1.61 0.78
-10 -10 6 2.22 0.81
-10 10 -6 0.14 0.71
-10 10 -6 1.93 0.74
6 10 10 0.59 0.64
-10 -6 10 0.55 0.47
10 10 6 0.85 0.48
-10 -10 -7 2.38 0.83
10 10 -7 2.86 0.66
10 10 -7 2.46 0.55
-10 -7 -10 3.42 0.85
10 7 -10 1.72 0.73
7 10 -10 2.29 0.62
-10 10 7 2.88 0.78
-7 -10 -10 2.08 0.67
-7 10 10 2.31 0.82
-7 10 -10 1.3 0.92
-7 -10 10 2.59 0.83
-10 10 -7 3.63 0.83
-10 10 -7 2.08 0.75
7 10 10 2.17 0.76
-10 -7 10 1.62 0.6
-10 -10 7 2.64 0.83
10 10 7 1.08 0.45
-10 -10 -8 5.49 0.99
10 10 -8 4.68 0.58
-10 -8 -10 4.42 0.9
8 10 -10 4.22 0.71
10 8 -10 4.15 0.61
-8 10 10 4.46 0.98
10 10 -8 5.88 0.77
-10 10 8 4.67 0.84
-8 -10 -10 5.22 0.87
-8 -10 10 4.25 0.98
-8 10 -10 4.71 1.04
-8 10 -10 6.33 1.04
-10 10 -8 5.69 0.98
-10 8 -10 5 0.97
-10 -8 10 5.63 0.98
8 10 10 4.14 0.74
-10 8 -10 5.49 0.91
-10 -10 8 4.06 0.92
-10 10 -8 4.36 0.86
10 10 8 5.12 0.67
-10 -10 -9 -0.76 0.76
9 10 -10 0.67 0.52
-10 -9 -10 0.47 0.82
10 10 -9 -0.78 0.4
10 9 -10 -0.78 0.42
-9 10 10 0.11 0.78
-9 -10 -10 -0.98 0.71
-10 10 9 -0.75 0.73
-10 10 -9 -0.16 0.84
-10 10 -9 0.49 0.82
-9 -10 10 1.16 0.86
-9 10 -10 -0.55 0.89
-9 10 -10 -0.48 0.8
-10 9 -10 -0.75 0.78
-10 -10 9 0.85 0.85
-10 9 -10 0.07 0.84
-10 -9 10 1.46 0.84
-10 -10 -10 1.56 0.84
10 10 -10 -0.44 0.49
-10 10 10 1.14 0.84
-10 10 -10 1.22 0.83
-10 10 -10 0.12 0.81
-10 -10 10 2.15 0.94
0 -11 0 405.79 11.33
0 0 11 425.73 11.21
0 11 0 421.92 11.36
0 11 0 416.86 11.36
11 0 0 423.92 11.29
0 11 1 6.6 0.7
1 0 11 7.94 0.69
11 -1 0 7.58 0.63
11 1 0 8.17 0.65
0 -11 -1 7.09 0.53
0 -11 1 6.11 0.55
0 11 -1 6.73 0.63
0 11 -1 7.05 0.74
0 11 1 7.01 0.72
-1 0 11 7.2 0.59
-11 -1 0 8.45 0.55
-2 0 11 -0.03 0.26
-2 0 11 0.21 0.21
0 -11 -2 -0.01 0.23
0 -11 2 -0.01 0.29
0 11 -2 0.21 0.45
0 11 2 -0.08 0.42
0 11 2 0.06 0.42
-11 -2 0 -0.24 0.3
11 2 0 0.21 0.42
11 -2 0 -0.04 0.31
0 11 -2 -0.36 0.43
2 0 11 0.56 0.42
-3 0 11 33.47 1.04
3 0 11 34.9 1.4
-11 -3 0 32.72 1.3
0 -11 -3 33.37 1.26
0 11 -3 35.95 1.43
0 11 3 35.58 1.44
0 11 3 30.14 1.36
11 -3 0 32.06 1.24
11 3 0 34.58 1.38
0 11 -3 31.7 1.39
-3 0 11 34.39 1.03
0 -11 3 33.35 1.36
0 11 4 4.11 0.72
0 11 4 5.15 0.66
0 11 -4 4.76 0.69
0 -11 -4 4.47 0.44
0 11 -4 3.97 0.72
0 -11 4 4.32 0.53
-11 -4 0 4.75 0.58
4 0 11 3.92 0.61
11 -4 0 4.6 0.54
11 4 0 4.72 0.62
-11 4 0 4.18 0.31
0 11 -5 193.81 5.54
0 11 5 171.15 5.7
0 11 5 196.08 5.54
0 -11 -5 198.54 5.4
11 -5 0 197.82 5.35
0 -11 5 187.72 5.54
-11 5 0 190.53 5.13
-11 -5 0 193.34 5.49
0 11 -6 130.78 4.02
-11 -6 0 131.44 3.99
0 11 -6 129.93 4
0 -11 6 130.1 4.04
0 11 6 128.55 4.02
11 -6 0 135.4 3.82
11 6 0 131.47 3.54
0 -11 -6 133.54 3.84
-11 6 0 134.78 3.66
11 7 0 0.35 0.2
11 -7 0 -0.37 0.33
0 11 -7 0.64 0.66
-11 -7 0 0.37 0.54
-11 7 0 0.86 0.41
0 -11 -7 0.1 0.25
0 -11 7 -0.68 0.47
0 11 7 0.68 0.63
-11 -8 0 18.46 1.35
0 -11 -8 19.87 0.91
0 11 -8 19.94 1.29
0 -11 8 17.76 1.29
0 11 8 18.42 1.3
-11 8 0 19.93 0.97
-11 8 0 19.46 1.02
11 8 0 19.17 0.77
11 8 0 20.95 0.76
11 -8 0 17.58 0.94
0 -11 -9 7.16 0.61
0 11 9 6.33 0.96
11 9 0 8.29 0.52
0 11 -9 7.87 1.02
0 -11 9 7.72 0.93
11 9 0 8.28 0.54
-11 9 0 7.57 1.01
-11 9 0 7.27 0.85
11 -9 0 6.51 0.71
-11 -9 0 6.36 0.94
11 10 0 38.25 1.34
0 11 -10 35.9 1.8
-11 10 0 37.35 1.53
0 -11 -10 36.86 1.44
-11 10 0 36.86 1.57
-11 -10 0 39.4 1.87
0 -11 10 36.46 1.78
0 11 10 37.33 1.86
11 10 0 37.35 1.31
11 0 -1 7.17 0.63
-1 11 0 8.1 0.75
-1 11 0 7.52 0.64
11 0 1 7.69 0.64
1 11 0 7.46 0.71
0 1 11 7.29 0.6
1 11 0 7.15 0.7
-1 -11 0 8.7 0.63
0 -1 11 8.05 0.7
1 -11 0 8.61 0.57
-11 -1 -1 16.89 0.8
11 -1 1 15.79 0.89
1 11 -1 15.64 0.93
11 1 -1 16.28 0.85
1 -1 11 17.83 0.94
-1 1 11 15.86 0.72
-1 -11 -1 16.56 0.85
1 11 -1 16.48 0.94
-1 11 1 15.48 0.94
1 -11 1 14.79 0.81
-1 11 1 16.05 0.94
-1 -1 11 16.7 0.86
-1 11 -1 16.17 0.96
11 1 1 16.71 0.91
-11 -1 1 16.58 0.72
11 -1 -1 17.41 0.84
-1 -11 1 16.11 0.86
1 -11 -1 16.4 0.79
-1 11 -1 17.35 0.96
1 11 1 17.46 0.89
1 1 11 17.79 0.87
1 11 1 15.62 0.92
-1 11 2 1.12 0.46
1 -11 2 0.57 0.3
-2 1 11 1.1 0.22
11 -2 1 1.14 0.38
11 2 -1 1.19 0.43
1 11 -2 0.78 0.47
-1 -11 -2 1.02 0.3
-2 1 11 0.97 0.19
2 -1 11 1.98 0.49
-11 -2 -1 0.96 0.34
1 11 -2 0.58 0.43
-1 11 2 0.33 0.52
-1 11 -2 0.64 0.45
11 2 1 1.77 0.47
-1 -11 2 1.35 0.34
1 11 2 0.73 0.42
2 1 11 0.9 0.41
-2 -1 11 1.28 0.35
-2 -1 11 1.13 0.28
1 11 2 0.97 0.46
1 -11 -2 1.44 0.27
11 -2 -1 1.36 0.34
-1 11 -2 0.41 0.46
-11 -2 1 1.2 0.33
3 -1 11 7.25 0.74
11 -3 1 4.45 0.59
1 11 -3 5.43 0.66
-1 11 3 5.14 0.64
-1 -11 -3 5.72 0.56
-1 11 3 5.57 0.72
-11 -3 -1 5.31 0.6
1 11 -3 6.17 0.67
11 3 -1 5.36 0.7
1 11 3 6.12 0.66
11 -3 -1 5.73 0.56
-1 11 -3 4.93 0.69
3 1 11 7.33 0.76
11 3 1 5.25 0.69
1 -11 -3 5.29 0.43
1 11 3 5.38 0.68
-11 3 -1 5.3 0.22
-11 3 -1 5.81 0.24
-1 -11 3 4.61 0.6
-1 11 -3 4.99 0.71
-3 -1 11 5.93 0.5
-3 -1 11 5.32 0.43
-11 -3 1 5.87 0.61
1 11 -4 53.5 1.88
-11 -4 -1 51.49 1.83
11 -4 1 53.07 1.77
-1 -11 -4 48.86 1.75
-11 4 1 51.08 1.45
11 4 -1 50.79 1.88
-1 11 4 53.69 1.93
-1 11 4 54.06 1.96
4 -1 11 54.09 1.9
1 11 -4 50.31 1.89
-4 -1 11 52.37 1.52
-11 -4 1 52.49 1.81
1 11 4 52.46 1.88
-4 -1 11 51.61 1.53
11 4 1 55.94 2.12
1 11 4 52.71 1.88
-11 4 -1 50.17 1.48
-1 11 -4 50.08 1.93
1 -11 -4 51.99 1.71
11 -4 -1 50.87 1.69
4 1 11 53.9 1.9
-1 -11 4 48.22 1.86
-1 11 -4 51.28 1.92
11 -5 1 6.09 0.62
1 11 -5 5.59 0.73
-1 11 5 5.97 0.76
-11 5 1 5.16 0.42
-1 -11 -5 5.46 0.5
-11 -5 -1 5.7 0.7
-1 11 5 5.35 0.84
-1 11 -5 5.45 0.8
5 1 11 7.45 0.81
1 -11 -5 5.79 0.46
-11 5 -1 5.85 0.47
-1 -11 5 5.84 0.71
-11 -5 1 6.31 0.77
1 11 5 5.4 0.92
11 -5 -1 5.36 0.56
-1 11 -5 5.5 0.84
1 11 5 5.19 0.72
-11 6 1 1.54 0.37
-11 -6 -1 1.8 0.64
1 11 -6 2.17 0.66
1 11 -6 1.47 0.64
11 -6 1 1.58 0.42
11 6 -1 1.44 0.18
-1 -11 -6 1.62 0.34
11 6 -1 1.44 0.19
-1 11 6 1.07 0.65
1 -11 -6 1.85 0.27
11 6 1 1.46 0.23
-1 11 -6 1.54 0.67
-1 11 -6 0.89 0.66
-11 -6 1 1.41 0.57
-11 6 -1 1.48 0.38
11 -6 -1 1.43 0.36
-1 -11 6 1.17 0.51
1 11 6 1.48 0.57
-11 6 -1 1.93 0.38
1 11 -7 15.31 1.13
11 7 -1 14.49 0.57
11 -7 1 12.72 0.83
-1 11 7 14.62 1.02
-11 7 1 13.45 0.77
-11 -7 -1 12.02 1.14
11 7 -1 14.68 0.58
-1 -11 -7 13.08 0.77
-11 -7 1 14.23 1.12
11 7 1 13.91 0.59
-11 7 -1 13.96 0.79
11 -7 -1 13.64 0.78
-1 -11 7 14.24 1.07
-1 11 -7 12.77 1.11
-11 7 -1 13.12 0.8
1 11 7 13.47 1.1
1 -11 -7 14.59 0.69
-11 8 1 5.31 0.6
1 11 -8 4.49 0.84
11 8 -1 3.93 0.42
11 -8 1 3.53 0.57
-1 11 8 5 0.89
11 8 -1 4.89 0.4
-1 -11 -8 4.88 0.54
11 8 1 4.49 0.42
-1 11 -8 4.18 0.85
1 -11 -8 4.45 0.44
-11 8 -1 4.94 0.64
-1 -11 8 3.61 0.75
1 11 8 3.64 0.82
11 -8 -1 4.84 0.61
-11 -8 1 5.17 0.83
-11 8 -1 5.71 0.63
11 9 -1 15.68 0.7
-1 11 9 13.95 1.21
1 11 -9 12.65 1.19
-11 -9 -1 12.42 1.3
11 9 -1 14.27 0.67
-1 -11 -9 12.11 0.79
-11 9 1 12.9 0.95
-1 11 -9 11.87 1.2
1 -11 -9 13.55 0.74
11 -9 -1 13.9 0.83
11 9 1 14.63 0.69
-1 -11 9 14.14 1.16
-11 -9 1 12.61 1.29
-11 9 -1 11.7 1.22
-11 9 -1 13.62 0.96
1 11 9 14.36 1.22
-1 -11 -10 5.9 0.64
-1 11 10 6 1.03
-11 10 1 7.68 0.83
1 11 -10 5.96 1.01
11 10 -1 6.38 0.59
-11 -10 -1 6.06 0.92
11 10 -1 6.93 0.58
1 11 10 6.02 0.97
-11 10 -1 7.32 0.79
-1 -11 10 6.24 0.92
-11 -10 1 6.62 0.95
11 -10 -1 5.62 0.57
11 10 1 6.85 0.6
-1 11 -10 6.14 0.96
1 -11 -10 6.37 0.59
-11 10 -1 6.31 0.81
0 2 11 0.05 0.28
2 11 0 0.23 0.38
2 11 0 -0.54 0.38
2 -11 0 0.14 0.24
11 0 -2 0.27 0.33
0 -2 11 -0.3 0.39
11 0 2 0.52 0.41
-2 -11 0 0.09 0.25
-2 11 0 -0.06 0.45
-2 11 0 0.42 0.48
-1 2 11 0.98 0.22
11 1 -2 1.31 0.38
11 -1 2 1.34 0.4
2 11 -1 0.84 0.44
2 11 -1 1.35 0.46
-11 -1 -2 1.31 0.36
1 -2 11 -0.04 0.47
-2 -11 -1 0.41 0.3
-2 11 1 1.05 0.52
-2 11 1 0.96 0.42
2 -11 -1 0.77 0.23
-1 -2 11 0.51 0.42
1 2 11 0.67 0.41
-2 11 -1 1.29 0.53
-11 -1 2 1.05 0.24
11 -1 -2 0.7 0.31
-2 -11 1 1.21 0.35
2 11 1 1.07 0.35
11 1 2 0.95 0.41
-2 11 -1 0.87 0.49
2 11 1 0.45 0.42
-11 -2 -2 15.14 0.87
-2 -11 -2 15.06 0.81
-2 11 2 15.19 0.97
2 11 -2 13.41 0.86
11 2 -2 15.8 0.86
2 11 -2 15.17 0.89
-2 11 2 14.29 0.99
11 -2 2 14.16 0.85
2 -2 11 14.95 0.96
11 2 2 15.34 0.91
-2 11 -2 16.86 0.97
2 11 2 14.76 0.88
2 11 2 13.42 0.87
11 -2 -2 14.26 0.75
-11 -2 2 15.31 0.71
2 -11 -2 14.17 0.7
-2 -11 2 14.7 0.84
-2 -2 11 15.16 0.75
2 2 11 14.84 0.85
-2 11 -2 13.44 0.87
-2 -2 11 14.27 0.85
2 11 -3 16.77 0.96
11 -3 2 17.71 0.92
11 3 -2 16.8 0.93
-2 11 3 16.29 1.02
-2 11 3 15.35 1.06
-11 -3 -2 17.67 0.96
2 11 -3 16.95 0.96
3 -2 11 17.71 1
-2 -11 -3 17.26 0.87
-3 -2 11 18.32 0.8
3 2 11 17.74 0.98
-11 3 -2 17.77 0.58
11 3 2 16.39 1.02
-2 11 -3 16.36 1.04
-2 -11 3 17.6 0.96
-2 11 -3 16.94 1.08
11 -3 -2 17.19 0.8
2 11 3 17.07 0.96
-11 -3 2 18.04 0.86
2 -11 -3 17.6 0.77
2 11 3 16.58 0.92
-3 -2 11 17.32 0.85
2 11 -4 23.75 1.17
-2 -11 -4 22.66 1.03
11 4 -2 25.61 1.19
2 11 -4 23.17 1.17
-11 4 2 24.53 0.76
-2 11 4 22.8 1.29
-2 11 4 23.17 1.23
-11 -4 -2 23.82 1.15
11 -4 2 24.26 1.1
4 -2 11 24.13 1.25
-2 11 -4 23 1.25
-11 -4 2 23.65 1.08
-4 -2 11 23.72 0.95
-11 4 -2 23.2 0.81
2 -11 -4 22.81 0.92
2 11 4 24.56 1.2
-2 11 -4 21.13 1.4
-2 -11 4 24.35 1.14
4 2 11 25.39 1.22
2 11 4 21.61 1.1
-4 -2 11 24.24 0.91
11 -4 -2 23.94 0.95
-2 -11 -5 6.58 0.59
-2 11 5 8.59 0.92
-2 11 5 8.08 0.93
-11 5 2 8.16 0.47
-11 -5 -2 7.46 0.91
11 -5 2 6.65 0.7
11 5 -2 8.02 0.34
2 11 -5 8.29 0.83
2 11 5 6.98 0.74
-2 -11 5 7.26 0.78
-5 -2 11 8.39 0.53
-11 -5 2 7.56 0.76
-11 5 -2 7.26 0.53
-2 11 -5 7.04 0.89
-2 11 -5 8.15 0.96
11 -5 -2 7.34 0.55
-5 -2 11 8.31 0.49
5 2 11 7.21 0.92
-11 5 -2 7.62 0.51
2 -11 -5 8.36 0.51
2 11 5 6.97 0.85
-2 -11 -6 -0.15 0.25
-11 -6 -2 0.94 0.56
-2 11 6 -0.54 0.61
11 6 -2 0.29 0.17
11 6 -2 0.12 0.18
2 11 -6 0.24 0.61
-11 6 2 0.19 0.33
2 11 -6 -0.44 0.56
11 -6 2 0.5 0.39
-11 6 -2 0.53 0.36
11 -6 -2 0.18 0.27
-2 11 -6 1.22 0.64
-2 11 -6 -0.15 0.61
2 -11 -6 -0.36 0.18
-11 -6 2 0.09 0.46
-2 -11 6 0.24 0.52
-11 6 -2 -0.33 0.36
-6 -2 11 0.27 0.28
2 11 6 -0.49 0.5
2 11 -7 10.72 1.02
11 -7 2 11.7 0.84
-11 7 2 11.68 0.71
11 7 -2 10.65 0.51
-2 11 7 10.63 1.07
11 7 -2 11.02 0.52
-11 -7 -2 11.26 1.12
-2 -11 -7 10.4 0.7
-11 7 -2 9.55 0.74
11 -7 -2 11.89 0.66
-2 11 -7 11.38 1.1
2 -11 -7 10.06 0.57
-11 -7 2 12.32 1.06
2 11 7 9.37 1.01
-2 11 -7 11.38 1.1
-11 7 -2 10.48 0.77
-2 -11 7 11.98 1.09
11 7 2 11.14 0.54
11 8 -2 12.07 0.61
-2 11 8 13.68 1.2
-11 -8 -2 11.43 1.12
11 8 -2 13.73 0.63
-2 -11 -8 12.77 0.8
2 11 -8 12.06 1.15
-11 8 2 12.39 0.84
-11 8 -2 12.99 0.91
2 -11 -8 12.78 0.65
11 -8 -2 12.73 0.73
-11 -8 2 13.64 1.16
-11 8 -2 13.61 0.87
2 11 8 13.82 1.14
-2 11 -8 13.95 1.17
11 8 2 12.84 0.63
-2 -11 8 11.39 1.2
-11 9 2 7.77 0.83
2 11 -9 9.51 1.1
-2 -11 -9 9.18 0.76
11 9 -2 9.18 0.56
11 9 -2 7.61 0.55
-11 -9 -2 9.87 1.12
-2 11 9 8.54 1.05
2 11 9 8 1.03
2 -11 -9 8.77 0.56
-11 9 -2 8.04 1
-2 11 -9 9.41 1.05
-11 9 -2 8.33 0.87
-2 -11 9 8.08 1.02
11 9 2 9.51 0.6
11 -9 -2 9.42 0.7
-11 -9 2 7.74 0.97
-11 10 2 7.62 0.92
11 10 -2 6.6 0.63
11 10 -2 6.53 0.61
-11 -10 -2 9.03 1.06
-2 11 10 7.01 1.09
2 11 -10 8.08 1.07
-2 -11 -10 7.38 0.8
11 10 2 6.56 0.58
-2 -11 10 6.87 0.96
-2 11 -10 7.62 1.1
-11 10 -2 9.11 0.92
-11 -10 2 9.34 1.09
2 -11 -10 7.78 0.59
2 11 10 6.93 1.05
-11 10 -2 8.85 1.07
3 11 0 32.96 1.34
3 11 0 34.31 1.35
11 0 -3 33.51 0.92
0 -3 11 34.61 1.4
-3 -11 0 31.69 1.35
11 0 3 34.16 1.38
0 3 11 33.63 1.1
-3 11 0 33.81 1.45
-3 11 0 35.87 1.46
0 -3 -11 33.82 1.24
11 0 -3 34.25 1.27
-11 -1 -3 5.54 0.63
-3 11 1 6.08 0.66
1 -3 11 5.14 0.65
3 11 -1 5.75 0.67
-3 11 1 5.44 0.74
-1 -3 -11 4.7 0.48
11 1 -3 6.55 0.61
11 -1 3 5.53 0.64
3 11 -1 5.08 0.62
-3 -11 -1 5.69 0.55
-11 1 -3 5.51 0.25
-3 -11 1 4.53 0.56
-3 11 -1 6.98 0.78
3 11 1 4.87 0.6
11 -1 -3 5.47 0.28
-11 1 -3 5.74 0.25
-1 -3 11 6.58 0.74
-3 11 -1 5.85 0.73
11 -1 -3 6.22 0.54
3 11 1 5.18 0.62
1 3 11 5.59 0.54
11 1 3 5.36 0.66
3 11 -2 17.51 0.94
11 -2 3 17.13 0.93
-3 11 2 18.34 1.1
-11 -2 -3 17.52 0.96
3 11 -2 17.98 0.93
2 -3 11 19.27 1.02
-2 -3 -11 16.07 0.85
11 2 -3 16.32 0.91
-3 -11 -2 17.07 0.88
-3 11 2 16.08 1.04
-11 -2 3 18.06 0.73
11 -2 -3 18.04 0.82
-3 11 -2 17.33 1.06
3 11 2 16.41 0.93
11 2 3 18.13 1.03
-2 -3 11 18.29 0.9
11 -2 -3 16.8 0.6
3 -11 -2 17.94 0.76
3 11 2 15.89 0.9
-2 -3 11 18.59 0.94
2 3 11 16.64 0.9
-3 11 -2 17.58 1.09
-11 2 -3 17.01 0.59
-3 -11 2 17.38 0.95
3 11 -3 12.7 0.85
3 11 -3 14.5 0.85
-3 11 3 12.46 1.04
-3 -11 -3 12.96 0.8
-3 11 3 13.12 0.97
-3 -3 -11 13.82 0.77
3 -3 11 13.66 0.97
-11 -3 -3 14.53 0.9
11 3 -3 14.07 0.44
11 -3 3 14.57 0.87
11 3 -3 14.14 0.89
-3 -3 11 15.16 0.84
-11 -3 3 14.23 0.74
11 -3 -3 13.91 0.69
-3 11 -3 13.69 1.03
3 11 3 13.28 0.81
3 11 3 14.81 0.89
11 -3 -3 11.21 0.55
-3 -3 11 13.96 0.78
-11 3 -3 14.37 0.57
-3 -11 3 13.26 0.84
3 -11 -3 14.03 0.65
-11 3 -3 13.82 0.46
3 3 11 12.24 0.86
-3 11 -3 12.99 1
-3 11 4 4.73 0.98
3 11 -4 6.24 0.68
-4 -3 -11 4.79 0.56
11 4 -3 5.31 0.67
11 4 -3 4.35 0.27
-3 11 4 4.79 0.77
-3 -11 -4 4.71 0.54
3 11 -4 5.34 0.7
-11 -4 -3 5.33 0.69
11 -4 3 4.43 0.59
11 -4 -3 4.79 0.47
-11 -4 3 5.59 0.63
-11 4 -3 4.97 0.44
-4 -3 11 5.32 0.55
-11 4 -3 4.92 0.39
3 11 4 5.89 0.73
4 3 11 5.53 0.68
3 11 4 3.94 0.57
-3 11 -4 4.92 0.77
3 -11 -4 5.53 0.39
-4 -3 11 4.14 0.8
-3 -11 4 5.97 0.68
-3 -11 -5 14.72 0.87
11 5 -3 16.1 0.58
3 11 -5 17.97 1.03
-5 -3 -11 14.91 0.88
11 -5 3 14.24 0.92
-11 5 3 15.69 0.67
-3 11 5 15.47 1.18
-11 -5 -3 15.58 1.05
-11 5 -3 15.45 0.72
3 11 5 13.42 1.01
-5 -3 11 15.58 0.78
5 3 11 17.11 1.09
-3 -11 5 15.21 1.05
11 -5 -3 14.86 0.71
-11 5 -3 15.33 0.69
-11 -5 3 15.06 0.96
-5 -3 11 14.87 0.82
-3 11 -5 15.99 1.14
3 -11 -5 15.98 0.68
-3 11 -5 15.89 1.15
11 -6 3 17.59 1.13
3 11 -6 15.95 1.08
-11 6 3 16.98 0.76
11 6 -3 16.28 0.65
3 11 -6 16.75 1.07
-6 -3 -11 16.7 1
-3 11 6 17.08 1.19
-3 -11 -6 15.39 0.89
-11 -6 -3 17.11 1.14
11 6 -3 16.81 0.6
-11 -6 3 16.37 1.07
-3 -11 6 16.68 1.21
11 -6 -3 15.59 0.73
-11 6 -3 16.8 0.79
-6 -3 11 16.1 0.8
-6 -3 11 16.94 0.75
-11 6 -3 16.55 0.82
3 -11 -6 16.97 0.71
-3 11 -6 15.4 1.18
3 11 6 16.16 1.09
-3 11 -6 17.06 1.19
-3 11 7 -0.55 0.65
11 7 -3 0.24 0.24
-3 -11 -7 0.67 0.35
11 7 -3 0.5 0.25
-11 7 3 0.91 0.42
3 11 -7 0.03 0.57
-11 -7 -3 -0.27 0.59
-7 -3 -11 0.07 0.55
-3 11 -7 1.45 0.76
-7 -3 11 0.13 0.27
3 11 7 -0.54 0.58
-11 7 -3 0.48 0.46
-11 7 -3 0.36 0.45
-3 11 -7 0.16 0.68
11 7 3 0.47 0.26
-11 -7 3 0.21 0.53
11 -7 -3 -0.28 0.27
-7 -3 11 0.3 0.24
3 -11 -7 0.56 0.21
3 11 -8 33.62 1.6
-3 -11 -8 32.77 1.4
11 8 -3 32.94 1.13
-11 -8 -3 32.88 1.73
-3 11 8 33.99 1.65
11 8 -3 33.7 1.16
-8 -3 -11 32.32 1.61
-11 8 3 35.38 1.33
-3 11 -8 33.85 1.68
3 -11 -8 32.9 1.17
3 11 8 32.69 1.61
-11 8 -3 33.07 1.34
-11 8 -3 35.7 1.37
-3 -11 8 35.37 1.73
-11 -8 3 32.86 1.63
11 8 3 33.65 1.17
11 -8 -3 34.15 1.2
-3 11 9 16.26 1.33
-11 -9 -3 14.02 1.24
-11 9 3 15.02 0.98
-9 -3 -11 14.2 1.16
11 9 -3 15.19 0.74
11 9 -3 15.87 0.76
3 11 -9 14.47 1.21
-3 -11 -9 16.14 1.02
-11 -9 3 14.83 1.27
-11 9 -3 15.62 1.06
-3 11 -9 14.35 1.3
11 9 3 14.84 0.75
11 -9 -3 13.68 0.76
3 -11 -9 14.62 0.68
-3 -11 9 12.94 1.19
3 11 9 13.13 1.22
-11 9 -3 14.74 1.04
3 11 -10 6.02 0.93
11 10 -3 5.15 0.59
-11 10 3 6.29 0.82
-11 -10 -3 5.92 0.99
-3 11 10 5.63 1.07
3 11 10 5.93 0.99
3 -11 -10 6.25 0.51
-3 11 -10 4.59 1.02
11 10 3 6.32 0.59
-11 10 -3 6.12 0.78
-3 -11 10 6.43 1.01
-11 -10 3 5.65 0.93
4 11 0 4.93 0.61
-4 11 0 4.24 0.69
11 0 4 4.43 0.63
-4 -11 0 4.94 0.61
11 0 -4 4.95 0.31
11 0 -4 4.79 0.55
4 11 0 4.36 0.56
-4 11 0 5.15 0.73
0 -4 11 4.49 0.62
0 4 11 4.5 0.32
0 -4 -11 4.67 0.42
-4 11 1 50.57 1.88
-4 -11 -1 48.02 1.82
-11 -1 -4 49.13 1.8
11 1 -4 50.9 1.73
-4 11 1 51.4 1.89
4 11 -1 51.15 1.78
4 11 -1 50.6 1.78
1 -4 11 54.61 1.92
11 -1 4 50.21 1.86
11 1 -4 51.88 1.45
-1 -4 -11 49.95 1.74
11 1 4 48.16 2.03
-11 1 -4 50.83 1.47
4 11 1 50.75 1.8
-4 -11 1 50.72 1.88
11 -1 -4 51.09 1.67
-1 -4 11 53.21 1.84
-4 11 -1 52.2 1.9
1 -4 -11 53.3 1.68
-4 11 -1 52.61 1.9
1 4 11 51 1.58
11 -1 -4 49.63 1.47
4 11 1 50.73 1.77
-4 -11 -2 23.47 1.11
4 11 -2 24.06 1.1
-11 -2 -4 24.1 1.18
-4 11 2 22.62 1.23
-4 11 2 24.23 1.27
11 2 -4 25.37 1.08
11 -2 4 23.46 1.17
-2 -4 -11 23.58 1.03
2 -4 11 23.56 1.22
4 11 -2 23.98 1.08
4 11 2 24.74 1.11
-11 -2 4 24.64 0.84
-11 2 -4 23.53 0.82
2 -4 -11 24.85 0.92
4 11 2 22.89 1.06
-4 -11 2 22.25 1.12
2 4 11 21.79 1.41
11 -2 -4 23.54 0.94
-2 -4 11 24.66 1.16
-2 -4 11 22.69 1.1
-4 11 -2 24.4 1.27
-4 11 -2 22.48 1.23
4 11 -3 5.49 0.64
-4 11 3 5.36 0.77
11 3 -4 4.47 0.57
-4 -11 -3 5.64 0.63
11 -3 4 5.71 0.76
-3 -4 -11 5.06 0.55
-11 -3 -4 4.74 0.67
4 11 -3 4.77 0.59
-4 11 3 5.05 0.81
-3 -4 11 5.29 0.7
-11 -3 4 4.39 0.51
11 -3 -4 5.72 0.49
-4 -11 3 5.49 0.67
-3 -4 11 4.12 0.58
-4 11 -3 5.68 0.86
3 4 11 4.17 0.56
-11 3 -4 4.99 0.44
4 11 3 4.22 0.6
-11 3 -4 4.98 0.34
4 11 3 4.74 0.56
4 -11 -3 4.7 0.38
-4 11 -3 4.59 0.74
11 4 -4 62.72 1.65
-4 -11 -4 59.16 2.09
-11 -4 -4 59.25 2.19
4 11 -4 60.05 2.08
-4 11 4 61.24 2.2
4 11 -4 60.02 2.08
11 4 -4 68.07 2.7
11 4 -4 60.21 1.73
-4 -4 -11 58.42 2.08
-11 4 -4 60.27 1.76
-4 -11 4 58.66 2.17
-11 4 -4 60.05 1.81
-4 11 -4 60.57 2.21
-4 -4 11 61.41 1.99
4 -11 -4 60.21 1.86
-11 -4 4 61.58 1.95
4 11 4 58.7 2.11
4 11 4 61.33 2.05
11 -4 -4 58.68 1.82
4 4 11 62.94 2.06
-4 11 -4 51.6 2.35
11 5 -4 15.32 0.62
4 11 -5 14.78 0.96
-11 5 4 16.51 0.72
-4 -11 -5 15.46 0.91
-5 -4 -11 13.53 0.89
11 5 -4 14.8 0.53
-11 -5 -4 15.28 1.08
-4 11 5 14.99 1.15
4 -11 -5 14.95 0.65
11 -5 -4 14.9 0.68
-4 -11 5 16.54 1.17
-5 -4 11 14.66 0.94
-11 5 -4 14.29 0.76
-4 11 -5 16.01 1.17
-4 11 -5 16.4 1.14
5 4 11 15.69 1.06
-11 5 -4 15.28 0.72
-11 -5 4 15.67 0.95
4 11 5 14.95 1.01
-5 -4 11 15.07 0.87
-11 -6 -4 14.93 1.23
-4 -11 -6 14.79 0.9
11 6 -4 15.24 0.59
-6 -4 -11 15.49 0.99
-11 6 4 15.21 0.79
4 11 -6 14.68 1.03
4 11 -6 14.53 1.03
-4 11 6 15.96 1.19
11 6 -4 16.85 0.67
4 11 6 14.67 1.04
-4 -11 6 15.31 1.19
-4 11 -6 14.84 1.18
6 4 11 15.44 1.34
-6 -4 11 16.97 0.87
-11 6 -4 15.28 0.83
4 -11 -6 15.12 0.65
-11 6 -4 15.53 0.81
-11 -6 4 15.86 1.02
-4 11 -6 15.71 1.17
11 -6 -4 15.1 0.67
11 7 -4 37.67 1.26
4 11 -7 38.28 1.61
-11 -7 -4 35.15 1.98
-4 -11 -7 36.36 1.55
11 7 -4 37.51 1.2
-4 11 7 37.91 1.71
-11 7 4 37.91 1.36
-11 -7 4 36.21 1.61
-11 7 -4 37.36 1.39
4 11 7 39.56 1.64
11 -7 -4 37.08 1.23
-4 -11 7 36.93 1.8
-11 7 -4 38.79 1.43
-4 11 -7 37.41 1.76
4 -11 -7 37.33 1.24
-7 -4 11 37.24 1.31
-4 11 -7 37.8 1.74
-11 8 4 1.15 0.54
-4 11 8 1.29 0.79
-4 -11 -8 2.48 0.57
11 8 -4 2.48 0.37
4 11 -8 1.69 0.66
11 8 -4 2.04 0.34
-11 -8 -4 2.55 0.73
-8 -4 -11 1.92 0.65
4 11 8 1.36 0.68
4 -11 -8 2.62 0.32
-11 8 -4 1.69 0.61
-4 11 -8 1.77 0.79
-4 -11 8 1.36 0.7
-4 11 -8 1.48 0.8
-11 -8 4 1.72 0.68
-11 8 -4 2.11 0.62
-8 -4 11 1.66 0.34
11 8 4 2.19 0.38
11 -8 -4 2.06 0.31
-8 -4 11 1.75 0.48
-4 11 9 23.3 1.57
-11 -9 -4 23.61 1.48
-11 9 4 25.09 1.22
-9 -4 -11 24.96 1.51
11 9 -4 25.09 1.03
11 9 -4 25.34 0.97
4 11 -9 22.67 1.41
4 11 9 24.89 1.42
-4 -11 9 23.64 1.48
11 9 4 23.94 1.01
-4 11 -9 23.93 1.5
-11 9 -4 23.54 1.22
-11 9 -4 22.98 1.25
-11 -9 4 22.98 1.48
4 -11 -9 25.02 0.92
-4 -11 -10 17.61 1.13
-10 -4 -11 16.51 1.3
11 10 -4 17.05 0.83
11 10 -4 16.99 0.86
4 11 -10 18.14 1.32
-11 -10 -4 18.75 1.39
-4 11 10 16.99 1.44
4 -11 -10 18.21 0.75
4 11 10 17.92 1.35
-11 10 -4 15.8 1.19
11 10 4 16.98 0.95
-11 10 -4 16.73 1.13
-4 11 -10 16.09 1.47
-11 -10 4 17.67 1.42
-4 -11 10 16.44 1.37
5 11 0 197.64 5.52
-5 11 0 195.74 5.6
-5 -11 0 190.48 5.65
5 11 0 191.64 5.5
0 -5 -11 189.43 5.45
0 -5 11 202.09 5.58
-5 11 0 193.94 5.58
11 0 -5 197.11 5.43
-5 11 1 6.95 0.83
-11 -1 -5 6.98 0.8
5 11 -1 6.2 0.64
11 1 -5 5.22 0.63
1 -5 11 4.68 0.78
-5 -11 -1 5.64 0.68
5 11 -1 5.81 0.64
-1 -5 -11 5.09 0.49
-5 11 1 5.71 0.79
-11 1 -5 5.48 0.25
-1 -5 11 6.49 0.75
1 -5 -11 6.46 0.45
-5 -11 1 5.52 0.72
5 11 1 5.55 0.63
11 -1 -5 6.31 0.56
5 11 1 6.33 0.68
1 5 11 5.62 0.46
-5 11 -1 6.12 0.76
-5 11 -1 6.52 0.85
-11 1 -5 6.2 0.26
-5 -11 -2 8.08 0.7
5 11 -2 7.83 0.69
11 2 -5 7.06 0.68
-5 11 2 7.71 0.87
-5 11 2 7.95 0.95
-2 -5 -11 6.91 0.57
-11 -2 -5 6.96 0.81
5 11 -2 8.3 0.66
5 11 2 7.85 0.69
-5 11 -2 7.99 0.96
-2 -5 11 7.02 0.79
2 5 11 6.56 0.64
-5 -11 2 8.37 0.79
2 -5 -11 7.67 0.48
-11 2 -5 8.27 0.4
-5 11 -2 7.58 0.92
5 11 2 7.39 0.61
11 -2 -5 7.77 0.57
-2 -5 11 8.72 0.85
-5 -11 -3 15.78 0.94
-3 -5 -11 14.88 0.83
5 11 -3 16.22 0.87
-5 11 3 16.41 1.16
-5 11 3 17.77 1.17
5 11 -3 14.73 0.87
-11 -3 -5 16.34 1.05
11 3 -5 15.24 0.92
11 -3 -5 15.13 0.72
3 -5 -11 16.32 0.68
-11 3 -5 15.74 0.64
-3 -5 11 15.47 0.98
-5 -11 3 15.02 1.02
5 11 3 15.94 0.92
5 11 3 15.76 0.83
-5 11 -3 16.2 1.15
-11 3 -5 15.3 0.73
-11 -3 5 16.12 0.71
3 5 11 14.91 0.91
-3 -5 11 15.43 1.05
5 11 -4 14.31 0.93
-4 -5 -11 14.56 0.86
11 4 -5 15.06 0.51
5 11 -4 13.66 0.87
-5 11 4 13.2 1.41
-5 -11 -4 14.71 0.94
-11 -4 -5 15.16 1.14
-5 11 4 15.36 1.17
4 5 11 16.6 0.98
11 -4 -5 14.55 0.67
-4 -5 11 13.82 0.95
-11 -4 5 13.26 0.79
5 -11 -4 15.32 0.63
5 11 4 13 1.08
-5 -11 4 14.23 1.08
-5 11 -4 15.42 1.16
-5 11 -4 14.23 1.09
5 11 4 14.59 0.86
-11 4 -5 14.85 0.76
-11 4 -5 15.49 0.69
-4 -5 11 14.21 1
11 5 -5 149.58 4.13
-5 11 5 157.41 4.6
5 11 -5 153.85 4.52
-5 -11 -5 151.15 4.59
-11 -5 -5 155.54 4.67
-5 -5 -11 147.8 4.57
-5 -5 11 149.44 4.57
-5 11 -5 157.34 4.61
-5 -11 5 153.37 4.69
-11 -5 5 154.76 4.4
11 -5 -5 152.02 4.21
5 11 5 152.49 4.52
5 5 11 158.53 4.51
-11 5 -5 154.63 4.3
5 -11 -5 153.26 4.26
-5 11 -5 158.35 4.61
-11 5 -5 152.04 4.24
5 11 -6 76.06 2.61
5 11 -6 81.6 2.62
-6 -5 -11 78.51 2.72
-11 6 5 81.44 2.39
-5 11 6 84.57 2.74
-5 -11 -6 75.7 2.66
11 6 -5 78.99 2.33
11 6 -5 76.9 2.25
-6 -5 11 79.2 2.5
-5 11 -6 79.55 2.73
5 11 6 79.39 2.63
-5 11 -6 75.55 2.71
5 -11 -6 78.72 2.31
-11 6 -5 80.11 2.4
-11 -6 5 79.54 2.57
-11 6 -5 82.81 2.45
-5 -11 -7 3.54 0.68
5 11 -7 3.38 0.66
-11 -7 -5 4.44 0.82
11 7 -5 3.68 0.44
5 11 -7 4.35 0.76
-7 -5 -11 3.97 0.75
11 7 -5 3.76 0.39
-5 11 7 3.71 0.83
-11 7 5 3.55 0.58
-5 -11 7 3.83 0.84
-11 -7 5 4.12 0.68
-5 11 -7 3.64 0.84
5 -11 -7 4.1 0.33
-5 11 -7 3 0.83
5 11 7 4.52 0.77
-7 -5 11 3.72 0.65
-11 7 -5 3.9 0.62
-7 -5 11 4.56 0.56
-11 7 -5 4.12 0.63
-11 8 5 32.94 1.32
-5 11 8 29.88 1.62
-11 -8 -5 32.43 1.75
-8 -5 -11 31.85 1.61
-5 -11 -8 30.02 1.61
5 11 -8 32.56 1.53
11 8 -5 31.55 1.2
11 8 -5 31.5 1.12
11 8 5 32.69 1.19
5 -11 -8 32.43 1.06
-5 11 -8 33.06 1.65
-5 -11 8 32.15 1.65
5 11 8 32.61 1.52
-11 8 -5 31.32 1.4
-8 -5 11 31.93 1.25
-5 11 -8 31.25 1.64
-11 -8 5 31.49 1.58
11 -8 -5 29 1.05
11 9 -5 3.37 0.64
-9 -5 -11 2.51 0.81
-5 11 9 4.13 0.9
5 11 -9 2.14 0.73
11 9 -5 4.55 0.52
-11 -9 -5 3.06 0.84
-5 -11 -9 3.52 0.7
-11 9 5 3.54 0.69
-5 11 -9 4.93 0.98
11 9 5 4.37 0.52
5 -11 -9 5.25 0.38
-9 -5 11 3.14 0.43
-11 -9 5 3.43 0.8
-5 -11 9 4.41 0.83
5 11 9 3.75 0.8
-11 9 -5 4.96 0.73
5 11 -10 8.01 0.98
-11 -10 -5 7.09 1.04
11 10 -5 7.96 0.7
11 10 -5 8.09 0.58
-10 -5 -11 9.31 1.19
-11 10 5 9.74 1.11
-5 -11 -10 7.92 1.05
-5 11 10 9.74 1.17
-5 -11 10 6.5 0.98
11 10 5 7.72 0.89
-5 11 -10 7.61 1.12
-11 10 -5 8.23 0.91
-11 -10 5 9.02 1.07
5 11 10 8.03 1.01
5 -11 -10 9.58 0.47
-11 10 -5 10.05 1.05
6 11 0 140.89 3.95
-6 11 0 137.56 4.05
6 11 0 132.63 3.93
-6 -11 0 130.86 4.11
0 -6 -11 130.96 3.9
-6 11 0 134.05 4.05
11 0 -6 135.01 3.86
-6 11 1 1.8 0.66
-6 11 1 1.66 0.7
11 1 -6 1.99 0.42
-1 -6 -11 1.24 0.29
-6 -11 -1 1.67 0.49
6 11 -1 1.77 0.49
6 11 -1 1.23 0.41
-11 -1 -6 1.86 0.58
6 11 1 0.82 0.39
1 6 11 1.21 0.2
-6 -11 1 0.92 0.52
-6 11 -1 1.18 0.71
11 -1 -6 1.7 0.36
1 -6 -11 1.5 0.27
-6 11 -1 1.78 0.66
6 11 1 0.88 0.43
-6 11 2 -0.2 0.58
6 11 -2 0.27 0.41
11 2 -6 -0.09 0.17
-6 -11 -2 0.27 0.44
-6 11 2 -0.05 0.67
11 2 -6 -0.13 0.41
-11 -2 -6 0.04 0.48
-2 -6 -11 -0.48 0.21
6 11 -2 1.37 0.39
6 11 2 0.42 0.35
-11 2 -6 0.2 0.28
6 11 2 -0.19 0.4
11 -2 -6 -0.36 0.25
-6 11 -2 -0.18 0.59
2 6 11 -0.36 0.33
-6 -11 2 0.02 0.47
-6 11 -2 -0.32 0.78
2 -6 -11 -0.12 0.19
-2 -6 11 -0.78 0.46
-3 -6 -11 15.41 0.84
-6 11 3 16.81 1.13
6 11 -3 15.51 0.9
11 3 -6 15.98 0.58
-6 -11 -3 16.13 1.06
11 3 -6 15.85 0.98
-11 -3 -6 16.79 1.12
6 11 -3 14.78 0.86
3 -6 -11 17.25 0.7
-6 -11 3 15.43 1.12
-6 11 -3 16.85 1.17
-11 -3 6 16.8 0.66
6 11 3 16.24 0.99
6 11 3 16.5 0.84
3 6 11 16.32 0.95
-3 -6 11 15.84 1.01
-6 11 -3 16.4 1.34
11 -3 -6 16.19 0.72
-11 3 -6 15.84 0.72
6 11 -4 15.28 0.93
6 11 -4 16.79 0.96
-6 11 4 15.05 1.16
-6 -11 -4 16.16 1.02
-11 -4 -6 16.65 1.17
-6 11 4 15.89 1.15
-4 -6 -11 15.77 0.95
11 4 -6 15.66 0.61
-11 4 -6 15.73 0.86
-11 -4 6 15.81 0.8
11 -4 -6 15.16 0.68
4 -6 -11 17.23 0.65
-6 11 -4 17.33 1.22
-4 -6 11 15.14 1.06
-6 -11 4 16.2 1.18
4 6 11 15.65 1.06
-11 4 -6 16.04 0.78
-6 11 -4 15.26 1.23
-5 -6 -11 76.49 2.66
6 11 -5 82.65 2.64
-6 11 5 79.78 2.7
-6 -11 -5 78.41 2.73
11 5 -6 78.59 2.26
-11 -5 6 82.29 2.48
6 11 5 81.5 2.62
6 -11 -5 80.11 2.32
-6 11 -5 79.29 2.69
-11 5 -6 79.27 2.45
-11 5 -6 79.6 2.38
-6 11 -5 80.93 2.71
5 6 11 74.81 2.6
-5 -6 11 79.23 2.6
6 11 -6 23.01 1.21
-6 11 6 23.1 1.36
6 11 -6 23.65 1.23
-11 -6 -6 25.73 1.46
11 6 -6 23.02 0.86
-11 6 -6 24.19 1.13
-6 -6 11 22.59 1.23
-11 -6 6 23.84 1.2
-6 11 -6 24 1.37
6 11 6 24.07 1.19
-11 6 -6 23.92 1.08
6 6 11 23.75 1.42
-6 11 -6 23.75 1.36
-6 -11 6 24.54 1.53
6 -11 -6 23.45 0.82
6 11 6 22.26 1.61
11 -6 -6 24.41 0.83
11 7 -6 4.03 0.46
-7 -6 -11 4.48 0.76
6 11 -7 4.68 0.78
-6 -11 -7 2.99 0.69
-11 -7 -6 3.56 0.78
-6 11 7 3.2 0.8
-11 7 6 4.47 0.63
6 11 -7 3.88 0.67
11 7 -6 4.32 0.52
-11 7 -6 4.34 0.71
-11 7 -6 4.45 0.68
6 -11 -7 5.05 0.32
-6 -11 7 3.9 0.85
-7 -6 11 3.79 0.63
11 -7 -6 2.87 0.35
-11 -7 6 3.59 0.66
6 11 7 3.68 0.96
-6 11 -7 4.11 0.83
-6 11 -7 3.5 0.83
6 11 7 3.89 0.71
-11 -8 -6 15.96 1.39
11 8 -6 14.65 0.76
6 11 -8 16.69 1.14
-8 -6 -11 14.8 1.25
-6 -11 -8 15.05 1.15
-6 11 8 16.94 1.29
-11 8 6 15.78 1.02
-11 8 -6 14.59 1.02
-11 8 -6 15.66 1.16
6 -11 -8 16.09 0.61
-6 11 -8 14.62 1.29
-6 -11 8 15.28 1.27
-11 -8 6 14.66 1.21
6 11 8 14.15 1.11
-8 -6 11 16.31 1.03
6 11 8 19.11 1.91
-6 11 -8 16.59 1.36
11 9 -6 2.88 0.42
-11 -9 -6 1.66 0.82
-6 -11 -9 2.56 0.68
11 9 -6 3.38 0.48
6 11 -9 2.68 0.7
-11 9 6 3.59 0.8
-9 -6 -11 2 0.78
-6 11 9 2.47 0.93
-11 9 -6 1.92 0.73
-11 -9 6 4.42 0.85
-6 11 -9 2.1 0.89
-9 -6 11 1.64 0.5
-6 11 -9 2.51 0.89
-11 9 -6 2.02 0.68
6 11 9 4.19 0.82
11 9 6 3.46 0.58
-6 -11 9 2.49 0.8
11 10 -6 4.8 0.61
-11 10 6 4.56 0.79
-10 -6 -11 5.02 0.93
-6 -11 -10 5.17 0.83
11 10 -6 5.06 0.63
-6 11 10 4.46 1
-11 -10 -6 4.13 0.98
6 11 -10 4.89 0.84
-6 11 -10 6.17 1.09
-11 -10 6 5.17 0.91
-10 -6 11 4.41 0.57
-11 10 -6 6.56 0.88
11 10 6 4.77 0.59
6 11 10 5.64 0.91
-6 -11 10 4.56 0.92
-11 10 -6 4.54 0.86
0 -7 -11 0.27 0.26
11 0 -7 -0.32 0.33
7 11 0 0.12 0.3
-7 11 0 0.53 0.75
-7 11 0 0.74 0.61
7 11 0 -0.18 0.39
0 7 11 0.04 0.65
-7 -11 0 -0.39 0.54
-7 11 1 13.77 1.05
-7 -11 -1 14.22 1.06
7 11 -1 14.98 0.86
7 11 -1 14.31 0.79
-1 -7 -11 14.99 0.77
-7 11 1 12.27 1.1
-1 7 11 15.06 1.12
11 1 -7 13.78 0.85
-7 -11 1 13.93 1.11
1 -7 -11 15.17 0.7
7 11 1 15.02 0.79
7 11 1 14.36 0.83
11 -1 -7 14.91 0.77
1 7 11 12.16 1.11
-7 11 -1 13.3 1.38
-7 11 -1 14.13 1.07
7 11 -2 10.94 0.68
-2 -7 -11 11.22 0.69
7 11 -2 10.31 0.76
-7 -11 -2 9.23 0.96
-7 11 2 10.78 1.08
-11 -2 -7 10.81 0.99
-2 7 11 10.53 1.09
11 2 -7 8.13 0.75
2 7 11 10.97 1.04
2 7 11 11.15 0.65
-2 -7 11 10.55 1.05
11 -2 -7 9.89 0.63
7 11 2 11.04 0.75
7 11 2 10.49 0.69
-7 -11 2 10.68 1.11
2 -7 -11 10.57 0.56
-7 11 -2 10.69 1.06
-3 7 11 -0.35 0.68
7 11 -3 -0.51 0.33
-7 -11 -3 0.42 0.9
-7 11 3 0.31 0.83
7 11 -3 0.52 0.42
-11 -3 -7 -0.14 0.66
11 3 -7 0.61 0.26
-7 11 3 0.43 0.64
-3 -7 -11 0.1 0.31
-7 11 -3 0.91 0.71
3 -7 -11 0.29 0.2
-7 11 -3 0.17 0.62
3 7 11 -1.16 0.8
-3 -7 11 -0.19 0.55
7 11 3 0.1 0.46
11 -3 -7 -0.21 0.25
-7 11 4 37.6 1.69
-7 -11 -4 37.99 2.01
7 11 -4 37.33 1.46
-11 -4 -7 37.12 1.8
-4 7 11 37.02 1.69
11 4 -7 36.67 1.2
7 11 -4 39.5 1.49
-4 -7 -11 35.75 1.5
-7 11 -4 36.88 1.62
-4 -7 11 37.29 1.64
-11 -4 7 37.99 1.26
4 -7 -11 37.33 1.22
-7 11 -4 35.85 1.63
-7 -11 4 37.44 1.77
4 7 11 34.68 1.53
-11 4 -7 37.75 1.33
11 -4 -7 38.19 1.21
-7 -11 -5 3.44 0.73
-7 11 5 4.41 0.83
-5 -7 -11 3.83 0.65
7 11 -5 3.28 0.6
7 11 -5 4.24 0.77
-11 -5 -7 3.5 0.8
11 5 -7 4.02 0.4
5 -7 -11 4 0.31
5 7 11 3.64 0.73
7 11 5 3.86 0.62
-7 11 -5 2.86 0.77
-11 5 -7 3.45 0.56
-7 11 -5 3.32 0.78
-5 -7 11 3.97 0.69
-7 -11 5 4.69 0.89
-11 -5 7 3.5 0.51
-11 5 -7 3.62 0.64
11 -5 -7 3.91 0.47
7 -11 -5 4.87 0.31
-6 -7 -11 4.29 0.71
-11 -6 -7 4.09 0.86
7 11 -6 4.89 0.74
-7 11 6 4.9 0.89
11 6 -7 3.5 0.41
-7 -11 -6 2.8 0.7
7 11 -6 3.96 0.6
-7 11 -6 3.63 0.84
-11 6 -7 4.08 0.7
-11 6 -7 4.35 0.64
-7 11 -6 3.97 0.83
7 -11 -6 4.06 0.31
11 -6 -7 3.88 0.35
6 7 11 3.88 0.8
-6 -7 11 3.18 0.7
-11 -6 7 4.24 0.6
-7 -11 6 3.69 0.85
7 11 6 3.97 0.67
-7 11 7 3.13 0.8
-11 7 7 3.57 0.64
7 11 -7 4.31 0.64
7 11 -7 3.61 0.74
-7 -11 -7 2.89 0.72
-11 -7 -7 3.9 0.88
-7 -7 -11 3.11 0.77
11 7 -7 4.06 0.47
-7 -11 7 4.77 0.87
-7 -7 11 3.79 0.72
-7 11 -7 2.07 0.85
-11 -7 7 2.99 0.64
7 11 7 3.31 0.67
-7 11 -7 4.19 0.88
-11 7 -7 3.55 0.78
7 -11 -7 4.04 0.3
-11 7 -7 2.5 0.73
-11 -8 -7 2.54 0.8
-11 8 7 1.78 0.67
11 8 -7 1.09 0.4
11 8 -7 2.23 0.42
7 11 -8 1.09 0.56
-8 -7 -11 2.36 0.72
-7 11 8 1.69 0.87
-7 -11 -8 2.11 0.74
-11 -8 7 2.04 0.73
-7 11 -8 1.46 0.89
-7 11 -8 1.94 0.87
-8 -7 11 2.44 0.65
-11 8 -7 2.19 0.64
-11 8 -7 1.45 0.7
7 11 8 1.54 0.63
-7 -11 8 1.67 0.81
-9 -7 -11 15.11 1.35
-7 -11 -9 15.89 1.31
11 9 -7 14.12 0.85
-7 11 9 18.03 1.35
7 11 -9 15.43 1.04
-11 -9 -7 17.41 1.39
11 9 -7 16.72 0.9
-11 9 7 14.59 1.19
-7 11 -9 14.66 1.41
-11 9 -7 15.66 1.18
-9 -7 11 14.96 1.12
-11 9 -7 15.47 1.12
7 11 9 14.32 1.16
-11 -9 7 14.42 1.36
-7 11 -9 14.76 1.36
-7 -11 9 15.75 1.35
-7 11 10 3.78 0.97
-10 -7 -11 4.69 0.92
10 7 -11 4.09 0.6
11 10 -7 4.03 0.56
-11 10 7 4.07 0.81
-7 -11 -10 3.82 0.89
7 11 -10 4.61 0.79
-11 -10 -7 2.91 0.95
-10 -7 11 3.87 0.68
-7 11 -10 4.37 1.03
-7 11 -10 4.63 1.07
-11 10 -7 4.07 0.8
11 10 7 4.08 0.59
-11 10 -7 3.56 0.89
-11 -10 7 3.89 0.97
-7 -11 10 4.68 0.93
7 11 10 3.66 0.83
0 8 11 16.71 1.25
0 -8 -11 19.92 0.89
-8 -11 0 18.97 1.28
8 11 0 17.91 0.92
8 11 0 19.04 0.89
11 0 -8 16.94 0.91
-8 11 0 19.12 1.23
-1 -8 -11 3.91 0.49
8 11 -1 4.29 0.56
8 11 -1 4.1 0.46
-1 8 11 2.9 0.85
-8 -11 -1 4.85 0.78
-8 11 1 4.73 0.79
11 1 -8 3.66 0.54
8 11 1 5.29 0.62
1 -8 -11 5.2 0.43
11 -1 -8 4.87 0.57
1 8 11 3.82 0.85
-1 -8 11 4.63 0.95
-8 -11 1 4.79 0.83
8 11 1 4.27 0.52
-8 11 -1 4.01 0.73
8 11 -2 11.01 0.78
-8 11 2 13.74 1.05
-2 -8 -11 12.15 0.78
-2 8 11 12.06 1.16
8 11 -2 13.18 0.75
-11 -2 -8 12.06 1.11
-8 -11 -2 12.21 1.09
8 11 2 12.52 0.72
-8 -11 2 11.94 1.13
11 -2 -8 12.01 0.7
2 8 11 12.13 1.1
-8 11 -2 13.39 1.05
2 -8 -11 11.8 0.64
-2 -8 11 12.49 1.07
8 11 2 13.56 0.87
-8 11 -2 13.18 1.09
8 11 -3 33.64 1.35
-3 -8 -11 32.32 1.41
-11 -3 -8 32.5 1.69
-8 -11 -3 35.97 1.68
-8 11 3 33.63 1.53
-3 8 11 34.71 1.64
-8 11 3 33.07 1.58
8 11 -3 34.62 1.33
-8 11 -3 34.85 1.54
3 -8 -11 32.79 1.17
3 8 11 34.58 1.33
-8 -11 3 34.5 1.75
-8 11 -3 35.45 1.61
3 8 11 32.75 1.61
8 11 3 38.42 1.48
11 -3 -8 31.95 1.17
-3 -8 11 35.27 1.66
-4 8 11 2.64 0.81
-8 -11 -4 1.33 0.7
8 11 -4 1.39 0.55
-11 -4 -8 1.63 0.71
11 4 -8 1.76 0.35
8 11 -4 1.21 0.43
-8 11 4 2.89 0.77
-4 -8 -11 2.5 0.5
4 8 11 0.94 0.63
-8 -11 4 1.71 0.73
-8 11 -4 1.97 0.74
-4 -8 11 1.9 0.69
8 11 4 1.52 0.67
11 -4 -8 0.87 0.28
4 8 11 2.23 0.76
-11 -4 8 1.58 0.27
-8 11 -4 1.72 0.75
8 11 -5 31.59 1.36
-5 -8 -11 25.84 1.61
-8 11 5 30.82 1.55
8 11 -5 30.14 1.46
-11 -5 -8 31.85 1.7
-5 8 11 31.32 1.6
-8 -11 -5 33.34 1.69
11 5 -8 32.71 1.14
-5 -8 11 30.46 1.59
-8 11 -5 31.62 1.5
-11 5 -8 31.63 1.32
-11 -5 8 30.47 1.19
-8 11 -5 31.76 1.59
-8 -11 5 31.75 1.72
5 8 11 29.74 1.58
5 -8 -11 31.08 1.04
8 11 5 31.55 1.31
-11 -6 -8 18.4 1.35
8 11 -6 16.17 0.92
8 11 -6 16.62 1.05
-8 -11 -6 13.99 1.22
11 6 -8 15.67 0.79
-6 8 11 15.93 1.34
-8 11 6 16.34 1.26
-6 -8 -11 15.36 1.23
-8 11 -6 17.83 1.33
-11 -6 8 18.02 1.02
-11 6 -8 17.23 1.2
-6 -8 11 16.68 1.47
8 11 6 13.22 0.96
-8 -11 6 18.43 1.41
8 -11 -6 15.74 0.6
-8 11 -6 15.88 1.25
6 -8 -11 16.86 0.61
6 8 11 13.95 1.82
-8 -11 -7 3.07 0.79
11 7 -8 1.06 0.43
-7 -8 -11 1.68 0.71
-11 -7 -8 1.5 0.82
8 11 -7 2.21 0.59
-8 11 7 2.39 0.8
8 11 -7 1.94 0.7
-8 11 -7 0.96 0.82
-8 11 -7 2.12 0.86
-8 -11 7 1.83 0.8
-11 7 -8 2.09 0.67
8 11 7 2.19 0.6
-7 -8 11 3 1.29
-11 -7 8 2.15 0.63
-11 7 -8 1.31 0.72
11 8 -8 18.92 0.98
8 11 -8 20.72 1.18
-8 11 8 20.03 1.46
8 11 -8 19.59 1.26
-8 -11 -8 20.04 1.37
-8 -8 -11 18.24 1.41
-11 -8 -8 21.49 1.48
-8 -11 8 18.18 1.52
8 11 8 20.51 1.22
-11 8 -8 21.57 1.2
-11 -8 8 19.35 1.37
-8 11 -8 21.18 1.4
-11 8 -8 19.71 1.29
-8 11 -8 20.5 1.49
-8 11 9 7.97 1.08
-11 -9 -8 7.35 1.15
9 8 -11 7.12 0.88
-11 9 8 8.68 1
8 11 -9 7.99 0.87
-8 -11 -9 7.62 1.02
-9 -8 -11 9.48 1.14
11 9 -8 7.12 0.86
11 9 -8 6.74 0.74
-8 11 -9 6.79 1.04
8 11 9 8.15 0.96
-8 -11 9 6.9 1.06
-11 9 -8 6.99 0.94
-11 -9 8 6.21 0.93
-11 9 -8 8.17 0.93
-8 11 -9 7.5 1.09
-8 -11 -10 1.34 0.84
-10 -8 -11 0.83 0.84
11 10 -8 2.05 0.37
-11 -10 -8 0.55 0.74
8 11 -10 -0.86 0.57
-11 10 8 -0.19 0.7
10 8 -11 0.85 0.54
-8 11 10 -0.18 0.86
11 10 -8 1.2 0.51
-11 -10 8 -0.12 0.85
-10 8 -11 -0.85 0.76
-8 11 -10 0.28 0.91
8 11 10 1.03 0.63
-11 10 -8 -0.3 0.75
-8 -11 10 0.7 0.93
-11 10 -8 1.02 0.78
-8 11 -10 -0.59 0.86
9 11 0 7.52 0.67
-9 -11 0 7.26 0.89
9 11 0 7.21 0.6
0 9 11 6.58 1
-9 11 0 7.43 0.93
-9 11 0 9.51 1.02
0 -9 -11 7.86 0.59
-1 -9 -11 14.25 0.82
-1 9 11 11.9 1.24
-9 11 1 12.82 1.04
-9 -11 -1 13.23 1.31
9 11 -1 13.73 0.73
-9 11 1 14.59 1.38
9 11 -1 13.54 0.82
9 11 1 14.42 0.86
1 9 11 12.7 1.23
-9 11 -1 14.5 1.05
-9 -11 1 13.85 1.23
9 11 1 14.59 0.77
-9 11 -1 13.6 1.1
1 -9 -11 13.99 0.74
-1 -9 11 11.04 1.22
9 11 -2 8.24 0.72
-2 9 11 7.88 1.1
-9 11 2 10.29 1.02
-2 -9 -11 8.39 0.72
9 11 -2 7.03 0.6
-9 11 2 9.16 0.97
-9 -11 -2 8.28 1.08
-2 -9 11 8.03 0.96
2 9 11 7.7 1.01
-9 -11 2 7.5 0.95
-9 11 -2 9.84 1.1
2 -9 -11 8.5 0.55
9 11 2 7.8 0.77
9 11 2 7.73 0.59
-9 11 -2 9.43 0.94
-3 9 11 13.86 1.28
9 11 -3 14.45 0.89
-9 11 3 15.74 1.2
9 11 -3 15.21 0.81
-11 -3 -9 14.92 1.22
-9 -11 -3 16.06 1.27
-3 -9 -11 15.24 1
-9 11 -3 14.43 1.19
-9 11 -3 15.47 1.09
9 11 3 13.94 0.99
3 -9 -11 15.11 0.68
3 9 11 13.46 1.21
-9 -11 3 14.28 1.23
-3 -9 11 14.3 1.28
-9 11 4 24.59 1.35
9 11 -4 25.44 1.2
-4 9 11 25.36 1.54
9 11 -4 23.16 1.11
-9 -11 -4 23.91 1.43
-11 -4 -9 23.31 1.52
4 -9 -11 23.53 0.91
-9 11 -4 25.59 1.4
4 9 11 26.34 1.45
9 11 4 23.13 1.13
-4 -9 11 23 1.46
-9 -11 4 24.78 1.58
-9 11 -4 23.74 1.35
-9 -11 -5 3.77 0.86
9 11 -5 4.57 0.59
-5 -9 -11 2.56 0.65
9 11 -5 4.2 0.77
-5 9 11 3.96 0.94
11 5 -9 3.59 0.49
-11 -5 -9 4.05 0.87
-9 11 5 4.35 0.79
-9 11 -5 4.34 0.79
5 9 11 2.17 0.77
-9 11 -5 3.39 0.81
-5 -9 11 3.77 0.82
-9 -11 5 3.18 0.86
-11 -5 9 2.61 0.4
9 11 5 4.07 0.58
11 6 -9 3.18 0.51
9 11 -6 2.7 0.59
9 11 -6 2.43 0.51
-6 9 11 2.86 0.89
-11 -6 -9 2.82 0.8
-9 -11 -6 1.77 0.79
-6 -9 -11 3.65 0.7
-9 11 6 2.21 0.82
-11 -6 9 2.52 0.53
-6 -9 11 2.8 0.78
-9 11 -6 3.06 0.81
-11 6 -9 2.02 0.64
9 -11 -6 3.36 0.35
-9 -11 6 3.83 0.9
-9 11 -6 4.14 0.88
9 11 6 3.35 0.6
11 7 -9 15.23 0.89
-9 -11 -7 16.11 1.33
-9 11 7 16.07 1.29
-7 -9 -11 16.69 1.34
-11 -7 -9 16.8 1.42
7 9 -11 15.36 1.11
9 11 -7 14.2 0.87
9 11 -7 16.49 1.06
-7 9 11 15.01 1.28
-9 -11 7 14.99 1.4
9 11 7 15.72 1.04
-7 -9 11 13.83 1.31
-11 7 -9 15.4 1.12
-9 11 -7 14 1.26
-11 -7 9 14.28 1.1
-11 7 -9 15.28 1.1
-9 11 -7 13.84 1.31
11 8 -9 7.99 0.87
-9 11 8 7.58 1.03
-11 -8 -9 6.97 1.12
-8 -9 -11 6.47 0.94
9 11 -8 7.79 0.85
-9 -11 -8 7.54 1.02
9 11 -8 7.89 0.86
8 9 -11 6.96 0.87
-11 -8 9 8.3 1.04
-9 11 -8 9.23 1.15
-11 8 -9 7.23 0.95
-11 8 -9 8.11 0.92
-9 -11 8 7.96 1.13
-8 -9 11 7.03 0.97
-9 11 -8 8.62 1.08
9 11 8 8.32 0.96
-9 11 9 19.3 1.39
-11 -9 -9 18.71 1.5
-9 -11 -9 17.04 1.43
-9 -9 -11 17.38 1.42
9 11 -9 16.3 1.07
9 11 -9 15.61 1.2
9 9 -11 17.86 1.11
11 9 -9 19.72 0.91
-9 -9 11 18.75 1.51
-9 11 -9 19.14 1.43
9 11 9 18.13 1.19
-9 9 -11 16.92 1.43
-9 -11 9 20.33 1.64
-11 9 -9 19.73 1.39
-11 9 -9 19.25 1.3
-9 11 -9 16.76 1.42
11 10 -9 7.51 0.84
-9 -11 -10 4.92 0.97
9 11 -10 6.72 0.87
-9 11 10 8.17 1.09
11 10 -9 8.93 0.67
-11 10 9 6.7 0.97
-11 -10 -9 7.36 1.13
-10 -9 -11 8.85 1.1
10 9 -11 7.54 0.82
-10 9 -11 7.85 1.14
-9 -11 10 7.72 1.16
-10 -9 11 8.01 1.1
-9 11 -10 7.29 1.13
-10 9 -11 7.48 1.11
-11 10 -9 6.86 1
-11 10 -9 8.2 1.05
-11 -10 9 6.98 1.12
-9 11 -10 9.8 1.19
0 -10 11 36.1 1.78
-10 11 0 38.72 1.65
0 -10 -11 37.95 1.46
10 11 0 36.37 1.37
-10 -11 0 37.51 1.89
-10 11 0 37.71 1.63
10 11 0 40.25 1.45
0 10 11 40.77 1.89
-10 11 1 5.43 0.84
-10 -11 -1 7.18 0.96
-1 -10 -11 6.42 0.64
-1 10 11 6.1 0.99
-10 11 1 6.37 0.86
10 11 -1 5.48 0.65
10 11 -1 5.77 0.56
10 11 1 8.25 0.71
-10 11 -1 5.84 0.84
-10 -11 1 7.67 0.97
1 10 11 6.01 1.02
1 -10 -11 6.26 0.56
-10 11 -1 6.3 0.84
10 11 1 6.25 0.62
-1 -10 11 7.3 0.96
-10 -11 -2 8.68 1.05
-10 11 2 9 0.93
-2 10 11 7.68 1.1
10 11 -2 6.86 0.69
10 11 -2 8.59 0.59
-2 -10 -11 6.32 0.78
2 10 11 7.85 1.04
10 11 2 6.47 0.77
-10 11 -2 7.88 0.91
-10 -11 2 8.25 1.04
-10 11 -2 8.37 0.9
-2 -10 11 9.13 1.12
2 -10 -11 7.22 0.57
-10 11 3 6.03 0.86
-10 -11 -3 6.14 1
-11 -3 -10 5.93 0.95
10 11 -3 5.7 0.63
10 11 -3 6.04 0.56
-3 10 11 6.02 1.01
-10 11 -3 6.81 0.9
-3 -10 11 5.77 0.93
3 10 11 6.47 0.95
3 -10 -11 6.51 0.51
10 11 3 6.74 0.92
-10 -11 3 6.63 0.96
-10 11 -3 7.34 0.91
-11 -4 -10 15.61 1.3
10 11 -4 17.97 1.04
-4 -10 -11 17.9 1.21
-10 -11 -4 17.25 1.37
-4 10 11 15.19 1.43
-10 11 4 16.98 1.2
10 11 -4 16.86 0.92
10 11 4 17 1.01
-4 -10 11 16.34 1.42
4 10 11 17.53 1.33
-10 11 -4 20.06 1.26
-10 11 -4 18.22 1.26
-10 -11 4 17.2 1.47
4 -10 -11 19.14 0.75
-5 10 11 7.36 1.11
-5 -10 -11 10.67 1.1
-11 -5 -10 7.49 1.07
10 11 -5 8.05 0.98
5 10 -11 9.97 1.18
-10 11 5 7.57 0.99
10 11 -5 8.61 0.71
-10 -11 -5 7.88 1.03
5 -10 -11 9.29 0.48
5 10 11 7.13 1
-5 -10 11 6.98 1.03
-10 11 -5 10.54 1.15
-10 -11 5 7.86 1.05
10 11 5 8.29 0.74
-10 11 -5 8.36 1.01
-11 -6 -10 3.84 0.94
10 11 -6 6.74 0.66
10 11 -6 5.47 0.67
-10 -11 -6 5.5 0.94
6 10 -11 5.77 0.86
-10 11 6 6.04 0.89
11 6 -10 6.09 0.69
-6 10 11 4.72 0.99
-6 -10 -11 4.74 0.78
6 10 11 5.36 0.9
-6 -10 11 4.64 0.94
10 11 6 4.54 0.65
-6 10 -11 5.13 1.03
-11 -6 10 4.36 0.56
-10 -11 6 4.49 1.04
-10 11 -6 4.7 0.9
-10 11 -6 4.54 0.88
10 11 -7 4.64 0.59
-10 -11 -7 5.25 0.98
-7 10 11 4.21 0.98
-11 -7 -10 4.14 0.98
-7 -10 -11 3.89 0.89
10 11 -7 3.62 0.72
7 10 -11 5.46 0.9
-10 11 7 4.53 0.86
10 11 7 4.39 0.71
-7 10 -11 2.33 0.96
-7 -10 11 4.61 0.97
-11 7 -10 4.57 0.91
-11 -7 10 3.85 0.66
-10 11 -7 4.68 0.92
-10 11 -7 4.82 0.96
-10 -11 7 4.27 0.96
-11 7 -10 4.03 0.78
11 8 -10 1.64 0.39
10 11 -8 1.15 0.49
-8 10 11 0.67 0.89
-8 -10 -11 1.27 0.86
-10 -11 -8 -0.07 0.81
10 11 -8 -0.21 0.53
-10 11 8 1.39 0.83
-11 -8 -10 0.89 0.83
10 11 8 0.76 0.5
-10 -11 8 -0.24 0.87
-10 11 -8 1.1 0.86
-11 8 -10 1.02 0.79
-11 8 -10 -0.84 0.74
-8 -10 11 0.22 0.84
-8 10 -11 0.14 0.92
-10 11 -8 0.48 0.8
-11 -8 10 1.14 0.94
-11 -9 -10 7.09 1.12
-10 11 9 8.09 1.11
9 10 -11 7.38 0.87
10 11 -9 9.87 0.82
10 11 -9 8.24 0.92
11 9 -10 7.66 0.68
-10 -11 -9 8.6 1.14
-9 -10 -11 8.83 1.09
-9 10 -11 10.46 1.28
-11 9 -10 6.79 1.05
-11 9 -10 7.77 1.04
-9 10 -11 7.76 1.17
-10 -11 9 9.57 1.18
-10 11 -9 7.94 1.15
-10 11 -9 7.97 1.12
-9 -10 11 7.55 1.11
-11 -9 10 6.49 1.04
-11 -10 -10 0.53 0.94
10 11 -10 -0.78 0.55
10 11 -10 -0.09 0.71
11 10 -10 0.98 0.47
-10 -11 -10 -0.52 0.9
10 10 -11 -1.01 0.56
-10 -10 -11 -0.24 0.78
11 10 -10 0.23 0.66
-10 11 10 -0.61 0.88
-10 -10 11 0.21 1.05
-10 11 -10 0.84 0.99
-10 11 -10 -0.65 0.89
-10 10 -11 -1.27 0.9
-10 -11 10 0.25 1.02
-11 -10 10 -0.65 1.05
-11 10 -10 -1.04 0.86
-11 10 -10 -0.78 0.8
-10 10 -11 -0.8 0.86
-11 -11 0 202.25 5.88
-11 11 0 196.3 5.5
-11 11 0 188.96 5.49
0 -11 -11 190.12 5.5
0 -11 11 191.99 5.79
0 11 -11 182.47 5.74
0 11 11 186.28 5.78
11 11 0 197.68 5.36
11 11 0 181.74 5.54
-11 -11 -1 10.18 1.34
11 11 -1 9.09 0.78
1 11 -11 10.96 1.23
11 11 -1 10.53 0.69
-11 11 1 9.44 1.1
-1 -11 -11 8.14 0.84
-1 11 11 9.11 1.2
-1 11 -11 9.64 1.17
1 -11 -11 10.42 0.75
-11 -11 1 10.49 1.17
-11 11 -1 10.31 1.07
1 11 11 11.61 1.27
-1 -11 11 10.64 1.17
-11 11 -1 10.16 1.04
11 11 1 9.69 0.8
-11 -11 -2 5.86 1
11 11 -2 5.14 0.61
2 11 -11 5.09 0.99
-2 11 11 5.28 1.08
-11 11 2 5.55 0.83
-11 -11 2 5.31 0.94
-2 11 -11 5.37 1.08
-11 11 -2 4.75 0.84
2 -11 -11 4.56 0.58
-11 11 -2 5.85 0.85
2 11 11 4.89 1.01
-2 -11 11 5.21 0.98
11 11 2 6.12 0.66
-11 -11 -3 30.61 1.75
11 11 -3 32.12 1.18
3 11 -11 30.87 1.72
11 11 -3 31.65 1.27
-11 11 3 32.46 1.48
-3 -11 -11 31.89 1.53
-3 11 11 32.04 1.8
-3 11 -11 29.28 1.77
-3 -11 11 29.41 1.71
3 -11 -11 30.67 1.18
-11 11 -3 32.83 1.55
3 11 11 29.81 1.75
-11 11 -3 32.69 1.52
-11 -11 3 30.49 1.8
-11 -11 -4 0.9 0.82
11 11 -4 1.49 0.38
4 11 -11 2.15 0.85
-11 -4 -11 2.18 0.88
11 11 -4 0.39 0.51
-4 11 11 -0.1 0.88
-11 11 4 0.66 0.68
-4 -11 -11 1.42 0.66
-4 11 -11 -0.43 0.91
-11 11 -4 1.34 0.72
-4 -11 11 2.11 0.85
4 11 11 1.4 0.81
-11 11 -4 0.41 0.76
-11 -11 4 1.36 0.87
11 11 4 0.53 0.46
-11 -11 -5 150.25 4.76
5 11 -11 146.8 4.57
-11 -5 -11 150.86 4.74
11 11 -5 139.29 4.21
-5 11 11 145.75 4.62
-11 11 5 146.91 4.35
-5 -11 -11 142.99 4.55
-5 -11 11 146.54 4.69
-5 11 -11 138.31 4.61
-11 11 -5 144.36 4.38
-11 -11 5 148.96 4.68
5 11 11 144.09 4.57
-11 11 -5 142.16 4.39
11 11 5 148.96 4.24
-11 -11 -6 90.69 3.29
11 6 -11 90.21 2.75
-11 -6 -11 87 3.3
11 11 -6 88.71 2.77
11 11 -6 84.51 2.69
-11 11 6 89.55 2.93
-6 -11 -11 91.42 3.19
6 11 -11 91.09 3.05
-6 11 11 84.28 3.15
-6 -11 11 88.97 3.26
-6 11 -11 89.63 3.25
6 11 11 86.33 3.11
-11 -11 6 83.57 3.17
-11 11 -6 87.22 2.95
-11 11 -6 87.69 2.96
11 11 6 85.58 2.77
-11 -11 -7 -0.95 0.75
-11 -7 -11 -0.46 0.76
7 11 -11 1.09 0.72
11 11 -7 -0.22 0.51
-11 11 7 -0.57 0.68
-7 -11 -11 0.14 0.69
11 7 -11 0.99 0.43
-7 11 11 -0.37 0.87
-7 11 -11 -1.03 0.92
-7 11 -11 0.32 0.94
-11 11 -7 0.26 0.83
7 11 11 -0.85 0.75
-7 -11 11 1.07 0.93
-11 -11 7 0.24 0.9
-11 11 -7 0.08 0.83
11 11 7 -0.17 0.51
-11 -11 -8 21.63 1.69
11 8 -11 20.09 0.99
-11 -8 -11 19.19 1.54
11 11 -8 16.76 1.09
11 11 -8 20.73 0.99
8 11 -11 18.37 1.22
-8 11 11 19.4 1.52
-11 11 8 20.7 1.42
-8 -11 -11 15.3 1.49
-8 -11 11 20.48 1.79
-8 11 -11 16.97 1.65
-8 11 -11 16.55 1.62
-11 11 -8 21.3 1.45
-11 11 -8 16.33 1.44
-11 -11 8 17.28 1.69
-11 8 -11 18.24 1.38
-11 8 -11 16.72 1.45
-11 -11 -9 0.63 0.96
11 9 -11 1.19 0.46
-11 -9 -11 0.44 0.97
11 11 -9 -0.44 0.55
11 11 -9 0.96 0.46
9 11 -11 0.06 0.6
-9 11 11 -0.09 0.83
-11 11 9 1.61 0.89
-9 -11 -11 2.47 0.96
-9 -11 11 0.02 1.03
-9 11 -11 -0.07 1.01
-9 11 -11 0.68 0.98
-11 11 -9 -0.26 0.85
-11 11 -9 0.32 0.91
-11 -11 9 0.8 1.04
-11 9 -11 0.85 0.93
-11 9 -11 0.15 0.97
11 11 -10 8.63 1.05
11 10 -11 11.59 0.88
11 11 -10 13.4 0.89
10 11 -11 10.53 0.95
-11 11 -10 11.34 1.27
-10 -11 11 11.07 1.39
-10 11 -11 11.54 1.32
-10 11 -11 11.15 1.31
-11 11 -10 10.53 1.24
-11 10 -11 12.09 1.35
-11 10 -11 10.6 1.22
-11 -11 10 9.04 1.35
11 11 -11 121.89 3.97
-11 11 -11 123.52 4.07
-11 11 -11 127.45 4.18
0 -12 0 11.94 0.73
0 0 12 10.86 0.81
0 12 0 10.14 0.93
12 0 0 10.89 0.8
12 1 0 25.7 1.13
0 12 1 23.63 1.23
1 0 12 25.82 1.16
12 -1 0 23.98 1.1
0 -12 1 23.01 1.09
0 12 -1 22.39 1.24
-1 0 12 23.93 1.05
0 -12 -1 24.57 1.07
-12 -1 0 24.16 0.99
-2 0 12 4.76 0.51
-12 -2 0 4.04 0.52
0 12 -2 4.64 0.78
0 -12 -2 3.79 0.46
0 -12 2 3.62 0.51
0 12 2 4.5 0.8
-2 0 12 4.55 0.44
12 -2 0 5.05 0.57
12 2 0 3.54 0.59
0 12 2 4.25 0.7
2 0 12 5.84 0.68
0 12 -2 5.55 0.78
0 12 3 2.08 0.64
0 12 3 2.82 0.71
0 -12 -3 2.52 0.37
3 0 12 3.55 0.62
12 -3 0 2.59 0.47
0 -12 3 2.7 0.43
0 12 -3 2.84 0.72
0 12 -3 3.13 0.69
-3 0 12 2.44 0.33
-12 -3 0 3.34 0.55
-3 0 12 2.93 0.31
0 -12 4 18.59 1.04
0 12 -4 18.47 1.19
0 12 -4 18.66 1.22
0 12 4 16.93 1.2
0 12 4 19.79 1.2
4 0 12 20.92 1.23
12 -4 0 19.66 0.95
0 -12 -4 18.2 0.89
-12 -4 0 19.59 1.11
-12 5 0 0.11 0.26
12 -5 0 -0.43 0.33
0 -12 -5 -0.23 0.23
0 12 5 0.71 0.64
0 12 5 -0.66 0.53
0 -12 5 0.22 0.44
0 12 -5 -1.21 0.6
0 12 -5 -0.83 0.67
-12 -5 0 -0.33 0.5
0 12 -6 5.96 0.92
12 -6 0 6.08 0.69
0 12 -6 6.23 0.88
-12 -6 0 5.55 0.75
0 12 6 6.72 0.88
0 -12 -6 5.69 0.53
-12 6 0 6.02 0.56
0 12 -7 33.42 1.68
0 12 -7 31.33 1.63
0 12 7 34.04 1.68
0 -12 7 32.99 1.61
-12 7 0 34.96 1.25
-12 -7 0 34.99 1.67
0 -12 -7 35.12 1.33
12 -7 0 35.24 1.37
12 7 0 34.74 1.03
12 8 0 5.62 0.42
0 -12 8 4.97 0.8
0 12 -8 4.51 0.89
0 12 -8 5.44 0.92
0 -12 -8 5.52 0.54
0 12 8 5.32 0.92
12 -8 0 4.48 0.56
-12 -8 0 3.32 0.79
-12 8 0 5.41 0.64
0 -12 9 14.94 1.19
0 -12 -9 13.98 0.87
0 12 -9 14.43 1.3
-12 -9 0 18.23 1.35
0 12 9 14.06 1.34
-12 9 0 14.61 0.99
12 9 0 13.22 0.66
-12 10 0 1.67 0.71
0 -12 -10 1.88 0.46
0 12 -10 1.39 0.93
-12 -10 0 1.34 0.78
12 10 0 2.87 0.5
0 -12 10 1.61 0.79
0 12 10 0.5 0.88
0 -12 11 0.4 0.78
0 12 -11 -0.29 0.91
0 12 11 0.76 0.94
-12 11 0 0.93 0.65
0 -12 -11 0.68 0.49
-12 -11 0 1.26 0.87
12 11 0 0.72 0.45
12 0 -1 23.85 1.1
1 12 0 22.83 1.2
1 -12 0 22.7 1.06
12 0 1 24.91 1.16
0 1 12 23.75 1.05
0 -1 12 25.71 1.15
-1 -12 0 23.72 1.09
-1 12 0 24.31 1.27
-1 12 1 6.53 1.04
1 12 -1 8.44 0.86
-1 -12 -1 8.27 0.63
12 -1 1 8.14 0.75
-12 -1 -1 9.32 0.69
-1 12 1 8 0.9
12 1 -1 9.24 0.76
1 -1 12 8.8 0.85
1 -12 1 9.06 0.64
-1 1 12 8.15 0.59
-1 12 -1 8.33 0.91
-1 -1 12 9.31 0.76
-1 12 -1 6.98 1.01
-1 -12 1 8.01 0.68
1 1 12 7.64 0.78
12 -1 -1 9.04 0.68
12 1 1 8 0.75
1 -12 -1 8.24 0.59
1 12 1 6.59 0.8
12 2 -1 11.65 0.88
-12 -2 -1 12.26 0.86
-2 1 12 11.85 0.5
12 -2 1 12.72 0.77
-1 12 2 12.42 1.06
1 -12 2 12.13 0.78
-1 -12 -2 12.55 0.74
-2 1 12 12.42 0.49
-1 12 2 11.62 1.01
1 12 -2 8.86 1.07
1 12 -2 10.53 0.91
2 -1 12 12.09 0.94
-1 12 -2 10.64 1.02
-2 -1 12 11.7 0.78
1 -12 -2 12.62 0.7
-2 -1 12 12.52 0.7
-1 -12 2 11.96 0.76
1 12 2 12.44 0.95
-12 -2 1 12.44 0.74
-1 12 -2 12.23 1
2 1 12 13.04 0.93
1 12 2 11.04 1
12 -2 -1 10.16 0.75
1 12 -3 7.07 0.82
1 12 -3 6.14 0.78
-12 -3 -1 7.25 0.79
1 -12 3 5.87 0.63
3 -1 12 7.63 0.91
-1 12 3 6.26 0.84
12 -3 1 6.05 0.7
-1 12 3 5.95 0.85
-1 -12 -3 6.59 0.57
1 12 3 6.86 0.83
-3 -1 12 6.62 0.58
-3 -1 12 6.77 0.5
-1 12 -3 7.93 0.96
-1 12 -3 6.72 0.87
-1 -12 3 6.09 0.67
3 1 12 8.25 0.92
12 -3 -1 6.66 0.62
-12 -3 1 6.59 0.72
1 12 3 6.11 0.76
1 -12 -3 5.31 0.51
1 12 -4 25.76 1.34
-1 -12 -4 24.98 1.1
-12 -4 -1 27.15 1.3
-1 12 4 25.27 1.36
1 12 -4 27.34 1.36
1 -12 4 25.84 1.22
12 -4 1 26.2 1.18
-1 12 4 27.39 1.42
1 12 4 25.81 1.33
1 -12 -4 26.23 1.07
-1 -12 4 24.75 1.25
-12 -4 1 26.77 1.24
12 -4 -1 27.8 1.1
-1 12 -4 23.66 1.38
1 12 4 27.03 1.37
-1 12 -4 23.97 1.36
4 1 12 28.21 1.4
-4 -1 12 26.92 0.88
-4 -1 12 27.32 0.86
-1 -12 -5 21.79 0.99
-12 5 1 21.09 0.72
-1 12 5 19.99 1.27
1 -12 5 17.55 1.09
-12 -5 -1 20.53 1.2
1 12 -5 20.07 1.24
1 12 -5 19.78 1.26
12 -5 1 19.52 1.01
-1 12 5 19 1.26
-1 -12 5 19.7 1.16
1 12 5 18.42 1.2
1 12 5 20.85 1.22
-12 -5 1 20.53 1.17
12 -5 -1 19.39 0.94
-12 5 -1 19.83 0.75
-1 12 -5 20.81 1.26
1 -12 -5 20.01 0.91
-1 12 -5 22.23 1.31
-12 6 1 54.11 1.62
1 12 -6 51.96 2.05
-1 -12 -6 52.35 1.84
-1 12 6 53.4 2.1
-12 -6 -1 53.26 2.07
1 12 -6 49.72 2.05
12 -6 1 52.93 1.86
1 -12 -6 52.55 1.77
-1 12 -6 53.95 2.1
-12 -6 1 53.17 2.02
1 12 6 51.64 2.07
-1 12 -6 52.7 2.07
12 -6 -1 52 1.78
-12 6 -1 53.59 1.63
12 7 -1 6.52 0.34
-1 12 7 8.22 1.01
1 12 -7 5.85 0.92
1 12 -7 6.13 0.94
-12 7 1 6.33 0.64
-1 -12 -7 6.87 0.63
1 -12 -7 7.01 0.53
12 7 1 6.32 0.38
1 12 7 6.79 0.95
-12 -7 1 6.08 0.8
-1 12 -7 7.02 0.93
-12 7 -1 7.47 0.69
-1 12 -7 5.82 0.93
-1 -12 7 6.85 0.88
12 -7 -1 7.82 0.67
-12 8 1 58.27 1.88
-1 12 8 56.49 2.29
-12 -8 -1 55.68 2.25
12 8 -1 57.14 1.72
1 12 -8 58.49 2.27
-1 -12 -8 59.56 2.03
1 12 8 52.58 2.25
12 -8 -1 56.8 1.93
-1 12 -8 58.6 2.3
-1 12 -8 55.65 2.28
-12 -8 1 58.61 2.29
12 8 1 57.73 1.71
-1 -12 8 57.43 2.3
-12 8 -1 59.17 1.91
-12 8 -1 58.72 1.91
1 -12 -8 57.36 1.92
1 12 -9 4.15 0.93
-1 -12 -9 5.11 0.62
-1 12 9 4.63 1
12 9 -1 4.71 0.64
-12 -9 -1 4.41 0.87
-12 9 1 3.86 0.65
12 9 -1 4.31 0.42
1 12 9 4.33 0.92
12 9 1 4.14 0.46
-12 9 -1 5.22 0.69
-1 12 -9 3.74 0.95
-12 9 -1 3.62 0.88
1 -12 -9 3.93 0.49
-12 -9 1 3.34 0.81
-1 -12 9 3.96 0.83
12 -9 -1 3.73 0.55
-1 -12 -10 7.86 0.87
-12 -10 -1 11.45 1.24
1 -12 10 9.17 1.16
1 12 -10 9.76 1.22
12 10 -1 11.78 1.07
-12 10 1 10.98 1.04
12 10 -1 11.92 0.68
-1 12 10 8.97 1.19
1 -12 -10 10.72 0.79
-12 10 -1 13.03 0.98
12 10 1 10.7 0.67
1 12 10 10.84 1.29
-12 10 -1 10.85 1.07
-1 12 -10 10.51 1.3
-12 -10 1 9.82 1.31
-1 -12 10 10.45 1.17
-1 -12 -11 11.13 1.32
1 -12 11 13.89 1.46
1 12 -11 12.44 1.38
-12 -11 -1 12.82 1.55
12 11 -1 13.92 0.85
-1 12 11 12.99 1.46
-12 11 1 11.98 1.08
1 12 11 12.45 1.4
1 -12 -11 12.97 0.91
-12 -11 1 14.1 1.37
-1 -12 11 14.39 1.34
-1 12 -11 12.94 1.46
-12 11 -1 14.95 1.13
-12 11 -1 12.56 1.06
12 11 1 13.09 0.82
-2 -12 0 3.62 0.54
2 -12 0 4.97 0.47
2 12 0 5.04 0.69
12 0 2 3.61 0.64
12 0 -2 4.02 0.5
0 2 12 4.76 0.53
0 -2 12 4.52 0.62
-2 12 0 3.24 0.87
-2 12 0 4.4 0.78
-2 12 1 10.38 1.04
2 12 -1 12.34 0.92
-2 12 1 11.36 1
-12 -1 -2 12.35 0.84
-1 2 12 11.54 0.55
12 -1 2 10.19 0.8
12 1 -2 11.61 0.8
1 -2 12 11.68 0.94
-1 2 12 12.46 0.51
2 -12 1 12.61 0.72
-2 -12 -1 13.67 0.82
-2 -12 1 11.59 0.76
2 12 1 9.91 0.84
2 -12 -1 11.23 0.69
12 -1 -2 12.29 0.76
-1 -2 12 12 0.87
-2 12 -1 11.91 1.05
1 2 12 13.41 1.2
-2 12 -1 12.34 1.03
2 -2 12 33.11 1.42
-2 12 2 34.19 1.52
2 12 -2 31.05 1.41
-2 -12 -2 32.6 1.34
-2 12 2 33.36 1.56
-12 -2 -2 31.3 1.34
12 -2 2 32.27 1.32
12 2 -2 33.51 1.58
2 12 -2 28.82 1.59
2 12 2 32.7 1.48
-2 12 -2 32.07 1.52
2 2 12 32.85 1.34
-2 12 -2 32.71 1.52
12 -2 -2 32.39 1.24
-2 -2 12 32.51 1.25
2 -12 -2 31.94 1.23
2 12 2 31.02 1.4
-2 -2 12 32.13 1.3
-2 -12 2 31.63 1.39
-12 -2 2 34.01 1.19
12 -3 2 7.85 0.71
-2 12 3 7.4 0.83
-12 -3 -2 7.35 0.82
3 -2 12 6.12 0.75
-2 12 3 8.1 0.94
2 12 -3 6.62 0.79
2 12 -3 8.38 0.85
-2 -12 -3 6.55 0.64
-2 12 -3 6.72 0.88
2 12 3 8.53 0.84
-2 12 -3 5.92 0.84
3 2 12 7.61 0.88
2 -12 -3 7.55 0.52
12 -3 -2 7.41 0.6
-3 -2 12 5.8 0.9
2 12 3 7.13 0.82
-12 -3 2 7.42 0.69
-2 -12 3 7.11 0.77
-3 -2 12 6.11 0.6
-2 -12 -4 7.84 0.63
-2 12 4 8.79 0.97
2 12 -4 8.41 0.98
-12 -4 -2 6.9 0.82
-2 12 4 8.48 1.01
12 -4 2 7.3 0.74
2 12 -4 8.04 0.9
-4 -2 12 7.93 0.66
-2 12 -4 8.57 1.01
12 -4 -2 7.85 0.64
4 2 12 9.27 0.95
-12 -4 2 7.67 0.79
2 -12 -4 8.45 0.55
-12 4 -2 7.77 0.43
-2 12 -4 8.41 1.02
2 12 4 8.74 0.89
-2 -12 4 9.16 0.86
-4 -2 12 8.17 0.58
2 12 4 7.25 0.85
2 12 -5 2.14 0.69
-2 12 5 1.94 0.79
-2 12 5 1.3 0.7
-12 -5 -2 2.82 0.7
12 -5 2 2.99 0.87
-12 5 2 2.62 0.32
-2 -12 -5 1.71 0.35
2 12 -5 2.86 0.76
12 -5 -2 2.58 0.41
-12 5 -2 2.72 0.37
-2 12 -5 2.46 0.74
5 2 12 2.88 0.69
-2 -12 5 2.3 0.63
-5 -2 12 2.34 0.35
-5 -2 12 2.17 0.29
-2 12 -5 1.84 0.74
2 -12 -5 2.07 0.33
2 12 5 2.4 0.68
2 12 5 1.81 0.65
-12 -5 2 3.12 0.6
-12 -6 -2 3.83 0.77
2 12 -6 4.05 0.78
12 6 -2 4.41 0.24
-12 6 2 4.06 0.46
2 12 -6 3.72 0.83
-2 12 6 4.43 0.88
-2 -12 -6 4.07 0.53
-12 6 -2 4.46 0.59
-12 6 -2 3.96 0.46
12 -6 -2 2.86 0.43
2 12 6 2.97 0.78
-2 12 -6 3.61 0.82
-2 12 -6 3.73 0.81
-2 -12 6 4.19 0.8
2 -12 -6 3.13 0.41
-12 -6 2 4.15 0.66
-2 12 7 3.2 0.91
-2 -12 -7 3.02 0.51
12 7 -2 3.59 0.32
-12 7 2 3.69 0.51
2 12 -7 2.87 0.8
2 12 -7 3.21 0.82
12 7 -2 3.28 0.28
-12 -7 -2 2.98 0.8
2 -12 -7 3.44 0.37
-12 -7 2 3.48 0.77
-2 -12 7 3.77 0.76
-12 7 -2 3.82 0.55
-2 12 -7 3.17 0.84
-2 12 -7 3.47 0.81
-12 7 -2 3.31 0.54
2 12 7 3.95 0.8
12 -7 -2 3.72 0.46
2 12 -8 39.53 1.77
12 8 -2 37.67 1.18
-2 12 8 36.87 1.81
-12 -8 -2 37.62 1.78
-2 -12 -8 34.39 1.51
-12 8 2 36.69 1.39
12 8 -2 33.35 1.42
-12 -8 2 36.66 1.81
-2 -12 8 36.2 1.82
2 -12 -8 38.11 1.35
12 -8 -2 38.66 1.38
2 12 8 36.93 1.78
-12 8 -2 37.06 1.42
-12 8 -2 37.53 1.43
12 8 2 38.16 1.22
-2 12 -8 37.42 1.83
-2 12 -8 34.19 1.77
-2 12 9 44.51 1.99
2 12 -9 41.57 1.91
-12 9 2 40.07 1.55
-2 -12 -9 40.01 1.68
-12 -9 -2 42.68 1.99
12 9 -2 41.43 1.34
12 9 -2 40.46 1.33
-12 -9 2 43.35 1.97
-2 12 -9 41.22 1.97
-12 9 -2 39.87 1.59
-12 9 -2 41.08 1.67
2 12 9 38.44 1.91
12 9 2 41.4 1.38
-2 -12 9 42 1.99
2 -12 -9 41.19 1.47
-12 10 2 0.06 0.64
12 10 -2 0.1 0.37
2 12 -10 0.41 0.8
-12 -10 -2 1.62 0.81
-2 12 10 -0.33 0.9
-2 -12 -10 0.15 0.82
12 10 -2 -0.11 0.36
-12 10 -2 -0.33 0.8
12 10 2 -0.86 0.32
-2 -12 10 -0.24 0.73
-12 10 -2 0.49 0.59
-2 12 -10 0.58 0.84
2 -12 -10 1.13 0.35
-12 -10 2 0.17 0.7
2 12 10 0.5 0.82
12 11 -2 2.43 0.52
-2 -12 -11 1.9 0.61
12 11 -2 2.28 0.43
-12 -11 -2 2.25 0.91
-2 12 11 2.48 1.03
-12 11 2 3.44 0.73
2 12 -11 2.1 0.97
2 -12 -11 1.44 0.44
12 11 2 2.31 0.52
-12 -11 2 1.82 0.99
-12 11 -2 3.05 0.73
-2 -12 11 1.53 0.84
2 12 11 2.59 1.04
-2 12 -11 1.97 0.99
-12 11 -2 2.01 0.68
-3 12 0 3.26 0.77
-3 12 0 2.81 0.72
0 3 12 2.56 0.32
3 12 0 3.23 0.56
12 0 -3 3.32 0.48
-3 -12 0 2.54 0.44
3 -12 0 2.88 0.4
0 -3 12 2.61 0.63
-12 -1 -3 6.62 0.75
3 12 -1 5.88 0.71
-3 12 1 6.7 0.87
-3 12 1 5.57 0.84
-3 -12 -1 6.93 0.63
1 -3 12 7.49 0.92
12 1 -3 7.81 0.71
-1 -3 12 7.42 0.86
3 -12 -1 6.39 0.52
3 12 1 5.89 0.66
12 -1 -3 5.09 0.59
-3 12 -1 7.19 0.87
1 3 12 6.5 0.63
-3 -12 1 6.56 0.67
-3 12 -1 5.24 0.85
-3 -12 -2 7.68 0.7
3 12 -2 6.45 0.75
-12 -2 -3 6.85 0.77
12 2 -3 6.1 0.72
-3 12 2 7.85 0.95
3 12 -2 6.68 0.94
-3 12 2 7.17 0.89
2 -3 12 7.86 0.83
-2 -3 12 7.04 0.74
-12 -2 3 6.79 0.52
-3 -12 2 7.9 0.76
3 12 2 7.53 0.85
3 -12 -2 6 0.51
-2 -3 12 7.36 0.85
-3 12 -2 7.83 0.93
3 12 2 8.48 0.74
12 -2 -3 6.76 0.62
2 3 12 6.62 0.75
-3 12 -2 7.83 0.88
-3 -3 -12 14.91 0.87
-3 12 3 15.35 1.15
-3 -12 -3 16.25 0.94
-3 12 3 13.61 1.16
3 12 -3 13.87 1
3 12 -3 16.97 1.04
-12 -3 -3 15.67 1.05
-12 3 -3 15.51 0.57
-3 -12 3 15.19 1.02
-3 -3 12 16.12 0.88
3 12 3 15.63 1.05
-12 -3 3 16.79 0.85
3 -12 -3 14.52 0.72
12 -3 -3 16.34 0.8
-3 12 -3 16.06 1.19
3 12 3 15.46 0.96
3 3 12 15.48 1.03
-3 12 -3 15.03 1.14
-3 -3 12 15.84 0.99
-3 12 4 40.78 1.79
-12 -4 -3 39.92 1.73
-3 12 4 37.32 1.75
3 12 -4 42.11 1.7
-3 -12 -4 41.4 1.6
3 12 -4 39.93 1.65
-4 -3 -12 40.39 1.63
-4 -3 12 42.63 1.47
-12 4 -3 40.71 1.27
-12 -4 3 44.52 1.54
-3 -12 4 42.22 1.77
3 12 4 42.69 1.72
-3 12 -4 40.1 1.77
3 12 4 41.29 1.66
12 -4 -3 41.87 1.42
3 -12 -4 41.43 1.42
4 3 12 41.11 1.67
-3 12 -4 42.6 1.77
-5 -3 -12 9.22 0.85
-3 12 5 8.68 1.09
3 12 -5 7.58 0.88
-12 -5 -3 10.01 1.08
12 5 -3 8.62 0.34
-3 -12 -5 9.4 0.76
3 12 -5 7.8 0.94
5 3 12 7.88 1.04
-5 -3 12 8.98 0.77
-12 5 -3 8.75 0.55
3 -12 -5 8.72 0.54
-5 -3 12 9.06 0.65
3 12 5 10.16 0.96
-12 -5 3 8.87 0.86
-3 12 -5 9.34 1.07
12 -5 -3 8.72 0.64
-3 12 -5 8.93 1.08
-12 5 -3 9.93 0.62
12 6 -3 11 0.47
-6 -3 -12 9.69 1.46
-3 12 6 12.4 1.16
-12 6 3 11.43 0.69
3 12 -6 13.09 1.11
3 12 -6 10.36 1
-3 -12 -6 10.04 0.76
3 12 6 10.84 1.05
-12 6 -3 12.05 0.71
12 -6 -3 10.69 0.67
-3 12 -6 10.99 1.15
3 -12 -6 11.7 0.61
-6 -3 12 11.03 0.71
-6 -3 12 11.88 0.6
-3 -12 6 10.31 1.08
-3 12 -6 11.91 1.14
-12 6 -3 11.65 0.74
-12 -6 3 12.97 1.05
12 7 -3 7 0.44
12 7 -3 7.68 0.39
3 12 -7 6.46 0.93
-12 -7 -3 6.61 0.93
3 12 -7 6.82 0.91
-7 -3 -12 6.45 0.84
-12 7 3 7.6 0.72
-3 -12 -7 7.09 0.71
-3 12 7 6.8 0.99
3 12 7 7.95 0.93
12 -7 -3 6.27 0.6
-12 7 -3 7.79 0.74
3 -12 -7 7.86 0.5
-12 -7 3 6.42 0.82
-3 12 -7 6.21 0.98
-3 -12 7 7.33 0.93
-12 7 -3 7.2 0.75
-3 12 -7 6.55 0.98
-12 8 3 0.21 0.52
12 8 -3 0.33 0.27
3 12 -8 -0.09 0.66
-12 -8 -3 -0.55 0.64
-3 -12 -8 0.22 0.47
3 12 -8 0.64 0.73
12 8 -3 0.09 0.25
-3 12 8 -0.61 0.74
-12 8 -3 -0.21 0.53
3 -12 -8 0.11 0.24
-3 -12 8 0.15 0.65
3 12 8 -0.4 0.73
-12 -8 3 -0.04 0.86
12 -8 -3 0.71 0.36
-3 12 -8 1.01 0.86
12 8 3 -0.21 0.26
-12 8 -3 0.38 0.54
-3 12 -8 0.16 0.77
3 12 -9 7.91 1.04
-12 -9 -3 9.96 1.17
12 9 -3 8.97 0.59
-3 12 9 8.91 1.2
12 9 -3 8.34 0.58
-3 -12 -9 8.02 0.91
-12 9 3 10.21 0.92
-12 -9 3 7.62 0.95
-3 12 -9 9.14 1.16
3 12 9 7.86 1.1
12 9 3 8.56 0.62
-3 -12 9 9.48 1.18
-12 9 -3 9.19 0.93
3 -12 -9 9.64 0.59
-3 12 -9 9.33 1.13
-12 9 -3 8.5 0.99
-12 10 3 1.4 0.74
-3 12 10 -0.63 0.87
12 10 -3 0.64 0.43
3 12 -10 -0.3 0.81
-3 -12 -10 0.79 0.52
12 10 -3 0.7 0.38
-12 -10 -3 -0.1 0.72
-12 10 -3 1.57 0.82
-12 -10 3 0.77 0.79
-3 12 -10 -0.97 0.9
12 10 3 0.22 0.38
-3 -12 10 1.06 0.79
-12 10 -3 1.2 0.63
3 -12 -10 0.53 0.33
3 12 10 0.16 0.86
12 11 -3 1.61 0.33
-12 11 3 1.49 0.69
-3 12 11 0.73 0.99
12 11 -3 0.25 0.46
-12 -11 -3 0.95 0.82
3 12 -11 -0.12 0.87
-3 -12 -11 0.26 0.57
-3 -12 11 0.89 0.88
-12 11 -3 3.55 0.76
-12 -11 3 1.42 0.9
3 12 11 0.65 0.93
12 11 3 1.08 0.59
-12 11 -3 0.56 0.66
-3 12 -11 -0.21 0.86
3 -12 -11 1.27 0.36
4 12 0 18.62 1.02
-4 12 0 18.87 1.22
-4 -12 0 18.34 1.06
12 0 -4 18.24 0.57
0 -4 -12 17.46 0.84
-4 12 0 16.15 1.19
0 -4 12 18 1.14
12 0 -4 17.45 0.92
-4 12 1 25.37 1.4
-12 -1 -4 25.98 1.25
12 1 -4 25.4 0.74
4 12 -1 27.31 1.22
1 -4 12 28.01 1.41
12 1 -4 26.32 1.15
-4 -12 -1 25.05 1.24
-4 12 1 23.89 1.37
-1 -4 -12 25.64 1.09
12 -1 -4 25.47 1.08
-4 12 -1 26.73 1.39
-4 12 -1 25.59 1.38
1 4 12 24.6 0.99
4 12 1 27.45 1.22
-1 -4 12 28.26 1.32
-4 -12 1 27.5 1.34
12 2 -4 7.64 0.29
-4 -12 -2 8.66 0.73
-2 -4 -12 8.47 0.62
4 12 -2 7.53 0.77
-4 12 2 9.11 1.03
12 2 -4 8.1 0.76
-4 12 2 8.65 1.03
4 12 -2 8.1 1
12 2 -4 7.8 0.31
-12 -2 -4 8.74 0.9
-2 -4 12 8.18 0.85
-12 2 -4 8.02 0.44
4 12 2 7.1 0.7
4 -12 -2 7.41 0.51
-4 12 -2 8.33 1
4 12 2 7.2 0.87
-2 -4 12 8.42 0.92
12 -2 -4 6.9 0.62
-12 -2 4 9.16 0.44
-4 12 -2 8.07 0.94
-4 -12 2 7.3 0.84
-4 12 3 40.4 1.77
4 12 -3 41.92 1.66
-4 12 3 44.3 1.83
-3 -4 -12 40.95 1.6
-4 -12 -3 40.18 1.66
-12 -3 -4 41.36 1.7
12 3 -4 40.17 1.17
4 12 -3 42.05 1.67
-4 -12 3 41.16 1.75
4 12 3 44.28 1.69
12 -3 -4 40.66 1.42
-12 -3 4 42.3 1.39
-4 12 -3 40.86 1.77
-3 -4 12 42.62 1.59
-3 -4 12 47.32 1.67
4 -12 -3 41.65 1.43
-12 3 -4 41.81 1.28
-4 12 -3 42.78 1.79
4 12 3 40.66 1.61
3 4 12 38.21 1.55
-4 12 4 -0.48 0.66
4 12 -4 -0.28 0.51
-4 12 4 -0.89 0.69
12 4 -4 0.13 0.16
-4 -12 -4 -0.5 0.33
-12 -4 -4 0.36 0.59
-4 -4 -12 0.34 0.36
4 12 -4 -0.29 0.53
4 12 4 0.02 0.54
4 4 12 0.45 0.56
-12 -4 4 -0.52 0.38
-4 -4 12 0.63 0.47
-12 4 -4 0.39 0.35
-4 12 -4 0.35 0.7
-4 12 -4 0.25 0.69
4 12 4 -0.28 0.45
4 -12 -4 -0.24 0.2
12 -4 -4 -0.04 0.29
-4 -4 12 0.25 0.53
-12 4 -4 0.25 0.26
-4 -12 4 0.5 0.64
-12 -5 -4 13.86 1.24
12 5 -4 13.5 0.54
-5 -4 -12 14.04 1.01
4 12 -5 13.24 1.02
-4 -12 -5 12.72 0.95
-4 12 5 13.26 1.2
4 12 -5 14.56 1.07
-5 -4 12 15.96 1.04
-4 12 -5 12.11 1.16
-4 12 -5 11.84 1.17
-12 -5 4 12.8 0.92
12 -5 -4 12.75 0.71
4 -12 -5 14.93 0.65
-12 5 -4 13.34 0.77
4 12 5 13.6 1.04
-12 5 -4 14.68 0.71
-5 -4 12 14.75 0.87
-4 -12 5 13.7 1.14
5 4 12 12.3 1.11
4 12 -6 16.87 1.14
-12 -6 -4 15.82 1.28
-12 6 4 18.06 0.85
-6 -4 -12 15.69 1.16
-4 -12 -6 18.8 1.07
-4 12 6 17.2 1.28
4 12 -6 17.01 1.2
12 6 -4 18.12 0.68
12 -6 -4 17.14 0.8
-12 6 -4 17.8 0.87
4 12 6 17.93 1.23
-12 6 -4 18.29 0.91
-6 -4 12 16.11 0.88
-4 12 -6 19.81 1.31
4 -12 -6 18.2 0.76
-4 12 -6 19.44 1.32
-12 -6 4 16.73 1.08
-4 -12 6 17.37 1.35
-4 12 7 5.2 0.96
4 12 -7 5.78 0.89
-12 -7 -4 5.61 0.89
12 7 -4 5.29 0.46
-12 7 4 5.86 0.62
-7 -4 -12 5.26 0.82
4 12 -7 5.89 0.85
12 7 -4 5.65 0.37
-4 -12 -7 4.45 0.83
-12 7 -4 5.7 0.65
-7 -4 12 5.12 0.56
-12 7 -4 6.69 0.65
12 -7 -4 6.23 0.54
-4 12 -7 5.93 0.99
-4 -12 7 4.87 0.84
-7 -4 12 4.7 1.21
-4 12 -7 4.14 0.93
-12 -7 4 4.94 0.77
4 -12 -7 5.72 0.45
4 12 7 4.84 0.85
-12 8 4 35.74 1.4
-12 -8 -4 36.03 1.87
12 8 -4 34.74 1.41
12 8 -4 36.09 1.23
-4 12 8 37.48 1.83
4 12 -8 36.59 1.74
-8 -4 -12 38.08 1.77
-4 -12 -8 35.57 1.65
4 12 -8 35.56 1.68
-12 8 -4 36.89 1.48
-4 12 -8 34.99 1.86
-4 12 -8 36.53 1.81
-8 -4 12 36.31 1.11
-4 -12 8 37.89 1.89
4 12 8 34.86 1.7
-12 8 -4 36.54 1.45
4 -12 -8 36.29 1.24
12 9 -4 9.36 0.62
4 12 -9 11.87 1.24
-12 -9 -4 10.3 1.14
-4 -12 -9 10.18 0.96
-4 12 9 11 1.3
-12 9 4 10.85 0.96
-9 -4 -12 9.66 1.21
12 9 -4 10.55 0.69
-4 12 -9 11.21 1.23
-12 -9 4 9.22 1.2
12 9 4 11.06 0.68
4 -12 -9 11.97 0.6
4 12 9 11.58 1.19
-12 9 -4 11.14 0.96
-4 -12 9 10.84 1.29
-4 12 -9 9.91 1.23
-12 9 -4 10.44 1.07
-12 -10 -4 17.3 1.63
4 12 -10 19.54 1.46
-4 12 10 17.73 1.51
12 10 -4 16.97 0.92
-10 -4 -12 20.6 1.52
12 10 -4 18.98 0.89
-4 -12 -10 19.03 1.3
-4 12 -10 20.46 1.55
4 -12 -10 21.35 0.81
-12 10 -4 19.53 1.24
-4 12 -10 17.36 1.53
-12 10 -4 18.69 1.2
-4 -12 10 18.91 1.57
4 12 10 17.3 1.38
-12 -10 4 16.71 1.53
12 10 4 18.68 0.97
-4 -12 -11 29.74 1.6
-4 12 11 31.77 1.89
12 11 -4 33.47 1.18
12 11 -4 32.59 1.29
-12 11 4 32.59 1.5
-12 -11 -4 31.14 1.84
4 12 -11 28.47 1.7
-12 11 -4 30.89 1.53
4 12 11 32.3 1.8
-12 -11 4 31.8 1.87
-4 -12 11 29.04 1.78
-12 11 -4 31.09 1.53
-4 12 -11 27.34 1.83
12 11 4 32.93 1.34
-5 -12 0 0.54 0.52
-5 12 0 -0.26 0.67
0 -5 -12 0.47 0.25
5 12 0 -0.87 0.37
12 0 -5 0.47 0.35
-5 12 0 0.3 0.67
12 1 -5 19.1 1
5 12 -1 19.99 1.03
-1 -5 -12 20.3 0.95
-5 -12 -1 20.46 1.2
-5 12 1 19.48 1.25
-5 12 1 19.8 1.28
-12 1 -5 20.16 0.76
1 -5 -12 19.03 0.86
-5 12 -1 21.25 1.27
5 12 1 21.13 1.02
12 -1 -5 19.94 0.94
-5 -12 1 18.93 1.18
-5 12 -1 20.59 1.27
5 12 1 17.64 1.28
-1 -5 12 21.28 1.29
1 5 12 19.24 0.76
-5 12 2 2.85 0.78
12 2 -5 1.24 0.46
-5 -12 -2 2.42 0.54
5 12 -2 1.5 0.52
5 12 -2 1.88 0.58
-5 12 2 2.21 0.76
-12 -2 -5 1.29 0.63
-2 -5 -12 1.88 0.38
5 12 2 1.77 0.46
-2 -5 12 2.45 0.61
-5 12 -2 2.41 0.75
12 -2 -5 3.12 0.4
-12 2 -5 2.32 0.37
-5 12 -2 1.62 0.74
-5 -12 2 2.6 0.66
5 12 2 1.63 0.57
2 5 12 2.94 0.48
2 -5 -12 3.13 0.37
-2 -5 12 3.62 0.7
-5 12 3 9.11 1.05
5 12 -3 10.21 0.86
-5 -12 -3 9.74 0.89
-12 -3 -5 9.66 0.96
5 12 -3 8.97 0.8
-3 -5 -12 9.44 0.74
-5 12 3 9.08 1.04
-3 -5 12 8.72 0.87
-3 -5 12 8.5 1.03
12 -3 -5 8.04 0.61
5 12 3 9.65 0.76
-12 3 -5 8.96 0.63
-5 12 -3 9.56 1.09
-12 3 -5 9.35 0.44
3 5 12 7.42 0.9
5 -12 -3 8.9 0.53
5 12 3 7.47 0.8
-5 12 -3 8.9 0.97
-12 -3 5 9.66 0.55
5 12 -4 11.42 0.91
-5 -12 -4 14.59 1.01
-4 -5 -12 11.96 0.91
5 12 -4 14.41 1
-12 -4 -5 13.32 1.21
-5 12 4 13.07 1.14
-5 12 4 12.45 1.14
-5 12 -4 13.12 1.15
-4 -5 12 14.12 0.95
-12 4 -5 14.66 0.75
-12 4 -5 14.06 0.65
4 5 12 14.48 1.08
12 -4 -5 12.96 0.71
5 12 4 14.99 0.97
-4 -5 12 14.03 1.16
5 -12 -4 13.67 0.64
-5 12 -4 13.29 1.15
-5 -12 4 14.06 1.16
-12 -4 5 13.47 0.8
5 12 4 13.8 0.97
5 12 -5 13.43 0.96
-12 -5 -5 11.42 1.22
5 12 -5 11.94 1
-5 -5 -12 11.44 1.1
-5 12 5 10.84 1.11
12 5 -5 10.48 0.56
-5 -12 -5 10.95 1.1
-5 -5 12 10.74 0.92
-12 5 -5 11.61 0.79
12 -5 -5 12.26 0.65
-12 5 -5 12.86 0.72
5 -12 -5 12.85 0.59
-5 -5 12 13.51 1.12
-5 -12 5 12.85 1.25
5 12 5 11.89 0.94
-12 -5 5 10.41 0.87
-5 12 -5 10.23 1.12
-5 12 -5 11.07 1.15
5 5 12 14.96 1.15
5 12 -6 0.86 0.68
-5 -12 -6 1.04 0.55
-5 12 6 1.07 0.75
-6 -5 -12 0.83 0.55
5 12 -6 0.18 0.59
-12 -6 -5 1.42 0.76
12 6 -5 0.69 0.21
12 6 -5 0.37 0.29
-12 6 -5 -0.01 0.5
-5 -12 6 0.72 0.7
5 -12 -6 1.01 0.22
5 12 6 0.02 0.61
-5 12 -6 0.44 0.7
-5 12 -6 1.18 0.81
-6 -5 12 0.35 0.45
-12 -6 5 0.86 0.53
-6 -5 12 1.45 0.7
-12 6 -5 0.15 0.46
12 -6 -5 0.42 0.28
-5 12 7 35.88 1.75
5 12 -7 32.9 1.58
-5 -12 -7 35.46 1.68
-12 -7 -5 37.2 1.84
-12 7 5 36.44 1.38
-7 -5 -12 33.75 1.67
12 7 -5 36.35 1.12
5 12 -7 35.76 1.7
12 7 -5 35.32 1.21
-5 12 -7 35.33 1.77
-12 7 -5 36 1.39
-12 7 -5 35.37 1.41
-5 -12 7 37.16 1.86
-5 12 -7 33.74 1.73
-12 -7 5 34.6 1.62
5 12 7 34.64 1.65
-7 -5 12 34.44 1.36
5 -12 -7 32.72 1.19
5 12 -8 18.6 1.24
12 8 -5 19.92 0.86
5 12 -8 17.82 1.3
12 8 -5 17.87 0.76
-12 -8 -5 20.05 1.45
-5 -12 -8 19.32 1.28
-8 -5 -12 17.73 1.29
-12 8 5 18.66 1.04
-5 12 8 19.47 1.45
-5 12 -8 18.88 1.43
5 12 8 18.26 1.25
-5 -12 8 17.36 1.36
5 -12 -8 18.66 0.76
-8 -5 12 17.5 0.91
-5 12 -8 17.76 1.42
-12 8 -5 18.69 1.13
-12 9 5 0.91 0.67
-12 -9 -5 -0.02 0.78
12 9 -5 0.21 0.35
5 12 -9 0.86 0.68
-9 -5 -12 0.78 0.7
-5 -12 -9 1 0.59
-5 12 9 0.82 0.87
-12 -9 5 1.69 0.81
-5 12 -9 1.47 0.89
-5 -12 9 0.54 0.79
-5 12 -9 -0.26 0.85
-12 9 -5 0.57 0.59
-12 9 -5 1.32 0.96
5 12 9 1.39 0.78
-5 12 10 17.65 1.6
-10 -5 -12 14.76 1.46
-12 10 5 19.13 1.25
-12 -10 -5 15.79 1.48
5 12 -10 18.47 1.36
12 10 -5 21.11 0.83
12 10 -5 17.6 0.91
-5 -12 -10 18.28 1.32
-12 10 -5 17.57 1.16
-5 -12 10 17.23 1.47
5 12 10 17.8 1.39
-12 -10 5 17.82 1.5
-12 10 -5 19.41 1.22
-5 12 -10 15.8 1.6
12 10 5 19.79 1.08
-5 12 -10 17.75 1.51
12 11 -5 2.17 0.43
-12 11 5 1.53 0.7
-5 12 11 0.02 1
12 11 -5 1.35 0.61
-12 -11 -5 0.86 0.95
-5 -12 -11 1.78 0.73
5 12 -11 1.05 0.86
-11 -5 -12 0.59 0.81
-12 11 -5 1.61 0.77
5 12 11 1.4 0.86
12 11 5 1.56 0.4
-5 12 -11 1.49 1.01
-12 -11 5 0.66 0.95
-5 -12 11 1.71 0.98
-5 12 -11 0.6 1.01
-12 11 -5 1.1 0.74
0 -6 -12 6.84 0.55
-6 12 0 6.99 0.91
6 12 0 5.22 0.66
-6 12 0 7.3 0.9
6 12 0 6.35 0.87
12 0 -6 4.85 0.64
12 1 -6 52.66 1.85
-6 12 1 54.45 2.06
6 12 -1 54.45 1.91
-1 -6 -12 53.9 1.85
-6 12 1 53.13 2.04
-6 12 -1 53.78 2.05
6 12 1 52.09 1.93
6 12 1 54.51 1.9
12 -1 -6 51.39 1.77
1 -6 -12 53.12 1.78
-6 12 -1 51.53 2.03
6 12 -2 4.15 0.68
-6 12 2 4.33 0.8
6 12 -2 4.18 0.64
-6 12 2 3.39 0.79
-12 -2 -6 4.04 0.77
-2 -6 -12 2.81 0.48
2 6 12 3.69 0.48
-6 12 -2 3.78 0.83
-2 -6 12 3.42 0.75
6 12 2 3.67 0.63
-12 2 -6 3.62 0.36
2 -6 -12 3.97 0.4
-6 -12 2 4.07 0.75
-6 12 -2 4.42 0.83
6 12 2 3.44 0.53
12 -2 -6 4.14 0.45
-6 12 3 13.88 1.2
-3 -6 -12 11.51 0.81
6 12 -3 11.01 0.87
6 12 -3 13.19 0.89
-6 12 3 14.04 1.12
-6 -12 -3 9.63 1.2
6 12 3 13.21 0.96
-6 12 -3 10.7 1.09
3 6 12 11.54 1.08
3 -6 -12 11.82 0.59
-3 -6 12 12.81 1.33
-3 -6 12 11.88 1.03
-12 3 -6 10.92 0.74
-6 12 -3 13.14 1.11
12 -3 -6 11.14 0.68
6 12 3 11.62 0.81
-12 3 -6 10.66 0.6
-6 -12 3 11 1.08
6 12 -4 17.75 1.07
-6 -12 -4 16.35 1.22
6 12 -4 17.54 1.03
-12 -4 -6 15.84 1.33
-6 12 4 16.5 1.25
-4 -6 -12 18.06 1.07
-6 12 4 17.12 1.23
4 6 12 15.85 1.14
6 -12 -4 17.65 0.73
6 12 4 18.54 1
-6 12 -4 18.81 1.34
-6 12 -4 18.57 1.26
-12 4 -6 17.98 0.92
-4 -6 12 16.03 1.26
-4 -6 12 14.93 1.09
-12 -4 6 17.64 0.81
12 -4 -6 16.58 0.77
-12 4 -6 18.03 0.79
6 12 4 17.92 1.06
-6 -12 4 17.76 1.36
6 12 -5 0.28 0.54
12 5 -6 0.47 0.21
-6 -12 -5 0.99 0.59
-6 12 5 1.1 0.77
-5 -6 -12 0.26 0.64
-12 -5 -6 0.65 0.71
6 12 -5 1.06 0.56
-6 12 -5 0.63 0.77
-6 -12 5 -0.63 0.61
12 -5 -6 0.16 0.28
6 -12 -5 0.94 0.22
-5 -6 12 0.7 0.57
6 12 5 0.18 0.55
-6 12 -5 1.14 0.77
-5 -6 12 0.04 0.71
-12 -5 6 0.57 0.43
-12 5 -6 0.71 0.44
-12 5 -6 0.73 0.52
5 6 12 0.97 0.68
12 6 -6 10.3 0.52
-6 -12 -6 9.8 1.02
6 12 -6 10.9 1.01
6 12 -6 10.94 0.93
-6 12 6 9.46 1.12
-12 -6 -6 9.69 1.09
12 6 -6 9.3 0.63
-6 -6 -12 10.19 1.01
-6 -12 6 9.64 1.17
-12 6 -6 11.71 0.83
-6 12 -6 10.25 1.24
6 12 6 8.75 0.94
6 -12 -6 11.06 0.53
-12 -6 6 8.96 0.9
-6 -6 12 10.21 0.99
-12 6 -6 9.19 0.86
-6 12 -6 10.39 1.17
12 7 -6 37.34 1.34
-6 12 7 39.22 1.82
6 12 -7 37.99 1.65
-12 -7 -6 38.78 1.9
-6 -12 -7 36.1 1.75
-7 -6 -12 39.27 1.83
12 7 -6 38.08 1.23
6 12 -7 39.36 1.71
-12 7 -6 39.12 1.55
-12 7 -6 40.42 1.5
-7 -6 12 37.18 1.55
-6 -12 7 35.19 1.89
-12 -7 6 33.51 1.93
6 12 7 38.99 1.75
-6 12 -7 39.77 1.89
6 -12 -7 38.25 1.24
-6 12 -7 35.94 1.82
6 12 -8 4.6 0.78
12 8 -6 3.81 0.43
-6 -12 -8 3.96 0.73
-6 12 8 5.89 1.02
-12 8 6 3.34 0.7
6 12 -8 4.2 0.83
-12 -8 -6 3.36 0.93
-8 -6 -12 3.56 0.76
12 8 -6 4.58 0.69
-12 8 -6 4.02 0.84
-6 12 -8 5.29 1.04
-6 12 -8 4.24 1.02
6 12 8 4.64 0.82
-8 -6 12 3.71 0.58
-12 8 -6 4.61 0.72
-6 -12 8 3.54 0.91
-12 -9 -6 6.25 1
-12 9 6 5.54 0.92
6 12 -9 6.64 0.9
12 9 -6 6.22 0.59
-9 -6 -12 4.71 0.85
12 9 -6 6.11 0.5
-6 -12 -9 5.77 0.85
6 12 -9 7.6 1.03
-6 12 9 5.89 1.07
-12 9 -6 5.59 0.77
-12 9 -6 5.46 0.8
6 12 9 6.26 0.94
-6 -12 9 6.37 1.05
-9 -6 12 3.65 0.59
-12 -9 6 5.07 0.88
-6 12 -9 4.96 1.08
-6 12 -9 4 1.01
-10 -6 -12 32.57 1.78
-12 -10 -6 35.09 1.99
-6 -12 -10 29.05 1.62
12 10 -6 28.68 1.22
12 10 -6 28.96 1.16
6 12 -10 28 1.53
-12 10 6 30.94 1.45
-6 12 10 30.67 1.78
-12 -10 6 28.96 1.76
-6 12 -10 28.8 1.74
-12 10 -6 29.43 1.45
-6 12 -10 30.45 1.79
6 12 10 31.1 1.72
-12 10 -6 29.67 1.5
-6 -12 10 29.77 1.89
12 11 -6 3.14 0.46
-12 11 6 1.1 0.72
-6 12 11 1.03 1.02
-12 -11 -6 2.7 0.94
12 11 -6 1.72 0.52
6 12 -11 0.65 0.79
-11 -6 -12 3.76 0.93
-6 -12 -11 2.29 0.81
12 11 6 1.62 0.43
-6 12 -11 0.14 1
-6 -12 11 0.61 0.97
6 12 11 1.55 0.87
-12 11 -6 1.3 0.8
-12 11 -6 2.61 0.77
-6 12 -11 1.73 1.06
-12 -11 6 2.66 1.02
-7 12 0 33.61 1.6
0 -7 -12 34.13 1.32
-7 -12 0 34.65 1.65
7 12 0 32.74 1.55
12 0 -7 33.42 1.33
-7 12 0 34.68 1.58
7 12 0 36.63 1.38
-1 -7 -12 6.06 0.63
7 12 -1 5.05 0.62
-7 12 1 8.45 0.94
12 1 -7 4.92 0.56
-7 12 1 6.85 0.88
7 12 -1 6.3 0.73
-7 -12 -1 7.15 0.89
-1 -7 12 6.8 0.9
-7 12 -1 6.53 0.88
7 12 1 6.64 0.8
1 -7 -12 7.05 0.52
-12 1 -7 5.41 0.46
-7 -12 1 6.71 0.9
7 12 1 7.44 0.64
-7 12 -1 6.6 0.95
12 -1 -7 7.1 0.64
7 12 -2 3.32 0.59
-12 -2 -7 2.86 0.75
7 12 -2 3.56 0.57
-2 -7 -12 3.33 0.49
-7 12 2 3.12 0.82
-7 12 2 2.6 0.79
12 2 -7 2.64 0.3
-7 -12 -2 2.18 0.7
2 7 12 3.27 0.53
2 -7 -12 3.49 0.43
7 12 2 2.86 0.6
-7 -12 2 3.3 0.8
-7 12 -2 4.08 0.82
-7 12 -2 2.8 0.79
12 -2 -7 3.12 0.4
-2 -7 12 2.78 0.72
-12 2 -7 3.49 0.43
7 12 2 3.21 0.5
7 12 -3 6.52 0.69
12 3 -7 6.11 0.35
-7 12 3 6.65 0.93
-7 12 3 7.08 0.93
7 12 -3 7.93 0.74
-7 -12 -3 6.24 0.83
-3 -7 -12 6.07 0.69
-12 -3 -7 5.8 0.85
3 7 12 5.96 0.71
-7 -12 3 6.88 0.89
-12 3 -7 7.1 0.61
12 -3 -7 5.71 0.55
3 -7 -12 6.59 0.46
-7 12 -3 6.94 0.93
-7 12 -3 6.76 0.91
7 12 3 5.77 0.66
7 12 3 6.98 0.74
-3 -7 12 7.61 0.9
7 12 -4 5.7 0.72
12 4 -7 4.36 0.37
-4 -7 -12 4.64 0.78
-7 12 4 4.4 0.81
-12 -4 -7 5.13 0.87
7 12 -4 5.79 0.69
-7 -12 -4 4.83 0.78
-12 -4 7 4.94 0.46
-12 4 -7 5.06 0.56
-12 4 -7 6.61 0.79
12 -4 -7 5.33 0.51
-7 12 -4 5.86 0.9
4 7 12 4.87 0.85
-4 -7 12 5.96 0.81
4 -7 -12 4.88 0.4
7 12 4 5.85 0.7
-7 -12 4 5.87 0.87
-7 12 -4 5.69 0.93
7 12 -5 34.37 1.49
-5 -7 -12 35.73 1.62
-7 -12 -5 33.72 1.74
-12 -5 -7 34.74 1.78
12 5 -7 34.48 1.1
7 12 -5 34.76 1.43
-7 12 5 35.14 1.66
-7 12 -5 33.43 1.64
-12 -5 7 34.59 1.3
-12 5 -7 35.18 1.33
7 12 5 35.1 1.5
-5 -7 12 34.36 1.61
-7 12 -5 34.49 1.74
-12 5 -7 34.73 1.41
-7 -12 5 35.44 1.77
7 -12 -5 35.35 1.17
7 12 -6 40.15 1.61
7 12 -6 39.24 1.69
-7 -12 -6 40.19 1.83
-7 12 6 40.38 1.79
-6 -7 -12 38.53 1.75
-12 -6 -7 36.21 1.86
12 6 -7 36.49 1.23
-7 12 -6 36.17 1.88
7 12 6 39.48 1.69
7 -12 -6 37.43 1.24
-7 -12 6 38.68 1.87
-7 12 -6 39.8 1.81
-12 6 -7 37.82 1.56
-12 -6 7 36.71 1.51
-6 -7 12 39.74 1.73
-12 6 -7 40.97 1.5
12 7 -7 -0.06 0.32
-7 -7 -12 -0.99 0.55
-12 -7 -7 1.11 0.81
7 12 -7 -0.95 0.5
-7 12 7 -0.6 0.74
-7 -12 -7 0.69 0.66
7 12 -7 -0.06 0.62
7 12 7 -0.51 0.54
-12 -7 7 -0.21 0.57
-7 -7 12 0.41 0.6
-7 12 -7 -0.38 0.8
-7 -12 7 -0.66 0.68
-7 12 -7 0.48 0.87
-12 7 -7 0.65 0.71
-7 -12 -8 19.93 1.49
7 12 -8 17.34 1.22
7 12 -8 18.34 1.32
-12 -8 -7 22.25 1.57
-7 12 8 18.28 1.41
12 8 -7 17.19 0.84
12 8 -7 20.25 0.86
-8 -7 -12 19.63 1.41
7 12 8 19.89 1.25
-12 8 -7 18.05 1.1
-7 12 -8 18.98 1.47
-8 -7 12 16.66 1.23
-7 12 -8 18.77 1.45
-12 8 -7 20.35 1.23
-7 -12 8 19.55 1.58
-9 -7 -12 5.3 0.99
12 9 -7 5.47 0.57
-7 12 9 3.96 1.01
7 12 -9 4.82 0.83
7 12 -9 4.55 0.95
-7 -12 -9 5.29 1.02
-12 9 7 4.7 0.86
12 9 -7 4.58 0.56
-12 -9 -7 4.46 1
-9 -7 12 3.37 0.68
-7 12 -9 7.02 1.1
-7 12 -9 5.23 1.06
-12 9 -7 5.93 0.86
-7 -12 9 5.15 1.06
-12 9 -7 6.12 0.8
7 12 9 7.46 0.95
-12 -9 7 3.47 0.9
-10 -7 -12 7.4 1.15
12 10 -7 8.82 0.7
-7 -12 -10 6.81 0.99
7 12 -10 8.47 0.97
-12 10 7 8.6 0.92
-7 12 10 7.2 1.17
-12 -10 -7 6.53 1.09
12 10 -7 7.43 0.87
-12 10 -7 8.92 0.95
-12 -10 7 5.76 1.07
-7 12 -10 8.71 1.18
7 12 10 9.09 1.1
-7 12 -10 8.15 1.21
-12 10 -7 8.76 0.94
-7 -12 10 8.36 1.22
-12 11 7 23.25 1.38
-7 12 11 22.64 1.71
-11 -7 -12 19.52 1.62
-7 -12 -11 27.77 1.66
-12 -11 -7 24.54 1.87
11 7 -12 24.21 1.16
12 11 -7 24.28 1.11
7 12 -11 23.28 1.41
7 12 11 21.52 1.51
-7 -12 11 26.7 1.84
-12 -11 7 21.12 1.81
-12 11 -7 24.13 1.48
-12 11 -7 21.14 1.43
-7 12 -11 21.75 1.8
-7 12 -11 23.34 1.78
0 8 12 3.99 0.95
8 12 0 4.66 0.54
-8 12 0 4.6 0.84
12 0 -8 6.81 0.69
-8 -12 0 5.73 0.9
0 -8 -12 5.98 0.54
-8 12 0 4.94 0.87
8 12 0 5.15 0.71
-8 12 1 56.21 2.14
-1 -8 -12 58.15 2.02
-8 12 1 59.31 2.16
8 12 -1 56.31 1.98
-8 -12 -1 59.58 2.32
-1 8 12 57.99 2.3
8 12 -1 57.95 2.01
-8 -12 1 57.65 2.32
12 -1 -8 54.09 1.89
8 12 1 59.38 1.97
1 -8 -12 55.16 1.9
8 12 1 59.24 2.05
-8 12 -1 57.26 2.16
-1 -8 12 59.72 2.26
-8 12 -1 59.75 2.2
-8 12 2 38.43 1.72
8 12 -2 38.09 1.47
-2 -8 -12 37.64 1.59
-2 8 12 39.01 1.84
-8 -12 -2 37.64 1.84
-8 12 2 35.86 1.66
8 12 -2 37.17 1.5
-8 12 -2 37.62 1.68
8 12 2 37.56 1.45
-2 -8 12 37.5 1.73
2 -8 -12 38.36 1.35
8 12 2 37.82 1.51
-8 12 -2 35.74 1.64
12 -2 -8 33.72 1.33
-8 -12 2 39.75 1.84
12 3 -8 0.54 0.28
-12 -3 -8 0.08 0.65
8 12 -3 0.44 0.42
-8 -12 -3 -0.51 0.64
-3 -8 -12 0.22 0.46
8 12 -3 -0.35 0.4
-8 12 3 0.02 0.74
-8 12 3 -0.16 0.71
12 -3 -8 -0.9 0.34
-8 12 -3 0.05 0.69
-3 -8 12 -0.62 0.67
-12 3 -8 -0.09 0.46
8 12 3 -0.3 0.35
-8 -12 3 0.24 0.73
-8 12 -3 -0.52 0.62
8 12 3 1.01 0.46
-8 -12 -4 38.98 1.89
8 12 -4 35.51 1.49
-8 12 4 36.43 1.66
-4 -8 -12 36.75 1.64
12 4 -8 33.86 1.24
8 12 -4 35.94 1.45
-12 -4 -8 35.24 1.76
8 12 4 37.83 1.52
-4 -8 12 33.71 1.73
4 -8 -12 35.62 1.22
-8 12 -4 37.23 1.71
-12 4 -8 36.65 1.36
-8 12 -4 33.88 1.64
-8 -12 4 34.56 1.78
8 12 -5 18.6 1.04
-12 -5 -8 20.32 1.45
-5 -8 -12 18.41 1.23
-8 -12 -5 20.98 1.44
-8 12 5 17.38 1.27
8 12 -5 18.06 1.1
12 5 -8 17.64 0.75
8 -12 -5 18.2 0.72
-8 12 -5 18.64 1.42
8 12 5 17.56 1.05
-5 -8 12 18.02 1.35
-8 12 -5 19.49 1.39
-8 -12 5 20 1.54
5 -8 -12 18.78 0.74
-12 5 -8 17.61 1.15
-12 -5 8 17.82 0.82
-12 5 -8 17.64 1.03
-12 -6 -8 3.66 0.94
8 12 -6 4.47 0.65
8 12 -6 4.24 0.74
12 6 -8 3.83 0.43
-8 -12 -6 5 0.86
-8 12 6 5.17 0.99
-6 -8 -12 4.57 0.81
8 12 6 4.9 0.77
-8 -12 6 4.77 0.93
-12 -6 8 3.77 0.56
-12 6 -8 3.12 0.86
-6 -8 12 5.06 0.88
-8 12 -6 2.3 0.9
8 -12 -6 5.11 0.35
-8 12 -6 3.56 0.91
-12 6 -8 4.11 0.95
-8 -12 -7 20.42 1.46
12 7 -8 18.56 0.84
-12 -7 -8 18.19 1.49
8 12 -7 15.4 1.13
-8 12 7 21.26 1.41
8 12 -7 19.61 1.1
-7 -8 -12 20.77 1.45
-8 -12 7 20.47 1.57
8 12 7 18.21 1.22
-8 12 -7 17.31 1.39
-12 7 -8 17.71 1.22
-12 -7 8 19.44 1.21
-7 -8 12 18.71 1.44
-12 7 -8 19.53 1.11
-8 12 -7 19.75 1.42
8 12 -8 19.83 1.15
12 8 -8 19.69 0.93
12 8 -8 20.52 0.98
-12 -8 -8 18.83 1.64
-8 12 8 20.27 1.54
-8 -12 -8 22.38 1.46
-8 -8 -12 19.46 1.41
8 12 -8 21.22 1.34
-8 -8 12 19.28 1.47
-8 -12 8 17.55 1.68
8 12 8 17.71 1.26
-8 12 -8 19.63 1.55
-12 8 -8 20.17 1.21
-12 8 -8 19.19 1.28
-8 12 -8 20.91 1.5
8 12 -9 32.38 1.55
-8 12 9 33.8 1.85
8 12 -9 29.65 1.58
9 8 -12 30.11 1.46
12 9 -8 31.72 1.31
-8 -12 -9 32.71 1.87
-9 -8 -12 31.96 1.85
-12 -9 -8 32.74 1.99
12 9 -8 31.6 1.31
-8 12 -9 31.4 1.88
-8 -12 9 33.84 1.99
-12 9 -8 29.99 1.52
-12 -9 8 29.98 1.78
-8 12 -9 29.74 1.86
-12 9 -8 33.84 1.58
8 12 9 31.93 1.55
12 10 -8 16.81 0.99
-12 10 8 18.9 1.27
-8 -12 -10 19.73 1.55
10 8 -12 17.46 1.08
-8 12 10 14.18 1.57
8 12 -10 15.18 1.32
-12 -10 -8 19.65 1.65
-10 -8 -12 17.41 1.51
8 12 -10 18.67 1.28
12 10 -8 19.65 0.86
8 12 10 15.67 1.24
-8 12 -10 17.53 1.69
-8 12 -10 16.36 1.52
-8 -12 10 17.69 1.79
-12 10 -8 18.19 1.35
-12 10 -8 17.36 1.31
-12 -10 8 20.02 1.67
-12 11 8 3.07 0.81
8 12 -11 2.34 0.81
-8 12 11 2.17 1.07
12 11 -8 0.93 0.53
11 8 -12 1.73 0.55
-8 -12 -11 2.82 0.95
-8 12 -11 1.2 1.05
-11 8 -12 1.65 0.96
-11 8 -12 2.08 1.04
-12 -11 8 1.89 1.08
-8 12 -11 2.52 1.09
-8 -12 11 4.22 1.13
-12 11 -8 3.46 0.91
-12 11 -8 1.58 0.85
-9 12 0 12.34 1.1
0 9 12 11.26 1.33
9 12 0 13.98 0.94
9 12 0 15.02 0.84
-9 12 0 14.36 1.18
0 -9 -12 14.37 0.85
-9 -12 0 13.1 1.36
9 12 -1 5.21 0.6
-9 12 1 3.1 0.85
-1 -9 -12 4.23 0.63
9 12 -1 5.27 0.67
-1 9 12 3.01 0.95
-9 12 1 4.7 0.82
-9 -12 -1 4.78 0.85
1 -9 -12 4.79 0.58
-9 12 -1 4.6 0.85
1 9 12 3.97 0.91
9 12 1 4.53 0.63
9 12 1 5.13 0.61
-9 -12 1 4.27 0.88
-9 12 -1 5.26 0.86
-1 -9 12 3.83 0.85
-9 12 2 40.03 1.78
-9 12 2 41.52 1.75
-2 9 12 40.43 1.96
9 12 -2 42.72 1.58
-9 -12 -2 43.44 2.04
-2 -9 -12 41.05 1.7
9 12 -2 40.87 1.56
2 -9 -12 40.9 1.48
9 12 2 42.01 1.54
9 12 2 42.44 1.59
2 9 12 41.15 1.96
-9 -12 2 42.33 2.05
-2 -9 12 42.62 1.94
-9 12 -2 41.77 1.81
-9 12 -2 43.94 1.78
-3 9 12 9.14 1.17
9 12 -3 9.18 0.79
-9 12 3 9.38 1.12
-3 -9 -12 8.34 1.03
-12 -3 -9 9.12 1.04
9 12 -3 8.3 0.79
-9 -12 -3 9.76 1.16
3 -9 -12 10.7 0.58
-9 -12 3 9.56 1.16
9 12 3 8.92 0.79
-3 -9 12 9 1.01
3 9 12 9.42 1.12
-9 12 -3 9.19 1.04
-9 12 -3 9.02 1.09
9 12 -4 9.36 0.77
-4 9 12 9.51 1.21
12 4 -9 10.03 0.66
-9 -12 -4 11.82 1.24
-12 -4 -9 9.43 1.14
-9 12 4 11.61 1.21
-4 -9 -12 11.63 1.04
9 12 -4 9.67 0.86
-9 -12 4 13.1 1.38
-4 -9 12 10.46 1.27
-9 12 -4 10.42 1.13
9 12 4 8.97 0.76
-9 12 -4 10.78 1.13
4 -9 -12 12.14 0.59
-5 9 12 1.36 0.9
-5 -9 -12 0.8 0.59
-12 -5 -9 0.79 0.77
-9 12 5 0.66 0.71
12 5 -9 0.26 0.37
9 12 -5 0.93 0.53
9 12 -5 1.93 0.46
-9 -12 -5 1.36 0.74
-9 12 -5 0.61 0.81
9 12 5 0.65 0.52
-9 -12 5 0.48 0.79
-9 12 -5 0.37 0.78
-5 -9 12 -0.13 0.72
12 6 -9 5.16 0.51
-9 -12 -6 4.55 0.94
-9 12 6 5.85 0.97
-12 -6 -9 4.08 0.98
9 12 -6 4.75 0.7
9 12 -6 5.14 0.75
-6 -9 -12 5.1 0.86
-12 6 -9 5.14 0.81
-12 6 -9 4.71 0.7
-9 12 -6 5.39 0.94
9 12 6 5.52 0.75
-6 -9 12 5.53 0.95
-9 12 -6 5.93 0.96
-9 -12 6 3.6 0.97
9 12 -7 4.12 0.67
-7 -9 -12 4.86 0.89
-12 -7 -9 4.49 1.01
9 12 -7 6.32 0.81
12 7 -9 5.92 0.66
-9 12 7 4.73 0.95
-9 -12 -7 4.55 0.93
-9 -12 7 3.77 1.03
-7 -9 12 5.24 0.94
9 12 7 4.51 0.75
-9 12 -7 5.46 1.02
-12 7 -9 5.12 0.77
-12 7 -9 5.11 0.84
-12 -7 9 3.91 0.68
-9 12 -7 4.97 0.95
8 9 -12 32.82 1.6
12 8 -9 31.8 1.33
9 12 -8 32.98 1.46
-12 -8 -9 35.4 2.02
-9 -12 -8 33.15 1.89
9 12 -8 34.11 1.63
-8 -9 -12 33.53 1.81
-9 12 8 32.47 1.78
-12 8 -9 31.54 1.59
-9 -12 8 36.31 2.02
-8 -9 12 30.96 1.83
9 12 8 33.18 1.55
-9 12 -8 32.93 1.84
-9 12 -8 30.55 1.74
-9 12 9 15.15 1.47
9 9 -12 12.82 1.11
12 9 -9 13.83 0.79
-9 -12 -9 14.57 1.49
12 9 -9 13.84 0.9
9 12 -9 12.09 1.04
-9 -9 -12 14.18 1.51
9 12 -9 12.1 1.14
-12 -9 -9 12.95 1.38
9 12 9 12.72 1.07
-9 -9 12 15.69 1.54
-9 -12 9 15.02 1.68
-12 9 -9 14.28 1.22
-12 9 -9 12.83 1.24
-9 12 -9 14.32 1.52
-9 12 -9 14.81 1.39
-12 -9 9 14.17 1.56
-9 9 -12 14.44 1.43
-10 -9 -12 0.55 0.87
-9 12 10 0.84 0.93
10 9 -12 0.2 0.61
9 12 -10 0.45 0.74
-12 -10 -9 1.2 1.19
9 12 -10 2.14 0.66
-9 -12 -10 1.82 0.93
-12 10 -9 1.87 0.85
9 12 10 -0.34 0.68
-9 12 -10 0.92 1.06
-9 12 -10 0.15 1.06
-12 -10 9 0.63 1.06
-12 10 -9 2.84 0.87
-9 -12 10 -0.45 1.07
-10 9 -12 0.57 0.98
-10 9 -12 0.34 1.02
-9 12 11 5.67 1.11
11 9 -12 5.06 0.65
9 12 -11 3.7 0.85
9 12 -11 4.16 1.07
12 11 -9 2.11 0.63
-12 -11 9 3.01 1.24
-9 12 -11 4.09 1.18
-12 11 -9 4.21 1.02
-11 9 -12 2.44 1.01
-9 12 -11 3.8 1.24
-9 -12 11 3.52 1.23
-11 9 -12 5.25 1.06
-12 11 -9 3.91 0.96
-10 12 0 1.59 0.82
10 12 0 1.69 0.52
10 12 0 1.03 0.38
-10 12 0 1.87 0.69
-10 -12 0 1.44 0.87
0 -10 12 1.98 0.8
0 -10 -12 0.48 0.4
0 10 12 1.14 0.9
-1 -10 -12 8.53 0.86
10 12 -1 10.51 0.83
-10 -12 -1 9.78 1.14
10 12 -1 12.25 0.73
-1 10 12 9.93 1.21
-10 12 1 10.85 1.12
-10 12 1 10.24 1.1
-10 -12 1 10.87 1.36
-1 -10 12 12.02 1.28
1 10 12 9.73 1.21
10 12 1 10.66 0.8
-10 12 -1 9.36 1.07
10 12 1 10.48 0.72
1 -10 -12 9.11 0.76
-10 12 -1 12.07 1.16
10 12 -2 0.12 0.43
10 12 -2 0.6 0.38
-10 12 2 0.27 0.75
-2 -10 -12 -0.79 0.76
-2 10 12 0.13 0.89
-10 -12 -2 -0.86 0.73
-10 -12 2 -0.03 0.68
-2 -10 12 0.45 0.73
2 -10 -12 -0.29 0.35
10 12 2 0.24 0.42
-10 12 -2 0.38 0.68
2 10 12 0.28 0.8
-10 12 -2 -0.3 0.66
-3 -10 -12 0.9 0.58
-3 10 12 2.62 0.94
-10 -12 -3 0.69 0.78
10 12 -3 0.38 0.38
-10 12 3 0.02 0.7
10 12 -3 0.98 0.44
-3 -10 12 -0.4 0.79
-10 -12 3 0.33 0.82
-10 12 -3 0.73 0.77
-10 12 -3 1.08 0.73
3 -10 -12 1.47 0.31
3 10 12 -0.34 0.78
-12 -4 -10 19.78 1.52
-4 -10 -12 18.51 1.28
-10 12 4 18.36 1.23
-10 -12 -4 19.85 1.51
-4 10 12 19.4 1.53
10 12 -4 16.4 0.94
10 12 -4 19.29 1.03
4 10 12 16.07 1.47
-10 12 -4 18.47 1.34
10 12 4 19.07 1.02
4 -10 -12 21.58 0.8
-4 -10 12 18.15 1.54
-10 12 -4 19.67 1.38
-10 -12 4 19.02 1.47
12 5 -10 17.39 0.94
-10 12 5 16.57 1.31
-5 -10 -12 18.55 1.27
-5 10 12 18.98 1.52
-12 -5 -10 17.21 1.56
-10 -12 -5 20.97 1.47
10 12 -5 14.87 0.91
10 12 -5 18.26 1.01
-10 -12 5 16.76 1.49
10 12 5 16.99 0.99
-10 12 -5 17.66 1.28
-5 -10 12 18.39 1.53
-10 12 -5 20.24 1.39
12 6 -10 28.55 1.21
-6 10 12 30.75 1.76
-10 -12 -6 31.24 1.77
6 10 -12 26.44 1.54
10 12 -6 28.9 1.26
-12 -6 -10 31.26 1.79
10 12 -6 27.26 1.34
-6 -10 -12 30.95 1.7
-10 12 6 30.5 1.63
-10 -12 6 27.8 1.85
-10 12 -6 29.33 1.66
-6 -10 12 28.88 1.81
-10 12 -6 26.64 1.61
10 12 6 28.56 1.3
-12 6 -10 29.03 1.5
-12 6 -10 30.56 1.38
-12 -7 -10 9.81 1.25
-10 -12 -7 7.44 1.13
-10 12 7 7.38 1.05
10 12 -7 8.27 0.82
-7 -10 -12 8.52 1.06
12 7 -10 7.04 0.75
10 12 -7 7.99 0.81
7 10 -12 6.63 0.93
-12 7 -10 7.35 0.9
-10 -12 7 7.52 1.23
-10 12 -7 6 1.06
-10 12 -7 7.94 1.1
-12 7 -10 8.03 0.96
10 12 7 8.3 0.85
-7 -10 12 6.74 1.05
-7 10 -12 7.18 1.19
-10 -12 -8 15.84 1.49
10 12 -8 16.09 1.02
10 12 -8 17.78 1.12
-8 -10 -12 19.12 1.5
-12 -8 -10 15.67 1.54
-10 12 8 16.97 1.36
12 8 -10 18.45 0.86
8 10 -12 16.79 1.3
-8 -10 12 18.74 1.73
-10 -12 8 19.68 1.77
-10 12 -8 17.89 1.5
-8 10 -12 17.53 1.55
-10 12 -8 17.32 1.39
-12 8 -10 14.56 1.2
10 12 8 16.77 1.13
-12 8 -10 18.28 1.35
-9 -10 -12 1.57 0.91
10 12 -9 0.1 0.72
10 12 -9 -0.21 0.57
-10 12 9 2.24 0.96
9 10 -12 0.34 0.65
-12 -9 -10 0.47 1.04
-10 -12 -9 1.69 0.93
-9 -10 12 -0.96 1.03
-10 12 -9 1.34 0.94
-12 9 -10 2.04 0.88
-9 10 -12 0.44 1.03
-10 -12 9 2.53 1.14
-12 9 -10 0.1 0.77
10 12 9 -0.2 0.62
-9 10 -12 0.72 1.05
-10 12 -9 0.82 0.99
-10 12 10 5.02 1.09
10 12 -10 6.3 0.76
10 12 -10 4.73 0.91
10 10 -12 4.58 0.74
12 10 -10 2.74 0.69
-12 10 -10 4.75 0.98
-10 10 -12 5.95 1.16
-10 -12 10 4.13 1.28
-10 10 -12 4.53 1.15
-10 12 -10 4.87 1.11
-12 10 -10 6.24 1.07
-10 12 -10 4.79 1.13
10 12 -11 9.56 1.04
11 10 -12 10.49 0.91
-10 12 11 10.05 1.29
12 11 -10 9.01 0.96
10 12 -11 9.58 1.17
-10 12 -11 8.79 1.42
-12 11 -10 8.45 1.22
-12 11 -10 8.55 1.14
-11 10 -12 8.67 1.35
-11 10 -12 7.58 1.24
-10 -12 11 10.72 1.57
-10 12 -11 9.84 1.36
-11 -12 0 -0.02 0.79
11 12 0 0.62 0.5
-11 12 0 0.1 0.7
0 -11 12 0.18 0.74
-11 12 0 0.55 0.69
0 11 12 0.11 0.95
0 -11 -12 1.13 0.5
11 12 -1 16.07 0.76
-1 -11 -12 10.41 1.18
-1 11 12 11.84 1.34
-11 12 1 12.26 1.14
-11 12 1 13.34 1.11
11 12 -1 11.68 0.89
-11 -12 -1 12.66 1.56
-11 12 -1 12.87 1.18
-11 -12 1 12.79 1.4
1 11 12 11.75 1.43
11 12 1 14.39 0.9
1 -11 -12 14.98 0.94
-1 -11 12 11.57 1.28
-11 12 -1 12.5 1.21
-2 11 12 3.5 1.08
-2 -11 -12 2.46 0.61
-11 -12 -2 3.34 0.95
11 12 -2 3.98 0.57
-11 12 2 2.87 0.78
2 11 -12 2.2 0.96
11 12 -2 3.58 0.47
11 12 2 2.53 0.45
-11 -12 2 1.64 0.93
-11 12 -2 1.56 0.79
-2 -11 12 1.8 0.88
2 11 12 2.93 1.03
2 -11 -12 3.66 0.49
-11 12 -2 2.79 0.77
-3 11 12 -0.29 0.93
-11 12 3 1.23 0.77
11 12 -3 1.67 0.44
3 11 -12 0.34 0.88
-3 -11 -12 1.6 0.63
11 12 -3 -0.1 0.37
-11 -12 -3 -0.07 0.8
-11 12 -3 0.05 0.74
-3 11 -12 2.1 0.97
3 11 12 1.11 0.95
-3 -11 12 2.59 0.94
-11 -12 3 -0.25 0.83
11 12 3 0.97 0.4
-11 12 -3 1.48 0.8
3 -11 -12 0.63 0.36
-11 12 4 32.23 1.56
-4 11 12 32.72 1.88
11 12 -4 32.05 1.3
-4 -11 -12 31.84 1.62
11 12 -4 31.79 1.24
4 11 -12 29.21 1.73
-11 -12 -4 32.24 1.95
-11 -12 4 32.39 1.98
11 12 4 30.45 1.27
-11 12 -4 30.01 1.61
-4 -11 12 29.48 1.89
4 11 12 30.11 1.77
-11 12 -4 31.92 1.59
-4 11 -12 27.69 1.82
-5 -11 -12 0.04 0.69
-11 12 5 1.7 0.77
11 12 -5 1.54 0.52
11 12 -5 2.33 0.42
-5 11 12 0.1 0.95
12 5 -11 1.62 0.62
5 11 -12 0.88 0.83
-11 -12 -5 0.81 0.78
-12 -5 -11 0.39 0.83
-11 12 -5 1.65 0.85
-11 12 -5 1.32 0.77
-5 11 -12 0.02 0.97
5 11 12 1 0.91
11 12 5 1.21 0.51
-11 -12 5 1.27 0.98
-5 -11 12 -0.04 1.25
6 11 -12 2.76 0.9
12 6 -11 1.84 0.85
-11 -12 -6 2.26 0.85
11 12 -6 1.97 0.44
-6 -11 -12 2.88 0.85
-11 12 6 1.19 0.82
-6 11 12 1.77 0.99
-12 -6 -11 2.72 0.95
11 12 -6 0.72 0.5
11 12 6 2.67 0.53
-11 -12 6 2.18 0.97
-11 12 -6 1.22 0.87
-6 11 -12 1.91 1.05
-11 12 -6 0.81 0.84
-6 -11 12 2.34 0.99
-12 6 -11 0.72 0.71
11 12 -7 20.69 1.07
-12 -7 -11 19.4 1.66
-11 -12 -7 23.61 1.73
11 12 -7 22.8 1.17
12 7 -11 24.03 0.93
-7 -11 -12 23.6 1.59
-7 11 12 22.19 1.69
7 11 -12 21.96 1.39
-11 12 7 24.53 1.49
-11 12 -7 23.05 1.5
-11 12 -7 23.42 1.58
-12 7 -11 20.17 1.48
-7 11 -12 24.1 1.71
-12 7 -11 20.23 1.34
-7 -11 12 23.62 1.83
-11 -12 7 23.48 1.85
11 12 7 23.52 1.17
8 11 -12 2.72 0.85
-11 12 8 1.97 0.9
11 12 -8 3.57 0.55
11 12 -8 1.47 0.61
11 12 8 0.75 0.58
-11 12 -8 4.39 1
-11 -12 8 1.77 1.14
-8 11 -12 2.83 1.09
-8 -11 12 2.5 1.14
-8 11 -12 3.64 1.18
-12 8 -11 1 0.87
-12 8 -11 1.68 0.86
-11 12 -8 1.89 0.96
11 12 -9 3.41 0.73
9 11 -12 2.59 0.77
-11 12 9 3.75 1.03
-12 9 -11 4.79 1
-12 9 -11 3.66 1.02
-9 11 -12 2.66 1.09
-9 -11 12 2.7 1.26
-9 11 -12 2.72 1.16
-11 -12 9 2.47 1.24
-11 12 -9 2.44 1.06
-11 12 -9 4.3 1.07
12 10 -11 9.26 1.01
10 11 -12 7.72 0.97
11 12 -10 11.9 0.91
11 12 -10 7.88 0.99
-11 12 10 10.5 1.23
-10 11 -12 9.62 1.41
-10 11 -12 8.19 1.29
-12 10 -11 10.04 1.24
-12 10 -11 8.75 1.16
-11 -12 10 6.92 1.49
-11 12 -10 11.11 1.41
-11 12 -10 7.95 1.26
11 12 -11 2.3 0.7
11 12 -11 3.62 0.96
12 11 -11 0.66 0.79
11 11 -12 4 0.95
11 11 -12 2.65 0.71
-11 12 -11 1.6 1.09
-11 12 -11 2.85 1.15
-11 11 -12 3.03 1.19
-12 11 -11 3.92 1.14
-12 11 -11 4.86 1.15
-11 11 -12 2.88 1.11
-12 -12 0 24.23 1.77
-12 12 0 23.06 1.34
-12 12 0 24.18 1.38
0 -12 -12 21.24 1.25
0 -12 12 22.56 1.58
0 12 -12 19.4 1.69
0 12 12 21.85 1.74
-12 -12 -1 20.75 1.81
12 12 -1 25.45 0.92
-1 -12 -12 22.49 1.32
1 -12 12 19.7 1.71
1 12 -12 20.51 1.66
-12 12 1 20.81 1.31
-1 12 12 20.21 1.72
-1 -12 12 19.18 1.55
-1 12 -12 23.84 1.75
1 -12 -12 19.92 1.16
-12 12 -1 20.68 1.32
-12 12 -1 21.3 1.34
1 12 12 20.61 1.72
-12 -12 1 20.28 1.64
12 12 1 20.22 1.05
-12 -12 -2 4.69 1.06
-2 12 12 3.91 1.16
-2 -12 -12 5.07 0.74
2 12 -12 5.91 1.14
-12 12 2 4.93 0.81
-12 12 -2 4.18 0.83
-2 -12 12 5.49 1.03
-2 12 -12 3.01 1.15
-12 12 -2 5.43 0.86
2 12 12 3.7 1.1
-12 -12 2 3.95 1.12
12 12 2 5.26 0.61
-12 -12 -3 24.05 1.81
12 12 -3 21 0.96
-3 12 12 19.87 1.76
12 12 -3 23.34 1.07
-12 12 3 22.65 1.35
-3 -12 -12 23.13 1.46
3 12 -12 19.55 1.59
-3 12 -12 20.53 1.68
-12 12 -3 21.82 1.32
-3 -12 12 20.33 1.71
3 12 12 20.07 1.65
-12 12 -3 19.4 1.35
-12 -12 3 21.57 1.78
12 12 3 22.1 0.97
-12 -12 -4 1.77 0.89
4 12 -12 0.88 0.9
-4 12 12 0.83 1.03
12 12 -4 1.35 0.42
-12 12 4 2.35 0.75
-4 -12 -12 3.34 0.74
-4 -12 12 0.69 0.99
-4 12 -12 2.07 1.09
-12 12 -4 2.29 0.81
-12 -12 4 2.3 0.99
4 12 12 2.03 1.03
-12 12 -4 2.01 0.83
12 12 4 1.88 0.44
-12 -12 -5 0.58 0.88
12 12 -5 0.28 0.42
-12 -5 -12 0.23 0.88
-5 12 12 0.39 1.08
5 12 -12 0.07 0.84
-12 12 5 0.26 0.72
-5 -12 -12 -0.44 0.69
-5 -12 12 0.91 0.94
-5 12 -12 0.72 1.08
-12 12 -5 1.38 0.83
-12 12 -5 0.85 0.86
5 12 12 0.87 0.92
-12 -12 5 0.25 1.03
-12 -12 -6 17.31 1.67
-12 -6 -12 9.86 1.36
6 12 -12 14.51 1.33
12 12 -6 16.34 0.88
-12 12 6 12.22 1.21
-6 -12 -12 10.48 1.19
-6 12 12 13.83 1.49
-6 12 -12 11.43 1.4
-6 12 -12 11.49 1.48
-12 12 -6 14.43 1.33
6 12 12 11.66 1.32
-6 -12 12 11.8 1.39
-12 -12 6 14.16 1.77
-12 12 -6 13.13 1.36
12 12 6 11.13 0.84
12 12 -7 14.13 0.76
12 12 -7 12.66 0.9
-7 12 12 13.81 1.57
7 12 -12 12.88 1.26
-12 12 7 12.08 1.28
-7 -12 -12 14.97 1.58
-7 -12 12 14.04 1.77
-7 12 -12 11.84 1.45
-7 12 -12 12.96 1.49
-12 7 -12 11.49 1.14
-12 12 -7 12.61 1.36
-12 12 -7 12.53 1.39
-12 -12 7 12.6 1.54
-12 7 -12 12.7 1.27
12 12 -8 21.39 1.13
-8 12 12 20.02 1.81
8 12 -12 16.16 1.39
-12 12 8 18.24 1.44
-12 12 -8 20.22 1.53
-12 12 -8 17.73 1.46
-8 -12 12 17.57 2.05
-8 12 -12 19.9 1.72
-8 12 -12 14.41 1.79
-12 8 -12 19.23 1.55
-12 8 -12 15.94 1.46
-12 -12 8 17.98 2.07
12 12 -9 3.68 0.7
9 12 -12 3.35 0.84
9 12 -12 2.63 0.98
-12 12 9 1.7 0.95
-12 12 -9 2.27 1.04
-12 12 -9 2.84 1.08
-9 -12 12 3.07 1.51
-9 12 -12 2.09 1.14
-9 12 -12 2.02 1.13
-12 9 -12 3.75 1.04
-12 9 -12 1.03 0.99
-12 -12 9 2.52 1.46
12 12 -10 21.33 1.39
10 12 -12 19.54 1.63
10 12 -12 22.5 1.38
-12 12 -10 24.34 1.78
-10 12 -12 21.27 1.79
-10 12 -12 23.76 1.87
-12 12 -10 23.96 1.78
-12 10 -12 20.63 1.73
-12 10 -12 21.96 1.76
12 11 -12 10.55 1.1
12 12 -11 6.26 1.03
11 12 -12 11.62 1.07
11 12 -12 7.02 1.12
-11 12 -12 9.26 1.45
-11 12 -12 9.01 1.5
-12 12 -11 10.3 1.43
-12 12 -11 10.85 1.44
-12 11 -12 8.33 1.32
-12 11 -12 6.22 1.32
-12 12 -12 0.72 1.14
0 -13 0 5.26 0.59
0 0 13 7.42 0.84
0 13 0 5.59 0.87
0 13 0 6.6 0.9
1 0 13 7.69 0.94
0 -13 1 5.25 0.61
0 13 -1 5.48 0.87
0 13 -1 5.56 0.83
0 13 1 6.36 0.88
0 13 1 5.35 0.85
-1 0 13 6.09 0.78
0 -13 -1 5.07 0.57
-2 0 13 10.39 0.69
0 -13 -2 10.04 0.68
0 13 -2 9.34 1.05
0 13 -2 8.76 1.04
-13 -2 0 10.78 0.81
-2 0 13 10.5 0.59
0 13 2 8.59 1.03
2 0 13 10.44 1.05
13 -2 0 9.89 0.88
0 -13 2 9.74 0.82
0 13 2 10.66 1.08
-13 -3 0 10.15 0.86
0 -13 -3 11.57 0.75
0 13 3 10.1 1.03
3 0 13 11.86 1.15
0 -13 3 10.85 0.89
13 -3 0 11.34 0.81
0 13 3 11.72 1.11
0 13 -3 11.79 1.11
0 13 -3 11.42 1.1
-13 -4 0 16.82 1.09
0 13 4 17.67 1.26
0 13 -4 15.48 1.24
0 -13 -4 16.27 0.89
0 13 -4 14.69 1.21
0 -13 4 16.51 1.23
13 -4 0 16.52 0.95
0 13 4 16.83 1.21
0 -13 -5 17.88 0.93
13 -5 0 20.23 1.13
0 13 5 17.09 1.26
0 13 -5 17.98 1.3
0 13 5 15.8 1.27
-13 -5 0 16.84 1.18
0 -13 5 17.08 1.18
0 13 -5 15.74 1.28
0 13 -6 17.74 1.33
0 -13 -6 16.94 0.92
0 -13 6 15.53 1.18
0 13 -6 17.86 1.33
0 13 6 19.29 1.31
-13 6 0 17.2 0.9
-13 -6 0 17.33 1.28
-13 -7 0 0.48 0.74
0 -13 -7 0.98 0.36
-13 7 0 0.63 0.46
0 -13 7 0.08 0.64
0 13 -7 0.43 0.81
0 13 7 -0.4 0.8
0 13 -7 0.54 0.79
0 -13 8 31.93 1.72
0 13 -8 32.35 1.73
0 -13 -8 31.92 1.35
-13 -8 0 32.83 1.72
0 13 8 28.99 1.71
-13 8 0 30.38 1.25
0 13 -8 29.57 1.73
0 -13 9 69.98 2.76
0 13 -9 70.07 2.75
-13 9 0 77.35 2.34
0 13 -9 73.34 2.79
0 13 9 73.79 2.79
0 -13 -9 70.23 2.43
0 -13 10 7.21 1.03
0 13 -10 7.98 1.18
-13 -10 0 7.71 1.09
0 13 -10 8.41 1.19
-13 10 0 9.03 1.08
0 -13 -10 8.3 1.07
0 13 10 7.83 1.22
-13 -11 0 8.91 1.2
0 13 11 7.47 1.26
0 -13 11 6.89 1.13
-13 11 0 8.42 0.99
0 -13 -11 8.86 0.98
0 13 -11 7.39 1.28
0 13 12 -0.47 1.09
0 -13 12 1.41 0.87
-13 12 0 2.29 0.74
0 13 -12 -1.31 0.98
0 -13 -12 1.2 0.61
-13 -12 0 0.11 0.97
-1 -13 0 5.23 0.61
-1 13 0 5.21 0.87
1 -13 0 5.06 0.57
0 -1 13 6.78 0.87
-1 13 0 4.94 0.84
1 13 0 6.39 0.86
1 13 0 4.02 0.77
-1 13 1 1.16 0.67
-1 -13 -1 1.06 0.42
1 13 -1 2.03 0.67
1 13 -1 0.92 0.65
-1 13 1 2.01 0.69
1 -1 13 1.52 0.63
-1 1 13 1.64 0.39
-1 1 13 1.73 0.34
1 -13 1 1.9 0.43
1 -13 -1 1.44 0.35
-1 13 -1 2.06 0.72
-1 -1 13 2.47 0.56
1 13 1 1.71 0.67
1 1 13 0.62 0.52
13 -1 -1 1.1 0.44
-1 -13 1 2.31 0.48
-1 13 -1 0.3 0.7
1 13 1 1.49 0.7
-1 -13 -2 10.94 0.8
-1 13 2 9.81 1.1
1 13 -2 11.92 1.09
1 13 -2 10.83 1.03
-1 13 2 12.01 1.12
2 -1 13 10.63 1.05
-13 -2 -1 11.84 0.94
1 -13 2 11.53 0.8
-13 -2 1 10.95 0.76
13 -2 -1 12.52 0.82
1 13 2 13.72 1.1
-1 13 -2 10.64 1.1
-2 -1 13 11.71 0.89
1 -13 -2 10.57 0.7
2 1 13 14.33 1.06
-1 13 -2 12.29 1.09
-2 -1 13 11.36 0.72
-1 -13 2 9.6 0.82
1 13 2 9.42 1.03
-1 13 3 -0.28 0.69
-1 -13 -3 -0.09 0.31
1 13 -3 0.01 0.55
1 -13 3 -0.22 0.37
-13 -3 -1 -0.07 0.47
-1 13 3 -0.2 0.67
3 -1 13 0.41 0.78
1 13 -3 0.72 0.66
-3 -1 13 0.2 0.36
-3 -1 13 0.01 0.28
-13 -3 1 -0.16 0.44
1 13 3 -0.26 0.51
1 -13 -3 0.27 0.26
-1 13 -3 0.29 0.72
-1 -13 3 0.78 0.43
-1 13 -3 0.7 0.68
3 1 13 0.08 0.6
1 13 3 0.43 0.62
13 -3 -1 -0.15 0.4
1 -13 4 7.34 0.81
1 13 -4 7.07 0.93
-1 13 4 7.24 0.97
1 13 -4 7.82 0.98
-1 -13 -4 7.06 0.65
-13 -4 -1 8.03 0.97
-1 13 4 6.99 0.97
1 -13 -4 8.96 0.64
4 1 13 7.97 0.93
1 13 4 6.76 0.92
13 -4 -1 7.83 0.71
-13 -4 1 6.79 0.85
-1 13 -4 7.44 1
1 13 4 6.81 0.92
-1 13 -4 7.4 0.96
-1 -13 -5 1.95 0.42
1 13 -5 2.11 0.79
-1 13 5 1.64 0.8
1 -13 5 1.99 0.61
-13 -5 -1 2.19 0.69
-1 13 5 2.45 0.82
1 13 -5 0.86 0.68
1 13 5 1.92 0.78
1 13 5 2.16 0.77
-13 -5 1 2.5 0.61
1 -13 -5 1.38 0.3
-1 -13 5 1.22 0.63
-1 13 -5 1.4 0.8
13 -5 -1 1.5 0.44
-1 13 -5 2.74 0.84
-1 13 6 0.51 0.8
1 13 -6 0.71 0.78
1 -13 6 0.8 0.57
-1 -13 -6 0.03 0.32
1 13 -6 0.08 0.66
-1 13 -6 0.89 0.82
-1 13 -6 -0.08 0.77
1 13 6 -1.1 0.71
13 -6 -1 0.17 0.42
-13 -6 1 0.58 0.66
1 -13 -6 -0.01 0.27
-1 -13 6 0.06 0.59
-13 6 -1 0.09 0.42
1 13 -7 9.87 1.1
-1 -13 -7 8.34 0.78
-13 -7 -1 9.13 1.17
1 -13 7 8.36 1.06
-1 13 7 8.79 1.1
-13 7 1 9.7 0.74
1 13 -7 9.13 1.1
-13 -7 1 8.87 0.98
1 13 7 10.52 1.19
-1 -13 7 10.79 1.16
1 -13 -7 9.51 0.66
-1 13 -7 9.32 1.14
-1 13 -7 7.1 1.08
-13 7 -1 9.07 0.75
13 -7 -1 7.93 0.77
-1 -13 -8 1 0.45
-1 13 8 0.99 0.91
-13 -8 -1 1.11 0.72
-13 8 1 0.43 0.53
1 13 -8 0.2 0.84
1 13 -8 1.21 0.78
1 -13 8 1.53 0.7
1 -13 -8 1.29 0.41
-13 8 -1 1.43 0.55
-1 13 -8 1.68 0.88
-1 -13 8 1.19 0.73
1 13 8 0.62 0.84
-13 -8 1 0.32 0.68
-1 13 -8 0.82 0.86
-13 9 1 -0.07 0.56
-1 -13 -9 0.65 0.61
1 13 -9 -0.4 0.8
1 13 -9 1.09 0.9
1 -13 9 0.07 0.66
-1 13 9 0.43 0.92
-13 -9 -1 -0.35 0.76
-13 -9 1 0.58 0.77
-1 13 -9 0.54 0.93
1 13 9 -0.01 0.83
-1 -13 9 -0.8 0.72
-13 9 -1 0.43 0.63
1 -13 -9 0.61 0.42
-1 13 -9 0.06 0.91
-1 -13 -10 4.42 0.72
-13 10 1 6.23 0.84
1 -13 10 3.95 0.95
1 13 -10 4.64 1.09
-1 13 10 5.64 1.13
-13 -10 -1 5.45 0.98
-13 -10 1 5.89 1.05
-1 -13 10 4.06 1
-1 13 -10 3.44 1.04
-13 10 -1 5.38 0.85
-1 13 -10 5.74 1.16
1 13 10 5 1.09
1 -13 -10 4.71 0.64
-13 11 1 1.39 0.66
1 -13 11 -0.4 0.75
-1 13 11 1.58 1.08
-13 -11 -1 -0.04 0.93
1 13 -11 1.25 0.98
-1 -13 -11 0.93 0.6
-1 13 -11 -1.09 0.94
1 -13 -11 0.11 0.6
1 13 11 0.51 0.98
-13 -11 1 0.13 0.93
-13 11 -1 0.85 0.63
-1 -13 11 -1.47 0.77
-13 -12 -1 0.6 1
1 13 -12 -0.21 1.01
-1 13 12 1.05 1.1
-13 12 1 2.9 0.74
-1 -13 -12 0.11 0.69
1 -13 12 0.09 0.89
-1 -13 12 0.36 0.82
-1 13 -12 0.95 1.03
1 13 12 1.69 1.06
-13 -12 1 0.11 0.99
-13 12 -1 1.89 0.7
-2 -13 0 9.8 0.82
2 13 0 10.76 0.99
2 -13 0 10.73 0.72
0 -2 13 10.71 1.04
2 13 0 10.49 1.01
13 0 -2 7.65 0.81
-2 13 0 11.38 1.09
-2 13 0 9.51 1.08
0 2 13 9.98 0.69
-2 13 1 9.83 1.05
-2 -13 -1 10.32 0.81
-1 2 13 11.94 0.49
2 13 -1 11.03 1.01
2 13 -1 10.54 0.99
-2 13 1 11.26 1.11
-1 2 13 11.03 0.51
2 -13 1 10.09 0.74
1 -2 13 12.49 1.06
1 2 13 10.59 0.88
-2 -13 1 10.42 0.87
2 13 1 12.03 1.07
-1 -2 13 12.54 1.03
-2 13 -1 10.76 1.06
-2 13 -1 13.48 1.14
13 -1 -2 10.93 0.78
2 -13 -1 10.42 0.71
2 13 1 10.18 1
2 13 -2 -0.23 0.63
-13 -2 -2 0.46 0.49
2 -2 13 0.74 0.67
-2 13 2 -0.63 0.68
-2 13 2 -1.59 0.63
2 -13 2 0.12 0.3
-2 -13 -2 0.14 0.38
2 13 -2 0.95 0.63
-2 13 -2 0.24 0.69
2 13 2 1.02 0.63
-2 13 -2 0.19 0.67
-13 -2 2 -0.03 0.31
-2 -2 13 0.27 0.54
2 13 2 -1.17 0.6
2 2 13 0.3 0.56
2 -13 -2 0.13 0.28
-2 -2 13 0.17 0.4
-2 -13 2 0.15 0.41
13 -2 -2 -0.93 0.38
-2 -13 -3 28.37 1.29
2 13 -3 30.24 1.46
-2 13 3 27.9 1.54
2 -13 3 30.63 1.35
-13 -3 -2 29.62 1.39
-2 13 3 29.49 1.53
2 13 -3 29.62 1.5
-2 13 -3 30.75 1.54
3 2 13 29.64 1.46
2 13 3 28.99 1.47
-2 -13 3 29.33 1.63
-13 -3 2 30.7 1.22
-2 13 -3 28.69 1.53
-3 -2 13 27.9 1.14
2 13 3 29.27 1.46
2 -13 -3 28.41 1.16
13 -3 -2 29.17 1.21
-13 -4 -2 11.87 1.07
2 13 -4 11.5 1.07
2 -13 4 11.14 0.92
-2 13 4 11.67 1.15
2 13 -4 10.82 1.06
-2 -13 -4 11.3 0.81
-2 13 4 11.66 1.17
-2 13 -4 11.37 1.16
4 2 13 10.73 1.17
-4 -2 13 10.73 0.64
-2 -13 4 10.78 1.08
-13 -4 2 11.72 0.9
-2 13 -4 12.06 1.16
-4 -2 13 10.06 0.77
2 13 4 10.61 1.1
2 13 4 12.55 1.07
13 -4 -2 10.43 0.78
2 -13 -4 11.16 0.67
-2 13 5 5.72 0.95
-2 -13 -5 5.37 0.65
2 13 -5 7.18 0.95
-2 13 5 6.91 1.03
2 13 -5 8.37 0.98
-13 -5 -2 6.76 0.91
13 -5 -2 7.31 0.69
2 13 5 6.46 0.92
-13 -5 2 6.87 0.9
-2 -13 5 7.27 0.94
-2 13 -5 8.09 1
-5 -2 13 8 0.57
-2 13 -5 6.34 1.02
-5 -2 13 7.66 0.42
2 13 5 7.03 0.94
2 -13 -5 8 0.54
2 13 -6 -0.76 0.73
-2 13 6 0.03 0.76
-13 -6 -2 -0.72 0.68
2 13 -6 0.72 0.75
-2 -13 -6 0.67 0.39
2 13 6 0.77 0.74
-2 13 -6 -0.22 0.78
-13 -6 2 0.58 0.63
-2 13 -6 -0.56 0.77
-13 6 -2 0.16 0.41
13 -6 -2 0.14 0.39
2 -13 -6 0.05 0.29
-2 -13 6 0.51 0.65
-13 7 2 8.23 0.72
-2 13 7 8.87 1.12
2 13 -7 8.11 1.05
2 13 -7 8.41 1.03
-2 -13 -7 6.25 0.76
-13 -7 -2 7.49 0.98
-13 7 -2 7.79 0.74
-2 13 -7 7.32 1.1
13 -7 -2 7.3 0.72
2 -13 -7 6.07 0.58
2 13 7 7.41 1.06
-2 13 -7 7.97 1.06
-2 -13 7 8.74 1.09
2 13 -8 18.27 1.39
-13 8 2 16.58 0.97
-2 13 8 16.84 1.46
2 13 -8 16.45 1.39
-13 -8 -2 17.31 1.35
-2 13 -8 15.8 1.44
2 -13 -8 18.17 0.89
-2 -13 8 17.45 1.44
2 13 8 16.39 1.38
-13 8 -2 16.12 0.99
-13 -8 2 15.03 1.32
-2 13 -8 18.07 1.45
-2 -13 -9 0.15 0.53
2 13 -9 1.61 0.92
-2 13 9 0.18 0.94
-13 -9 -2 -0.53 0.76
2 13 -9 0.76 0.86
-13 9 2 1.99 0.6
-2 -13 9 0.98 0.82
-2 13 -9 1.96 0.92
-2 13 -9 1.11 0.93
-13 9 -2 0.99 0.64
2 -13 -9 1.14 0.37
-13 -9 2 -0.08 0.81
2 13 9 0.33 0.8
2 13 -10 2.85 1
-13 -10 -2 3.52 0.91
-2 13 10 2.21 1.05
-2 -13 -10 1.64 0.64
-13 10 2 3.2 0.78
-13 -10 2 2.6 0.96
-2 13 -10 2.15 0.99
-2 -13 10 2.71 0.94
2 -13 -10 2 0.5
2 13 10 1.79 0.95
-13 10 -2 3.21 1.04
-13 10 -2 2.39 0.65
-2 13 -10 1.18 1.01
-2 -13 -11 6.01 0.8
-2 13 11 5.09 1.22
-13 11 2 8.39 0.98
2 13 -11 7.85 1.21
-13 -11 -2 6.69 1.14
-13 11 -2 6.4 0.83
2 13 11 7.2 1.19
-13 -11 2 5.21 1.11
-13 11 -2 8.94 0.97
-2 -13 11 8.1 1.14
2 -13 -11 8.49 0.85
-2 13 -11 6.97 1.26
2 13 -12 7.35 1.24
-2 13 12 8.49 1.39
-2 -13 -12 10.29 1.17
2 -13 12 7.68 1.17
-13 12 2 9.51 1.02
-13 -12 -2 6.15 1.14
2 13 12 6.5 1.33
-13 -12 2 9.54 1.25
-13 12 -2 6.62 0.89
-2 -13 12 9.42 1.19
-13 12 -2 9.35 1.04
-2 13 -12 7.13 1.28
13 0 -3 12.61 0.82
3 13 0 12.4 1.03
-3 13 0 10.25 1.08
0 3 13 10.03 0.59
3 13 0 9.81 0.96
0 -3 13 11.39 1.12
3 -13 0 11.03 0.71
-3 -13 0 11.26 0.89
-3 13 0 11.45 1.12
3 13 -1 -0.96 0.55
1 -3 13 -0.85 0.64
3 13 -1 0.61 0.54
-3 -13 -1 1.15 0.46
-3 13 1 -1.26 0.66
-3 13 1 -1.02 0.68
3 -13 1 0.08 0.29
3 -13 -1 -0.11 0.24
-3 13 -1 0.55 0.73
-3 13 -1 -0.26 0.66
13 -1 -3 -0.22 0.39
-3 -13 1 -0.41 0.43
3 13 1 0 0.55
3 13 1 0.13 0.55
-1 -3 13 0.05 0.62
1 3 13 -0.01 0.39
-13 -2 -3 28.82 1.39
3 13 -2 28.96 1.43
-3 13 2 29.02 1.5
3 13 -2 30.18 1.43
-3 -13 -2 30.67 1.39
-3 13 2 31.1 1.56
-2 -3 13 32.19 1.44
-2 -3 13 28.77 1.29
-3 -13 2 26.48 1.65
13 -2 -3 27.77 1.2
-3 13 -2 31.37 1.57
-3 13 -2 29.59 1.54
3 13 2 31.05 1.46
3 13 2 28.57 1.41
3 -13 -2 29.42 1.18
3 13 -3 54.12 2.07
-13 -3 -3 54.86 2.06
-3 13 3 56.08 2.17
3 13 -3 53.46 2.08
-3 13 3 57.31 2.19
-3 -13 -3 51.59 2.01
3 -13 -3 55.37 1.84
3 13 3 56.24 2.1
-13 -3 3 55.38 1.78
3 13 3 59.39 2.14
-3 -3 13 53.67 1.85
13 -3 -3 52.01 1.83
-3 -3 13 55.79 1.96
-3 13 -3 54.51 2.16
-3 13 -3 52.41 2.13
-3 -13 3 52.29 2.26
-13 -4 -3 4.36 0.79
-3 -13 -4 5.83 0.72
3 13 -4 6.07 0.82
3 13 -4 5 0.87
-3 13 4 5.1 0.86
-3 13 4 6.14 0.94
-4 -3 13 3.87 0.75
-4 -3 13 4.78 0.54
-3 13 -4 5.93 0.95
3 13 4 5.72 0.89
-3 -13 4 4.66 0.81
3 -13 -4 5.13 0.48
-3 13 -4 6.31 0.96
13 -4 -3 6.08 0.65
3 13 4 6.38 0.86
-13 -4 3 5.69 0.64
4 3 13 4.96 0.77
-3 13 5 18.55 1.37
3 13 -5 19.22 1.24
-3 -13 -5 18.77 1.13
3 13 -5 19.44 1.28
-3 -13 5 19.94 1.34
-3 13 -5 17.96 1.36
3 13 5 19.77 1.36
-13 5 -3 18.26 0.84
-5 -3 13 19.42 0.85
13 -5 -3 18.35 0.91
-13 -5 3 19.53 1.11
3 -13 -5 18.33 0.86
-5 -3 13 18.01 1.13
-3 13 -5 18.4 1.37
3 13 -6 2.49 0.82
-13 -6 -3 3.84 0.84
-3 13 6 3.77 0.89
-3 -13 -6 2.69 0.61
3 13 -6 3.66 0.84
13 -6 -3 3.73 0.47
-3 13 -6 3.21 0.91
-13 -6 3 2.24 1.12
-3 -13 6 2.64 0.78
-6 -3 13 3.22 0.4
3 13 6 3.55 0.87
-3 13 -6 2.76 0.89
3 -13 -6 3.42 0.45
-13 6 -3 4.13 0.54
3 13 -7 2.67 0.92
-3 13 7 1.82 0.89
-3 -13 -7 2.05 0.68
-13 7 3 1.47 0.96
3 13 -7 1.41 0.81
3 13 7 0.66 0.8
-3 13 -7 1.59 0.85
-13 -7 3 1.91 0.73
-3 13 -7 0.72 0.86
3 -13 -7 2.34 0.36
-13 7 -3 2.05 0.52
-3 -13 7 1.42 0.73
-13 7 -3 2.02 0.54
-13 8 3 125.66 3.53
-3 13 8 120.24 4.02
-13 -8 -3 127.66 4.05
3 13 -8 118.77 3.99
-3 -13 -8 123.72 3.9
3 13 -8 117.54 3.92
3 13 8 121.12 4
-13 8 -3 123.47 3.57
-3 13 -8 119.75 4.01
-3 -13 8 123.59 4.09
-13 -8 3 121.65 3.9
3 -13 -8 119.77 3.6
-13 8 -3 126.67 3.56
-3 13 -8 126.45 4.05
-13 -9 -3 10.98 1.43
-13 9 3 14.7 1
-3 -13 -9 13.43 1.1
3 13 -9 11.73 1.31
3 13 -9 12.1 1.29
-3 13 9 13.33 1.45
3 13 9 16.18 1.37
-13 -9 3 13.37 1.34
-13 9 -3 14.6 1.11
3 -13 -9 15.14 0.79
-3 -13 9 14.29 1.54
-3 13 -9 13.71 1.43
-13 9 -3 13.38 1.11
-3 13 -9 12.88 1.42
-13 10 3 -0.36 0.73
-3 -13 -10 -1.12 0.56
3 13 -10 0.64 0.91
-13 -10 -3 -0.63 0.83
3 13 -10 -0.88 0.8
-3 13 10 -0.74 1.02
-13 10 -3 0.75 0.6
-3 13 -10 -1.16 0.95
-13 -10 3 1.1 0.9
-13 10 -3 1.72 0.83
-3 -13 10 -0.57 0.82
-3 13 -10 0.12 0.94
13 10 3 -0.49 0.43
3 13 10 0.69 0.87
3 -13 -10 0.85 0.38
-3 -13 -11 5.14 0.86
-3 13 11 7.24 1.26
3 13 -11 5.4 1.12
-13 11 3 7.16 0.89
-13 -11 -3 4.89 1.1
-3 -13 11 5.63 1.05
-3 13 -11 6.28 1.26
-13 -11 3 8.25 1.19
13 11 3 6.8 0.76
-13 11 -3 6.35 0.83
-3 13 -11 6.18 1.21
3 13 11 6.72 1.2
-13 11 -3 7.13 0.89
-3 -13 -12 6.52 0.97
-3 13 12 5.47 1.29
3 13 -12 7.76 1.26
-13 12 3 6.57 0.85
-13 -12 -3 4.88 1.13
3 13 12 6.6 1.25
-13 12 -3 8.11 0.97
-13 -12 3 8.52 1.26
-3 13 -12 6.23 1.3
-3 -13 12 4.61 1.14
-13 12 -3 7.13 0.93
-4 13 0 15.36 1.23
13 0 -4 17.35 0.95
4 13 0 17.74 1.06
4 13 0 16.96 1.08
-4 13 0 17.79 1.28
4 13 -1 7.76 0.87
-4 -13 -1 6.54 0.85
-4 13 1 8.45 0.96
-4 13 1 7.43 0.95
4 13 -1 7.27 0.82
-4 13 -1 7.9 0.99
4 -13 -1 7.35 0.56
1 4 13 7.03 0.64
-4 13 -1 7.09 0.94
13 -1 -4 6.76 0.7
4 13 1 7.38 0.86
4 13 1 8.04 0.86
-1 -4 13 8.05 0.86
4 13 -2 10.34 0.92
-13 -2 -4 9.68 1.03
-4 13 2 12.01 1.15
-4 13 2 10.41 1.13
4 13 -2 11.55 1.04
-4 -13 -2 10.03 0.94
4 13 2 10.87 0.98
-4 13 -2 10.99 1.12
-2 -4 13 13.09 1.13
4 13 2 10.27 0.92
13 -2 -4 10.39 0.78
-4 -13 2 8.45 1.02
4 -13 -2 10.37 0.65
-4 13 -2 12.26 1.17
-2 -4 13 10.62 0.95
-13 -3 -4 5.21 0.83
-4 13 3 5.22 0.87
-4 13 3 5.33 0.97
4 13 -3 5.78 0.79
4 13 -3 5.39 0.83
-4 -13 -3 4.98 0.86
-4 13 -3 5.99 0.93
-3 -4 13 5.2 0.66
-4 13 -3 6.29 0.95
-3 -4 13 5.23 0.79
-4 -13 3 4.48 0.78
4 13 3 5.07 0.8
-13 -3 4 5.11 0.52
3 4 13 4.79 0.68
13 -3 -4 6.07 0.61
4 13 3 4.97 0.82
4 -13 -3 4.72 0.47
-4 13 4 3.83 0.9
-4 13 4 4.99 0.91
4 13 -4 5.2 0.83
4 13 -4 3.7 0.76
4 4 13 3.82 0.78
-4 13 -4 5.35 0.91
-4 -4 13 4.19 0.59
-13 -4 4 6.33 0.71
4 13 4 4.97 0.79
-4 -4 13 6.26 0.78
4 -13 -4 5.15 0.46
-4 13 -4 6.04 0.94
-4 -13 4 5.75 0.84
4 13 4 5.79 0.83
13 -4 -4 4.78 0.49
-13 4 -4 4.68 0.56
-13 -5 -4 22.16 1.41
4 13 -5 24.82 1.35
-5 -4 -13 23 1.32
-4 13 5 24.2 1.48
-4 -13 -5 24.21 1.52
4 13 -5 23.65 1.37
-4 13 -5 22.11 1.46
4 13 5 25.99 1.41
13 -5 -4 25.43 1.03
-13 5 -4 24.23 1
-5 -4 13 24.02 1.13
-4 13 -5 24.36 1.53
4 -13 -5 24.52 0.98
-4 -13 5 25.72 1.47
-13 -5 4 27.48 1.22
-13 -6 -4 5.68 0.92
4 13 -6 3.6 0.83
4 13 -6 5.52 0.91
-6 -4 -13 3.28 0.73
-4 13 6 4.07 0.95
-4 -13 -6 3.96 0.71
-6 -4 13 4.17 0.49
-4 13 -6 3.39 0.95
-4 13 -6 5.57 1
-13 6 -4 4.6 0.51
4 -13 -6 4 0.45
-13 -6 4 3.95 0.7
-13 6 -4 5.16 0.6
4 13 6 4.8 0.87
-4 -13 6 4.93 0.91
-13 -7 -4 11.64 1.32
-4 -13 -7 14.23 1.06
4 13 -7 11.64 1.14
-4 13 7 11.23 1.41
4 13 -7 12.38 1.31
-7 -4 -13 12.94 1.2
-13 7 4 13.12 0.88
-4 13 -7 14.75 1.36
4 13 7 10.56 1.23
-4 13 -7 14.21 1.36
-13 7 -4 13.29 0.94
-13 -7 4 12.95 1.21
-4 -13 7 13.22 1.35
-7 -4 13 12.03 0.64
-13 7 -4 15.1 0.9
4 -13 -7 13.25 0.68
4 13 -8 9.73 1.11
13 8 -4 9.18 0.61
-13 8 4 9.35 0.91
-13 -8 -4 9.98 1.24
-4 13 8 8.85 1.17
4 13 -8 9.23 1.14
-4 -13 -8 8.53 1.05
-13 8 -4 10.35 0.96
4 -13 -8 10.15 0.61
-4 13 -8 7.74 1.18
-13 8 -4 8.35 0.94
-13 -8 4 10.12 1.27
4 13 8 9.11 1.09
-4 -13 8 10.14 1.29
-4 13 -8 9.42 1.24
4 13 -9 27.08 1.62
-13 9 4 32.09 1.39
13 9 -4 30.69 1.26
-13 -9 -4 30.68 1.9
-4 13 9 29.83 1.81
4 13 -9 32.6 1.77
-4 -13 -9 32.65 1.64
-13 -9 4 29.71 1.73
-13 9 -4 30.96 1.51
4 -13 -9 29.18 1.12
-4 13 -9 30.11 1.81
4 13 9 27.83 1.69
-13 9 -4 31.98 1.39
-4 -13 9 28.15 1.8
-4 13 -9 27.1 1.79
-13 10 4 13.68 1.48
-4 13 10 10.43 1.35
-4 -13 -10 11.78 1.16
4 13 -10 9.47 1.16
4 13 -10 11.66 1.36
-13 -10 -4 10.13 1.29
-4 13 -10 12.39 1.45
-13 10 -4 11.11 1.01
4 13 10 9.58 1.23
-4 -13 10 12.33 1.38
-4 13 -10 10.17 1.33
-13 10 -4 10.83 1.01
-13 -10 4 10.38 1.22
-13 11 4 3.26 0.72
4 13 -11 3.84 1.02
-13 -11 -4 4.95 1.15
-4 13 11 6.39 1.24
-4 -13 -11 5.09 0.86
-4 13 -11 4.36 1.19
-4 13 -11 4.04 1.18
-13 -11 4 5.12 1.09
-13 11 -4 5.05 0.81
4 13 11 4.45 1.1
-13 11 -4 5.81 0.83
-4 -13 11 4.73 1.03
4 13 -12 6.4 1.21
-13 12 4 6.35 0.85
-4 -13 -12 5.41 0.98
-4 13 12 7.75 1.37
-4 13 -12 4.79 1.32
-13 12 -4 7.3 0.91
4 13 12 3.79 1.13
-4 -13 12 6.83 1.2
-13 -12 4 4.78 1.17
-13 12 -4 5.76 0.95
-4 13 -12 4.71 1.23
-5 13 0 16.77 1.26
0 -5 -13 17.79 0.89
13 0 -5 18.18 0.96
-5 -13 0 17.22 1.2
-5 13 0 17.4 1.27
5 13 0 16.16 1.06
5 13 0 16.13 1.09
-1 -5 -13 2.22 0.39
-5 -13 -1 2.06 0.65
5 13 -1 2.02 0.62
-5 13 1 1.68 0.77
-5 13 1 1.61 0.75
5 13 -1 1.74 0.56
-5 13 -1 0.63 0.73
5 13 1 2.81 0.64
13 -1 -5 2.43 0.44
-5 13 -1 1.47 0.8
5 13 1 1.36 0.54
-5 -13 1 1.6 0.66
5 13 -2 8.08 0.89
-5 -13 -2 6.47 0.84
-2 -5 -13 5.94 0.66
-5 13 2 6.63 0.93
5 13 -2 7.42 0.92
-13 -2 -5 7.33 0.89
-5 13 2 7.86 0.99
-5 -13 2 9.1 1.11
5 13 2 7.08 0.82
2 5 13 8.03 0.86
5 -13 -2 8.08 0.55
-2 -5 13 8.4 0.97
-2 -5 13 7.52 0.97
-13 2 -5 6.81 0.6
-5 13 -2 7.05 0.97
5 13 2 6.76 0.83
13 -2 -5 8.13 0.68
-5 13 -2 7.09 0.98
5 13 -3 20 1.22
-3 -5 -13 19.68 1.09
-5 13 3 19.85 1.32
13 3 -5 16.89 0.62
-5 13 3 19.9 1.33
-5 -13 -3 18.12 1.25
5 13 -3 17.99 1.17
-13 -3 -5 17.79 1.49
-5 13 -3 19.72 1.33
-3 -5 13 18.76 1.32
5 13 3 20.17 1.2
5 13 3 18.84 1.14
5 -13 -3 18.92 0.84
-3 -5 13 17.73 1.14
3 5 13 17.87 1.19
-5 -13 3 20.69 1.37
-13 3 -5 19.39 0.83
-5 13 -3 18.78 1.32
13 -3 -5 17.73 0.9
-5 -13 -4 25.35 1.39
5 13 -4 23.48 1.31
-13 -4 -5 28.24 1.55
-5 13 4 27.22 1.53
-5 13 4 26.29 1.52
13 4 -5 25.33 0.79
5 13 -4 25.54 1.33
-4 -5 13 24.31 1.27
5 13 4 25.08 1.32
-13 -4 5 24.84 1.03
-5 13 -4 25.23 1.48
13 -4 -5 24.11 1.04
5 -13 -4 23.86 1
5 13 4 27.13 1.37
-5 -13 4 26.26 1.49
-5 13 -4 25 1.5
-4 -5 13 25.8 1.46
-13 4 -5 25.71 1.01
-5 13 5 6.24 1.01
13 5 -5 5.37 0.36
5 13 -5 6.29 0.86
5 13 -5 4.78 0.84
-5 -13 -5 5.59 0.77
-13 -5 -5 6.42 0.86
-5 -5 -13 5.81 0.81
-5 -13 5 6.09 0.96
-5 -5 13 5.19 0.65
5 5 13 5.93 1.31
-5 13 -5 5.51 0.98
5 13 5 5.76 0.88
13 -5 -5 6.15 0.66
5 -13 -5 5.52 0.47
-13 5 -5 6.25 0.68
-5 13 -5 6.16 1.01
-13 5 -5 5.95 0.7
-13 -5 5 5.22 0.6
5 13 -6 4.95 0.83
-13 -6 -5 6.99 0.96
-5 13 6 5.31 1.02
5 13 -6 5.96 0.91
-5 -13 -6 6.59 0.85
-6 -5 -13 7.37 0.97
13 6 -5 7.14 0.44
5 -13 -6 7.3 0.51
-5 13 -6 5.98 1.05
5 13 6 5.09 0.84
-13 6 -5 5.92 0.72
-6 -5 13 5.46 0.63
-5 13 -6 7.37 1.12
-5 -13 6 7.62 1.03
-13 6 -5 6.81 0.79
-13 -6 5 5.53 0.71
5 13 -7 12.73 1.11
5 13 -7 11.64 1.15
-13 -7 -5 12.09 1.36
13 7 -5 10.36 0.57
-5 -13 -7 10.77 1.12
-7 -5 -13 10.31 1.16
-5 13 7 10.53 1.31
-5 13 -7 10.31 1.19
-5 -13 7 10.48 1.34
-13 -7 5 8.78 1.12
-13 7 -5 11.16 0.88
-5 13 -7 13.25 1.36
-7 -5 13 8.98 0.79
-13 7 -5 9.49 0.91
5 -13 -7 10.09 0.6
5 13 7 11.8 1.13
-8 -5 -13 4.08 0.82
13 8 -5 4.12 0.5
-13 8 5 5.47 0.7
5 13 -8 5.19 0.89
-5 -13 -8 3.52 0.75
-13 -8 -5 3.89 0.98
5 13 -8 4.61 0.94
-5 13 8 5.02 1.02
-13 -8 5 4.1 0.86
-13 8 -5 4.28 0.76
5 13 8 3.93 0.85
-5 13 -8 4.6 1.05
-5 -13 8 5.47 0.96
-13 8 -5 4.8 0.8
-5 13 -8 5.72 1.1
13 9 -5 2.94 0.47
5 13 -9 2.81 0.93
-5 13 9 2.91 0.97
5 13 -9 2.88 0.9
-9 -5 -13 3.68 0.87
-13 9 5 3.41 0.75
-5 -13 -9 3.65 0.73
-13 -9 -5 4.04 1.01
5 13 9 1.82 0.9
-13 -9 5 1.81 0.84
-13 9 -5 4.03 1.04
-5 13 -9 2.76 1.06
-5 -13 9 4.11 0.99
-13 9 -5 3.48 0.67
-5 13 -9 4.1 1.12
-5 -13 -10 1.33 0.7
-10 -5 -13 0.5 0.81
5 13 -10 0.29 0.87
5 13 -10 0.33 0.78
-13 -10 -5 0.65 0.86
-13 10 5 0.14 0.8
-5 13 10 -0.68 0.92
-5 -13 10 -0.41 0.82
-5 13 -10 -0.2 0.99
5 13 10 0.05 0.83
-5 13 -10 -0.46 0.93
-13 -10 5 0.99 0.9
-13 10 -5 -0.07 0.64
-13 10 -5 0.1 0.63
-13 -11 -5 2.22 0.99
-5 -13 -11 0.55 0.74
-5 13 11 1.71 1.04
5 13 -11 1.12 0.92
-13 11 5 1.29 0.67
-5 13 -11 -0.61 0.99
-5 13 -11 0.76 1.02
-5 -13 11 1.48 1.03
5 13 11 2.32 0.93
-13 -11 5 2.27 1.05
-13 11 -5 2.55 0.78
-13 11 -5 1.14 0.7
-5 -13 -12 1.8 0.85
5 13 -12 1.15 0.96
-13 12 5 -0.12 0.72
-5 13 12 -0.67 1.12
-5 13 -12 0.77 1.18
-13 12 -5 -0.12 0.79
-13 12 -5 -0.36 0.74
-13 -12 5 1.25 1.13
-5 -13 12 0.5 1.53
5 13 12 0.62 0.94
-5 13 -12 -0.88 1.06
-6 13 0 19.63 1.32
-6 13 0 16.04 1.23
-6 -13 0 18.91 1.28
6 13 0 17.78 1.05
0 -6 -13 18.07 0.91
6 13 0 16.71 1.06
-6 13 1 -0.73 0.71
6 13 -1 -0.16 0.53
6 13 -1 0.71 0.51
-6 13 1 -0.15 0.68
-1 -6 -13 -0.02 0.32
-6 -13 -1 -0.45 0.56
-13 1 -6 -0.52 0.39
-6 -13 1 -0.27 0.59
-6 13 -1 0.12 0.71
6 13 1 -0.37 0.53
-6 13 -1 0.84 0.76
1 -6 -13 0.19 0.26
13 -1 -6 0.16 0.4
-1 -6 13 -0.06 0.67
6 13 1 0.4 0.54
-6 -13 -2 1 0.64
6 13 -2 -0.19 0.41
-13 -2 -6 0.52 0.64
6 13 -2 -0.71 0.54
-6 13 2 0.09 0.78
-6 13 2 0.65 0.74
-2 -6 -13 -0.03 0.38
6 13 2 0.8 0.61
-13 2 -6 0.03 0.41
2 6 13 0.3 0.49
2 -6 -13 0.19 0.25
-2 -6 13 -0.31 0.62
-6 13 -2 0.49 0.77
-6 -13 2 -0.02 0.59
13 -2 -6 1.29 0.38
-6 13 -2 0.98 0.82
6 13 2 0.28 0.54
-6 13 3 4.09 0.9
-6 -13 -3 3.4 0.76
6 13 -3 3.4 0.72
-3 -6 -13 2.81 0.56
6 13 -3 2.89 0.68
-13 -3 -6 4.09 0.82
-6 13 3 3.78 0.88
6 13 3 2.93 0.66
-3 -6 13 3.21 0.72
-6 13 -3 4.4 0.9
6 -13 -3 2.82 0.37
6 13 3 3.6 0.67
13 -3 -6 2.92 0.43
-6 13 -3 4.5 0.87
-13 3 -6 3.55 0.51
-6 -13 3 0.92 0.71
-4 -6 -13 4.62 0.65
6 13 -4 3.87 0.73
-6 13 4 3.91 0.88
6 13 -4 3.91 0.74
-6 13 4 3.75 0.89
-13 -4 -6 4.75 0.85
-6 -13 -4 3.7 0.77
-6 13 -4 4.43 0.92
-4 -6 13 4.1 0.73
-13 4 -6 5.05 0.58
-13 -4 6 4.69 0.48
6 -13 -4 4.51 0.45
-6 -13 4 3.64 0.86
6 13 4 3.74 0.77
-6 13 -4 3.39 0.87
6 13 -5 5.84 0.9
-13 -5 -6 5.12 0.88
6 13 -5 6.45 0.88
13 5 -6 4.49 0.45
-5 -6 -13 4.75 0.77
-6 13 5 7.75 1.02
-6 -13 -5 6.44 0.88
6 -13 -5 7.38 0.47
-13 5 -6 6.05 0.67
-5 -6 13 4.01 0.85
-6 13 -5 6.19 1.05
-13 -5 6 5.74 0.7
-6 -13 5 5.96 0.96
-6 13 -5 7.07 1.08
6 13 5 6.46 0.86
-13 5 -6 7.85 0.7
-6 -13 -6 18.29 1.35
6 13 -6 17.31 1.15
-6 13 6 17.68 1.38
-13 -6 -6 18.23 1.47
6 13 -6 13.64 1.16
13 6 -6 15.28 0.73
-6 -6 -13 15.4 1.26
-6 -6 13 17.17 1.15
-13 -6 6 15.48 1.05
6 13 6 17.36 1.21
-13 6 -6 17.22 1.03
6 -13 -6 18.14 0.74
-6 13 -6 15.31 1.4
-13 6 -6 17.26 0.95
-6 13 -6 18.04 1.51
-6 -13 6 17.68 1.42
6 13 -7 0.3 0.6
-6 -13 -7 -0.12 0.64
-13 -7 -6 -0.27 0.77
-6 13 7 -0.02 0.86
-7 -6 -13 -0.2 0.69
6 13 -7 0.46 0.81
13 7 -6 -0.03 0.32
-13 7 -6 0.21 0.57
-13 7 -6 0.79 0.66
-13 -7 6 -0.11 0.62
6 13 7 -0.48 0.63
-7 -6 13 0.79 0.57
-6 13 -7 -0.1 0.85
-6 -13 7 -0.65 0.78
-6 13 -7 -0.16 0.8
-8 -6 -13 2.29 0.78
-6 -13 -8 2.26 0.74
6 13 -8 1.5 0.85
-13 -8 -6 1.98 0.93
13 8 -6 2.23 0.45
-6 13 8 2.27 0.94
6 13 -8 1.58 0.79
-6 13 -8 2.2 0.92
-6 13 -8 0.96 0.9
-6 -13 8 1.8 0.91
6 13 8 0.34 0.7
-13 8 -6 1.86 0.81
-13 8 -6 1.01 0.97
-13 -8 6 1.75 0.8
-8 -6 13 1.66 0.62
-13 9 6 0.9 0.77
6 13 -9 1.06 0.78
-6 13 9 0.54 0.95
-6 -13 -9 1.07 0.74
-13 -9 -6 1.66 0.92
-9 -6 -13 0.92 0.82
13 9 -6 2.03 0.39
6 13 -9 0.4 0.8
-6 -13 9 1 0.97
-13 9 -6 1.1 0.61
-6 13 -9 1.15 0.96
6 13 9 1.55 0.83
-6 13 -9 1.93 1.02
-13 -9 6 2.3 0.87
-13 9 -6 2 0.67
-10 -6 -13 3.04 0.91
6 13 -10 1.54 0.84
-13 10 6 1.94 0.68
-6 -13 -10 2.07 0.83
-13 -10 -6 3.28 1.03
6 13 -10 2.73 1.01
-6 13 10 4.98 1.13
-6 13 -10 2.17 1.13
6 13 10 2.88 0.95
-6 -13 10 3.58 1.06
-6 13 -10 1.67 1.01
-13 -10 6 3.66 1.02
-13 10 -6 2.15 0.72
-13 10 -6 2.19 0.75
-13 -11 -6 2.47 1.1
-6 -13 -11 4.82 0.95
-6 13 11 4.39 1.18
6 13 -11 4.24 1.15
-11 -6 -13 2.67 1.42
6 13 -11 5.05 0.98
-13 11 6 3.17 0.76
-6 -13 11 5.16 1.16
-13 11 -6 2.61 0.82
-13 -11 6 4.23 1.15
-6 13 -11 6.44 1.24
6 13 11 2.71 0.97
-13 11 -6 4.55 0.83
-6 13 -11 3.97 1.19
6 13 -12 5.06 1.15
-6 13 12 5.44 1.29
-6 -13 -12 2.57 1.24
-13 12 6 5.99 0.88
-13 12 -6 4.54 0.93
-6 13 -12 5.56 1.31
6 13 12 5.14 1.12
-13 12 -6 6.11 0.97
-6 13 -12 4.22 1.31
-13 -12 6 1.73 1.23
7 13 0 0.11 0.43
-7 13 0 1.12 0.77
7 13 0 1.33 0.54
-7 -13 0 0.8 0.66
-7 13 0 1.39 0.8
0 -7 -13 0.46 0.36
7 13 -1 8.17 0.86
-1 -7 -13 9.24 0.76
-7 13 1 8.71 1.03
7 13 -1 9.39 0.88
-7 -13 -1 10.62 1.14
-7 13 1 9.72 1.12
-7 -13 1 10.48 1.13
7 13 1 8.9 0.79
-7 13 -1 8.51 1.01
7 13 1 8.29 0.89
-7 13 -1 9.45 1.05
13 -1 -7 8.04 0.75
-1 -7 13 8.97 1.08
1 -7 -13 8.92 0.65
7 13 -2 7.23 0.78
-7 13 2 9.05 1.09
-7 13 2 9.1 1.07
-2 -7 -13 6.98 0.79
7 13 -2 6.59 0.79
-7 -13 -2 6.7 0.97
7 13 2 7.07 0.82
-7 13 -2 7.29 0.98
-2 -7 13 7.8 0.92
13 -2 -7 6.24 0.69
-7 -13 2 9.12 1.1
7 13 2 7.18 0.84
2 -7 -13 7.08 0.56
-7 13 -2 7.48 0.99
-7 -13 -3 2.17 0.69
-13 -3 -7 2.86 0.77
-7 13 3 1.41 0.78
-7 13 3 1.3 0.78
7 13 -3 1.47 0.56
-3 -7 -13 1.54 0.75
7 13 -3 1.32 0.59
-7 -13 3 1.44 0.76
7 13 3 2.56 0.62
-7 13 -3 2.08 0.85
-7 13 -3 2.33 0.79
-13 3 -7 0.8 0.53
7 13 3 1.21 0.57
-3 -7 13 1.37 0.69
3 -7 -13 0.96 0.29
7 13 -4 12.33 1.06
-7 -13 -4 14.23 1.28
-7 13 4 14.19 1.35
-4 -7 -13 14.75 1.05
7 13 -4 12.7 0.99
-13 -4 -7 14.03 1.34
-7 13 -4 15.34 1.28
-13 4 -7 14.78 0.96
-7 -13 4 15.71 1.41
7 13 4 13.96 1.09
-7 13 -4 12.75 1.28
-4 -7 13 11.07 1.29
7 -13 -4 13.4 0.66
7 13 -5 11.85 0.99
-7 -13 -5 10.18 1.09
-5 -7 -13 11.66 1.09
-7 13 5 10.33 1.23
-13 -5 -7 10.16 1.24
7 13 -5 9.93 0.97
-7 13 -5 11.99 1.23
-13 5 -7 10.36 0.92
7 13 5 9.89 1
-7 13 -5 12.64 1.26
-13 5 -7 9.97 0.82
7 -13 -5 11.81 0.59
-7 -13 5 11.25 1.21
-13 -5 7 10.24 0.7
-7 -13 -6 -0.06 0.72
-7 13 6 0.59 0.86
13 6 -7 -0.89 0.35
7 13 -6 0.26 0.64
7 13 -6 0.05 0.62
-6 -7 -13 0.69 0.65
-13 -6 -7 -0.39 0.75
7 13 6 0.86 0.61
-13 6 -7 0.37 0.57
-13 6 -7 1.38 0.66
-13 -6 7 -0.03 0.48
-7 13 -6 0.24 0.91
-7 13 -6 0.26 0.9
-7 -13 6 1.1 0.87
-6 -7 13 -0.51 0.71
-13 -7 -7 29.98 1.84
-7 13 7 30.18 1.69
-7 -7 -13 29.69 1.65
7 13 -7 30.54 1.53
-7 -13 -7 30.24 1.7
7 13 -7 27.26 1.49
13 7 -7 28.59 1.2
-13 7 -7 29.81 1.47
-7 13 -7 28.79 1.69
7 13 7 28.67 1.5
-7 -7 13 26.85 1.55
-13 -7 7 28.65 1.45
-7 -13 7 29.97 1.83
-13 7 -7 29.17 1.52
-7 13 -7 29.15 1.7
-7 -13 -8 0.49 0.73
13 8 -7 0.35 0.34
7 13 -8 0.14 0.58
-7 13 8 -1.74 0.82
-13 -8 -7 1.57 0.84
-8 -7 -13 0.68 0.72
7 13 -8 0.2 0.76
-13 8 -7 -0.2 0.54
-13 8 -7 0.83 0.65
-7 13 -8 -0.64 0.94
-8 -7 13 0.76 0.66
-7 13 -8 0.85 0.97
-13 -8 7 -1.49 0.79
-7 -13 8 0.75 0.84
7 13 8 -0.01 0.66
7 13 -9 4.06 0.85
-13 -9 -7 4.02 1.03
-7 -13 -9 4.11 0.87
7 13 -9 3.51 0.88
-7 13 9 3.62 1.05
-9 -7 -13 2.46 0.89
-13 9 -7 3.13 0.72
-7 13 -9 4.01 1.06
-13 9 -7 3.86 0.75
-7 13 -9 2.25 1.01
7 13 9 4.34 0.92
-13 -9 7 3.08 0.95
-7 -13 9 4.01 0.96
-7 -13 -10 12.47 1.28
7 13 -10 11.49 1.24
-7 13 10 12.76 1.48
-13 10 7 12.29 1.03
7 13 -10 11.39 1.26
-10 -7 -13 11.66 1.36
-13 -10 -7 9.8 1.28
-13 10 -7 12.91 1.11
-7 -13 10 14.26 1.7
7 13 10 12.05 1.41
-13 -10 7 10.56 1.24
-7 13 -10 13.85 1.64
-7 13 -10 13.62 1.48
-13 10 -7 11.54 1.18
-7 13 11 1.6 1.1
-7 -13 -11 1.14 0.93
7 13 -11 -0.46 0.78
7 13 -11 1.13 0.97
-13 11 7 1.25 0.72
11 7 -13 -0.35 0.56
-13 -11 7 1.9 1.19
-7 13 -11 -0.15 1.09
-7 -13 11 0.98 1.13
-13 11 -7 -0.1 0.77
-7 13 -11 -1.33 1.03
-13 11 -7 0.68 0.81
7 13 11 -0.27 0.86
-7 13 12 3.16 1.21
-13 12 7 1.54 0.88
7 13 -12 0.54 1.06
7 13 -12 -0.42 0.91
-12 7 -13 -0.98 0.9
-7 13 -12 -0.25 1.22
-13 -12 7 0.11 1.31
-7 13 -12 2.46 1.16
-13 12 -7 1.5 0.9
-13 12 -7 2.77 0.95
8 13 0 29.67 1.34
-8 -13 0 30.64 1.68
0 -8 -13 29.37 1.27
-8 13 0 29.43 1.65
8 13 0 29.98 1.36
-8 13 0 28.86 1.65
-1 -8 -13 1.98 0.45
-8 -13 -1 1.7 0.77
-8 13 1 1.49 0.82
8 13 -1 1.7 0.55
-8 13 1 1.83 0.88
8 13 -1 0.53 0.52
-8 -13 1 1.19 0.74
-8 13 -1 -0.07 0.82
-1 -8 13 1.72 0.74
1 -8 -13 1.47 0.38
-8 13 -1 2 0.83
8 13 1 1.4 0.55
8 13 1 0.95 0.49
-8 -13 -2 15.34 1.29
-8 13 2 17.63 1.3
-2 -8 -13 16.43 1.24
8 13 -2 16.96 1
8 13 -2 15.87 0.99
-8 13 2 16.35 1.39
-8 13 -2 15.3 1.4
-8 -13 2 15.61 1.32
-8 13 -2 17.11 1.31
8 13 2 16.86 1.09
8 13 2 17.61 1.01
2 -8 -13 17.21 0.86
-2 -8 13 16.75 1.38
8 13 -3 121.82 3.77
-8 -13 -3 129.73 4.11
-8 13 3 118.31 3.89
-3 -8 -13 114.8 3.84
8 13 -3 120.03 3.72
-8 13 3 127.93 3.91
-13 -3 -8 128.35 4.05
-8 -13 3 125.29 4.11
-8 13 -3 121.64 3.9
-8 13 -3 123.51 3.9
-3 -8 13 121.16 3.93
8 13 3 127.22 3.78
3 -8 -13 119.29 3.58
8 13 -4 8.33 0.96
-13 -4 -8 10.63 1.33
-8 13 4 10 1.11
-8 -13 -4 9.53 1.14
-4 -8 -13 8.83 0.96
8 13 -4 9.63 0.83
8 -13 -4 8.42 0.56
-13 4 -8 8.91 0.98
4 -8 -13 7.52 0.57
-8 -13 4 9.89 1.12
-4 -8 13 9.62 1.2
-8 13 -4 9.36 1.14
-8 13 -4 9.69 1.07
8 13 4 10.5 0.99
8 13 -5 4.86 0.76
8 13 -5 5.47 0.77
-5 -8 -13 4.26 0.79
-8 13 5 5.13 0.95
-13 -5 -8 4.43 0.99
-8 -13 -5 4.84 0.87
-8 -13 5 5.3 1.04
8 13 5 4.46 0.79
-5 -8 13 2.83 0.82
-8 13 -5 4.7 0.97
-13 5 -8 5.54 0.7
-8 13 -5 5.28 0.97
-13 5 -8 5.34 0.77
-13 -6 -8 0.99 0.89
8 13 -6 1.05 0.61
-8 13 6 2.15 0.91
-8 -13 -6 2.54 0.83
-6 -8 -13 2.05 0.74
8 13 -6 2.13 0.69
-13 6 -8 0.91 0.99
-8 -13 6 2.06 0.87
-13 6 -8 1.24 0.68
-8 13 -6 3.47 0.95
-8 13 -6 0.9 0.87
8 13 6 1.8 0.69
-6 -8 13 1 0.77
8 13 -7 -0.46 0.51
-13 -7 -8 0.62 0.83
-7 -8 -13 -0.37 0.74
-8 -13 -7 0.92 0.8
8 13 -7 0.46 0.66
-8 13 7 1.72 0.97
-7 -8 13 0.64 0.78
-13 7 -8 -0.25 0.61
-8 -13 7 0.24 0.87
-13 7 -8 -0.5 0.62
-8 13 -7 -0.2 0.91
8 13 7 -0.04 0.62
-8 13 -7 1.54 0.88
8 13 -8 80.34 2.93
-8 13 8 82.76 3.09
-8 -13 -8 85.03 3.17
8 13 -8 84.85 2.91
-13 -8 -8 86.88 3.32
-8 -8 -13 88.77 3.25
8 13 8 86.03 2.98
-13 8 -8 84.24 2.79
-8 13 -8 86.7 3.11
-8 -13 8 88.05 3.27
-13 8 -8 84.11 2.7
-8 13 -8 82.79 3.13
-8 -13 -9 25.74 1.78
-13 -9 -8 22.68 1.87
-8 13 9 22.89 1.63
8 13 -9 21.03 1.49
13 9 -8 24.08 1
-9 -8 -13 23.23 1.6
8 13 -9 24 1.34
-8 13 -9 19.65 1.76
-13 9 -8 20.92 1.26
-13 9 -8 23.12 1.36
8 13 9 22.33 1.49
-13 -9 8 22.07 1.87
-8 13 -9 22.68 1.68
-8 -13 9 24.07 1.89
10 8 -13 0.78 0.62
8 13 -10 1.22 0.86
-8 13 10 -0.02 0.98
-8 -13 -10 0.9 0.88
8 13 -10 1.86 0.8
-8 13 -10 0.4 1.01
-13 10 -8 1.14 0.78
-13 10 -8 1.05 0.78
-13 -10 8 0.27 1.19
8 13 10 1.48 0.84
-8 13 -10 1.52 1.04
-8 -13 10 2.79 1.12
11 8 -13 6.78 0.83
-8 13 11 7.76 1.32
8 13 -11 5.72 1.03
8 13 -11 4.95 1.09
-8 13 -11 8.89 1.31
-13 11 -8 8.84 1.05
-11 8 -13 6.57 1.25
-13 11 -8 6.82 1.03
8 13 11 8.48 1.2
-8 13 -11 6 1.31
-13 -11 8 6.23 1.58
-13 12 8 5.58 1
-8 13 12 3.61 1.3
8 13 -12 2.88 0.92
8 13 -12 5.25 1.15
-13 12 -8 5.54 1.07
-8 13 -12 4.09 1.32
-12 8 -13 4.97 1.2
-12 8 -13 2.89 1.02
-8 13 -12 5.88 1.33
-13 12 -8 5.55 1.08
-9 -13 0 73.41 2.81
0 -9 -13 71.48 2.43
9 13 0 72.13 2.4
-9 13 0 72.47 2.63
-9 13 0 71.32 2.59
9 13 0 73.57 2.39
0 -9 13 70.28 2.75
-9 13 1 1.25 0.79
-9 -13 -1 0.04 0.71
9 13 -1 1.1 0.5
9 13 -1 -0.45 0.46
-9 13 1 0.25 0.75
-1 -9 -13 0.51 0.52
-9 13 -1 0.82 0.79
-1 -9 13 1.09 0.78
-9 13 -1 1.21 0.83
9 13 1 0.7 0.53
9 13 1 0.58 0.44
-9 -13 1 0.42 0.75
1 -9 -13 0.59 0.4
-9 13 2 1.27 0.84
-9 -13 -2 0.93 0.81
9 13 -2 1.4 0.57
-9 13 2 0.6 0.77
9 13 -2 0.35 0.48
-2 -9 -13 0.18 0.52
-9 13 -2 0.56 0.83
9 13 2 1.57 0.58
-2 -9 13 0.6 0.82
-9 13 -2 0.46 0.75
2 -9 -13 1.09 0.37
-9 -13 2 -0.61 0.79
9 13 2 1.05 0.45
-9 -13 -3 14.49 1.44
-3 -9 -13 11.96 1.05
9 13 -3 14.54 0.96
-9 13 3 11.87 1.17
9 13 -3 12.42 0.95
3 -9 -13 12.18 0.75
-9 13 -3 12.93 1.31
-3 -9 13 12.61 1.38
-9 13 -3 11.79 1.36
9 13 3 14.97 0.99
-9 -13 3 12.99 1.45
9 13 -4 30.13 1.4
-9 13 4 32.53 1.68
-4 -9 -13 30.14 1.58
-9 -13 -4 30.07 1.78
9 13 -4 27.19 1.35
-13 -4 -9 34.23 1.89
-9 13 -4 29.92 1.64
-9 -13 4 29.62 1.89
4 -9 -13 31.16 1.13
-4 -9 13 29.7 1.72
-9 13 -4 32.12 1.72
9 13 4 30.2 1.43
9 13 -5 3.06 0.61
-9 13 5 3.98 0.91
-5 -9 -13 5.08 0.85
-9 -13 -5 3.98 0.9
-13 -5 -9 3.33 0.95
9 13 -5 3.01 0.67
-9 13 -5 3.24 0.94
-9 13 -5 2.04 0.96
9 13 5 3.03 0.67
-5 -9 13 2.65 0.88
-9 -13 5 2.78 0.97
-13 5 -9 3.66 0.78
-13 5 -9 2.96 0.85
-6 -9 -13 0.92 0.75
-9 13 6 0.24 0.82
-13 -6 -9 -0.8 0.79
9 13 -6 1.16 0.64
9 13 -6 1.66 0.55
-9 -13 -6 0.96 0.78
-9 13 -6 0.34 0.85
-13 6 -9 0.32 0.66
-9 -13 6 0.02 0.91
9 13 6 1.82 0.65
-6 -9 13 0.26 0.85
-13 6 -9 0.98 0.65
-9 13 -6 -0.26 0.89
9 13 -7 3.37 0.68
-9 -13 -7 2.45 0.9
-9 13 7 4.5 1.04
-13 -7 -9 4.81 1.07
-7 -9 -13 4.7 0.85
9 13 -7 4.08 0.8
-13 7 -9 2.95 0.67
-13 7 -9 3.88 0.76
-9 13 -7 2.97 0.96
-9 13 -7 3.23 1.06
9 13 7 4.88 0.82
-7 -9 13 3.94 0.98
-9 -13 7 3.4 1.03
-13 -8 -9 20.19 1.7
9 13 -8 20.9 1.97
9 13 -8 24.34 1.28
8 9 -13 23.83 1.46
-9 -13 -8 21.99 1.73
-8 -9 -13 20.38 1.68
13 8 -9 25.33 1.03
-9 13 8 20.77 1.59
9 13 8 22.32 1.37
-9 -13 8 25.9 1.93
-13 8 -9 22.29 1.32
-9 13 -8 22.37 1.71
-13 8 -9 21.71 1.25
-9 13 -8 24.28 1.66
-8 -9 13 21.94 1.79
9 13 -9 10.54 1
9 13 -9 10.9 1.17
9 9 -13 9.71 1.07
-9 13 9 12.09 1.35
-9 -9 -13 10.3 1.33
-9 -13 -9 11.09 1.46
-9 13 -9 9.95 1.22
-13 9 -9 8.85 1.09
-9 -13 9 8.87 1.35
-13 9 -9 11.69 1.2
-9 13 -9 12.03 1.35
9 13 9 10.21 1.06
9 13 -10 0.59 0.66
-9 13 10 1.86 1.08
9 13 -10 1.41 0.88
10 9 -13 -0.26 0.63
-9 13 -10 -0.11 1
-9 13 -10 -0.07 1
9 13 10 -0.64 0.86
-9 -13 10 0.23 1.2
-13 10 -9 -0.05 0.8
-10 9 -13 -0.51 1.07
-13 10 -9 1.53 0.85
9 13 -11 10 1.16
-9 13 11 11.35 1.42
9 13 -11 9.91 1.23
11 9 -13 10.07 0.91
-9 13 -11 8.22 1.45
-11 9 -13 9.4 1.3
-13 11 -9 9.18 1.17
-13 11 -9 8.72 1.12
-11 9 -13 10.3 1.33
-9 13 -11 9.62 1.44
9 13 -12 5.09 1
9 13 -12 6.92 1.24
-12 9 -13 5.86 1.24
-13 12 -9 8.81 1.19
-9 13 -12 4.82 1.33
-13 12 -9 5.91 1.27
-12 9 -13 4.04 1.13
-9 13 -12 3.98 1.38
-10 -13 0 7.06 1.1
10 13 0 8.15 0.78
0 -10 13 8.41 1.08
-10 13 0 8.24 1
0 10 13 9.23 1.26
0 -10 -13 11.51 0.94
-10 13 0 8.72 1.03
10 13 0 8.01 0.79
10 13 -1 4.77 0.65
-10 13 1 4.77 0.9
10 13 -1 5.1 0.64
-10 -13 -1 4.65 0.98
-1 10 13 7.71 1.21
-10 13 1 5.3 0.97
-1 -10 -13 5.49 0.73
-10 13 -1 5.47 0.95
10 13 1 5.8 0.68
-10 13 -1 5.31 0.93
10 13 1 5.67 0.68
-10 -13 1 5.73 1.05
1 -10 -13 5.6 0.64
-1 -10 13 4.53 1
-2 -10 -13 2.94 0.66
-10 -13 -2 2.63 0.97
-2 10 13 2.92 1.07
10 13 -2 2.09 0.53
10 13 -2 3.08 0.6
-10 13 2 4.3 0.87
-10 -13 2 2.89 0.96
-10 13 -2 3.36 0.89
-2 -10 13 3.04 0.89
2 -10 -13 2.82 0.45
10 13 2 2.83 0.59
-10 13 -2 3.74 0.92
-10 -13 -3 0.51 0.81
-10 13 3 1.03 0.78
10 13 -3 0.04 0.42
10 13 -3 0.21 0.5
-3 -10 -13 2.08 0.64
-3 10 13 0.68 0.94
10 13 3 -0.37 0.42
-3 -10 13 0.6 0.86
-10 -13 3 1.21 0.89
-10 13 -3 0.47 0.86
-10 13 -3 0.36 0.77
10 13 -4 9.6 0.84
-10 13 4 10.89 1.14
10 13 -4 9.79 0.83
-10 -13 -4 11.88 1.47
-4 -10 -13 10.91 1.13
-13 -4 -10 10.6 1.39
-10 13 -4 10.33 1.18
10 13 4 10.82 0.86
-10 -13 4 11.86 1.47
-4 -10 13 9.62 1.18
-10 13 -4 10.59 1.18
10 13 -5 -0.12 0.48
-10 13 5 -0.53 0.85
-5 -10 -13 -0.75 0.67
-13 -5 -10 -0.38 0.78
-10 -13 -5 0.07 0.71
10 13 -5 -0.56 0.47
-10 -13 5 0.73 0.94
-10 13 -5 -0.45 0.87
-5 -10 13 -0.34 0.91
-13 5 -10 -0.4 0.63
-10 13 -5 1.05 0.84
10 13 5 0.26 0.5
-10 13 6 2.33 0.87
-6 -10 -13 3.5 0.87
10 13 -6 3.31 0.6
6 10 -13 2.36 0.83
-10 -13 -6 1.23 0.85
10 13 -6 2.04 0.65
-13 -6 -10 3.23 0.99
-10 13 -6 2.1 0.97
-6 -10 13 2.56 1.02
-13 6 -10 0.52 0.65
-10 13 -6 3.38 1.02
-13 6 -10 3.56 0.79
10 13 6 3.51 0.67
-10 -13 6 2.31 1.07
10 13 -7 12.1 0.93
-10 13 7 12.95 1.29
-7 -10 -13 14.45 1.45
10 13 -7 12.4 1.05
-13 -7 -10 10.81 1.36
-10 -13 -7 11.94 1.4
7 10 -13 10.49 1.19
-10 -13 7 13.94 1.51
-7 -10 13 12.88 1.65
-10 13 -7 11.84 1.26
-13 7 -10 10.33 1.1
-10 13 -7 13.44 1.44
10 13 7 12.62 1.04
-13 7 -10 11.81 1.18
10 13 -8 2.45 0.79
10 13 -8 0.92 0.54
8 10 -13 0.94 0.89
-10 13 8 2.05 0.9
-8 -10 -13 3.31 0.94
-13 8 -10 0.87 0.75
-13 8 -10 0.92 0.74
-10 13 -8 1.9 1.03
10 13 8 1.19 0.71
-8 -10 13 2.92 1.19
-10 -13 8 -0.69 1.06
-10 13 -8 0.47 1
-8 10 -13 1.73 1.06
10 13 -9 -0.35 0.75
9 10 -13 0.14 0.67
-10 13 9 0.7 1
13 9 -10 0.73 0.49
10 13 -9 -0.18 0.58
-10 -13 9 -0.7 1.22
-13 9 -10 0.56 0.89
-10 13 -9 0.6 1.03
-13 9 -10 -1.33 0.8
10 13 9 1.6 0.7
-9 10 -13 0.03 1.02
-10 13 -9 -0.17 0.96
10 13 -10 12.22 1.13
10 13 -10 14.01 1.39
13 10 -10 15.93 0.96
-10 13 10 13.22 1.6
10 10 -13 13.05 1.18
-13 10 -10 12.3 1.33
-10 10 -13 14.37 1.68
-10 10 -13 14.31 1.58
-10 13 -10 15.06 1.64
-13 10 -10 15.8 1.43
-10 13 -10 14.94 1.66
10 13 -11 0.06 0.97
-10 13 11 1.14 1.04
10 13 -11 0.54 0.69
11 10 -13 0.72 0.65
-11 10 -13 0.68 1.13
-10 13 -11 1.14 1.23
-13 11 -10 1.46 0.96
-11 10 -13 -0.25 1.09
-10 13 -11 0.68 1.17
10 13 -12 0.45 0.82
-12 10 -13 0.59 1.18
-12 10 -13 0.91 1.15
-10 13 -12 0.16 1.21
-13 12 -10 -1.46 1.05
0 -11 -13 7.7 0.97
-11 13 0 9.39 1.13
11 13 0 10.85 0.75
11 13 0 10.78 0.76
0 11 13 7.67 1.26
-11 -13 0 7.6 1.13
0 -11 13 9.08 1.15
-11 13 0 8.15 1.06
11 13 -1 0.55 0.4
11 13 -1 1.31 0.41
1 -11 13 0.29 0.91
-11 13 1 -0.2 0.75
-1 11 13 0.43 0.95
-11 -13 -1 -0.08 0.9
-1 -11 -13 1.6 0.63
-11 13 -1 1.26 0.87
-1 -11 13 -0.9 0.82
11 13 1 1.02 0.46
-11 -13 1 1.43 0.94
-11 13 -1 -1.06 0.74
1 11 13 -1.38 1.03
1 -11 -13 0.83 0.54
11 13 -2 7.98 0.7
-11 13 2 7.96 0.99
-2 -11 -13 9.42 1.07
-2 11 13 8.53 1.33
-11 -13 -2 4.38 1.05
11 13 -2 7.56 0.72
2 11 13 7.56 1.24
-11 13 -2 8.23 1.07
-2 -11 13 8.59 1.17
11 13 2 6.45 0.67
-11 13 -2 8.41 1.08
2 -11 -13 8.33 0.97
-11 -13 2 7 1.14
-11 13 3 6.78 1
11 13 -3 7.71 0.73
-11 -13 -3 7.5 1.16
-3 11 13 5.87 1.27
-3 -11 -13 7.23 0.95
3 11 -13 5.05 1.14
11 13 -3 7.42 0.7
-11 -13 3 6.73 1.16
-3 -11 13 6.16 1.11
-11 13 -3 7.68 1.06
-11 13 -3 6.22 0.99
-4 -11 -13 5.76 0.85
-11 13 4 5.7 0.98
-4 11 13 5.57 1.28
11 13 -4 5.31 0.62
-11 -13 -4 6.01 1.08
11 13 -4 4.7 0.68
4 11 -13 5.03 1.06
-11 13 -4 7 1.1
-11 -13 4 5.79 1.1
-11 13 -4 4.66 0.96
-4 -11 13 3.69 1.12
11 13 4 5.33 0.64
-11 13 5 1.51 0.85
-13 -5 -11 1.41 0.95
11 13 -5 1.09 0.48
11 13 -5 1.98 0.57
-11 -13 -5 0.25 0.99
5 11 -13 0.97 0.98
-5 -11 -13 1.49 0.73
-11 -13 5 1.35 1.05
11 13 5 1.03 0.51
-11 13 -5 0.16 0.89
-5 11 -13 -0.43 1.01
-11 13 -5 1.58 0.9
-5 -11 13 2.6 1.07
11 13 -6 4.39 0.56
11 13 -6 3.88 0.65
-6 -11 -13 6.35 0.99
-11 -13 -6 3.41 1.16
-11 13 6 4.8 0.97
-13 -6 -11 3.13 1.24
6 11 -13 3.89 0.96
-11 13 -6 3.07 0.95
-6 -11 13 1.72 1.1
-11 -13 6 3.91 1.14
-6 11 -13 3.65 1.25
11 13 6 5.09 0.75
-11 13 -6 3.48 1.01
-13 6 -11 3.96 0.89
11 13 -7 -0.4 0.48
7 11 -13 0.56 0.86
-7 -11 -13 -2.35 0.82
11 13 -7 0.19 0.63
-11 13 7 0.34 0.92
-13 7 -11 0 0.81
-11 13 -7 1.28 0.96
11 13 7 0.52 0.65
-11 13 -7 0.61 1.03
-7 11 -13 1.26 1.13
-7 -11 13 3.2 1.18
-11 -13 7 0.43 1.09
11 13 -8 9.4 0.84
-11 13 8 7.52 1.13
8 11 -13 6.94 1.06
11 13 -8 7.31 0.94
-8 11 -13 7.19 1.31
-8 11 -13 8.88 1.44
-11 13 -8 7.37 1.23
-8 -11 13 6.92 1.41
-11 13 -8 8.52 1.21
-11 -13 8 5.92 1.88
-13 8 -11 8.08 1.04
11 13 8 7.54 0.88
11 13 -9 9.94 0.91
13 9 -11 10.89 0.93
11 13 -9 8.69 1.02
-11 13 9 9.59 1.26
9 11 -13 9.73 1.08
-13 9 -11 9.08 1.16
-11 13 -9 9.44 1.39
-11 13 -9 9.45 1.36
-9 11 -13 8.66 1.91
-9 11 -13 8.69 1.42
10 11 -13 1.74 0.75
13 10 -11 2.61 0.75
11 13 -10 1.36 0.68
11 13 -10 0.54 0.84
-11 13 10 1.46 1.02
-11 13 -10 1.21 1.17
-10 11 -13 1.04 1.19
-13 10 -11 1.14 0.98
-11 13 -10 1.6 1.11
-10 11 -13 -0.03 1.17
11 11 -13 7.24 0.85
11 13 -11 6.21 1.16
11 13 -11 8.61 1.04
-11 11 -13 6.46 1.31
-11 11 -13 6.89 1.41
-11 13 -11 6.19 1.51
-13 11 -11 7.14 1.22
-11 13 -11 5.12 1.25
11 13 -12 -1.07 1.01
12 11 -13 -1.19 1.1
11 13 -12 -0.12 0.75
-11 13 -12 0.86 1.42
-13 12 -11 0.88 1.15
-12 11 -13 -1.12 1.13
-11 13 -12 0.22 1.27
0 -12 -13 -0.27 0.61
0 12 13 0.07 1.04
0 12 -13 -0.65 1.04
-12 13 0 0.4 0.74
0 -12 13 0.82 0.9
-12 -13 0 -0.93 0.87
1 -12 13 0.13 0.91
-12 -13 -1 1.34 0.97
-1 -12 -13 -0.71 0.69
1 12 -13 -0.4 1.07
-1 12 13 1.23 1.13
-12 13 1 0.66 0.74
-1 12 -13 -0.5 1.05
-12 13 -1 1.31 0.8
12 13 1 0.78 0.41
-1 -12 13 0.09 0.85
-12 -13 1 -0.11 1.02
-12 13 -1 0.39 0.78
1 12 13 -0.28 1.02
-12 13 2 7.44 0.97
-2 12 13 7.75 1.36
-12 -13 -2 13.74 1.58
12 13 -2 10.54 0.7
-2 -12 -13 6.77 0.92
12 13 -2 10.07 0.67
2 12 -13 7.05 1.26
12 13 2 9.68 0.73
2 12 13 6.99 1.25
-12 13 -2 7.28 1.01
-2 12 -13 6.45 1.32
-12 13 -2 7.99 1.09
-2 -12 13 8.15 1.15
-12 -13 2 7.9 1.21
-3 12 13 7.54 1.35
-12 13 3 7.62 1
12 13 -3 9.24 0.67
3 12 -13 7.04 1.23
-12 -13 -3 7.49 1.19
-3 -12 -13 8.84 1.06
-3 12 -13 7 1.34
-12 13 -3 7.33 1.07
-3 -12 13 5.2 1.09
3 12 13 7.68 1.32
-12 -13 3 5.93 1.23
-12 13 -3 8.86 1.06
12 13 3 7.5 0.72
-12 13 4 4.9 0.88
-4 -12 -13 7.91 1.1
-4 12 13 4.72 1.3
12 13 -4 8.46 0.71
12 13 -4 7.11 0.64
4 12 -13 5.44 1.19
-4 12 -13 5.5 1.27
-12 13 -4 4.89 0.94
-4 -12 13 5.26 1.22
-12 13 -4 6.57 1.07
-12 -13 4 5.41 1.17
12 13 -5 1.49 0.51
-5 -12 -13 1.04 0.9
5 12 -13 -1.16 0.89
-12 13 5 0.24 0.81
-5 12 13 0.28 1.1
-12 13 -5 0.46 0.92
-5 -12 13 -0.26 1.01
12 13 5 0.87 0.49
-12 -13 5 -0.89 1.08
-5 12 -13 -0.41 1.12
-12 13 -5 0.03 0.86
6 12 -13 2.51 1.02
-12 13 6 3.87 0.93
-6 12 13 5.1 1.21
-6 -12 -13 6.58 1.11
12 13 6 4.63 0.61
-12 -13 6 4.87 1.5
-12 13 -6 3.35 0.97
-6 12 -13 3.71 1.29
-12 13 -6 3.79 1.03
-6 -12 13 3.97 1.31
-13 6 -12 3.31 0.89
-12 13 7 1.32 0.93
7 12 -13 1.44 0.95
-12 13 -7 1.65 1.01
-7 12 -13 0.67 1.19
-7 -12 13 3.63 1.75
-12 13 -7 1.96 0.97
-7 12 -13 -0.37 1.14
12 13 7 2.67 0.64
-13 7 -12 0.86 0.89
-12 13 8 5.55 1.07
8 12 -13 3.2 0.89
12 13 -8 4.09 0.74
-8 12 -13 4.94 1.23
-8 12 -13 3.95 1.33
-12 13 -8 5.84 1.14
-12 13 -8 2.6 1.14
-13 8 -12 3.55 0.98
9 12 -13 5.35 1
12 13 -9 6.26 0.9
-12 13 9 7.65 1.13
-13 9 -12 7.75 1.17
-9 12 -13 7.46 1.4
-12 13 -9 6.73 1.27
-12 13 -9 7.3 1.3
-9 12 -13 5.89 1.43
10 12 -13 -0.67 0.83
12 13 -10 1.6 0.81
-12 13 -10 1.48 1.26
-13 10 -12 0.06 1.05
-12 13 -10 -0.67 1.17
-10 12 -13 0.64 1.17
11 12 -13 -1.02 1.03
11 12 -13 1.23 0.74
-12 13 -11 1.97 1.75
-11 12 -13 -1.92 1.24
-11 12 -13 -1.23 1.32
-12 13 -11 0.26 1.15
-13 11 -12 -0.2 1.09
12 13 -12 5.28 1.02
12 12 -13 4.82 1.11
-12 13 -12 4.67 1.85
-13 12 -12 6.68 1.56
-13 13 0 1.72 0.79
0 13 -13 3.02 1.21
0 13 13 2.13 1.14
1 13 -13 -0.12 1.13
-13 13 1 1.23 0.76
-1 13 13 0.51 1.12
-1 13 -13 -0.84 1.11
-13 13 -1 1.88 0.78
1 13 13 2.1 1.17
2 13 -13 6.57 1.28
-2 13 13 7.48 1.39
-13 13 2 8.45 0.98
-2 -13 -13 5.5 0.93
-2 13 -13 7.06 1.42
-13 13 -2 6.64 1
-13 13 -2 8.43 0.99
2 13 13 6.03 1.27
3 13 -13 19.29 1.83
-3 13 13 23.68 1.93
-13 13 3 22.94 1.42
-3 -13 -13 15.15 1.54
-3 13 -13 19.33 1.82
-13 13 -3 23.63 1.53
-13 13 -3 20.64 1.41
3 13 13 22.03 1.98
4 13 -13 2.11 1.19
-4 13 13 1.81 1.29
-13 13 4 1.03 0.85
-4 -13 -13 2.21 0.92
-4 13 -13 3.36 1.23
-13 13 -4 1.3 0.9
-13 13 -4 4.13 0.92
4 13 13 1.38 1.14
5 13 -13 28.21 1.86
-5 13 13 29.28 2.06
-13 13 5 29.69 1.59
-5 13 -13 27.4 1.97
-5 13 -13 27.88 2.02
-13 13 -5 32.32 1.76
-13 13 -5 29.35 1.65
6 13 -13 0.25 1
-6 13 13 -0.97 1.18
-13 13 6 0.09 0.86
-6 13 -13 1.71 1.23
-6 13 -13 0.66 1.28
-13 13 -6 0.48 0.98
-13 13 -6 -0.49 0.88
7 13 -13 0.67 1.01
-13 13 7 1 0.92
-13 13 -7 1.96 1.07
-13 13 -7 1.97 0.97
-7 13 -13 0.8 1.17
-7 13 -13 -0.25 1.48
-13 7 -13 -0.4 0.95
8 13 -13 15.49 1.52
8 13 -13 15.74 1.98
-13 13 8 16.32 1.53
-13 13 -8 18 2.1
-8 13 -13 16.25 2.12
-8 13 -13 16.64 2.47
-13 8 -13 13 1.58
-13 13 -8 18.48 1.61
9 13 -13 2.45 0.99
9 13 -13 -1.93 0.98
-9 13 -13 1.15 1.31
-9 13 -13 2.01 1.42
-13 9 -13 1.07 1.11
-13 13 -9 0.9 1.11
10 13 -13 2.11 0.95
10 13 -13 -0.26 1.05
-10 13 -13 2.81 1.4
-10 13 -13 0.42 1.29
-13 10 -13 1.11 1.17
-13 13 -10 2.99 1.23
11 13 -13 5.05 1.25
-13 13 -11 8.56 1.69
-11 13 -13 6.16 2.43
-11 13 -13 9.13 1.7
-13 11 -13 4.4 1.56
-13 12 -13 1.83 1.47
-13 13 -12 1.09 1.46
-12 13 -13 2.1 1.42
-13 13 -13 27.59 2.5
0 -14 0 20.96 1.09
0 0 14 16.18 1.13
0 14 0 14.78 1.27
0 14 0 15.34 1.27
-1 0 14 -0.03 0.62
-1 0 14 0.56 0.37
0 -14 -1 -0.21 0.37
0 -14 1 0.65 0.48
0 14 -1 0.25 0.73
0 14 -1 0.39 0.73
0 14 1 0.73 0.78
0 14 1 0.18 0.75
1 0 14 0.5 0.66
0 -14 -2 11.36 0.82
0 14 -2 12.77 1.19
-2 0 14 12.85 0.81
-2 0 14 13.02 0.63
0 14 -2 12.78 1.23
0 14 2 13.51 1.23
0 14 2 12.09 1.18
2 0 14 13.05 1.23
-14 -3 0 19.78 1.13
0 14 -3 17.37 1.36
0 14 3 17.46 1.34
0 14 3 16.91 1.3
0 -14 -3 18.35 1.11
0 -14 3 18.59 1.17
0 14 -3 16.99 1.33
0 -14 -4 10.45 1
0 14 4 12.13 1.22
0 14 4 10.34 1.19
0 14 -4 9.93 1.14
-14 -4 0 10.96 0.99
0 14 -4 11.02 1.18
0 -14 4 12.62 1.11
0 14 5 18 1.36
0 14 -5 20.58 1.45
0 -14 5 16.55 1.28
0 14 5 16.86 1.36
0 14 -5 18.3 1.37
-14 -5 0 16.61 1.24
0 -14 -5 16.3 0.99
0 -14 6 5.71 0.88
0 -14 -6 6.33 0.72
0 14 -6 8.04 1.14
0 14 -6 7.13 1.05
0 14 6 5.84 1.02
-14 -6 0 7.7 0.96
0 14 7 0.25 0.84
0 14 -7 0.07 0.83
0 -14 -7 -0.14 0.45
0 14 -7 -1.25 0.8
-14 -7 0 0.82 0.74
0 -14 7 -0.61 0.65
0 14 -8 12.05 1.36
0 14 8 11.16 1.4
0 -14 -8 13.68 1.1
0 14 -8 13.48 1.42
-14 -8 0 12.44 1.38
0 -14 8 12.79 1.27
0 -14 9 25.41 1.65
0 14 -9 24.54 1.69
0 14 -9 24.19 1.75
0 14 9 27.58 1.81
0 -14 -9 25.48 1.36
-14 -9 0 26.35 1.79
0 -14 -10 8.08 0.97
0 14 10 6.71 1.28
0 14 -10 7.53 1.26
0 14 -10 6.84 1.23
0 -14 10 6.68 1.06
-14 -10 0 8.43 1.24
0 14 11 3.65 1.22
0 14 -11 1.7 1.13
0 14 -11 2.53 1.16
0 -14 -11 4.16 0.67
0 -14 11 1.37 0.89
-14 -11 0 3.09 1.01
-14 -12 0 1.02 1.92
0 14 12 -0.35 1.14
0 14 -12 1.4 1.11
0 14 -12 -0.11 1
0 14 -13 0.41 1.23
0 14 -13 -0.88 1.15
0 14 13 0.73 1.21
0 -1 14 1.09 0.67
-1 14 0 0.45 0.76
1 14 0 0.75 0.74
1 14 0 0.07 0.71
-1 14 0 1.07 0.79
-1 -14 0 0.55 0.47
1 -14 0 1.16 0.43
1 -1 14 10.13 1.17
1 14 -1 9.07 1.09
1 14 -1 10.01 1.1
-1 1 14 9.31 0.74
-1 14 1 9.08 1.04
-1 14 1 9.85 1.17
-1 1 14 9.44 0.57
-1 -14 -1 9.1 0.89
1 14 1 10.06 1.11
-1 14 -1 9.23 1.06
-1 -1 14 10.73 0.81
1 14 1 9.47 1.11
1 1 14 11.01 1.04
1 -14 -1 9.77 0.79
-1 14 -1 8.83 1.07
-1 -1 14 9.48 1.03
1 14 -2 9.87 1.12
-1 14 2 9.47 1.14
1 -14 2 10.13 1.03
-1 14 2 9.97 1.11
1 14 -2 11.66 1.16
2 -1 14 11.23 1.19
-1 -14 -2 11.7 0.88
2 1 14 8.94 1.14
-2 -1 14 11.54 1.06
-2 -1 14 9.85 0.71
-1 14 -2 10.21 1.19
1 14 2 11.87 1.16
1 -14 -2 10.72 0.77
1 14 2 10.8 1.13
-1 -14 2 10.97 0.99
-1 14 -2 11.47 1.18
-14 -3 -1 0.06 0.57
3 -1 14 0.48 1.1
1 -14 3 0.14 0.55
-1 -14 -3 0.51 0.44
-1 14 3 -1.01 0.75
1 14 -3 0.79 0.78
1 14 -3 0.45 0.79
-1 14 3 1.15 0.8
1 14 3 0.32 0.68
-3 -1 14 -0.04 0.27
3 1 14 -0.74 0.75
-3 -1 14 0.08 0.48
1 -14 -3 0.46 0.35
-1 -14 3 0.29 0.54
1 14 3 0.32 0.76
-1 14 -3 -0.7 0.7
-14 -3 1 -0.21 0.45
-1 14 -3 -0.53 0.7
1 -14 4 20.11 1.21
-1 -14 -4 17.54 1.04
1 14 -4 17.32 1.33
-14 -4 -1 17.88 1.23
-1 14 4 16.93 1.39
-1 14 4 19.18 1.4
1 14 -4 19.54 1.36
-1 14 -4 18.85 1.39
1 14 4 19.35 1.36
1 -14 -4 17.15 0.97
1 14 4 17.58 1.33
-14 -4 1 18.94 1.14
-1 14 -4 16.8 1.35
-1 -14 4 18.55 1.31
1 -14 5 0.6 0.63
-1 14 5 0.14 0.8
1 14 -5 0.1 0.77
-1 -14 -5 0.67 0.47
1 14 -5 0.2 0.8
-1 14 5 0.54 0.79
1 14 5 1.39 0.79
-1 14 -5 0.1 0.85
-1 -14 5 -0.34 0.6
-14 -5 1 0.12 0.64
1 -14 -5 0.06 0.34
1 14 5 0.11 0.82
-1 14 -5 -0.41 0.82
1 -14 6 0.23 0.61
1 14 -6 0.04 0.8
-14 -6 -1 -0.24 0.72
1 14 -6 1.28 0.83
-1 14 6 0.22 0.79
-1 -14 -6 0.83 0.49
-1 14 -6 -1.48 0.77
-1 14 -6 -0.13 0.84
-14 -6 1 -0.91 1.35
1 -14 -6 0.82 0.41
-1 -14 6 -0.87 0.67
1 14 6 0.08 0.83
-1 14 7 16.8 1.45
-14 -7 -1 14.1 1.34
1 14 -7 12.58 1.31
1 14 -7 14.49 1.41
1 -14 7 14.87 1.3
1 -14 -7 13.19 0.9
-1 -14 7 12.77 1.21
-1 14 -7 12.5 1.34
1 14 7 15.09 1.37
-1 14 -7 11.62 1.28
-14 -7 1 13.56 1.29
-14 -8 -1 4.27 0.97
1 14 -8 4.73 1.09
1 14 -8 5.07 1.09
-1 -14 -8 4.04 0.66
1 -14 8 5.67 0.96
-1 14 8 3.86 1.02
-1 14 -8 3.97 1
-1 -14 8 5.43 0.97
1 -14 -8 4.22 0.59
-14 -8 1 5.58 0.92
-1 14 -8 5.64 1.14
1 14 8 5.51 1.03
1 14 -9 4.65 1.15
-1 14 9 5.28 1.15
1 -14 9 5.61 0.94
-1 -14 -9 3.94 0.69
1 14 -9 4.46 1.09
-14 -9 -1 4.14 0.98
-1 -14 9 5.58 1.02
1 -14 -9 4.2 0.66
-1 14 -9 5.6 1.13
1 14 9 3.52 1.01
-14 -9 1 5.1 1.01
-1 14 -9 4.61 1.18
1 14 -10 9.02 1.3
-1 14 10 10.6 1.34
-14 -10 -1 9.11 1.19
1 -14 10 10.11 1.27
-1 -14 -10 10.23 1.12
1 14 -10 9.96 1.32
-14 -10 1 9.81 1.23
1 -14 -10 8.8 1.05
-1 14 -10 11 1.37
-1 -14 10 9.22 1.19
-1 14 -10 9.37 1.29
1 14 10 10.49 1.35
1 14 -11 -0.45 1.04
1 -14 11 -0.34 0.9
1 14 -11 0.05 1.02
-1 -14 -11 0.37 0.71
-1 14 11 0.44 1.14
-14 -11 -1 -0.62 1.02
-14 -11 1 1.15 1.05
-14 11 -1 1.45 0.74
-1 -14 11 -0.25 0.9
1 14 11 -0.06 1.01
-1 14 -11 0.4 1.02
-1 14 -11 -0.05 1.12
1 14 -12 0.36 1.04
-1 14 12 0.24 1.15
-1 -14 -12 1.39 0.73
1 14 -12 1.46 1.13
-14 -12 1 1.13 1.46
-14 12 -1 2.43 0.77
-1 14 -12 3.86 1.18
-1 14 -12 -0.96 1.11
1 14 12 0.79 1.17
1 14 -13 1.1 1.16
1 14 -13 0.66 1.15
-1 14 13 1.78 1.22
-1 14 -13 2.82 1.33
-14 13 -1 3.14 1.16
1 14 13 1.53 1.2
-1 14 -13 0.66 1.32
2 -14 0 11.72 0.84
-2 14 0 13.72 1.22
-2 14 0 12.81 1.21
2 14 0 13.12 1.17
0 -2 14 11.91 1.23
2 14 0 11.96 1.1
0 2 14 12.28 0.87
2 -14 1 10.91 0.86
1 -2 14 10.68 1.23
2 14 -1 10.41 1.06
2 14 -1 10.84 1.13
-2 14 1 10.65 1.18
-2 -14 -1 10.4 1.56
-2 14 1 9.87 1.18
-1 -2 14 9.58 0.89
-1 -2 14 12.17 1.15
1 2 14 9.3 1.11
-2 14 -1 11.18 1.18
2 -14 -1 10.89 0.79
2 14 1 12.37 1.13
-2 14 -1 11.53 1.21
2 14 1 10.42 1.11
-2 -14 1 9.88 1.04
-14 -2 -2 2.87 0.64
-2 14 2 3.86 0.87
-2 -14 -2 3.11 0.7
2 14 -2 2.86 0.8
2 -14 2 3.11 0.59
-2 14 2 3.34 0.89
2 14 -2 3.22 0.85
2 14 2 2.54 0.79
2 -14 -2 3.49 0.49
-2 -2 14 3.07 0.52
-2 14 -2 3.81 0.9
-2 -2 14 2.86 0.71
2 2 14 3.15 0.71
-2 -14 2 2.02 0.62
2 14 2 2.36 0.84
-2 14 -2 2.37 0.87
2 -14 3 39.28 1.79
-2 14 3 43.48 1.9
-2 14 3 40.36 1.92
-14 -3 -2 43.13 1.76
-2 -14 -3 38.83 1.79
2 14 -3 41.2 1.85
2 14 -3 39.77 1.86
-2 -14 3 42.29 1.83
-2 14 -3 42.02 1.91
2 -14 -3 42.21 1.57
-3 -2 14 40.16 1.43
3 2 14 41.19 1.77
2 14 3 40.16 1.83
-14 -3 2 41.78 1.49
2 14 3 40.58 1.85
-2 14 -3 38.4 1.9
-2 14 4 13.35 1.3
-14 -4 -2 12.89 1.21
2 14 -4 13.44 1.25
2 -14 4 11.82 1.02
-2 14 4 13.79 1.32
-2 -14 -4 13.1 1.28
2 14 -4 13.37 1.19
-2 -14 4 12.75 1.21
2 -14 -4 12.49 0.79
-4 -2 14 12.89 0.66
2 14 4 13.77 1.24
-14 -4 2 12.35 0.95
2 14 4 11.77 1.29
-2 14 -4 13.07 1.26
-2 14 -4 10.91 1.26
-2 14 5 7.14 1.04
2 -14 5 6.76 0.84
2 14 -5 6.51 0.98
-14 -5 -2 8.61 0.99
2 14 -5 8.18 1.1
-14 -5 2 7.56 0.84
-2 14 -5 9.13 1.14
2 -14 -5 7.85 0.68
-2 -14 5 8.25 0.99
2 14 5 7.22 1.01
-2 14 -5 7.99 1.13
-2 14 6 1.37 0.96
2 -14 6 3.82 0.79
-14 -6 -2 2.44 0.8
2 14 -6 2.87 0.89
-2 -14 -6 1.63 0.59
2 14 -6 2.93 0.86
-2 -14 6 2.62 0.83
2 14 6 1.16 0.87
-2 14 -6 2.69 0.96
2 -14 -6 1.99 0.43
-2 14 -6 2.66 0.95
-14 -6 2 3.52 0.75
-2 -14 -7 3.45 0.6
2 14 -7 3.14 0.92
-2 14 7 2.26 0.96
-14 -7 -2 3.32 0.92
2 14 -7 2.59 0.94
2 -14 7 3.5 0.75
-2 14 -7 3.23 0.97
-2 -14 7 1.25 0.81
-2 14 -7 2.03 0.99
2 14 7 2.85 0.95
-14 -7 2 1.32 0.79
2 -14 -7 2.73 0.48
-2 -14 -8 16.77 1.19
2 -14 8 18.99 1.38
-14 -8 -2 18.83 1.56
-2 14 8 18.65 1.57
2 14 -8 16.7 1.5
2 14 -8 20.41 1.49
2 14 8 16.48 1.49
-14 -8 2 18.42 1.46
-2 14 -8 18.62 1.53
-2 -14 8 18.86 1.57
2 -14 -8 17.72 1.02
-2 14 -8 17.83 1.52
2 14 -9 0.84 0.89
-2 14 9 1.44 1.06
-14 -9 -2 1.66 0.97
-2 -14 -9 1.38 0.66
2 14 -9 0.78 0.96
2 -14 9 1.22 0.79
-2 14 -9 2.61 1.07
2 14 9 0.26 0.94
-2 -14 9 4.88 0.95
-2 14 -9 1.67 0.96
2 -14 -9 2.54 0.51
-14 -9 2 1.25 0.87
2 14 -10 0.75 1.01
-2 14 10 0.53 1.02
-14 -10 -2 1.01 0.94
2 14 -10 1.91 0.99
2 -14 10 -0.2 0.75
-2 -14 -10 0.4 0.61
-14 -10 2 0.97 0.96
-2 14 -10 0.22 1.02
-2 -14 10 0.75 0.95
-14 10 -2 0.39 0.9
-2 14 -10 1.55 1.09
2 -14 -10 1.46 0.75
2 14 10 0.4 0.99
-14 -11 -2 9.3 1.28
2 14 -11 12.12 1.46
-2 14 11 13.25 1.46
-2 -14 -11 9.2 1.02
2 -14 11 9.88 1.25
2 14 -11 12.42 1.46
-14 -11 2 13.74 1.71
-2 -14 11 10.37 1.26
-2 14 -11 11.53 1.47
-14 11 -2 12.94 0.97
-2 14 -11 12.46 1.48
2 14 11 13.91 1.62
-2 -14 -12 4.57 0.86
2 14 -12 5.61 1.34
-2 14 12 3.98 1.3
2 14 -12 3.74 1.2
-2 14 -12 4.04 1.28
-14 -12 2 4.38 1.33
-14 12 -2 6.07 0.87
2 14 12 6.11 1.35
-2 14 -12 3.69 1.3
2 14 -13 6.12 1.43
2 14 -13 6.57 1.43
-2 14 13 7.45 1.51
-2 14 -13 5.52 1.41
-2 14 -13 4.49 1.39
2 14 13 6.25 1.4
-14 13 -2 5.75 1.02
-3 14 0 18.29 1.36
-3 -14 0 17.8 1.2
3 -14 0 19.6 1.03
0 3 14 18.94 0.68
0 -3 14 19.73 1.41
-3 14 0 17.84 1.37
3 14 0 16.15 1.23
3 14 0 17.38 1.26
-3 14 1 -0.33 0.73
3 14 -1 -0.36 0.69
-3 14 1 -0.02 0.76
3 14 -1 0.09 0.64
3 -14 1 1.31 0.47
-3 -14 -1 -0.02 0.52
3 14 1 0.4 0.68
-3 14 -1 0.15 0.8
-1 -3 14 -0.42 0.53
1 3 14 0.1 0.6
-3 14 -1 0.42 0.78
3 14 1 -0.6 0.62
-3 -14 1 0.38 0.6
3 -14 -1 0.41 0.35
-1 -3 14 -0.42 0.7
3 14 -2 39.85 1.81
3 -14 2 41.64 1.71
-3 -14 -2 39.54 1.76
3 14 -2 40.44 1.81
-3 14 2 44.11 1.93
-3 14 2 42.05 1.9
-2 -3 14 42.58 1.6
3 -14 -2 39.55 1.55
-3 -14 2 40.47 1.83
3 14 2 42.29 1.84
3 14 2 37.73 1.78
-2 -3 14 41.57 1.8
2 3 14 40.48 1.91
-3 14 -2 43.71 1.89
-3 14 -2 39.43 1.89
3 14 -3 63.97 2.45
-3 14 3 68.17 2.56
-3 14 3 65.85 2.54
-3 -14 -3 67.96 2.46
3 -14 3 62.68 2.59
3 14 -3 67.66 2.52
-14 -3 -3 68.26 2.42
3 14 3 67.67 2.48
3 14 3 68.01 2.51
-3 14 -3 66.88 2.55
-14 -3 3 69.77 2.05
3 -14 -3 65.54 2.21
-3 -14 3 67.35 2.56
-3 -3 14 66.99 2.17
-3 14 -3 64.3 2.54
-3 14 4 13.02 1.3
3 14 -4 11.31 1.12
-3 14 4 12.18 1.31
-14 -4 -3 11.11 1.16
-3 -14 -4 11.24 1.03
3 14 -4 11.7 1.19
-3 14 -4 11.81 1.28
-14 -4 3 12.26 0.88
-4 -3 14 10.73 0.77
-3 -14 4 13.24 1.18
3 -14 -4 11.02 0.74
3 14 4 10.98 1.13
14 -4 -3 11 0.8
-3 14 -4 10.8 1.23
3 14 4 10.29 1.16
-3 14 5 10.23 1.2
-14 -5 -3 9.3 1.16
-3 -14 -5 10.95 1.03
3 14 -5 9.19 1.12
3 14 -5 8.95 1.1
-14 -5 3 11.04 1
-3 -14 5 9.9 1.22
-3 14 -5 10.16 1.25
3 14 5 8.54 1.09
3 -14 -5 11.63 0.73
-5 -3 14 9.02 0.61
-3 14 -5 10.14 1.14
-14 -6 -3 -1.27 0.75
-3 14 6 -0.46 0.84
-3 -14 -6 0.2 0.5
3 14 -6 -0.55 0.77
3 14 -6 0.43 0.76
-3 14 -6 0.08 0.85
-14 -6 3 0.23 0.63
-3 -14 6 -0.14 0.68
3 14 6 0.35 0.78
-3 14 -6 -0.14 0.84
3 14 -7 -0.23 0.8
-3 -14 -7 0.95 0.62
3 14 -7 -0.55 0.78
-3 14 7 1.28 0.94
-14 -7 -3 0.86 0.81
-3 14 -7 1.51 0.98
-14 -7 3 -0.11 0.76
-3 -14 7 0.07 0.7
3 14 7 -0.68 0.76
-3 14 -7 -1.21 0.84
3 -14 -7 0.97 0.36
-3 -14 -8 124.97 3.97
-3 14 8 129.58 4.2
-14 -8 -3 128.08 4.2
3 14 -8 127.62 4.11
3 14 -8 120.48 4.1
3 -14 -8 121.66 3.71
3 14 8 124.72 4.12
-14 -8 3 124.82 4
-3 14 -8 123.17 4.14
-3 14 -8 121.11 4.14
-3 -14 8 125.98 4.21
-3 -14 -9 11.33 1.17
-3 14 9 11.57 1.42
-14 -9 -3 14.75 1.61
3 14 -9 12.26 1.44
3 14 -9 10.12 1.32
-14 9 -3 11.46 1.24
-3 -14 9 12.88 1.5
-3 14 -9 10.87 1.36
3 14 9 12.76 1.45
3 -14 -9 11.46 0.78
-3 14 -9 12.16 1.37
-14 -9 3 14.62 1.47
-3 -14 -10 0.4 0.72
-3 14 10 0.47 1.09
-14 -10 -3 0.28 0.93
3 14 -10 -0.04 0.9
3 14 -10 0.9 0.96
-14 -10 3 0.75 1.01
-3 -14 10 0.83 0.92
-3 14 -10 0.81 1.11
3 14 10 1 0.97
-3 14 -10 -0.25 0.99
3 14 -11 14.88 1.58
3 14 -11 14.85 1.51
-3 -14 -11 14.5 1.38
-14 -11 -3 14.55 1.6
-3 14 11 16.1 1.72
-3 14 -11 13.84 1.65
-14 -11 3 16.97 1.79
-3 -14 11 15.29 1.66
-3 14 -11 16.72 1.7
3 14 11 14.69 1.63
-14 11 -3 17.59 1.13
-3 14 12 8.65 1.41
3 14 -12 7.81 1.33
3 14 -12 8.09 1.36
-14 -12 3 6.59 1.42
-3 14 -12 7.37 1.39
3 14 12 6.8 1.36
-14 12 -3 9.02 1.11
-3 14 -12 7.72 1.36
-3 -14 -13 14.89 1.75
3 14 -13 13.6 1.6
3 14 -13 11.3 1.8
-3 14 13 13.55 1.67
-3 14 -13 13.37 1.9
-14 13 -3 11.14 1.37
3 14 13 14.08 1.72
-3 14 -13 12.34 1.59
4 14 0 10.17 1.02
-4 14 0 11.81 1.24
4 -14 0 11.34 0.81
-4 -14 0 11.42 1.05
-4 14 0 11.46 1.31
4 14 0 10.18 1.07
-4 14 1 18.01 1.46
-4 -14 -1 17.36 1.2
4 14 -1 19.64 1.25
-4 14 1 18.44 1.39
4 14 -1 19.21 1.25
4 -14 1 19.94 1.07
-4 14 -1 18.34 1.4
-4 -14 1 18.94 1.36
-1 -4 14 19.39 1.2
4 14 1 18.32 1.24
4 14 1 18.81 1.29
4 -14 -1 18.61 0.95
-4 14 -1 17.8 1.38
4 14 -2 12.08 1.12
-4 14 2 11.15 1.27
-4 -14 -2 13.46 1.09
-4 14 2 14.75 1.29
4 14 -2 12.04 1.1
-4 -14 2 12.18 1.16
-2 -4 14 12.88 1.04
4 14 2 10.11 1.06
-4 14 -2 13.49 1.3
-2 -4 14 11.04 1.3
4 14 2 12.87 1.11
-4 14 -2 13.04 1.28
4 -14 -2 12.91 0.78
4 14 -3 12.36 1.08
-4 14 3 10.71 1.27
-4 14 3 13.5 1.36
-4 -14 -3 11.7 1.05
-14 -3 -4 10.18 1.14
4 14 -3 13.48 1.16
-4 14 -3 12.19 1.34
-3 -4 14 13.85 0.98
-4 14 -3 10.66 1.27
4 14 3 10.58 1.15
4 14 3 12.58 1.12
-4 -14 3 13.26 1.25
14 -3 -4 9.82 0.8
4 -14 -3 12 0.77
-14 -4 -4 48.46 2.06
4 14 -4 50.04 2.01
-4 -14 -4 47.42 1.97
-4 14 4 45.46 2.1
-4 14 4 47.91 2.12
4 14 -4 45.08 1.96
4 14 4 47.72 2.01
-14 -4 4 49.06 1.62
-4 14 -4 46.97 2.1
-4 14 -4 49.5 2.15
4 -14 -4 46.62 1.67
-4 -4 14 46.99 1.74
-4 -14 4 47.56 2.07
4 14 4 48.92 1.99
-14 -5 -4 5.59 0.95
4 14 -5 4.28 0.95
4 14 -5 4.39 0.85
-4 -14 -5 4.68 0.78
-4 14 5 5.13 1.05
-4 14 -5 7.12 1.12
-4 -14 5 4.41 0.93
-5 -4 14 4.19 0.55
-4 14 -5 5.06 1.06
-14 -5 4 4.82 0.63
4 14 5 4.01 0.89
4 -14 -5 5.23 0.58
4 14 -6 9.28 1.12
-4 -14 -6 7.64 0.91
4 14 -6 6.95 0.97
-4 14 6 7.34 1.12
-14 -6 -4 5.83 0.92
-14 -6 4 8.46 1.05
-4 14 -6 8.8 1.21
-4 -14 6 8.25 1.08
4 -14 -6 6.28 0.64
-6 -4 14 6.84 0.64
-4 14 -6 7.95 1.15
4 14 6 7.7 1.04
-4 14 7 21.88 1.69
-4 -14 -7 20.34 1.34
4 14 -7 23.21 1.44
4 14 -7 22.08 1.5
-14 -7 -4 19.89 1.55
-4 -14 7 20.77 1.54
-4 14 -7 20.02 1.66
4 14 7 18.78 1.41
-4 14 -7 20.68 1.58
4 -14 -7 20.86 0.96
-4 14 8 5.18 1.11
-4 -14 -8 4.85 0.86
-14 -8 -4 4.25 1.1
4 14 -8 5.36 0.97
4 14 -8 3.43 0.95
-4 14 -8 3.79 1.11
-14 -8 4 5.79 0.93
4 14 8 5.01 1.02
-4 -14 8 5.66 1.08
4 -14 -8 6.18 0.6
-4 14 -8 3.98 1.09
-14 8 -4 6.48 1.12
-4 14 9 41.93 2.14
-4 -14 -9 41.29 1.92
-14 -9 -4 41.81 2.17
4 14 -9 38.07 2.07
4 14 -9 37.13 1.93
-14 -9 4 40.87 2.07
-14 9 -4 38.94 1.7
-4 -14 9 40.38 2.14
-4 14 -9 36.84 2.06
4 14 9 37.34 1.99
-4 14 -9 38.99 2.2
4 14 -10 16.08 1.46
-14 -10 -4 16.96 1.75
-4 14 10 20.44 1.82
-4 -14 -10 15.75 1.39
4 14 -10 12.38 1.5
-4 -14 10 14.04 1.69
-4 14 -10 13.52 1.62
-4 14 -10 15.96 1.66
4 14 10 15.57 1.55
-14 10 -4 15.65 1.12
-14 -10 4 17.37 1.67
4 14 -11 2.13 1.14
-4 14 11 3.09 1.28
-4 -14 -11 1.6 0.89
4 14 -11 3.25 1.08
-4 -14 11 2.57 1.24
-4 14 -11 3.74 1.23
-4 14 -11 2.69 1.22
4 14 11 2.18 1.07
-14 -11 4 2.56 1.16
-14 11 -4 2.78 0.73
-4 -14 -12 21.18 1.57
-4 14 12 20.34 1.9
4 14 -12 15.99 1.7
4 14 -12 17.44 1.65
-4 14 -12 18.36 1.8
4 14 12 15.58 1.66
-14 12 -4 16.07 1.31
-14 -12 4 21.19 2.41
-4 14 -12 15.17 1.8
4 14 -13 1.46 1.07
-4 14 13 2.1 1.31
-4 14 -13 2.07 1.34
4 14 13 3 1.2
-14 13 -4 2.1 0.91
5 14 0 18.48 1.21
-5 14 0 18.08 1.38
-5 -14 0 19.25 1.28
5 14 0 19.35 1.27
-5 14 0 15.21 1.36
-5 14 1 0.03 0.83
-5 14 1 -0.19 0.77
5 14 -1 0.27 0.59
5 14 -1 1.36 0.7
-5 -14 -1 1.19 0.66
-5 14 -1 0.07 0.79
-5 14 -1 0.64 0.85
5 14 1 0.88 0.67
-1 -5 14 0.34 0.66
5 14 1 1.01 0.67
-5 -14 1 0.04 0.69
5 -14 -1 0.77 0.36
5 14 -2 7.23 0.88
-5 14 2 9.59 1.16
-5 -14 -2 8.25 0.96
-5 14 2 7.96 1.07
5 14 -2 7.52 0.92
-5 14 -2 7.72 1.09
-5 -14 2 8.45 1.03
5 -14 -2 8.07 0.66
-2 -5 14 8.16 1.07
5 14 2 7.82 0.97
-5 14 -2 6.76 1.04
5 14 2 7.9 0.94
-5 14 3 10.24 1.18
-5 -14 -3 10.41 1.15
5 14 -3 9.74 1.05
5 14 -3 10.17 1.06
-3 -5 -14 9.48 0.98
-5 14 3 10.63 1.26
-14 -3 -5 8.71 1.13
-5 14 -3 9.27 1.13
-3 -5 14 10.5 1.05
5 14 3 9.5 1.1
-5 -14 3 10.59 1.23
5 -14 -3 7.7 0.65
5 14 3 12.13 1.09
-5 14 -3 10.11 1.2
5 14 -4 5.34 0.89
-5 14 4 4.2 1.04
5 14 -4 5.49 0.86
-14 -4 -5 5.1 0.89
-4 -5 -14 3.45 0.66
-5 -14 -4 3.81 0.76
-5 14 4 3.59 0.96
5 14 4 5.91 0.93
-5 14 -4 5.34 1.05
-4 -5 14 4.12 0.7
5 14 4 4.69 0.83
5 -14 -4 6.13 0.57
-14 -4 5 4.92 0.54
-5 -14 4 5.24 0.94
-5 14 -4 5.5 1.05
-14 -5 -5 0.06 0.73
5 14 -5 0.35 0.78
-5 -14 -5 0.04 0.6
5 14 -5 0.38 0.64
-5 14 5 0.62 0.88
-5 -5 -14 0.01 0.53
-5 -5 14 0.32 0.54
-14 -5 5 -0.26 0.46
-5 14 -5 -0.99 0.86
-5 -14 5 0.76 0.74
-5 14 -5 0.08 0.84
5 -14 -5 1.23 0.31
5 14 5 0.24 0.71
-14 -6 -5 5.66 0.96
-5 -14 -6 5.74 0.87
5 14 -6 4.13 0.95
5 14 -6 3.86 0.81
-5 14 6 3.2 1.03
-6 -5 -14 4.9 0.88
-5 -14 6 4.59 0.96
-5 14 -6 5.16 1.05
5 -14 -6 5.28 0.55
-14 -6 5 3.18 0.66
-5 14 -6 4.6 1.09
5 14 6 5.05 0.91
-6 -5 14 3.63 0.56
5 14 -7 9.68 1.1
-14 -7 -5 8.36 1.1
-5 -14 -7 11.57 1.22
-5 14 7 8.7 1.16
5 14 -7 8.56 1.08
-7 -5 -14 9.91 1.23
5 14 7 8.02 1.06
-14 7 -5 9.82 1.11
-5 14 -7 9.22 1.26
-5 14 -7 8.58 1.23
-5 -14 7 8.23 1.13
5 -14 -7 8.71 0.63
-14 -7 5 7.26 0.97
-14 -8 -5 8.62 1.23
-5 14 8 8.48 1.2
5 14 -8 6.16 1.09
-5 -14 -8 8.07 1
5 14 -8 6.4 0.99
-14 8 -5 7.67 0.86
-5 -14 8 7.99 1.17
5 14 8 6.64 1.05
-14 -8 5 6.44 0.98
-5 14 -8 7.97 1.22
-5 14 -8 6.57 1.2
5 14 -9 1.1 0.82
-5 -14 -9 -0.07 0.73
5 14 -9 0.12 0.94
-14 -9 -5 1.5 0.94
-5 14 9 1.02 1.01
-14 -9 5 1.79 0.95
-5 -14 9 1.06 0.99
-5 14 -9 0.44 1.02
-5 14 -9 1.68 1.05
5 14 9 -0.2 0.8
5 14 -10 -0.51 0.95
5 14 -10 0.82 0.99
-5 -14 -10 0.12 0.77
-14 -10 -5 -0.04 1.03
-5 14 10 0.37 1.04
-14 10 -5 0.4 0.66
-5 -14 10 -0.52 0.99
-14 -10 5 -0.4 1
-5 14 -10 -0.18 1.02
5 14 10 1.21 0.96
-5 14 -10 -0.74 1.01
5 14 -11 -0.7 0.88
-5 14 11 0.52 1.11
-5 -14 -11 0.86 0.79
5 14 -11 -0.32 0.97
-5 14 -11 1.14 1.14
-14 -11 5 2.47 1.2
-5 14 -11 -0.47 1.13
5 14 11 0.99 1.01
-14 11 -5 0.95 0.71
5 14 -12 -0.38 1.13
-5 14 12 2.34 1.29
5 14 -12 1.48 1.13
-5 14 -12 0.05 1.25
5 14 12 2.44 1.11
-14 12 -5 0.88 0.82
-5 14 -12 1.89 1.21
5 14 -13 6.14 1.46
5 14 -13 11.67 1.51
-5 14 13 11.4 1.63
-5 14 -13 8.8 1.56
5 14 13 9.13 1.43
-14 13 -5 11.43 1.37
-5 14 -13 8.18 1.89
-6 14 0 6.72 1.05
6 14 0 6.08 0.86
-6 14 0 9.3 1.17
-6 -14 0 7.43 0.97
6 14 0 8.38 0.93
0 -6 -14 6.22 0.8
-6 14 1 0.14 0.84
6 14 -1 0.21 0.61
-1 -6 -14 -0.24 0.45
-6 14 1 1.22 0.88
-6 -14 -1 -0.16 0.61
6 14 -1 -0.64 0.62
6 14 1 0.29 0.62
6 14 1 -0.75 0.56
-6 14 -1 0.31 0.82
-1 -6 14 1.42 0.67
-6 14 -1 -0.09 0.83
-6 -14 1 0.93 0.72
-6 -14 -2 4.05 0.76
-6 14 2 2.76 0.93
6 14 -2 2.55 0.77
-6 14 2 4.08 1.01
6 14 -2 3.77 0.76
-2 -6 -14 2.55 0.64
6 14 2 1.69 0.72
6 14 2 3.24 0.75
-2 -6 14 3.15 0.81
6 -14 -2 2.58 0.4
-6 14 -2 2.22 0.88
-6 -14 2 2.43 0.81
-6 14 -2 2.17 0.94
-6 14 3 0.01 1.72
6 14 -3 0.04 0.64
6 14 -3 1.24 0.73
-6 14 3 -0.1 0.89
-14 -3 -6 -0.46 0.75
-3 -6 -14 0.56 0.5
-6 -14 -3 -0.51 0.6
-6 14 -3 -0.44 0.89
6 14 3 -0.02 0.6
-6 14 -3 0.59 0.9
6 -14 -3 0.09 0.32
6 14 3 -1.12 0.59
-6 -14 3 -0.09 0.74
6 14 -4 7.79 0.99
-6 14 4 8.06 1.09
-14 -4 -6 8.38 1.03
6 14 -4 7.64 0.97
-6 -14 -4 6.98 0.94
-4 -6 -14 8.01 0.93
-4 -6 14 6.18 0.85
-6 14 -4 8.01 1.11
6 14 4 8.74 0.99
-6 14 -4 7.01 1.1
-6 -14 4 7.82 0.99
6 -14 -4 8.18 0.6
-14 -5 -6 4.5 0.91
-5 -6 -14 5.18 0.79
-6 -14 -5 3.45 0.82
-6 14 5 4.67 1
6 14 -5 6.32 0.84
6 14 -5 4.76 0.93
-6 -14 5 4.77 0.96
-5 -6 14 3.47 0.75
-6 14 -5 4.6 1.01
6 -14 -5 3.96 0.43
-6 14 -5 4.04 1.08
6 14 5 4.63 0.92
-6 -14 -6 6.92 0.97
-6 -6 -14 8.11 1.52
6 14 -6 8.94 1.08
-14 -6 -6 7.3 1.08
-6 14 6 7.01 1.12
6 14 -6 8.24 1.01
6 14 6 6.94 0.99
-6 14 -6 7.3 1.12
-14 -6 6 6.04 0.71
-14 6 -6 6.94 1.08
-6 14 -6 6.08 1.12
6 -14 -6 8.74 0.61
-6 -6 14 6.5 0.79
-6 -14 6 6.04 1.09
6 14 -7 0.14 0.71
-7 -6 -14 -0.72 0.63
-6 -14 -7 0.44 0.66
-6 14 7 0.43 0.93
-14 -7 -6 0.65 0.88
6 14 -7 -0.91 0.79
-14 7 -6 -0.34 0.66
-6 14 -7 0.61 0.88
6 14 7 0.14 0.65
-6 -14 7 0.12 0.84
-6 14 -7 0.13 0.87
-14 -7 6 0.27 0.7
-6 14 8 2.61 1.14
-14 -8 -6 1.83 0.98
-6 -14 -8 3.93 0.89
-8 -6 -14 2.58 0.85
6 14 -8 3.02 0.98
6 14 -8 3.23 0.88
-14 8 -6 2.8 0.93
-6 14 -8 2.62 1.05
-6 -14 8 2.6 1.03
-14 -8 6 1.86 0.86
-6 14 -8 2.49 1.08
6 14 8 3.05 0.97
-6 14 9 0.96 1.09
6 14 -9 -0.78 0.94
6 14 -9 1.4 0.82
-9 -6 -14 1.1 0.87
-14 -9 -6 0.77 1.02
-6 -14 -9 0.56 0.78
-14 -9 6 0.96 0.99
-14 9 -6 -0.55 0.57
-6 -14 9 0.14 0.99
6 14 9 0.93 0.9
-6 14 -9 -0.12 1.05
-6 14 -9 0.79 1.05
-6 14 10 1.61 1.13
6 14 -10 1.15 1.07
6 14 -10 0.36 0.85
-6 -14 -10 0.49 0.87
-6 14 -10 -0.11 1
-6 14 -10 0.87 1.03
-6 -14 10 0.2 1.03
6 14 10 0.32 0.87
-14 10 -6 1.97 0.71
-14 -10 6 -0.33 1.1
6 14 -11 0.72 0.99
6 14 -11 -1 0.95
-6 14 11 -0.29 1.09
-14 11 -6 -0.87 0.75
-6 14 -11 1.74 1.19
6 14 11 0.52 0.97
-14 -11 6 0.31 1.23
-6 14 -11 -1.64 1.58
6 14 -12 2.47 1.04
6 14 -12 2.12 1.18
-6 14 12 1.64 1.2
-6 14 -12 1.49 1.3
-14 12 -6 3.31 0.93
6 14 12 1.8 1.08
-6 14 -12 1.75 1.27
6 14 -13 0.59 1.19
6 14 -13 -0.65 0.97
-6 14 13 -1.36 1.26
-6 14 -13 -0.03 1.23
-6 14 -13 -1.02 1.25
-14 13 -6 -0.69 0.94
-7 -14 0 0.02 0.7
7 14 0 -0.16 0.55
0 -7 -14 -0.07 0.37
-7 14 0 -0.99 0.85
-7 14 0 0.35 0.79
7 14 0 0.12 0.56
-7 14 1 12.72 1.26
7 14 -1 13.27 1.03
-7 -14 -1 12.92 1.28
7 14 -1 13.56 1.04
-7 14 1 14.35 1.31
-7 14 -1 13.28 1.27
-1 -7 14 11.23 1.25
-7 14 -1 13.11 1.3
-7 -14 1 11.34 1.29
7 14 1 14.19 1
7 14 1 12.8 1.01
1 -7 -14 11.1 0.85
-7 -14 -2 3.05 0.81
-7 14 2 2.51 0.93
-2 -7 -14 1.99 0.58
-7 14 2 2.19 0.92
7 14 -2 1.93 0.65
7 14 -2 2.05 0.65
-2 -7 14 2.67 0.75
7 14 2 2.83 0.72
-7 14 -2 2.67 0.91
7 14 2 4.27 0.71
-7 -14 2 3.69 0.88
-7 14 -2 1.89 0.93
-14 -3 -7 0.71 0.73
7 14 -3 -0.79 0.53
7 14 -3 -0.35 0.57
-3 -7 -14 0.6 0.57
-7 -14 -3 0.66 0.68
-7 14 3 -0.94 0.78
-7 14 3 0.87 0.81
-7 14 -3 1.39 0.85
7 -14 -3 0.76 0.33
7 14 3 1.12 0.6
-7 -14 3 0.17 0.79
7 14 3 0.57 0.62
-7 14 -3 -0.25 0.85
-3 -7 14 0.21 0.73
-14 -4 -7 21.57 1.61
-7 -14 -4 22.02 1.53
7 14 -4 21.61 1.33
7 14 -4 19.27 1.19
-7 14 4 20.35 1.47
-4 -7 -14 20.76 1.32
-7 14 -4 18.92 1.49
-7 14 -4 21.12 1.6
7 14 4 20.1 1.24
-4 -7 14 19.23 1.41
7 -14 -4 19.93 0.92
-7 -14 4 21.55 1.63
7 14 -5 9 1.01
7 14 -5 8.6 0.99
-5 -7 -14 7.98 0.94
-14 -5 -7 8.72 1.11
-7 -14 -5 9.04 1.07
-7 14 5 10.43 1.25
7 14 5 8.35 0.99
7 -14 -5 8.93 0.74
-7 -14 5 10.36 1.33
-5 -7 14 7.54 0.97
-14 5 -7 8.83 1.08
-7 14 -5 10.51 1.24
-7 14 -5 8.19 1.17
-7 -14 -6 0.21 0.76
-14 -6 -7 0.65 0.87
7 14 -6 0.33 0.65
7 14 -6 0.59 0.69
-7 14 6 0.95 0.97
-6 -7 -14 0.85 0.67
-6 -7 14 -0.84 0.88
-7 14 -6 -0.34 0.85
-14 6 -7 0.09 0.66
7 14 6 0.19 0.64
-7 -14 6 -0.41 0.83
-7 14 -6 -0.12 0.94
-14 -7 -7 27.86 1.85
-7 14 7 31.32 1.86
7 14 -7 28.68 1.53
-7 -14 -7 28.68 1.82
-7 -7 -14 30.19 1.76
7 14 -7 25.06 1.56
-7 -14 7 31.25 2
-7 14 -7 26.41 1.75
-7 -7 14 27.64 2
-14 7 -7 28.62 1.54
-7 14 -7 27.9 1.73
7 14 7 24.09 1.51
-14 -8 -7 2.1 1.02
7 14 -8 -0.45 0.74
7 14 -8 0.91 0.67
-7 -14 -8 -1.55 0.68
-7 14 8 -1.09 0.92
-8 -7 -14 0.26 0.85
-14 8 -7 0.37 0.65
-7 14 -8 0.46 1.1
-7 14 -8 0 0.94
-7 -14 8 2.3 0.98
7 14 8 -0.63 0.79
-7 -14 -9 11.17 1.25
7 14 -9 12.12 1.42
-7 14 9 13.86 1.52
-9 -7 -14 13.51 1.53
-14 -9 -7 14.43 1.68
7 14 -9 13.17 1.18
-7 -14 9 11.66 1.35
-14 9 -7 12 1.08
-7 14 -9 11.09 1.41
-7 14 -9 12.78 1.42
7 14 9 11.8 1.39
7 14 -10 10.13 1.23
-7 14 10 12.35 1.53
7 14 -10 11.66 1.32
7 14 10 11.91 1.39
-7 14 -10 12.26 1.48
-7 14 -10 10.76 1.48
-14 10 -7 10.38 1.15
7 14 -11 3.72 1.02
11 7 -14 1.48 0.63
-7 14 11 2.22 1.26
7 14 -11 0.96 1.03
-7 14 -11 3.51 1.26
-7 14 -11 1.87 1.21
7 14 11 2.7 1.07
-14 11 -7 3.24 0.91
7 14 -12 1.85 1.24
-7 14 12 0.46 1.22
7 14 -12 1.64 0.94
-7 14 -12 1.76 1.21
7 14 12 -0.23 1.02
-14 12 -7 1.11 0.94
7 14 -13 0.88 1.15
7 14 -13 1.2 1.03
-7 14 13 2.41 1.35
-13 7 -14 -0.05 1.1
-14 13 -7 4.13 1.15
-7 14 -13 0.37 1.34
-7 14 -13 2.95 1.43
8 14 0 12.16 0.98
0 -8 -14 12.29 0.98
0 -8 14 13.56 1.45
-8 14 0 10.45 1.22
-8 14 0 12.77 1.4
8 14 0 12.45 0.94
-8 -14 0 14.24 1.44
8 14 -1 3.79 0.74
8 14 -1 5.79 0.7
-8 -14 -1 4.75 0.98
-1 -8 -14 4.8 0.76
-8 14 1 3.79 0.92
-8 14 1 4.65 1.05
8 14 1 5.95 0.81
8 14 1 3.31 0.66
-8 14 -1 5.84 1.01
1 -8 -14 4.68 0.59
-8 14 -1 5.55 0.98
-1 -8 14 5.23 0.91
-8 -14 1 5.71 1.04
8 14 -2 17.68 1.09
-8 14 2 17.74 1.43
8 14 -2 15.75 1.13
-8 14 2 18.16 1.38
-2 -8 -14 17.6 1.17
-8 -14 -2 14.61 1.38
-8 14 -2 19.27 1.43
-8 -14 2 17.18 1.6
8 14 2 21.15 1.15
-8 14 -2 17.94 1.39
-2 -8 14 16.31 1.42
8 14 2 17.11 1.11
2 -8 -14 17.46 0.96
8 14 -3 127.66 3.96
-8 14 3 124.26 4.09
-8 14 3 126.31 4.12
-3 -8 -14 130.44 4.07
-8 -14 -3 131.77 4.27
8 14 -3 127.08 3.91
-8 -14 3 130.83 4.29
8 -14 -3 124.18 3.74
-8 14 -3 127.19 4.12
-8 14 -3 126.67 4.09
8 14 3 127.88 3.96
-14 -4 -8 5.97 1.05
-4 -8 -14 4.1 0.8
-8 -14 -4 5.39 0.98
8 14 -4 3.73 0.75
8 14 -4 4.84 0.82
-8 14 4 5.77 1.02
-14 4 -8 4.68 0.84
-4 -8 14 4.24 0.89
-8 14 -4 5.32 1.04
8 14 4 6.46 0.86
-8 14 -4 5.34 1.09
-8 -14 4 6.85 1.17
-8 14 5 7.75 1.13
-8 -14 -5 7.23 1.1
8 14 -5 8.26 0.97
-14 -5 -8 6.98 1.11
8 14 -5 7.19 0.86
-5 -8 -14 8.4 1.11
8 14 5 7.15 0.93
-14 5 -8 7.46 0.83
-8 14 -5 7.72 1.12
-8 -14 5 8.62 1.18
-5 -8 14 7.54 1.02
-8 14 -5 7.31 1.21
-8 14 6 2.57 0.96
-8 -14 -6 4.31 0.92
8 14 -6 3.31 0.77
-6 -8 -14 2.55 0.8
8 14 -6 4.85 0.74
-14 -6 -8 1.52 0.89
-6 -8 14 3.77 0.92
-8 -14 6 5.11 1.12
8 14 6 2.38 0.73
-8 14 -6 2.03 1.11
-8 14 -6 4.35 1.01
-14 6 -8 2.72 0.99
-14 -7 -8 1.68 1.06
8 14 -7 0.34 0.64
-7 -8 -14 -0.1 0.73
-8 -14 -7 1.39 0.81
-8 14 7 -0.67 0.91
8 14 -7 0.27 0.65
-8 14 -7 -0.87 0.99
-8 14 -7 0.26 0.92
-8 -14 7 1.02 0.95
-7 -8 14 0.34 0.96
8 14 7 -1.21 0.57
-14 7 -8 -1.03 0.62
8 14 -8 59.61 2.35
-8 -14 -8 62.23 2.7
8 14 -8 59.54 2.44
-8 14 8 61.11 2.62
-8 14 -8 60.95 2.65
8 14 8 62.27 2.42
-8 -14 8 62.59 2.82
-14 8 -8 61.56 2.15
-8 14 -8 59.65 2.58
-8 14 9 4.67 1.19
8 14 -9 4.64 1.02
8 14 -9 6.1 0.96
-8 14 -9 5.09 1.19
-8 -14 9 6.15 1.96
-14 9 -8 6.36 0.85
-8 14 -9 5.64 1.34
8 14 9 5.19 1.1
-8 14 10 -0.41 1.08
10 8 -14 0.31 0.67
8 14 -10 0.38 0.96
8 14 -10 1 1.19
-14 10 -8 2.48 0.83
-8 14 -10 1.89 1.1
8 14 10 1.89 0.89
-8 14 -10 -0.1 1.15
8 14 -11 14.13 1.42
11 8 -14 15.62 1.15
-8 14 11 14.67 1.69
8 14 -11 14.13 1.49
8 14 11 12.88 1.54
-8 14 -11 15.4 1.71
-8 14 -11 13.77 1.61
-14 11 -8 14.33 1.43
-8 14 12 2.72 1.21
8 14 -12 1.03 1.35
8 14 -12 0.67 0.97
-8 14 -12 0.07 1.31
-12 8 -14 0.18 1.14
-14 12 -8 1.77 1.01
-12 8 -14 0.16 1.11
-8 14 -12 0.55 1.26
8 14 -13 22.03 1.7
8 14 -13 15.25 1.87
-13 8 -14 16.78 1.74
-8 14 -13 19.99 1.95
-14 13 -8 23.73 2.28
-8 14 -13 23.11 2.04
-9 -14 0 27.57 1.73
9 14 0 28.37 1.32
0 -9 -14 26.36 1.6
0 -9 14 24.97 1.71
-9 14 0 26.49 1.58
9 14 0 27.14 1.31
-9 14 0 30.62 1.66
-9 -14 -1 5.24 1.04
-9 14 1 4.55 0.97
9 14 -1 5.42 0.71
9 14 -1 5.82 0.75
-1 -9 -14 4.89 0.68
-9 14 1 6.28 1.01
-9 14 -1 4.16 1
-9 14 -1 5.8 1.1
9 14 1 5.1 0.73
9 14 1 6.34 0.73
1 -9 -14 4.06 0.62
-9 -14 1 4.47 0.98
-1 -9 14 2.41 0.91
-9 14 2 2.51 0.89
-9 14 2 2.96 1.02
9 14 -2 2.12 0.58
9 14 -2 2.82 0.63
-9 -14 -2 2.27 0.87
-2 -9 -14 1.82 0.59
-2 -9 14 4.49 0.94
-9 14 -2 2.97 0.91
2 -9 -14 1.01 0.45
-9 14 -2 3.51 1
9 14 2 3.25 0.63
9 14 2 3.57 0.7
-9 -14 2 2.09 0.96
-9 14 3 11.73 1.21
-9 -14 -3 12.04 1.34
9 14 -3 13.98 1
-3 -9 -14 11.12 1.11
9 14 -3 11.41 0.98
-9 14 -3 12.01 1.41
-9 -14 3 12.11 1.44
-9 14 -3 13.18 1.42
-3 -9 14 13.16 1.49
9 14 3 11.77 1.05
-14 3 -9 9.63 0.97
3 -9 -14 13.66 1.03
9 14 -4 38.52 1.68
-9 -14 -4 42.92 2.16
-14 -4 -9 44.21 2.1
9 14 -4 37.59 1.64
-9 14 4 40.96 1.97
-9 -14 4 39.7 2.17
-9 14 -4 36.6 1.91
9 14 4 38.24 1.68
-14 4 -9 39.24 1.69
-9 14 -4 37.86 1.91
9 14 -5 0.91 0.63
-9 -14 -5 -0.12 0.81
-5 -9 -14 -0.2 0.74
-14 -5 -9 1.2 0.83
-9 14 5 1.74 0.87
9 14 -5 -0.86 0.54
-14 5 -9 1.24 0.97
-9 -14 5 0.3 0.93
-9 14 -5 0.39 0.91
-9 14 -5 1.26 0.9
9 14 5 0.58 0.67
-5 -9 14 -0.65 0.9
-9 -14 -6 0.18 0.93
-9 14 6 2.12 0.95
9 14 -6 0.05 0.65
9 14 -6 0.71 0.55
-14 -6 -9 0.31 0.96
-6 -9 -14 0.55 0.82
-14 6 -9 0.23 0.59
-9 -14 6 -1.04 0.9
-9 14 -6 1.01 0.97
-6 -9 14 0.84 0.98
9 14 6 -1.21 0.58
-9 14 -6 0.09 0.95
9 14 -7 12.15 1
-9 14 7 9.52 1.26
9 14 -7 9.93 1.13
-7 -9 -14 13.44 1.34
-14 -7 -9 12.19 1.41
-9 -14 -7 10.36 1.31
-14 7 -9 12.13 1.06
9 14 7 9.81 1.05
-9 -14 7 8.75 1.31
-9 14 -7 10.61 1.37
-9 14 -7 12.92 1.44
-7 -9 14 11.44 1.36
9 14 -8 6.67 0.94
-9 14 8 6.2 1.17
9 14 -8 6.36 1.04
-9 14 -8 5.61 1.16
-9 -14 8 9.83 2.28
9 14 8 4.77 0.96
-14 8 -9 5.92 0.83
-9 14 -8 5.25 1.19
9 14 -9 0.09 0.89
9 9 -14 0.74 0.76
9 14 -9 0.07 0.67
-9 14 9 0.52 1.08
-14 9 -9 -0.21 0.75
-9 14 -9 0.1 1.08
-9 14 -9 1.04 1.08
9 14 9 2.02 0.9
9 14 -10 0.8 0.79
10 9 -14 1.38 0.79
-9 14 10 1.86 1.09
9 14 -10 0.77 0.94
9 14 10 1.64 0.95
-14 10 -9 0.87 0.87
-9 14 -10 -0.36 1.16
-9 14 -10 1.95 1.2
-10 9 -14 2.68 1.17
11 9 -14 10.76 1.08
9 14 -11 8.98 1.33
-9 14 11 8.92 1.38
9 14 -11 7.82 1.15
-9 14 -11 7.93 1.76
-14 11 -9 8.44 1.15
-11 9 -14 8.68 1.35
-11 9 -14 7.26 1.35
-9 14 -11 10.35 1.48
-9 14 12 5.47 1.43
9 14 -12 7.41 1.11
9 14 -12 6.96 1.33
-12 9 -14 5.93 1.32
-9 14 -12 4.62 1.51
-14 12 -9 7.41 1.3
-12 9 -14 5.65 1.51
-9 14 -12 7.78 1.56
9 14 -13 -0.76 1.16
9 14 -13 0.82 1.01
-13 9 -14 -0.28 1.25
-9 14 -13 0.32 1.4
10 14 0 7.4 0.84
-10 14 0 7.75 1.05
-10 -14 0 9.11 1.23
-10 14 0 7.38 1.11
0 -10 -14 9 0.95
10 14 0 6.95 0.78
0 -10 14 7.36 1.08
1 -10 14 12.73 1.36
-10 -14 -1 8.87 1.22
10 14 -1 11.21 0.89
-10 14 1 11.74 1.2
10 14 -1 10.74 0.85
-10 14 1 11.54 1.26
-1 -10 -14 11.66 1.09
-10 14 -1 9.71 1.15
10 14 1 10.3 0.9
1 -10 -14 8.29 1.21
-1 -10 14 11.44 1.38
10 14 1 9.77 0.83
-10 -14 1 12.23 1.47
-10 14 -1 10.01 1.17
10 14 -2 1.85 0.58
-10 -14 -2 0.26 0.89
10 14 -2 0.32 0.5
-10 14 2 -0.86 0.81
-2 -10 -14 1.06 0.63
-10 -14 2 0.49 0.91
-2 -10 14 1.55 0.95
-10 14 -2 1.8 0.91
10 14 2 1.35 0.54
-10 14 -2 1.07 0.94
10 14 -3 0.62 0.5
10 14 -3 -0.05 0.53
-10 14 3 0.66 0.8
-10 -14 -3 1.19 0.92
-3 -10 -14 0.5 0.67
-10 -14 3 1.24 0.98
-10 14 -3 4.32 1.02
10 14 3 0.57 0.51
-10 14 -3 0.35 0.82
-3 -10 14 -0.08 0.89
-4 -10 -14 18.59 1.4
-10 -14 -4 12.49 1.46
10 14 -4 14.87 1.08
10 14 -4 16.88 1.02
-10 14 4 16.44 1.35
-10 -14 4 16.9 1.58
-10 14 -4 18.09 1.41
-14 4 -10 13.22 1.08
-4 -10 14 13.3 1.61
10 14 4 17.27 1.1
-10 14 -4 14.78 1.47
-10 14 5 -1.31 0.87
10 14 -5 0.59 0.58
-5 -10 -14 0.23 0.75
-10 -14 -5 -1.44 0.87
10 14 -5 0.22 0.51
-14 -5 -10 -0.39 0.94
-5 -10 14 1.23 1.04
10 14 5 -0.71 0.57
-10 14 -5 -0.06 0.94
-10 14 -5 -0.25 0.89
-14 5 -10 -0.62 0.64
-10 -14 5 -0.7 0.91
10 14 -6 0.76 0.63
10 14 -6 1.6 0.61
-6 -10 -14 -1.64 0.83
-10 14 6 0.82 0.95
-6 -10 14 -0.37 1.1
10 14 6 0.15 0.61
-14 6 -10 -0.5 0.67
-10 -14 6 1.46 1.1
-10 14 -6 1.3 1.05
-10 14 -6 0.43 0.95
-10 14 7 11.53 1.35
7 10 -14 10.03 1.24
10 14 -7 10.25 1.06
10 14 -7 11.09 1
-14 7 -10 9.01 0.99
10 14 7 12.14 1.08
-10 14 -7 14.03 1.62
-7 -10 14 11.7 1.43
-10 14 -7 12.66 1.54
10 14 -8 1.33 0.61
10 14 -8 1.72 0.78
8 10 -14 2.7 0.95
-10 14 8 2.72 1.11
-10 14 -8 0.63 1.06
10 14 8 0.63 0.8
-10 14 -8 1.54 1.39
-14 8 -10 2.07 0.79
-8 10 -14 0.9 1.14
10 14 -9 2.46 0.79
10 14 -9 2.44 0.9
9 10 -14 1.88 0.88
-10 14 9 3.25 1.23
-10 14 -9 2.08 1.11
10 14 9 1.8 0.78
-9 10 -14 1.03 1.16
-10 14 -9 0.03 1.05
-14 9 -10 1.92 0.91
10 10 -14 12.32 1.28
10 14 -10 18.35 1.31
10 14 -10 13.38 1.44
-10 14 10 13.6 1.57
-14 10 -10 13.11 1.47
-10 14 -10 15.84 1.64
-10 14 -10 13.43 1.64
-10 10 -14 11.13 1.56
-10 10 -14 14.78 1.66
10 14 -11 -1.98 1.35
-10 14 11 1.53 1.2
11 10 -14 1.27 0.79
10 14 -11 0.74 0.87
-14 11 -10 -0.52 1.03
-11 10 -14 -0.83 1.38
-10 14 -11 -1.1 1.38
-11 10 -14 -1.85 1.12
-10 14 -11 1.89 1.22
10 14 -12 0.6 0.89
10 14 -12 -3.04 1.05
-12 10 -14 -0.3 1.3
-10 14 -12 0.55 1.4
-10 14 -12 0.96 1.35
10 14 -13 -0.01 1.16
-10 14 -13 4.57 1.54
-10 14 -13 2.02 1.47
0 -11 14 4.08 0.97
-11 14 0 2.98 0.9
11 14 0 6.32 0.77
-11 -14 0 1.74 0.99
11 14 0 3.93 0.58
-11 14 0 1.03 0.86
0 -11 -14 3.86 0.65
11 14 -1 2.2 0.54
11 14 -1 0.18 0.49
-11 14 1 0.02 0.81
1 -11 14 0.66 0.87
-1 -11 -14 0.74 0.68
-11 -14 -1 -1.17 0.98
-1 -11 14 0.36 0.97
-11 -14 1 0.4 0.98
-11 14 -1 1.02 0.93
11 14 1 0.14 0.5
-11 14 -1 1.91 0.86
11 14 -2 12.67 0.86
-11 14 2 11.81 1.33
-11 -14 -2 12.64 1.54
11 14 -2 13.68 0.89
-11 14 -2 11.19 1.22
-2 -11 14 10.58 1.33
11 14 2 12.76 0.91
-11 14 -2 11.67 1.4
-11 -14 2 11.2 1.4
-11 -14 -3 16.42 1.88
11 14 -3 16.99 0.97
11 14 -3 19.82 1.02
-11 14 3 17.12 1.47
-11 14 -3 14.72 1.56
11 14 3 15.92 1.03
-11 -14 3 18.55 1.8
-3 -11 14 13.53 1.72
-11 14 -3 14.96 1.49
11 14 -4 3.58 0.6
11 14 -4 1.74 0.57
-4 -11 -14 2.64 0.94
4 11 -14 1.64 1.07
-11 14 4 3.79 0.97
11 14 4 3.5 0.6
-11 14 -4 1.82 0.99
-11 -14 4 0.04 1.13
-11 14 -4 2.11 0.96
-4 -11 14 2.97 1.16
-11 14 5 1.13 0.86
5 11 -14 -0.01 0.93
-5 -11 -14 2.93 0.87
11 14 -5 1.02 0.5
11 14 -5 0.28 0.57
-11 14 -5 2.22 1.01
-5 -11 14 1.81 1.22
-5 11 -14 -0.44 1.09
11 14 5 -0.12 0.58
-11 14 -5 -0.37 0.92
-14 5 -11 0.08 0.72
-11 14 6 1.57 0.94
11 14 -6 0.26 0.52
11 14 -6 0.26 0.66
6 11 -14 -0.57 0.95
-6 -11 14 -0.74 1.24
-6 11 -14 1.12 1.18
-11 14 -6 -0.06 0.97
-11 14 -6 -0.55 0.94
11 14 6 0.66 0.59
-14 6 -11 -1.48 0.74
-11 14 7 1.42 0.99
7 11 -14 2.68 1
11 14 -7 3.78 0.77
11 14 -7 2.97 0.65
-7 11 -14 1.91 1.18
-11 14 -7 2.42 1.08
-14 7 -11 1.42 0.87
-11 14 -7 2.84 1.13
11 14 7 2.13 0.73
-7 -11 14 2.59 1.87
11 14 -8 10.39 1.23
8 11 -14 12.81 1.43
-11 14 8 15.04 1.56
11 14 -8 12.59 1.05
11 14 8 14.06 1.15
-11 14 -8 13.11 1.47
-11 14 -8 13.47 1.46
-14 8 -11 11.59 1.34
-8 11 -14 12.98 1.56
11 14 -9 10.68 1.16
9 11 -14 7.74 1.1
11 14 -9 10.94 1.04
-11 14 9 8.16 1.29
-9 11 -14 7.95 1.5
-9 11 -14 7.48 1.47
-11 14 -9 6.5 1.32
-14 9 -11 7.04 1.16
-11 14 -9 7.8 1.42
-11 14 10 0.63 1.1
11 14 -10 -0.3 0.77
10 11 -14 -2.05 0.81
11 14 -10 0.96 1.11
-14 10 -11 1.48 1.09
-10 11 -14 -0.52 1.83
-10 11 -14 0.15 1.2
-11 14 -10 1.32 1.22
11 14 -11 3.35 0.83
11 11 -14 0.19 0.75
11 14 -11 0.86 1
-11 14 -11 1.51 1.32
-11 11 -14 2.89 1.36
-11 11 -14 0.55 1.37
-11 14 -11 -0.13 1.37
11 14 -12 -1.99 1.13
11 14 -12 -0.46 0.99
12 11 -14 -2.19 1
-11 14 -12 -0.43 1.54
-11 14 -12 -0.48 1.37
11 14 -13 5.78 1.26
-11 14 -13 4.14 1.5
-11 14 -13 4.5 1.82
-13 11 -14 6.03 1.55
-12 14 0 0.42 0.83
0 12 -14 1.75 1.16
1 12 -14 -1.33 1.09
-1 -12 -14 -0.12 0.74
-12 14 1 1.32 0.87
-1 12 -14 0.11 1.19
-12 14 -1 1.3 0.92
-12 14 -1 1.3 0.84
12 14 1 0.3 0.48
2 12 -14 3.82 1.31
-12 14 2 7 1.04
12 14 -2 8.78 0.73
-2 -12 -14 5.79 0.89
-12 14 -2 5.14 1.03
-12 14 -2 5.78 1.14
12 14 2 7.82 0.76
-2 12 -14 4.38 1.27
-3 -12 -14 8.7 1.05
12 14 -3 9.91 0.76
3 12 -14 8.87 1.38
-12 14 3 9.09 1.13
12 14 -3 10.23 0.78
12 14 3 7.76 0.79
-3 12 -14 6.28 1.42
-12 14 -3 7.64 1.14
-12 14 -3 6.78 1.13
12 14 -4 20.21 1.04
12 14 -4 21.01 0.98
4 12 -14 13.39 1.64
-12 14 4 19.38 1.52
-12 14 -4 17.96 1.5
12 14 4 22.09 1.1
-12 14 -4 17.1 1.56
-4 12 -14 18.03 1.84
-12 14 5 3.68 1.02
12 14 -5 2.98 0.59
5 12 -14 3.27 1.21
-14 5 -12 0.23 0.86
-12 14 -5 1.34 1.02
12 14 5 2.97 0.6
-5 12 -14 2.59 1.31
-12 14 -5 1.88 0.94
6 12 -14 0.44 1.01
12 14 -6 2.77 0.65
-12 14 6 2.21 0.97
-14 6 -12 2.73 0.91
-12 14 -6 2.38 1.01
-12 14 -6 3.22 1.08
12 14 6 3.42 0.7
-6 12 -14 3.12 1.4
-12 14 7 1.25 0.98
12 14 -7 2.33 0.73
7 12 -14 1.88 0.93
-7 12 -14 1.72 1.2
-12 14 -7 1.44 0.98
-12 14 -7 1.97 1.17
-14 7 -12 1.29 0.92
-7 12 -14 1.85 1.99
12 14 7 2.55 0.67
8 12 -14 2.18 1
12 14 -8 3.39 0.83
-12 14 8 1.86 1.09
-12 14 -8 1.98 1.22
-12 14 -8 2.87 1.16
-8 12 -14 3.06 2.07
-8 12 -14 1.02 1.38
-14 8 -12 2.22 1.01
-12 14 9 5.15 1.22
12 14 -9 9.32 1.13
9 12 -14 5.17 1.07
-9 12 -14 4.77 1.37
-9 12 -14 6.66 1.46
-14 9 -12 5.24 1.19
-12 14 -9 7.38 1.37
-12 14 -9 7.72 1.78
10 12 -14 -1.33 0.83
10 12 -14 -1.54 1.16
12 14 -10 -1.55 0.93
-10 12 -14 0.05 1.37
-12 14 -10 0.02 1.31
-12 14 -10 -1.12 1.37
-10 12 -14 -1.71 1.28
11 12 -14 0.4 1.2
-11 12 -14 0.13 1.52
-11 12 -14 0.4 1.52
-12 14 -11 2.35 1.71
-12 14 -12 8.32 1.67
-12 12 -14 7.99 1.61
-12 14 -13 5.63 1.7
-13 12 -14 2.96 1.64
0 13 -14 1.25 1.19
0 13 14 0.79 1.2
-13 14 0 -0.34 0.83
-13 14 1 1.9 0.91
1 13 -14 3.38 1.3
-1 13 14 1.81 1.23
-13 14 -1 1.63 0.89
-1 13 -14 1.05 1.21
2 13 -14 7.2 1.39
-2 13 14 7.23 1.44
-13 14 2 6.07 1
-2 13 -14 4.98 1.34
-13 14 -2 7.01 1.08
-13 14 -2 5.53 0.98
-13 14 3 13.64 1.34
3 13 -14 15.26 1.69
-13 14 -3 15.68 1.42
-13 14 -3 15.09 1.52
-3 13 -14 14.19 1.63
-13 14 4 2.44 0.92
4 13 -14 1.95 1.13
-13 14 -4 2.83 0.97
-4 13 -14 1.71 1.26
-13 14 -4 2.31 1.03
-13 14 5 12.16 1.22
5 13 -14 8.44 1.37
-13 14 -5 13.25 1.45
-14 5 -13 10.34 1.2
-5 13 -14 9.26 1.93
-13 14 -5 12.97 1.37
-5 13 -14 10.77 1.62
-13 14 6 0.08 0.98
6 13 -14 -0.13 0.99
-6 13 -14 1.35 1.27
-13 14 -6 1.94 1.01
-6 13 -14 -1.39 1.3
-13 14 -6 -0.21 1.12
-14 6 -13 1.07 0.99
7 13 -14 2.12 1.08
-13 14 7 0.34 1.07
-13 14 -7 2.61 1.25
-7 13 -14 2.15 1.29
-13 14 -7 -0.06 1.09
-7 13 -14 1.69 1.29
-14 7 -13 -0.49 1.01
8 13 -14 20.59 1.65
8 13 -14 24.43 2
-13 14 -8 22.65 1.88
-14 8 -13 20.17 1.99
-8 13 -14 23.57 2.06
-8 13 -14 17.72 2
9 13 -14 -2.15 1.01
9 13 -14 -0.14 1.12
-9 13 -14 -1.37 1.38
-13 14 -9 0.91 1.27
10 13 -14 1.69 1.09
-10 13 -14 0.9 1.55
-10 13 -14 4.95 1.56
11 13 -14 5.27 1.37
-13 14 -11 5.96 1.58
-11 13 -14 5.67 1.51
-11 13 -14 6.61 1.89
-12 13 -14 5.89 1.69
-13 14 -12 6.23 1.72
-13 13 -14 13.64 2.12
-13 14 -13 11.21 2.13
0 14 -14 0.91 1.28
0 14 14 0.64 1.2
1 14 -14 3.25 1.27
-1 14 14 3.4 1.43
-1 14 -14 2.22 1.27
-1 14 -14 2.09 1.29
1 14 14 4.61 1.42
2 14 -14 6.14 1.34
-2 14 14 5.4 1.4
-2 14 -14 4.74 1.46
-2 14 -14 5.77 1.45
3 14 -14 10.16 1.58
-3 14 14 12.08 1.73
-3 14 -14 12.29 1.66
-3 14 -14 11.98 1.66
-14 14 -3 13.13 2.01
4 14 -14 8.03 1.48
4 14 -14 6.54 1.43
-4 14 -14 8.97 1.62
-4 14 -14 6.57 1.51
-14 14 -4 9.32 1.61
5 14 -14 6.2 1.49
-5 14 -14 6.81 1.45
-5 14 -14 9.09 1.66
6 14 -14 0.13 1.3
6 14 -14 1.17 1.24
-6 14 -14 -0.43 1.37
-6 14 -14 -0.85 1.44
-14 6 -14 0.25 1.2
7 14 -14 0.05 1.28
7 14 -14 1.29 1.29
-7 14 -14 1.31 1.48
8 14 -14 19.02 1.83
-8 14 -14 19.6 2.22
-8 14 -14 20.94 2.11
9 14 -14 -0.31 1.31
9 14 -14 0.2 1.06
-9 14 -14 -1.28 1.51
-9 14 -14 -0.34 1.24
10 14 -14 1.94 1.32
10 14 -14 3 1.06
-10 14 -14 -0.65 1.7
-10 14 -14 4.53 1.53
11 14 -14 5.7 1.26
-11 14 -14 6.16 1.99
-11 14 -14 6.58 1.65
-12 14 -14 6.87 1.73
0 -15 0 2.84 0.66
0 15 0 2.88 0.91
0 15 0 3.66 0.88
0 -15 1 31.05 1.52
0 15 -1 28.95 1.65
0 15 -1 28.55 1.66
0 15 1 29.84 1.71
0 15 1 29.67 1.73
0 -15 -1 29.66 1.48
-1 0 15 30.02 1.14
0 15 2 18.09 1.46
-2 0 15 17.11 0.64
0 -15 -2 16.26 1.25
0 15 2 18.27 1.47
0 15 -2 17.52 1.41
0 15 -2 15.76 1.38
0 -15 2 17.39 1.26
0 15 3 10.07 1.19
0 15 3 9.87 1.19
0 15 -3 9.11 1.17
0 15 -3 9.33 1.14
0 -15 -3 8.16 1.27
0 -15 3 11.97 1.13
-15 -3 0 9.88 0.96
0 15 -4 52.84 2.31
0 15 -4 51.95 2.26
0 15 4 51.53 2.29
0 -15 4 56.02 2.25
0 15 4 53.34 2.32
0 15 -5 11.24 1.32
0 15 5 11.13 1.28
0 15 -5 10.68 1.21
-15 -5 0 11.16 1.44
0 -15 -5 9.2 1.08
0 -15 5 9.89 1.13
0 -15 6 14.13 1.23
0 15 -6 12.08 1.4
0 15 -6 12.34 1.42
0 15 6 12.55 1.42
0 -15 -6 12.7 1.06
-15 -6 0 13.91 1.37
-15 -7 0 27.72 1.74
0 15 -7 26.55 1.74
0 -15 -7 26.62 1.4
0 -15 7 30.59 1.75
0 15 7 27.2 1.78
0 15 -7 25.56 1.75
0 -15 8 -0.04 0.83
0 15 8 0.97 1.03
0 15 -8 0.87 1
-15 -8 0 -0.03 0.95
0 15 -8 0.48 0.99
0 -15 -8 1.5 0.6
-15 -9 0 26.42 1.9
0 -15 -9 17.77 1.28
0 -15 9 20.4 1.64
0 15 9 22.91 1.79
0 15 -9 20.84 1.73
0 15 -9 22.56 1.86
0 -15 -10 13.45 1.16
0 15 -10 14.53 1.74
0 -15 10 11.65 1.51
-15 -10 0 11.93 1.39
0 15 10 11.61 1.49
0 15 -10 12.09 1.46
0 15 11 2.5 1.28
0 15 -11 0.52 1.13
-15 -11 0 -0.31 1.31
0 15 -11 0 1.14
0 15 -12 26.8 2.02
0 15 -12 22.99 2.28
0 15 12 28.95 2.11
0 15 13 6.03 1.48
0 15 -13 9.92 1.59
0 15 -13 6.64 1.5
0 15 -14 4.51 1.42
0 15 14 3.41 1.47
0 15 -14 2.91 1.47
-1 15 0 29.73 1.67
1 15 0 30.21 1.68
-1 -15 0 28.66 1.48
-1 15 0 28.56 1.68
1 -15 0 29.54 1.45
1 15 0 29.44 1.65
-1 1 15 3.41 0.41
-1 15 1 3.51 0.98
-1 -15 -1 4.11 0.67
-1 15 1 3.14 0.93
1 15 -1 4.67 0.98
1 -15 1 4.66 0.74
1 15 -1 3.11 0.94
-1 15 -1 3.36 0.95
1 15 1 3.72 0.97
-1 15 -1 4.16 0.96
-1 -1 15 4.29 0.56
-1 -15 1 3.57 0.76
1 15 1 3.43 0.89
-1 15 2 17.51 1.43
1 15 -2 17.33 1.4
1 -15 2 19.45 1.19
-1 -15 -2 16.84 1.17
-1 15 2 17.83 1.41
1 15 -2 15.86 1.39
-1 -15 2 19.3 1.29
1 -15 -2 16.09 1.24
-1 15 -2 18.39 1.43
1 15 2 17.39 1.38
-2 -1 15 18.31 0.85
1 15 2 18.62 1.46
-1 15 -2 17.08 1.42
-1 -15 -3 5.5 0.68
1 15 -3 6.84 1.04
1 -15 3 5.27 0.81
1 15 -3 6.29 1.04
-1 15 3 5.64 1.03
-1 15 3 7.74 1.11
-15 -3 -1 6.04 0.77
1 15 3 7.38 1.05
1 -15 -3 7.89 0.87
1 15 3 6.2 1.05
-1 -15 3 6.74 0.94
-1 15 -3 5.56 1.06
-1 15 -3 6.27 1.05
-15 -4 -1 8.64 1.14
1 15 -4 9.33 1.16
-1 15 4 8.14 1.16
1 -15 4 9.04 1.02
1 15 -4 8.53 1.12
-1 -15 -4 9.62 0.95
-1 15 4 8.73 1.19
1 15 4 9.9 1.15
-1 15 -4 8.35 1.18
1 -15 -4 8.14 0.86
-15 -4 1 7.54 1
-1 15 -4 8.39 1.22
-1 -15 4 9.46 1.06
1 15 4 9.46 1.21
1 -15 5 13.16 1.26
-15 -5 -1 12.05 1.29
1 15 -5 12.5 1.3
-1 -15 -5 12.51 1.06
1 15 -5 11.77 1.43
-1 15 5 12.59 1.43
1 15 5 13.26 1.33
-15 -5 1 13.78 1.23
1 -15 -5 11.62 0.96
-1 15 -5 13.13 1.36
-1 -15 5 13.01 1.21
-1 15 -5 12.19 1.35
-1 -15 -6 22.61 1.31
1 15 -6 25.14 1.66
-15 -6 -1 25.5 1.63
-1 15 6 21.88 1.65
1 -15 6 22.96 1.46
1 15 -6 22.93 1.61
-1 15 -6 24.99 1.64
1 -15 -6 23.47 1.61
1 15 6 23.03 1.62
-15 -6 1 22.72 1.5
-1 15 -6 22.38 1.65
-1 -15 6 25.14 1.58
-1 15 7 1.83 1
1 -15 7 -0.62 0.77
-1 -15 -7 0.31 0.61
-15 -7 -1 -0.07 0.87
1 15 -7 -0.15 0.9
1 15 -7 0.01 0.88
-1 -15 7 1.03 0.74
-15 -7 1 -0.12 0.81
-1 15 -7 0.29 0.92
1 15 7 1.5 0.93
-1 15 -7 0.36 1.04
-1 -15 -8 28.69 1.48
-1 15 8 26.07 1.83
-15 -8 -1 27.03 1.84
1 -15 8 28.48 1.71
1 15 -8 28.46 1.8
1 15 -8 23.41 1.74
-1 15 -8 25.9 1.8
1 -15 -8 28.2 1.4
-1 -15 8 25.34 1.66
1 15 8 26.78 1.89
-1 15 -8 25.3 1.8
-15 -8 1 29.01 1.76
1 -15 9 4.95 0.9
-1 15 9 2.13 1.14
-15 -9 -1 2.47 1.05
-1 -15 -9 3.52 0.72
1 15 -9 2.1 1.11
1 15 -9 4.67 1.15
1 -15 -9 2.98 0.6
-1 -15 9 3.76 0.96
1 15 9 3.12 1.12
-15 -9 1 3.35 1.08
-1 15 -9 3.82 1.19
-1 15 -9 3.39 1.15
1 15 -10 5.94 1.29
-1 -15 -10 6.47 0.9
-1 15 10 4.58 1.31
1 -15 10 6.05 1.56
-15 -10 -1 5.82 1.2
1 15 -10 6.38 1.27
-1 -15 10 6.57 1.25
-15 -10 1 6.17 1.21
-1 15 -10 7.13 1.29
-1 15 -10 6.06 1.31
1 15 10 5.75 1.28
1 15 -11 2.61 1.27
1 15 -11 3.72 1.2
-1 15 11 3.81 1.29
-1 -15 -11 5.96 0.9
1 15 11 4.42 1.28
-15 -11 1 2.67 1.19
-1 15 -11 1.55 1.24
-1 15 -11 4.41 1.33
1 15 -12 4.21 1.35
1 15 -12 2.68 1.23
-1 15 12 2.97 1.37
-1 15 -12 4.78 1.36
1 15 12 5.51 1.38
-1 15 -12 1.49 1.4
1 15 -13 -1.18 1.18
-1 15 13 0.39 1.27
1 15 -13 -0.29 1.24
-1 15 -13 0.42 1.27
1 15 13 -0.84 1.24
-1 15 -13 2.31 1.31
1 15 -14 3.01 1.42
-1 15 14 0.09 1.37
1 15 -14 1.05 1.31
1 15 14 -0.34 1.35
-1 15 -14 0.64 1.29
-1 15 -14 1.41 1.31
2 15 0 16.96 1.35
-2 -15 0 18.74 1.24
-2 15 0 16.99 1.42
2 15 0 15.59 1.32
0 2 15 16.64 0.71
-2 15 0 17.68 1.42
2 15 -1 16.49 1.33
-2 15 1 17.9 1.45
-2 15 1 20.04 1.47
-2 -15 -1 19.2 1.29
2 -15 1 16.78 1.16
2 15 -1 17.88 1.39
-1 -2 15 17.1 1.07
2 15 1 20.31 1.4
2 15 1 18.62 1.38
-2 15 -1 17.73 1.44
2 -15 -1 15.98 1.23
-2 -15 1 18.02 1.3
-2 15 -1 18.31 1.46
-2 -15 -2 34.49 1.58
2 -15 2 34.84 1.65
-2 15 2 36.01 1.84
2 15 -2 31.41 1.74
2 15 -2 32.46 1.75
-2 15 2 32.39 1.79
2 15 2 33.63 1.76
-2 15 -2 32.34 1.8
2 15 2 36.74 1.77
-2 -15 2 35.25 1.73
2 -15 -2 36.43 1.69
-2 15 -2 35.4 1.85
-2 -2 15 35.14 1.36
-2 15 3 4.94 1.06
2 -15 3 6.18 0.82
2 15 -3 5.09 0.97
-15 -3 -2 5.31 0.8
-2 -15 -3 5.81 0.78
2 15 -3 6.05 1.04
-2 15 3 6 1.06
-2 -15 3 5.54 0.84
-3 -2 15 6.28 0.63
2 15 3 5.12 0.99
-2 15 -3 5.6 1.04
2 -15 -3 5.27 0.62
-2 15 -3 5.72 1.08
2 15 3 6 1.04
-2 -15 -4 13.02 1.07
-15 -4 -2 12.32 1.28
2 15 -4 10.48 1.29
-2 15 4 8.36 1.17
2 15 -4 11.1 1.25
2 -15 4 10.16 1.02
-2 15 4 10.94 1.28
2 -15 -4 10.9 0.85
-2 15 -4 10.13 1.21
-15 -4 2 11.24 0.95
2 15 4 10.81 1.27
2 15 4 10.29 1.25
-2 15 -4 10.58 1.24
-2 -15 4 10.6 1.23
-15 -5 -2 -0.04 0.72
-2 15 5 -0.39 0.89
2 15 -5 0.09 0.8
2 15 -5 1.06 0.84
-2 -15 -5 0.47 0.56
2 -15 5 0.39 0.65
-2 -15 5 1.44 0.76
2 15 5 1.21 0.88
2 -15 -5 0.19 0.42
-15 -5 2 1.02 0.65
-2 15 -5 -0.04 0.91
-2 15 -5 1.26 0.92
2 15 -6 1.04 0.88
2 15 -6 1.97 0.94
-2 15 6 0.97 1
-2 -15 -6 1.09 0.61
-15 -6 -2 1.84 0.83
2 -15 6 0.69 0.68
-2 -15 6 0.5 0.75
-2 15 -6 -0.18 0.95
2 -15 -6 1.91 0.52
-2 15 -6 1.36 0.98
-15 -6 2 0.9 0.93
2 15 6 0.71 0.82
-15 -7 -2 12.17 1.47
-2 -15 -7 11.06 1.12
2 15 -7 11.63 1.37
2 -15 7 13.94 1.27
2 15 -7 13 1.52
-2 15 7 12.07 1.51
2 15 7 11.98 1.36
2 -15 -7 13.01 0.98
-2 15 -7 13.86 1.46
-2 -15 7 17.18 1.38
-15 -7 2 12.29 1.41
-2 15 -7 10.81 1.34
-15 -8 -2 16.08 2.02
-2 15 8 13.15 1.52
2 -15 8 13.14 1.32
2 15 -8 12.17 1.46
-2 -15 -8 13.14 1.19
2 15 -8 11.86 1.37
-2 15 -8 11.49 1.41
-15 -8 2 13.48 1.53
-2 15 -8 11.85 1.44
2 15 8 12.7 1.5
-2 -15 8 11.6 1.45
2 15 -9 26.23 1.8
2 15 -9 30.29 1.87
-2 -15 -9 26.69 1.58
-15 -9 -2 26.5 1.95
-2 15 9 27.83 1.94
2 -15 9 28.56 1.75
2 15 9 28.21 1.9
-2 15 -9 25.45 1.88
-2 15 -9 28.6 1.9
-2 -15 9 26.82 1.87
-15 -9 2 27.65 1.95
-2 15 10 0.91 1.09
-15 -10 -2 0.15 1.03
2 15 -10 0.13 1.05
-2 -15 -10 -0.25 0.74
2 15 -10 -0.59 1
-15 -10 2 0.22 1.05
2 15 10 0.19 1.03
-2 15 -10 0.28 1.17
-2 15 -10 -0.32 1.15
2 15 -11 -0.4 1.11
-2 15 11 0.57 1.15
-2 -15 -11 1.14 0.82
2 15 -11 -1.11 1.08
-2 15 -11 -0.9 1.21
-15 -11 2 1.49 1.22
-2 15 -11 -1.2 1.17
2 15 11 0.36 1.18
2 15 -12 10.23 1.5
2 15 -12 10.4 1.74
-2 15 12 12.53 1.67
-2 15 -12 8.6 2.3
-2 15 -12 8.14 1.55
2 15 12 10.48 1.56
2 15 -13 2.72 1.25
2 15 -13 4.05 1.31
-2 15 13 4.14 1.45
-2 15 -13 2.94 1.33
2 15 13 5.76 1.37
-2 15 -13 1.01 1.38
2 15 -14 -0.68 1.28
2 15 -14 3.46 1.32
-2 15 14 1.89 1.44
-2 15 -14 1.71 1.42
-2 15 -14 1.59 1.64
2 15 14 -1.25 1.34
3 15 0 11.86 1.18
-3 15 0 9.52 1.19
-3 -15 0 8.61 1.15
3 15 0 9.35 1.17
-3 15 0 10.79 1.29
3 15 -1 6.11 0.98
-3 15 1 5.94 1.08
3 15 -1 8.05 1.08
-3 15 1 6.89 1.12
-3 -15 -1 5.78 0.86
3 -15 1 6.61 0.76
-3 15 -1 6.54 1.1
3 -15 -1 5.62 0.73
-1 -3 15 6.09 0.77
3 15 1 5.96 1.01
-3 15 -1 8.89 1.2
3 15 1 7.16 0.99
-3 -15 1 6.28 0.9
3 15 -2 5.76 0.99
-3 -15 -2 8.79 1.04
-3 15 2 5.8 1.05
3 -15 2 5.27 0.68
-3 15 2 6.6 1.06
3 15 -2 5.88 0.99
-2 -3 15 5.71 0.69
3 -15 -2 5.91 0.78
3 15 2 6.06 0.95
3 15 2 5.16 0.94
-3 15 -2 5.42 1.07
-3 15 -2 5.57 1.13
-3 -15 2 6.04 0.87
-3 15 3 2.92 0.97
-3 15 3 2.57 0.98
-15 -3 -3 2.03 0.79
3 15 -3 3.42 0.89
3 -15 3 1.71 0.62
3 15 -3 2.25 0.89
-3 -15 -3 2.59 0.68
3 15 3 2.29 0.86
3 -15 -3 2.63 0.51
-3 -3 15 2.66 0.53
-3 15 -3 2.06 0.95
3 15 3 2.4 0.86
-3 -15 3 1.53 0.74
-3 15 -3 3.07 0.91
-3 -15 -4 15.71 1.23
3 15 -4 16.55 1.41
-15 -4 -3 19.14 1.4
-3 15 4 17.09 1.5
3 -15 4 17.24 1.2
3 15 -4 16.05 1.33
-3 15 4 17.09 1.51
-3 15 -4 17.19 1.48
-3 15 -4 16.4 1.59
-15 -4 3 15.89 0.96
-3 -15 4 16.67 1.44
3 -15 -4 16.97 1.01
-4 -3 15 18.05 0.9
3 15 4 18.31 1.35
3 15 4 16.04 1.35
3 15 -5 -0.81 0.69
-15 -5 -3 0.39 0.78
-3 15 5 -0.16 0.92
3 15 -5 -0.73 0.84
3 -15 5 0.13 0.62
-3 -15 -5 -0.09 0.56
3 15 5 0.33 0.83
-3 15 -5 -0.33 0.87
-15 -5 3 -0.53 0.59
-3 -15 5 0.6 0.75
-3 15 -5 0.35 0.92
3 -15 -5 0.49 0.43
3 15 -6 2.98 0.93
3 -15 6 4.6 0.84
-3 -15 -6 3.33 0.76
-3 15 6 2.91 1.05
-15 -6 -3 4.07 0.93
3 15 -6 4.14 1.01
-3 15 -6 3.21 1.06
-3 -15 6 3.63 0.9
3 15 6 3.87 0.97
3 -15 -6 3.25 0.52
-15 -6 3 3.33 0.83
-3 15 -6 2.57 1.03
3 15 -7 18.18 1.52
3 15 -7 17.75 1.48
3 -15 7 17.82 1.41
-3 15 7 17.49 1.62
-3 -15 -7 18.52 1.32
-15 -7 -3 19.54 1.63
3 -15 -7 18.81 1.03
3 15 7 18.31 1.53
-15 -7 3 19.85 1.5
-3 15 -7 16.69 1.66
-3 -15 7 22.75 1.63
-3 15 -7 16.99 1.57
-15 -8 -3 3.93 1.09
3 15 -8 3.4 1.08
3 15 -8 0.97 0.97
-3 -15 -8 2.26 0.7
-3 15 8 2.8 1.11
-15 -8 3 3.44 0.97
-3 15 -8 1.14 1.04
-3 15 -8 1.81 1.04
3 -15 -8 1.81 0.76
-3 -15 8 2.08 0.88
3 15 8 2.7 1.06
3 -15 9 2.01 0.88
3 15 -9 3.03 1.11
-3 15 9 3.1 1.18
-3 -15 -9 3.23 0.9
3 15 -9 2.93 1.06
-15 -9 -3 4.65 1.11
-3 15 -9 2.69 1.17
-15 -9 3 3.78 1.09
3 15 9 4.33 1.13
-3 15 -9 3.11 1.16
-3 -15 9 4.21 1.03
3 15 -10 0.36 1.06
-15 -10 -3 0.22 1.13
3 15 -10 0.61 1
-3 15 10 -0.42 1.12
-3 -15 -10 0.69 0.77
-3 15 -10 -0.48 1.07
3 15 10 0.81 1.05
-15 -10 3 1.5 1.14
-3 15 -10 0.12 1.13
3 15 -11 -0.96 1.15
-3 -15 -11 1.95 0.84
-3 15 11 0.17 1.14
3 15 -11 -0.58 1.04
-3 15 -11 -0.64 1.14
-3 15 -11 0.14 1.23
-15 -11 3 -1.02 1.26
3 15 11 0.43 1.14
3 15 -12 9.79 1.43
-3 15 12 11.35 1.59
3 15 12 10.36 1.53
-3 15 -12 8.94 1.5
3 15 -13 -1.07 1.17
-3 15 13 -1 1.3
3 15 -13 1.44 1.19
3 15 13 0.01 1.26
-3 15 -13 2.25 1.38
-3 15 -13 -0.37 1.33
-3 15 14 1.35 2.12
3 15 -14 0.21 1.24
3 15 -14 -0.69 1.32
-3 15 -14 0.11 1.28
-4 -15 0 54.89 2.22
-4 15 0 53.98 2.32
4 15 0 51.27 2.13
-4 15 0 52.58 2.26
4 -15 0 53.18 2.58
4 15 0 51.55 2.15
-4 -15 -1 8.1 1.03
-4 15 1 9.88 1.18
4 15 -1 8.99 1.11
-4 15 1 11.05 1.29
4 -15 1 9.37 0.96
4 15 -1 10.1 1.12
4 15 1 9.57 1.08
-4 15 -1 8.05 1.12
-1 -4 15 7.13 0.89
4 15 1 9.24 1.05
-4 -15 1 10.47 1.13
-4 15 -1 9.33 1.2
4 -15 -1 8.18 0.86
4 15 -2 10.83 1.15
-4 15 2 13.15 1.33
4 15 -2 9.71 1.1
4 -15 2 9.19 1
-4 15 2 10.74 1.3
-4 -15 -2 12.63 1.2
4 15 2 9.97 1.13
-4 15 -2 10.99 1.27
4 15 2 9.42 1.11
-2 -4 15 11.12 1.06
4 -15 -2 8.7 0.83
-4 15 -2 9.12 1.26
-4 -15 2 11.97 1.27
4 15 -3 14.82 1.27
4 15 -3 17.92 1.35
-4 15 3 15.96 1.46
-4 -15 -3 15.89 1.23
-15 -3 -4 20.44 1.4
4 -15 3 18.71 1.16
-4 15 3 18.85 1.57
-3 -4 15 16.08 1.13
-4 -15 3 15.74 1.36
-4 15 -3 14.4 1.45
-4 15 -3 16.44 1.5
4 15 3 17.88 1.4
4 15 3 19.29 1.35
4 -15 -3 17.4 1.01
-15 -4 -4 0.28 0.77
-4 -15 -4 0.68 0.64
-4 15 4 1.64 0.96
4 15 -4 0.7 0.71
-4 15 4 0.9 0.92
4 15 -4 1.01 0.77
4 -15 -4 1.67 0.46
-4 15 -4 0.64 0.98
-4 15 -4 0.36 0.88
-4 -4 15 0.68 0.51
4 15 4 0.53 0.8
4 15 4 1.64 0.76
-4 -15 4 0.39 0.77
4 15 -5 14.55 1.39
-15 -5 -4 17.1 1.45
-4 15 5 16.71 1.49
-4 -15 -5 16.93 1.21
4 15 -5 14.48 1.27
4 -15 -5 15.18 0.95
-4 15 -5 15.41 1.5
4 15 5 13.31 1.37
-4 15 -5 15.45 1.49
-15 -5 4 14.32 1
-4 -15 5 15.48 1.35
-15 -6 -4 11.44 1.45
4 15 -6 13.27 1.31
-4 15 6 11.69 1.35
4 15 -6 10.46 1.24
-4 -15 -6 11.82 1.15
-4 -15 6 11.35 1.33
-15 -6 4 10.76 1.18
4 -15 -6 12.15 0.85
-4 15 -6 11.91 1.47
-4 15 -6 13.05 1.47
4 15 6 14.33 1.43
4 15 -7 -0.91 0.82
4 15 -7 -0.11 0.88
-4 -15 -7 0.16 0.65
-15 -7 -4 1.01 0.97
-4 15 7 -0.84 0.95
-4 15 -7 1.1 1.07
4 15 7 -0.64 0.83
-15 -7 4 0.26 0.85
-4 15 -7 0.79 0.97
4 -15 -7 1 0.55
-4 -15 7 -0.35 0.85
-15 -8 -4 7.73 1.19
4 15 -8 8.12 1.22
-4 15 8 13.04 1.53
4 15 -8 8.1 1.18
-4 15 -8 9.2 1.32
4 15 8 8.11 1.23
-4 -15 8 8.02 1.12
-15 -8 4 8.06 1.14
-4 15 -8 8.55 1.36
-15 -9 -4 4.52 1.09
4 15 -9 4 1.04
4 15 -9 3.63 1.12
-4 -15 -9 6.77 0.99
-4 15 9 3.33 1.22
-4 -15 9 4.86 1.01
4 15 9 2.73 1.04
-4 15 -9 4.54 1.22
-4 15 -9 4.17 1.24
-15 -9 4 4.44 1.14
-4 -15 -10 11.26 1.21
4 15 -10 8.46 1.34
-4 15 10 9.6 1.48
4 15 -10 9.7 1.41
-15 -10 4 7.83 1.36
-4 15 -10 9.76 1.5
4 15 10 11.36 1.41
-4 15 -10 9.26 1.36
4 15 -11 18.66 1.75
-4 15 11 18.07 1.87
4 15 -11 18.12 1.71
-4 15 -11 16.23 1.98
-15 -11 4 17.6 2.24
-4 15 -11 19.01 1.84
4 15 11 16.84 1.81
4 15 -12 -0.58 1.04
-4 15 12 1.34 1.35
4 15 -12 -0.2 1.49
-4 15 -12 0.38 1.19
4 15 12 -1.77 1.02
-4 15 13 4.69 1.57
4 15 -13 3.47 1.23
4 15 -13 3.32 1.29
4 15 13 2.5 1.36
-4 15 -13 2.66 1.45
-4 15 -13 1.8 1.42
4 15 -14 7.88 2.37
4 15 -14 4.56 1.46
-4 15 -14 8.23 1.63
5 15 0 11.99 1.13
-5 -15 0 12.37 1.2
5 15 0 10.88 1.12
-5 15 0 12.83 1.46
-5 15 0 10.72 1.3
5 -15 1 12.42 1.07
5 15 -1 14.59 1.27
5 15 -1 12.34 1.16
-5 15 1 12.12 1.37
-5 15 1 14.51 1.41
-5 -15 -1 15.36 1.31
5 15 1 13.06 1.16
-5 15 -1 14.43 1.39
5 15 1 11.63 1.14
-5 -15 1 13.4 1.32
-1 -5 15 14.35 1.26
5 -15 -1 14.14 0.96
-5 15 -1 13.22 1.37
-5 15 2 0.52 0.91
5 15 -2 0.68 0.78
-5 -15 -2 -0.3 0.62
5 15 -2 0.75 0.73
-5 15 2 1.43 0.96
5 15 2 0.76 0.8
-5 -15 2 0.36 0.74
5 -15 -2 0.01 0.41
-2 -5 15 1.35 1.05
5 15 2 0.33 0.73
-5 15 -2 0.5 0.93
-5 15 -2 0.72 0.91
-5 15 3 0.35 0.92
-5 15 3 1.35 0.96
5 15 -3 0.73 0.77
-5 -15 -3 -0.14 0.66
5 15 -3 0.3 0.71
-5 15 -3 0.24 0.9
-5 -15 3 1.48 0.78
5 15 3 0.8 0.76
5 15 3 0.3 0.76
-5 15 -3 0.45 0.94
-3 -5 15 0.49 0.7
5 -15 -3 -0.21 0.43
5 15 -4 14.96 1.38
-5 15 4 15.46 1.47
-5 15 4 14.85 1.46
5 15 -4 15.04 1.25
-5 -15 -4 15.88 1.5
-15 -4 -5 15.73 1.41
5 -15 -4 14.6 0.9
5 15 4 15.8 1.29
-5 15 -4 15.06 1.49
-5 15 -4 16.51 1.48
-4 -5 15 12.28 1.16
-5 -15 4 13.62 1.32
5 15 4 15.9 1.27
5 15 -5 -0.17 0.73
5 15 -5 0.47 0.82
-5 -15 -5 -0.78 0.63
-5 15 5 0.25 0.93
-15 -5 -5 0.86 0.91
-5 15 -5 0.34 0.95
5 15 5 0.94 0.77
-5 -15 5 -0.21 0.78
-5 15 -5 -0.31 0.92
5 -15 -5 0.03 0.4
-5 -5 15 -0.13 0.59
-5 15 6 0.62 1.04
5 15 -6 0.07 0.83
5 15 -6 1.69 0.82
-15 -6 -5 0.32 0.95
-5 -15 -6 0.29 0.74
5 -15 -6 2.2 0.62
-5 15 -6 1.41 1
-5 15 -6 1.32 1.03
-5 -15 6 1.29 0.93
5 15 6 1.38 0.83
-15 -7 -5 12.19 1.62
-5 -15 -7 11.65 1.36
-5 15 7 12.82 1.46
5 15 -7 12.64 1.3
5 15 -7 11.55 1.28
-5 15 -7 13.05 1.54
-5 15 -7 12.79 1.53
5 15 7 12.59 1.33
-5 -15 7 14.95 1.66
5 15 -8 0.59 0.98
5 15 -8 0.27 0.94
-5 -15 -8 1.53 0.83
-15 -8 -5 0.16 1
-5 15 8 -0.11 1.01
-5 15 -8 2.14 1.07
-5 -15 8 -0.15 0.9
-5 15 -8 0.73 1.01
-15 -8 5 2.25 1.23
5 15 8 0.96 0.93
-5 -15 -9 3.44 0.87
5 15 -9 3.17 1.12
5 15 -9 2.82 1.06
-15 -9 -5 3.21 1.14
-5 15 9 4.64 1.22
-5 15 -9 2.67 1.13
-5 15 -9 1.53 1.16
-15 -9 5 4.07 1.42
-5 -15 9 2.3 1.77
5 15 9 3.98 1.12
5 15 -10 17.43 1.56
-5 -15 -10 12.85 1.55
-5 15 10 13.56 1.58
5 15 -10 12.57 1.5
-15 -10 5 10.25 1.89
5 15 10 11.15 1.39
-5 15 -10 14.39 1.71
-5 15 -10 13.21 1.55
5 15 -11 -1.01 1.05
5 15 -11 1.16 1.09
-5 15 11 0.89 1.22
-5 15 -11 -0.78 1.13
5 15 11 -0.18 1.07
-5 15 -11 -0.22 1.13
5 15 -12 -0.78 1.28
-5 15 12 0.22 1.35
5 15 -12 0.43 1.07
-5 15 -12 0.72 1.37
5 15 12 1.3 1.14
-5 15 -12 0.91 1.22
-5 15 13 1.49 1.36
5 15 -13 1.44 1.28
5 15 13 1.52 1.18
-5 15 -13 0.44 1.38
-5 15 -13 1.94 1.38
5 15 -14 0.24 1.24
-5 15 -14 0.04 1.3
-5 15 -14 -0.93 1.38
6 15 0 10.87 1.15
0 -6 15 11.48 1.28
-6 15 0 13.35 1.36
6 15 0 13.26 1.15
-6 -15 0 13.85 1.39
-6 15 0 13.32 1.4
6 15 -1 21.41 1.38
-6 15 1 22.86 1.65
6 15 -1 22.3 1.44
-6 -15 -1 23.5 1.5
-6 15 1 20.01 1.53
6 -15 -1 24.26 1.2
6 15 1 21.63 1.37
-6 -15 1 24.04 1.63
-1 -6 15 21.8 1.49
-6 15 -1 24.02 1.71
6 15 1 23.24 1.32
-6 15 -1 23.67 1.59
-6 -15 -2 2.44 0.83
-6 15 2 2.06 0.98
-6 15 2 1.17 0.87
6 15 -2 0.87 0.7
6 15 -2 -0.2 0.65
6 15 2 -0.31 0.69
-6 15 -2 0.14 0.86
6 -15 -2 0.89 0.48
-6 15 -2 2.13 0.98
-2 -6 15 0.6 0.73
-6 -15 2 1.1 0.82
6 15 2 1 0.68
6 15 -3 3.15 0.83
6 15 -3 3.61 0.85
-6 -15 -3 3.47 0.86
-6 15 3 3.38 0.98
-6 15 3 4.25 1.1
6 15 3 5.22 0.85
-6 -15 3 4.24 0.99
-6 15 -3 3.22 0.98
6 15 3 2.21 0.84
6 -15 -3 2.39 0.49
-3 -6 15 3.73 0.84
-6 15 -3 3.28 1
-6 -15 -4 11.8 1.33
-15 -4 -6 11.74 1.25
6 15 -4 13.25 1.16
-6 15 4 11.9 1.33
-4 -6 -15 11.21 1.14
6 15 -4 12.66 1.22
6 15 4 12.31 1.2
-6 15 -4 12.18 1.4
-6 -15 4 11.98 1.36
-4 -6 15 11.03 1.34
-6 15 -4 10.88 1.26
6 -15 -4 11.41 0.81
-6 15 5 0.89 1.02
-15 -5 -6 1.83 0.95
6 15 -5 1.71 0.75
-5 -6 -15 0.48 0.68
-6 -15 -5 2.49 0.74
6 15 -5 -0.41 0.8
-6 15 -5 1.95 1
-6 15 -5 0.2 0.93
6 15 5 1.23 0.77
-5 -6 15 1.19 0.82
-6 -15 5 3.13 0.97
-6 -15 -6 6.8 0.95
-15 -6 -6 5.56 1.07
6 15 -6 5.49 1
6 15 -6 6.2 0.98
-6 -6 -15 4.98 0.89
-6 15 6 5.35 1.17
6 15 6 4.98 1.02
-6 -15 6 6.5 1.09
-6 15 -6 4.75 1.16
-6 15 -6 7.19 1.18
-6 -15 -7 10.81 1.21
-6 15 7 8.34 1.3
6 15 -7 10.39 1.28
-15 -7 -6 11.09 1.35
6 15 -7 10.76 1.28
-6 -15 7 13.65 1.63
6 15 7 11.45 1.3
-6 15 -7 11.26 1.39
-6 15 -7 9.53 1.33
-15 -8 -6 -0.37 1.04
-6 -15 -8 1.82 0.9
-6 15 8 -0.85 1.05
6 15 -8 0.28 0.84
6 15 -8 1.06 0.92
6 15 8 -1.99 0.88
-6 15 -8 -0.08 1.03
-6 15 -8 0.67 1.11
-6 -15 8 1.78 1.04
6 15 -9 1.71 0.91
-6 -15 -9 2.55 1.02
-6 15 9 2.04 1.12
6 15 -9 2.95 1.05
6 15 9 3.62 1.1
-6 15 -9 4.34 1.31
-6 15 -9 4.53 1.18
6 15 -10 21.02 1.71
6 15 -10 18.77 1.65
-6 15 10 19.32 1.83
6 15 10 19.5 1.66
-6 15 -10 21.67 1.88
-6 15 -10 20.15 1.81
-6 15 11 4.7 1.37
6 15 -11 3.57 1.14
6 15 -11 4.68 1.31
-6 15 -11 3.22 1.95
-6 15 -11 6.27 1.36
6 15 11 4.45 1.23
-6 15 12 5.19 1.53
6 15 -12 5.76 1.43
6 15 -12 7.92 1.3
-6 15 -12 8.05 1.56
6 15 12 8.07 1.37
-6 15 -12 5.3 1.46
6 15 -13 0.11 1.18
-6 15 13 0.51 1.43
6 15 -13 0.98 1.33
-6 15 -13 -0.92 1.35
-6 15 -13 -2 1.52
6 15 -14 1.35 1.18
6 15 -14 -0.88 1.19
-6 15 -14 -1.86 1.38
-6 15 -14 -1.02 1.35
-7 15 0 29.29 1.71
7 15 0 26.34 1.48
-7 -15 0 26.29 1.67
-7 15 0 27.2 1.69
7 15 0 26.48 1.49
0 -7 15 29.09 1.71
-7 15 1 0.58 0.98
7 15 -1 0.39 0.6
-7 -15 -1 -0.2 0.78
-1 -7 -15 -0.62 0.55
7 15 -1 1.08 0.72
-7 15 1 0.33 0.9
7 15 1 1.13 0.75
-7 -15 1 -0.68 0.71
-7 15 -1 0.96 0.89
7 -15 -1 0.43 0.5
7 15 1 -0.53 0.64
-7 15 -1 0.08 0.89
-1 -7 15 1.08 0.81
7 15 -2 10.4 1.16
-2 -7 -15 11.28 1.09
-7 15 2 11.43 1.34
-7 -15 -2 14.57 1.34
7 15 -2 11.52 1.04
-7 15 2 11.2 1.36
7 -15 -2 12.86 0.92
7 15 2 11.49 1.16
-7 -15 2 16.26 1.45
7 15 2 12.72 1.13
-2 -7 15 10.54 1.3
-7 15 -2 11.69 1.36
-7 15 -2 11.1 1.32
7 15 -3 17.48 1.26
-7 -15 -3 15.64 1.42
-7 15 3 17.06 1.5
-3 -7 -15 15.7 1.26
7 15 -3 19.4 1.26
-7 15 3 18.74 1.5
7 -15 -3 17.13 1.05
-7 -15 3 17.6 1.63
-7 15 -3 17.74 1.61
-7 15 -3 17.29 1.48
7 15 3 16.57 1.22
7 15 3 21.83 1.25
-3 -7 15 16.61 1.47
7 15 -4 0.71 0.76
-7 -15 -4 -0.31 0.75
-15 -4 -7 -0.67 0.93
-4 -7 -15 -0.12 0.64
-7 15 4 0.92 0.88
7 15 -4 -0.62 0.61
-7 15 -4 -0.93 0.91
-7 15 -4 -0.04 0.97
-7 -15 4 0.98 0.83
7 15 4 -0.99 0.65
-4 -7 15 0.94 0.84
-7 15 5 14.34 1.45
7 15 -5 13.71 1.16
-5 -7 -15 13.02 1.3
7 15 -5 12.81 1.2
-15 -5 -7 14.89 1.55
-7 -15 -5 11.96 1.44
7 15 5 12.02 1.16
-5 -7 15 12.68 1.47
-7 15 -5 12.45 1.53
-7 15 -5 12.95 1.48
-7 -15 5 12.75 1.49
7 15 -6 10.43 1.17
-6 -7 -15 9.8 1.15
7 15 -6 9.6 1.17
-15 -6 -7 11.29 1.32
-7 -15 -6 9.5 1.2
-7 15 6 11.94 1.34
-7 15 -6 8.93 1.33
-7 15 -6 10.25 1.33
-7 -15 6 9.82 1.18
7 15 6 11.97 1.16
-7 15 7 3.53 1.12
-7 -7 -15 1.78 0.81
-7 -15 -7 2.89 0.98
-15 -7 -7 2.83 1.11
7 15 -7 2.91 0.87
7 15 -7 3.47 0.95
7 15 7 3.55 0.95
-7 -15 7 1.64 1.14
-7 15 -7 2.55 1.2
-7 15 -7 2.63 1.12
7 15 -8 9.24 1.18
-7 15 8 10.8 1.42
7 15 -8 9.61 1.18
-7 -15 -8 9.34 1.2
-7 15 -8 11.63 1.47
7 15 8 10.55 1.27
-7 15 -8 9.92 1.41
7 15 -9 7.81 1.17
-7 15 9 8.69 1.38
7 15 -9 7.88 1.23
7 15 9 7.52 1.18
-7 15 -9 6.1 1.34
-7 15 -9 8.34 2.42
7 15 -10 1.47 1.08
7 15 -10 2.64 0.99
-7 15 10 2.56 1.24
7 15 10 4.49 1.14
-7 15 -10 2.09 1.21
-7 15 -10 2.48 1.16
7 15 -11 7.52 1.19
-7 15 11 8 1.5
11 7 -15 5.98 0.86
-7 15 -11 5.98 1.4
7 15 11 6.1 1.23
-7 15 12 2.02 1.33
7 15 -12 1.44 1.11
7 15 -12 -0.25 1.07
7 15 12 -1.52 1.16
-7 15 -12 1.64 1.34
-7 15 -12 0.06 1.23
7 15 -13 2.48 1.52
7 15 -13 3 1.31
-13 7 -15 -0.91 1.2
-7 15 -13 5.11 2
-7 15 -13 1.46 1.35
7 15 -14 3.36 1.34
7 15 -14 5.13 1.3
-7 15 -14 3.87 1.65
-7 15 -14 4.47 1.49
-8 15 0 -0.31 0.87
0 -8 15 0.46 0.91
-8 -15 0 1.66 0.81
8 15 0 0.66 0.66
0 -8 -15 1.28 0.59
-8 15 0 1.13 0.94
8 15 0 0.44 0.62
-8 15 1 26.49 1.79
-8 15 1 29.62 1.79
8 15 -1 26.59 1.44
8 15 -1 24.78 1.42
-1 -8 -15 27.02 1.42
-8 -15 -1 34.11 1.84
8 15 1 26.56 1.41
-8 -15 1 29.39 1.77
1 -8 -15 23.9 1.35
-1 -8 15 27.28 1.73
-8 15 -1 23.89 1.64
8 15 1 29.38 1.46
-8 15 -1 25.73 1.8
-8 15 2 12.71 1.35
-2 -8 -15 14.25 1.2
-8 -15 -2 11.85 1.51
-8 15 2 12.09 1.4
8 15 -2 12.89 1.1
8 15 -2 13.51 1.12
-8 -15 2 10.86 1.39
8 15 2 13.04 1.08
-8 15 -2 11.24 1.34
-2 -8 15 11.84 1.46
8 -15 -2 11.88 0.88
-8 15 -2 14.14 1.45
8 15 2 12.17 1.02
8 15 -3 3.83 0.75
8 15 -3 2.4 0.73
-3 -8 -15 2.6 0.7
-8 -15 -3 3.67 0.92
-8 15 3 1.87 0.96
-8 15 -3 0.72 0.94
8 15 3 1.95 0.72
-8 -15 3 2.84 1.01
-3 -8 15 2.48 0.91
-8 15 -3 2.41 1
-4 -8 -15 8.82 1.13
-8 15 4 9.88 1.28
-8 -15 -4 9.42 1.29
8 15 -4 7.9 0.94
8 15 -4 9.09 1.12
-8 15 -4 11.2 1.34
-8 15 -4 8.93 1.2
-8 -15 4 9.28 1.25
8 15 4 10.07 1.13
-4 -8 15 7.55 1.11
-8 -15 -5 1.77 0.92
8 15 -5 2.35 0.76
-8 15 5 1.76 1.06
-5 -8 -15 0.38 0.8
8 15 -5 1.1 0.7
-15 -5 -8 -0.26 0.95
8 15 5 0.04 0.73
-5 -8 15 1.99 0.99
-8 15 -5 2.16 1.02
-8 15 -5 0.07 0.99
-8 -15 5 2.94 1
-8 -15 -6 0.83 0.97
-15 -6 -8 -0.51 1.01
8 15 -6 0.56 0.7
-8 15 6 0.27 1.05
8 15 -6 0.11 0.72
-6 -8 -15 1.58 0.82
-8 -15 6 -0.42 1.02
-8 15 -6 1.42 1.06
8 15 6 -0.56 0.69
-8 15 -6 0.48 1.01
-8 15 7 9.06 1.34
8 15 -7 8.66 1.19
8 15 -7 9.91 1.16
-7 -8 -15 10.13 1.19
-8 15 -7 9.73 1.38
-8 15 -7 11.61 1.46
8 15 7 10.7 1.18
8 15 -8 2.91 0.96
-8 15 8 2.36 1.11
8 15 -8 3.3 0.99
8 15 8 3.91 1.01
-8 15 -8 1.49 1.21
-8 15 -8 3.54 1.23
8 15 -9 13.6 1.41
8 15 -9 15 1.39
-8 15 9 14.21 1.64
-8 15 -9 14.29 1.65
-8 15 -9 13.22 1.66
8 15 9 13.47 1.5
8 15 -10 3.55 1.02
10 8 -15 3.11 0.79
-8 15 10 3.32 1.26
8 15 -10 2.25 1.1
8 15 10 4.04 1.09
-8 15 -10 3.58 1.24
-8 15 -10 2.39 1.26
8 15 -11 1.33 0.99
-8 15 11 1.57 1.34
8 15 -11 1.37 1.15
11 8 -15 2.52 0.8
-8 15 -11 2.61 1.41
-8 15 -11 1.33 1.34
8 15 11 0.09 1.03
-8 15 12 13.09 1.71
8 15 -12 11.58 1.51
8 15 -12 15.74 1.57
-8 15 -12 13.61 1.74
-12 8 -15 10.02 1.51
-8 15 -12 11.14 1.65
8 15 -13 1.84 1.73
8 15 -13 -0.84 1.22
-8 15 -13 0.95 1.47
-13 8 -15 0.29 1.41
-8 15 -13 2.33 1.42
8 15 -14 -0.39 1.09
8 15 -14 -2.71 1.32
-8 15 -14 2.79 1.59
-8 15 -14 -0.97 1.56
9 15 0 19.28 1.24
0 -9 -15 20.49 1.3
9 15 0 22.34 1.22
0 -9 15 21.24 1.7
-9 -15 0 20.45 1.76
-9 15 0 22.63 1.62
-9 15 0 23.85 1.69
9 15 -1 3.73 0.67
-9 15 1 2.58 1
-1 -9 -15 3.73 0.72
9 15 -1 4.24 0.75
-9 -15 -1 4.36 1.01
-9 15 1 4.53 1.07
1 -9 15 3.01 0.97
-1 -9 15 3.13 1.05
-9 15 -1 3.59 0.99
1 -9 -15 2.49 0.59
-9 15 -1 2.84 1.1
-9 -15 1 2.23 1.01
9 15 1 3.62 0.67
9 15 1 3.54 0.72
-2 -9 -15 26.5 1.56
9 15 -2 29.34 1.44
-9 15 2 28.44 1.68
9 15 -2 27.28 1.41
-9 15 2 28.11 1.85
-9 -15 -2 30.37 1.83
-9 -15 2 29.6 1.87
-9 15 -2 25.57 1.68
-9 15 -2 27.03 1.86
-2 -9 15 25.24 1.88
9 15 2 27.07 1.45
9 15 2 31.58 1.42
-9 -15 -3 4.36 1.03
-9 15 3 3.44 0.99
9 15 -3 2.03 0.64
9 15 -3 4.38 0.74
-3 -9 -15 4.02 0.83
-3 -9 15 3.84 1.03
-9 -15 3 4.86 1.13
9 15 3 3.54 0.73
-9 15 -3 4.78 1.04
-9 15 -3 4.17 1.08
-9 15 4 4.72 1.06
9 15 -4 5.07 0.86
-4 -9 -15 3.16 0.91
-9 -15 -4 4.75 1.03
9 15 -4 5.23 0.77
-9 15 -4 4.41 1.07
-9 15 -4 4.26 1.18
9 15 4 2.25 0.81
-9 -15 4 2.92 1.02
-4 -9 15 4.52 1.11
9 15 -5 2.8 0.79
-5 -9 -15 3.8 0.88
-9 15 5 2.93 1.05
-15 -5 -9 2.76 1.14
9 15 -5 3.51 0.74
-9 15 -5 2.79 1.14
-5 -9 15 3.2 1.15
9 15 5 3.59 0.82
-9 -15 5 2.97 1.25
-9 15 -5 3.84 1.14
-9 15 6 3.84 1.1
9 15 -6 3.03 0.81
9 15 -6 2.24 0.75
-6 -9 -15 2 0.9
-9 15 -6 3.47 1.12
9 15 6 3.48 0.81
-9 15 -6 3.67 1.18
-9 15 7 8.75 1.3
9 15 -7 8.5 1
9 15 -7 6.39 1.05
9 15 7 7.49 1.76
-9 15 -7 7.46 1.26
-9 15 -7 7.66 1.34
9 15 -8 16.86 1.31
-9 15 8 14.33 1.56
9 15 -8 14.09 1.3
-9 15 -8 15.6 1.6
-9 15 -8 11.89 1.47
9 15 8 13.95 1.38
-9 15 9 10.96 1.44
9 15 -9 12.02 1.41
9 15 -9 11.02 1.32
9 9 -15 11.46 1.22
9 15 9 11.2 1.31
-9 15 -9 11.71 1.52
-9 15 -9 13.2 1.59
10 9 -15 -0.12 0.83
9 15 -10 1 0.93
-9 15 10 0.38 1.2
-10 9 -15 -0.91 1.19
-9 15 -10 -1.98 1.22
9 15 10 -1.57 0.91
-9 15 -10 0.41 1.58
9 15 -11 5.32 1.07
-9 15 11 6.78 1.51
11 9 -15 2.4 0.83
9 15 -11 1.84 1.13
-11 9 -15 3.71 1.35
-9 15 -11 4.41 1.45
-9 15 -11 6.9 1.48
9 15 -12 2.29 1.15
9 15 -12 1.81 1.08
-9 15 -12 3.57 1.84
-12 9 -15 2.65 1.42
-9 15 -12 3.31 1.57
9 15 -13 1.74 1.17
9 15 -13 1.23 1.23
-9 15 -13 1.25 1.35
-9 15 -13 -0.12 1.56
-13 9 -15 -0.52 1.41
9 15 -14 1.98 1.31
9 15 -14 3.29 1.32
-9 15 -14 3.3 1.56
-9 15 -14 1.46 1.62
-10 -15 0 12.93 1.52
0 -10 -15 8.17 1.07
10 15 0 12.85 1
0 -10 15 11.97 1.39
-10 15 0 13.35 1.41
-10 15 0 13.51 1.39
10 15 0 11.53 0.98
-10 15 1 6.84 1.13
10 15 -1 5.61 0.77
-10 15 1 7.09 1.19
10 15 -1 6.69 0.82
-10 -15 -1 6.91 1.35
1 -10 15 5.96 1.12
-1 -10 -15 6.07 0.83
10 15 1 7.57 0.89
-10 -15 1 6.35 1.73
-10 15 -1 6.37 1.06
-1 -10 15 7.17 1.21
10 15 1 8.39 0.91
-10 15 -1 6.1 1.18
-10 15 2 0.04 0.96
10 15 -2 0.45 0.57
-2 -10 -15 -1.33 0.74
10 15 -2 0.2 0.55
-2 -10 15 -1.96 0.99
-10 -15 2 1.06 1.82
-10 15 -2 -0.37 0.85
-10 15 -2 0.72 1
10 15 2 -0.66 0.53
-3 -10 -15 -1.53 0.75
-10 15 3 0.35 0.98
10 15 -3 -1.13 0.55
10 15 -3 0.3 0.56
10 15 3 0.11 0.6
-3 -10 15 0.22 1.11
-10 15 -3 1.32 0.97
-10 15 -3 0.21 0.92
-10 15 4 9.43 1.3
10 15 -4 9.5 1.01
10 15 -4 8.37 0.97
-4 -10 -15 10.09 1.19
-10 15 -4 9.35 1.27
-4 -10 15 9.21 1.37
-10 15 -4 11.08 1.29
10 15 4 12.69 1.05
-5 -10 -15 15.1 1.5
10 15 -5 11.99 1.14
10 15 -5 13.86 1.07
-10 15 5 13.4 1.47
-10 15 -5 12.28 1.47
10 15 5 16.14 1.19
-5 -10 15 15.05 1.98
-10 15 -5 15.38 1.49
10 15 -6 18.57 1.38
10 15 -6 20.42 1.23
-10 15 6 20.38 1.75
-10 15 -6 17.88 1.67
10 15 6 16.56 1.28
-10 15 -6 23.63 1.83
10 15 -7 2.92 0.83
7 10 -15 2.45 0.96
-10 15 7 3.78 1.17
10 15 -7 1.47 0.71
10 15 7 3.1 0.85
-10 15 -7 4.27 1.22
-10 15 -7 3.02 1.17
10 15 -8 2.07 0.9
-10 15 8 1.39 1.17
10 15 -8 3.55 0.81
8 10 -15 2.85 0.98
-10 15 -8 4.3 1.25
-8 10 -15 2.92 1.26
10 15 8 3.68 0.98
-10 15 -8 2.87 1.3
-10 15 9 -1.27 1.17
10 15 -9 -0.6 0.76
10 15 -9 0.31 0.97
9 10 -15 1 0.88
-9 10 -15 -0.74 1.26
10 15 9 0.76 0.91
-10 15 -9 -1.17 1.14
10 15 -10 6.41 1.03
10 10 -15 4.36 0.99
-10 15 10 4.34 1.38
10 15 -10 4.84 1.13
-10 10 -15 5.54 1.38
-10 15 -10 5.39 1.38
-10 10 -15 1.04 1.34
-10 15 -10 6.47 1.47
10 15 -11 3.94 1.22
10 15 -11 5.4 1.08
-10 15 11 4.1 1.45
11 10 -15 9.23 1.43
-11 10 -15 3.8 1.6
-10 15 -11 4.79 1.53
-11 10 -15 3.27 1.54
-10 15 -11 2.74 2.23
10 15 -12 6.11 1.2
-12 10 -15 9.75 1.6
-10 15 -12 10.01 1.7
-10 15 -12 11.13 1.63
10 15 -13 2.81 1.05
10 15 -13 -2.02 1.17
-10 15 -13 1.47 1.36
-13 10 -15 -0.76 1.52
-10 15 -13 -0.44 1.65
10 15 -14 -0.57 1.34
10 15 -14 2.71 1.38
-10 15 -14 1.29 1.87
-10 15 -14 3.31 1.55
11 15 0 1 0.56
-11 15 0 2.34 1.06
-11 15 0 2.02 1.03
-11 15 1 4.25 1.07
-1 -11 -15 5.5 1.03
11 15 -1 4.74 0.7
11 15 -1 6.44 0.71
-11 15 -1 4.96 1.16
-11 15 -1 4.69 1.13
11 15 1 5.78 0.72
11 15 -2 1.12 0.56
11 15 -2 2.88 0.62
-2 -11 -15 2.03 0.77
-11 15 2 2.31 0.94
-11 15 -2 -0.14 0.91
11 15 2 -0.42 0.54
-11 15 -2 0.43 1
11 15 -3 0.44 0.55
-11 15 3 1.68 0.96
-3 -11 -15 0.72 0.83
11 15 3 0.23 0.58
-3 -11 15 1.05 1.89
-11 15 -3 0.35 0.93
-11 15 -3 1.32 1.03
-4 -11 -15 20 1.85
11 15 -4 19.28 1.21
-11 15 4 21.24 1.6
4 11 -15 14.98 1.7
-11 15 -4 19.56 1.7
-11 15 -4 18.38 1.59
11 15 4 17.9 1.19
5 11 -15 -0.02 1.1
11 15 -5 -0.29 0.63
11 15 -5 -0.34 0.61
-11 15 5 0.31 1
-11 15 -5 -0.21 1.1
11 15 5 -0.42 0.63
-11 15 -5 0.75 1.05
-11 15 6 4.47 1.12
11 15 -6 5.78 0.91
11 15 -6 5.94 0.73
6 11 -15 3.5 1.17
11 15 6 4.5 0.83
-11 15 -6 4.34 1.25
-6 11 -15 4.33 1.37
-11 15 -6 6.32 1.29
-11 15 7 8.6 1.26
11 15 -7 7.79 0.98
11 15 -7 7.85 0.94
7 11 -15 7.92 1.26
11 15 7 6.05 0.96
-7 11 -15 5.54 1.42
-11 15 -7 6.58 1.32
-11 15 -7 7.33 1.34
8 11 -15 -1 0.86
-11 15 8 0.03 1.08
11 15 -8 0.36 0.81
11 15 -8 1.75 0.74
-11 15 -8 1.92 1.23
-11 15 -8 1.37 1.48
11 15 8 -1.23 0.8
-8 11 -15 0.3 1.32
11 15 -9 3.77 0.82
-11 15 9 3.62 1.32
9 11 -15 3.1 1.02
-11 15 -9 3.36 1.4
-11 15 -9 3.75 1.29
-9 11 -15 1.75 1.38
-9 11 -15 1.96 1.45
11 15 -10 2.02 1.04
11 15 -10 6.61 1.64
10 11 -15 6.54 1.1
-11 15 10 3.48 1.45
-11 15 -10 4.19 1.46
-11 15 -10 5.41 1.41
-10 11 -15 3.53 1.48
11 15 -11 0.5 1.08
-11 11 -15 3.03 1.46
-11 15 -11 1.79 1.53
-11 11 -15 -0.35 1.58
-11 15 -11 2.36 1.5
12 11 -15 3.15 1.89
-11 15 -12 6.81 1.55
-12 11 -15 5.53 1.6
-11 15 -12 8.16 1.87
11 15 -13 5.78 1.39
-13 11 -15 0.64 1.71
-11 15 -13 -0.37 1.9
-11 15 -13 0.78 1.54
-11 15 -14 2.98 1.8
0 12 -15 25.13 1.99
-12 15 0 27.98 1.75
1 12 -15 3.31 1.32
-12 15 1 4.5 1.04
-1 12 -15 3.24 1.29
12 15 1 3.24 0.59
-12 15 -1 2.3 1.03
-12 15 -1 3.73 1.09
-12 15 2 12.22 1.43
12 15 -2 15.49 0.91
12 15 -2 14.2 1.13
2 12 -15 7.86 1.49
-12 15 -2 10.83 1.32
-12 15 -2 11.1 1.36
12 15 2 17.2 0.99
-12 15 3 12.66 1.44
3 12 -15 10.21 1.48
12 15 3 11.78 0.93
-3 12 -15 8.33 1.49
-12 15 -3 10.5 1.35
-12 15 -3 11.94 1.37
-12 15 4 1.26 0.99
4 12 -15 0.09 1.1
-12 15 -4 -0.63 1.07
12 15 4 -0.42 0.59
-4 12 -15 0.45 1.19
-12 15 -4 1.39 1.02
5 12 -15 1.27 1.14
12 15 -5 2.94 0.7
-12 15 5 0.39 0.97
12 15 -5 3.52 0.8
-12 15 -5 0.18 1.17
-12 15 -5 3.22 1.08
-5 12 -15 -1.34 1.27
12 15 5 2.94 0.72
12 15 -6 7.97 0.95
6 12 -15 7.77 1.32
-12 15 6 6.72 1.23
-12 15 -6 8.03 1.31
12 15 6 6.29 0.89
-12 15 -6 7.54 1.39
-6 12 -15 3.83 1.44
-12 15 7 -0.25 1.08
7 12 -15 -0.4 1.07
-12 15 -7 2.98 1.59
-7 12 -15 1.26 1.39
-12 15 -7 0.32 1.13
-7 12 -15 -1.02 1.27
12 15 7 0.91 0.76
8 12 -15 13.84 1.56
-12 15 8 12.58 1.5
-8 12 -15 13.91 1.79
-12 15 -8 12.03 1.68
-12 15 -8 14.12 1.6
-8 12 -15 8.87 1.64
-12 15 9 0.87 1.3
9 12 -15 3.51 1.17
-9 12 -15 1.42 2.23
-12 15 -9 2.21 1.52
-12 15 -9 3.77 1.49
-9 12 -15 2.94 1.49
-10 12 -15 10.14 1.87
-12 15 -10 10.5 1.75
-12 15 -10 11.79 1.99
-10 12 -15 12.16 1.74
11 12 -15 6.74 1.39
-12 15 -11 6.84 1.6
-11 12 -15 5.72 1.89
-11 12 -15 4.11 1.45
-12 12 -15 -2.09 1.55
-12 15 -12 1.38 1.58
-13 12 -15 7.63 2.04
-12 15 -13 4.29 1.68
-12 15 -14 5.6 1.92
-13 15 0 8.45 1.19
0 13 -15 10.56 1.62
1 13 -15 -0.95 1.18
-13 15 1 1.19 0.98
-1 13 -15 0.13 1.25
-13 15 -1 2.11 0.97
-13 15 2 3.93 1.06
2 13 -15 3.37 1.24
-13 15 -2 5.22 1.09
-13 15 -2 5.22 1.25
-2 13 -15 2.06 1.36
-13 15 3 0.99 0.96
3 13 -15 1.18 1.25
-13 15 -3 -0.77 1.1
-13 15 -3 1.46 1.01
-3 13 -15 1.84 1.32
4 13 -15 4.48 1.33
-13 15 4 8.1 1.17
-13 15 -4 4.44 1.29
-4 13 -15 4 1.49
-13 15 -4 4.42 1.15
-13 15 5 1.19 1.06
-5 13 -15 -0.17 1.35
-13 15 -5 3.97 1.23
-5 13 -15 2.23 1.3
-13 15 -5 -0.02 1.3
6 13 -15 1.33 1.23
-13 15 6 -0.66 1.17
-13 15 -6 1.88 1.19
-6 13 -15 -1.52 1.53
-6 13 -15 0.38 1.4
7 13 -15 0.54 1.36
-7 13 -15 0.29 1.43
-13 15 -7 2.45 1.23
-7 13 -15 3.67 1.86
-13 15 -8 1.36 1.37
-8 13 -15 -0.86 1.42
-8 13 -15 -0.92 1.5
9 13 -15 -3.46 1.27
9 13 -15 1.37 1.12
-9 13 -15 -0.5 1.43
-9 13 -15 1.82 1.38
-13 15 -9 2.01 1.55
10 13 -15 4.14 1.03
10 13 -15 -0.97 1.36
-10 13 -15 1.07 1.4
-10 13 -15 -0.25 1.61
-13 15 -10 -0.78 1.46
11 13 -15 3.38 1.31
-11 13 -15 2.55 1.58
-13 15 -11 1.68 1.71
-13 15 -12 5.44 2.43
-12 13 -15 7.86 1.73
0 14 -15 4.18 1.51
1 14 -15 -0.12 1.36
-1 14 -15 0.66 1.28
2 14 -15 2.05 1.26
-2 14 -15 1.35 1.57
-2 14 -15 2.68 1.48
3 14 -15 0.09 1.35
-3 14 -15 -1.38 1.29
4 14 -15 8.08 2.41
-4 14 -15 7.14 1.63
5 14 -15 1.52 1.32
-5 14 -15 -0.58 1.4
-5 14 -15 0.21 1.43
6 14 -15 1.71 1.18
6 14 -15 -3.51 1.17
-6 14 -15 -0.78 1.39
-6 14 -15 -0.49 1.41
7 14 -15 0.18 1.17
7 14 -15 1.06 1.31
-7 14 -15 -0.03 1.51
-7 14 -15 2.3 1.46
8 14 -15 -1.17 1.28
8 14 -15 0.79 1.16
-8 14 -15 -0.13 1.55
-8 14 -15 0.59 1.48
9 14 -15 4.05 1.34
9 14 -15 -0.47 1.29
-9 14 -15 3.5 1.66
-9 14 -15 0.07 1.65
10 14 -15 4.42 1.77
10 14 -15 -2.91 1.3
-10 14 -15 1.52 1.56
-10 14 -15 1.99 1.76
-11 14 -15 2.12 1.7
-12 14 -15 2.57 1.86
0 15 -15 17.91 2.08
0 15 -15 19.68 2.26
1 15 -15 -0.99 1.31
1 15 -15 -1.67 1.23
-1 15 -15 -1.94 1.23
-1 15 -15 -0.71 1.27
2 15 -15 11.42 1.8
2 15 -15 13.73 1.78
-2 15 -15 16.98 1.98
-2 15 -15 12.65 1.79
3 15 -15 16.51 1.95
3 15 -15 15.85 1.87
-3 15 -15 15.73 1.86
-3 15 -15 15.59 1.82
4 15 -15 -0.98 1.26
4 15 -15 0.98 1.35
-4 15 -15 1 1.46
-4 15 -15 2.02 1.42
5 15 -15 -3.42 1.31
5 15 -15 0.69 1.19
-5 15 -15 -1.27 1.48
-5 15 -15 1.49 1.52
6 15 -15 0.29 1.33
6 15 -15 2.47 1.35
-6 15 -15 -0.04 1.49
-6 15 -15 0.55 1.42
7 15 -15 2.31 1.46
7 15 -15 2.02 1.26
-7 15 -15 1.13 1.54
-7 15 -15 0.44 1.51
8 15 -15 8.41 1.55
8 15 -15 11.23 1.55
-8 15 -15 7.87 1.72
-8 15 -15 10.09 1.8
9 15 -15 5.65 1.55
9 15 -15 8.6 1.41
-9 15 -15 6.07 1.94
-9 15 -15 8.3 1.71
10 15 -15 3.77 2.46
-10 15 -15 4.52 2.85
-10 15 -15 3.85 1.74
-11 15 -15 3.61 1.74
-12 15 -15 3.12 2.38
0 -16 0 248.98 7.15
0 16 0 238.62 7.2
0 16 0 248.23 7.24
0 16 1 7.22 1.16
0 16 1 8.37 1.2
0 -16 -1 6.9 0.9
0 -16 1 8.83 1.08
0 16 -1 7.07 1.11
0 16 -1 6.42 1.16
0 16 -2 0.42 0.85
0 16 2 -0.19 0.88
0 -16 2 0.72 0.62
0 16 2 0.27 0.89
0 -16 -2 0.58 0.55
0 16 -2 -0.24 0.9
0 16 -3 18.11 1.62
0 -16 -3 21.6 1.3
0 -16 3 20.27 1.46
0 16 3 20.1 1.57
0 16 -3 19.41 1.56
0 16 3 18.68 1.59
-16 -4 0 -0.66 0.75
0 -16 -4 0.24 0.58
0 16 -4 -1.22 0.88
0 16 4 0.2 0.9
0 16 -4 0.73 0.95
0 16 4 2.06 1.03
0 -16 4 1.99 0.77
0 16 -5 112.4 3.97
0 -16 -5 121.57 3.78
0 -16 5 118.43 3.99
0 16 5 114.51 3.99
0 16 -5 118.3 3.98
0 16 -6 77.32 3.12
0 16 -6 77.91 3.1
0 -16 6 86.21 3.12
0 16 6 82.81 3.16
0 -16 -6 85.31 2.88
-16 -6 0 85.91 2.99
-16 -7 0 -0.46 0.98
0 -16 -7 0.9 0.67
0 16 -7 1.18 0.97
0 16 7 0.43 0.98
0 -16 7 1.32 0.8
0 16 -7 -0.84 0.97
0 16 -8 13.54 1.59
0 16 8 13.59 1.58
0 16 -8 11.6 1.44
-16 -8 0 13.95 1.75
0 -16 -8 13.56 1.23
0 -16 8 11.08 1.4
0 16 9 0.38 1.16
0 -16 -9 1.64 0.7
-16 -9 0 -0.57 1.16
0 16 -9 1.23 1.17
0 16 -9 -0.01 1.08
0 16 -10 14.84 1.68
0 16 10 15.3 1.8
0 16 -10 17.38 1.77
-16 -10 0 9.67 1.89
0 16 -11 83.76 3.46
0 16 11 88.03 3.58
0 16 12 1.06 1.35
0 16 -12 2.49 1.34
0 16 -12 2.34 1.37
0 16 -13 6.89 1.52
0 16 -13 9.75 1.9
0 16 13 9.15 1.93
0 16 14 6.98 1.67
0 16 -14 3.54 1.51
0 16 -14 6.42 1.64
0 16 -15 -0.49 1.49
0 16 -15 -1.52 1.34
1 16 0 7.26 1.13
-1 -16 0 6.83 0.9
0 -1 16 6.58 0.73
1 -16 0 8.07 1.02
-1 16 0 6.34 1.12
1 16 0 6.64 1.07
-1 16 0 9.14 1.2
-1 16 1 8.06 1.19
1 16 -1 7.64 1.16
-1 16 1 6.33 1.13
1 -16 1 9.87 1
-1 -16 -1 8.16 1.03
1 16 -1 8.58 1.21
-1 -1 16 7.64 0.79
-1 -16 1 8.9 1.02
-1 16 -1 9.58 1.21
-1 16 -1 7.27 1.16
1 -16 -1 9.96 1.05
1 16 1 7.38 1.18
1 16 1 7.61 1.15
-1 -16 -2 2.86 0.72
1 16 -2 0.85 0.87
-1 16 2 2.61 0.99
-1 16 2 0.57 0.94
1 -16 2 2.75 0.72
1 16 -2 1.79 0.91
1 16 2 1.66 0.92
-1 16 -2 2.57 1.02
-1 16 -2 2.16 0.99
-1 -16 2 2.04 0.75
1 16 2 2.52 0.95
1 -16 -2 1.49 0.58
1 16 -3 6.76 1.17
-1 -16 -3 6.44 0.9
1 -16 3 7.79 0.93
1 16 -3 7.7 1.18
-1 16 3 7.22 1.2
-1 16 3 7.18 1.2
1 16 3 8.64 1.2
-1 16 -3 7.13 1.22
-1 16 -3 7.65 1.17
-1 -16 3 8.29 1.08
1 -16 -3 7.4 0.98
1 16 3 7.59 1.18
-1 16 4 8.2 1.26
1 -16 4 8.24 1.61
-1 16 4 6.38 1.16
-1 -16 -4 7.11 0.86
1 16 -4 8.7 1.17
1 16 -4 7.82 1.2
-16 -4 -1 6.14 0.95
-16 -4 1 7.46 0.81
1 16 4 9.25 1.26
-1 16 -4 6.99 1.22
-1 16 -4 7.8 1.19
1 -16 -4 7.81 0.96
1 16 4 6.56 1.12
-1 -16 4 7.72 1.07
-16 -5 -1 13.68 1.38
-1 16 5 12.31 1.45
1 16 -5 12.19 1.38
-1 -16 -5 11.72 1.17
1 -16 5 9.96 1.32
1 16 -5 14.05 1.45
1 16 5 13.44 1.48
1 -16 -5 11.47 1.08
-1 -16 5 12.87 1.28
-1 16 -5 12.51 1.51
-1 16 -5 12.36 1.39
-1 -16 -6 0 0.66
-16 -6 -1 2.03 0.94
1 16 -6 2.04 1.01
1 16 -6 0.32 0.98
1 -16 6 1.31 0.8
-1 16 6 0.45 1.06
1 16 6 0.67 1.05
1 -16 -6 0.64 0.64
-1 16 -6 1.31 0.96
-1 16 -6 1.1 1.1
-1 -16 6 -0.78 0.7
-16 -6 1 1.15 0.84
1 16 -7 12.71 1.46
-1 -16 -7 14.91 1.28
-1 16 7 15.83 1.61
1 -16 7 10.78 1.32
1 16 -7 14.24 1.54
-16 -7 -1 14.39 1.67
1 -16 -7 15.08 1.15
1 16 7 13.9 1.52
-16 -7 1 13.87 1.6
-1 -16 7 14.46 1.53
-1 16 -7 14.17 1.59
-1 16 -7 12.7 1.44
1 16 -8 2.1 1.12
1 16 -8 0.09 1.07
1 -16 8 1.13 0.85
-1 16 8 1.65 1.15
-1 -16 -8 2.15 0.76
-16 -8 -1 0.4 1.04
-1 16 -8 0.85 1.1
-1 -16 8 1.08 0.91
-1 16 -8 2.71 1.15
-16 -8 1 2.52 1.13
1 16 8 1.1 1.1
1 -16 -8 1.81 0.63
-16 -9 -1 3.93 1.24
-1 16 9 4.63 1.31
-1 -16 -9 4.4 0.87
1 16 -9 2.92 1.23
1 16 -9 3.86 1.22
1 16 9 4.42 1.27
-16 -9 1 2.55 1.18
-1 16 -9 3.41 1.24
-1 16 -9 3.21 1.22
1 16 -10 1.9 1.22
-1 16 10 2.98 1.26
1 16 -10 2.97 1.26
1 16 10 1.61 1.28
-16 -10 1 2.67 1.31
-1 16 -10 2.46 1.25
-1 16 -10 2.9 1.27
1 16 -11 7.11 1.43
-1 16 11 8.27 1.45
1 16 11 7.94 1.52
-1 16 -11 8.3 1.49
-1 16 12 0.68 1.29
1 16 -12 1.6 1.3
1 16 -12 1.61 1.25
1 16 12 1.97 1.32
-1 16 -12 1.9 1.31
-1 16 -12 1.15 1.33
-1 16 13 -0.54 1.87
1 16 -13 2.75 1.39
1 16 -13 1.36 1.47
-1 16 -13 -0.63 1.37
-1 16 -13 -0.62 1.8
1 16 13 1.91 1.59
1 16 -14 -2.79 1.22
-1 16 14 2.95 1.49
1 16 -14 -0.41 1.31
-1 16 -14 3.5 1.4
1 16 14 -1.26 1.41
-1 16 -14 1.05 1.38
1 16 -15 3 1.41
1 16 -15 4.43 1.56
-1 16 -15 1.25 1.43
-1 16 -15 3.98 1.56
2 -16 0 1.1 0.55
2 16 0 -0.35 0.87
0 -2 16 0.46 0.65
-2 16 0 -0.16 0.93
-2 -16 0 0.11 0.67
2 16 0 -0.93 0.8
-2 16 0 -0.46 0.92
2 16 -1 1.45 0.89
2 16 -1 0.56 0.88
-2 -16 -1 2.3 0.7
-2 16 1 2.03 1.01
-2 16 1 0.71 0.99
2 -16 1 2.83 0.7
-2 16 -1 1.93 0.99
2 16 1 2.43 0.99
-1 -2 16 1.02 0.59
-2 16 -1 1.38 0.99
-2 -16 1 2.24 0.7
2 16 1 2.11 0.96
2 -16 -1 2.12 0.59
2 -16 2 14.45 1.26
-2 -16 -2 16.79 1.26
-2 16 2 14.91 1.47
2 16 -2 12.78 1.37
-2 16 2 15.37 1.5
2 16 -2 15.37 1.42
-2 -16 2 14.62 1.29
-2 16 -2 16.44 1.51
2 -16 -2 16.51 1.15
-2 16 -2 15.4 1.6
2 16 2 14.57 1.42
2 16 2 16.03 1.38
-2 -2 16 15.49 0.95
-2 16 3 12.07 1.36
2 16 -3 11.34 1.32
2 -16 3 11.05 1.19
-2 -16 -3 10.93 1.16
-2 16 3 12.14 1.45
2 16 -3 11.32 1.37
-2 16 -3 12.56 1.38
-2 -16 3 13.23 1.35
2 -16 -3 13.44 1.08
2 16 3 11.33 1.35
2 16 3 11.76 1.35
-2 16 -3 11.29 1.33
-2 -16 -4 6.17 0.89
2 16 -4 6.57 1.15
-2 16 4 9.15 1.25
2 -16 4 8.44 1.11
2 16 -4 8.15 1.16
-2 16 4 6.13 1.23
-16 -4 -2 6.07 0.98
2 16 4 5.77 1.08
2 16 4 7.01 1.14
-2 16 -4 7.78 1.28
2 -16 -4 6.54 0.76
-2 -16 4 7.18 1.03
-2 16 -4 6.01 1.21
-2 -16 -5 2.32 0.64
2 -16 5 1.86 0.74
2 16 -5 3.05 0.99
-2 16 5 2.81 1.05
2 16 -5 2.06 0.97
-16 -5 -2 2.84 0.88
2 16 5 4.24 1.07
-2 -16 5 4.32 0.91
-16 -5 2 3.55 0.8
2 -16 -5 2.33 0.62
-2 16 -5 2.99 1.13
-2 16 -5 2.44 1.03
2 -16 6 1.55 0.83
-16 -6 -2 0.81 0.95
-2 -16 -6 0.67 0.73
-2 16 6 1.05 1.04
2 16 -6 0 0.92
2 16 -6 0.61 1.01
-2 16 -6 1.67 1
-2 -16 6 0.9 0.83
2 -16 -6 1.45 0.59
2 16 6 1.24 1.05
-16 -6 2 -0.65 0.82
-2 16 -6 -0.82 0.97
2 -16 7 12.33 1.3
2 16 -7 12.11 1.47
-2 16 7 12.65 1.48
-16 -7 -2 16.19 1.72
2 16 -7 11.23 1.41
-2 -16 -7 14.34 1.3
2 -16 -7 13.84 1.02
-2 16 -7 13.24 1.49
-2 -16 7 12.68 1.37
-16 -7 2 12.04 1.25
2 16 7 10.99 1.42
-2 16 -7 12.52 1.47
2 -16 8 6.86 1.09
-2 -16 -8 10.05 1.31
-2 16 8 8.54 1.38
2 16 -8 7.77 1.3
-16 -8 -2 6.66 1.18
2 16 -8 10.12 1.34
-2 16 -8 8 1.35
-2 -16 8 7.67 1.36
2 16 8 9.54 1.38
-2 16 -8 7.81 1.33
-16 -8 2 8.5 1.25
-2 16 9 4.75 1.33
2 16 -9 3.56 1.19
2 16 -9 3.23 1.24
-2 -16 -9 2.56 0.88
-16 -9 -2 4.42 1.28
2 16 9 0.87 1.1
-16 -9 2 1.42 1.27
-2 16 -9 4.41 1.24
-2 16 -9 4.67 1.32
-2 -16 -10 4.56 0.93
2 16 -10 3.43 1.27
2 16 -10 3.99 1.23
-2 16 10 2.79 1.28
-2 16 -10 2.52 1.3
2 16 10 3.88 1.27
-16 -10 2 3.5 1.36
-2 16 -10 2.46 1.22
2 16 -11 -0.06 1.48
2 16 -11 -0.55 1.15
-2 16 11 0.55 1.27
2 16 11 1.91 1.3
-2 16 -11 -1.4 1.24
-2 16 -11 1.7 1.53
-2 16 12 1.45 1.37
2 16 -12 0.71 1.29
2 16 -12 0.98 1.21
2 16 12 -0.24 1.31
-2 16 -12 1.63 1.35
-2 16 -12 0.83 1.32
2 16 -13 1.45 1.37
2 16 -13 3.25 1.89
-2 16 -13 1.18 1.32
-2 16 14 7.41 1.67
2 16 -14 6.13 1.56
2 16 -14 7.46 1.53
2 16 14 3.1 1.53
-2 16 -14 3.18 1.58
-2 16 -14 4.62 1.53
2 16 -15 1.42 1.48
2 16 -15 1.61 1.4
-2 16 -15 -0.41 1.49
-2 16 -15 3.2 1.55
3 16 0 20.13 1.49
0 -3 16 19.49 1.72
-3 16 0 19.85 1.61
-3 -16 0 21.26 1.43
-3 16 0 19.89 1.61
3 16 0 20.52 1.49
3 -16 0 17.61 1.2
3 -16 1 7.78 0.9
-3 16 1 7.65 1.21
-3 -16 -1 7.77 1.32
3 16 -1 6.68 1.08
3 16 -1 7.61 1.08
-3 16 1 9.09 1.19
-3 16 -1 6.97 1.14
3 -16 -1 9.24 0.96
3 16 1 7.54 1.1
-3 -16 1 7.29 1.04
-1 -3 16 7.34 0.85
3 16 1 7.85 1.14
-3 16 -1 7.68 1.19
3 -16 2 12.49 1.18
-3 16 2 12.33 1.44
-3 16 2 12.75 1.58
-3 -16 -2 10.98 1.21
3 16 -2 12.08 1.29
3 16 -2 12.37 1.32
3 -16 -2 8.43 0.99
-3 16 -2 13.42 1.44
3 16 2 11.03 1.3
-2 -3 16 11.15 1.03
3 16 2 11.46 1.29
-3 16 -2 11.27 1.35
-3 -16 2 12.52 1.36
3 -16 3 23.81 1.5
-3 16 3 29.02 1.82
3 16 -3 27.68 1.65
3 16 -3 24.46 1.64
-3 16 3 24.54 1.75
-3 -16 -3 28.3 1.6
-3 16 -3 27.03 1.8
-3 16 -3 26.36 1.76
-3 -16 3 26.46 1.63
3 16 3 25.09 1.64
3 -16 -3 25.9 1.37
3 16 3 25.85 1.62
-3 16 4 1.92 1.03
3 16 -4 0.64 0.9
-16 -4 -3 -0.46 0.8
-3 -16 -4 1.4 0.69
-3 16 4 2 1.02
3 -16 4 1.78 0.66
3 16 -4 0.67 0.88
3 -16 -4 1.47 0.61
-3 16 -4 1.82 1.06
3 16 4 0.8 0.87
-3 16 -4 1.18 1.03
3 16 4 0.85 0.92
-3 -16 4 3.64 0.91
-3 -16 -5 2.3 0.73
3 16 -5 3.05 1.02
-16 -5 -3 3.62 0.96
3 -16 5 1.07 0.72
3 16 -5 2.71 0.98
-3 16 5 2.48 1.08
3 16 5 2.22 1.02
-3 -16 5 2.3 0.86
-3 16 -5 4.07 1.09
3 -16 -5 4.77 0.7
-3 16 -5 2.78 1.12
3 -16 6 3.83 0.95
-16 -6 -3 4.05 1.05
-3 16 6 4.09 1.15
-3 -16 -6 4.16 0.78
3 16 -6 5.01 1.09
3 16 -6 3.42 1.08
-3 16 -6 4.57 1.25
-3 16 -6 2.4 1.12
3 -16 -6 4.75 0.67
-3 -16 6 3.51 0.89
3 16 6 4.75 1.13
3 16 -7 0.02 1
-16 -7 -3 -2.42 0.94
-3 16 7 0.08 1.07
3 16 -7 0.81 1.03
-3 -16 -7 -1.04 0.67
3 -16 7 1.13 0.84
3 16 7 0.16 0.95
-16 -7 3 0.97 1.27
-3 16 -7 -0.17 1.04
-3 -16 7 -0.93 0.88
-3 16 -7 -0.77 0.98
3 -16 8 9 1.22
-3 16 8 11.72 1.55
3 16 -8 13.68 1.49
3 16 -8 11.13 1.4
-3 -16 -8 11.98 1.41
-16 -8 -3 12.15 1.44
-3 16 -8 9.96 1.48
-3 16 -8 12.12 1.51
3 16 8 10.62 1.4
-16 -8 3 7.14 1.37
-3 -16 -9 1.64 0.9
3 16 -9 2.05 1.14
-16 -9 -3 2.24 1.33
-3 16 9 1.8 1.28
3 16 -9 0.83 1.06
-3 16 -9 0.46 1.15
-16 -9 3 0.48 1.27
3 16 9 1.21 1.09
-3 16 -9 2.14 1.22
3 16 -10 4.35 1.27
-3 16 10 4.34 1.37
-3 -16 -10 3.35 0.99
3 16 -10 2.64 1.12
-3 16 -10 4.4 1.3
-3 16 -10 3.48 1.34
3 16 10 5.32 1.21
-16 -10 3 4.78 1.6
-3 16 11 5.31 1.46
3 16 -11 4.01 1.33
3 16 -11 5.31 1.38
3 16 11 2.58 1.3
-3 16 -11 5.45 1.38
-3 16 -11 4.2 1.39
3 16 -12 0.14 1.27
3 16 -12 1.86 1.21
-3 16 12 0.43 1.37
3 16 12 2.37 1.34
-3 16 -12 -0.26 1.27
-3 16 -12 0.83 1.27
3 16 -13 5.18 1.46
-3 16 -13 5.82 1.46
3 16 -14 12.04 1.72
3 16 -14 11.64 1.74
-3 16 14 12.27 1.92
-3 16 -14 10.62 1.67
-3 16 -14 8.88 1.71
3 16 -15 2.22 1.39
3 16 -15 1.22 1.42
-3 16 -15 0.19 1.54
-3 16 -15 -0.02 1.37
-4 16 0 -0.42 1
-4 -16 0 -0.66 0.74
-4 16 0 -0.19 0.9
4 -16 0 1.47 0.55
4 16 0 1.85 0.88
0 -4 16 0.19 0.75
4 16 0 1.82 0.86
-4 16 1 7.64 1.19
4 16 -1 8.19 1.12
4 16 -1 6.4 1.07
4 -16 1 6.72 0.82
-4 16 1 8.2 1.28
4 16 1 9.24 1.08
-4 16 -1 6.49 1.2
-4 -16 1 5.53 0.9
-4 16 -1 7.17 1.21
4 -16 -1 5.78 0.75
-1 -4 16 7.83 0.97
4 16 1 6.51 1.03
-4 -16 -2 6.8 0.94
-4 16 2 5.95 1.2
4 -16 2 6.49 0.84
-4 16 2 5.04 1.15
4 16 -2 7.25 1.02
4 16 -2 6.83 1.08
-2 -4 16 5.67 0.88
4 16 2 6.16 1.04
-4 16 -2 7.24 1.19
4 16 2 6.95 1.06
-4 -16 2 7.19 1.04
-4 16 -2 5.82 1.2
4 -16 -2 7.63 0.92
-4 16 3 0.64 0.98
-4 -16 -3 1.21 0.69
4 16 -3 0.13 0.84
4 -16 3 2.09 0.76
4 16 -3 2.76 0.97
-4 16 3 1.5 1.01
4 -16 -3 2.34 0.59
-4 16 -3 1.18 1.03
-3 -4 16 0.41 0.66
-4 -16 3 0.73 0.8
4 16 3 1.85 0.89
4 16 3 2.2 0.86
-4 16 -3 0.4 1.02
-4 16 4 10.86 1.39
-16 -4 -4 9.39 1.13
-4 16 4 12.45 1.47
4 -16 4 9.56 1.19
4 16 -4 11.97 1.29
4 16 -4 11.52 1.3
-4 -16 -4 12.44 1.27
4 16 4 12.27 1.39
-4 -16 4 9.66 1.17
4 16 4 10.51 1.29
-4 16 -4 11.27 1.35
-4 16 -4 11.76 1.38
4 16 -5 2.31 1
-16 -5 -4 1.34 0.92
-4 -16 -5 2.29 0.8
4 16 -5 2.79 1
4 -16 5 0.87 0.71
-4 16 5 0.72 1.06
-4 -16 5 1.19 0.84
-4 16 -5 0.45 1.06
-4 16 -5 0.61 1.07
4 16 5 0.06 0.88
-4 -16 -6 10.63 1.17
4 -16 6 8.53 1.07
-16 -6 -4 8.96 1.32
-4 16 6 8.84 1.34
4 16 -6 9.49 1.27
4 16 -6 9.05 1.27
-4 -16 6 9.94 1.25
4 16 6 11.63 1.44
-4 16 -6 8.81 1.3
-4 16 -6 9.26 1.4
4 16 -7 8.15 1.25
-16 -7 -4 7.67 1.29
4 16 -7 8.02 1.34
4 -16 7 7.9 1.1
-4 16 7 6.3 1.32
-4 -16 -7 6.24 0.98
-4 16 -7 6.47 1.32
4 16 7 7.69 1.25
-4 16 -7 7.6 1.33
-4 -16 7 5.39 1.18
-4 16 8 0.96 1.11
4 16 -8 -0.42 0.96
4 16 -8 -0.2 0.94
-16 -8 -4 2.4 1.14
-4 -16 -8 0.47 0.94
4 16 8 -0.04 1.04
-4 16 -8 0.7 1.14
-4 16 -8 0.72 1.09
-4 16 9 4.81 1.32
4 16 -9 3.9 1.19
4 16 -9 4.46 1.26
-4 -16 -9 4.78 1.02
-4 16 -9 3.92 1.29
4 16 9 3.02 1.19
-4 16 -9 4.02 1.28
4 16 -10 1.44 1.09
4 16 -10 3.68 1.17
-4 16 10 2.12 1.32
-4 16 -10 1.7 1.18
-4 16 -10 1.13 1.25
4 16 10 1.25 1.16
4 16 -11 2.62 1.31
-4 16 11 -0.21 1.31
4 16 -11 2.6 1.29
4 16 11 1.72 1.19
-4 16 -11 1 1.28
-4 16 -11 3.01 1.28
4 16 -12 11.82 1.69
-4 16 12 14.74 1.84
4 16 -12 14.67 1.77
4 16 12 12.1 1.63
-4 16 -12 9.27 1.68
-4 16 -12 14.96 1.75
4 16 -13 -0.04 1.35
-4 16 13 1.11 1.95
-4 16 -13 1.1 1.37
-4 16 -13 0.71 1.48
4 16 13 -1.51 1.66
4 16 -14 1.01 1.36
-4 16 14 2.65 1.53
4 16 -14 2.67 1.41
-4 16 -14 3.25 1.54
-4 16 -14 -0.93 1.44
4 16 -15 9.11 1.55
4 16 -15 6.92 1.68
-4 16 -15 8.71 1.67
-4 16 -15 7.53 1.78
-5 -16 0 124.42 4.06
-5 16 0 123.51 4.04
5 -16 0 115.89 3.79
-5 16 0 115.94 4.01
0 -5 16 119.09 3.86
5 16 0 120.98 3.92
5 16 0 116.91 3.89
5 16 -1 11.59 1.34
-5 16 1 13.19 1.48
-5 16 1 13.01 1.38
5 -16 1 15.99 1.14
-5 -16 -1 12.16 1.41
5 16 -1 13.78 1.37
5 16 1 12.75 1.28
5 16 1 13.2 1.25
-5 16 -1 14.6 1.5
-1 -5 16 13.78 1.33
-5 -16 1 13.05 1.37
-5 16 -1 13.78 1.51
5 -16 -1 13.42 1.07
-5 16 2 2.82 1.01
-5 -16 -2 1.35 0.76
-5 16 2 4.07 1.07
5 16 -2 2.77 0.91
5 -16 2 2.56 0.7
5 16 -2 2.13 0.82
-5 16 -2 3.95 1.04
-2 -5 16 2.35 0.82
5 -16 -2 2.2 0.61
-5 -16 2 4.61 0.89
5 16 2 2.04 0.86
-5 16 -2 2.82 1.11
5 16 2 3.89 0.98
5 16 -3 4.04 0.93
-5 -16 -3 3.21 0.86
-5 16 3 1.11 1.05
-5 16 3 2.99 1.11
5 16 -3 1.65 0.97
5 -16 3 1.93 0.75
-5 16 -3 3.02 1.12
5 16 3 2.77 0.91
-5 -16 3 2.53 0.86
5 16 3 2.61 0.91
5 -16 -3 2.89 0.96
-5 16 -3 2.39 1.15
-16 -4 -5 0.33 0.92
5 16 -4 1.48 0.87
-5 -16 -4 3.19 0.79
5 16 -4 1.49 0.96
5 -16 4 0.2 0.74
-5 16 4 1.9 1.08
-5 16 -4 2.58 1.12
5 16 4 1.7 0.91
-5 -16 4 1.4 0.81
-5 16 -4 0.88 1.12
-5 16 5 68.41 2.87
-16 -5 -5 74.05 2.87
-5 -16 -5 69.23 2.8
5 16 -5 68.45 2.78
5 16 -5 69.18 2.72
-5 16 -5 68.24 2.87
-5 -16 5 74.05 2.97
-5 16 -5 70.95 2.87
5 16 5 72.38 2.74
5 16 -6 31.95 1.86
-5 -16 -6 37.87 1.88
5 16 -6 31.49 1.91
-5 16 6 34.99 2.05
-16 -6 -5 34.67 2.06
-5 -16 6 33.06 2.09
-5 16 -6 28.74 1.97
-5 16 -6 31.48 1.97
5 16 6 32.18 1.93
-5 16 7 -0.02 1.08
5 16 -7 1.57 1.01
-16 -7 -5 0.61 1.05
5 16 -7 0.44 0.98
-5 -16 -7 0.14 0.85
5 16 7 0.42 0.91
-5 16 -7 0.48 1.1
-5 16 -7 0.46 1.05
5 16 -8 19.53 1.62
-5 16 8 21.46 1.84
-5 -16 -8 26.04 1.72
5 16 -8 19.61 1.65
5 16 8 19.89 1.65
-5 16 -8 19.51 1.79
-5 16 -8 18.28 1.8
5 16 -9 0.4 1.09
-5 16 9 1.58 1.26
5 16 -9 0.79 0.99
-5 16 -9 -1.25 1.08
5 16 9 0.03 1.04
-5 16 -9 0.26 1.19
-5 16 10 13.6 1.61
5 16 -10 13.12 2.51
5 16 -10 10.61 1.45
-5 16 -10 12.56 1.64
5 16 10 12.84 1.56
5 16 -11 53.82 2.73
5 16 -11 54.25 2.55
-5 16 11 61.08 2.85
-5 16 -11 52.08 2.71
5 16 11 55.31 2.72
5 16 -12 1.47 1.22
-5 16 12 1.7 1.5
5 16 -12 -1.17 1.15
5 16 12 -1.27 1.09
-5 16 -12 -0.93 1.21
-5 16 -12 0.23 1.39
5 16 -13 0.08 1.29
-5 16 13 4.7 1.56
5 16 -13 0.12 1.55
-5 16 -13 0.4 1.37
-5 16 -13 1.84 1.48
5 16 13 3.03 1.42
5 16 -14 0.73 1.22
5 16 -14 -0.59 1.42
-5 16 -14 0.54 1.58
-5 16 -14 0.44 1.51
5 16 -15 -0.59 1.42
5 16 -15 -0.56 1.3
-5 16 -15 -2.25 1.48
-5 16 -15 -0.5 1.43
6 16 0 85.09 3
-6 16 0 80.74 3.09
-6 -16 0 85.17 3.18
6 -16 0 81.37 2.83
-6 16 0 83.43 3.15
0 -6 16 79.87 2.96
6 16 0 82.2 2.93
-6 16 1 0.85 1.03
6 -16 1 0.41 0.64
6 16 -1 0.96 0.76
6 16 -1 1.49 0.81
-6 -16 -1 1.56 0.77
-6 16 1 -0.04 0.97
6 -16 -1 1.48 0.62
-6 16 -1 1.33 1.03
6 16 1 2.19 0.86
-1 -6 16 1.43 0.89
-6 16 -1 0.4 0.96
-6 -16 1 1.61 0.89
6 16 1 2.97 0.82
-6 16 2 1.19 0.94
-6 16 2 0.66 0.98
6 16 -2 0.15 0.71
-6 -16 -2 -0.75 0.74
6 -16 2 1.45 0.76
6 16 -2 2.42 0.82
6 -16 -2 1.04 0.55
-6 -16 2 1.86 0.86
-2 -6 16 0.62 0.84
-6 16 -2 0.5 1
6 16 2 0.77 0.76
-6 16 -2 0.91 0.99
6 16 2 1.34 0.8
6 16 -3 4.67 0.9
6 16 -3 3.91 0.95
-6 16 3 5.93 1.23
-6 16 3 3.67 1.05
-6 -16 -3 2.48 0.88
-3 -6 16 4.59 0.96
6 16 3 4.1 0.97
-6 16 -3 3.71 1.1
-6 16 -3 5.47 1.18
6 16 3 4.02 0.92
-6 -16 3 4.96 1.01
-6 16 4 9.56 1.27
-6 -16 -4 9.8 1.14
6 16 -4 8.51 1.16
6 16 -4 9.64 1.15
-6 16 -4 10.97 1.4
6 16 4 9.36 1.16
-6 16 -4 8.48 1.32
-6 -16 4 9.89 1.28
6 16 -5 36.03 1.89
-16 -5 -6 30.69 2.04
6 16 -5 31.72 1.74
-6 16 5 34.62 2.01
-6 -16 -5 33.63 1.9
-6 16 -5 34.63 1.99
-6 16 -5 33.61 2.07
-6 -16 5 30.78 2.07
6 16 5 33.19 1.94
-6 -16 -6 11.12 1.24
-16 -6 -6 13.47 1.75
6 16 -6 11.32 1.33
-6 16 6 13.58 1.58
6 16 -6 10.35 1.26
-6 16 -6 10.07 1.39
6 16 6 10.71 1.31
-6 16 -6 11.45 1.44
-6 16 7 2.38 1.2
-6 -16 -7 2.47 0.97
6 16 -7 2.13 1.06
6 16 -7 1.79 0.99
-16 -7 -6 1.75 1.22
-6 16 -7 4.32 1.23
-6 16 -7 1.48 1.25
6 16 7 1.75 1
6 16 -8 11.44 1.38
-6 16 8 11.1 1.57
6 16 -8 11.17 1.38
-6 16 -8 12.86 1.61
6 16 8 10.64 1.45
-6 16 -8 10.68 1.52
-6 16 9 -0.23 1.2
6 16 -9 -1.03 1.02
6 16 -9 0.74 1.05
-6 16 -9 0.15 1.22
6 16 9 -0.83 1.04
-6 16 -9 1.02 1.2
-6 16 10 2.57 1.32
6 16 -10 1.58 1.04
-6 16 -10 2.69 1.35
-6 16 -10 0.79 1.38
6 16 10 3.86 1.22
-6 16 11 27.38 2.16
6 16 -11 29.78 2.03
6 16 -11 29.68 2.08
-6 16 -11 26.57 2.15
6 16 11 26.59 2.02
-6 16 -11 27.41 2.24
6 16 -12 5.37 1.26
6 16 12 7.68 2.3
-6 16 -12 1.52 1.45
6 16 -13 0.71 1.23
6 16 -13 2.3 1.29
-6 16 13 2.43 1.5
-6 16 -13 1.64 1.44
-6 16 -13 2.37 1.5
6 16 -14 -0.46 1.31
6 16 -14 -0.52 1.28
-6 16 -14 0.29 1.38
-6 16 -14 -2.27 1.46
6 16 -15 5.14 1.37
6 16 -15 -1.15 1.29
-6 16 -15 -1.36 1.6
-6 16 -15 1.14 1.47
0 -7 16 1.59 0.99
-7 16 0 0.34 0.89
7 -16 0 -0.9 0.58
-7 16 0 0.37 1.05
7 16 0 1.32 0.7
7 16 0 -0.48 0.68
-7 -16 0 1.87 0.87
-7 16 1 14.12 1.49
-7 16 1 14.14 1.52
-7 -16 -1 15.27 1.43
7 16 -1 12.41 1.27
7 16 -1 15.89 1.34
7 16 1 15.11 1.22
7 -16 -1 17.11 1.08
-7 16 -1 14.02 1.49
-7 16 -1 14.85 1.52
-7 -16 1 14.41 1.44
7 16 1 10.9 1.25
-1 -7 16 14.42 1.56
7 16 -2 13.29 1.17
7 16 -2 13.67 1.2
-7 16 2 12.34 1.42
-7 -16 -2 12.98 1.52
-7 16 2 12.84 1.42
7 -16 -2 11.66 0.99
-2 -7 16 10.07 1.22
7 16 2 13.56 1.18
7 16 2 12.83 1.3
-7 16 -2 13.36 1.44
-7 -16 2 13.84 1.42
-7 16 -2 11.73 1.38
-7 16 3 -0.14 0.96
-7 16 3 -0.51 0.96
7 16 -3 0.2 0.74
7 16 -3 -0.71 0.75
-7 -16 -3 0.21 0.76
-7 16 -3 0.05 1
-7 -16 3 0.85 0.99
-3 -7 16 -0.41 0.94
7 16 3 0.75 0.72
-7 16 -3 -0.36 0.95
7 16 3 1.52 0.82
-7 -16 -4 6.55 1.08
7 16 -4 7.4 1.05
7 16 -4 7.93 1.04
-7 16 4 7.06 1.27
-7 -16 4 5.48 1.12
-4 -7 16 7.8 1.35
7 16 4 6.33 1.02
-7 16 -4 7.24 1.25
-7 16 -4 7.99 1.26
7 16 -5 1.22 0.83
-7 16 5 0.27 1.07
7 16 -5 1.14 0.8
-16 -5 -7 -1.4 0.99
-7 -16 -5 -0.25 0.88
-7 16 -5 0.47 1.06
-7 16 -5 -0.2 1.09
7 16 5 0.3 0.86
-7 16 6 1.7 1.1
-16 -6 -7 2.33 1.23
7 16 -6 2.52 1
7 16 -6 2.37 0.85
7 16 6 2.4 0.9
-7 16 -6 2.63 1.2
-7 16 -6 2.65 1.19
7 16 -7 10.56 1.24
7 16 -7 10.44 1.26
-7 16 7 7.42 1.35
-7 16 -7 9.97 1.43
7 16 7 9.38 1.24
-7 16 -7 10.09 1.5
7 16 -8 5.56 1.16
-7 16 8 4.28 1.31
7 16 -8 3.71 1.06
-7 16 -8 4.91 1.38
7 16 8 4.14 1.17
-7 16 -8 3.82 1.25
7 16 -9 10.03 1.34
7 16 -9 8.75 1.37
-7 16 9 8.44 1.54
-7 16 -9 8.24 1.42
-7 16 -9 10.25 2.33
7 16 9 9.93 1.36
7 16 -10 4.39 1.16
-7 16 10 3.82 1.4
7 16 -10 2.54 1.15
7 16 10 4.44 1.2
-7 16 -10 7.21 1.45
-7 16 -10 4.6 1.46
7 16 -11 1.34 1.14
-7 16 11 0.95 1.38
7 16 -11 -1.76 1.06
11 7 -16 -1.51 0.77
7 16 11 1.31 1.09
-7 16 -11 3.03 1.49
-7 16 -11 -1.55 1.25
7 16 -12 4.82 1.32
-7 16 12 7.09 2.61
-7 16 -12 5.11 1.52
7 16 12 2.97 1.66
-7 16 -12 7.74 1.66
-7 16 13 2.02 1.46
7 16 -13 -2.02 1.2
7 16 -13 1.17 1.21
-7 16 -13 1.48 1.54
-13 7 -16 -2.09 1.53
-7 16 -13 1.21 1.38
7 16 -14 1.75 1.28
7 16 -14 1.16 1.38
-7 16 -14 0.7 1.49
-7 16 -14 -0.57 1.5
7 16 -15 3.31 1.45
-7 16 -15 5.78 1.68
-7 16 -15 2.27 1.65
-8 16 0 12.46 1.46
0 -8 16 12.87 1.66
-8 -16 0 12.67 1.6
8 16 0 15.72 1.2
8 16 0 11.36 1.18
-8 16 0 13.5 1.63
8 16 -1 1.1 0.64
8 16 -1 2.86 0.82
1 -8 16 1.31 1.01
-8 -16 -1 0.47 0.95
-8 16 1 0.88 1.06
-8 16 1 1.06 0.98
8 16 1 2.63 0.75
-8 -16 1 1.2 1
-8 16 -1 2.12 1.05
-8 16 -1 0.75 1
-1 -8 16 -0.07 1
8 16 1 1.02 0.76
-8 16 2 7.72 1.27
-8 -16 -2 7.45 1.11
-8 16 2 7.02 1.23
8 16 -2 8.83 1.02
8 16 -2 7.33 1
-2 -8 -16 7.65 0.96
-8 16 -2 8.5 1.32
-8 16 -2 9.16 1.29
-8 -16 2 8.33 1.28
-2 -8 16 8.28 1.2
8 16 2 8.9 1.06
8 16 2 9.24 1.09
-8 16 3 12.26 1.44
-3 -8 -16 9.68 1.11
8 16 -3 10.85 1.17
8 16 -3 9.4 1.17
-8 -16 -3 13.53 1.99
-8 16 -3 11.54 1.34
-8 16 -3 12.29 1.42
8 16 3 12.4 1.28
-3 -8 16 9.98 1.31
8 16 -4 1.12 0.75
-8 16 4 0.64 1.02
8 16 -4 1.34 0.77
-4 -8 -16 -0.74 0.79
-4 -8 16 -0.15 1.16
8 16 4 2.33 0.83
-8 16 -4 0.22 1.03
-8 16 -4 -0.5 1.04
8 16 -5 19.1 1.43
8 16 -5 21.77 1.47
-8 16 5 20.7 1.75
-5 -8 -16 20.39 1.55
-8 16 -5 20.77 1.84
8 16 5 17.11 1.35
-8 16 -5 19.69 1.74
8 16 -6 10.34 1.7
-8 16 6 10.37 1.41
8 16 -6 11.38 1.29
8 16 6 10.75 1.31
-8 16 -6 11.67 1.54
-8 16 -6 12.85 1.49
-8 16 7 5.5 1.32
8 16 -7 4.96 0.92
8 16 -7 4.82 1.16
8 16 7 4.53 1.02
-8 16 -7 3.68 1.34
-8 16 -7 2.82 1.32
-8 16 8 14.8 1.84
8 16 -8 14.09 1.43
8 16 -8 16.11 1.61
8 16 8 12.37 1.55
-8 16 -8 13.51 1.61
-8 16 -8 13.72 1.73
-8 16 9 2.78 1.2
8 16 -9 2.4 1.02
8 16 9 2.23 1.01
-8 16 -9 3.51 1.47
-8 16 -9 0.66 1.62
10 8 -16 -1.85 0.83
8 16 -10 1.76 0.95
8 16 -10 0.21 1.12
-8 16 10 0.69 1.3
-8 16 -10 0.07 1.15
-8 16 -10 1.41 1.27
8 16 10 -0.74 1.07
-8 16 11 10.39 2.79
8 16 -11 9.16 1.36
8 16 -11 6.34 1.26
11 8 -16 10.32 1.26
-8 16 -11 9.01 1.66
8 16 11 9.13 1.59
8 16 -12 5.13 1.33
8 16 -12 4.67 1.27
-8 16 12 3.13 1.49
-12 8 -16 2.82 1.74
-8 16 -12 4.63 1.61
-8 16 -12 2.77 1.47
8 16 -13 1.68 1.18
8 16 -13 3.82 1.34
-8 16 -13 1.24 1.61
-13 8 -16 1.72 1.57
-8 16 -13 2.84 1.64
8 16 -14 1.23 1.36
8 16 -14 7.17 1.48
-8 16 -14 6.89 1.7
-8 16 -14 5.83 1.77
8 16 -15 0.9 1.32
8 16 -15 -2.3 1.44
-8 16 -15 2.47 1.82
-8 16 -15 0.33 1.68
-9 16 0 0.76 1.02
9 16 0 1.2 0.75
-9 16 0 1.81 1.11
9 16 0 0.27 0.68
9 16 -1 5.56 0.8
-9 16 1 3.55 1.14
-1 -9 -16 2.76 0.83
1 -9 16 2.8 1.12
-9 16 1 4.98 1.19
9 16 -1 3.61 0.77
-1 -9 16 4.03 1.16
-9 16 -1 4.35 1.16
9 16 1 4.54 0.86
9 16 1 4.15 0.78
-9 16 -1 5.61 1.17
9 16 -2 4.53 0.87
-9 16 2 3.87 1.17
9 16 -2 4.34 0.81
-2 -9 -16 3.21 0.87
-9 16 -2 4.7 1.13
-9 16 -2 3.95 1.15
-2 -9 16 4.05 1.2
9 16 2 5.37 0.94
-9 16 3 1.01 0.98
9 16 -3 1.96 0.75
9 16 -3 1.22 0.68
-3 -9 -16 1.06 0.83
-3 -9 16 1.43 1.17
-9 16 -3 0.7 1.02
-9 16 -3 2.43 1.12
9 16 3 1.97 0.77
-9 16 4 5 1.2
-4 -9 -16 5.06 0.98
9 16 -4 5.11 0.87
9 16 -4 4.39 0.87
-9 16 -4 3.15 1.17
-4 -9 16 3.58 1.31
9 16 4 3.27 0.87
-9 16 -4 2.36 1.16
9 16 -5 -0.07 0.69
9 16 -5 0.14 0.75
-9 16 5 -0.1 1.12
-9 16 -5 0.35 1.07
-9 16 -5 0.53 1.15
9 16 5 0.26 0.79
-9 16 6 -0.17 1.05
9 16 -6 0.46 0.82
9 16 -6 -0.19 0.75
9 16 6 3.36 0.88
-9 16 -6 0.68 1.11
-9 16 -6 2.47 1.18
-9 16 7 10.19 1.47
9 16 -7 8.72 1.07
9 16 -7 7.27 1.13
9 16 7 8.13 1.21
-9 16 -7 8.17 1.51
-9 16 -7 8.15 1.45
-9 16 8 3.38 1.22
9 16 -8 2.23 1.11
9 16 -8 1.71 0.91
-9 16 -8 0.68 1.23
9 16 8 2.45 1
-9 16 9 2.67 1.23
9 16 -9 4.65 1.06
9 9 -16 2.18 1.03
9 16 -9 0.62 1.09
-9 16 -9 2.66 1.44
9 16 9 3.05 1.11
-9 16 -9 5.85 1.45
10 9 -16 4.75 1.07
9 16 -10 5.53 1.13
-9 16 10 4.2 1.48
9 16 -10 5.31 1.17
-9 16 -10 6.58 1.59
9 16 10 3.77 1.14
-10 9 -16 2.62 1.37
-9 16 -10 5.98 1.49
9 16 -11 0.97 1.11
11 9 -16 0.54 1
-9 16 11 -1.18 1.44
-11 9 -16 -1.28 2.5
-11 9 -16 -0.97 1.59
-9 16 -11 1.2 1.48
-9 16 -11 0.48 1.46
-9 16 12 2.85 1.41
9 16 -12 2.1 1.32
9 16 -12 2.47 1.12
-12 9 -16 0.21 1.46
-9 16 -12 1.23 1.56
-9 16 -12 1.43 1.53
9 16 -13 -0.8 1.31
9 16 -13 3.11 1.25
-9 16 -13 1.4 1.55
-13 9 -16 2.41 1.62
-9 16 -13 2.7 1.68
9 16 -14 4.11 1.29
9 16 -14 0.49 1.33
-9 16 -14 1.51 1.74
-9 16 -14 0.38 1.58
9 16 -15 5.13 1.32
-9 16 -15 3.14 1.64
10 16 0 20.64 1.25
-10 16 0 17.58 1.63
-10 16 0 15.79 1.56
10 16 0 14.61 1.2
10 16 -1 5.68 0.84
-10 16 1 3.53 1.1
-10 16 1 4.59 1.22
10 16 -1 3.94 0.79
-10 16 -1 3.1 1.12
10 16 1 2.52 0.73
10 16 1 4.76 0.83
-10 16 -1 4.25 1.1
10 16 -2 3.93 0.79
-2 -10 -16 2.34 0.89
-10 16 2 2.18 1.15
10 16 -2 5.52 0.81
-10 16 -2 3.81 1.19
10 16 2 4.29 0.83
-10 16 -2 2.75 1.16
-10 16 3 5.98 1.22
10 16 -3 4.05 0.8
10 16 -3 5.43 0.87
-3 -10 -16 4.64 0.98
-10 16 -3 4.64 1.22
-10 16 -3 4.47 1.19
10 16 3 6.14 0.95
-3 -10 16 3.97 1.61
10 16 -4 1.59 0.76
10 16 -4 0.98 0.75
-10 16 4 1.04 0.96
-10 16 -4 1.26 1.05
-10 16 -4 1.17 1.06
10 16 4 2.67 0.73
-4 -10 16 0.45 1.7
10 16 -5 9.89 1.13
-10 16 5 11.69 1.41
10 16 -5 10 1.15
10 16 5 12.6 1.25
-10 16 -5 12.34 1.46
-10 16 -5 11.33 1.46
10 16 -6 3.81 0.91
10 16 -6 2.6 0.83
-10 16 6 3.63 1.19
-10 16 -6 3.29 1.35
-10 16 -6 1.38 1.14
10 16 6 2.5 0.86
10 16 -7 4.88 0.84
10 16 -7 4.63 1.04
-10 16 7 4.89 1.34
7 10 -16 3.3 1.13
-10 16 -7 3.53 1.24
10 16 7 5.49 1.04
8 10 -16 -0.08 0.94
10 16 -8 2.31 1.79
10 16 -8 -1.15 0.79
-10 16 8 0.3 1.21
-10 16 -8 1.89 1.28
-8 10 -16 1.79 1.24
-10 16 -8 -0.65 1.34
10 16 8 0.23 0.94
-10 16 9 7.7 1.47
9 10 -16 6.41 1.2
10 16 -9 7.06 1.27
10 16 -9 3.52 1.03
10 16 9 3.95 1.09
-10 16 -9 3.53 1.53
-10 16 -9 4.52 1.47
-9 10 -16 2.72 1.62
10 16 -10 0.67 1.08
10 16 -10 -1.13 1.09
10 10 -16 -1.53 0.98
-10 10 -16 0.15 1.65
-10 16 -10 1.34 1.35
-10 10 -16 -0.05 1.48
-10 16 -10 0.16 1.72
10 16 -11 7.41 1.19
10 16 -11 8.24 1.32
-10 16 11 7.79 1.61
-10 16 -11 7.95 1.62
-11 10 -16 5.48 1.56
-11 10 -16 6.82 1.89
-10 16 -11 9.63 1.82
10 16 -12 2.36 1.05
10 16 -12 3.02 1.3
-10 16 -12 3.91 1.76
-12 10 -16 3.14 1.55
-10 16 -12 2.64 1.54
10 16 -13 8.22 1.49
-13 10 -16 1.16 1.82
-10 16 -13 4.24 1.64
-10 16 -13 4.59 1.98
-10 16 -14 1.67 1.74
-10 16 -15 3.1 1.72
11 16 0 90.37 2.93
11 16 0 86.99 2.93
-11 16 0 86.27 3.24
-11 16 0 88.46 3.29
-11 16 1 8.45 1.28
11 16 -1 11.08 1.04
-11 16 -1 6.8 1.34
-11 16 -1 4.84 1.19
11 16 1 7.88 0.92
-11 16 2 0.87 0.98
11 16 -2 1.76 0.69
11 16 2 0.22 0.67
-11 16 -2 1.17 1.07
-11 16 -2 0.25 1.19
-11 16 3 5.28 1.13
11 16 -3 3.87 0.8
11 16 -3 4.89 0.8
11 16 3 5.13 0.81
-11 16 -3 5.51 1.3
-11 16 -3 5.86 1.28
-11 16 4 1.49 1.11
4 11 -16 0.92 1.2
11 16 -4 -0.03 0.66
11 16 -4 1.82 0.76
-11 16 -4 2.14 1.19
11 16 4 0.52 0.73
-11 16 -4 2.12 1.19
-11 16 5 58.51 2.6
5 11 -16 48.73 2.51
11 16 -5 56.71 2.23
-11 16 -5 57.69 2.74
-11 16 -5 57.9 2.62
11 16 -6 26.62 1.53
6 11 -16 28.08 1.97
11 16 -6 27.81 1.62
-11 16 6 30.66 2.02
-11 16 -6 28.61 2.02
11 16 6 28.14 1.64
-6 11 -16 28.78 2.36
7 11 -16 1.09 1.18
11 16 -7 1.78 0.76
-11 16 7 0.54 1.15
11 16 7 1.36 0.91
-11 16 -7 -0.12 1.18
-7 11 -16 0.91 1.37
-11 16 -7 0.53 1.34
-11 16 8 7.87 1.5
11 16 -8 6.75 1.1
8 11 -16 9.25 1.36
11 16 -8 9.44 1.23
-11 16 -8 7.85 1.54
11 16 8 6.97 1.15
-11 16 -8 12.41 1.67
11 16 -9 1.92 1.02
-11 16 -9 0.29 2.56
-9 11 -16 -1.9 1.36
-9 11 -16 -0.88 1.45
11 16 9 -2.51 1.1
-11 16 -9 2.99 1.54
11 16 -10 13.96 1.55
-11 16 10 7.39 1.58
10 11 -16 8.74 1.21
-11 16 -10 10.36 1.77
-10 11 -16 7.8 1.7
-11 16 -10 9.26 1.58
-10 11 -16 7.48 1.52
11 16 -11 49.67 2.32
-11 16 -11 52.74 3.1
-11 16 -11 43.02 2.75
-11 11 -16 48.79 2.81
-11 16 -12 3.06 1.96
-12 11 -16 -0.21 1.49
-11 16 -12 1.01 1.6
-11 16 -13 5.96 1.87
-11 16 -14 4.83 1.8
-12 16 0 2.65 1.12
0 12 -16 0.26 1.3
1 12 -16 0.39 1.29
12 16 -1 2.63 0.63
-12 16 1 1.16 1.05
12 16 1 1.79 0.64
-12 16 -1 1.56 1.21
-1 12 -16 0.22 1.34
-12 16 -1 2.33 1.09
2 12 -16 -0.11 1.21
-12 16 2 1.93 1.06
-2 12 -16 0.6 1.29
-12 16 -2 0.83 1.08
-12 16 -2 0.29 1.18
3 12 -16 -1.04 1.21
-12 16 3 0.68 1.06
-12 16 -3 0.38 1.15
-3 12 -16 -0.92 1.3
12 16 3 -0.58 0.67
-12 16 -3 2.3 1.34
4 12 -16 12.3 1.67
-12 16 4 13.51 1.64
-12 16 -4 13.93 1.54
12 16 4 13.41 1.13
-4 12 -16 11.31 1.73
-12 16 5 2.24 1.19
-12 16 -5 0.93 1.23
-5 12 -16 -1.47 1.38
-12 16 -5 -0.09 1.72
12 16 5 1.18 0.79
-12 16 6 4.52 1.25
6 12 -16 0.89 1.25
-12 16 -6 5.36 1.48
12 16 6 3.75 0.88
-12 16 -6 3.46 1.27
-12 16 7 5.14 1.42
-7 12 -16 5.88 1.56
12 16 7 6.62 0.94
-12 16 -7 6.44 1.5
-12 16 -7 6.89 1.6
-12 16 8 4.01 2.42
8 12 -16 4.74 1.3
-8 12 -16 4.23 1.55
-12 16 -8 8.07 1.69
-8 12 -16 4.6 1.61
9 12 -16 1.72 1.13
-12 16 9 -0.61 1.48
-9 12 -16 -1.15 1.49
-12 16 -9 1.16 1.43
-9 12 -16 1.45 1.6
-12 16 -9 1.72 1.76
10 12 -16 1.13 1.03
-12 16 10 1.21 1.78
-10 12 -16 2.87 1.65
-12 16 -10 3 1.56
-10 12 -16 -2.98 1.74
11 12 -16 0.29 1.35
-11 12 -16 -2.56 1.43
-12 16 -11 3.46 1.64
-12 16 -12 10.71 1.96
-12 12 -16 9.58 1.93
-12 16 -13 4.71 1.91
0 13 -16 8.9 1.7
-13 16 0 9.82 1.34
1 13 -16 1.44 1.49
-13 16 1 3.4 1.14
-1 13 -16 0.71 1.56
-13 16 -1 3.03 1.18
-13 16 2 1.7 1.16
2 13 -16 1.97 1.53
-13 16 -2 1.05 1.12
-2 13 -16 2.09 2.18
-13 16 3 4.44 1.22
-13 16 -3 5.98 1.75
-13 16 -3 5.03 1.3
-13 16 4 2.53 1.22
-13 16 -4 0.39 1.21
-13 16 -4 0.38 1.49
-4 13 -16 -0.17 1.69
5 13 -16 0.59 1.56
-13 16 5 3.02 1.41
-13 16 -5 3.48 1.8
-13 16 -5 -0.19 1.29
-5 13 -16 2.02 1.54
6 13 -16 0.46 1.19
-6 13 -16 0.91 1.46
-13 16 -6 4.85 2.02
-6 13 -16 0.68 1.49
7 13 -16 -1.51 1.11
-7 13 -16 -0.44 1.36
-13 16 -7 4.41 1.84
-7 13 -16 1.15 1.48
8 13 -16 2.41 1.19
-13 16 -8 4.3 1.64
-8 13 -16 1.4 1.65
-8 13 -16 3.09 1.55
9 13 -16 -0.42 1.22
9 13 -16 -0.98 1.39
-9 13 -16 3.42 1.75
-9 13 -16 2.47 1.58
-13 16 -9 1.25 1.67
10 13 -16 -0.7 1.36
-10 13 -16 2.29 1.63
-13 16 -10 2.58 1.86
-10 13 -16 2.87 1.91
-11 13 -16 4.23 1.65
-12 13 -16 0.59 1.84
0 14 -16 6.48 1.62
1 14 -16 -2.05 1.34
-1 14 -16 1 1.35
2 14 -16 6.4 1.51
-2 14 -16 6.68 1.7
-2 14 -16 5.48 1.56
3 14 -16 14.95 1.74
-3 14 -16 11.3 1.8
-3 14 -16 9.31 1.82
4 14 -16 2.93 1.34
-4 14 -16 0.02 1.44
-4 14 -16 0.47 1.41
5 14 -16 1.5 1.22
-5 14 -16 -0.48 1.45
-5 14 -16 -2.4 1.33
6 14 -16 0.35 1.21
6 14 -16 0.83 1.47
-6 14 -16 -3.64 1.53
-6 14 -16 -0.52 1.35
7 14 -16 3.19 1.31
7 14 -16 -1.18 1.37
-7 14 -16 -0.89 1.67
-7 14 -16 -1.39 1.39
8 14 -16 -0.63 1.26
8 14 -16 4.11 1.34
-8 14 -16 -1.03 1.75
-8 14 -16 4.79 1.78
9 14 -16 1.93 1.3
9 14 -16 -0.96 1.38
-9 14 -16 0.26 1.72
-9 14 -16 1.61 1.51
-10 14 -16 4.27 1.68
-11 14 -16 1.81 1.75
-12 14 -16 -0.6 2.61
0 15 -16 -2.12 1.41
0 15 -16 -0.95 1.38
1 15 -16 1.14 1.47
1 15 -16 4.44 1.5
-1 15 -16 2.47 1.48
-1 15 -16 3.03 1.57
2 15 -16 -0.1 1.32
2 15 -16 -0.62 1.5
-2 15 -16 2.13 1.36
-2 15 -16 -0.68 1.43
3 15 -16 1.15 1.43
3 15 -16 0.33 1.44
-3 15 -16 1.22 1.51
-3 15 -16 -1.05 1.37
4 15 -16 12.65 1.76
4 15 -16 8.96 1.71
-4 15 -16 9.3 1.79
-4 15 -16 7.77 1.62
5 15 -16 -1.37 1.24
5 15 -16 -2 1.4
-5 15 -16 3.46 1.55
-5 15 -16 1.97 1.61
6 15 -16 -1.22 1.38
6 15 -16 2.1 1.33
-6 15 -16 0.39 1.47
-6 15 -16 0.64 1.51
7 15 -16 7.35 1.4
7 15 -16 4.43 1.6
-7 15 -16 7.56 1.87
-7 15 -16 5 1.8
8 15 -16 1.23 1.49
8 15 -16 3.11 1.43
-8 15 -16 2.79 1.64
-8 15 -16 -0.74 1.71
9 15 -16 4.59 1.31
-9 15 -16 1.97 1.75
-10 15 -16 4.15 1.85
0 16 -16 47.03 2.75
0 16 -16 48.57 2.94
1 16 -16 -0.93 1.48
1 16 -16 0.22 1.5
-1 16 -16 2.63 1.55
-1 16 -16 0.34 1.44
2 16 -16 -2.81 1.56
2 16 -16 -2.78 1.27
-2 16 -16 3.32 1.66
-2 16 -16 -1.47 1.39
3 16 -16 5.67 1.72
3 16 -16 4.4 1.54
-3 16 -16 4.48 1.79
-3 16 -16 7.61 1.8
4 16 -16 1.03 1.51
4 16 -16 -1.1 1.33
-4 16 -16 -2.89 1.5
-4 16 -16 -1.1 1.58
5 16 -16 41.29 2.69
-5 16 -16 34.51 2.75
-5 16 -16 38.71 2.72
6 16 -16 21.12 2.61
6 16 -16 24.08 2.22
-6 16 -16 24.01 3.17
-6 16 -16 19.94 2.41
7 16 -16 4.44 1.49
-7 16 -16 2.55 1.59
8 16 -16 0.11 1.38
-8 16 -16 2.73 1.7
-9 16 -16 3.88 1.73
0 17 0 132.89 4.46
0 17 0 136.79 4.51
0 17 -1 2.08 1.02
0 17 1 2.79 1.13
0 17 1 1.57 1.02
0 17 -1 2.11 1.06
0 -17 1 0.95 0.73
0 -17 -1 3.26 0.78
0 -17 2 0.61 0.75
0 17 2 -1.48 0.97
0 17 2 0.72 1.05
0 17 -2 0.56 1.06
0 17 -2 1.59 1
0 -17 -2 0.89 0.65
0 17 3 18.06 1.69
0 -17 3 19.85 1.44
0 17 -3 19.68 1.72
0 17 3 19.29 1.67
0 -17 -3 23.18 1.45
0 17 -3 21.52 1.69
0 17 -4 16.89 1.61
0 17 4 14.88 1.61
0 17 4 16.19 1.63
0 17 -4 14.29 1.59
0 -17 -4 12.04 1.25
0 -17 4 18.3 1.6
0 17 -5 1.73 1.1
0 17 5 3.37 1.21
0 -17 5 3.28 0.94
0 -17 -5 3.12 0.8
0 17 -5 3.17 1.15
-17 -5 0 1.92 1.84
0 17 -6 23.89 1.87
-17 -6 0 24.38 2
0 -17 -6 26.14 1.56
0 17 -6 24.36 1.86
0 17 6 22.75 1.98
0 -17 6 23.04 1.77
0 17 -7 1 1.14
0 17 -7 -0.09 1.07
0 -17 -7 1.69 0.82
0 17 7 1.68 1.19
-17 -7 0 2.56 1.26
0 17 -8 17.37 1.77
-17 -8 0 17.14 2.09
0 17 8 15.78 1.82
0 17 -8 18.38 1.9
-17 -9 0 1.52 1.67
0 17 9 1.6 1.3
0 17 -9 -0.49 1.12
0 17 -9 1.34 1.25
0 17 -10 6.93 1.41
0 17 10 8.39 1.58
0 17 -10 7.18 1.46
0 17 11 22.45 2.1
0 17 -11 20.27 2.1
0 17 -11 19.46 1.99
0 17 -12 7.38 1.52
0 17 13 -1.53 1.34
0 17 -13 -1.17 1.36
0 17 -13 -0.95 1.38
0 17 14 4.5 1.64
0 17 -14 2.11 1.42
0 17 -14 2.13 1.54
0 17 -15 1.19 1.46
0 17 -15 2.32 1.58
0 17 -16 14.4 1.89
0 17 -16 21.88 2.21
-1 17 0 1.83 1.09
-1 -17 0 2.76 0.77
1 17 0 0.63 1
-1 17 0 2.92 1.13
1 -17 0 1.21 0.75
1 17 0 3.05 1.07
1 17 -1 33.93 2.03
-1 17 1 40.35 2.14
-1 -17 -1 38.86 1.89
1 -17 1 40.92 1.96
-1 17 1 40.31 2.14
1 17 -1 40.36 2.09
-1 -17 1 42.96 1.96
1 17 1 40.44 2.11
-1 17 -1 42.37 2.16
1 17 1 39.83 2.1
-1 17 -1 40.13 2.22
1 -17 -1 38.41 1.81
-1 17 2 1.75 1.08
1 17 -2 0.53 0.98
-1 -17 -2 1.53 0.66
1 -17 2 1.77 0.74
-1 17 2 1.07 1.05
1 17 -2 0.74 1.02
1 17 2 0.14 1.04
1 17 2 -0.16 1.01
1 -17 -2 0.46 0.67
-1 -17 2 0.47 0.75
-1 17 -2 0.54 1.04
-1 17 -2 1.68 1.03
-1 17 3 14.63 1.61
1 -17 3 12.05 1.32
-1 -17 -3 10.13 1.23
-1 17 3 12.4 1.43
1 17 -3 11.62 1.4
1 17 -3 13.94 1.56
-1 17 -3 14 1.58
1 17 3 11.63 1.43
1 17 3 14.82 1.59
1 -17 -3 14.6 1.23
-1 17 -3 13.93 1.55
-1 -17 3 13.84 1.39
1 17 -4 19.69 1.69
-1 17 4 16.79 1.71
-1 17 4 21.05 1.78
1 -17 4 24.37 1.61
1 17 -4 18.02 1.68
-1 -17 -4 19.33 1.4
-1 -17 4 20.45 1.59
-1 17 -4 20.36 1.83
-1 17 -4 19.13 1.67
1 17 4 18.85 1.68
1 -17 -4 19.28 1.34
1 17 4 21.1 1.73
-1 17 5 11.07 1.44
1 17 -5 14.56 1.71
-1 -17 -5 14.02 1.28
1 -17 5 8.22 1.13
1 17 -5 10.6 1.38
-17 -5 -1 11.9 1.26
-1 17 -5 11.89 1.48
1 17 5 11.14 1.4
1 -17 -5 14.2 1.24
-1 -17 5 10.81 1.28
-1 17 -5 12.36 1.45
1 17 -6 -0.16 1.06
-1 17 6 1.91 1.17
1 17 -6 2.65 1.19
-1 -17 -6 2.72 0.82
1 -17 6 1.02 0.96
-17 -6 -1 4 1.16
-1 17 -6 1.18 1.23
1 -17 -6 2.98 0.71
1 17 6 1.43 1.16
-1 -17 6 2.49 0.94
-1 17 -6 2.26 1.12
-17 -7 -1 12.68 1.52
-1 17 7 13.88 1.62
1 17 -7 14.08 1.56
1 17 -7 14.21 1.66
-1 -17 -7 14.05 1.4
-1 17 -7 15.64 1.71
-1 17 -7 14.14 1.66
1 -17 -7 13.62 1.34
1 17 7 15.29 1.68
-1 17 8 3.57 1.27
-1 -17 -8 3.53 0.87
1 17 -8 1.49 1.22
1 17 -8 2.83 1.22
-17 -8 -1 4.27 1.33
-1 17 -8 2.33 1.29
1 17 8 2.24 1.23
-1 17 -8 0.66 1.08
-1 17 9 8.36 1.48
1 17 -9 7.63 1.43
1 17 -9 5.57 1.43
1 17 9 6.28 1.41
-1 17 -9 6.56 1.36
-1 17 -9 5.14 1.97
-1 17 10 13.1 1.69
1 17 -10 12.92 1.66
1 17 -10 13.67 1.64
1 17 10 13.96 1.72
-1 17 -10 12.76 1.67
-1 17 -10 11.29 1.64
1 17 -11 2.11 1.39
-1 17 11 3.46 1.49
1 17 -11 2.22 1.3
-1 17 -11 3.36 1.31
-1 17 -11 2.43 1.33
1 17 11 3.9 1.44
1 17 -12 10.94 1.6
-1 17 -12 12.72 1.8
1 17 -13 -0.8 1.39
-1 17 13 -0.03 1.48
1 17 -13 -1.08 1.27
-1 17 -13 0.76 1.38
-1 17 -13 3.29 1.34
1 17 13 -0.66 1.33
1 17 -14 2.58 1.53
-1 17 14 5.62 1.67
1 17 -14 6.1 1.47
-1 17 -14 1.43 1.47
1 17 14 3.29 1.56
-1 17 -14 1.13 1.4
1 17 -15 5.77 1.63
1 17 -15 7.87 1.74
-1 17 -15 5.37 1.61
-1 17 -15 7.09 1.65
1 17 -16 0.42 1.46
1 17 -16 1.66 1.49
-1 17 -16 2.74 1.58
-1 17 -16 1.86 1.77
2 17 0 0.23 0.89
0 -2 17 0.75 1.01
2 17 0 -0.49 0.94
-2 17 0 0.54 1
-2 17 0 1.84 1.07
2 -17 0 -0.78 0.59
-2 -17 0 -0.25 0.78
2 -17 1 1.85 0.77
-2 17 1 2.46 1.05
-2 -17 -1 1.72 0.72
2 17 -1 -0.21 0.96
-2 17 1 1.52 1.05
2 17 -1 2.78 1.07
2 17 1 0.25 0.91
2 -17 -1 1.42 0.67
-2 17 -1 0.4 0.96
-2 -17 1 0.65 0.8
-2 17 -1 1.63 1.08
2 17 1 0.79 0.92
-2 -17 -2 0.88 0.73
2 -17 2 1.96 0.85
2 17 -2 0.5 0.95
-2 17 2 1.98 1.06
2 17 -2 -0.09 0.89
-2 17 2 1.99 1.13
-2 -17 2 2.35 0.82
2 -17 -2 1.18 0.68
-2 17 -2 2.27 1.08
2 17 2 0.56 0.97
2 17 2 2.31 1.06
-2 17 -2 1.61 0.97
2 17 -3 1.94 1
-2 -17 -3 2.33 0.77
2 -17 3 3.82 0.83
2 17 -3 2.19 1.05
-2 17 3 3.17 1.1
-2 17 3 2.88 1.13
2 -17 -3 3.17 0.71
-2 17 -3 4.25 1.19
2 17 3 2.99 1.1
-2 -17 3 3.98 0.95
-2 17 -3 3.06 1.14
2 17 3 2.77 1.06
-2 17 4 0.36 1.08
2 -17 4 -1.44 0.74
2 17 -4 0.3 1
2 17 -4 -0.34 0.95
-2 -17 -4 -0.44 0.68
-2 17 4 -0.83 1.06
2 -17 -4 -0.06 0.63
2 17 4 -0.91 0.98
-2 17 -4 1.92 1.08
-2 -17 4 0.06 0.78
2 17 4 0.64 1.05
-2 17 -4 0.42 1.05
-2 -17 -5 0.69 0.82
2 17 -5 -0.97 1.03
-17 -5 -2 -0.16 1
2 -17 5 -0.48 0.75
2 17 -5 0.33 0.98
-2 17 5 -0.43 1.01
-2 -17 5 -0.36 0.84
-2 17 -5 -0.77 1.11
2 17 5 -0.51 1.03
-2 17 -5 0.01 1.09
2 -17 -5 -1.68 0.61
2 17 -6 1.56 1.07
-2 17 6 1.23 1.12
2 17 -6 -0.2 1.03
-2 -17 -6 0.99 0.86
2 -17 6 -1.51 0.86
-17 -6 -2 -0.55 1.07
-2 17 -6 -1.82 1.02
2 17 6 -0.74 0.97
-2 17 -6 1.34 1.05
2 -17 -6 -0.37 0.65
-2 -17 6 -0.41 1.58
2 17 -7 -1.83 0.89
-2 17 7 -0.29 1.15
-2 -17 -7 0.28 0.85
-17 -7 -2 0.63 1.17
2 17 -7 0.26 1.11
-2 17 -7 1.01 1.12
-2 17 -7 0.46 1.05
2 17 7 -0.07 1.08
2 17 -8 0.72 1.15
2 17 -8 0.04 1.16
-2 -17 -8 1.09 0.89
-2 17 8 0.96 1.17
-17 -8 -2 0.2 1.26
-2 17 -8 0.86 1.19
-2 17 -8 0.86 1.11
2 17 8 1.12 1.17
-2 -17 -9 1.24 1.54
2 17 -9 -0.16 1.28
-2 17 9 0.37 1.27
2 17 -9 -0.45 1.11
2 17 9 0.19 1.23
-2 17 -9 -0.49 1.15
2 17 -10 0.23 1.14
2 17 -10 -0.11 1.2
-2 17 10 1.44 1.33
-2 17 -10 0.45 1.27
-2 17 -10 -1.07 1.23
2 17 10 0.16 1.21
-2 17 11 1.13 1.45
2 17 -11 1.54 1.24
2 17 -11 -1.93 1.16
-2 17 -11 -0.57 1.22
-2 17 -11 -1.02 1.29
2 17 11 0.87 1.3
-2 17 12 0.33 1.83
2 17 -12 1.03 1.3
2 17 12 2.49 1.8
-2 17 -12 -0.54 1.82
-2 17 -12 -2.41 1.22
2 17 -13 -0.36 1.27
-2 17 13 0.02 1.55
2 17 -13 -1.18 1.15
-2 17 -13 -0.36 1.38
2 17 13 0.33 1.42
-2 17 -13 0.49 1.42
-2 17 14 0.91 1.48
2 17 -14 0.25 1.41
2 17 -14 1.83 1.45
2 17 14 -1.84 1.38
-2 17 -14 0.55 1.47
-2 17 -14 0.84 1.39
2 17 -15 0.04 1.35
2 17 -15 -0.22 1.4
-2 17 -15 -1.91 1.42
-2 17 -15 1.53 1.56
2 17 -16 0.74 1.7
2 17 -16 1.78 1.54
-2 17 -16 0.13 1.71
-2 17 -16 -0.04 1.56
3 17 0 19.45 1.57
3 17 0 22.9 1.62
-3 17 0 19.96 1.74
-3 -17 0 17.58 1.53
-3 17 0 18.55 1.71
0 -3 17 20.58 1.51
-3 -17 -1 10.82 1.28
3 17 -1 12.27 1.42
-3 17 1 13.15 1.45
-3 17 1 13 1.53
3 17 -1 12.96 1.43
3 -17 1 14.06 1.24
-3 -17 1 14.95 1.52
3 17 1 13.99 1.42
-3 17 -1 12.42 1.46
-3 17 -1 12.73 1.48
3 17 1 14.04 1.47
3 -17 -1 9.73 1.11
3 17 -2 2.22 0.99
3 17 -2 2.01 0.9
-3 17 2 3.18 1.2
-3 -17 -2 4.69 0.83
-3 17 2 0.97 1.08
3 -17 2 0.5 0.76
3 -17 -2 3.96 0.79
-3 17 -2 2.65 1.11
3 17 2 2.52 1.05
3 17 2 3.76 1.1
-3 -17 2 3.42 0.96
-3 17 -2 2.5 1.15
3 17 -3 1.73 0.98
-3 17 3 3.21 1.14
3 17 -3 1.17 1.03
-3 17 3 1.02 1.08
3 -17 3 0.75 0.75
-3 -17 -3 1.84 0.8
3 17 3 1.67 1.05
-3 17 -3 -0.25 0.98
3 17 3 2.22 1.05
-3 -17 3 1.77 0.83
-3 17 -3 2.4 1.13
3 -17 -3 -0.06 0.69
3 17 -4 5.36 1.14
-3 17 4 4.49 1.24
-3 17 4 4.55 1.19
3 17 -4 5.1 1.1
3 -17 4 6.8 1
-3 -17 -4 6.62 1
3 17 4 5.94 1.21
-3 -17 4 6.84 1.08
3 17 4 6.1 1.14
-3 17 -4 4.87 1.26
-3 17 -4 5.11 1.24
3 -17 -4 6.35 0.78
-3 -17 -5 -1.52 0.7
-3 17 5 0.38 1.07
-17 -5 -3 -0.31 1.03
3 17 -5 0.21 1.01
3 17 -5 -0.14 0.97
3 -17 5 -0.45 0.78
-3 17 -5 -0.61 1.03
-3 17 -5 -0.05 1.11
3 -17 -5 0.44 0.61
3 17 5 -1.71 0.94
-3 -17 5 1.25 0.93
3 17 -6 7.96 1.32
-17 -6 -3 6.77 1.28
-3 17 6 7.96 1.36
3 17 -6 6 1.17
3 -17 6 6.58 1.11
-3 -17 -6 11.68 1.37
3 17 6 7.04 1.33
-3 17 -6 8.16 1.36
-3 17 -6 9.15 1.47
-17 -7 -3 19.47 2
3 17 -7 19.88 1.84
-3 17 7 21.06 1.89
-3 -17 -7 20.17 1.64
3 17 -7 19.1 1.7
-3 17 -7 20.02 1.81
3 17 7 18.6 1.76
-3 17 -7 20.01 1.85
-3 -17 -8 1.32 1.07
3 17 -8 -0.61 1.01
-3 17 8 1.8 1.3
3 17 -8 0.89 1.09
-3 17 -8 1.08 1.19
3 17 8 0.63 1.07
-3 17 -8 1.55 1.23
-3 17 9 1.74 1.37
3 17 -9 1.61 1.11
-3 17 -9 0.74 1.22
3 17 9 1.02 1.17
3 17 -10 22.43 1.9
-3 17 10 21.73 2.06
3 17 -10 21.22 1.88
3 17 10 21.18 1.97
-3 17 -10 22.96 2.14
-3 17 -10 22.72 2.21
-3 17 11 7.8 1.63
3 17 -11 7.74 1.53
3 17 -11 6.79 1.45
3 17 11 8.07 1.61
-3 17 -11 6.66 1.54
-3 17 -11 5.12 1.4
3 17 -12 -1.54 2.01
-3 17 12 -1.04 1.52
3 17 -12 0.2 1.3
3 17 12 0.89 1.38
-3 17 -12 2.12 1.45
-3 17 -12 0.68 1.31
-3 17 13 -0.79 1.44
3 17 -13 -1.05 1.3
3 17 -13 2.97 1.34
-3 17 -13 0.07 1.36
-3 17 -13 2.19 1.46
3 17 13 0.46 1.41
3 17 -14 1.43 1.36
3 17 -14 2.37 1.4
-3 17 14 -0.32 1.53
-3 17 -14 0.72 1.48
-3 17 -14 -1.09 1.45
3 17 -15 0.84 1.52
3 17 -15 1.15 1.48
-3 17 -15 -1.2 1.47
-3 17 -15 -1.48 1.46
3 17 -16 5.77 1.79
-3 17 -16 12.75 1.9
-4 -17 0 17.46 1.46
4 17 0 14.41 1.52
4 17 0 16.96 1.46
-4 17 0 14.28 1.65
-4 17 0 14.45 1.57
4 -17 0 11.54 1.27
0 -4 17 14.85 1.54
-4 17 1 16 1.67
4 17 -1 17.77 1.52
-4 17 1 19.29 1.69
4 -17 1 16.4 1.33
4 17 -1 18.32 1.56
-4 -17 -1 21.68 1.65
4 17 1 18.6 1.5
-1 -4 17 18.6 1.56
4 17 1 19.48 1.59
4 -17 -1 19.3 1.32
-4 17 -1 19.13 1.74
-4 -17 1 16.47 1.54
-4 17 -1 15.57 1.64
-4 -17 -2 -1.3 0.75
-4 17 2 0.65 1.02
4 17 -2 0.32 0.89
-4 17 2 0.29 1.07
4 17 -2 -0.13 0.86
4 -17 2 -1.32 0.71
-4 -17 2 0.89 0.84
-4 17 -2 -0.66 1.06
4 17 2 -0.33 0.86
-4 17 -2 -0.82 1.02
4 -17 -2 -0.7 0.63
4 17 2 0.68 0.92
-4 17 3 6.2 1.26
-4 17 3 4.77 1.18
4 -17 3 3.67 0.8
-4 -17 -3 5.42 0.95
4 17 -3 4.47 1.1
4 17 -3 4.91 1.08
-4 17 -3 5.17 1.2
4 17 3 4.77 1.17
-4 17 -3 4.13 1.19
-4 -17 3 7.28 1.13
4 17 3 5.58 1.1
4 -17 -3 3.83 0.73
4 -17 4 0.77 0.76
4 17 -4 0.1 0.93
-4 -17 -4 0.89 0.83
4 17 -4 -0.84 0.9
-4 17 4 -0.88 1.04
4 -17 -4 2.24 0.65
-4 17 -4 1.36 1.1
4 17 4 0.89 1.01
-4 17 -4 -0.33 1.04
-4 -17 4 0.39 0.86
4 17 -5 11.04 1.36
-17 -5 -4 11.51 1.36
-4 17 5 10.94 1.51
4 -17 5 14.37 1.4
4 17 -5 12.05 1.46
-4 -17 -5 11.9 1.45
-4 17 -5 13.48 1.63
-4 17 -5 11.59 1.51
4 17 5 9.48 1.31
-4 17 6 11.4 1.53
-4 -17 -6 12.66 1.43
-17 -6 -4 9.62 1.42
4 17 -6 12.21 1.38
4 -17 6 13.7 1.59
4 17 -6 10.33 1.38
-4 17 -6 11.45 1.51
4 17 6 10.85 1.4
-4 17 -6 12.53 1.6
-17 -7 -4 0.83 1.59
4 17 -7 3.21 1.06
-4 -17 -7 2.79 1.07
4 17 -7 1.32 1.09
-4 17 7 0.02 1.13
-4 17 -7 0.28 1.1
4 17 7 0.12 1.01
-4 17 -7 0.23 1.18
4 17 -8 0.98 1.1
-4 17 8 0.49 1.28
4 17 -8 2.95 1.17
-4 17 -8 -0.57 1.17
4 17 8 0.71 1.11
-4 17 -8 2.73 1.24
4 17 -9 8.66 1.41
-4 17 9 9.12 1.59
-4 17 -9 6.63 1.52
4 17 9 8.71 1.49
-4 17 -9 10.31 1.64
4 17 -10 0.84 1.17
-4 17 10 0.99 1.3
4 17 -10 2.22 1.27
-4 17 -10 1.81 1.41
4 17 10 1.61 1.21
-4 17 -10 1.8 1.37
-4 17 11 4.38 1.59
4 17 -11 4.22 1.4
4 17 -11 4.01 1.31
-4 17 -11 4.41 1.67
4 17 11 3.59 1.46
-4 17 -11 2.9 1.3
4 17 -12 11.02 1.6
4 17 -12 10.03 1.66
-4 17 12 10.24 1.8
-4 17 -12 8.45 1.61
4 17 12 10.84 1.65
-4 17 -12 8.75 1.7
4 17 -13 5.26 1.38
-4 17 13 6.13 1.75
4 17 -13 5.55 1.43
-4 17 -13 4.15 1.6
-4 17 -13 3.67 1.5
4 17 13 8.36 1.64
4 17 -14 3.26 1.54
4 17 -14 2.08 1.35
-4 17 14 5.25 1.67
-4 17 -14 6.81 1.67
-4 17 -14 4.01 1.6
4 17 -15 13.26 1.8
4 17 -15 10.42 1.73
-4 17 -15 13.05 2.04
-4 17 -15 8.47 1.69
4 17 -16 5.18 1.58
-4 17 -16 2.63 1.8
-5 17 0 3.81 1.18
-5 -17 0 3.65 0.91
0 -5 17 4.13 1.03
5 17 0 2.21 0.96
5 -17 0 2.49 0.73
5 17 0 2.25 0.94
-5 17 0 2.6 1.12
5 17 -1 12.84 1.5
5 17 -1 11.16 1.35
5 -17 1 8.88 1.18
-5 17 1 12.79 1.56
-5 -17 -1 11.45 1.49
-5 17 1 11.64 1.44
5 17 1 11.33 1.27
5 17 1 11.63 1.27
-5 17 -1 11.36 1.48
-1 -5 17 11.99 1.53
5 -17 -1 9.78 1.17
-5 17 -1 11.92 1.47
-5 -17 1 10.2 1.35
5 17 -2 -0.04 0.93
5 -17 2 1.01 0.73
-5 17 2 0.4 1.03
5 17 -2 -0.39 0.9
-5 17 2 0.89 1.07
-5 -17 -2 -0.25 0.79
5 17 2 0.68 0.94
-5 17 -2 -0.97 1.03
5 -17 -2 -0.08 0.63
-5 17 -2 0.37 1.07
-5 -17 2 0.19 0.87
5 17 2 1.2 0.93
-5 17 3 -0.56 1.04
-5 -17 -3 1.15 0.8
5 17 -3 1.81 0.99
5 -17 3 0.58 0.76
-5 17 3 -0.57 1.1
5 17 -3 0.29 0.94
5 17 3 1.63 0.93
5 17 3 1.01 0.95
-5 17 -3 0.04 1.05
-5 17 -3 -0.19 1.03
-5 -17 3 -0.14 0.91
5 -17 -3 0.48 0.66
5 17 -4 10.35 1.29
5 17 -4 11.71 1.41
-5 17 4 14.14 1.6
-5 -17 -4 10.39 1.19
5 -17 4 14.13 1.4
-5 17 -4 12.77 1.57
5 17 4 11.56 1.4
-5 17 -4 10.79 1.45
-5 -17 -5 1.55 0.97
5 17 -5 1.83 1.08
-5 17 5 2.61 1.22
5 17 -5 3.02 1.04
5 -17 5 2.38 0.82
-5 17 -5 0.06 1.18
5 17 5 2.1 1.06
-5 17 -5 0.97 1.17
5 17 -6 -0.3 0.95
5 17 -6 0.2 0.95
-17 -6 -5 -1.82 1.12
-5 17 6 -0.25 1.15
-5 17 -6 1.49 1.2
-5 17 -6 0.32 1.18
5 17 6 -0.39 0.99
5 17 -7 12.22 1.43
5 17 -7 10.96 1.49
-5 17 7 9.88 1.56
-5 17 -7 9.26 1.54
-5 17 -7 9.8 1.5
5 17 7 10.65 1.39
-5 17 8 0.74 1.24
5 17 -8 4.19 1.26
5 17 -8 1.08 1.3
5 17 8 4.04 1.2
-5 17 -8 2.82 1.3
-5 17 -8 3.64 2.19
5 17 -9 15.84 1.85
5 17 -9 17.59 1.7
-5 17 9 21.89 1.99
5 17 9 17.51 1.74
-5 17 -9 17.98 1.92
-5 17 -9 20.15 1.98
5 17 -10 2.39 1.21
5 17 -10 1.56 1.19
-5 17 10 0.04 1.34
-5 17 -10 -1.26 1.23
5 17 10 -0.33 1.15
-5 17 -10 -0.99 1.23
5 17 -11 5.61 1.44
5 17 -11 5.6 1.43
-5 17 -11 6.21 1.57
5 17 -12 6.92 1.56
5 17 -12 10.7 1.58
-5 17 12 10.24 1.85
-5 17 -12 5.16 1.62
-5 17 -12 6.93 1.57
5 17 12 6.49 1.43
5 17 -13 2.2 1.32
-5 17 13 0.73 1.48
5 17 -13 1.88 1.41
-5 17 -13 -0.96 1.44
-5 17 -13 1.78 1.55
5 17 13 0.18 1.39
5 17 -14 4.41 1.44
5 17 -14 2.4 1.37
-5 17 -14 1.54 1.52
-5 17 -14 0.73 1.48
5 17 -15 9.75 1.69
5 17 -15 14.04 1.85
-5 17 -15 13.28 1.97
-5 17 -15 11.11 1.89
5 17 -16 8.46 1.66
-5 17 -16 8.96 1.82
6 -17 0 22.71 1.49
-6 -17 0 23.31 1.84
6 17 0 24.57 1.7
0 -6 17 24.51 1.87
-6 17 0 22.75 1.75
6 17 0 26.54 1.71
-6 17 0 23.64 1.94
-6 17 1 0.7 1.16
1 -6 17 1.65 1.06
6 17 -1 3.7 0.99
-6 -17 -1 3.73 0.99
6 17 -1 2.59 1.04
-6 17 1 2.58 1.07
6 -17 1 1.13 0.73
-6 17 -1 2.75 1.17
6 -17 -1 0.89 0.65
-1 -6 17 2.07 1.05
-6 17 -1 2.19 1.11
-6 -17 1 1.89 1.14
6 17 1 3.01 1.01
6 17 1 1.92 0.95
6 17 -2 0.49 0.89
6 -17 2 0.96 0.8
6 17 -2 0.46 0.92
-6 -17 -2 0.59 1
-6 17 2 0.37 1.07
-6 17 2 0.5 1.09
-2 -6 17 0.33 1.39
-6 17 -2 0.07 1.05
-6 17 -2 0.45 1.11
6 17 2 0.43 0.98
6 17 2 0.34 0.88
-6 17 3 8.68 1.37
-6 17 3 9.14 1.46
6 17 -3 7.12 1.17
6 -17 3 5.66 0.94
6 17 -3 6.08 1.1
-6 -17 -3 6.89 1.32
-6 17 -3 9.94 1.4
-6 17 -3 6.92 1.3
6 17 3 7.26 1.16
6 17 3 10.32 1.26
6 -17 4 9.48 1.19
6 17 -4 11.92 1.37
-6 17 4 13.15 1.48
6 17 -4 11.41 1.32
6 17 4 12.77 1.51
-6 17 -4 11.97 1.55
-6 17 -4 12.47 1.51
6 17 -5 2.03 1.03
-6 17 5 1.03 1.1
6 -17 5 -0.21 0.94
6 17 -5 -2 0.84
-6 17 -5 -0.63 1.12
6 17 5 -0.58 0.88
-6 17 -5 0.2 1.2
-6 17 6 -0.24 1.1
6 17 -6 -2.45 0.85
6 17 -6 -0.4 0.92
-6 17 -6 -0.03 1.17
6 17 6 -1.08 0.88
-6 17 -6 0.81 1.21
-6 17 7 0.11 1.16
6 17 -7 1.89 1.09
-6 17 -7 2.08 1.22
-6 17 -7 0.01 1.32
6 17 7 0.25 1.14
6 17 -8 13.99 1.65
-6 17 8 17.94 1.87
6 17 8 12.46 1.53
-6 17 -8 14.54 1.73
6 17 -9 1.49 1.18
-6 17 9 1.36 1.23
6 17 -9 2.53 1.16
6 17 9 0.73 1.21
-6 17 -9 -0.2 1.32
-6 17 -9 3.29 1.34
6 17 -10 -0.3 1.1
6 17 -10 1.6 1.14
-6 17 10 3.39 1.54
6 17 10 2.52 1.24
-6 17 -10 0.67 1.33
-6 17 -10 2.49 1.46
6 17 -11 3.65 1.23
-6 17 11 6.84 1.77
-6 17 -11 6.16 1.5
6 17 11 4.08 1.76
-6 17 -11 4.75 1.65
6 17 -12 14.04 1.72
6 17 -12 13.92 1.66
-6 17 12 12.44 1.93
-6 17 -12 13.81 1.88
-6 17 -12 11.04 1.77
6 17 12 13.77 1.73
6 17 -13 -0.31 1.32
6 17 -13 1.82 1.31
-6 17 13 0.36 1.46
-6 17 -13 1.12 1.54
-6 17 -13 -0.68 1.44
6 17 -14 2.49 1.39
6 17 -14 0.67 1.38
-6 17 -14 0.14 1.56
-6 17 -14 -0.47 1.52
6 17 -15 10.52 1.76
-6 17 -15 9.9 3.16
-6 17 -15 5.77 1.69
6 17 -16 6.22 1.58
-6 17 -16 6.46 1.69
-7 17 0 1.68 1.11
0 -7 17 0.07 1.05
7 17 0 1.06 0.9
-7 17 0 3.01 1.11
7 -17 0 1.61 0.68
7 17 0 2.11 0.83
-7 17 1 14.87 1.59
1 -7 17 11.72 1.4
7 -17 1 14.9 1.33
7 17 -1 14.89 1.43
-7 17 1 14.61 1.64
7 17 -1 13.09 1.43
-7 17 -1 15.73 1.63
-1 -7 17 11.39 1.38
-7 17 -1 14.19 1.62
7 17 1 16.07 1.38
7 17 1 14.19 1.4
7 -17 2 -1.92 0.78
7 17 -2 -0.5 0.77
7 17 -2 0.29 0.85
-7 17 2 0.85 1.14
-7 17 2 0.65 1.1
-2 -7 17 0.89 1.23
7 17 2 0.35 0.85
-7 17 -2 0.48 1.08
7 17 2 1.3 0.93
-7 17 -2 1.47 1.15
7 17 -3 20.51 1.48
7 -17 3 21.16 1.63
-7 17 3 21.27 1.76
7 17 -3 21.02 1.45
7 17 3 20.47 1.52
-7 17 -3 20.3 1.8
-7 17 -3 20.45 1.75
7 17 -4 -0.04 0.84
7 17 -4 0.5 0.85
-7 17 4 1.43 1.19
-7 17 -4 0.72 1.12
-7 17 -4 0.58 1.1
7 17 4 0.95 0.97
7 17 -5 8.26 1.18
7 17 -5 9.43 1.2
-7 17 5 9.69 1.42
7 17 5 7.71 1.14
-7 17 -5 10.01 1.51
-7 17 -5 10.92 1.45
7 17 -6 -0.1 1.04
7 17 -6 0.94 0.93
-7 17 6 0.17 1.13
7 17 6 0.54 0.98
-7 17 -6 1.61 1.18
-7 17 -6 2.07 1.3
7 17 -7 -0.02 0.97
-7 17 7 2.06 1.24
7 17 -7 0.54 0.97
7 17 7 -1.01 0.99
-7 17 -7 -0.57 1.11
7 17 -8 0.6 1.06
-7 17 8 1.04 1.29
7 17 -8 1.69 1.14
-7 17 -8 -0.17 1.29
7 17 8 2.18 1.1
-7 17 -8 1.11 1.35
-7 17 9 1.06 1.34
7 17 -9 1.74 1.05
7 17 -9 3.68 1.18
7 17 9 1.31 1.09
-7 17 -9 0.57 1.43
-7 17 -9 1.75 1.43
-7 17 10 2.27 2.48
7 17 -10 2.95 1.2
7 17 -10 0.87 1.2
-7 17 -10 3.78 1.49
7 17 10 2.48 1.42
11 7 -17 1.65 1.26
7 17 -11 1.01 1.23
7 17 -11 1.12 1.2
-7 17 11 -0.89 1.4
7 17 11 -0.01 1.12
-7 17 -11 1.19 1.48
-7 17 -11 -0.08 1.46
-7 17 12 5.86 1.66
7 17 -12 5.77 1.36
7 17 -12 2.38 1.43
-7 17 -12 6.18 1.68
7 17 12 1.75 1.41
-7 17 -12 5.62 1.72
7 17 -13 2 1.32
-7 17 13 2.04 1.61
7 17 -13 4.88 1.4
-7 17 -13 3.24 1.64
-7 17 -13 3.72 1.62
-13 7 -17 -0.69 1.64
7 17 -14 10.46 1.54
7 17 -14 5.2 1.46
-7 17 -14 7.04 1.8
-7 17 -14 7.23 1.74
7 17 -15 4.27 1.56
-7 17 -15 2.09 1.65
7 17 -16 3.86 1.95
-7 17 -16 -0.32 1.64
-8 17 0 18 1.7
0 -8 17 17.21 1.92
-8 17 0 16.6 1.85
8 17 0 16.25 1.36
8 17 0 19.13 1.39
1 -8 17 1.04 1.33
-8 17 1 3.21 1.22
8 17 -1 1.51 0.87
8 17 -1 3.3 0.95
-8 17 -1 0.79 1.09
-8 17 -1 1.99 1.08
-1 -8 17 1.97 1.2
8 17 1 1.33 0.89
8 17 1 3.11 0.88
-8 17 2 0.08 1.02
8 17 -2 -0.27 0.84
-8 17 2 0.07 1.18
8 17 -2 -0.05 0.78
8 17 2 -1.01 0.78
-2 -8 17 0.54 1.24
-8 17 -2 -0.6 1.07
8 17 2 0.85 0.85
-8 17 -2 0.6 1.13
8 17 -3 -0.29 0.83
8 17 -3 2.52 0.9
-8 17 3 3.33 1.23
-8 17 -3 0.59 1.17
-8 17 -3 1.2 1.17
8 17 3 1.75 0.89
-8 17 4 1.75 1.17
8 17 -4 1.45 0.94
8 17 -4 1.55 0.88
-8 17 -4 2.24 1.12
8 17 4 1.66 0.91
-8 17 -4 1.93 1.24
-8 17 5 3.7 1.21
8 17 -5 1.59 0.96
8 17 -5 2.36 0.87
8 17 5 1.22 1.01
-8 17 -5 4.73 1.25
-8 17 -5 5.13 1.4
-8 17 6 16.6 1.71
8 17 -6 12.41 1.33
8 17 -6 13.64 1.54
8 17 6 14.03 1.45
-8 17 -6 14.53 1.73
-8 17 7 1.73 1.22
8 17 -7 0.65 0.98
-8 17 -7 1.39 1.31
8 17 7 0.38 1.04
-8 17 -7 1.07 1.3
8 17 -8 0.88 0.97
8 17 -8 0.95 1.1
-8 17 8 -0.67 1.2
-8 17 -8 -0.62 1.32
-8 17 -8 0.21 1.25
8 17 8 0.78 1.1
8 17 -9 1.04 1
8 17 -9 1.6 1.1
-8 17 9 0.77 1.42
-8 17 -9 -1.9 1.28
8 17 9 0.9 1.16
-8 17 -9 2.79 1.5
-8 17 10 1.67 1.49
8 17 -10 4.02 1.21
10 8 -17 1.45 1
-8 17 -10 3.84 1.49
-8 17 -10 3.33 1.46
8 17 10 1.1 1.86
-8 17 11 2.38 1.58
8 17 -11 3.09 1.29
8 17 -11 6.98 1.29
8 17 11 1.87 1.19
-8 17 -11 3.67 1.52
-8 17 -11 3.15 1.67
8 17 -12 5.23 1.37
-8 17 12 7.42 1.6
8 17 -12 6.25 1.42
-8 17 -12 6.87 1.82
-12 8 -17 4.38 1.63
-8 17 -12 4.65 1.64
8 17 -13 1.19 1.41
8 17 -13 3.69 1.34
-8 17 -13 0.72 1.52
-8 17 -13 -1.74 1.66
-13 8 -17 2.42 1.89
8 17 -14 1.55 1.35
8 17 -14 -1.03 2.46
-8 17 -14 2.49 1.65
-8 17 -14 2.24 1.99
8 17 -15 4.13 1.46
-8 17 -15 4.19 1.68
-9 17 0 0.76 1.16
9 17 0 1.93 0.82
9 17 0 -0.03 0.87
-9 17 0 1.49 1.11
9 17 -1 7.09 1.09
-9 17 1 6.68 1.35
9 17 -1 6.9 1
-9 17 1 7.94 1.26
-9 17 -1 8.28 1.39
-9 17 -1 8.11 1.36
9 17 1 7.51 1.04
9 17 1 9.1 1.07
-9 17 2 -0.17 1.08
9 17 -2 0.7 0.85
9 17 -2 -0.15 0.76
9 17 2 0.49 0.78
-9 17 -2 1.63 1.12
-9 17 -2 0.41 1.15
-9 17 3 1.12 1.11
9 17 -3 1.99 0.83
9 17 -3 0.7 0.79
-9 17 -3 3.34 1.23
-9 17 -3 0.23 1.17
9 17 3 1.8 0.85
9 17 -4 9.34 1.14
9 17 -4 12.18 1.38
-9 17 4 12.14 1.49
-9 17 -4 11.91 1.53
-9 17 -4 11.94 1.62
9 17 -5 17.73 1.57
9 17 -5 20.34 1.53
-9 17 5 17.34 1.92
9 17 5 21.6 1.57
-9 17 -5 21.31 1.78
-9 17 -5 20.52 2.84
9 17 -6 1.14 0.86
9 17 -6 1.06 1.39
-9 17 6 1.44 1.24
-9 17 -6 0.99 1.26
-9 17 -6 2.4 1.48
9 17 6 3.29 1.09
-9 17 7 2.47 1.25
9 17 -7 2.78 1.14
9 17 -7 2.66 0.98
-9 17 -7 1.78 1.28
-9 17 -7 1.23 1.37
9 17 7 2.85 0.98
-9 17 8 0.22 1.32
9 17 -8 0.45 0.99
9 17 -8 1.38 1.15
9 17 8 2.5 1.14
-9 17 -8 3.37 1.5
-9 17 -8 0.49 1.36
9 9 -17 -2.13 1.04
9 17 -9 0.72 1.08
9 17 -9 -1.33 1.05
-9 17 -9 1.48 1.96
-9 17 -9 3.12 1.54
-9 17 10 2.09 1.55
9 17 -10 1.51 1.25
9 17 -10 3.04 1.17
10 9 -17 2.28 1.68
9 17 10 2.17 1.12
-10 9 -17 2.26 1.51
-9 17 -10 1.25 1.38
-9 17 -10 3.17 1.53
9 17 -11 8.68 1.28
-9 17 11 2.15 1.61
-11 9 -17 5.82 1.58
-9 17 -11 6.99 1.74
-9 17 -11 8.74 1.76
-9 17 12 2.23 1.55
9 17 -12 1.22 1.35
9 17 -12 4.47 1.29
-9 17 -12 6.13 1.65
-9 17 -12 3.01 1.74
-12 9 -17 1.64 1.72
9 17 -13 5.87 1.42
9 17 -13 4.6 1.39
-9 17 -13 3.23 1.68
-9 17 -13 2.74 1.93
-13 9 -17 1.75 2.07
-9 17 -14 0.12 1.62
-9 17 -15 3.68 1.86
10 17 0 8.48 1.04
-10 17 0 4.64 1.36
10 17 0 7.09 1.01
-10 17 0 6.93 1.25
-10 17 1 12.22 1.48
10 17 -1 12.6 1.28
10 17 -1 13.71 1.31
-10 17 -1 12.23 1.62
-10 17 -1 14.3 1.76
10 17 1 12.21 1.27
10 17 -2 2.56 0.85
10 17 -2 -0.73 0.77
-10 17 2 1.15 1.06
-10 17 -2 -0.47 1.2
-10 17 -2 -0.86 1.27
10 17 2 0.08 0.79
-10 17 3 21.09 1.87
10 17 -3 18.79 1.5
10 17 -3 23.43 1.5
10 17 3 19.33 1.49
-10 17 -3 20.08 2.31
-10 17 -3 21.21 1.94
-10 17 4 1.56 1.19
10 17 -4 2.4 0.88
10 17 -4 -0.45 0.89
-10 17 -4 1.55 1.21
10 17 4 2.09 0.9
-10 17 5 0.67 1.19
10 17 -5 0.85 0.83
10 17 -5 0.57 1.08
10 17 5 -0.79 0.82
-10 17 -5 0.57 1.06
-10 17 -5 -1.27 1.35
10 17 -6 1.32 0.89
10 17 -6 1.01 1.19
-10 17 6 0.84 1.26
10 17 6 2.95 1.03
-10 17 -6 0.77 1.28
-10 17 -6 1.16 1.32
-10 17 7 0.85 1.24
10 17 -7 1.7 0.98
7 10 -17 -0.23 1.08
10 17 -7 1.96 0.9
10 17 7 1.39 0.97
-10 17 -7 0.16 1.24
-10 17 -7 1.47 1.34
10 17 -8 1.53 1.1
10 17 -8 1.62 0.99
10 17 8 4.56 1.62
-10 17 -8 4.37 1.4
-8 10 -17 -0.02 1.45
10 17 -9 2.26 1.82
10 17 -9 4.16 1.19
-10 17 9 1.54 1.46
9 10 -17 2.65 1.2
-10 17 -9 1.37 1.49
10 17 9 2.14 1.16
-10 17 -9 2.01 1.53
-9 10 -17 0.95 1.45
-10 17 10 -0.88 1.48
10 10 -17 -2.11 1
10 17 -10 1.6 1.15
10 17 -10 1.91 1.02
-10 17 -10 0.32 1.6
-10 10 -17 -3.41 1.61
10 17 10 -0.83 1.07
-10 10 -17 0.7 1.49
-10 17 -10 1.38 1.47
10 17 -11 3.54 1.1
10 17 -11 0.3 1.36
-10 17 11 2.81 1.61
-11 10 -17 -0.41 1.48
-10 17 -11 2.26 1.65
-10 17 -11 3.61 1.81
10 17 -12 2.54 1.36
-10 17 -12 2.25 1.69
-12 10 -17 3.33 1.63
-10 17 -12 5.8 1.92
-10 17 -13 8.47 1.96
-10 17 -14 11.43 1.96
11 17 0 22.36 1.42
-11 17 0 21.07 1.87
11 17 -1 2.64 0.83
-11 17 1 3.08 1.21
11 17 -1 4.09 0.86
-11 17 -1 0.53 1.1
11 17 1 1.63 0.77
11 17 -2 1.62 0.77
-11 17 2 -0.87 1.12
11 17 -2 2.49 0.8
-11 17 -2 0.99 1.57
-11 17 -2 0.62 1.17
11 17 2 -1.65 0.77
11 17 -3 11.76 1.25
-11 17 3 5.02 1.3
11 17 -3 6.98 0.91
-11 17 -3 6.82 1.54
11 17 3 9.2 1.1
-11 17 -3 7.25 1.46
4 11 -17 3.76 1.35
11 17 -4 5.18 0.93
-11 17 4 3.85 1.31
11 17 4 2.39 0.9
-11 17 -4 3.86 1.3
-11 17 -4 4.88 1.43
-11 17 5 9.32 1.45
11 17 -5 4.3 1.17
11 17 -5 7.12 1.09
5 11 -17 5.83 1.62
-11 17 -5 7.83 1.43
11 17 5 8.12 1.11
-11 17 -5 5.58 1.48
11 17 -6 6.55 0.98
11 17 -6 4.28 0.96
-11 17 6 5.31 1.48
-11 17 -6 8.34 1.57
11 17 6 6.49 1.1
-11 17 -6 8.23 1.6
-6 11 -17 4.31 1.7
7 11 -17 0.59 1.24
11 17 -7 2.9 0.96
11 17 7 2.88 1.54
-7 11 -17 1.43 1.44
-11 17 -7 3.04 1.51
8 11 -17 0.12 1.12
11 17 -8 4.1 1.1
-11 17 8 3.67 1.55
11 17 8 1.93 1.12
-11 17 -8 5.56 1.58
-11 17 -8 2.79 1.58
-8 11 -17 2.41 1.54
9 11 -17 3.38 1.17
-11 17 9 6.46 1.63
11 17 -9 9.6 1.83
-9 11 -17 4.92 1.64
11 17 9 4.72 1.17
-11 17 -9 7.43 1.65
-11 17 -9 3.33 1.63
-9 11 -17 0.77 1.64
10 11 -17 1.44 1.02
-11 17 10 1.56 1.63
-10 11 -17 -0.1 1.76
-11 17 -10 2.35 1.87
-11 17 -10 0.69 1.49
-10 11 -17 -1.64 1.35
-11 17 -11 13.54 2.29
-11 17 -11 17.05 2
-11 11 -17 13.14 1.96
-11 17 -12 7.41 1.85
-12 11 -17 0.81 1.85
-11 17 -13 -0.19 1.78
-12 17 0 5.71 1.27
-12 17 1 11.64 1.53
-12 17 -1 12.26 1.49
-12 17 2 -0.15 1.18
-12 17 -2 3.11 1.29
12 17 2 5.19 1.02
-12 17 -2 1.64 1.38
-12 17 3 2.03 1.28
3 12 -17 -0.56 1.63
-3 12 -17 -0.27 1.37
-12 17 -3 0.91 1.35
12 17 3 -1.05 1.09
-12 17 -3 0.37 1.29
4 12 -17 9.9 1.68
-12 17 4 8.11 1.41
12 17 4 10.7 1.24
-12 17 -4 10.93 1.6
-12 17 -4 8.56 1.56
-4 12 -17 6.92 1.63
5 12 -17 10.89 1.6
-12 17 5 10.55 1.89
12 17 5 9.95 1.33
-12 17 -5 10.29 1.79
6 12 -17 10.72 1.64
-6 12 -17 13.27 1.87
-12 17 -6 13.88 1.87
-12 17 -6 13.21 1.82
7 12 -17 3.39 1.2
-12 17 7 3.86 1.49
-12 17 -7 5.01 1.8
-7 12 -17 3.36 1.59
-12 17 -7 3.88 1.48
8 12 -17 4.34 1.33
-12 17 8 4.2 1.68
-8 12 -17 4.24 1.67
-12 17 -8 6.62 1.97
-8 12 -17 5.65 1.74
-12 17 -8 8.22 1.63
-12 17 9 2.33 2.08
9 12 -17 3.08 1.26
-12 17 -9 3.91 1.62
-9 12 -17 1.46 1.81
-9 12 -17 1.98 1.53
-10 12 -17 5.39 1.81
-10 12 -17 0.3 2
-12 17 -10 3.88 1.67
-12 17 -11 4.3 1.9
-11 12 -17 2.18 1.72
-12 12 -17 12.55 2.1
-12 17 -12 16.92 2.12
0 13 -17 0.16 1.37
-13 17 0 0.64 1.34
-13 17 1 0.08 1.33
1 13 -17 1.9 1.46
-13 17 -1 1.22 1.34
-1 13 -17 2.58 1.46
2 13 -17 2.03 1.43
-13 17 2 -0.89 1.44
-2 13 -17 0.39 1.41
-13 17 -2 3.2 1.63
3 13 -17 0.11 1.28
-13 17 3 0.69 1.92
-3 13 -17 -0.47 1.4
-13 17 -3 0.77 2.01
4 13 -17 1.92 1.34
-4 13 -17 4.18 1.62
-13 17 -4 6.16 1.89
5 13 -17 0.48 1.34
-13 17 -5 1.86 1.49
-5 13 -17 2.13 1.54
6 13 -17 0.54 1.21
-6 13 -17 1.39 1.66
-13 17 -6 2.34 1.66
-6 13 -17 -0.23 1.49
7 13 -17 -0.74 1.13
-7 13 -17 -0.13 1.51
-13 17 -7 3.05 1.77
-7 13 -17 1.71 1.56
8 13 -17 0.77 1.2
-8 13 -17 0.78 1.56
-13 17 -8 -0.31 1.87
-8 13 -17 1.97 1.74
9 13 -17 2.28 1.54
9 13 -17 1 1.32
-9 13 -17 3.41 1.64
-9 13 -17 2.1 1.94
-10 13 -17 7.52 1.85
-11 13 -17 1.72 1.73
0 14 -17 1.77 1.49
1 14 -17 1.73 1.44
-1 14 -17 1.27 1.43
2 14 -17 2.23 1.39
-2 14 -17 0.54 1.35
-2 14 -17 0.26 1.5
3 14 -17 1.48 1.33
-3 14 -17 -1.96 1.46
-3 14 -17 0.33 1.5
4 14 -17 5.93 1.47
-4 14 -17 4.76 1.61
-4 14 -17 3.08 1.74
5 14 -17 2.21 1.25
-5 14 -17 1.42 1.5
-5 14 -17 -2.68 1.4
6 14 -17 1.8 1.41
6 14 -17 -1.48 1.48
-6 14 -17 2.08 1.53
-6 14 -17 1.16 1.67
7 14 -17 10.73 1.57
7 14 -17 6.31 1.68
-7 14 -17 5.28 1.9
-7 14 -17 5.27 1.76
8 14 -17 0.86 1.92
8 14 -17 -1.42 1.32
-8 14 -17 -3.67 3.27
-8 14 -17 -1.06 1.63
9 14 -17 6.04 1.38
-9 14 -17 -1.39 1.55
-10 14 -17 8.69 1.86
0 15 -17 0.75 1.5
0 15 -17 4.23 1.59
1 15 -17 6.19 1.63
1 15 -17 6.68 1.66
-1 15 -17 9.6 1.86
-1 15 -17 5.16 1.68
2 15 -17 -2.82 1.41
2 15 -17 -2.23 1.4
-2 15 -17 -1.71 1.38
-2 15 -17 -0.76 1.46
3 15 -17 -1.95 1.42
3 15 -17 0.95 1.48
-3 15 -17 -2.45 1.43
-3 15 -17 -1.16 1.48
4 15 -17 12.4 1.8
4 15 -17 9.81 1.86
-4 15 -17 7.42 1.77
-4 15 -17 11.83 2.04
5 15 -17 6.04 1.68
5 15 -17 10.31 1.73
-5 15 -17 13.07 1.97
-5 15 -17 10.25 1.99
6 15 -17 4.84 1.5
6 15 -17 5.15 2.08
-6 15 -17 8.49 2.6
-6 15 -17 8.14 1.78
7 15 -17 4.03 1.42
-7 15 -17 1.35 1.64
8 15 -17 3.76 1.44
-8 15 -17 4.44 1.75
-9 15 -17 5.26 1.9
0 16 -17 19.65 2.3
0 16 -17 20.45 2.19
1 16 -17 0.48 1.52
1 16 -17 0.93 1.79
-1 16 -17 3.43 1.69
-1 16 -17 1.11 1.46
2 16 -17 -0.3 1.43
2 16 -17 0.48 2.36
-2 16 -17 0.36 2.76
-2 16 -17 -0.43 1.49
3 16 -17 6.52 1.67
-3 16 -17 11.91 1.95
4 16 -17 1.39 1.39
-4 16 -17 1.15 1.64
5 16 -17 7.01 1.57
-5 16 -17 7.97 1.83
6 16 -17 7.99 1.64
-6 16 -17 8.9 1.83
7 16 -17 2.75 1.57
-7 16 -17 -3.91 1.53
0 17 -17 9.62 1.8
1 17 -17 7.51 2.09
-1 17 -17 8.77 1.77
2 17 -17 6.73 1.7
-2 17 -17 -0.72 1.58
3 17 -17 13.18 1.93
-3 17 -17 8.11 1.76
4 17 -17 9.42 1.8
-4 17 -17 8.14 1.94
-5 17 -17 3.34 1.65
0 -18 0 42.66 2.07
0 18 0 37.36 2.17
0 18 0 37.63 2.25
0 18 1 2.05 1.11
0 -18 -1 1.51 0.87
0 -18 1 3.01 0.85
0 18 -1 1 1.14
0 18 -1 1.86 1.14
0 18 1 2.68 1.16
0 18 -2 5.5 1.3
0 18 2 5.39 1.25
0 18 2 4.46 1.26
0 -18 2 5.67 0.97
0 -18 -2 6.61 1.01
0 18 -2 5.55 1.28
0 -18 -3 -0.87 0.86
0 -18 3 0.6 0.92
0 18 -3 1.28 1.11
0 18 -3 2.04 1.08
0 18 3 1.31 1.16
0 18 3 0.22 1.12
0 18 4 16.52 1.89
0 18 -4 15.67 1.72
0 18 -4 16.22 1.81
0 18 4 16.4 1.76
0 18 5 3.15 1.25
0 18 -5 3.69 1.28
0 -18 -5 3.71 0.88
0 18 -5 4.16 1.32
0 18 -6 0.65 1.21
0 18 -6 0.22 1.11
0 18 6 -0.01 1.27
0 -18 -6 0.43 0.86
0 18 7 12.04 1.59
0 18 -7 12.4 1.59
0 18 -8 2.51 1.26
0 18 8 1.99 1.36
0 18 -8 2.24 1.23
0 18 -9 1.37 1.25
0 18 9 -1.46 1.22
0 18 -9 0.78 1.33
0 18 10 0.39 1.51
0 18 -10 0.34 1.21
0 18 -10 0.56 1.4
0 18 11 1.05 1.48
0 18 -11 1.11 1.33
0 18 -11 -0.07 1.41
0 18 -12 3.15 1.49
0 18 -12 1.53 1.44
0 18 12 3.56 1.54
0 18 -13 9.86 1.72
0 18 13 9.16 1.75
0 18 -13 9.71 1.79
0 18 14 1.93 1.6
0 18 -14 0.68 1.4
0 18 -14 4.01 1.54
0 18 -15 5.84 2.22
0 18 -15 8.6 1.85
0 18 -16 -1.87 1.47
-1 18 0 -0.88 0.96
-1 18 0 2.17 1.19
1 18 0 1.35 1.06
1 18 0 0.97 1.1
1 -18 0 1.65 0.85
-1 -18 0 0.44 0.86
-1 18 1 4.57 1.3
-1 18 1 3.83 1.2
-1 -18 -1 5.7 0.94
1 18 -1 6.3 1.29
1 -18 1 6.74 1.04
1 18 -1 5.12 1.28
-1 -18 1 2.96 0.95
1 18 1 5.67 1.27
-1 18 -1 4.25 1.16
1 18 1 6.34 1.28
-1 18 -1 5.43 1.27
1 -18 -1 6.04 0.97
-1 18 2 3.21 1.21
1 -18 2 2.59 0.88
-1 18 2 3.65 1.22
1 18 -2 4.1 1.22
1 18 -2 3.41 1.21
-1 -18 -2 2.8 0.84
-1 -18 2 4.77 0.94
-1 18 -2 2.6 1.19
1 18 2 3.49 1.18
1 -18 -2 4.38 0.89
-1 18 -2 3.23 1.11
1 18 2 3.93 1.23
-1 18 3 4.36 1.24
1 18 -3 5.74 1.26
-1 -18 -3 7.16 0.98
1 18 -3 5.24 1.29
1 -18 3 4.15 1
-1 18 3 4.96 1.33
-1 18 -3 3.58 1.23
-1 18 -3 3.64 1.25
1 18 3 5.33 1.24
1 -18 -3 5.18 0.83
-1 -18 3 3.08 1.09
1 18 3 5.42 1.33
1 18 -4 0.3 1.09
1 18 -4 -0.02 1.02
-1 18 4 0.03 1.18
-1 18 4 0.31 1.13
-1 -18 -4 -0.8 0.85
1 18 4 -0.79 1.06
1 18 4 -0.05 1.08
1 -18 -4 -0.25 0.79
-1 18 -4 0.8 1.05
-1 18 -4 0.05 1.11
1 18 -5 4.07 1.3
-1 -18 -5 6.67 0.98
-1 18 5 3.6 1.29
1 18 -5 3.43 1.29
1 -18 -5 3.16 0.83
-1 18 -5 2.2 1.24
-1 18 -5 4.47 1.24
1 18 5 4.1 1.33
-1 18 6 0.86 1.22
-1 -18 -6 0.67 0.97
1 18 -6 0.6 1.21
1 18 -6 0.73 1.18
1 18 6 3.25 1.26
-1 18 -6 0.12 1.18
-1 18 -6 1.05 1.33
1 18 -7 5.49 1.39
-1 -18 -7 6.88 1.28
-1 18 7 2.96 1.32
1 18 7 2.8 1.32
-1 18 -7 3.75 1.34
1 18 -8 8.79 1.52
-1 18 8 9.91 1.59
1 18 -8 8.24 1.45
1 18 8 8.87 1.51
-1 18 -8 6.11 1.5
-1 18 -8 6.68 1.51
-1 18 9 2.35 1.34
1 18 -9 2.28 1.33
1 18 -9 1.74 1.36
1 18 9 2.78 1.31
-1 18 -9 4.03 1.42
-1 18 -9 4.17 1.39
1 18 -10 3.35 1.41
1 18 -10 4.41 1.49
-1 18 10 4.45 2.06
-1 18 -10 3.09 1.64
1 18 10 3.5 1.48
-1 18 -10 3.9 1.39
-1 18 11 5.25 1.65
1 18 -11 5.71 1.56
1 18 -11 4.2 1.51
-1 18 -11 4.24 1.46
1 18 11 3.04 1.59
-1 18 -11 3.87 1.46
-1 18 12 0.25 1.5
1 18 -12 -0.54 1.44
1 18 -12 1.03 1.4
1 18 12 1.57 1.46
-1 18 -12 1.32 1.38
-1 18 -12 -0.14 1.39
-1 18 13 0.73 1.47
1 18 -13 -0.8 1.33
1 18 -13 0.73 1.3
1 18 13 -0.36 1.55
-1 18 -13 0.81 1.46
-1 18 -13 -1.32 1.36
1 18 -14 5.07 1.54
1 18 -14 2.61 1.45
-1 18 14 6.55 1.73
1 18 14 4.99 1.64
-1 18 -14 4.65 1.61
-1 18 -14 2.08 1.53
1 18 -15 1.48 1.5
1 18 -15 0.26 2.66
-1 18 -15 -0.54 1.41
-1 18 -15 -2.73 1.55
1 18 -16 3.47 3.05
-1 18 -16 1.15 1.4
2 -18 0 7.82 1.03
2 18 0 5.16 1.22
-2 -18 0 7.2 1.08
-2 18 0 4.27 1.3
2 18 0 6.17 1.25
-2 18 0 3.32 1.23
-2 18 1 2.97 1.21
-2 -18 -1 2.31 0.86
-2 18 1 2.82 1.24
2 -18 1 3.72 0.94
2 18 -1 2.48 1.06
2 18 -1 2.92 1.18
-2 18 -1 3.83 1.23
-2 18 -1 4.1 1.27
-2 -18 1 1.45 0.88
2 18 1 3.57 1.12
2 18 1 3.11 1.16
2 -18 -1 3.93 0.87
2 -18 2 6.16 1.01
2 18 -2 4.43 1.23
-2 -18 -2 5.2 0.95
2 18 -2 5.82 1.18
-2 18 2 4.54 1.28
-2 18 2 5.36 1.29
-2 18 -2 4.83 1.29
-2 -18 2 5.71 1.11
2 18 2 5.38 1.27
-2 18 -2 5.66 1.29
2 18 2 5.75 1.27
2 -18 -2 4.81 0.92
-2 18 3 -0.14 1.14
2 18 -3 -0.25 0.99
2 18 -3 1.22 0.99
-2 -18 -3 1.39 0.84
2 -18 3 0.61 0.81
-2 18 3 0.75 1.17
2 -18 -3 0.27 0.84
-2 18 -3 0.58 1.13
2 18 3 -0.73 1.1
2 18 3 -0.19 1.05
-2 18 -3 0.65 1.1
-2 18 4 14.26 1.65
-2 -18 -4 12.08 1.5
2 18 -4 13.1 1.59
2 18 -4 14.61 1.62
2 -18 -4 13.21 1.29
-2 18 -4 15.54 1.72
-2 18 -4 14.68 1.68
2 18 4 13.35 1.52
-2 -18 -5 -1.07 0.89
2 18 -5 1.23 1.11
2 18 -5 0.99 1.16
-2 18 5 0.54 1.17
2 18 5 0.07 1.18
-2 18 -5 0.28 1.17
-2 18 -5 0.47 1.19
-2 -18 -6 -0.34 1.72
-2 18 6 -0.72 1.12
2 18 -6 1.11 1.16
2 18 -6 0.52 1.12
2 18 6 -1.09 1.18
-2 18 -6 -1.03 1.1
-2 18 -6 -1.04 1.16
-2 18 7 1.16 1.25
2 18 -7 2.41 1.24
-2 18 -7 1.32 1.29
2 18 7 1.55 1.22
2 18 -8 1.25 1.19
2 18 -8 3.54 1.26
-2 18 8 2.01 1.37
-2 18 -8 1.61 1.36
2 18 8 1 1.33
-2 18 -8 0.99 1.22
-2 18 9 9.93 1.67
2 18 -9 8.29 1.53
2 18 -9 8.66 1.57
2 18 9 9.55 1.62
-2 18 -9 9.7 1.6
-2 18 -9 8.99 1.55
2 18 -10 0.65 1.48
2 18 -10 0.81 1.23
2 18 10 -0.32 1.85
-2 18 -10 0.97 1.32
-2 18 11 2.76 1.54
2 18 -11 5.81 1.52
2 18 -11 3.09 1.37
2 18 11 2.08 1.54
-2 18 -11 3.85 1.45
-2 18 -11 2.89 1.48
-2 18 12 10.08 1.85
2 18 -12 10.17 1.64
2 18 -12 8.14 1.63
-2 18 -12 11.34 1.78
-2 18 -12 10.4 1.81
2 18 12 9.82 1.78
2 18 -13 -0.52 1.3
2 18 -13 0.5 1.4
-2 18 13 -0.21 1.39
-2 18 -13 -0.32 1.45
-2 18 -13 4.28 1.57
2 18 13 -0.3 1.47
-2 18 14 4.69 1.82
2 18 -14 1.6 1.43
2 18 -14 1.21 1.41
-2 18 -14 1.83 1.58
-2 18 -14 0.91 1.51
2 18 14 2.06 1.51
2 18 -15 8.77 1.69
-2 18 -15 6.87 1.79
2 18 -16 4.69 1.56
-2 18 -16 -1.03 1.49
-3 18 0 0.02 1.14
-3 18 0 1.8 1.17
3 18 0 1.48 1.03
-3 -18 0 -0.51 0.87
3 -18 0 1.18 0.81
3 18 0 1.43 1.05
3 18 -1 4.05 1.1
-3 18 1 4.46 1.25
3 18 -1 4.68 1.19
3 -18 1 6.47 0.97
-3 -18 -1 6.5 0.99
-3 18 1 5.12 1.3
-3 -18 1 3.79 1.09
3 -18 -1 6.01 0.96
-3 18 -1 4.09 1.28
3 18 1 5.64 1.22
3 18 1 4.69 1.09
-3 18 -1 5.16 1.32
3 18 -2 0.09 1
-3 -18 -2 -0.53 0.94
-3 18 2 -0.49 1.07
-3 18 2 1.14 1.16
3 -18 2 0.49 0.86
3 18 -2 0.62 1.05
-3 18 -2 0.37 1.15
3 -18 -2 0.69 0.83
-3 18 -2 -0.22 1.13
3 18 2 0.2 0.9
3 18 2 -0.72 1.01
-3 18 3 13.84 1.62
3 -18 3 14.43 1.44
3 18 -3 13.04 1.56
-3 -18 -3 14.58 1.51
3 18 -3 14.34 1.57
-3 18 3 15.82 1.78
3 18 3 14.97 1.68
-3 18 -3 14.12 1.61
-3 18 -3 14.35 1.66
3 -18 -3 16.5 1.38
3 18 3 14.63 1.63
-3 -18 -4 5.19 1.17
-3 18 4 5.24 1.39
3 18 -4 4.35 1.22
3 18 -4 4.1 1.23
3 18 4 4.3 1.26
-3 18 -4 4.28 1.24
-3 18 -4 5.08 1.38
3 18 -5 3.16 1.2
3 18 -5 5.35 1.26
-3 18 5 0.86 1.26
3 18 5 4.03 1.26
-3 18 -5 3.23 1.25
-3 18 -5 3.31 1.27
3 18 -6 1.65 1.12
-3 18 6 0.66 1.24
3 18 -6 0.12 1.24
-3 18 -6 0.49 1.17
-3 18 -6 1.03 1.27
3 18 6 2.4 1.25
-3 18 7 2.69 1.39
3 18 -7 3.09 1.27
3 18 7 4.53 1.32
-3 18 -7 3.16 1.35
-3 18 -7 0.13 2.09
3 18 -8 1.6 1.25
-3 18 8 3.43 1.45
3 18 -8 1.89 1.3
-3 18 -8 1.56 1.32
-3 18 -8 2.99 1.39
3 18 8 3.55 1.35
3 18 -9 -0.3 1.16
-3 18 9 1.5 1.4
3 18 -9 -0.36 1.23
3 18 9 0.93 1.25
-3 18 -9 1.23 1.32
-3 18 -9 0.17 1.33
3 18 -10 5.3 1.33
-3 18 -10 4.44 1.56
3 18 -11 3.73 1.39
-3 18 11 3.08 1.55
3 18 -11 4.19 1.4
3 18 11 4.26 1.39
-3 18 -11 4.64 1.57
-3 18 -11 3.18 1.48
-3 18 12 0.25 1.54
3 18 -12 1.57 1.37
3 18 -12 4.47 1.39
-3 18 -12 2.18 1.56
-3 18 -12 0.8 1.48
3 18 12 0.76 1.37
3 18 -13 2 1.31
3 18 -13 1.96 1.37
-3 18 13 0.74 1.48
-3 18 -13 2.55 1.53
-3 18 -13 1.46 1.55
3 18 13 5.05 1.59
-3 18 14 1.16 1.77
3 18 -14 0.69 1.42
3 18 -14 2.18 1.58
-3 18 -14 0.15 1.48
-3 18 -14 -1.07 1.47
3 18 -15 2.78 1.53
-3 18 -15 5.87 1.78
3 18 -16 2.59 1.53
-3 18 -16 -0.57 1.56
4 -18 0 19.69 1.51
4 18 0 16.67 1.59
-4 18 0 15.59 1.75
4 18 0 15.96 1.56
-4 18 0 15.2 1.73
4 -18 1 -0.26 0.85
4 18 -1 0.06 0.95
4 18 -1 -0.04 0.96
-4 18 1 0.16 1.15
-4 18 1 0.6 1.13
4 18 1 0.18 1.03
4 18 1 0.99 1.09
-4 18 -1 0.18 1.09
4 -18 -1 0.87 0.8
-4 18 -1 0.16 1.21
-4 18 2 15.68 1.77
4 18 -2 13.22 1.51
-4 18 2 14.74 1.74
4 18 -2 12.6 1.52
4 18 2 13.18 1.49
-4 18 -2 14.77 1.65
4 18 2 12.9 1.55
4 -18 -2 12.92 1.33
-4 18 -2 13.52 1.59
-4 18 3 3.41 1.3
4 -18 3 4.41 1.03
4 18 -3 4.19 1.15
-4 18 3 3.6 1.31
4 18 -3 4.82 1.14
-4 18 -3 3.34 1.28
-4 18 -3 3.39 1.3
4 18 3 5.25 1.18
4 18 3 4.55 1.23
4 18 -4 28.54 1.95
4 18 -4 28.15 1.92
-4 18 4 29.88 2.06
-4 18 -4 29.95 2.21
4 18 4 30.21 1.95
-4 18 -4 29.5 2.07
-4 18 5 -0.46 1.25
4 18 -5 -1.8 1.11
4 18 -5 -0.2 1.04
-4 18 -5 0.44 1.24
4 18 5 0.6 1.07
-4 18 -5 -0.68 1.18
-4 18 6 2.89 1.31
4 18 -6 3.37 1.23
4 18 -6 2.65 1.2
-4 18 -6 2.11 1.24
4 18 6 1.53 1.18
-4 18 7 -1.42 1.25
4 18 -7 1.37 1.17
4 18 -7 3.11 1.21
-4 18 -7 1.57 1.41
4 18 7 3.2 1.2
-4 18 -7 0.65 1.26
-4 18 8 9.65 1.7
4 18 -8 10.74 1.44
4 18 -8 11.67 1.55
-4 18 -8 9.71 1.6
-4 18 -8 12 1.74
4 18 8 7 1.45
4 18 -9 0.88 1.22
-4 18 9 1.17 1.46
4 18 -9 2.29 1.21
-4 18 -9 -0.27 1.31
4 18 9 -0.8 1.21
-4 18 -9 0.73 1.36
-4 18 10 -0.28 1.85
4 18 -10 1.35 1.24
-4 18 -10 2.48 1.54
-4 18 -10 1.22 1.41
4 18 -11 6.12 1.58
4 18 -11 6.63 1.52
-4 18 11 9.73 1.81
-4 18 -11 5.91 1.67
-4 18 -11 6.78 1.63
4 18 11 8.41 1.53
4 18 -12 2.73 1.46
4 18 -12 1.2 1.29
-4 18 12 1.39 1.61
4 18 12 0.54 1.3
-4 18 -12 1.08 1.52
-4 18 -12 2.36 1.56
-4 18 13 11.5 1.96
4 18 -13 12.12 1.73
4 18 -13 14.37 1.9
-4 18 -13 14.52 1.95
4 18 13 12.15 1.86
-4 18 -13 13.24 1.96
4 18 -14 15.98 1.94
4 18 -14 18.19 1.97
-4 18 14 19.11 2.32
-4 18 -14 16.22 2.18
-4 18 -14 17.29 2.08
4 18 -15 2.1 1.45
-4 18 -15 1.77 1.63
4 18 -16 2.2 1.48
-4 18 -16 4.95 1.66
5 -18 0 4.3 0.9
-5 18 0 4.18 1.29
5 18 0 3 1.05
5 18 0 5.55 1.1
-5 18 0 3.67 1.24
-5 18 1 5.27 1.3
1 -5 18 3.54 1.33
5 18 -1 5.68 1.14
5 18 -1 5.29 1.18
-5 18 1 3.86 1.33
5 -18 -1 6.25 0.88
-5 18 -1 5.67 1.37
5 18 1 4.7 1.13
5 18 1 3.59 1.13
-5 18 -1 4.84 1.33
5 18 -2 -0.14 0.96
5 18 -2 0.54 1.04
5 -18 2 1.01 0.83
-5 18 2 1.78 1.2
-5 18 2 1.31 1.22
5 18 2 0.1 1.02
-5 18 -2 0.36 1.12
-5 18 -2 -0.13 1.19
5 18 2 0.66 1.01
5 18 -3 3.5 1.16
-5 18 3 3.29 1.3
5 -18 3 1.93 1.11
-5 18 3 3.38 1.35
5 18 -3 5.42 1.18
-5 18 -3 4.61 1.34
-5 18 -3 4.22 1.35
5 18 3 0.36 1.08
5 18 3 3.25 1.16
5 18 -4 0.69 1.04
-5 18 4 -0.65 1.08
5 18 -4 -0.65 0.98
-5 18 -4 -0.5 1.31
-5 18 -4 0.45 1.21
5 18 4 1.37 1.13
-5 18 5 4.74 1.42
5 18 -5 6.72 1.33
5 18 -5 4.12 1.24
-5 18 -5 4.87 1.36
-5 18 -5 5.28 1.47
5 18 5 5.31 1.29
5 18 -6 -1.76 1.71
-5 18 6 0.95 1.24
5 18 -6 1.11 1.07
-5 18 -6 1.08 1.65
-5 18 -6 1.79 1.3
5 18 6 -1.81 0.99
-5 18 7 6.28 1.5
5 18 -7 7.9 1.36
5 18 -7 6.9 1.37
-5 18 -7 5.08 1.43
5 18 7 5.58 1.38
-5 18 -7 7.86 1.56
-5 18 8 0.96 1.34
5 18 -8 2.79 1.24
5 18 -8 1.5 1.12
-5 18 -8 0 1.33
5 18 8 0.2 1.13
-5 18 -8 1.02 1.35
5 18 -9 7.87 1.46
5 18 -9 9.19 1.56
-5 18 9 10.55 2.29
-5 18 -9 6.6 1.46
5 18 9 7 1.46
-5 18 10 1.57 1.45
5 18 -10 -0.08 1.29
5 18 -10 3.54 1.46
-5 18 -10 1.06 1.45
5 18 10 1.99 1.45
-5 18 -10 3.58 1.5
-5 18 11 0.61 1.55
5 18 -11 0.27 1.34
5 18 -11 1.19 1.24
-5 18 -11 0.51 1.44
-5 18 -11 -0.42 1.42
5 18 11 0.08 1.33
5 18 -12 0.23 1.36
5 18 -12 1.14 1.39
-5 18 12 -2.03 1.45
-5 18 -12 3.57 1.52
5 18 12 1.52 1.45
-5 18 -12 0.73 1.56
5 18 -13 1.34 1.41
5 18 -13 -0.14 1.36
-5 18 13 -2.34 1.54
5 18 13 -0.09 1.45
-5 18 -13 3.85 1.59
-5 18 -13 1.76 1.53
5 18 -14 0.57 1.53
5 18 -14 1.21 1.36
-5 18 -14 0.63 1.56
-5 18 -14 1.66 1.54
5 18 -15 -0.71 1.54
-5 18 -15 1.36 1.63
-5 18 -16 1.81 1.89
-6 18 0 -0.67 1.12
6 18 0 1.17 0.96
-6 18 0 1.59 1.2
6 18 0 0.84 0.94
1 -6 18 1.84 1.33
-6 18 1 3.39 1.29
6 -18 1 0.69 0.89
-6 18 1 1.03 1.21
6 18 -1 2.1 0.99
6 18 -1 1.17 0.9
6 18 1 3.03 0.95
-6 18 -1 2.14 1.22
-6 18 -1 1.11 1.18
6 18 1 0.85 1
6 -18 2 -1.2 0.94
-6 18 2 -0.17 1.13
6 18 -2 0.4 0.91
6 18 -2 0.79 0.95
-6 18 2 -0.01 1.25
6 18 2 -0.31 0.92
6 18 2 -0.91 0.9
-6 18 -2 0.03 1.09
-6 18 -2 1 1.17
-6 18 3 1.19 1.18
6 18 -3 1.4 1.04
6 18 -3 2.46 0.97
6 18 3 2.02 1.12
-6 18 -3 1.54 1.32
-6 18 -3 0.2 1.2
6 18 -4 2.49 1.06
-6 18 4 2.72 1.32
6 18 -4 1.68 0.99
-6 18 -4 4.44 1.43
-6 18 -4 3.22 1.21
6 18 4 3.18 1.12
-6 18 5 0.28 1.17
6 18 -5 0.64 0.98
6 18 -5 0.57 1.1
-6 18 -5 -0.04 1.23
6 18 5 -0.44 1.04
6 18 -6 1.7 1.07
6 18 -6 4.42 1.43
-6 18 6 4.43 1.44
-6 18 -6 3.46 1.41
6 18 6 3.1 1.19
-6 18 -6 2.69 1.39
6 18 -7 4.23 1.18
-6 18 7 3.23 1.38
6 18 -7 3.94 1.21
-6 18 -7 2.65 1.35
-6 18 -7 4.26 1.42
6 18 7 4.01 1.21
6 18 -8 3.98 1.34
-6 18 8 3.67 1.48
6 18 -8 5.93 1.23
6 18 8 3.19 1.3
-6 18 -8 5.68 1.51
-6 18 -8 3.05 1.46
6 18 -9 -0.09 1.14
-6 18 -9 1.4 1.37
6 18 -10 1.54 1.29
-6 18 10 1.58 1.46
6 18 -10 1.65 1.34
-6 18 -10 1.76 1.44
-6 18 -10 -0.69 1.5
6 18 10 1.85 1.28
-6 18 11 1.14 1.64
6 18 -11 2.64 1.24
6 18 -11 1.49 1.23
-6 18 -11 2.92 1.51
6 18 11 0.38 1.32
-6 18 -11 1.76 1.46
-6 18 12 3.71 1.63
6 18 -12 4.31 1.34
6 18 -12 7.07 1.4
6 18 12 6.69 1.47
-6 18 -12 6.72 1.64
-6 18 -12 4.55 1.7
6 18 -13 1.25 1.4
-6 18 13 -0.92 1.72
6 18 -13 0.85 1.33
-6 18 -13 1.23 1.55
-6 18 -13 -2.34 1.46
6 18 -14 1.71 1.46
-6 18 -14 0.07 1.43
6 18 -15 4.51 1.5
-6 18 -15 4.69 1.72
-7 18 0 12.97 1.59
7 18 0 13.83 1.44
-7 18 0 12.88 1.64
7 18 0 11.25 1.39
7 18 -1 4.41 1.12
7 18 -1 4.59 1.09
-7 18 1 3.81 1.28
-7 18 1 3.9 1.32
7 18 1 5.67 1.17
-7 18 -1 4.23 1.32
7 18 1 4.96 1.12
-7 18 -1 4.69 1.34
7 18 -2 1.39 1.02
-7 18 2 -0.99 1.1
7 18 -2 2.29 1.07
-7 18 2 1.64 1.26
-7 18 -2 0.19 1.22
7 18 2 1.43 0.96
-7 18 -2 0.4 1.2
7 18 2 2.43 1.01
7 18 -3 3.17 1.12
-7 18 3 3.59 1.34
7 18 -3 2.74 1.07
7 18 3 2.85 1.12
-7 18 -3 4.71 1.32
-7 18 -3 2.86 1.55
7 18 -4 3.4 1.1
7 18 -4 3.91 1.09
-7 18 4 2.53 1.3
7 18 4 4.41 1.17
-7 18 -4 2.65 1.29
7 18 -5 4.98 1.13
-7 18 5 6.56 1.51
7 18 5 6.44 1.18
-7 18 -5 5.76 1.48
-7 18 -5 9.58 1.94
-7 18 6 4.58 1.39
7 18 -6 3.69 1.18
7 18 -6 4.64 1.13
-7 18 -6 2.24 1.35
-7 18 -6 2.93 1.29
7 18 6 3.34 1.17
-7 18 7 0.7 1.32
7 18 -7 -1.06 1.09
7 18 -7 -0.19 1.08
7 18 7 -1.14 1.02
-7 18 -7 2.22 1.36
-7 18 -7 0.07 1.3
-7 18 8 -1.38 2
7 18 -8 1.99 1.14
7 18 -8 2.3 1.21
-7 18 -8 1.59 1.45
7 18 8 2.12 1.35
-7 18 9 0.81 1.61
7 18 -9 1.57 1.86
7 18 -9 2.94 1.31
-7 18 -9 -0.74 1.44
-7 18 -9 0.69 1.55
7 18 9 0.32 1.24
7 18 -10 3.65 1.22
-7 18 10 1.14 1.49
7 18 -10 2.25 1.3
7 18 10 1.5 1.21
-7 18 -10 3.22 1.49
-7 18 -10 1.06 1.43
7 18 -11 8.55 1.4
7 18 -11 9.46 1.59
-7 18 11 7.09 1.76
-7 18 -11 11.51 1.9
-7 18 -11 8.21 1.72
7 18 11 9.23 1.49
7 18 -12 -0.78 1.41
-7 18 12 1.33 1.51
7 18 -12 0.2 1.29
-7 18 -12 0 1.47
-7 18 -12 -1.95 1.62
7 18 12 -2.96 1.23
7 18 -13 2.77 1.44
-7 18 13 1.04 3.04
7 18 -13 2.76 1.34
-7 18 -13 -0.64 1.63
-7 18 -13 4.16 1.65
7 18 -14 6.54 1.58
-7 18 -14 6.13 1.75
-7 18 -15 -0.15 1.57
8 18 0 3.33 1.09
-8 18 0 2.98 1.27
8 18 0 0.97 0.88
-8 18 1 6.95 1.44
8 18 -1 9.85 1.28
8 18 -1 10.21 1.32
8 18 1 9.2 1.22
8 18 1 10.53 1.27
-8 18 -1 10.41 1.49
8 18 -2 1.79 1.57
8 18 -2 0.48 0.96
-8 18 2 2.16 1.31
-8 18 -2 1.75 1.23
8 18 2 0.85 1.02
-8 18 3 2.31 1.24
8 18 -3 0.98 1.04
8 18 -3 4.16 1.08
-8 18 -3 2.6 1.28
8 18 3 3.67 1.16
-8 18 -3 3.9 1.49
-8 18 4 9.46 1.59
8 18 -4 8.57 1.22
8 18 4 11.72 1.33
-8 18 -4 10.48 1.59
-8 18 -4 9.47 1.64
-8 18 5 3.37 1.38
8 18 -5 1.55 1.1
8 18 -5 2.87 1.06
-8 18 -5 -0.63 1.29
-8 18 -5 -0.8 1.15
8 18 5 0.84 1.03
-8 18 6 5.06 1.42
8 18 -6 2.38 1
8 18 -6 4.49 1.11
-8 18 -6 4.21 1.39
-8 18 -6 3.47 1.45
8 18 6 5.12 1.27
8 18 -7 0.09 0.99
8 18 -7 -0.46 1.02
-8 18 7 -0.6 1.33
-8 18 -7 1.07 1.29
8 18 7 0.64 1.08
-8 18 -7 2.2 2.04
-8 18 8 1.76 1.55
8 18 -8 1.82 1.13
-8 18 -8 1.02 1.52
-8 18 -8 2.51 1.47
-8 18 9 11.46 1.7
8 18 -9 8.94 1.36
8 18 -9 6.8 1.35
-8 18 -9 8.79 1.66
-8 18 -9 7.72 1.68
8 18 9 9.18 1.47
8 18 -10 2.64 1.31
-8 18 10 4.57 1.7
8 18 -10 0.21 1.22
10 8 -18 -1.51 1.05
-8 18 -10 2.22 1.59
8 18 10 1.2 1.16
-8 18 -10 3.85 1.65
8 18 -11 1.72 1.28
-8 18 11 2.7 1.58
8 18 -11 0.12 1.27
8 18 11 -0.41 1.29
-8 18 -11 2.38 1.69
-8 18 -11 -0.1 1.51
8 18 -12 16.58 1.85
-8 18 12 17.85 2.14
8 18 -12 19.83 1.94
-8 18 -12 19.33 2.21
-12 8 -18 14.01 2
-8 18 -12 19.07 2.16
8 18 -13 4.69 1.41
-8 18 -13 2.42 1.69
8 18 -14 2.56 1.5
-8 18 -14 1.97 1.76
9 18 0 0.73 0.98
-9 18 0 -0.4 1.23
-9 18 0 0.32 1.35
9 18 0 2.25 1
9 18 -1 3.9 1.06
-9 18 1 4.74 1.43
-9 18 1 5.77 1.31
9 18 -1 3.92 1.04
9 18 1 3.98 1.04
9 18 1 5.18 1.03
-9 18 -1 2.3 1.42
-9 18 -1 3.75 1.39
-9 18 2 9.68 1.47
9 18 -2 12.27 2.19
9 18 -2 9.5 1.26
9 18 2 6.4 1.12
-9 18 -2 10.73 1.56
-9 18 -2 7.19 1.5
9 18 -3 2.37 1.05
-9 18 3 1.04 1.32
-9 18 -3 0.74 1.26
-9 18 -3 3.68 1.26
9 18 3 0.36 0.96
9 18 -4 0.71 1.11
-9 18 4 0.71 1.15
9 18 -4 0.14 1
-9 18 -4 0.6 1.21
9 18 4 0.39 0.96
-9 18 -4 1.83 1.38
9 18 -5 8.53 1.21
9 18 -5 5.87 1.11
-9 18 5 10.04 1.63
-9 18 -5 6.56 1.51
9 18 5 10.24 1.3
-9 18 -5 10.25 1.66
-9 18 6 1.22 1.37
9 18 -6 -1.13 0.99
9 18 6 -0.44 0.98
-9 18 -6 0.2 1.7
-9 18 -6 2.66 1.38
9 18 -7 1.32 1.14
9 18 -7 1.24 1.86
-9 18 7 3.48 2.42
-9 18 -7 3.16 1.39
-9 18 -7 0.57 1.37
9 18 -8 10.96 1.43
9 18 -8 10.88 1.44
-9 18 8 9.24 1.68
-9 18 -8 8.05 1.6
9 18 8 8.59 1.37
-9 18 -8 11.3 1.74
9 18 -9 19.1 1.77
9 9 -18 18.64 1.82
9 18 -9 22.66 1.91
-9 18 9 26.4 2.4
-9 18 -9 22.07 2.38
-9 18 -9 27.22 2.53
9 18 9 19.36 1.87
-9 18 10 -0.22 1.57
9 18 -10 1.13 1.26
10 9 -18 1.07 1.07
9 18 -10 -2.02 1.11
-10 9 -18 -2.5 1.45
-9 18 -10 2.46 1.54
9 18 10 -1.12 1.23
-9 18 -10 3.55 1.6
-9 18 11 3.03 1.6
9 18 -11 3.46 1.29
9 18 -11 7.83 1.45
-9 18 -11 4.59 1.62
-11 9 -18 2.86 1.56
-9 18 -11 4.94 1.78
-9 18 12 1.79 1.68
9 18 -12 8.26 2.52
9 18 -12 6.02 1.42
-9 18 -12 6.8 1.84
-12 9 -18 5.39 1.83
-9 18 -12 4.76 2.2
9 18 -13 7.12 1.92
-9 18 -13 2.1 1.7
-9 18 -14 -0.32 2.09
10 18 0 1.43 0.97
-10 18 0 0.85 1.26
-10 18 0 2.95 1.32
-10 18 1 1.89 1.26
10 18 -1 4.67 1.06
-10 18 -1 4.25 1.39
-10 18 -1 5.04 1.42
10 18 1 3.68 1
10 18 -2 0.77 1.17
10 18 -2 1.86 0.97
-10 18 2 1.07 1.26
-10 18 -2 -0.1 1.31
10 18 2 2.69 0.96
-10 18 -2 2.46 1.36
10 18 -3 5.67 1.1
-10 18 3 4 1.43
10 18 -3 4.53 1.08
-10 18 -3 6.2 1.46
10 18 3 3.09 0.98
-10 18 -3 3.36 1.51
10 18 -4 0.31 0.91
10 18 -4 3.13 0.99
-10 18 4 0.35 1.31
-10 18 -4 0.59 1.26
-10 18 -4 0.97 1.31
10 18 4 0.46 1.03
10 18 -5 2.68 1.06
10 18 -5 2.48 1.04
-10 18 5 2.32 2.48
10 18 5 4.78 1.15
-10 18 -5 4.78 1.5
10 18 -6 3.01 1.09
-10 18 6 0.97 1.47
10 18 -6 1.63 1.39
-10 18 -6 4.04 1.56
-10 18 -6 1.44 1.44
7 10 -18 1.73 1.33
10 18 -7 0.67 1.13
10 18 -7 2.11 1.11
-10 18 7 1.35 1.49
-10 18 -7 3.01 1.43
10 18 7 2.78 1.18
-10 18 -7 4.51 1.65
10 18 -8 2.12 1.16
8 10 -18 2.22 1.24
-10 18 8 0.42 1.41
10 18 -8 5.11 1.14
-10 18 -8 3.26 1.43
-8 10 -18 1.19 1.53
10 18 8 2.62 1.2
-10 18 -8 3.77 1.62
10 18 -9 0.72 1.04
-10 18 9 2.8 1.59
10 18 -9 -1.77 1.13
9 10 -18 -0.5 1.22
-10 18 -9 -0.16 1.58
-10 18 -9 0.06 1.62
-9 10 -18 -0.28 1.54
10 18 9 -1.46 1.08
10 18 -10 2.29 1.31
-10 18 10 0.41 1.63
10 10 -18 -0.5 1.55
10 18 -10 2.95 1.19
-10 10 -18 -0.39 1.49
-10 18 -10 -0.51 1.81
-10 18 -10 0.96 1.62
-10 10 -18 -4.2 1.92
-10 18 11 0.91 1.63
10 18 -11 4.07 1.71
-10 18 -11 0.09 1.74
-11 10 -18 -1.11 1.7
-10 18 -11 0.12 1.96
-10 18 -12 0.14 1.75
-12 10 -18 -1.72 1.8
-10 18 -13 7.07 1.89
11 18 0 -0.72 0.89
-11 18 0 1.12 1.23
11 18 -1 5.34 1.03
-11 18 1 5.97 1.47
11 18 1 5.38 1.04
-11 18 -1 6.34 1.49
-11 18 -1 6.68 1.47
-11 18 2 2.24 1.5
11 18 -2 3.42 0.94
11 18 2 2.84 0.96
-11 18 -2 4.18 1.46
-11 18 -2 3.65 1.39
11 18 -3 5.07 0.96
-11 18 3 3.35 2.34
11 18 3 3.62 1.02
-11 18 -3 3.25 1.51
11 18 -4 6.23 1.03
4 11 -18 4.95 1.56
-11 18 -4 5.67 1.96
11 18 4 6.05 1.44
-11 18 -4 4.03 1.57
-11 18 5 0.72 1.41
5 11 -18 0.26 1.24
-5 11 -18 -0.69 1.41
11 18 5 2.59 1.27
-11 18 -5 2.76 1.42
-11 18 -5 1.4 1.56
-11 18 6 1.67 1.51
6 11 -18 0.75 1.24
11 18 6 2.2 1.08
-11 18 -6 1.92 1.69
-6 11 -18 1.6 1.46
-11 18 -6 0.16 1.46
-11 18 7 6.3 1.66
7 11 -18 10.4 1.47
-11 18 -7 7.62 1.62
-7 11 -18 5.97 1.7
11 18 7 10.64 1.32
-11 18 -7 10.7 1.85
-11 18 8 0.04 1.64
8 11 -18 -0.63 1.1
-11 18 -8 1.97 1.53
-11 18 -8 3.02 1.91
11 18 8 1.25 1.09
-8 11 -18 -1.51 1.6
-11 18 9 3.16 1.75
9 11 -18 4.26 1.27
-9 11 -18 -0.51 1.94
-11 18 -9 8.43 1.93
-11 18 -9 6.32 1.67
-9 11 -18 5.4 1.73
-11 18 10 2.42 1.84
-11 18 -10 2.88 2.15
-10 11 -18 -1.1 1.67
-11 18 -10 1.57 1.64
-11 11 -18 1.7 1.74
-11 18 -11 0.56 1.67
-12 11 -18 -0.42 1.96
-11 18 -12 4.03 1.86
-12 18 0 0.42 2.23
0 12 -18 2.97 1.56
-12 18 1 2.63 1.79
1 12 -18 -1.02 1.41
-12 18 -1 1 1.8
-1 12 -18 -1.37 1.39
-12 18 2 9.23 1.66
2 12 -18 8.39 1.72
-12 18 -2 10.13 1.74
-12 18 -2 11.12 1.75
-2 12 -18 8.48 1.82
-12 18 3 1.12 1.48
3 12 -18 -0.36 1.36
-12 18 -3 3.21 1.49
-3 12 -18 -2.12 1.41
-12 18 -3 1.02 1.63
-12 18 4 1.08 1.47
4 12 -18 0.23 1.27
-12 18 -4 2.42 1.45
-4 12 -18 0.39 1.63
-12 18 -4 2.4 1.7
-12 18 5 3.7 1.6
5 12 -18 1.33 1.38
-5 12 -18 3.58 1.61
-12 18 -5 0.15 1.79
-12 18 -5 1.87 1.5
6 12 -18 2.22 1.36
-12 18 6 3.23 1.63
-6 12 -18 5.06 1.66
-12 18 -6 1.17 1.52
-12 18 -6 8.32 2.11
-12 18 7 -1.85 1.81
-12 18 -7 2.57 1.57
-7 12 -18 0.22 1.6
-12 18 -7 -0.39 2.77
-7 12 -18 -1.26 1.64
8 12 -18 15.46 1.88
-8 12 -18 14.39 1.94
-12 18 -8 22.37 2.49
-8 12 -18 11.78 2.02
9 12 -18 1.53 1.24
-9 12 -18 5.39 1.81
-12 18 -9 5.04 1.86
-9 12 -18 2.76 2.33
-10 12 -18 0.99 1.76
-12 18 -10 5.89 1.88
-12 18 -11 4.79 2.12
-11 12 -18 -1.4 1.76
0 13 -18 12.93 1.87
-13 18 0 11.56 2.34
1 13 -18 0.74 1.45
-13 18 -1 -0.64 1.66
-1 13 -18 0.34 1.41
2 13 -18 1.2 1.36
-13 18 -2 1.15 1.74
-2 13 -18 -1.11 1.42
3 13 -18 1.34 1.4
-13 18 -3 4.29 2.01
-3 13 -18 3.68 1.7
4 13 -18 11.76 1.73
-4 13 -18 12.97 1.95
-13 18 -4 11.43 2.25
5 13 -18 -2.19 1.26
-13 18 -5 3.87 2.42
-5 13 -18 -0.12 1.54
-5 13 -18 -0.05 1.71
6 13 -18 -2.17 1.3
-6 13 -18 1.67 1.59
7 13 -18 -0.16 1.25
-7 13 -18 1.28 1.6
-7 13 -18 -1.14 1.67
8 13 -18 1.6 1.36
-8 13 -18 2.16 1.75
-9 13 -18 2.79 1.72
-10 13 -18 1.48 1.76
0 14 -18 2.04 1.62
1 14 -18 5.58 1.55
-1 14 -18 3.02 1.61
2 14 -18 1.78 1.5
-2 14 -18 -2.18 1.56
-2 14 -18 0.62 1.7
3 14 -18 0.59 1.44
-3 14 -18 1.43 1.55
-3 14 -18 0.96 1.61
4 14 -18 14.95 1.8
-4 14 -18 18.46 2.23
-4 14 -18 14 2.01
5 14 -18 -0.43 1.61
5 14 -18 1 1.42
-5 14 -18 0.99 1.78
-5 14 -18 2.3 1.67
6 14 -18 0.35 1.31
-6 14 -18 2.5 1.56
7 14 -18 3.3 1.48
-7 14 -18 1.82 1.69
8 14 -18 -1.7 1.36
-8 14 -18 -0.31 1.66
-9 14 -18 -1.14 2.24
0 15 -18 6.23 1.69
0 15 -18 7.25 2.51
1 15 -18 2.54 1.49
1 15 -18 -0.91 1.71
-1 15 -18 0.21 1.43
-1 15 -18 -2 2.33
2 15 -18 4.43 1.55
-2 15 -18 6.57 1.76
3 15 -18 -2.61 1.48
-3 15 -18 3.89 1.64
4 15 -18 -2.22 1.44
-4 15 -18 -0.8 1.64
5 15 -18 0.83 1.46
-5 15 -18 3.27 1.77
6 15 -18 1.83 1.5
-6 15 -18 4.85 1.77
-7 15 -18 -0.67 1.67
0 16 -18 0.47 1.6
1 16 -18 4.21 2.01
-1 16 -18 3.1 1.56
2 16 -18 1.95 1.58
-2 16 -18 -1.01 1.58
3 16 -18 -0.92 1.45
-3 16 -18 1.39 1.58
4 16 -18 -1.26 1.46
-4 16 -18 4.76 1.68
-5 16 -18 -0.14 1.71
0 19 0 10.87 1.5
0 19 0 10.27 1.45
0 19 -1 1.91 1.24
0 19 -1 -0.25 1.07
0 19 1 -1.47 1.08
0 19 1 1.24 1.18
0 19 2 13.14 1.6
0 19 2 14.26 1.68
0 19 -2 15.48 1.92
0 19 -2 11.4 1.55
0 19 3 13.86 1.65
0 19 -3 14.07 1.75
0 19 3 12.93 1.68
0 19 -3 14.14 1.68
0 19 4 2.23 1.26
0 19 -4 1 1.22
0 19 -5 1.05 1.28
0 19 5 2.85 1.31
0 19 -5 2.36 1.24
0 19 -6 8.57 1.49
0 19 6 11.04 1.66
0 19 -6 8.92 1.58
0 19 -7 2.61 1.32
0 19 7 1.19 1.4
0 19 -7 3.28 1.38
0 19 -8 17.87 1.92
0 19 8 26.58 2.95
0 19 -8 19.26 2.08
0 19 9 4.37 1.51
0 19 -9 8.7 1.63
0 19 -9 6.87 1.6
0 19 10 -0.61 1.39
0 19 -10 -1.31 1.3
0 19 -10 -0.09 1.29
0 19 -11 6.8 1.61
0 19 -11 8.06 1.71
0 19 11 5.67 1.65
0 19 -12 0.05 1.5
0 19 12 3.21 1.61
0 19 -12 1.71 1.42
0 19 13 7.24 1.82
0 19 -13 10.31 1.75
0 19 -13 9.6 1.62
0 19 -14 15.28 2.05
0 19 14 10.66 2.03
0 19 -15 1.14 1.51
-1 19 0 0.33 1.2
1 19 0 -0.27 1.15
-1 19 0 0.95 1.24
1 19 0 0.33 1.13
1 19 -1 5.06 1.36
-1 19 1 5.62 1.41
-1 19 1 3.75 1.34
1 19 -1 5.33 1.29
1 19 1 3.8 1.29
-1 19 -1 3.8 1.35
1 19 1 4.03 1.35
-1 19 -1 3.68 1.32
-1 19 2 5.04 1.41
-1 19 2 7.1 1.42
1 19 -2 4.65 1.26
1 19 -2 5.58 1.41
-1 19 -2 5.94 1.37
-1 19 -2 7.53 1.52
1 19 2 8.4 1.48
1 19 2 6.38 1.4
1 19 -3 1.85 1.28
-1 19 3 1.64 1.41
1 19 -3 1.45 1.19
-1 19 3 2.86 1.4
-1 19 -3 2.23 1.3
1 19 3 0.49 1.24
1 -19 -3 -1.02 1.39
-1 19 -3 2.49 1.86
1 19 3 2.66 1.31
-1 19 4 9.38 1.53
1 19 -4 7.5 1.36
-1 19 -4 8.36 1.51
1 19 4 8.94 1.41
-1 19 5 6.2 1.5
1 19 -5 6.3 1.39
1 19 -5 7.79 1.49
-1 19 -5 7.28 1.53
-1 19 -5 8.45 1.48
1 19 5 8.08 1.46
-1 19 6 11.72 1.72
1 19 -6 12.33 1.69
1 19 -6 10.35 1.64
-1 19 -6 12.22 1.65
-1 19 -6 10.02 1.64
1 19 6 10.97 1.67
1 19 -7 0.93 1.34
-1 19 7 5.55 1.5
1 19 -7 3.54 1.41
-1 19 -7 1.48 1.37
1 19 7 1.89 1.42
-1 19 -7 1.82 1.38
1 19 -8 -0.14 1.36
-1 19 8 -0.35 1.6
1 19 -8 0.89 1.33
-1 19 -8 0.23 1.47
-1 19 -8 -1.88 1.25
1 19 8 0.12 1.54
1 19 -9 0.97 1.53
1 19 -9 4.76 1.55
-1 19 9 0.91 1.52
-1 19 -9 2.94 1.47
-1 19 -9 1.04 1.44
1 19 9 1.07 1.4
1 19 -10 -0.87 1.31
-1 19 10 1.41 1.57
1 19 -10 0.88 1.36
-1 19 -10 2.59 1.47
-1 19 -10 -0.52 1.22
1 19 10 1.1 1.5
-1 19 11 4.79 1.7
1 19 -11 1.53 1.35
1 19 -11 -0.17 1.39
1 19 11 3.77 1.59
-1 19 -11 2.19 1.54
-1 19 -11 -1.09 1.47
1 19 -12 17.5 1.96
1 19 -12 17.91 2.08
-1 19 12 17.13 2.08
-1 19 -12 15.98 2.01
-1 19 -12 17.8 2.09
1 19 12 16.68 2.05
1 19 -13 0.67 1.41
-1 19 13 -0.32 1.56
1 19 -13 1.13 1.4
-1 19 -13 0.53 1.52
1 19 13 2.79 1.5
-1 19 -13 -3.23 1.46
-1 19 14 4.01 1.74
1 19 -14 5.48 1.6
1 19 14 0.07 1.5
-1 19 -14 0.85 1.48
1 19 -15 11.93 2.52
-1 19 -15 10.59 1.87
-2 19 0 12.19 1.67
2 19 0 10.96 1.51
2 19 0 10.51 1.47
-2 19 0 11.81 1.58
2 19 -1 6.36 1.26
-2 19 1 7.89 1.55
-2 19 1 5.24 1.41
2 19 -1 5.23 1.28
2 19 1 6.23 1.38
2 -19 -1 7.49 1.95
2 19 1 6.82 1.34
-2 19 -1 5.68 1.37
-2 19 -1 5.43 1.49
-2 19 2 -0.35 1.18
-2 19 2 -2.38 1.27
2 19 -2 0.3 1.1
2 19 -2 0.59 1.16
2 19 2 2.24 1.27
-2 19 -2 0.7 1.18
2 19 2 2.73 1.18
-2 19 -2 0.69 1.43
2 -19 -2 2.95 0.95
-2 19 3 21.22 2.13
2 19 -3 20.47 1.87
2 19 -3 19.53 1.82
-2 19 -3 19.26 2.02
2 19 3 18.78 1.83
2 19 3 20.29 2.26
-2 19 4 4.6 1.37
2 19 -4 5.77 1.28
-2 19 -4 3.37 1.39
-2 19 -4 6.77 1.73
2 19 4 3.32 1.29
2 19 -5 2.34 1.27
-2 19 5 0.21 1.29
2 19 -5 0.81 1.25
-2 19 -5 0.4 1.31
-2 19 -5 1.53 1.28
2 19 5 0.4 1.17
2 19 -6 0.22 1.19
2 19 -6 1.67 1.19
-2 19 6 0.83 1.38
-2 19 -6 0.13 1.34
-2 19 -6 0.68 1.34
2 19 6 2.09 1.31
2 19 -7 2 1.28
2 19 -7 -0.42 1.24
-2 19 7 0.52 1.27
-2 19 -7 0.24 1.4
2 19 7 -0.73 1.34
-2 19 -7 0.95 1.3
2 19 -8 17.65 1.82
2 19 -8 19.6 2.23
-2 19 -8 19.67 2.04
2 19 -9 0.6 1.36
-2 19 9 1.12 1.42
2 19 -9 1.02 1.41
2 19 9 0.18 1.29
-2 19 -9 -1.09 1.36
-2 19 -9 1.13 1.43
2 19 -10 1.6 1.41
2 19 -10 -3.2 1.17
-2 19 10 -1.87 1.39
2 19 10 0.43 1.32
-2 19 -10 2.41 1.43
-2 19 -10 2.31 1.41
-2 19 11 1.46 1.57
2 19 -11 2.41 1.47
2 19 -11 0.36 1.31
-2 19 -11 -0.45 1.49
-2 19 -11 1.3 1.43
2 19 11 0.33 1.5
2 19 -12 12.47 1.7
-2 19 12 13.57 1.99
2 19 -12 11.87 1.8
-2 19 -12 13.86 2.01
2 19 12 13.36 1.98
-2 19 -12 10.38 1.84
2 19 -13 6.31 1.6
2 19 -13 6.82 1.67
-2 19 13 5.37 1.77
2 19 13 5.15 1.72
-2 19 -13 5.95 1.74
-2 19 -13 7.31 1.69
-2 19 14 8.93 1.94
2 19 -14 7.97 1.68
-2 19 -14 8.05 1.82
2 19 -15 8.53 1.72
-2 19 -15 8.48 1.79
3 19 0 12.26 1.47
-3 19 0 14.28 1.74
3 19 0 13.15 1.59
-3 19 0 11.35 1.62
-3 19 1 1.74 1.28
-3 19 1 2.23 1.51
3 19 -1 0.7 1.1
3 19 -1 4.55 1.27
3 19 1 0.05 1.09
-3 19 -1 0.87 1.48
3 -19 -1 -0.2 1.29
3 19 1 1.48 1.21
-3 19 -1 0.43 1.23
-3 19 2 20.94 2.12
3 19 -2 17.87 1.91
-3 19 2 15.49 2.77
3 19 -2 19.66 1.92
3 -19 -2 24.83 2.61
-3 19 -2 18.69 2.07
3 19 2 18.89 1.93
3 19 2 20.04 1.84
3 19 -3 93.3 3.51
3 19 -3 78 4.55
-3 19 3 96.92 3.66
-3 19 -3 94.06 3.63
3 19 3 93.13 3.59
3 19 -4 2.91 1.54
-3 19 4 3.01 1.34
3 19 -4 2.14 1.19
3 19 4 1.41 1.22
-3 19 -4 3.89 1.44
-3 19 -4 2.91 1.33
3 19 -5 15.09 1.61
3 19 -5 14.3 1.63
-3 19 5 16.61 1.82
-3 19 -5 15.6 1.8
3 19 5 15.29 1.69
-3 19 -5 15.03 1.76
3 19 -6 2.04 1.28
3 19 -6 3.06 1.35
-3 19 6 4.21 1.46
-3 19 -6 1.84 1.34
3 19 6 3.27 1.38
-3 19 -6 4.58 1.52
3 19 -7 0.62 1.23
3 19 -7 -1.33 1.22
-3 19 7 1.09 1.42
-3 19 -7 -0.7 1.35
-3 19 -7 -1.25 1.25
3 19 7 0.57 1.23
3 19 -8 67.38 3.06
-3 19 -8 62.15 3.07
3 19 -9 5.63 1.45
3 19 -9 10.84 1.56
-3 19 9 10.23 1.76
-3 19 -9 8.06 1.71
3 19 9 6.07 1.6
-3 19 -9 7.18 1.61
3 19 -10 1.03 1.35
-3 19 10 0.89 1.59
3 19 -10 -0.59 1.32
3 19 10 2.07 1.36
-3 19 -10 -0.57 1.41
-3 19 -10 2.26 1.51
3 19 -11 3.59 1.43
3 19 -11 5.73 1.65
-3 19 11 6.58 1.65
-3 19 -11 6.36 1.58
3 19 11 5.37 1.6
-3 19 -11 3.04 1.6
3 19 -12 2.43 1.56
-3 19 12 -0.55 1.57
3 19 -12 -0.19 1.33
3 19 12 -1.83 1.36
-3 19 -12 0.15 1.47
-3 19 -12 -0.16 1.46
3 19 -13 39.61 2.66
3 19 -13 36.52 2.66
-3 19 13 41.79 2.87
-3 19 -13 33.81 2.52
-3 19 -13 38.4 2.59
3 19 13 35.83 2.53
-3 19 14 38.71 2.79
3 19 -14 42.04 2.65
-3 19 -14 46.3 2.84
3 19 -15 2.87 1.67
-3 19 -15 1.36 1.56
-4 19 0 1.32 1.23
4 19 0 0.47 1.09
4 19 0 3.07 1.15
4 19 -1 6.92 1.35
4 19 -1 7.9 1.43
-4 19 1 9.13 1.49
4 19 1 7.48 1.42
4 19 1 9.87 1.56
-4 19 -1 9.77 1.54
4 19 -2 3.61 1.42
4 19 -2 5.56 1.35
-4 19 2 4.28 1.81
-4 19 2 6 1.43
-4 19 -2 3.97 1.37
4 19 2 5.19 1.35
4 19 2 4.66 1.51
4 19 -3 3.03 1.17
-4 19 3 4.26 1.41
-4 19 3 3.96 1.35
-4 19 -3 3.29 1.29
-4 19 -3 3.25 1.46
4 19 3 3.19 1.2
4 19 -4 6.56 1.4
-4 19 4 6.06 1.54
4 19 -4 7.82 1.32
4 19 4 6.65 1.35
-4 19 -4 6.54 1.48
-4 19 -4 6.35 1.53
4 19 -5 0.04 1.18
-4 19 5 0.85 1.24
4 19 -5 0.38 1.11
-4 19 -5 0.49 1.34
-4 19 -5 -0.39 1.26
4 19 5 0.75 1.19
4 19 -6 -0.71 1.15
4 19 -6 -0.02 1.15
-4 19 6 -0.77 1.32
4 19 6 -0.45 1.2
-4 19 -6 0.38 1.41
-4 19 -6 -0.98 1.32
-4 19 7 8.35 1.78
4 19 -7 9.73 1.56
4 19 -7 12.27 1.63
4 19 7 11.18 1.59
-4 19 -7 10.09 1.7
-4 19 -7 10.49 1.72
-4 19 8 0.54 1.54
4 19 -8 -0.13 1.23
4 19 8 0.71 1.62
-4 19 -8 0.39 1.46
-4 19 -8 1.81 1.32
4 19 -9 0.7 1.22
4 19 -9 2.9 1.47
-4 19 9 1.17 1.56
-4 19 -9 1.52 1.5
4 19 9 0.4 1.35
-4 19 -9 -0.88 1.41
4 19 -10 3.95 1.47
4 19 -10 3.51 1.47
-4 19 10 1.26 1.57
-4 19 -10 2.48 1.62
4 19 10 6.2 1.62
-4 19 -10 2.01 1.48
4 19 -11 2.22 1.48
4 19 -11 1.21 1.35
-4 19 11 0.83 1.59
-4 19 -11 -0.06 1.47
-4 19 -11 0.87 1.63
4 19 11 1.06 1.45
-4 19 12 3.13 1.8
4 19 -12 4.32 1.6
4 19 -12 1.96 1.51
4 19 12 4 1.5
-4 19 -12 -0.7 1.61
-4 19 -12 3.73 1.62
-4 19 13 -1.33 1.55
4 19 -13 3.18 1.46
4 19 -13 3.84 1.53
-4 19 -13 -2.77 1.54
-4 19 -13 1.59 1.68
4 19 13 1.25 1.46
4 19 -14 -1.51 1.39
-4 19 -14 0.35 1.62
4 19 -15 7.71 2.42
-4 19 -15 5.01 1.84
5 19 0 2.43 1.26
5 19 0 1.97 1.08
-5 19 0 3.65 1.39
-5 19 0 2.14 1.39
-5 19 1 8.05 1.53
-5 19 1 8.01 1.62
5 19 -1 6.53 1.27
-5 19 -1 7.84 1.58
-5 19 -1 9.62 1.66
5 19 1 10.56 1.45
-5 19 2 0.83 1.25
-5 19 2 -1.38 1.22
5 19 -2 0.5 1.07
-5 19 -2 0.79 1.38
-5 19 -2 0.42 1.34
5 19 2 -0.42 1.08
-5 19 3 18.25 1.91
5 19 -3 11.49 1.83
5 19 -3 14.33 1.59
5 19 3 14.64 1.73
-5 19 -3 17.85 2.15
-5 19 -3 15.33 1.91
5 19 -4 -0.73 1.14
-5 19 4 1.9 1.37
5 19 -4 0.69 1.12
5 19 4 1.28 1.24
-5 19 -4 -0.37 1.34
-5 19 -4 1.09 1.31
5 19 -5 9.99 1.48
5 19 -5 9.29 1.42
-5 19 5 12.56 1.77
5 19 5 12.07 1.61
-5 19 -5 12.52 1.73
-5 19 -5 9.17 1.62
5 19 -6 7.95 1.42
-5 19 6 5.77 1.5
5 19 -6 4.2 1.26
-5 19 -6 6.77 1.61
-5 19 -6 7.02 1.61
5 19 6 4.61 1.35
5 19 -7 -1.63 1.08
5 19 -7 2.33 1.26
-5 19 -7 0.56 1.4
5 19 -8 0.79 1.27
5 19 -8 2.1 1.22
-5 19 8 0.25 1.5
5 19 8 1.36 1.39
-5 19 -8 0.9 1.45
-5 19 -8 1.1 1.34
-5 19 9 0.39 1.38
5 19 -9 -0.97 1.25
5 19 -9 2.03 1.37
-5 19 -9 1.11 1.49
5 19 9 1.69 1.36
-5 19 -9 2.31 1.56
5 19 -10 5.1 1.39
-5 19 10 0.08 1.62
5 19 -10 3.15 1.33
-5 19 -10 1.44 1.48
5 19 10 1.04 1.41
-5 19 -10 5.91 1.52
-5 19 11 9.59 1.86
5 19 -11 10.08 1.73
5 19 -11 12.36 1.61
-5 19 -11 13.15 1.89
-5 19 -11 10.81 1.85
5 19 11 8.58 1.8
-5 19 12 3.17 1.84
5 19 -12 5.38 1.51
5 19 -12 0.58 1.43
-5 19 -12 3.41 1.64
5 19 12 4.3 1.48
-5 19 -12 4.68 1.71
-5 19 13 4.83 1.78
5 19 -13 7.9 1.61
-5 19 -13 6.09 1.72
5 19 -14 5.36 1.6
-5 19 -14 10.31 1.97
6 19 0 8.75 1.42
-6 19 0 9.02 1.53
-6 19 0 9.27 1.62
-6 19 1 11.59 1.62
-6 19 1 11.44 1.71
6 19 -1 12.21 1.5
6 19 1 12.76 1.58
-6 19 -1 11.15 1.62
-6 19 -1 9.11 1.57
-6 19 2 3.8 1.44
6 19 -2 1.45 1.15
-6 19 2 2.25 1.37
6 19 -2 1.08 1.21
-6 19 -2 2.57 1.42
-6 19 -2 2.13 1.4
6 19 2 1.14 1.29
6 19 2 1.27 1.13
6 19 -3 4.81 1.16
-6 19 3 5.63 1.43
6 19 -3 3.47 1.23
6 19 3 3.1 1.2
-6 19 -3 4.37 1.4
-6 19 -3 4.39 1.43
6 19 -4 1.33 1.08
-6 19 4 0.42 1.32
6 19 -4 -1.75 1.06
-6 19 -4 1.13 1.31
6 19 4 -1.11 1.11
-6 19 -4 -0.69 1.33
6 19 -5 6.45 1.33
-6 19 5 3.41 1.53
6 19 -5 4.92 1.21
-6 19 -5 7.85 1.59
-6 19 -5 6.05 1.47
6 19 -6 3.8 1.25
6 19 -6 5.56 1.33
-6 19 6 2.12 1.54
-6 19 -6 6.02 1.53
6 19 6 3.72 1.39
-6 19 -6 3.72 2.17
-6 19 7 3.07 1.54
6 19 -7 1.13 1.2
-6 19 -7 2.59 1.47
6 19 7 2.09 1.57
-6 19 -7 -0.62 1.33
-6 19 8 0.93 1.5
6 19 -8 0.98 1.15
6 19 -8 0.1 1.22
-6 19 -8 1.6 1.39
-6 19 -8 0.74 1.46
6 19 8 1.76 1.25
6 19 -9 -0.52 1.15
-6 19 9 0.69 1.47
6 19 -9 -0.09 1.3
-6 19 -9 0.72 1.47
6 19 9 0.12 1.3
-6 19 -9 1.25 1.59
6 19 -10 5.33 1.48
-6 19 10 6.79 1.76
6 19 -10 7.16 1.53
6 19 10 7.69 1.53
-6 19 -10 4.55 1.6
-6 19 -10 6.48 1.7
6 19 -11 11.08 1.74
-6 19 11 10.44 1.88
6 19 -11 10.99 1.68
-6 19 -11 12.58 1.89
6 19 11 9.15 1.54
-6 19 -11 9.31 1.76
6 19 -12 1.58 1.41
-6 19 12 2.76 1.79
6 19 -12 2.02 1.58
6 19 12 2.03 1.56
-6 19 -12 7.27 1.64
-6 19 -12 2.33 1.64
6 19 -13 4.16 1.54
-6 19 13 2.4 1.71
-6 19 -13 -0.62 1.57
6 19 -14 5.32 1.54
-6 19 -14 4.36 1.73
-7 19 0 4.69 1.43
-7 19 0 6.14 1.52
7 19 0 4.46 1.14
7 19 0 2.67 1.15
-7 19 1 3.59 1.44
-7 19 1 3.75 1.44
7 19 -1 3.92 1.22
7 19 -1 6.51 1.19
7 19 1 4.95 1.2
-7 19 -1 4.78 1.48
7 19 1 3.56 1.18
-7 19 -1 4.18 1.43
-7 19 2 0.72 1.39
7 19 -2 2.22 1.2
7 19 -2 2.32 1.03
-7 19 -2 0.72 1.34
-7 19 -2 2.73 1.35
7 19 2 2.11 1.13
-7 19 3 0.88 1.27
7 19 -3 1.76 1.1
7 19 -3 1.99 1.11
7 19 3 1.72 1.15
-7 19 -3 -0.14 1.28
-7 19 -3 -0.09 1.41
-7 19 4 9.83 1.61
7 19 -4 8.85 1.37
7 19 -4 8.41 1.35
-7 19 -4 9.68 1.72
7 19 4 9.15 1.4
-7 19 -4 9.19 1.66
7 19 -5 0.61 1.13
7 19 -5 0.9 1.1
-7 19 5 1.17 1.94
-7 19 -5 1.89 1.45
7 19 5 -1.23 1.02
-7 19 -5 0.04 1.54
7 19 -6 2.37 1.24
-7 19 6 1.47 1.79
-7 19 -6 1.19 1.43
-7 19 -6 1.3 1.43
7 19 -7 7.19 1.4
-7 19 7 6.76 1.69
7 19 -7 8.85 1.47
-7 19 -7 5.58 1.56
-7 19 -7 10.72 1.83
7 19 7 8.86 1.48
7 19 -8 2.11 1.29
7 19 -8 2.66 1.24
-7 19 8 3.24 1.61
-7 19 -8 3.8 1.54
7 19 8 6.74 1.35
-7 19 -8 6.63 1.6
7 19 -9 0.95 1.17
7 19 -9 2.71 1.31
-7 19 9 -1.13 1.43
7 19 9 -0.77 1.22
-7 19 -9 -0.73 1.6
-7 19 -9 2.11 1.49
7 19 -10 1.84 1.37
-7 19 10 2.25 1.73
7 19 -10 0.68 1.36
7 19 10 1.68 1.37
-7 19 -10 4.89 1.63
-7 19 -10 1.84 1.54
7 19 -11 0.73 1.36
-7 19 11 -0.26 1.55
7 19 -11 1.82 1.29
7 19 11 1.67 1.33
-7 19 -11 3.25 1.7
-7 19 -11 1.05 1.56
7 19 -12 6.57 1.54
-7 19 12 4.05 1.84
7 19 12 3.33 1.48
-12 7 -19 2.96 1.83
-7 19 -12 5.77 1.72
-7 19 13 1.12 1.68
7 19 -13 2.04 1.52
-7 19 -13 1.27 1.63
-8 19 0 23.78 2.13
8 19 0 22.47 1.67
8 19 0 19.51 1.81
-8 19 0 22.33 2.04
-8 19 1 0.08 1.31
8 19 -1 0.4 1.09
-8 19 1 1.7 1.35
8 19 -1 0.85 1.01
-8 19 -1 3.3 1.36
8 19 1 0.34 1.1
-8 19 -1 2.5 1.51
8 19 -2 19.97 1.73
8 19 -2 22.83 1.8
-8 19 2 20.93 2.03
-8 19 -2 20.64 2.06
8 19 2 19.75 1.76
-8 19 -2 21.89 2.24
8 19 -3 63.31 2.9
-8 19 3 63.15 3.14
8 19 -3 68.32 2.77
8 19 3 68.11 2.78
-8 19 -3 64.05 3.44
8 19 -4 -0.05 1.25
8 19 -4 2.55 1.08
-8 19 -4 1.45 1.34
8 19 4 -0.33 1.11
-8 19 5 2.07 1.47
8 19 -5 2.15 1.15
-8 19 -5 0.4 1.56
-8 19 -5 3.12 1.54
8 19 -6 -0.25 1.1
-8 19 6 1.08 1.45
8 19 -6 1.33 1.25
-8 19 -6 -0.77 1.49
8 19 6 2.64 1.25
-8 19 -6 0.39 1.44
8 19 -7 5.58 1.27
8 19 -7 3.15 1.21
-8 19 7 4.49 1.59
-8 19 -7 4.35 1.63
-8 19 -7 4.93 1.66
8 19 7 3.6 1.24
8 19 -8 72.54 2.99
8 19 -8 69.33 2.95
-8 19 8 71.55 3.23
8 19 8 70.66 2.99
-8 19 -8 74.41 3.41
-8 19 -8 73.66 3.43
8 19 -9 10.05 1.46
-8 19 9 9.4 1.87
8 19 -9 9.24 1.52
-8 19 -9 11.64 1.84
8 19 9 8.39 1.5
-8 19 -9 13.41 1.95
8 19 -10 5.05 1.42
-8 19 10 4.9 1.71
8 19 -10 5.52 1.49
10 8 -19 2.56 1.62
-8 19 -10 5.37 1.71
8 19 10 3.86 1.41
-8 19 -10 6.82 1.81
8 19 -11 5.41 1.76
8 19 -11 7.44 1.57
-8 19 11 5.08 1.87
-8 19 -11 5.46 1.94
-8 19 -11 3.95 1.79
-11 8 -19 4.72 1.9
8 19 11 5.82 1.45
-8 19 12 9.99 1.89
8 19 -12 3.04 1.56
-12 8 -19 4.91 1.95
-8 19 -12 8.26 1.81
8 19 -13 32.23 2.76
-8 19 -13 30.1 3.45
-9 19 0 5.84 1.48
-9 19 0 6.53 2.2
9 19 0 8.55 1.3
9 19 0 6.31 1.13
9 19 -1 1.9 1.1
-9 19 1 3.8 2.4
9 19 -1 5.34 1.11
-9 19 -1 1.02 1.39
9 19 1 0.82 1.11
-9 19 -1 1.99 2.29
9 19 -2 1.49 1.13
9 19 -2 1.24 1.03
-9 19 -2 0.89 1.32
9 19 2 1.21 1.11
9 19 -3 10.2 1.33
9 19 -3 8.28 1.55
-9 19 3 6.84 1.94
-9 19 -3 7.15 1.55
9 19 3 7.05 2.18
-9 19 -3 10.8 2.14
-9 19 4 2.24 1.47
9 19 -4 2.98 1.13
9 19 4 1.06 1.96
-9 19 -4 2.22 1.53
-9 19 -4 3.54 1.4
9 19 -5 0.64 1.17
9 19 -5 0.48 1.07
-9 19 5 1.87 1.44
9 19 5 0.58 1.12
-9 19 -5 2.51 1.57
-9 19 -5 0.6 1.37
9 19 -6 0.26 1.13
-9 19 6 0.69 1.34
9 19 -6 0.93 1.16
9 19 6 0.21 1.1
-9 19 -6 -1.27 1.31
-9 19 -6 -0.26 1.56
9 19 -7 -1.35 1.14
-9 19 7 0.24 1.54
9 19 -7 1.54 1.19
9 19 7 1.01 1.14
-9 19 -7 -0.52 1.32
-9 19 -7 0.03 1.62
9 19 -8 11.23 1.45
8 9 -19 6.48 1.47
-9 19 8 10.23 1.78
9 19 -8 12.44 1.57
9 19 8 10.32 1.5
-9 19 -8 10.55 1.73
-9 19 -8 14.13 1.88
9 19 -9 1.5 1.34
9 9 -19 -0.74 1.21
-9 19 9 4.54 1.66
9 19 -9 0.18 1.13
9 19 9 -0.8 1.3
-9 19 -9 0.76 1.54
-9 19 -9 -0.64 1.68
9 19 -10 0.7 1.28
-9 19 10 1.32 1.64
9 19 -10 2.48 1.47
-10 9 -19 -0.89 1.77
-9 19 -10 1.35 1.75
9 19 10 0.6 1.33
-9 19 -10 0.65 1.6
-9 19 11 0.62 1.74
9 19 -11 2.87 1.26
-9 19 -11 2.13 1.61
-11 9 -19 -2.34 1.71
-9 19 12 12.96 2.13
-12 9 -19 6.01 2.15
-9 19 -12 9.77 1.88
-10 19 0 -0.75 1.45
-10 19 1 2.6 1.52
10 19 -1 -0.71 1
-10 19 -1 2.9 1.54
-10 19 -1 1.86 1.48
-10 19 2 0.5 1.37
10 19 -2 2.63 1.1
-10 19 -2 1.03 1.45
-10 19 -2 1.71 1.42
10 19 -3 2.27 1.1
10 19 -3 3.19 1.25
-10 19 3 0.02 1.29
-10 19 -3 0.16 1.5
10 19 3 3.86 1.18
-10 19 -3 1.22 1.41
-10 19 4 2.25 1.5
10 19 -4 4.93 1.15
10 19 -4 7.35 1.21
10 19 4 3.6 1.28
-10 19 -4 2.04 1.53
-10 19 -4 4.61 1.6
10 19 -5 3.67 1.18
-10 19 5 3.57 1.53
10 19 -5 2.67 1.06
10 19 5 2.45 1.11
-10 19 -5 1.95 1.4
-10 19 -5 1.45 1.47
10 19 -6 6.58 1.28
-10 19 6 7.42 1.66
10 19 -6 4.61 1.25
6 10 -19 2.55 1.38
10 19 6 8.4 1.33
-10 19 -6 6.61 1.7
-10 19 -6 6.83 1.63
-10 19 7 -0.17 1.6
10 19 -7 2.46 1.19
7 10 -19 -1.94 1.17
10 19 -7 5.31 1.19
-10 19 -7 2.34 1.66
-10 19 -7 1.53 1.54
10 19 7 2.04 1.16
10 19 -8 0.32 1.27
8 10 -19 2.99 1.36
-10 19 8 4.61 1.71
-10 19 -8 6.46 1.67
-10 19 -8 2.27 1.83
-8 10 -19 4 1.67
10 19 8 3.61 1.26
-10 19 9 -0.93 1.75
-10 19 -9 0.57 1.69
10 19 9 0.29 1.3
-9 10 -19 -2.02 1.63
-10 19 -9 3.07 1.83
-10 19 10 -1.82 1.72
-10 10 -19 -0.22 1.78
-10 19 -10 1.92 1.6
-10 19 11 -1.03 1.94
-10 19 -11 -0.19 1.63
-11 10 -19 -1.51 1.67
11 19 0 10.29 1.24
-11 19 0 6.22 1.51
11 19 -1 3.82 1.01
-11 19 1 4.22 1.49
11 19 1 1.34 0.99
-11 19 -1 1.99 1.41
-11 19 2 1.54 1.45
11 19 -2 5.04 1.32
-11 19 -2 1.18 1.41
-11 19 -2 0.52 1.61
11 19 2 4.44 1
-11 19 3 4.58 1.58
3 11 -19 3.27 1.45
11 19 3 4.52 1.08
-11 19 -3 5.58 1.52
-11 19 -3 5.05 1.73
4 11 -19 -0.65 1.31
-11 19 4 3.09 1.59
-11 19 -4 1.89 1.5
-11 19 -4 2.68 1.63
11 19 4 1.38 1.02
-11 19 5 10.22 1.83
5 11 -19 7.95 1.57
-11 19 -5 11.79 1.77
-11 19 -5 10.19 1.93
11 19 5 10.43 1.21
-5 11 -19 8.57 1.86
-11 19 6 9.58 1.82
6 11 -19 10.78 1.64
-11 19 -6 10.87 1.78
-6 11 -19 9.42 1.91
-11 19 -6 9.35 1.96
-11 19 7 5.1 1.7
7 11 -19 2.62 1.39
-7 11 -19 -3.85 1.59
11 19 7 3.11 1.23
-11 19 -7 0.81 1.61
-11 19 8 4 1.92
8 11 -19 3.25 1.45
-8 11 -19 5.36 1.82
-11 19 -8 7.63 1.79
-11 19 -8 5.01 2.2
9 11 -19 -0.04 1.19
-11 19 9 4.65 2.01
-11 19 -9 2.11 1.75
-9 11 -19 0.27 1.67
-11 19 10 3.83 2.89
-10 11 -19 1.28 1.69
-11 19 -10 5.85 1.87
0 12 -19 0.91 1.49
-12 19 0 1.2 1.64
1 12 -19 18.77 2.09
-12 19 1 15.09 1.99
-1 12 -19 11.74 1.91
-12 19 -1 14.51 1.93
-12 19 2 10.31 1.86
2 12 -19 10.73 1.73
-2 12 -19 9.6 1.81
-12 19 -2 11.78 1.85
3 12 -19 1.04 1.56
-12 19 3 2.72 1.65
-12 19 -3 4.52 1.86
-12 19 -3 1.71 1.56
-3 12 -19 -1.74 1.56
4 12 -19 0.99 1.49
-12 19 4 1.59 1.74
-12 19 -4 4.37 1.96
-12 19 -4 6.14 1.73
-4 12 -19 1.48 1.64
5 12 -19 1.72 1.45
-12 19 5 6 1.92
-5 12 -19 5.91 1.7
-12 19 -5 5.25 2.36
-12 19 -5 3.06 1.73
6 12 -19 -1.21 1.29
-6 12 -19 4.32 1.67
-12 19 -6 3.87 1.8
7 12 -19 4.58 1.44
-7 12 -19 6.56 1.73
-12 19 -7 5.04 1.96
8 12 -19 3.69 1.4
-12 19 -8 11.31 2.05
-8 12 -19 4.93 1.81
-12 19 -9 11.49 2.19
-9 12 -19 8.9 1.92
0 13 -19 8.94 1.82
1 13 -19 -0.08 1.4
-1 13 -19 -0.12 1.61
2 13 -19 8.07 1.77
-2 13 -19 7.01 1.86
3 13 -19 35.78 2.45
-3 13 -19 38.27 2.56
4 13 -19 -0.68 1.31
-4 13 -19 -1.43 1.65
5 13 -19 6.62 1.55
-5 13 -19 5.06 1.68
6 13 -19 0.91 1.38
-6 13 -19 -0.48 1.54
7 13 -19 -1.03 1.43
-7 13 -19 -2.23 1.55
8 13 -19 21.52 2.18
-8 13 -19 27.06 2.79
0 14 -19 12.86 1.95
1 14 -19 1.56 1.47
-1 14 -19 0.93 1.47
2 14 -19 7.34 1.65
-2 14 -19 9.27 1.85
3 14 -19 42.87 2.83
-3 14 -19 45.69 2.85
4 14 -19 2.09 1.53
-4 14 -19 0.75 1.61
5 14 -19 4.54 1.57
-5 14 -19 5.48 1.9
6 14 -19 0.75 1.46
-6 14 -19 2.2 1.75
-7 14 -19 -1.51 2.38
0 15 -19 1.2 1.62
1 15 -19 9.15 2.79
-1 15 -19 8.27 1.74
2 15 -19 7.75 1.74
-2 15 -19 6.38 1.76
3 15 -19 2.2 1.54
-3 15 -19 -1.33 1.52
4 15 -19 2.62 1.69
-4 15 -19 3.42 1.62
0 20 0 2.83 1.3
0 20 0 2.14 1.33
0 20 1 6.72 1.43
0 20 1 7.02 1.45
0 20 -1 4.98 1.51
0 20 -1 6.2 1.51
0 20 -2 10.13 1.63
0 20 -2 8.63 1.56
0 20 2 12.42 1.67
0 20 2 10.17 1.62
0 20 -3 1.28 1.28
0 20 3 -0.71 1.22
0 20 -3 1.98 1.27
0 20 3 1.24 1.33
0 20 -4 1.43 1.32
0 20 4 1.31 1.4
0 20 -4 2.95 1.32
0 20 -5 2.67 1.42
0 20 5 2.61 1.55
0 20 -5 1.1 1.41
0 20 -6 2.7 1.33
0 20 6 1.08 1.83
0 20 -7 2.17 1.39
0 20 -7 1.99 1.39
0 20 7 3.21 1.48
0 20 -8 5.8 1.62
0 20 -8 3.56 1.43
0 20 8 2.61 1.6
0 20 -9 4.11 1.62
0 20 9 4.6 1.57
0 20 -9 5.61 1.52
0 20 10 1.73 1.57
0 20 -10 0.3 1.46
0 20 -10 0.92 1.45
0 20 11 1.2 1.6
0 20 -11 2.08 1.46
0 20 -11 0.12 1.47
0 20 12 8.55 1.83
0 20 -12 5.66 1.75
0 20 -12 6.82 1.79
0 20 13 -0.85 1.48
0 20 -13 4.01 1.72
0 20 -14 -0.83 1.57
-1 20 0 4.58 1.46
1 20 0 4.64 1.38
1 20 0 6.61 1.44
-1 20 0 5.24 1.42
1 20 -1 -1.18 1.1
-1 20 1 -0.03 1.24
-1 20 1 0.69 1.32
1 20 -1 -0.35 1.24
-1 20 -1 0.96 1.24
-1 20 -1 1.99 1.3
1 20 1 1.44 1.22
1 20 1 0 1.22
1 20 -2 2.05 1.28
1 20 -2 2.27 1.32
-1 20 2 -2.12 1.19
-1 20 2 1.65 1.39
-1 20 -2 1.04 1.24
1 20 2 0.67 1.29
-1 20 -2 -0.08 1.39
1 20 2 0.87 1.23
1 20 -3 6.07 1.47
-1 20 3 7.58 1.52
-1 20 3 3.93 1.43
1 20 -3 7.02 1.48
1 20 3 7.61 1.51
1 20 3 6.95 1.55
-1 20 -3 9.1 1.64
-1 20 -3 8.08 1.59
1 20 -4 2.16 1.36
1 20 -4 1.43 1.27
-1 20 4 -0.24 1.32
-1 20 -4 2.08 1.38
1 20 4 1.56 1.4
-1 20 -4 2.96 1.38
1 20 -5 6.96 1.51
1 20 -5 4.2 1.52
-1 20 5 7.41 2.2
-1 20 -5 6.71 2.1
-1 20 -5 4.51 1.39
1 20 5 6.08 1.6
1 20 -6 6.13 1.49
-1 20 6 3.81 1.55
1 20 6 2.75 1.81
-1 20 -6 5.1 1.49
-1 20 7 3.31 1.52
1 20 -7 -0.06 1.36
1 20 -7 5.13 1.49
-1 20 -7 3.92 1.54
-1 20 -7 1.42 1.41
1 20 7 4.6 1.57
-1 20 8 6.08 1.64
1 20 -8 4.08 1.47
1 20 -8 3.28 1.51
-1 20 -8 4.64 1.48
-1 20 -8 6.42 1.63
1 20 8 2.31 1.47
1 20 -9 4.01 1.63
1 20 -9 5.26 1.49
-1 20 9 4.46 1.71
-1 20 -9 4.57 1.46
1 20 9 4.47 1.58
-1 20 -9 1.23 1.5
1 20 -10 1.27 1.49
-1 20 10 0.78 1.49
1 20 -10 0.97 1.47
1 20 10 2.12 1.56
-1 20 -10 -1.16 1.35
-1 20 -10 1.74 1.48
1 20 -11 6.92 1.64
-1 20 11 10.68 1.91
1 20 -11 9.33 1.71
1 20 11 8.46 1.78
-1 20 -11 11.83 1.82
-1 20 -11 8.55 1.7
1 20 -12 0.88 1.61
1 20 -12 1.52 1.71
-1 20 12 3.72 1.83
-1 20 -12 1.42 1.53
-1 20 -12 6.74 1.89
1 20 12 3.58 1.67
-1 20 13 5.94 1.79
1 20 -13 5.58 1.62
1 20 13 7.22 1.88
-1 20 -13 3.17 1.58
1 20 -14 3.28 1.61
-1 20 -14 5.39 1.63
2 20 0 10.9 1.65
-2 20 0 11.55 1.74
-2 20 0 10.42 1.65
2 20 0 14.6 1.79
-2 20 1 0.22 1.3
2 20 -1 0.61 1.16
2 20 -1 3.73 1.39
-2 20 1 1.43 1.4
2 20 1 1.8 1.27
2 20 1 1.79 1.25
-2 20 -1 0.91 1.28
-2 20 -1 4.17 1.46
2 20 -2 0.53 1.24
2 20 -2 -0.18 1.24
-2 20 2 0.76 1.37
-2 20 2 -1.06 1.28
2 20 2 0 1.12
-2 20 -2 0.03 1.28
-2 20 -2 1.23 1.34
2 20 2 2.08 1.28
-2 20 3 -1.3 1.27
2 20 -3 1.06 1.2
-2 20 3 1.23 1.37
2 20 -3 -0.08 1.29
-2 20 -3 1.33 1.42
2 20 3 -0.12 1.26
-2 20 -3 -0.88 1.31
2 20 -4 8.31 1.47
-2 20 4 5.68 1.54
2 20 -4 5.48 1.47
2 20 4 6.34 1.62
-2 20 -4 6.82 1.55
-2 20 -4 5.72 1.52
2 20 -5 6.76 1.7
2 20 -5 5.24 1.33
2 20 5 3.81 2.19
-2 20 -5 5.23 1.48
2 20 -6 3.36 1.41
-2 20 6 2.54 1.52
2 20 -6 2.91 2.24
-2 20 -6 4.99 1.67
2 20 6 3.12 1.58
-2 20 -6 2.83 1.4
2 20 -7 3.64 1.43
2 20 -7 4.63 1.41
-2 20 7 4 1.59
2 20 7 4.31 1.51
-2 20 -7 4.33 1.54
-2 20 -7 4.95 1.53
2 20 -8 1.14 1.33
2 20 -8 1.93 1.42
-2 20 8 2.45 1.55
-2 20 -8 1.2 1.43
2 20 8 -0.81 1.4
-2 20 -8 0.24 1.4
-2 20 9 7.31 1.68
2 20 -9 9.04 1.69
2 20 -9 7.14 1.63
-2 20 -9 7 1.75
-2 20 -9 4.41 1.62
2 20 9 4.7 1.55
2 20 -10 0.29 1.35
2 20 -10 0.83 1.31
-2 20 10 0.41 1.48
-2 20 -10 1.58 1.47
2 20 10 0.77 1.43
-2 20 -10 -0.31 1.48
-2 20 11 10.65 2.01
2 20 -11 10.49 1.68
2 20 -11 10.47 1.74
-2 20 -11 10.32 1.81
-2 20 -11 9.33 1.75
2 20 11 10.77 1.88
-2 20 12 3 1.75
2 20 -12 -0.98 2.05
2 20 -12 4.52 1.6
2 20 12 -1.26 1.51
-2 20 -12 0.4 1.54
-2 20 -12 4.06 1.81
2 20 -13 2.24 1.54
-2 20 13 3.04 1.72
-2 20 -13 0.87 1.52
2 20 13 0.36 1.53
2 20 -14 6.67 1.82
-2 20 -14 0.86 1.6
3 20 0 0.81 1.18
3 20 0 2.04 1.22
-3 20 0 0.56 1.31
-3 20 0 -0.76 1.23
3 20 -1 7.31 1.48
-3 20 1 6.5 1.51
3 20 -1 7.51 1.34
-3 20 1 7.57 1.54
-3 20 -1 6.26 1.5
3 20 1 7.09 1.46
-3 20 -1 8.24 1.62
3 20 1 9.3 1.5
-3 20 2 -0.5 1.23
3 20 -2 1.13 1.17
-3 20 2 1.3 1.39
3 20 -2 0.21 1.18
-3 20 -2 0.63 1.36
3 20 2 0.48 1.22
3 20 2 0.25 1.21
-3 20 -2 -1 1.34
3 20 -3 0.57 1.26
-3 20 3 0.79 1.32
3 20 -3 0.41 1.21
-3 20 -3 -1.43 1.25
-3 20 -3 0.38 1.38
3 20 3 0.82 1.3
-3 20 4 20.08 2.27
3 20 -4 19.73 2.37
3 20 -4 17 1.89
-3 20 -4 18.57 2.03
3 20 4 16.95 2.09
-3 20 -4 18.07 2.15
3 20 -5 0.29 1.28
-3 20 -5 -0.4 1.4
-3 20 6 0.44 1.5
3 20 -6 1.07 1.35
3 20 -6 2.82 1.47
3 20 6 0.94 1.29
-3 20 -6 -0.51 1.42
-3 20 -6 2.36 1.43
3 20 -7 10.9 1.67
3 20 -7 11.53 1.74
-3 20 7 12.45 1.82
-3 20 -7 11.86 1.8
3 20 7 13.44 1.74
-3 20 -7 13.25 1.89
3 20 -8 5.14 1.5
3 20 -8 6.37 1.5
-3 20 8 4.48 1.69
3 20 8 4.55 1.4
-3 20 -8 5.33 1.65
-3 20 -8 6.12 1.66
3 20 -9 5.74 1.56
-3 20 9 2.09 1.55
3 20 -9 5 1.59
3 20 9 3.48 1.49
-3 20 -9 6.67 1.7
-3 20 -9 6.5 1.7
3 20 -10 8.27 1.6
3 20 -10 5.65 1.6
-3 20 10 5.68 1.71
-3 20 -10 5.86 1.67
3 20 10 7.45 1.61
-3 20 -10 6.62 1.7
3 20 -11 -0.33 1.39
3 20 -11 0.42 1.43
-3 20 11 1.85 1.65
3 20 11 1.86 1.44
-3 20 -11 -0.37 1.45
-3 20 -11 0.76 1.42
3 20 -12 6.61 1.7
-3 20 12 2.69 1.71
3 20 12 2.83 1.63
-3 20 -12 8.02 1.77
3 20 -13 3.31 1.65
-3 20 13 4.08 1.75
-3 20 -13 4.86 1.75
3 20 13 0.78 1.58
-3 20 -14 2.54 1.81
-4 20 0 1.78 1.35
4 20 0 -0.15 1.23
-4 20 0 -0.68 1.25
4 20 0 3.1 1.34
-4 20 1 2.66 1.45
4 20 -1 3.95 1.3
4 20 -1 0.43 1.28
-4 20 1 2.79 1.48
-4 20 -1 0.35 1.36
-4 20 -1 2.13 1.41
4 20 1 1.79 1.26
4 20 1 1.68 1.23
4 20 -2 5.84 1.43
4 20 -2 8.41 1.54
-4 20 2 8.23 1.68
-4 20 2 7.44 1.62
-4 20 -2 7.26 1.55
-4 20 -2 6.96 1.53
4 20 2 6.17 1.38
4 20 2 5.11 1.38
4 20 -3 19.71 2.08
-4 20 3 18.37 2.07
4 20 -3 16.47 1.85
-4 20 -3 22.34 2.05
4 20 3 19.16 2.06
-4 20 -3 14.81 1.93
4 20 -4 9.59 1.83
4 20 -4 12.4 1.65
-4 20 -4 12.53 1.8
4 20 4 11.57 2.35
4 20 -5 1.3 1.2
-4 20 5 2.52 1.59
4 20 5 5.37 2.63
-4 20 -5 3.57 1.57
-4 20 -5 4.54 1.49
-4 20 6 -1.88 1.49
4 20 -6 2.75 1.27
4 20 -6 0.51 1.39
-4 20 -6 3.77 1.44
4 20 6 1.33 1.21
-4 20 -6 2.09 1.51
4 20 -7 8.25 1.56
4 20 -7 10.34 1.7
-4 20 7 10.07 1.8
-4 20 -7 7.93 1.66
-4 20 -7 9.93 1.8
4 20 7 10.13 1.58
4 20 -8 7.35 1.59
4 20 -8 5.68 1.58
-4 20 8 12.4 1.79
4 20 8 6.82 1.59
-4 20 -8 7.8 1.73
-4 20 -8 9.18 1.82
4 20 -9 15.34 1.85
4 20 -9 17.98 2.16
-4 20 9 13.86 2.03
4 20 9 14.91 1.91
-4 20 -9 17.55 2.17
-4 20 -9 12.04 1.84
-4 20 10 0.39 1.55
4 20 -10 2.96 1.46
4 20 -10 2.51 1.52
-4 20 -10 2.32 1.51
4 20 10 4.25 1.41
-4 20 -10 2.87 1.63
4 20 -11 8.07 1.63
-4 20 11 3.5 1.7
4 20 -11 6.92 1.59
-4 20 -11 7.13 1.81
-4 20 -11 5.67 1.78
4 20 11 6.71 1.64
-4 20 12 0.85 1.74
4 20 -12 5.08 1.46
4 20 12 -1.43 1.55
-4 20 -12 1.95 1.73
-4 20 13 9.83 1.94
4 20 -13 12.3 1.81
4 20 13 9.78 1.88
-4 20 -13 11.78 1.94
-5 20 0 2.99 1.37
5 20 0 2.04 1.24
5 20 0 3.82 1.26
-5 20 0 4.99 1.66
5 20 -1 6.79 1.44
-5 20 1 6.27 1.67
5 20 -1 5.9 1.33
-5 20 1 7.55 1.64
-5 20 -1 4.58 1.7
5 20 1 7.58 1.41
5 20 1 7.57 1.54
-5 20 -1 6.77 1.54
5 20 -2 6.2 1.34
5 20 -2 4.9 1.38
-5 20 2 6.2 1.64
-5 20 2 3.74 2.2
-5 20 -2 4.74 1.74
5 20 2 4.55 1.45
5 20 2 7.23 1.4
-5 20 -2 5.64 1.51
5 20 -3 2.41 1.19
5 20 -3 2.1 1.48
-5 20 -3 2.44 1.43
5 20 3 1.5 1.5
-5 20 4 4.52 2.59
5 20 -4 4.57 1.39
-5 20 -4 4.4 1.55
-5 20 -4 6.37 1.7
-5 20 5 4.14 1.57
5 20 -5 2.37 1.16
5 20 -5 2.93 1.41
-5 20 -5 2.11 1.46
-5 20 -5 4.05 1.54
5 20 5 3.44 1.42
5 20 -6 3.37 1.35
-5 20 6 2.81 1.53
5 20 -6 5.18 1.36
-5 20 -6 6.77 1.58
5 20 6 5.5 1.41
-5 20 -6 4.86 1.6
5 20 -7 8.03 1.51
5 20 -7 4.81 1.37
-5 20 7 6.04 1.68
-5 20 -7 5.87 1.58
5 20 7 3.58 1.45
-5 20 -7 3.19 1.6
5 20 -8 -0.19 1.21
-5 20 8 3.45 1.59
5 20 -8 0.96 1.23
-5 20 -8 2.36 1.5
5 20 8 -1.1 1.35
-5 20 -8 2.54 1.55
-5 20 9 4.14 1.59
5 20 -9 4.27 1.45
5 20 -9 1.7 1.47
-5 20 -9 2.38 1.53
-5 20 -9 5.76 1.68
5 20 9 2.15 1.42
-5 20 10 4.61 1.77
5 20 -10 5.85 1.49
5 20 -10 2.45 1.49
-5 20 -10 9.02 1.78
5 20 10 6.64 1.61
-5 20 -10 6.05 1.72
5 20 -11 1.02 1.4
5 20 -11 2.23 1.53
-5 20 11 2.74 1.64
-5 20 -11 6.42 1.73
5 20 11 2.42 1.59
-5 20 -11 3.22 1.68
-5 20 12 2.84 1.74
5 20 -12 2.36 1.54
-5 20 -12 4.12 1.72
5 20 12 4.29 1.61
5 20 -13 1.97 1.59
-5 20 13 -2.93 1.81
-5 20 -13 -0.51 1.74
-6 20 0 4.58 1.43
6 20 0 2.87 1.18
6 20 0 3.19 1.47
-6 20 1 3.5 1.34
6 20 -1 6.72 1.32
6 20 -1 6.96 1.66
6 20 1 5.5 1.27
-6 20 -1 5.25 1.48
6 20 1 4.86 1.73
6 20 -2 3.12 1.9
6 20 -2 3.26 1.14
-6 20 -2 4.36 1.5
6 20 -3 3.23 1.2
-6 20 3 1.28 1.5
-6 20 -3 0.4 1.51
-6 20 -3 -0.13 1.32
6 20 -4 3.37 1.31
-6 20 4 3.19 1.58
6 20 -4 -0.37 1.19
6 20 4 1.51 1.32
-6 20 -4 1.89 1.46
-6 20 -4 0.29 1.41
6 20 -5 6.94 1.45
-6 20 5 6.3 1.63
6 20 -5 5.18 1.31
-6 20 -5 5.37 1.58
6 20 5 5.79 1.43
-6 20 -5 6.69 1.56
6 20 -6 12.4 1.59
6 20 -6 10.02 1.48
-6 20 6 10.45 1.76
-6 20 -6 9.45 1.84
6 20 6 7.56 1.45
-6 20 -6 10.01 1.74
6 20 -7 2.56 1.29
6 20 -7 0.12 1.2
-6 20 7 0.14 1.46
-6 20 -7 2.8 1.53
-6 20 -7 1.47 1.49
6 20 7 1.69 1.19
6 20 -8 0.69 1.3
-6 20 8 0.07 1.61
6 20 -8 -0.53 1.26
-6 20 -8 2.18 1.44
-6 20 -8 0.68 1.49
6 20 8 -0.91 1.24
6 20 -9 0.07 1.29
-6 20 9 0.06 1.51
6 20 -9 -0.31 1.37
-6 20 -9 -0.07 1.54
6 20 9 -0.88 1.31
-6 20 -9 2.12 1.55
6 20 -10 -0.25 1.38
6 20 -10 0.51 1.34
-6 20 10 2.61 1.7
6 20 10 1.78 1.45
-6 20 -10 2.69 1.68
-6 20 -10 2.92 1.51
-6 20 11 2.04 1.76
6 20 -11 3.33 1.5
-6 20 -11 1.46 1.54
6 20 11 1.44 1.46
6 20 -12 8.06 1.67
-6 20 12 5.87 1.82
-6 20 -12 10.68 1.82
6 20 12 6.54 1.6
-6 20 -13 2.69 2.23
-7 20 0 2.51 1.67
7 20 0 3 1.12
-7 20 0 1.36 1.51
7 20 -1 4.53 1.18
-7 20 1 1.43 1.4
-7 20 1 3.34 1.62
-7 20 -1 6.32 1.61
7 20 1 5.42 1.23
-7 20 -1 4.46 1.59
7 20 -2 0.51 1.52
7 20 -2 3.77 1.21
-7 20 2 4.34 1.61
-7 20 -2 3.98 1.52
-7 20 -2 4.83 1.5
7 20 2 5.72 1.34
-7 20 3 13.16 1.89
7 20 -3 11.2 1.54
7 20 -3 15.84 1.78
-7 20 -3 16.5 1.89
-7 20 -3 12.27 1.86
7 20 3 14.29 1.6
-7 20 4 10.95 1.78
7 20 -4 13.12 1.61
7 20 -4 9.66 1.4
7 20 4 8.1 1.44
-7 20 -4 7.86 1.63
-7 20 -4 8.13 1.79
7 20 -5 5.92 1.35
7 20 -5 4.05 1.38
-7 20 5 4.61 1.58
-7 20 -5 8.41 1.67
7 20 5 4.15 1.3
-7 20 -5 7.79 1.71
7 20 -6 1.74 1.27
-7 20 6 1.63 1.56
7 20 -6 2.53 1.3
-7 20 -6 0.89 1.41
-7 20 -6 4.49 1.73
7 20 6 1.26 1.27
7 20 -7 17.95 2.01
-7 20 7 17.48 2.12
7 20 -7 24.34 2.03
-7 20 -7 18.46 2.12
7 20 7 17.74 1.98
-7 20 -7 20.58 2.17
-7 20 8 6.84 1.72
7 20 -8 6.37 1.48
7 20 -8 5.23 1.36
7 20 8 7.84 1.5
-7 20 -8 5.97 1.59
-7 20 -8 5.74 1.7
7 20 -9 11.83 1.55
7 20 -9 11 1.62
-7 20 9 10.26 1.82
-7 20 -9 14.02 2
7 20 9 11.82 1.68
-7 20 -9 7.21 1.88
7 20 -10 1.89 1.36
-7 20 10 4.65 1.9
7 20 -10 4.49 2.59
-7 20 -10 2 1.62
7 20 10 3.04 1.56
-7 20 11 2.56 1.84
7 20 -11 5.36 1.6
7 20 11 3.83 1.6
-7 20 -11 5.33 1.74
-7 20 12 4.62 1.86
7 20 -12 0.76 1.58
-7 20 -12 0.08 1.62
-12 7 -20 -4.82 2.29
8 20 0 7.13 1.4
-8 20 0 4.08 1.52
-8 20 0 6.65 1.56
8 20 0 5.8 1.24
8 20 -1 6.15 1.4
8 20 -1 6.43 1.27
-8 20 1 4.6 1.56
-8 20 -1 2.88 1.49
8 20 1 4.91 1.28
-8 20 -1 5.77 1.69
-8 20 2 2.22 1.41
8 20 -2 2.1 1.22
8 20 -2 0.64 1.11
-8 20 -2 2.54 1.5
-8 20 -2 -0.28 1.45
8 20 2 3.93 1.24
8 20 -3 6.45 1.36
-8 20 3 6.44 1.51
8 20 -3 7.47 1.42
8 20 3 2.78 1.29
-8 20 -3 5.84 1.7
-8 20 -3 7.14 1.59
-8 20 4 9.86 1.71
8 20 -4 7.59 1.36
8 20 -4 11.81 1.5
8 20 4 7.13 1.31
-8 20 -4 9.86 1.71
-8 20 -4 9.29 1.81
8 20 -5 2.57 1.29
8 20 -5 2.6 1.28
-8 20 5 0.7 1.51
8 20 5 0.21 1.19
-8 20 -5 2.88 1.58
-8 20 -5 2.13 1.52
8 20 -6 1.55 1.26
-8 20 6 -0.9 1.58
8 20 -6 4.46 1.26
8 20 6 1.34 1.23
-8 20 -6 0.4 1.45
-8 20 -6 -0.02 1.5
-8 20 7 4.64 1.64
8 20 -7 5.18 1.4
8 20 -7 3.52 1.3
-8 20 -7 6.43 1.76
8 20 7 7.32 1.42
-8 20 -7 5.17 1.65
8 20 -8 10.52 1.48
-8 20 8 4.29 1.66
-8 20 -8 9.1 1.9
8 20 8 7.95 1.41
-8 20 -8 6.02 1.73
-8 20 9 2.88 1.79
8 20 -9 0.21 1.53
8 20 -9 3.4 1.35
-8 20 -9 3.95 1.86
8 20 9 5.02 1.41
-8 20 -9 -0.64 1.53
-8 20 10 -2.07 1.67
8 20 -10 4.65 1.43
8 20 10 -2.19 1.43
-8 20 -10 -2 1.57
-8 20 11 0.66 1.82
8 20 -11 7.48 1.55
8 20 11 3.14 1.61
-8 20 -11 3.82 1.88
-11 8 -20 2.97 1.96
9 20 0 7.35 1.3
-9 20 0 3.81 1.62
-9 20 0 6.52 1.64
-9 20 1 5.27 1.58
9 20 -1 5.84 1.28
9 20 -1 4.76 1.18
9 20 1 5.6 1.28
-9 20 -1 6.32 1.63
-9 20 -1 5.05 1.66
-9 20 2 7.97 1.72
9 20 -2 7.88 1.41
9 20 -2 7.8 1.33
-9 20 -2 9 1.74
9 20 2 7.83 1.35
-9 20 -2 6.04 1.57
-9 20 3 5.48 1.64
9 20 -3 6.16 1.25
9 20 -3 7.79 1.37
-9 20 -3 6.29 1.69
9 20 3 3.04 1.3
-9 20 -3 3.96 1.78
9 20 -4 18.96 1.85
-9 20 4 18.4 2
9 20 -4 18.3 1.87
9 20 4 16.88 1.81
-9 20 -4 14.14 1.94
-9 20 -4 14.55 1.8
-9 20 5 1.4 1.45
9 20 -5 7.33 1.48
9 20 -5 2.68 1.28
-9 20 -5 3.64 1.62
9 20 5 3.58 1.21
-9 20 -5 3.32 1.7
-9 20 6 2.14 1.64
9 20 -6 -0.07 1.22
9 20 -6 -0.1 1.23
-9 20 -6 2.29 1.7
9 20 6 0.48 1.18
-9 20 -6 -0.52 1.51
-9 20 7 12.4 1.99
9 20 -7 13.47 1.58
-9 20 -7 14.28 1.9
-9 20 -7 11.43 2.02
9 20 7 16 1.88
8 9 -20 3.65 1.49
-9 20 8 5.01 1.75
9 20 -8 3.49 1.43
9 20 -8 -1.41 1.4
-9 20 -8 2.42 1.85
-9 20 -8 0.24 1.54
9 20 8 1.23 1.42
9 9 -20 14.82 1.84
-9 20 9 8.86 2.02
-9 20 -9 14.37 2
9 20 9 12.56 1.72
-9 20 10 2.3 2.02
9 20 -10 6.3 2.15
-10 9 -20 -1.63 1.72
9 20 10 1.21 1.43
-9 20 -10 2.91 1.7
-9 20 -11 5.8 2.52
10 20 0 4.39 1.22
-10 20 0 -0.08 1.45
10 20 -1 5.01 1.21
-10 20 1 1 1.46
-10 20 -1 1.69 1.64
10 20 1 0.43 1.13
-10 20 -1 1.71 1.52
-10 20 2 1.17 1.54
10 20 -2 4.38 1.22
-10 20 -2 -2.19 1.49
-10 20 -2 0.86 1.54
10 20 2 1.56 1.12
-10 20 3 7 1.78
10 20 -3 9.35 1.35
10 20 3 8.28 1.38
-10 20 -3 8.75 1.79
-10 20 -3 6.95 1.71
10 20 -4 4.07 1.26
-10 20 4 0.35 1.55
-10 20 -4 3.19 1.52
-10 20 -4 0.67 1.69
10 20 4 0.93 1.22
10 20 -5 3.35 1.26
-10 20 5 4.79 1.64
10 20 5 4.99 1.31
-10 20 -5 4.8 1.96
-10 20 -5 4.32 1.63
-10 20 6 0.32 1.62
10 20 -6 2.2 1.49
6 10 -20 0.09 1.35
-10 20 -6 1.84 1.88
-10 20 -6 2.62 1.61
10 20 6 5.63 1.29
-10 20 7 1.87 1.8
7 10 -20 1.97 1.4
-7 10 -20 0.58 1.6
-10 20 -7 3.56 2.2
10 20 7 4.48 1.4
-10 20 -7 2.87 1.72
8 10 -20 3.97 1.51
-10 20 8 2.05 1.82
-8 10 -20 -1.01 1.66
10 20 8 2.61 1.29
-10 20 -8 1.73 1.63
-10 20 9 0.21 1.88
-10 20 -9 4.83 1.86
-9 10 -20 -0.56 1.83
10 20 9 4.19 1.41
-10 10 -20 -0.72 2.52
-10 20 -10 0.38 2.29
-11 20 0 4.27 1.66
-11 20 1 11.17 1.9
-11 20 -1 9.22 1.74
-11 20 2 10.98 1.9
2 11 -20 6.18 1.6
-11 20 -2 10.63 2
-11 20 -2 9.26 1.69
-11 20 3 -0.17 1.63
3 11 -20 -1.69 1.4
-11 20 -3 4.03 1.7
-11 20 -3 1.72 1.8
-3 11 -20 -0.99 1.52
4 11 -20 4.16 1.45
-11 20 4 6.42 1.79
-11 20 -4 4.55 1.66
-4 11 -20 3.28 1.86
-11 20 -4 6.6 1.95
-11 20 5 2.95 1.82
5 11 -20 0.39 1.39
-5 11 -20 0.01 1.64
-11 20 -5 6.26 2.11
-11 20 -5 4.5 1.7
6 11 -20 2.33 1.52
-11 20 6 6.33 2.05
-6 11 -20 1.41 1.6
-11 20 -6 2.79 1.69
7 11 -20 8.18 1.58
-11 20 7 7.12 2.04
-11 20 -7 4.82 1.85
-7 11 -20 1.54 1.79
8 11 -20 3.79 1.54
-11 20 8 5.93 2.29
-8 11 -20 3.49 1.83
-11 20 -8 5.53 1.94
-9 11 -20 4.68 2.97
0 12 -20 4.15 1.68
-12 20 0 11.06 2.06
-12 20 1 4.09 1.92
1 12 -20 -0.03 1.52
-12 20 -1 3.02 1.86
-1 12 -20 -0.41 1.51
2 12 -20 -0.77 1.55
-12 20 2 -0.41 1.93
-2 12 -20 -1.25 1.55
-12 20 -2 2.72 1.83
-12 20 3 6 2.44
3 12 -20 6.35 1.73
-3 12 -20 5.68 1.71
-12 20 -3 4.7 1.82
4 12 -20 2.89 1.5
-12 20 -4 3.87 1.88
-4 12 -20 0.32 1.69
5 12 -20 4.15 1.6
-5 12 -20 8.5 1.97
-12 20 -5 6.69 2.02
6 12 -20 3.89 1.46
-6 12 -20 7.86 1.93
-12 20 -6 7.47 2.17
7 12 -20 1.58 1.48
-12 20 -7 3.15 2.51
-7 12 -20 -3.21 1.63
0 13 -20 -1.46 1.55
1 13 -20 8.55 1.7
-1 13 -20 3.28 1.58
2 13 -20 0.7 1.47
-2 13 -20 0.22 1.55
3 13 -20 1.54 1.53
-3 13 -20 1.93 1.68
4 13 -20 7.71 1.75
-4 13 -20 8.77 1.84
5 13 -20 3.19 1.44
-5 13 -20 -1.43 1.61
-6 13 -20 2.63 1.98
0 14 -20 0.6 1.68
1 14 -20 1.25 1.49
-1 14 -20 -0.9 1.63
2 14 -20 0.84 1.76
-2 14 -20 -0.24 1.63
3 14 -20 3.02 2.14
-3 14 -20 -0.43 1.66
0 21 0 21.54 2.34
0 21 0 25.42 2.19
0 21 1 2.86 1.38
0 21 1 2.79 1.42
0 21 -1 -1.32 1.21
0 21 -1 -0.53 1.37
0 21 -2 1.67 1.3
0 21 -2 0.27 1.34
0 21 2 -2.08 1.38
0 21 2 0.66 1.36
0 21 -3 0.24 1.31
0 21 3 2.33 1.4
0 21 -3 1.29 1.34
0 21 -4 2.33 1.38
0 21 -4 2.2 1.44
0 21 4 -0.65 1.38
0 21 5 10.91 1.74
0 21 -5 10.53 1.67
0 21 -5 11.88 1.8
0 21 -6 9.11 1.7
0 21 6 5.02 1.46
0 21 -6 8.38 1.62
0 21 7 0.17 1.47
0 21 -7 1.1 1.34
0 21 -7 -0.03 1.4
0 21 8 0.57 1.53
0 21 -8 1.56 1.44
0 21 -8 -1.26 1.38
0 21 -9 6.86 1.71
0 21 -9 10.15 1.62
0 21 9 9.7 1.84
0 21 10 5.74 1.78
0 21 -10 9.27 1.8
0 21 -10 4.99 1.63
0 21 11 17.53 2.27
0 21 -11 14.43 2.01
0 21 -12 -0.83 1.58
0 21 12 -1.41 1.57
1 21 0 0.15 1.41
-1 21 0 -1.67 1.26
1 21 0 -1.1 1.22
-1 21 0 -0.6 1.32
1 21 -1 2.1 1.41
-1 21 1 1.72 1.32
-1 21 1 1.23 1.43
1 21 -1 3.98 1.36
-1 21 -1 0.34 1.47
-1 21 -1 -0.98 1.33
1 21 1 1.26 1.41
1 21 1 1.36 1.29
1 21 -2 -0.02 1.39
-1 21 2 1.38 1.48
1 21 -2 2.67 1.22
-1 21 2 2.39 1.4
1 21 2 2.87 1.36
-1 21 -2 -0.73 1.35
1 21 2 0.35 1.41
-1 21 -2 0.47 1.4
1 21 -3 1.22 1.41
1 21 -3 3.78 1.47
-1 21 3 0.9 1.45
1 21 3 0.51 1.45
-1 21 -3 0.46 1.41
-1 21 -3 -0.36 1.35
1 21 -4 7.8 1.69
1 21 -4 7.55 1.63
-1 21 4 8.19 1.68
-1 21 -4 4.1 1.59
1 21 4 9.73 1.72
-1 21 -4 5.24 1.66
1 21 -5 3.35 1.35
1 21 -5 2.7 1.46
-1 21 5 3.14 1.6
-1 21 -5 2.5 1.42
-1 21 -5 2.34 1.55
1 21 5 3.02 1.55
1 21 -6 5.13 1.52
1 21 -6 4.42 1.45
-1 21 6 3.2 1.6
-1 21 -6 4.51 1.5
-1 21 -6 -0.57 1.51
1 21 6 0.57 1.45
1 21 -7 0.33 1.4
-1 21 7 0.62 1.48
1 21 -7 0.67 1.33
-1 21 -7 -0.97 1.37
-1 21 -7 0.21 1.48
1 21 7 -0.47 1.43
1 21 -8 4.55 1.59
1 21 -8 3.72 1.57
-1 21 8 4.29 1.69
1 21 8 4.63 1.61
-1 21 -8 4.67 1.59
-1 21 -8 5.97 1.64
1 21 -9 -0.55 1.4
-1 21 9 0.14 1.58
1 21 -9 0.37 1.41
-1 21 -9 -0.6 1.44
-1 21 -9 2.59 1.57
1 21 9 -1.17 1.38
-1 21 10 -0.7 1.52
1 21 -10 0.01 1.51
1 21 -10 1.05 1.48
1 21 10 3.75 1.65
-1 21 -10 -1.35 1.45
-1 21 -10 -0.15 1.44
-1 21 11 -0.49 1.7
1 21 -11 2.2 1.47
-1 21 -11 0.08 1.53
1 21 11 0.21 1.6
1 21 -12 9.45 1.88
-1 21 12 6.47 1.93
1 21 12 5.79 1.73
-1 21 -12 4.82 1.53
-2 21 0 1.39 1.47
2 21 0 2.33 1.48
2 21 0 0.66 1.29
-2 21 0 -0.62 1.38
2 21 -1 -0.74 1.27
-2 21 1 1.31 1.49
-2 21 1 1.27 1.5
2 21 -1 1.55 1.29
2 21 1 2.11 1.29
-2 21 -1 -0.78 1.46
-2 21 -1 0.44 1.34
2 21 1 -0.03 1.39
-2 21 2 0.16 1.38
2 21 -2 1.86 1.4
2 21 -2 1.23 1.26
-2 21 2 1.41 1.44
2 21 2 0.55 1.35
2 21 2 3.2 1.35
-2 21 -2 -0.04 1.48
-2 21 -2 0.71 1.38
2 21 -3 1.99 1.34
2 21 -3 1.91 1.38
-2 21 3 0.5 1.35
-2 21 -3 2.34 1.39
-2 21 -3 -0.17 1.4
2 21 3 2.5 1.43
-2 21 4 -1.33 1.3
2 21 -4 1.82 1.36
2 21 -4 0.75 1.4
2 21 4 0.74 1.34
-2 21 -4 -1.32 1.41
-2 21 -4 -0.48 1.42
-2 21 5 -0.57 1.46
2 21 -5 -1.83 1.23
2 21 -5 2.89 1.45
-2 21 -5 0.92 1.41
-2 21 -5 0.12 1.47
2 21 5 1.19 1.41
2 21 -6 1.15 1.42
2 21 -6 2.54 1.31
-2 21 6 -1.39 1.38
-2 21 -6 -1.33 1.49
2 21 6 -0.76 1.35
-2 21 -6 1.55 1.55
2 21 -7 0.82 1.34
-2 21 7 0.35 1.52
2 21 -7 0.01 1.3
2 21 7 1.99 1.5
-2 21 -7 0.84 1.37
-2 21 -7 -0.76 1.44
2 21 -8 0.23 1.41
-2 21 8 3.78 1.64
2 21 -8 0.73 1.43
2 21 8 0.88 1.45
-2 21 -8 2.2 1.43
-2 21 -8 0.32 1.44
2 21 -9 -0.47 1.41
-2 21 9 -0.29 1.57
2 21 -9 0.51 1.55
-2 21 -9 0.24 1.59
2 21 9 1.74 1.45
-2 21 -9 1.23 1.51
2 21 -10 -1.16 1.4
-2 21 10 1.24 1.61
2 21 -10 1.46 1.61
-2 21 -10 0.32 1.49
-2 21 -10 -2.39 1.63
2 21 10 1.11 1.54
2 21 -11 0.93 1.53
-2 21 11 1.37 1.66
2 21 11 0.79 1.54
-2 21 -11 2.68 1.59
-2 21 12 1.53 1.78
2 21 -12 2.08 1.67
2 21 12 1.28 1.61
-2 21 -12 3.97 1.61
-3 21 0 0.9 1.4
-3 21 0 2.58 1.55
3 21 0 0.09 1.34
3 21 0 1.45 1.25
3 21 -1 1.27 1.27
-3 21 1 0.62 1.37
3 21 -1 1.76 1.29
-3 21 1 0.65 1.41
-3 21 -1 2.84 1.53
3 21 1 0.98 1.29
3 21 1 -0.56 1.28
-3 21 -1 -0.99 1.37
-3 21 2 2.13 1.49
-3 21 2 0.75 1.42
3 21 -2 0.33 1.26
3 21 -2 1.61 1.33
3 21 2 4.23 1.45
-3 21 -2 2.33 1.4
3 21 2 0.14 1.32
-3 21 -2 1.45 1.44
3 21 -3 -0.9 1.23
3 21 -3 2.45 1.34
-3 21 3 -0.14 1.43
3 21 3 2 1.44
-3 21 -3 2.39 1.52
-3 21 -3 0.78 1.45
3 21 -4 4.73 1.53
3 21 -4 1.48 1.31
-3 21 4 2.5 1.58
3 21 4 0.46 1.34
-3 21 -4 3.86 1.58
-3 21 -4 -0.31 1.5
-3 21 5 1.36 1.56
3 21 -5 2.41 1.47
3 21 -5 3.58 1.4
3 21 5 1.3 1.42
-3 21 -5 1.17 1.5
-3 21 -5 4.1 1.58
-3 21 6 6.59 1.75
3 21 -6 7.1 1.57
3 21 -6 4.84 1.53
-3 21 -6 6.11 1.63
-3 21 -6 4.83 1.63
3 21 6 6.27 1.52
-3 21 7 -0.61 1.6
3 21 -7 -0.65 1.41
3 21 -7 2.24 1.47
-3 21 -7 1.49 1.58
3 21 7 0.21 1.39
-3 21 -7 0.66 1.45
3 21 -8 9.97 1.69
3 21 -8 10.14 1.67
-3 21 8 9.28 1.77
-3 21 -8 8.57 1.74
3 21 8 5.53 1.66
-3 21 -8 11.23 1.82
3 21 -9 1.94 1.55
-3 21 9 0.86 1.64
3 21 -9 3.8 1.57
3 21 9 6.19 1.63
-3 21 -9 1.1 1.58
-3 21 -9 2.97 1.59
3 21 -10 0.39 1.5
-3 21 10 -1.82 1.58
3 21 -10 0.09 1.77
-3 21 -10 1.74 1.6
-3 21 -10 3.12 1.81
3 21 10 3.07 1.53
-3 21 11 5.44 1.9
3 21 -11 2.79 1.59
-3 21 -11 4.89 1.7
3 21 -12 5.75 1.66
-3 21 12 2.67 1.75
3 21 12 1.56 1.58
-3 21 -12 6.91 1.78
4 21 0 2.71 1.43
-4 21 0 -0.31 1.39
-4 21 0 0.54 1.38
4 21 0 1.91 1.33
-4 21 1 7.05 1.65
-4 21 1 5.99 1.7
4 21 -1 9.43 1.61
4 21 -1 10.98 1.6
-4 21 -1 8.49 1.64
4 21 1 8.89 1.57
4 21 1 5.88 1.51
-4 21 -1 5.37 1.53
4 21 -2 -0.88 1.29
4 21 -2 0.46 1.2
-4 21 2 3.04 1.6
-4 21 -2 -1.18 1.26
4 21 2 -0.74 1.3
-4 21 -2 -1.18 1.41
4 21 -3 -0.1 1.29
-4 21 3 3.56 1.59
4 21 -3 3.06 1.42
4 21 3 3.61 1.41
-4 21 -3 -0.23 1.49
-4 21 -3 0.45 1.38
4 21 -4 5.97 1.58
-4 21 4 2.83 1.64
4 21 -4 3.75 1.47
-4 21 -4 4.85 1.58
-4 21 -4 3.54 1.56
4 21 4 5.06 1.52
4 21 -5 8.56 1.69
-4 21 5 7.09 1.76
4 21 -5 8.32 1.61
-4 21 -5 9.18 1.71
4 21 5 6 1.53
-4 21 -5 4.72 1.63
4 21 -6 -2.07 1.39
-4 21 6 0.32 1.44
4 21 -6 2.04 1.32
-4 21 -6 1.2 1.48
-4 21 -6 -2.36 1.37
4 21 6 0.83 1.37
4 21 -7 2.2 1.42
4 21 -7 2.83 1.47
-4 21 7 3.16 1.58
-4 21 -7 1.25 1.46
-4 21 -7 2.62 1.57
4 21 7 0.84 1.41
4 21 -8 -1.88 1.41
-4 21 8 1.76 1.56
4 21 -8 1.85 1.57
4 21 8 -1.9 1.37
-4 21 -8 2.25 1.6
-4 21 -8 0.22 1.52
4 21 -9 0.54 1.43
-4 21 9 -0.71 1.73
4 21 -9 0.45 1.47
4 21 9 0.99 1.51
-4 21 -9 -0.11 1.46
-4 21 -9 0.86 1.64
-4 21 10 5.04 1.8
4 21 -10 3.6 1.53
4 21 10 3.8 1.51
-4 21 -10 3.87 1.63
4 21 -11 2.21 1.58
-4 21 11 1.41 1.68
-4 21 -11 2.24 1.62
4 21 11 4.74 1.6
4 21 -12 1.67 1.95
-4 21 12 -0.02 1.92
4 21 12 3.63 1.88
-4 21 -12 5.17 1.68
5 21 0 10.38 1.63
5 21 0 12.51 1.68
-5 21 0 8.63 1.77
-5 21 0 16 1.89
-5 21 1 3.27 1.64
5 21 -1 6.07 1.37
-5 21 1 3.48 1.61
5 21 -1 3.32 1.38
5 21 1 3.51 1.43
5 21 1 4.61 1.4
-5 21 -1 3.03 1.53
-5 21 -1 3.72 1.53
5 21 -2 3.25 1.39
-5 21 2 2.19 1.51
5 21 -2 0.38 1.15
-5 21 -2 1.13 1.47
5 21 2 -0.58 1.36
-5 21 -2 0.99 1.53
5 21 -3 2.07 1.34
5 21 -3 3.89 1.37
-5 21 3 0.18 1.54
-5 21 -3 2.85 1.58
-5 21 -3 2.17 1.56
5 21 3 1.84 1.4
5 21 -4 6.25 1.47
5 21 -4 9.98 1.59
-5 21 4 6.43 1.61
-5 21 -4 5.22 1.61
-5 21 -4 7.67 1.69
5 21 4 6.56 1.53
-5 21 5 9.21 1.74
5 21 -5 10.74 1.64
5 21 -5 8.25 1.56
5 21 5 6.82 1.52
-5 21 -5 8.96 1.73
-5 21 -5 7.06 1.77
5 21 -6 9.26 1.59
-5 21 6 3.39 1.7
5 21 -6 9.26 1.55
-5 21 -6 7.76 1.75
5 21 6 8.62 1.65
-5 21 -6 7.06 1.67
5 21 -7 5.55 1.49
5 21 -7 1.82 1.43
-5 21 7 6.27 1.78
-5 21 -7 3.69 1.57
-5 21 -7 7.45 1.67
5 21 7 2.52 1.52
5 21 -8 0.28 1.41
-5 21 8 0.85 1.58
5 21 -8 0.74 1.42
-5 21 -8 1.48 1.6
5 21 8 1.87 1.48
-5 21 -8 -0.29 1.51
5 21 -9 4.43 1.48
-5 21 9 2.47 1.63
5 21 -9 2.5 1.67
-5 21 -9 2.95 1.59
-5 21 -9 1.04 2.16
5 21 9 5.9 1.57
-5 21 10 1.01 1.79
5 21 -10 -3.34 1.44
-5 21 -10 -0.54 1.6
5 21 10 2.97 1.47
-5 21 11 12.36 2
5 21 -11 9.47 1.83
5 21 11 5.02 1.69
-5 21 -11 12.64 2.03
-6 21 0 6.75 1.76
6 21 0 6.12 1.37
-6 21 0 4.63 1.55
6 21 0 5.58 1.47
6 21 -1 3.18 1.27
-6 21 1 6.55 1.63
-6 21 1 3.35 1.63
6 21 -1 6.38 1.35
-6 21 -1 2.52 1.56
6 21 1 4.85 1.32
6 21 1 3.99 1.4
-6 21 -1 9.27 1.66
-6 21 2 -1.24 1.42
6 21 -2 4.35 1.28
6 21 -2 0.96 1.31
-6 21 -2 3.05 1.47
6 21 2 2.85 1.35
-6 21 -2 -0.58 1.39
-6 21 3 6.24 1.67
6 21 -3 6.74 1.52
6 21 -3 9.13 1.51
-6 21 -3 8.83 1.75
-6 21 -3 4.28 1.64
6 21 3 9.46 1.52
6 21 -4 0.95 1.33
6 21 -4 1.55 1.43
-6 21 4 1.3 1.5
6 21 4 1.47 1.24
-6 21 -4 0.42 1.58
-6 21 -4 1.75 1.59
-6 21 5 5.35 1.63
6 21 -5 6.11 1.46
6 21 -5 9 1.56
-6 21 -5 8.08 1.81
6 21 5 9.08 1.53
-6 21 -5 7.79 1.76
6 21 -6 6.71 1.58
6 21 -6 6.65 1.41
-6 21 6 6.41 1.8
-6 21 -6 1.7 1.62
6 21 6 5.29 1.45
-6 21 -6 4.2 1.74
6 21 -7 3.7 1.48
6 21 -7 2.51 1.32
-6 21 7 -0.62 1.64
6 21 7 1.7 1.38
-6 21 -7 1.65 1.54
-6 21 -7 3.21 1.64
6 21 -8 5.33 1.38
-6 21 8 0.3 1.67
6 21 -8 2.38 1.47
-6 21 -8 1.29 1.65
6 21 8 0.19 1.37
-6 21 -8 1.93 1.5
6 21 -9 0.19 1.44
-6 21 9 4.95 1.77
6 21 9 2.96 1.48
-6 21 -9 5.95 1.79
-6 21 10 -0.99 1.76
6 21 -10 0.65 1.42
6 21 10 -2.03 1.47
-6 21 -10 2.72 1.66
6 21 -11 4.6 1.84
-6 21 11 8.29 2.06
6 21 11 5.33 1.66
-6 21 -11 7.98 1.79
7 21 0 2.29 1.34
7 21 0 3.32 1.32
-7 21 0 1.56 1.6
-7 21 0 1.4 1.57
7 21 -1 0.86 1.25
7 21 -1 1.13 1.33
-7 21 1 3.8 1.59
-7 21 -1 1.95 1.45
7 21 1 1.69 1.24
-7 21 -1 1.35 1.45
-7 21 2 1.4 1.51
7 21 -2 1.67 1.22
7 21 -2 0.25 1.22
-7 21 -2 2.53 1.62
7 21 2 1.93 1.21
-7 21 -2 -0.12 1.47
7 21 -3 0.64 1.21
-7 21 3 1.94 1.53
7 21 -3 2.39 1.3
-7 21 -3 2.68 1.44
-7 21 -3 3.75 1.54
7 21 3 3.5 1.38
7 21 -4 2.94 1.35
-7 21 4 0.28 1.62
7 21 -4 1.8 1.36
7 21 4 -1.89 1.25
-7 21 -4 2.24 1.53
-7 21 -4 1.76 1.6
7 21 -5 6.48 1.36
-7 21 5 4.87 1.76
7 21 -5 5.67 1.47
-7 21 -5 5.16 1.7
7 21 5 5.79 1.46
-7 21 -5 3.77 1.68
7 21 -6 -2.5 1.36
7 21 -6 3.11 1.31
-7 21 6 2.26 1.7
7 21 6 1.74 1.29
-7 21 -6 4.57 1.72
-7 21 -6 3.24 1.7
7 21 -7 2.64 1.49
7 21 -7 1.4 1.46
-7 21 7 0.63 1.61
-7 21 -7 1.74 1.6
7 21 7 -1.02 1.25
-7 21 -7 2.47 1.68
-7 21 8 4.68 1.63
7 21 -8 2.9 1.46
-7 21 -8 0.31 1.55
7 21 8 0.63 1.38
-7 21 9 1.31 1.71
7 21 -9 2.66 1.45
7 21 9 2.36 1.49
-7 21 -9 -2.35 1.45
7 21 -10 0.51 1.39
-7 21 10 2.07 1.92
-7 21 -10 1.68 1.66
7 21 10 -0.12 1.44
8 21 0 3.97 1.42
-8 21 0 2.26 1.56
-8 21 0 1 1.47
-8 21 1 4.78 1.62
8 21 -1 6.77 1.41
8 21 -1 4.4 1.35
-8 21 -1 4.15 1.57
-8 21 -1 3.39 1.7
8 21 1 3.56 1.32
-8 21 2 0.73 1.64
8 21 -2 0.4 1.35
8 21 -2 -0.27 1.3
-8 21 -2 1.61 1.55
-8 21 -2 0.8 1.57
8 21 2 1.33 1.26
8 21 -3 10.09 1.53
8 21 -3 9.32 1.53
-8 21 3 6.81 1.8
-8 21 -3 7.94 1.84
8 21 3 10.55 1.42
-8 21 -3 10.21 1.8
8 21 -4 2.53 1.42
8 21 -4 5.66 1.42
-8 21 4 0.76 1.59
-8 21 -4 3.04 1.56
8 21 4 2.93 1.3
-8 21 -4 0.66 1.64
8 21 -5 0.88 1.33
-8 21 5 1.19 1.63
8 21 -5 4.14 1.44
8 21 5 1.19 1.29
-8 21 -5 2.08 1.47
-8 21 -5 3.08 1.74
8 21 -6 2.9 1.41
8 21 -6 1.81 1.48
-8 21 6 2.39 1.63
-8 21 -6 -0.09 1.75
8 21 6 1.32 1.39
-8 21 -6 3.18 1.66
-8 21 7 -0.84 1.65
8 21 -7 4.45 1.46
8 21 7 1.07 1.33
-8 21 -7 0.34 1.59
8 21 -8 2.35 1.46
-8 21 8 5.35 1.8
-8 21 -8 2.29 1.78
8 21 8 2.53 1.42
8 21 -9 5.21 1.57
-8 21 9 -0.85 1.86
8 21 9 -0.32 1.52
-8 21 -9 2.71 1.74
-9 21 0 9.33 1.83
9 21 0 11.45 1.48
-9 21 1 0.54 1.6
9 21 -1 0.7 1.31
-9 21 -1 0.79 1.5
9 21 1 0.84 1.35
-9 21 -1 3.77 1.79
9 21 -2 3.93 1.29
-9 21 2 0.48 1.59
9 21 -2 1.76 1.26
-9 21 -2 -0.19 1.56
-9 21 -2 -1.1 1.57
9 21 2 0.06 1.32
9 21 -3 4.57 1.41
9 21 -3 2.65 1.28
-9 21 3 6.1 1.74
-9 21 -3 3.37 1.5
9 21 3 5.12 1.38
-9 21 -3 7.22 1.81
9 21 -4 4.41 1.37
-9 21 4 0.07 1.62
9 21 -4 4.95 1.35
-9 21 -4 3.41 1.83
9 21 4 0.32 1.35
-9 21 -4 -1.24 1.62
-9 21 5 4.78 1.88
9 21 -5 8.04 1.61
9 21 -5 5.83 1.45
-9 21 -5 5.62 2.18
9 21 5 4.03 1.45
-9 21 -5 4.32 1.77
9 21 -6 5.64 1.44
-9 21 6 4.09 1.88
-9 21 -6 3.23 1.77
9 21 6 3.31 1.47
7 9 -21 -0.7 1.45
-9 21 7 -0.45 1.76
9 21 -7 2.98 1.36
-9 21 -7 0.27 1.67
9 21 7 2.76 1.5
9 21 -8 7.82 2.41
-9 21 8 1.66 1.73
9 21 8 0.91 1.52
-9 21 -8 1.92 1.69
-9 21 -9 4.5 2.74
-10 21 0 12.7 1.96
-10 21 1 3.68 1.74
-10 21 -1 2.84 1.65
10 21 1 -0.89 1.18
-10 21 2 0.46 1.63
10 21 2 0.2 1.23
-10 21 -2 1.19 1.6
-10 21 -2 2.49 2.02
-10 21 3 -1.86 1.66
-10 21 -3 2.74 1.71
10 21 3 2.87 1.28
-10 21 -3 0.99 2.4
-10 21 4 3.84 1.82
-10 21 -4 2.68 1.75
10 21 4 2.24 1.26
-10 21 5 -0.48 1.78
5 10 -21 -0.53 1.44
-10 21 -5 3.66 1.88
10 21 5 0.72 1.27
-10 21 6 -1.1 1.85
6 10 -21 -3.9 1.36
-10 21 -6 1.01 1.79
-6 10 -21 1.69 1.64
10 21 6 1.8 1.4
7 10 -21 2.08 1.58
-10 21 7 0.68 1.85
-7 10 -21 -0.19 1.74
-10 21 -7 0.59 1.77
-11 21 0 20.28 2.23
0 11 -21 17.03 2.26
1 11 -21 -2.46 1.41
-11 21 1 1.46 1.89
-1 11 -21 -0.41 1.57
-11 21 -1 -0.07 1.65
-11 21 2 1.82 1.92
2 11 -21 -3.28 1.37
-2 11 -21 -0.67 1.71
-11 21 -2 2.28 1.87
3 11 -21 -0.8 1.53
-11 21 3 3.21 1.93
-11 21 -3 2.69 1.75
-3 11 -21 -0.33 1.51
-11 21 4 3.38 1.98
4 11 -21 0.21 1.48
-4 11 -21 0.01 1.78
-11 21 -4 3.31 1.86
-11 21 5 11.27 2.18
5 11 -21 7.17 1.59
-5 11 -21 8.33 1.92
-11 21 -5 13.51 2.12
6 11 -21 6.93 2.52
-11 21 -6 7.29 3.05
-6 11 -21 1.44 1.74
0 12 -21 2.13 1.64
1 12 -21 9.91 2.91
-1 12 -21 4.32 1.76
2 12 -21 0.64 1.67
-2 12 -21 -0.37 1.58
3 12 -21 7.26 1.78
-3 12 -21 2.84 1.65
4 12 -21 0.23 1.69
-4 12 -21 4.12 1.78
0 22 0 36.65 2.46
0 22 0 41.3 2.59
0 22 -1 1.58 1.46
0 22 1 2.21 1.54
0 22 1 1.24 1.47
0 22 -1 1.98 1.46
0 22 -2 0.73 1.42
0 22 2 1.87 1.46
0 22 -2 0.63 1.37
0 22 -3 7.41 1.57
0 22 -3 3.57 1.63
0 22 3 4.16 1.6
0 22 -4 7.2 1.68
0 22 4 5.63 1.59
0 22 -4 4.81 1.51
0 22 -5 57.57 3.06
0 22 -5 51.08 2.99
0 22 5 58.95 3.01
0 22 6 21.71 2.21
0 22 -6 20.81 2.2
0 22 -6 21.72 2.4
0 22 -7 -0.3 1.37
0 22 -7 2.46 1.49
0 22 7 3.29 1.61
0 22 -8 5.84 2.24
0 22 -8 4.28 1.58
0 22 8 4.79 1.71
0 22 9 6.4 1.7
0 22 -9 3.46 1.57
0 22 -10 2.16 1.71
0 22 10 6.33 1.71
0 22 -11 29.72 2.99
0 22 11 39.65 4.08
1 22 0 1.42 1.39
-1 22 0 1.5 1.48
-1 22 0 2.83 1.45
1 22 0 -0.17 1.4
1 22 -1 6.35 1.64
1 22 -1 2.86 1.39
-1 22 1 2.87 1.47
-1 22 1 5.24 1.5
-1 22 -1 2.48 1.51
1 22 1 0.89 1.5
1 22 1 3.7 1.49
-1 22 -1 4.49 1.48
-1 22 2 -1.15 1.39
1 22 -2 1.58 1.3
1 22 -2 0.2 1.41
-1 22 -2 0.59 1.52
-1 22 -2 2.06 1.51
1 22 2 1.27 1.5
1 22 -3 0.49 1.5
-1 22 3 1.14 1.47
1 22 -3 1.03 1.34
-1 22 -3 4.07 1.5
-1 22 -3 1.78 1.49
1 22 3 3.02 1.61
-1 22 4 6.03 1.74
1 22 -4 5.4 1.53
1 22 -4 6.51 1.52
-1 22 -4 4.93 1.65
1 22 4 6.47 1.66
-1 22 -4 5.58 1.61
1 22 -5 2.23 1.46
-1 22 5 0.93 1.61
1 22 -5 4.73 1.55
1 22 5 0.58 1.46
-1 22 -5 2.46 1.47
-1 22 -5 1.23 1.49
1 22 -6 2.77 1.44
-1 22 6 -0.9 1.57
1 22 -6 5.79 1.54
-1 22 -6 0.94 1.56
1 22 6 -0.77 1.37
-1 22 -6 1.64 1.5
-1 22 7 10.14 1.87
1 22 -7 5.65 1.58
1 22 -7 10 1.75
-1 22 -7 8.76 1.94
-1 22 -7 9.04 1.83
1 22 7 12.37 1.88
-1 22 8 7.21 1.78
1 22 -8 7.95 2.39
1 22 -8 7.21 1.71
1 22 8 5.1 1.72
-1 22 -8 6.43 2.58
-1 22 -8 5.78 1.67
1 22 -9 1.24 1.5
-1 22 9 6.52 1.76
-1 22 -9 4.97 1.64
1 22 9 3.07 1.63
-1 22 10 4.06 1.72
1 22 -10 -0.35 1.47
-1 22 -10 1.07 1.59
1 22 10 2.9 1.67
-1 22 11 -1.8 2.85
1 22 -11 0.57 1.76
-1 22 -11 3.54 2.03
1 22 11 2.89 1.82
2 22 0 0.01 1.37
-2 22 0 4.41 1.59
2 22 0 3.26 1.45
-2 22 0 2.46 1.61
-2 22 1 0.91 1.53
2 22 -1 0.17 1.41
2 22 -1 -0.03 1.28
-2 22 1 1.77 1.52
-2 22 -1 -0.53 1.39
2 22 1 1.69 1.44
-2 22 -1 1.43 1.48
2 22 1 2.77 1.49
2 22 -2 1.61 1.41
-2 22 2 1.91 1.51
2 22 -2 -1.18 1.34
2 22 2 0.6 1.37
-2 22 -2 1.63 1.56
-2 22 -2 1.76 1.42
2 22 -3 3.86 1.4
-2 22 3 2.39 1.59
2 22 -3 4.31 1.57
2 22 3 2.52 1.5
-2 22 -3 5.1 1.61
-2 22 -3 1.63 1.61
-2 22 4 2.47 1.58
2 22 -4 -1.03 1.42
2 22 -4 3.09 1.37
-2 22 -4 1.01 1.63
2 22 4 0.41 1.45
-2 22 -4 0.14 1.45
2 22 -5 4.85 1.61
-2 22 5 5.48 1.71
-2 22 -5 3.5 1.55
2 22 5 3.54 1.51
-2 22 -5 3.48 1.58
-2 22 6 1.42 1.54
2 22 -6 3.21 1.45
2 22 -6 1.28 1.51
-2 22 -6 0.85 1.57
2 22 6 -0.43 1.41
-2 22 -6 -1.07 1.48
-2 22 7 4.77 1.65
2 22 -7 2.35 1.37
2 22 -7 3.62 1.55
-2 22 -7 3.04 1.55
-2 22 -7 7.1 1.79
2 22 7 4.55 1.61
-2 22 8 1.73 1.65
2 22 -8 0.61 1.44
2 22 8 -0.28 1.48
-2 22 -8 1.99 1.61
-2 22 9 -0.4 1.62
2 22 -9 1.52 1.42
2 22 9 2.52 1.49
-2 22 -9 0.31 1.49
-2 22 10 3.41 1.74
2 22 -10 1.86 1.55
2 22 10 4.58 1.69
-2 22 -10 0.7 1.69
-3 22 0 2.83 1.48
3 22 0 3.52 1.43
-3 22 0 4.37 1.54
3 22 0 3.41 1.53
3 22 -1 0.91 1.38
-3 22 1 0.19 1.59
3 22 -1 3.56 1.45
3 22 1 0.21 1.39
-3 22 -1 0.2 1.35
3 22 1 4.88 1.51
-3 22 -1 2.23 1.49
-3 22 2 4.24 1.53
3 22 -2 5.32 1.55
3 22 -2 7.73 1.61
-3 22 -2 4.79 1.7
-3 22 -2 4.34 1.6
3 22 2 4.49 1.53
-3 22 3 4.37 1.59
3 22 -3 8.8 1.69
3 22 -3 3.95 1.44
-3 22 -3 5.88 1.75
-3 22 -3 3.08 1.55
3 22 3 7.08 1.5
3 22 -4 0.51 1.31
-3 22 4 -0.26 1.5
3 22 -4 0.13 1.48
3 22 4 1.1 1.41
-3 22 -4 -1.16 1.45
-3 22 -4 2.11 1.6
3 22 -5 4.97 1.56
3 22 -5 6.99 1.6
-3 22 5 3.47 1.68
-3 22 -5 4.38 1.65
-3 22 -5 3.18 1.62
3 22 5 0.54 1.36
3 22 -6 3.35 1.65
-3 22 6 4.49 1.67
3 22 -6 0.76 1.45
-3 22 -6 2.66 1.61
3 22 6 4.67 1.57
-3 22 -6 3.96 1.69
-3 22 7 5.96 1.78
3 22 -7 2.41 1.62
3 22 -7 7.61 1.67
-3 22 -7 4.59 1.61
3 22 7 7.56 1.65
-3 22 -7 6.73 1.89
3 22 -8 4.82 1.55
-3 22 8 2.64 1.58
3 22 8 8 1.73
-3 22 -8 6.81 1.75
-3 22 9 4.99 1.72
3 22 -9 3.03 1.65
-3 22 -9 3.21 1.67
-3 22 10 4.85 1.88
3 22 -10 4.19 1.67
-3 22 -10 3.67 1.63
3 22 10 3.51 1.69
-4 22 0 5.19 1.66
4 22 0 4.19 1.61
-4 22 0 5.09 1.58
4 22 0 6.42 1.48
4 22 -1 4.09 1.44
4 22 -1 5.14 1.44
-4 22 1 5.18 1.59
-4 22 1 6.71 1.8
-4 22 -1 5.83 1.67
-4 22 -1 4.04 1.61
4 22 1 3.09 1.53
4 22 1 8.74 1.57
4 22 -2 1.06 1.44
-4 22 2 3.46 1.58
4 22 -2 2.41 1.39
-4 22 -2 1.97 1.53
4 22 2 4.65 1.48
-4 22 -2 1.96 1.48
4 22 -3 2.7 1.38
-4 22 3 2.7 1.63
4 22 -3 1.8 1.53
4 22 3 -0.44 1.32
-4 22 -3 0.74 1.45
-4 22 -3 2.29 1.59
4 22 -4 9.59 1.54
-4 22 4 11.49 1.94
4 22 -4 15.18 1.93
-4 22 -4 9.92 1.72
4 22 4 12.26 1.78
-4 22 -4 13.72 1.83
-4 22 5 4.29 1.8
4 22 -5 5.45 1.74
4 22 -5 2.2 1.39
4 22 5 -0.93 1.42
-4 22 -5 5.72 1.72
-4 22 -5 0.77 1.52
4 22 -6 0.75 1.48
-4 22 6 4.76 1.73
4 22 -6 0.17 1.39
-4 22 -6 1.3 1.56
4 22 6 -0.75 1.49
-4 22 -6 0.06 1.51
4 22 -7 14.14 1.91
-4 22 7 10.07 2.02
4 22 7 12.3 1.82
-4 22 -7 9.84 2.43
-4 22 -7 13.97 1.94
-4 22 8 3.78 1.81
4 22 -8 3.33 1.5
4 22 8 4.85 1.65
-4 22 -8 4.78 1.67
-4 22 9 3.14 1.72
4 22 -9 2.66 1.53
-4 22 -9 1.29 1.56
4 22 9 2.09 1.56
4 22 -10 2.83 1.82
-4 22 10 0.08 1.65
4 22 10 5.8 1.67
-4 22 -10 1.62 1.55
-5 22 0 58.37 3.01
5 22 0 53.8 2.77
-5 22 0 55.83 3.04
5 22 0 60.43 2.79
5 22 -1 4.42 1.35
-5 22 1 3.52 1.66
5 22 -1 1.55 1.44
5 22 1 6 1.52
-5 22 -1 2.31 1.57
-5 22 -1 5.07 1.75
-5 22 2 3.7 1.68
5 22 -2 5.66 1.48
5 22 -2 3.01 1.36
-5 22 -2 2.31 1.51
-5 22 -2 2.79 1.61
5 22 2 4.08 1.55
5 22 -3 1.51 1.32
5 22 -3 1.89 1.39
-5 22 3 5.11 1.65
-5 22 -3 3.52 1.61
5 22 3 -0.03 1.39
-5 22 -3 3.82 1.66
-5 22 4 4.92 1.68
5 22 -4 4.32 1.54
5 22 -4 4.32 1.38
-5 22 -4 3.48 1.59
5 22 4 3.12 1.39
-5 22 -4 3.72 1.7
5 22 -5 26.65 2.17
-5 22 5 24.08 2.38
5 22 -5 34.28 2.47
-5 22 -5 22.9 2.48
5 22 5 23.63 2.1
-5 22 -5 24.41 2.55
5 22 -6 18.97 2.03
-5 22 6 20.94 2.3
5 22 -6 17.38 1.96
-5 22 -6 18.1 2.22
-5 22 -6 20.18 2.34
5 22 6 17.17 2.05
5 22 -7 4.53 1.59
-5 22 7 5.36 1.8
-5 22 -7 6.31 1.74
5 22 7 2.11 1.43
-5 22 8 16.44 2.04
5 22 -8 23.6 2.4
-5 22 -8 16.13 2.15
5 22 8 17.5 2.02
-5 22 9 -1.9 1.7
5 22 -9 7.98 1.66
-5 22 -9 6.25 1.63
5 22 9 3.32 1.53
6 22 0 24.18 2.19
-6 22 0 20.66 2.23
-6 22 0 22.32 2.37
6 22 -1 5 1.53
-6 22 1 1.6 1.64
6 22 -1 -0.34 1.27
-6 22 -1 2.46 1.5
6 22 1 2.79 1.38
-6 22 -1 2.46 1.64
6 22 -2 0.55 1.38
-6 22 2 -0.17 1.51
6 22 -2 2.75 1.32
-6 22 -2 3.82 1.61
6 22 2 2.98 1.34
-6 22 -2 0.99 1.54
6 22 -3 4.7 1.5
-6 22 3 0.53 1.52
6 22 -3 4.03 1.57
-6 22 -3 6.59 1.81
6 22 3 1.85 1.43
-6 22 -3 4.4 1.59
-6 22 4 2.27 1.71
6 22 -4 4.87 1.38
6 22 -4 0.44 1.46
6 22 4 -0.87 1.38
-6 22 -4 0.11 1.6
-6 22 -4 -1.99 1.38
6 22 -5 14.99 1.85
-6 22 5 21.99 2.34
6 22 -5 17.89 2.23
-6 22 -5 18.78 2.31
6 22 5 22.45 2.22
-6 22 -5 20.81 2.3
6 22 -6 9.49 1.77
-6 22 6 7.02 1.83
-6 22 -6 7.79 1.88
6 22 6 9.24 1.72
6 22 -7 9.09 1.75
-6 22 7 5.68 1.79
6 22 7 6.87 1.73
-6 22 -7 7.76 1.78
-6 22 8 6.18 1.88
6 22 -8 6.85 1.65
-6 22 -8 6.18 1.75
6 22 8 6.81 1.61
6 22 -9 5.87 2.46
-6 22 9 0.15 2.25
-6 22 -9 1.13 1.66
6 22 9 0.12 2.39
-7 22 0 1.91 1.58
7 22 0 4.73 1.47
7 22 -1 12.65 1.61
-7 22 1 10.77 1.96
7 22 -1 12.05 1.58
-7 22 -1 11.9 1.89
-7 22 -1 10.2 1.86
7 22 1 12.08 1.65
7 22 -2 6.97 1.53
7 22 -2 8.38 1.59
-7 22 2 4.79 1.75
-7 22 -2 3.84 1.61
7 22 2 6.77 1.54
-7 22 -2 8.43 1.87
7 22 -3 7.77 1.5
7 22 -3 6.44 1.53
-7 22 3 6.1 1.7
7 22 3 4.16 1.49
-7 22 -3 7.44 1.76
-7 22 -3 4.99 1.85
7 22 -4 16.88 2.06
7 22 -4 14.14 2.86
-7 22 4 12.52 2
-7 22 -4 14.25 2.83
-7 22 -4 14.5 2
7 22 4 11.04 1.77
7 22 -5 2.29 1.4
-7 22 5 5.41 1.74
-7 22 -5 8 1.83
7 22 5 1.03 1.47
7 22 -6 7.58 1.61
-7 22 6 7.47 1.78
-7 22 -6 10.19 1.97
7 22 6 3.78 1.47
7 22 -7 12.63 1.83
-7 22 7 9.01 1.96
-7 22 -7 10.79 1.98
7 22 7 9.37 1.69
-7 22 8 -0.1 1.76
7 22 -8 5.61 2.09
7 22 8 2.97 1.65
-7 22 -8 4.55 1.88
8 22 0 7.06 1.54
-8 22 0 6.22 1.77
-8 22 1 8.1 1.91
8 22 -1 8.2 1.58
-8 22 -1 5.05 1.83
-8 22 -1 9.79 2.32
8 22 1 6.78 1.52
-8 22 2 0.67 1.75
8 22 -2 1.89 1.42
8 22 2 3.6 1.33
-8 22 -2 1.44 1.61
8 22 -3 4.76 1.56
-8 22 3 3.15 1.84
-8 22 -3 6.75 1.71
8 22 3 6.13 1.5
8 22 -4 7.12 1.58
-8 22 4 3.63 1.78
-8 22 -4 4.87 1.73
8 22 4 2.34 1.54
-8 22 5 16.96 2.21
8 22 -5 14.44 1.85
8 22 5 18.58 2.18
-8 22 -5 23.1 2.49
-8 22 6 8.25 1.98
8 22 -6 3.16 1.6
-8 22 -6 7.62 1.81
8 22 6 4.39 1.59
-8 22 7 0.36 1.94
8 22 -7 5.8 2.56
8 22 7 3.54 2.4
-8 22 -7 1.99 1.79
-9 22 0 6.56 1.85
9 22 0 10.08 1.61
-9 22 1 5.88 1.96
9 22 -1 8.04 1.45
-9 22 -1 6.58 1.83
9 22 1 2.56 1.44
-9 22 2 1.64 1.72
9 22 -2 6.31 1.48
-9 22 -2 -0.85 1.68
9 22 2 1.86 1.47
-9 22 3 1.09 1.72
9 22 -3 3.52 1.39
9 22 3 8.3 1.5
-9 22 -3 4.25 1.97
9 22 -4 1.96 1.43
-9 22 4 5.49 1.79
-9 22 -4 1.74 1.72
9 22 4 0.65 1.36
9 22 -5 5.13 1.99
-9 22 5 3.63 1.84
9 22 5 3.39 1.62
-9 22 -5 4.92 1.85
-9 22 -6 2.93 2.37
-10 22 0 10.25 2.04
-10 22 1 3.1 1.96
-10 22 -1 5.42 1.83
-10 22 2 2.85 1.89
-10 22 -2 1.65 1.88
-10 22 3 1.45 1.99
-10 22 -3 0.79 2.19
4 10 -22 -2.21 1.53
-5 10 -22 -1.03 2.35
0 11 -22 26.23 2.81
1 11 -22 -4.33 1.78
-1 11 -22 -3.07 1.98
0 23 0 2.65 1.57
0 23 0 3.03 1.66
0 23 -1 10.51 1.77
0 23 -1 8.17 1.7
0 23 1 8.49 1.78
0 23 1 10.7 1.68
0 23 2 2.47 1.62
0 23 -2 2.92 1.59
0 23 -2 3.79 1.49
0 23 -3 0.82 1.47
0 23 -3 -0.7 1.4
0 23 3 -0.69 1.48
0 23 4 3.7 1.55
0 23 -4 2.61 1.6
0 23 -4 4.87 1.73
0 23 -5 -1.08 1.39
0 23 5 1.93 1.57
0 23 6 3.9 1.67
0 23 -6 2.06 1.59
0 23 -7 6.74 1.67
0 23 7 0.92 1.65
0 23 8 -1.21 1.52
0 23 -8 2.82 1.65
1 23 0 9.8 1.74
-1 23 0 10.92 1.81
-1 23 0 8.62 1.73
1 23 0 10.27 1.86
-1 23 1 4.84 1.75
1 23 -1 4.27 1.65
1 23 -1 9.48 1.68
1 23 1 6.78 1.73
-1 23 -1 9.8 1.71
-1 23 -1 10.79 1.86
1 23 -2 1.1 1.48
-1 23 2 4.01 1.63
1 23 -2 4.16 1.52
-1 23 -2 1.03 1.53
1 23 2 2.59 1.64
-1 23 -2 1.24 1.37
1 23 -3 6.66 1.61
1 23 -3 1.65 1.53
-1 23 3 -0.62 1.42
-1 23 -3 2.37 1.58
-1 23 -3 3.93 1.54
1 23 3 3.24 1.64
1 23 -4 8.55 1.8
1 23 -4 4.28 1.85
-1 23 4 6.23 1.88
-1 23 -4 8.4 1.75
1 23 4 5.62 1.7
-1 23 -4 5.15 1.71
1 23 -5 11.64 1.88
-1 23 5 9.89 1.99
1 23 5 12.7 1.94
-1 23 -5 12 1.81
-1 23 6 11.15 1.99
1 23 -6 8.37 1.75
1 23 6 9.55 1.83
-1 23 -6 9.51 1.8
-1 23 7 -1.05 1.6
1 23 -7 -0.05 1.55
-1 23 -7 0.99 1.58
1 23 7 -0.45 1.5
1 23 -8 6.58 1.72
-1 23 8 2.17 1.72
1 23 8 2.23 1.62
-1 23 -8 5.22 1.59
-2 23 0 3.55 1.6
2 23 0 3.11 1.46
-2 23 0 2.19 1.57
2 23 0 2.62 1.45
2 23 -1 2.81 1.54
-2 23 1 3.46 1.77
2 23 -1 1.57 1.47
2 23 1 3.47 1.49
-2 23 -1 1.85 1.65
-2 23 -1 3.66 1.66
-2 23 2 7.57 1.75
2 23 -2 7.32 1.76
2 23 -2 6.91 1.57
-2 23 -2 8.59 1.78
2 23 2 10.35 1.78
-2 23 -2 6.5 1.68
2 23 -3 5.8 1.59
-2 23 3 5.98 1.57
2 23 -3 1.13 1.44
-2 23 -3 3.81 1.64
2 23 3 6.56 1.66
-2 23 -3 5.29 1.63
-2 23 4 3.11 1.72
2 23 -4 8.44 2.55
2 23 -4 1.06 1.46
-2 23 -4 5.41 1.9
2 23 4 4.5 1.55
-2 23 -4 1.64 1.54
-2 23 5 0 1.6
2 23 -5 2.29 1.53
2 23 5 0 1.45
-2 23 -5 5.71 1.63
-2 23 6 3.59 1.71
2 23 -6 4.81 1.65
2 23 6 -0.1 1.53
-2 23 -6 0.32 1.57
2 23 -7 6.68 1.68
-2 23 7 5.08 1.87
-2 23 -7 4.05 1.68
2 23 7 2.89 1.7
2 23 -8 2.38 1.68
-2 23 8 0.28 1.77
-2 23 -8 6.77 1.78
2 23 8 8.22 1.78
-3 23 0 2.27 1.57
3 23 0 -0.52 1.42
3 23 0 5.41 1.63
-3 23 0 2.57 1.61
3 23 -1 -0.63 1.44
-3 23 1 3.22 1.67
3 23 -1 2.55 1.65
-3 23 -1 1.09 1.61
-3 23 -1 1.04 1.52
3 23 1 6.1 1.64
3 23 -2 5.74 1.61
3 23 -2 6.2 1.69
-3 23 2 2.25 1.68
-3 23 -2 4.9 1.73
-3 23 -2 4.71 1.64
3 23 2 6.46 1.58
-3 23 3 5.84 1.77
3 23 -3 9.69 1.78
3 23 -3 11.65 2.53
-3 23 -3 6.95 2.1
-3 23 -3 7.64 1.74
3 23 3 8.84 1.73
3 23 -4 9.94 1.74
-3 23 4 10.13 1.95
3 23 4 8.38 1.77
-3 23 -4 9.17 1.85
3 23 -5 1.86 1.51
-3 23 5 -2.91 1.57
-3 23 -5 0.68 1.53
3 23 5 -1.19 1.48
-3 23 6 9.24 1.9
3 23 -6 4.87 1.67
-3 23 -6 8.69 1.95
3 23 6 11.54 1.82
-3 23 7 7.84 1.83
3 23 -7 8.34 1.8
-3 23 -7 10.28 1.81
3 23 7 2.83 1.6
-3 23 8 -0.19 1.69
3 23 -8 -1.4 1.76
-3 23 -8 4.71 1.92
3 23 8 -2.34 1.91
4 23 0 6.55 1.77
-4 23 0 3.76 1.81
4 23 0 2 1.44
-4 23 0 1.71 1.7
4 23 -1 5.63 1.53
-4 23 1 5.26 1.66
4 23 -1 4.96 1.65
-4 23 -1 5.25 1.66
4 23 1 9.19 1.79
-4 23 -1 3.41 1.69
-4 23 2 4.02 1.77
4 23 -2 -1.5 1.5
-4 23 -2 7.38 2.76
4 23 2 4.75 1.58
-4 23 -2 3.76 1.63
-4 23 3 11.2 2.05
4 23 -3 10.44 1.78
-4 23 -3 12.95 2
4 23 3 11.88 1.88
4 23 -4 0.11 1.41
-4 23 4 2.79 1.8
-4 23 -4 2.43 1.69
4 23 4 -1.15 1.47
-4 23 5 13.31 2.01
4 23 -5 14.88 1.89
4 23 5 17.23 2.09
-4 23 -5 15.15 2.04
4 23 -6 6.1 1.65
-4 23 6 5.15 1.77
4 23 6 3.45 1.75
-4 23 -6 3.68 1.66
4 23 -7 2.28 1.5
-4 23 7 -1.61 1.62
-4 23 -7 -0.33 1.57
4 23 7 -1.95 1.52
-5 23 0 0.66 1.55
5 23 0 1.66 1.54
5 23 -1 9.43 1.69
-5 23 1 12.75 1.93
5 23 1 13.63 1.8
-5 23 -1 11.51 1.93
5 23 -2 4.62 1.59
-5 23 2 5.89 1.78
5 23 2 2.33 1.59
-5 23 -2 0.98 1.64
5 23 -3 0.86 1.56
-5 23 3 -0.37 1.55
-5 23 -3 0.47 1.59
5 23 3 -1.39 1.42
5 23 -4 11.95 1.86
-5 23 4 16.91 2.15
-5 23 -4 16.54 2.03
5 23 4 15.89 1.89
5 23 -5 4.64 1.65
-5 23 5 6.03 1.82
-5 23 -5 1.7 1.67
5 23 5 10.01 1.8
-5 23 6 3.3 1.79
5 23 -6 3.84 1.63
5 23 6 0 1.52
-5 23 -6 2.85 1.73
-5 23 7 12.43 2.24
-5 23 -7 6.34 1.88
5 23 7 10.82 2.6
-6 23 0 0.68 1.58
6 23 0 2.28 1.41
-6 23 1 10.99 2.03
6 23 -1 14.14 1.87
6 23 1 20.58 2.25
-6 23 -1 11.43 1.97
-6 23 2 0.52 1.66
6 23 -2 1.83 1.46
6 23 2 2.93 1.49
-6 23 -2 -0.85 1.59
-6 23 3 8.36 1.78
6 23 -3 7.68 1.6
-6 23 -3 6.77 1.68
6 23 3 3.54 1.6
-6 23 4 3.02 1.71
6 23 -4 1.22 1.47
-6 23 -4 5.25 1.61
6 23 4 3.06 1.55
-6 23 5 -0.04 1.69
6 23 -5 1.27 1.45
6 23 5 2.75 1.63
-6 23 -5 2.77 1.59
-6 23 6 2.58 1.94
-6 23 -6 2.62 1.84
7 23 0 3.11 1.52
-7 23 0 1.51 1.67
-7 23 1 1.94 1.76
7 23 -1 1.92 1.61
-7 23 -1 1.27 1.71
7 23 1 4 1.62
-7 23 2 4.36 1.84
7 23 2 5.32 1.51
-7 23 -2 3.72 1.76
7 23 -3 11.18 1.8
-7 23 3 10 1.91
-7 23 -3 7.11 1.83
7 23 -4 3.51 1.65
-7 23 4 0.73 1.73
-7 23 -4 0.11 1.67
7 23 4 0.94 1.57
-7 23 -5 7.98 2.3
8 23 0 1.48 1.79
-8 23 0 0.98 1.85
-8 23 1 5.34 1.87
8 23 -1 11.31 1.91
8 23 1 4.99 1.89
-8 23 -1 6.37 1.85
-8 23 2 8.18 1.94
8 23 2 0.11 1.79
-8 23 -2 3.68 1.81
-8 23 3 1.76 2.5
-8 23 -3 4.8 2.69
0 24 0 22.51 2.44
0 24 1 2.72 1.58
0 24 -1 1.29 1.58
0 24 -2 3.56 1.56
0 24 2 6.19 1.76
0 24 3 4.31 1.58
0 24 -3 1.67 1.53
0 24 4 -1.37 1.35
0 24 -4 1.29 1.53
0 24 -5 4.27 1.68
0 24 5 5.25 1.73
1 24 0 3.07 1.57
-1 24 0 1.08 1.68
1 24 -1 2.47 1.65
-1 24 1 3.38 1.65
1 24 1 7.08 1.79
-1 24 -1 2.86 1.63
1 24 -2 2.84 1.63
-1 24 2 3.26 1.63
-1 24 -2 -0.56 1.44
1 24 2 3.76 1.6
1 24 -3 1.61 1.61
-1 24 3 3.42 1.58
1 24 3 1.33 1.69
-1 24 -3 2.19 1.55
1 24 -4 0.55 1.64
-1 24 4 2.06 1.67
1 24 4 3.68 1.61
-1 24 -4 1.86 1.59
1 24 -5 2.4 1.73
-1 24 5 0.62 1.81
-1 24 -5 4 1.58
1 24 5 1.35 1.58
2 24 0 5.11 1.65
-2 24 0 4.16 1.72
2 24 -1 0.1 1.47
-2 24 1 1.66 1.74
2 24 1 1.13 1.47
-2 24 -1 3.14 1.6
-2 24 2 10.14 1.87
2 24 -2 9.87 1.75
-2 24 -2 4.43 1.65
2 24 2 6.25 1.77
2 24 -3 12.8 1.91
-2 24 3 16.07 2.07
-2 24 -3 15.13 2.01
2 24 3 12.71 2.2
2 24 -4 2.32 1.52
-2 24 4 2.75 1.68
2 24 4 -0.7 1.52
-2 24 -4 0.99 1.59
2 24 -5 1.04 2.05
-2 24 5 3 2.2
2 24 5 0.82 2.42
-2 24 -5 3.37 1.77
-3 24 0 2.04 1.74
3 24 0 2.29 1.72
-3 24 1 0.94 1.63
3 24 -1 1.1 1.59
3 24 1 2.09 1.55
-3 24 -1 1.38 1.61
3 24 -2 14.43 1.97
-3 24 2 13.58 2.09
3 24 2 13.28 2.01
-3 24 -2 16.3 2
-3 24 3 21.42 2.51
3 24 -3 17.52 2.07
-3 24 -3 20.07 2.26
3 24 3 20.55 2.16
3 24 -4 2.35 1.68
-3 24 4 2.07 1.6
3 24 4 -0.09 1.61
-3 24 -4 3.04 1.67
-3 24 -5 6.5 2.5
-4 24 0 1.97 1.62
4 24 0 3.96 1.65
-4 24 1 8.25 1.94
4 24 -1 1.98 1.5
4 24 1 4.95 1.6
-4 24 -1 -0.46 1.56
-4 24 2 -0.78 1.58
4 24 -2 -0.16 1.42
4 24 2 0.07 1.63
-4 24 -2 -3.48 1.63
-4 24 3 3.9 1.85
4 24 -3 5.66 1.7
-4 24 -3 1.54 1.88
4 24 3 3.77 1.57
5 24 0 6.27 1.92
-5 24 0 4.61 1.82
5 24 -1 4.26 2.46
-5 24 1 -1.24 1.64
-5 24 -1 2.42 1.87
-5 24 2 0.65 2.48
-5 24 -2 3.09 1.91
