#------------------------------------------------------------------------------
#$Date: 2021-01-04 05:07:40 +0200 (Mon, 04 Jan 2021) $
#$Revision: 260418 $
#$URL: file:///home/coder/svn-repositories/cod/cif/4/00/38/4003837.cif $
#------------------------------------------------------------------------------
#
# This file is available in the Crystallography Open Database (COD),
# http://www.crystallography.net/
#
# All data on this site have been placed in the public domain by the
# contributors.
#
data_4003837
loop_
_publ_author_name
'Schkeryantz, Luke A.'
'Zheng, Jingfeng'
'McCulloch, William D.'
'Qin, Lei'
'Zhang, Songwei'
'Moore, Curtis E.'
'Wu, Yiying'
_publ_section_title
;
 Designing Potassium Battery Salts through a Solvent-in-Anion Concept for
 Concentrated Electrolytes and Mimicking Solvation Structures
;
_journal_issue                   24
_journal_name_full               'Chemistry of Materials'
_journal_page_first              10423
_journal_page_last               10434
_journal_paper_doi               10.1021/acs.chemmater.0c02983
_journal_volume                  32
_journal_year                    2020
_chemical_formula_moiety         'C7 H13 F3 K N O4 S'
_chemical_formula_sum            'C7 H13 F3 K N O4 S'
_chemical_formula_weight         303.34
_space_group_crystal_system      triclinic
_space_group_IT_number           2
_space_group_name_Hall           '-P 1'
_space_group_name_H-M_alt        'P -1'
_atom_sites_solution_hydrogens   geom
_atom_sites_solution_primary     dual
_audit_creation_date             2019-11-21
_audit_creation_method
;
Olex2 1.2
(compiled 2018.05.29 svn.r3508 for OlexSys, GUI svn.r5506)
;
_cell_angle_alpha                87.753(4)
_cell_angle_beta                 73.755(3)
_cell_angle_gamma                81.989(3)
_cell_formula_units_Z            2
_cell_length_a                   6.4411(6)
_cell_length_b                   8.8961(10)
_cell_length_c                   11.4897(12)
_cell_measurement_reflns_used    8333
_cell_measurement_temperature    100(2)
_cell_measurement_theta_max      25.74
_cell_measurement_theta_min      2.31
_cell_volume                     625.91(11)
_computing_cell_refinement       'SAINT V8.38A (Bruker, 2017)'
_computing_data_reduction        'SAINT V8.38A (Bruker, 2017)'
_computing_molecular_graphics    'Olex2 (Dolomanov et al., 2009)'
_computing_publication_material  'Olex2 (Dolomanov et al., 2009)'
_computing_structure_refinement  'ShelXL (Sheldrick, 2015)'
_computing_structure_solution    'ShelXD (Sheldrick, 2008)'
_diffrn_ambient_temperature      100
_diffrn_measured_fraction_theta_full 1.000
_diffrn_measured_fraction_theta_max 0.999
_diffrn_measurement_device_type  'Bruker APEX-II CCD'
_diffrn_measurement_method       '\f and \w scans'
_diffrn_radiation_type           MoK\a
_diffrn_radiation_wavelength     0.71073
_diffrn_reflns_av_R_equivalents  0.0352
_diffrn_reflns_av_unetI/netI     0.0249
_diffrn_reflns_Laue_measured_fraction_full 1.000
_diffrn_reflns_Laue_measured_fraction_max 0.999
_diffrn_reflns_limit_h_max       8
_diffrn_reflns_limit_h_min       -8
_diffrn_reflns_limit_k_max       11
_diffrn_reflns_limit_k_min       -11
_diffrn_reflns_limit_l_max       14
_diffrn_reflns_limit_l_min       -14
_diffrn_reflns_number            17555
_diffrn_reflns_point_group_measured_fraction_full 1.000
_diffrn_reflns_point_group_measured_fraction_max 0.999
_diffrn_reflns_theta_full        25.242
_diffrn_reflns_theta_max         26.385
_diffrn_reflns_theta_min         1.846
_diffrn_standards_number         0
_exptl_absorpt_coefficient_mu    0.631
_exptl_absorpt_correction_T_max  0.2602
_exptl_absorpt_correction_T_min  0.2174
_exptl_absorpt_correction_type   multi-scan
_exptl_absorpt_process_details
'SADABS-2016/2 (Bruker,2016/2) was used for absorption correction. wR2(int) was 0.0658 before and 0.0456 after correction. The Ratio of minimum to maximum transmission is 0.8355. The \l/2 correction factor is Not present.'
_exptl_crystal_colour            colourless
_exptl_crystal_colour_primary    colourless
_exptl_crystal_density_diffrn    1.610
_exptl_crystal_description       plate
_exptl_crystal_F_000             312
_exptl_crystal_size_max          0.322
_exptl_crystal_size_mid          0.215
_exptl_crystal_size_min          0.086
_refine_diff_density_max         0.301
_refine_diff_density_min         -0.265
_refine_diff_density_rms         0.047
_refine_ls_extinction_method     none
_refine_ls_goodness_of_fit_ref   1.074
_refine_ls_hydrogen_treatment    constr
_refine_ls_matrix_type           full
_refine_ls_number_parameters     156
_refine_ls_number_reflns         2561
_refine_ls_number_restraints     0
_refine_ls_restrained_S_all      1.074
_refine_ls_R_factor_all          0.0281
_refine_ls_R_factor_gt           0.0258
_refine_ls_shift/su_max          0.001
_refine_ls_shift/su_mean         0.000
_refine_ls_structure_factor_coef Fsqd
_refine_ls_weighting_details
'w=1/[\s^2^(Fo^2^)+(0.0386P)^2^] where P=(Fo^2^+2Fc^2^)/3'
_refine_ls_weighting_scheme      calc
_refine_ls_wR_factor_gt          0.0608
_refine_ls_wR_factor_ref         0.0614
_reflns_Friedel_coverage         0.000
_reflns_number_gt                2400
_reflns_number_total             2561
_reflns_threshold_expression     'I > 2\s(I)'
_cod_data_source_file            cm0c02983_si_005.cif
_cod_data_source_block           wu_ls_kpmea
_cod_depositor_comments
'Adding full bibliography for 4003834--4003838.cif.'
_cod_database_code               4003837
_shelx_shelxl_version_number     2018/3
_shelx_space_group_comment
;
The symmetry employed for this shelxl refinement is uniquely defined
by the following loop, which should always be used as a source of
symmetry information in preference to the above space-group names.
They are only intended as comments.
;
_shelx_estimated_absorpt_t_max   0.948
_shelx_estimated_absorpt_t_min   0.823
_olex2_refinement_description
;
1. Twinned data refinement
 Scales: 0.5950(9)
 0.4050(9)
2. Fixed Uiso
 At 1.2 times of:
  All C(H,H) groups
 At 1.5 times of:
  All C(H,H,H) groups
3.a Secondary CH2 refined with riding coordinates:
 C1(H1A,H1B), C2(H2A,H2B), C3(H3A,H3B), C4(H4A,H4B), C5(H5A,H5B)
3.b Idealised Me refined as rotating group:
 C6(H6A,H6B,H6C)
;
_shelx_res_file
;
TITL Wu_LS_KPMEA in P-1 #2
    wu_ls_kpmea.res
    created by SHELXL-2018/3 at 16:46:12 on 21-Nov-2019
REM Best SHELXD solution FINAL CC 64.15
REM Fragments: 16
REM reset to P-1 #2
CELL 0.71073 6.4411 8.8961 11.4897 87.753 73.755 81.989
ZERR 2 0.0006 0.001 0.0012 0.004 0.003 0.003
LATT 1
SFAC C H F K N O S
UNIT 14 26 6 2 2 8 2

L.S. 4
PLAN  20
SIZE 0.086 0.215 0.322
TEMP -173.15
FREE K1 C4
FREE K1 H2b
fmap 2
acta
TWIN -1 0 0 0 -1 0 -1 0 1 2
REM <olex2.extras>
REM <HklSrc "%.\\Wu_LS_KPMEA.hkl">
REM </olex2.extras>

WGHT    0.038600
BASF   0.40500
FVAR       1.14262
K1    4   -0.260218    0.625561    0.628428    11.00000    0.01704    0.02363 =
         0.02148   -0.00259   -0.00368   -0.00322
S1    7    0.710297    0.624193    0.338110    11.00000    0.01711    0.02070 =
         0.01949    0.00063   -0.00334   -0.00453
F1    3    0.995221    0.586943    0.121703    11.00000    0.04416    0.04984 =
         0.02988   -0.01359    0.01166   -0.01471
F2    3    0.802448    0.807252    0.150304    11.00000    0.03798    0.05028 =
         0.03289    0.02129   -0.01223   -0.01319
F3    3    1.062932    0.751238    0.233809    11.00000    0.02539    0.05072 =
         0.03177    0.00420   -0.00636   -0.01983
O1    6   -0.043212    0.844813    0.681588    11.00000    0.01982    0.02452 =
         0.02082   -0.00171   -0.00373   -0.00466
O2    6   -0.383501    0.728814    0.858466    11.00000    0.02650    0.03774 =
         0.02371   -0.00611    0.00240   -0.00946
O3    6    0.859918    0.525411    0.391281    11.00000    0.02209    0.02106 =
         0.02361    0.00046   -0.00504    0.00332
O4    6    0.577968    0.549203    0.280997    11.00000    0.02308    0.02845 =
         0.02772   -0.00118   -0.00672   -0.01009
N1    5    0.599611    0.756581    0.421313    11.00000    0.01830    0.01961 =
         0.02215    0.00081   -0.00504    0.00006
C1    1    0.409138    0.851046    0.394282    11.00000    0.02040    0.02120 =
         0.02648    0.00330   -0.00695   -0.00074
AFIX  23
H1A   2    0.409123    0.831057    0.310126    11.00000   -1.20000
H1B   2    0.423406    0.959676    0.400115    11.00000   -1.20000
AFIX   0
C2    1    0.193831    0.818616    0.480592    11.00000    0.02005    0.01827 =
         0.02677    0.00013   -0.00693   -0.00215
AFIX  23
H2A   2    0.072420    0.880956    0.456854    11.00000   -1.20000
H2B   2    0.178204    0.710514    0.473272    11.00000   -1.20000
AFIX   0
C3    1    0.176881    0.852137    0.610877    11.00000    0.01336    0.02348 =
         0.02734   -0.00031   -0.00575   -0.00271
AFIX  23
H3A   2    0.278220    0.776878    0.640964    11.00000   -1.20000
H3B   2    0.216529    0.954449    0.617398    11.00000   -1.20000
AFIX   0
C4    1   -0.063464    0.850008    0.807636    11.00000    0.02856    0.03016 =
         0.02223   -0.00179   -0.00858   -0.00852
AFIX  23
H4A   2    0.000203    0.938382    0.825761    11.00000   -1.20000
H4B   2    0.016806    0.756767    0.832347    11.00000   -1.20000
AFIX   0
C5    1   -0.300470    0.862795    0.876850    11.00000    0.03350    0.02891 =
         0.01884   -0.00300   -0.00594   -0.00018
AFIX  23
H5A   2   -0.317295    0.876093    0.964299    11.00000   -1.20000
H5B   2   -0.382682    0.952218    0.848306    11.00000   -1.20000
AFIX   0
C6    1   -0.580626    0.709043    0.948265    11.00000    0.02625    0.05937 =
         0.02545   -0.00241    0.00215   -0.01079
AFIX 137
H6A   2   -0.686080    0.800927    0.953060    11.00000   -1.50000
H6B   2   -0.550738    0.690251    1.027018    11.00000   -1.50000
H6C   2   -0.640893    0.622327    0.926593    11.00000   -1.50000
AFIX   0
C7    1    0.902461    0.694955    0.204017    11.00000    0.02447    0.03131 =
         0.02037   -0.00019   -0.00408   -0.00804
HKLF 4




REM  Wu_LS_KPMEA in P-1 #2
REM wR2 = 0.0614, GooF = S = 1.074, Restrained GooF = 1.074 for all data
REM R1 = 0.0258 for 2400 Fo > 4sig(Fo) and 0.0281 for all 2561 data
REM 156 parameters refined using 0 restraints

END

WGHT      0.0386      0.0000

REM Highest difference peak  0.301,  deepest hole -0.265,  1-sigma level  0.047
Q1    1  -0.2414  0.6241  0.9147  11.00000  0.05    0.30
Q2    1   0.9910  0.5999  0.4145  11.00000  0.05    0.24
Q3    1   0.1607  0.8635  0.3062  11.00000  0.05    0.22
Q4    1   0.8415  0.5206  0.1019  11.00000  0.05    0.18
Q5    1  -0.3079  0.6158  1.0449  11.00000  0.05    0.18
Q6    1  -0.3982  0.7096  0.5766  11.00000  0.05    0.17
Q7    1  -0.5428  0.8302  1.0956  11.00000  0.05    0.16
Q8    1   0.6060  0.7915  0.4138  11.00000  0.05    0.16
Q9    1  -0.1001  0.6837  0.9190  11.00000  0.05    0.16
Q10   1   0.4400  0.8816  0.3249  11.00000  0.05    0.15
Q11   1   0.9897  0.8568  0.0972  11.00000  0.05    0.15
Q12   1   0.6003  0.5187  0.2571  11.00000  0.05    0.15
Q13   1  -0.0410  0.8651  0.7140  11.00000  0.05    0.15
Q14   1   0.0853  0.7062  0.8936  11.00000  0.05    0.15
Q15   1  -0.0885  0.6979  0.5608  11.00000  0.05    0.15
Q16   1  -0.4119  0.5415  0.5807  11.00000  0.05    0.15
Q17   1  -0.3361  0.7650  0.7044  11.00000  0.05    0.15
Q18   1  -0.0270  0.8465  0.9790  11.00000  0.05    0.15
Q19   1   0.0263  0.7606  0.9386  11.00000  0.05    0.15
Q20   1   0.3827  0.5599  0.4818  11.00000  0.05    0.15
;
_shelx_res_checksum              21169
_shelx_hkl_file
;
  -1   0   0  402.60   14.13
  -1   0   0  416.48   14.19
  -1   0   0  424.21   13.83
  -1   0   0  425.48   14.08
  -1   0   0  444.03   14.06
  -1   0   0  416.78   13.98
  -1   0   0  414.09   13.27
  -1   0   0  411.28   13.26
   1   0   0  415.47   13.86
   1   0   0  402.65   14.16
   1   0   0  428.03   14.00
   1   0   0  429.84   14.27
   1   0   0  401.42   12.95
   1   0   0  411.42   12.96
   1   0   0  422.81   14.08
  -2   0   0  263.18   11.50
  -2   0   0  237.03   10.51
  -2   0   0  253.43   10.92
  -2   0   0  261.30    9.64
  -2   0   0  244.87   10.44
  -2   0   0  258.21    9.53
  -2   0   0  253.77   10.75
   2   0   0  254.03   11.14
   2   0   0  250.18   10.60
   2   0   0  255.91   10.82
   2   0   0  243.59   10.71
   2   0   0  246.74   10.78
   2   0   0  270.46   11.42
  -3   0   0 1055.24   40.14
  -3   0   0 1055.65   35.46
  -3   0   0 1146.74   36.76
  -3   0   0 1105.29   37.37
  -3   0   0 1154.59   37.45
  -3   0   0 1150.28   35.75
  -3   0   0 1060.08   36.94
  -3   0   0 1034.40   37.69
  -3   0   0 1061.54   37.00
   3   0   0 1122.75   37.69
   3   0   0 1080.57   37.03
   3   0   0 1114.55   38.07
   3   0   0 1148.25   38.43
   3   0   0 1069.11   36.82
   3   0   0 1115.65   37.22
  -4   0   0  167.10   11.02
  -4   0   0  184.17   11.14
  -4   0   0  171.76   11.61
  -4   0   0  159.18    9.47
  -4   0   0  182.40    9.40
  -4   0   0  168.04   10.00
   4   0   0  143.99   12.48
   4   0   0  162.14   12.55
   4   0   0  159.12   12.73
   4   0   0  166.92   11.96
  -5   0   0   28.48    5.49
  -5   0   0   26.23    6.79
  -5   0   0   34.46    7.67
  -5   0   0   21.15    7.39
  -5   0   0   31.32    7.00
   5   0   0   26.41    9.10
   5   0   0   22.45    8.76
   5   0   0    5.43    7.26
  -6   0   0  304.59   17.66
  -6   0   0  311.03   17.61
  -6   0   0  282.97   24.41
  -6   0   0  296.86   18.72
   6   0   0  261.06   20.94
   6   0   0  283.58   21.39
  -7   0   0  263.42   21.58
  -7   0   0  233.87   18.96
  -7   0   0  230.66   26.45
   7   0   0  279.42   25.42
   7   0   0  252.40   23.38
   7  -1   0  453.48   30.26
   7  -1   0  451.82   31.07
  -7   1   0  417.97   23.84
  -7   1   0  460.79   35.79
   6  -1   0    2.00   11.04
   6  -1   0    5.66   10.23
  -6   1   0   -2.97    8.26
  -6   1   0    2.33   12.21
  -6   1   0    4.55    8.82
  -6   1   0    1.60    7.18
   5  -1   0  427.15   22.92
   5  -1   0  390.78   22.08
  -5   1   0  392.33   18.40
  -5   1   0  360.77   16.59
  -5   1   0  423.90   18.87
  -5   1   0  385.92   20.74
  -5   1   0  442.12   26.38
  -5   1   0  408.44   20.40
   4  -1   0   33.55    7.52
   4  -1   0   36.10    7.95
   4  -1   0   26.58    7.13
  -4   1   0   21.63    4.71
  -4   1   0   22.00    6.11
  -4   1   0   30.20    5.38
  -4   1   0   31.07    5.42
  -4   1   0   34.05    6.93
  -4   1   0   30.10    6.27
  -4   1   0   28.72    7.97
   3  -1   0  978.39   35.45
   3  -1   0 1010.31   35.01
   3  -1   0  998.52   33.61
   3  -1   0  967.45   34.69
   3  -1   0 1011.49   35.15
  -3   1   0  990.77   32.89
  -3   1   0 1020.96   33.15
  -3   1   0 1018.35   35.16
  -3   1   0 1046.69   37.73
  -3   1   0  977.18   34.76
  -3   1   0  958.33   33.79
  -3   1   0  995.24   33.34
   2  -1   0    4.44    3.33
   2  -1   0    4.03    3.49
   2  -1   0    0.34    2.87
   2  -1   0    4.61    2.66
   2  -1   0    8.09    2.28
   2  -1   0    4.35    2.04
   2  -1   0    9.09    3.73
  -2   1   0    5.58    2.37
  -2   1   0    7.09    2.77
  -2   1   0    6.75    3.98
  -2   1   0    5.56    2.71
  -2   1   0    7.39    3.42
  -2   1   0    5.00    2.33
  -2   1   0    3.31    3.00
  -2   1   0    5.97    3.48
   1  -1   0 3785.68  116.36
   1  -1   0 3821.12  114.90
   1  -1   0 3792.36  116.00
   1  -1   0 3988.36  114.87
   1  -1   0 3777.51  114.18
   1  -1   0 3926.04  116.17
   1  -1   0 3764.40  115.32
  -1   1   0 3687.69  115.20
  -1   1   0 3828.38  114.97
  -1   1   0 3829.16  114.10
  -1   1   0 3509.12  116.01
  -1   1   0 3882.46  114.93
  -1   1   0 3709.84  114.46
  -1   1   0 3944.89  116.25
  -1   1   0 3896.60  115.19
  -1   1   0 4024.95  116.33
   0  -1   0 2532.12   77.56
   0  -1   0 2583.00   76.73
   0  -1   0 2552.98   78.62
   0  -1   0 2541.72   78.63
   0  -1   0 2559.96   77.78
   0  -1   0 2521.17   78.62
   0  -1   0 2821.38   78.15
   0  -1   0 2565.00   77.72
   0   1   0 2539.95   77.70
   0   1   0 2475.20   76.69
   0   1   0 2597.73   77.79
   0   1   0 2585.22   78.57
   0   1   0 2493.71   77.53
   0   1   0 2546.78   78.74
   0   1   0 2591.71   78.59
   0   1   0 2764.19   78.10
  -1  -1   0 2145.94   66.76
  -1  -1   0 2220.94   65.92
  -1  -1   0 2175.72   65.80
  -1  -1   0 2176.75   66.01
  -1  -1   0 2151.27   65.35
  -1  -1   0 2134.43   66.83
  -1  -1   0 2159.06   65.75
   1   1   0 2110.46   65.52
   1   1   0 2179.12   65.60
   1   1   0 2249.51   65.91
   1   1   0 2234.43   66.16
   1   1   0 2121.92   65.94
   1   1   0 2112.97   65.35
   1   1   0 2152.20   66.75
   1   1   0 2157.46   66.89
   1   1   0 2167.98   65.72
  -2  -1   0 1072.47   34.51
  -2  -1   0 1122.04   35.18
  -2  -1   0 1100.28   36.02
  -2  -1   0 1134.95   36.37
  -2  -1   0 1152.85   36.83
  -2  -1   0 1133.81   35.33
  -2  -1   0 1113.54   35.68
  -2  -1   0 1133.87   36.63
  -2  -1   0 1135.20   36.53
   2   1   0 1128.10   36.68
   2   1   0 1077.96   34.62
   2   1   0 1058.06   36.09
   2   1   0 1091.57   36.09
   2   1   0 1098.32   34.31
   2   1   0 1128.38   36.63
   2   1   0 1089.07   35.63
   2   1   0 1101.76   34.36
   2   1   0 1117.65   36.67
  -3  -1   0  187.07    8.93
  -3  -1   0  197.40   10.66
  -3  -1   0  188.90    8.10
  -3  -1   0  186.77   10.06
  -3  -1   0  167.33   10.48
  -3  -1   0  179.59   10.64
  -3  -1   0  185.05   10.17
  -3  -1   0  186.51   10.96
  -3  -1   0  188.67    9.16
   3   1   0  199.20   11.01
   3   1   0  189.72   11.04
   3   1   0  199.87   10.56
   3   1   0  183.04   10.80
   3   1   0  176.21   10.57
   3   1   0  175.00   10.63
  -4  -1   0 1387.50   45.38
  -4  -1   0 1287.75   45.67
  -4  -1   0 1261.16   43.85
  -4  -1   0 1370.52   44.12
  -4  -1   0 1320.11   42.37
  -4  -1   0 1362.05   45.88
   4   1   0 1387.56   47.12
   4   1   0 1311.05   45.90
   4   1   0 1336.52   45.58
   4   1   0 1320.41   46.81
  -5  -1   0   18.20    6.85
  -5  -1   0   17.94    7.19
  -5  -1   0   20.80    6.28
  -5  -1   0   11.75    6.12
  -5  -1   0   15.11    4.51
   5   1   0    6.34    7.53
   5   1   0   18.73    7.93
   5   1   0    6.61    7.85
   5   1   0   20.76    8.38
  -6  -1   0  259.05   17.54
  -6  -1   0  265.33   17.70
  -6  -1   0  248.45   15.80
   6   1   0  243.31   19.42
   6   1   0  227.98   19.19
  -7  -1   0   45.03   10.69
  -7  -1   0   49.61   11.31
   7   1   0   44.63   14.66
   7   1   0   37.48   14.30
   7  -2   0  270.84   25.20
   7  -2   0  208.44   23.86
  -7   2   0  223.16   20.75
  -7   2   0  321.25   31.09
   6  -2   0  638.50   32.86
   6  -2   0  628.71   32.11
  -6   2   0  623.79   25.97
  -6   2   0  603.16   35.50
  -6   2   0  636.45   30.48
   5  -2   0  221.42   17.84
   5  -2   0  242.35   19.25
  -5   2   0  212.99   13.16
  -5   2   0  287.73   22.04
  -5   2   0  220.37   16.92
  -5   2   0  225.60   14.94
   4  -2   0   84.90   10.65
   4  -2   0   62.58    8.99
   4  -2   0   88.40    9.95
   4  -2   0   82.65   10.32
  -4   2   0   78.98    8.07
  -4   2   0   80.33    6.93
  -4   2   0   76.22   10.35
  -4   2   0   83.80    8.38
  -4   2   0   82.63    9.95
  -4   2   0   65.00   10.21
  -4   2   0   88.51   10.14
   3  -2   0  337.63   14.16
   3  -2   0  322.56   16.37
   3  -2   0  356.32   12.92
   3  -2   0  331.25   17.28
   3  -2   0  310.21   16.82
   3  -2   0  329.66   16.68
   3  -2   0  350.03   12.99
  -3   2   0  355.09   14.89
  -3   2   0  344.22   14.73
  -3   2   0  345.47   13.33
  -3   2   0  354.68   17.04
  -3   2   0  355.97   17.28
  -3   2   0  345.25   17.90
  -3   2   0  348.44   14.54
  -3   2   0  357.47   15.47
   2  -2   0  888.09   29.24
   2  -2   0  892.38   28.11
   2  -2   0  901.06   32.11
   2  -2   0  921.58   30.57
   2  -2   0  839.50   28.65
   2  -2   0  832.21   31.24
  -2   2   0  864.42   31.69
  -2   2   0  886.70   31.90
  -2   2   0  880.74   31.78
  -2   2   0  838.63   29.29
  -2   2   0  848.41   28.38
  -2   2   0  874.56   29.55
  -2   2   0  895.83   30.13
  -2   2   0  904.43   27.75
   1  -2   0 8429.07  239.10
   1  -2   0 8206.40  240.44
   1  -2   0 7796.64  240.58
   1  -2   0 7866.03  242.68
   1  -2   0 8242.83  238.96
   1  -2   0 8229.94  241.16
   1  -2   0 7511.04  241.79
   1  -2   0 8374.10  243.08
   1  -2   0 7996.11  240.78
  -1   2   0 8244.90  240.79
  -1   2   0 8036.08  238.91
  -1   2   0 8084.96  241.82
  -1   2   0 7317.58  240.99
  -1   2   0 8325.85  241.07
  -1   2   0 8040.26  242.76
  -1   2   0 7748.70  240.03
  -1   2   0 7869.99  240.19
  -1   2   0 8275.63  243.12
   0  -2   0 4382.69  137.83
   0  -2   0 4690.77  135.87
   0  -2   0 4417.98  139.68
   0  -2   0 4519.19  137.55
   0  -2   0 4762.21  138.44
   0  -2   0 4786.92  140.06
   0  -2   0 4598.04  139.61
   0  -2   0 4531.89  137.97
   0   2   0 4481.91  137.55
   0   2   0 4681.19  138.07
   0   2   0 4548.85  138.16
   0   2   0 4345.34  139.38
   0   2   0 4381.76  139.44
   0   2   0 4643.26  139.92
   0   2   0 4687.11  137.96
  -1  -2   0 6750.46  198.18
  -1  -2   0 6705.82  199.75
  -1  -2   0 6526.32  199.70
  -1  -2   0 6654.10  197.23
  -1  -2   0 6320.09  197.68
  -1  -2   0 6733.45  197.38
  -1  -2   0 6457.44  198.11
  -1  -2   0 6523.98  196.55
   1   2   0 6403.14  199.34
   1   2   0 6584.91  197.80
   1   2   0 6707.73  199.90
   1   2   0 6256.47  197.04
   1   2   0 6559.30  198.42
   1   2   0 6675.18  196.75
   1   2   0 6873.64  198.13
   1   2   0 6597.21  196.59
  -2  -2   0  247.35    9.97
  -2  -2   0  237.48   12.06
  -2  -2   0  232.06   10.47
  -2  -2   0  240.72   11.00
  -2  -2   0  229.97   10.31
  -2  -2   0  252.15   12.60
  -2  -2   0  236.53    9.55
  -2  -2   0  247.28   10.83
   2   2   0  238.50   12.61
   2   2   0  244.37   10.65
   2   2   0  233.29   12.34
   2   2   0  243.60   10.15
   2   2   0  238.04   10.11
   2   2   0  245.77   11.20
   2   2   0  237.11   11.16
   2   2   0  243.49   10.06
   2   2   0  208.75    9.40
  -3  -2   0 3306.84   98.39
  -3  -2   0 3142.17   99.51
  -3  -2   0 3152.20   96.53
  -3  -2   0 3287.77   99.19
  -3  -2   0 3105.94   97.81
  -3  -2   0 3156.54   97.98
  -3  -2   0 3371.18  100.55
  -3  -2   0 3187.49  100.23
  -3  -2   0 3098.04   98.87
   3   2   0 3281.02   96.41
   3   2   0 3113.09   98.68
   3   2   0 3166.99   99.64
   3   2   0 3088.49   99.85
   3   2   0 3051.22   96.27
   3   2   0 3036.09   96.80
   3   2   0 3231.23  100.29
  -4  -2   0  400.19   18.08
  -4  -2   0  439.86   16.07
  -4  -2   0  427.37   17.92
  -4  -2   0  426.69   18.69
  -4  -2   0  439.82   20.86
  -4  -2   0  435.49   20.13
  -4  -2   0  463.95   19.72
   4   2   0  444.83   20.00
   4   2   0  429.83   20.68
   4   2   0  442.56   20.49
  -5  -2   0    8.78    6.78
  -5  -2   0    6.22    7.22
  -5  -2   0    7.15    4.21
  -5  -2   0    5.15    5.89
  -5  -2   0   10.89    6.68
   5   2   0    5.38    6.90
   5   2   0    8.58    8.35
   5   2   0    5.83    8.10
  -6  -2   0  748.77   31.12
  -6  -2   0  683.23   30.59
  -6  -2   0  671.25   29.39
   6   2   0  674.17   32.88
   6   2   0  756.90   33.35
  -7  -2   0    2.09   10.11
  -7  -2   0    4.29    9.67
   7   2   0    7.37   11.73
   7  -3   0   34.17   18.48
   7  -3   0   47.51   18.50
  -7   3   0   22.82   17.52
   6  -3   0  508.27   30.49
   6  -3   0  550.52   31.01
  -6   3   0  547.53   34.10
  -6   3   0  538.75   29.70
  -6   3   0  507.19   22.94
   5  -3   0    1.54    9.83
   5  -3   0    1.39    9.24
  -5   3   0    7.24   10.65
  -5   3   0    0.82    5.16
  -5   3   0    4.50    8.52
  -5   3   0   -1.57    7.32
   4  -3   0 1381.52   48.39
   4  -3   0 1157.85   40.71
   4  -3   0 1296.34   48.78
   4  -3   0 1245.16   43.58
   4  -3   0 1387.01   48.54
  -4   3   0 1318.98   49.04
  -4   3   0 1376.26   50.26
  -4   3   0 1342.83   49.21
  -4   3   0 1328.77   42.48
  -4   3   0 1332.09   45.48
   3  -3   0   10.28    5.63
   3  -3   0   26.51    8.08
   3  -3   0   24.70    4.50
   3  -3   0   39.14    7.34
   3  -3   0   20.67    4.90
   3  -3   0   25.23    5.02
  -3   3   0   26.76    5.49
  -3   3   0   20.11    6.49
  -3   3   0   30.51    4.66
  -3   3   0   15.72    6.61
  -3   3   0   24.57    3.49
  -3   3   0   24.62    6.91
  -3   3   0   34.74    6.29
  -3   3   0   28.97    7.00
   2  -3   0  563.24   21.21
   2  -3   0  524.57   17.74
   2  -3   0  554.94   24.05
   2  -3   0  537.19   20.18
   2  -3   0  495.21   23.22
   2  -3   0  513.79   20.75
  -2   3   0  573.71   24.07
  -2   3   0  562.17   22.68
  -2   3   0  550.68   18.36
  -2   3   0  539.57   23.94
  -2   3   0  545.57   21.43
  -2   3   0  532.45   20.82
  -2   3   0  559.21   17.56
  -2   3   0  502.25   20.30
   1  -3   0   83.22    8.90
   1  -3   0   69.64    3.76
   1  -3   0   68.67    6.37
   1  -3   0   65.97    5.71
   1  -3   0   80.13    3.63
   1  -3   0   76.56    8.46
   1  -3   0   79.14    6.43
   1  -3   0   73.11    7.51
   1  -3   0   84.63    9.16
   1  -3   0   67.05    7.13
  -1   3   0   74.50    8.75
  -1   3   0   79.09    6.93
  -1   3   0   83.10    6.99
  -1   3   0   93.21    9.51
  -1   3   0   67.85    6.10
  -1   3   0   67.75    6.24
   0  -3   0  739.41   28.85
   0  -3   0  710.86   26.14
   0  -3   0  756.55   23.11
   0  -3   0  727.97   28.83
   0  -3   0  758.98   25.77
   0  -3   0  798.29   27.13
   0  -3   0  761.56   26.12
   0   3   0  729.85   28.85
   0   3   0  767.97   26.28
   0   3   0  762.69   26.44
   0   3   0  695.74   28.49
   0   3   0  743.98   29.00
   0   3   0  734.62   25.65
   0   3   0  734.23   26.40
  -1  -3   0 3017.11   91.01
  -1  -3   0 3021.79   89.64
  -1  -3   0 2997.35   91.42
  -1  -3   0 2813.35   93.27
  -1  -3   0 2957.75   93.72
  -1  -3   0 2835.50   90.79
  -1  -3   0 2932.17   90.07
   1   3   0 2841.26   90.97
   1   3   0 2813.67   89.84
   1   3   0 2852.65   93.20
   1   3   0 2978.94   88.62
   1   3   0 2848.59   93.25
   1   3   0 3069.48   94.05
   1   3   0 2993.86   90.87
   1   3   0 2878.97   90.97
  -2  -3   0 1399.19   45.76
  -2  -3   0 1423.49   44.89
  -2  -3   0 1380.45   46.08
  -2  -3   0 1381.58   44.69
  -2  -3   0 1343.96   46.78
  -2  -3   0 1397.41   48.75
  -2  -3   0 1446.38   46.65
  -2  -3   0 1436.37   48.95
   2   3   0 1428.07   45.76
   2   3   0 1361.17   45.61
   2   3   0 1379.13   44.86
   2   3   0 1421.26   49.09
   2   3   0 1377.88   48.60
   2   3   0 1400.20   44.97
   2   3   0 1403.80   44.04
  -3  -3   0 1461.46   48.42
  -3  -3   0 1470.28   46.18
  -3  -3   0 1527.52   50.83
  -3  -3   0 1480.90   50.98
  -3  -3   0 1401.65   46.61
  -3  -3   0 1433.75   47.69
  -3  -3   0 1423.35   47.88
  -3  -3   0 1414.14   48.08
   3   3   0 1443.41   46.63
   3   3   0 1437.47   46.68
   3   3   0 1356.12   46.19
   3   3   0 1449.92   47.19
   3   3   0 1414.54   50.48
   3   3   0 1442.42   47.67
   3   3   0 1413.56   48.71
  -4  -3   0   35.24    6.89
  -4  -3   0   45.28    9.03
  -4  -3   0   38.56    5.50
  -4  -3   0   52.29    8.69
  -4  -3   0   37.68    7.30
  -4  -3   0   38.82    6.83
   4   3   0   53.89    9.33
   4   3   0   41.60    8.38
   4   3   0   43.80    7.21
   4   3   0   35.00    6.36
   4   3   0   41.21    4.88
   4   3   0   43.11    5.06
  -5  -3   0 1638.39   55.95
  -5  -3   0 1531.70   53.82
  -5  -3   0 1509.06   49.50
  -5  -3   0 1548.53   52.92
  -5  -3   0 1536.26   57.60
   5   3   0 1463.87   55.51
   5   3   0 1515.81   55.56
   5   3   0 1576.24   54.59
  -6  -3   0  190.62   14.98
  -6  -3   0  208.51   16.43
  -6  -3   0  187.92   16.99
   6   3   0  190.35   17.55
  -7  -3   0   82.53   14.04
  -7  -3   0   85.13   13.90
   7   3   0   53.97   17.65
   7   3   0   89.05   15.40
   6  -4   0   28.66   15.02
   6  -4   0   30.96   14.98
  -6   4   0   21.57   13.45
  -6   4   0   23.26   14.13
   5  -4   0  111.95   15.20
   5  -4   0  125.03   15.71
  -5   4   0  102.27    8.40
  -5   4   0  126.63   17.46
  -5   4   0  113.32   13.17
  -5   4   0  118.02   15.98
   4  -4   0  870.46   35.76
   4  -4   0  878.29   38.20
   4  -4   0  877.71   35.75
   4  -4   0  865.71   29.91
   4  -4   0  769.32   31.51
   4  -4   0  879.40   38.15
  -4   4   0  849.34   28.56
  -4   4   0  781.05   37.61
  -4   4   0  866.21   33.43
  -4   4   0  865.36   36.54
  -4   4   0  866.54   37.85
   3  -4   0  793.62   26.81
   3  -4   0  850.86   31.88
   3  -4   0  802.75   35.27
   3  -4   0  748.25   29.53
   3  -4   0  803.75   31.91
   3  -4   0  830.86   35.53
   3  -4   0  776.13   29.25
  -3   4   0  832.13   26.14
  -3   4   0  871.50   35.61
  -3   4   0  799.13   27.32
  -3   4   0  814.53   33.12
  -3   4   0  765.65   34.18
  -3   4   0  834.17   31.18
   2  -4   0  833.09   30.31
   2  -4   0  826.93   34.82
   2  -4   0  827.31   30.90
   2  -4   0  826.35   34.82
   2  -4   0  784.21   30.18
   2  -4   0  824.12   26.36
  -2   4   0  861.92   35.17
  -2   4   0  829.82   34.69
  -2   4   0  870.94   32.46
  -2   4   0  905.89   31.75
   1  -4   0  356.99   20.31
   1  -4   0  352.14   17.14
   1  -4   0  388.68   12.34
   1  -4   0  392.41   21.11
   1  -4   0  342.85   18.69
   1  -4   0  353.64   16.54
   1  -4   0  376.03   14.75
   1  -4   0  385.04   12.53
   1  -4   0  393.90   16.81
  -1   4   0  362.22   16.29
  -1   4   0  399.54   20.77
  -1   4   0  390.53   20.53
  -1   4   0  415.30   17.63
  -1   4   0  382.82   18.01
  -1   4   0  374.86   16.84
   0  -4   0 1497.08   51.46
   0  -4   0 1532.88   51.66
   0  -4   0 1601.41   55.84
   0  -4   0 1493.66   55.23
   0  -4   0 1660.19   52.88
   0  -4   0 1588.65   51.18
   0   4   0 1525.44   54.98
   0   4   0 1597.98   51.42
   0   4   0 1526.20   51.56
   0   4   0 1563.05   54.94
   0   4   0 1470.40   51.88
   0   4   0 1590.42   51.34
  -1  -4   0  333.71   19.16
  -1  -4   0  359.01   14.17
  -1  -4   0  341.34   16.37
  -1  -4   0  339.51   15.92
  -1  -4   0  366.94   15.23
  -1  -4   0  360.74   19.31
  -1  -4   0  329.93   15.36
   1   4   0  373.88   12.90
   1   4   0  331.89   18.87
   1   4   0  353.26   19.60
   1   4   0  339.07   15.84
   1   4   0  346.15   14.86
   1   4   0  330.95   18.59
   1   4   0  349.47   15.97
   1   4   0  357.16   16.13
  -2  -4   0 1313.29   49.15
  -2  -4   0 1442.19   50.04
  -2  -4   0 1367.90   46.33
  -2  -4   0 1312.61   44.60
  -2  -4   0 1368.60   44.99
  -2  -4   0 1306.01   42.95
  -2  -4   0 1361.66   46.61
   2   4   0 1317.02   43.62
   2   4   0 1393.65   45.89
   2   4   0 1451.29   50.43
   2   4   0 1361.14   42.20
   2   4   0 1310.13   45.66
   2   4   0 1305.90   44.60
  -3  -4   0  169.65    9.79
  -3  -4   0  149.62   11.02
  -3  -4   0  159.46   14.71
  -3  -4   0  165.64   11.35
  -3  -4   0  126.27    9.20
  -3  -4   0  160.41   13.88
   3   4   0  143.01    8.91
   3   4   0  143.80   10.12
   3   4   0  156.12    9.65
   3   4   0  147.58    9.86
   3   4   0  154.52   14.62
   3   4   0  162.13   11.24
   3   4   0  142.95   10.12
  -4  -4   0 1737.71   57.96
  -4  -4   0 1775.73   59.72
  -4  -4   0 1743.19   62.61
  -4  -4   0 1770.04   56.91
  -4  -4   0 1760.48   63.09
  -4  -4   0 1823.94   60.16
   4   4   0 1811.88   60.87
   4   4   0 1758.60   63.14
   4   4   0 1660.58   57.52
   4   4   0 1714.55   56.72
   4   4   0 1735.31   58.15
   4   4   0 1813.74   57.08
  -5  -4   0  694.71   30.14
  -5  -4   0  744.35   29.76
  -5  -4   0  713.01   25.99
  -5  -4   0  702.18   31.87
   5   4   0  697.87   29.32
   5   4   0  667.49   33.69
   5   4   0  696.93   31.84
  -6  -4   0   26.52   10.22
  -6  -4   0   38.49   11.02
  -6  -4   0   38.90   10.27
   6   4   0   31.21    9.77
   6   4   0   27.13   12.63
  -7  -4   0  302.24   24.20
  -7  -4   0  337.04   24.84
   7   4   0  345.40   24.62
   7   4   0  318.34   26.63
   6  -5   0   37.62   17.15
   6  -5   0   46.82   17.23
  -6   5   0   50.00   18.07
  -6   5   0   27.02   15.96
   5  -5   0  358.04   25.66
   5  -5   0  322.21   23.70
  -5   5   0  309.83   27.76
  -5   5   0  312.68   20.85
  -5   5   0  316.53   24.68
   4  -5   0   30.68    7.37
   4  -5   0   61.60   11.71
   4  -5   0   35.68   13.77
   4  -5   0   32.59   13.48
   4  -5   0   42.09   11.35
  -4   5   0   56.06   13.64
  -4   5   0   35.88    4.51
  -4   5   0   40.28   10.26
  -4   5   0   46.22   10.20
   3  -5   0 1601.61   55.08
   3  -5   0 1462.67   54.33
   3  -5   0 1564.60   49.88
   3  -5   0 1632.85   61.27
   3  -5   0 1590.90   55.47
   3  -5   0 1675.97   62.52
  -3   5   0 1563.31   60.91
  -3   5   0 1671.36   58.63
  -3   5   0 1710.28   61.94
  -3   5   0 1662.60   56.57
   2  -5   0 1017.45   43.66
   2  -5   0 1039.83   39.05
   2  -5   0 1042.46   43.77
   2  -5   0 1012.76   36.77
  -2   5   0  985.94   43.14
  -2   5   0 1046.68   38.75
  -2   5   0 1087.26   39.51
  -2   5   0 1111.12   44.18
   1  -5   0   81.85    9.53
   1  -5   0   64.47    6.09
   1  -5   0   62.32    4.14
   1  -5   0   57.85    9.29
   1  -5   0   55.09   10.18
   1  -5   0   57.29   10.62
  -1   5   0   65.93    8.86
  -1   5   0   68.15    8.53
  -1   5   0   70.72   11.76
  -1   5   0   65.62   11.92
   0  -5   0 1012.78   41.62
   0  -5   0 1057.56   36.89
   0  -5   0 1055.04   38.52
   0   5   0 1015.98   41.78
   0   5   0 1002.13   36.98
   0   5   0 1003.05   37.33
  -1  -5   0 1181.33   47.59
  -1  -5   0 1253.89   40.57
  -1  -5   0 1287.22   44.80
  -1  -5   0 1213.43   50.57
  -1  -5   0 1263.44   42.74
   1   5   0 1215.30   43.21
   1   5   0 1186.90   43.19
   1   5   0 1192.16   38.95
   1   5   0 1241.31   48.28
  -2  -5   0   89.95   13.13
  -2  -5   0   92.45    8.61
  -2  -5   0   78.63    9.82
  -2  -5   0   76.48    7.80
  -2  -5   0   92.06   12.10
   2   5   0   83.19    9.11
   2   5   0   88.05   12.03
   2   5   0   92.93    6.93
   2   5   0  103.23   11.12
  -3  -5   0  169.76   15.97
  -3  -5   0  155.73   11.60
  -3  -5   0  154.36   11.23
  -3  -5   0  149.80   16.44
  -3  -5   0  137.23   12.14
   3   5   0  134.75   12.23
   3   5   0  149.74   16.29
   3   5   0  167.22   12.30
   3   5   0  146.35    8.68
   3   5   0  160.39   11.29
   3   5   0  154.61   10.21
  -4  -5   0 3854.46  125.16
  -4  -5   0 3736.84  117.97
  -4  -5   0 3822.45  120.43
  -4  -5   0 3562.27  124.46
  -4  -5   0 4006.14  122.07
   4   5   0 3868.65  126.05
   4   5   0 3599.29  118.25
   4   5   0 3742.50  117.60
   4   5   0 3896.18  118.75
   4   5   0 3789.58  121.68
  -5  -5   0  475.14   21.30
  -5  -5   0  513.19   25.19
  -5  -5   0  565.68   28.79
  -5  -5   0  485.14   25.19
   5   5   0  489.21   22.74
   5   5   0  505.81   20.51
   5   5   0  504.12   25.75
   5   5   0  494.87   20.46
  -6  -5   0   80.49   14.20
  -6  -5   0   75.05   12.90
  -6  -5   0   87.59   13.66
   6   5   0   63.10   11.36
   6   5   0   72.76   16.11
  -7  -5   0   57.25   15.07
  -7  -5   0   61.67   14.55
   7   5   0   77.54   14.77
   7   5   0   39.88   18.48
   5  -6   0  100.76   17.78
   5  -6   0   86.41   16.84
  -5   6   0   96.40   16.31
  -5   6   0  108.53   18.48
  -5   6   0   86.13   19.43
   4  -6   0   28.00   11.89
   4  -6   0   18.45    9.47
   4  -6   0   39.50   12.12
  -4   6   0   23.09   13.52
  -4   6   0   24.06   10.77
  -4   6   0   26.69   11.25
   3  -6   0 1095.84   42.70
   3  -6   0 1168.51   42.91
   3  -6   0 1122.83   50.12
   3  -6   0 1124.66   49.91
  -3   6   0 1158.59   50.17
  -3   6   0 1168.32   45.26
  -3   6   0 1166.27   44.31
   2  -6   0  280.09   24.11
   2  -6   0  305.61   18.87
   2  -6   0  282.56   15.58
   2  -6   0  297.54   23.68
  -2   6   0  275.94   17.60
  -2   6   0  284.48   23.22
  -2   6   0  315.01   18.53
   1  -6   0  938.90   38.17
   1  -6   0 1006.25   36.98
   1  -6   0  947.54   42.89
   1  -6   0  867.00   29.55
   1  -6   0  963.25   31.93
  -1   6   0  927.96   36.26
  -1   6   0  965.57   36.96
  -1   6   0  937.02   41.89
   0  -6   0   24.31    4.62
   0  -6   0   48.18    8.66
   0  -6   0   28.85    8.52
   0  -6   0   27.62    9.85
   0   6   0   42.64    8.53
   0   6   0   37.89   11.72
   0   6   0   30.78    6.91
  -1  -6   0  320.09   18.23
  -1  -6   0  281.26   13.56
  -1  -6   0  284.44   16.15
  -1  -6   0  270.67   20.93
   1   6   0  276.79   16.14
   1   6   0  287.38   16.62
   1   6   0  285.12   11.84
   1   6   0  277.04   21.58
  -2  -6   0  201.98   13.24
  -2  -6   0  199.26   12.87
  -2  -6   0  203.74   15.24
  -2  -6   0  205.35   18.84
   2   6   0  180.24   10.34
   2   6   0  202.17   14.73
   2   6   0  177.09   19.62
   2   6   0  209.52   15.07
  -3  -6   0  509.98   25.07
  -3  -6   0  473.18   28.07
  -3  -6   0  512.06   22.71
  -3  -6   0  497.31   22.28
   3   6   0  528.00   21.03
   3   6   0  497.11   17.84
   3   6   0  512.83   29.72
   3   6   0  526.77   24.12
  -4  -6   0   28.79    8.22
  -4  -6   0   29.92    8.57
  -4  -6   0   47.77   11.73
  -4  -6   0   36.05   10.24
   4   6   0   43.42   12.57
   4   6   0   38.83   10.85
   4   6   0   26.09    9.09
   4   6   0   41.95    6.38
  -5  -6   0  159.69   15.26
  -5  -6   0  172.49   18.74
  -5  -6   0  173.33   14.09
  -5  -6   0  186.29   17.32
   5   6   0  145.23   16.37
   5   6   0  176.24   13.05
   5   6   0  190.60   15.37
  -6  -6   0  263.35   23.59
  -6  -6   0  289.27   22.32
  -6  -6   0  252.20   21.73
   6   6   0  276.38   23.80
   6   6   0  293.57   22.77
  -7  -6   0   24.06   14.21
   7   6   0   23.12   17.07
   5  -7   0   10.59   15.79
   5  -7   0   19.48   15.72
  -5   7   0    9.73   12.90
  -5   7   0   12.63   16.04
  -5   7   0   15.29   18.30
   4  -7   0  177.54   18.18
   4  -7   0  168.43   19.27
  -4   7   0  194.27   20.32
  -4   7   0  217.64   26.18
  -4   7   0  186.33   19.24
   3  -7   0  239.72   18.85
   3  -7   0  249.51   28.66
   3  -7   0  249.93   17.94
  -3   7   0  230.43   25.87
  -3   7   0  242.26   19.23
  -3   7   0  266.19   20.81
   2  -7   0 1439.02   60.27
   2  -7   0 1344.92   52.09
   2  -7   0 1336.69   47.22
  -2   7   0 1370.11   51.78
  -2   7   0 1371.10   58.52
  -2   7   0 1420.71   52.57
   1  -7   0  192.37   16.13
   1  -7   0  175.15   20.82
   1  -7   0  151.98   11.13
   1  -7   0  182.43   15.99
   1  -7   0  180.73    8.90
  -1   7   0  177.37   14.51
  -1   7   0  174.91   15.51
  -1   7   0  194.46   22.05
   0  -7   0    3.01    4.49
   0  -7   0   11.67   10.83
   0  -7   0    2.84    9.19
   0  -7   0    0.76    7.92
   0   7   0    6.89    6.73
   0   7   0    4.27    8.19
   0   7   0    5.19   10.29
  -1  -7   0  792.07   33.14
  -1  -7   0  826.96   29.83
  -1  -7   0  835.68   35.47
  -1  -7   0  862.39   40.61
   1   7   0  802.72   34.10
   1   7   0  796.53   40.55
   1   7   0  749.78   27.40
   1   7   0  830.80   34.08
  -2  -7   0   59.17   12.71
  -2  -7   0   71.09    8.86
  -2  -7   0   78.12   12.09
  -2  -7   0   67.56   12.22
   2   7   0   91.98   13.20
   2   7   0   81.39    7.48
   2   7   0   80.96   11.86
   2   7   0   58.47   14.00
  -3  -7   0 1103.09   44.59
  -3  -7   0 1093.81   40.76
  -3  -7   0 1088.92   49.33
  -3  -7   0 1143.89   41.45
   3   7   0 1043.55   49.82
   3   7   0 1092.78   42.86
   3   7   0 1092.48   38.35
  -4  -7   0  218.24   18.45
  -4  -7   0  225.81   17.39
  -4  -7   0  236.59   15.92
  -4  -7   0  232.19   23.05
   4   7   0  231.93   17.89
   4   7   0  264.31   25.61
   4   7   0  227.88   18.09
  -5  -7   0  187.29   16.42
  -5  -7   0  211.13   20.61
  -5  -7   0  239.12   24.36
  -5  -7   0  236.52   19.38
   5   7   0  199.94   18.34
   5   7   0  206.48   19.86
  -6  -7   0   70.08   15.95
  -6  -7   0   73.91   14.19
  -6  -7   0   80.95   16.06
   6   7   0   89.22   19.08
   4  -8   0  334.29   25.15
   4  -8   0  333.10   27.70
  -4   8   0  362.87   27.47
  -4   8   0  356.86   38.09
   3  -8   0   86.27   15.14
   3  -8   0  115.03   36.71
   3  -8   0  105.57   14.28
  -3   8   0  133.94   23.18
  -3   8   0  130.25   17.60
  -3   8   0  117.45   16.49
   2  -8   0  212.97   25.92
   2  -8   0  215.27   15.66
   2  -8   0  210.42   18.69
  -2   8   0  228.19   19.46
  -2   8   0  204.88   19.39
  -2   8   0  205.69   25.11
   1  -8   0   75.50   18.09
   1  -8   0   48.82   12.20
   1  -8   0   76.96   14.92
  -1   8   0   97.57   14.79
  -1   8   0   85.82   12.91
  -1   8   0   97.09   19.54
   0  -8   0  697.95   26.61
   0  -8   0  763.45   35.86
   0  -8   0  731.10   34.35
   0  -8   0  719.56   40.80
   0   8   0  746.12   33.03
   0   8   0  743.99   34.23
   0   8   0  767.61   41.37
  -1  -8   0   48.27   13.34
  -1  -8   0   84.00   13.46
  -1  -8   0   86.91    9.42
  -1  -8   0   89.11   15.16
   1   8   0   83.52   12.49
   1   8   0  114.61   19.80
   1   8   0   94.19   14.33
   1   8   0   86.25    7.23
  -2  -8   0  384.19   19.82
  -2  -8   0  383.60   29.36
  -2  -8   0  385.99   24.53
  -2  -8   0  382.55   22.79
   2   8   0  389.68   31.39
   2   8   0  367.77   16.53
   2   8   0  382.97   23.23
   2   8   0  454.07   25.34
  -3  -8   0  718.78   34.41
  -3  -8   0  681.02   30.61
  -3  -8   0  677.94   29.27
  -3  -8   0  652.20   38.40
   3   8   0  676.68   32.28
   3   8   0  653.06   26.06
   3   8   0  607.36   39.95
  -4  -8   0   15.81   10.26
  -4  -8   0   11.95   11.87
  -4  -8   0    5.88   12.00
  -4  -8   0    7.49    9.38
   4   8   0   16.93   12.36
   4   8   0    7.80   15.03
   4   8   0   12.00   11.76
  -5  -8   0  299.03   23.27
  -5  -8   0  290.29   21.04
  -5  -8   0  266.00   24.15
  -5  -8   0  288.94   28.12
   5   8   0  283.29   25.41
  -6  -8   0  163.22   21.48
  -6  -8   0  142.41   18.59
  -6  -8   0  136.98   21.85
   6   8   0  131.03   21.34
   3  -9   0  185.14   21.63
   3  -9   0  174.88   20.67
  -3   9   0  221.26   23.37
  -3   9   0  239.86   25.81
  -3   9   0  243.34   32.05
   2  -9   0   12.22   17.74
   2  -9   0   14.63   11.94
  -2   9   0   34.22   15.53
  -2   9   0   25.99   19.77
  -2   9   0   25.84   13.00
   1  -9   0  126.17   17.74
   1  -9   0  113.75   22.27
  -1   9   0  155.48   20.51
  -1   9   0  176.29   19.35
  -1   9   0  187.81   27.29
   0  -9   0  598.61   31.93
   0  -9   0  526.51   38.68
   0  -9   0  573.22   32.11
   0   9   0  633.63   31.98
   0   9   0  570.98   40.78
   0   9   0  634.22   32.17
  -1  -9   0  286.45   17.40
  -1  -9   0  290.53   23.73
  -1  -9   0  305.44   30.06
  -1  -9   0  259.63   22.29
   1   9   0  320.02   32.31
   1   9   0  299.58   22.64
   1   9   0  333.01   22.01
  -2  -9   0  379.84   25.06
  -2  -9   0  403.22   33.03
  -2  -9   0  349.83   20.71
  -2  -9   0  383.64   26.55
   2   9   0  380.22   25.03
   2   9   0  440.69   35.68
   2   9   0  422.07   26.16
  -3  -9   0   25.09   14.04
  -3  -9   0   16.92   12.46
  -3  -9   0   36.35   13.28
  -3  -9   0   29.95   10.57
   3   9   0   26.42   12.09
   3   9   0   18.38   17.40
  -4  -9   0  302.97   25.59
  -4  -9   0  341.39   22.98
  -4  -9   0  331.69   31.81
  -4  -9   0  328.00   24.64
   4   9   0  309.74   22.75
   4   9   0  544.98   58.26
   4   9   0  325.37   25.84
  -5  -9   0    1.61   11.52
  -5  -9   0    3.50   12.82
  -5  -9   0   -1.67   14.22
  -5  -9   0    5.82   13.92
   5   9   0    1.08   16.32
   2 -10   0    2.95   14.26
   2 -10   0    3.07   22.78
  -2  10   0   -0.11   13.04
  -2  10   0    1.42   17.00
  -2  10   0    2.84   21.46
   1 -10   0  165.19   27.46
   1 -10   0  120.59   19.59
  -1  10   0  211.69   21.99
  -1  10   0  238.99   25.45
  -1  10   0  303.72   36.13
   0 -10   0  111.42   20.38
   0 -10   0   75.45   20.40
   0 -10   0   55.64   15.78
   0  10   0  139.57   28.46
   0  10   0  107.13   20.48
   0  10   0  115.10   17.23
  -1 -10   0  341.56   29.32
  -1 -10   0  321.69   26.85
  -1 -10   0  196.09   25.65
   1  10   0  320.09   24.89
   1  10   0  271.38   24.76
   1  10   0  290.26   32.84
  -2 -10   0  124.89   20.26
  -2 -10   0   85.60   17.53
  -2 -10   0  112.48   22.53
   2  10   0   90.06   23.79
   2  10   0  123.40   18.55
   2  10   0   94.15   17.79
  -3 -10   0  202.32   17.82
  -3 -10   0  255.55   25.10
  -3 -10   0  224.09   25.57
  -3 -10   0  243.79   30.02
   3  10   0  176.55   28.95
   3  10   0  206.49   22.10
  -4 -10   0  103.29   19.68
  -4 -10   0   90.65   15.32
  -4 -10   0   95.84   22.00
  -4 -10   0  110.87   19.22
   4  10   0  144.00   22.01
   0 -11   0   48.59   22.92
   0  11   0   54.40   15.90
   0  11   0   54.13   25.41
  -1 -11   0  239.02   31.45
  -1 -11   0  325.54   29.55
  -1 -11   0  211.06   26.28
   1  11   0  259.88   25.78
   1  11   0  282.33   27.65
   1  11   0  347.51   41.00
  -2 -11   0   66.35   19.98
  -2 -11   0  150.36   24.76
  -2 -11   0   91.86   23.35
   2  11   0  131.71   30.29
   2  11   0  150.41   24.47
   2  11   0  177.34   22.94
   1  11  -1   22.72   25.34
   1  11  -1   19.89   17.85
   1  11  -1   19.00   14.16
  -1 -11   1   13.60   15.60
  -1 -11   1   11.38   19.37
   4  10  -1  251.18   26.29
   4  10  -1  308.86   26.78
  -4 -10   1  191.07   18.67
  -4 -10   1  161.39   29.89
  -4 -10   1  249.48   23.98
  -4 -10   1  254.58   26.46
   3  10  -1   14.75   22.92
   3  10  -1    4.22   14.16
  -3 -10   1    9.87   13.56
  -3 -10   1    5.17   11.05
  -3 -10   1    9.65   15.87
  -3 -10   1    5.03   14.57
   2  10  -1   70.33   15.19
   2  10  -1   72.87   17.74
   2  10  -1   92.56   26.21
  -2 -10   1   42.38   16.89
  -2 -10   1   55.86   15.90
  -2 -10   1   69.79   16.53
   1  10  -1  158.24   18.33
   1  10  -1  126.91   25.83
   1  10  -1  177.57   21.11
  -1 -10   1  146.91   21.08
  -1 -10   1  124.99   22.78
  -1 -10   1  187.20   21.99
   0  10  -1   42.59   20.17
   0  10  -1   55.75   17.12
   0  10  -1   34.14   12.01
   0 -10   1   21.55   13.66
   0 -10   1   36.21   18.89
  -1  10  -1  202.66   23.43
  -1  10  -1  143.78   26.37
  -1  10  -1  157.94   20.34
   1 -10   1   85.22   21.57
   1 -10   1  139.98   19.70
  -2  10  -1    0.21   21.91
  -2  10  -1    4.39   17.70
  -2  10  -1    1.59   12.24
   2 -10   1   -1.20   14.03
   5   9  -1   11.33   15.70
  -5  -9   1   21.19   12.56
  -5  -9   1   20.10   16.85
  -5  -9   1   20.58   14.31
   4   9  -1  228.51   34.19
   4   9  -1  269.39   24.74
   4   9  -1  263.22   24.45
  -4  -9   1  214.80   20.68
  -4  -9   1  263.85   29.59
  -4  -9   1  251.94   23.60
  -4  -9   1  257.95   22.09
   3   9  -1  164.70   19.36
   3   9  -1  103.03   23.01
  -3  -9   1  141.46   13.99
  -3  -9   1  137.56   18.90
  -3  -9   1  147.96   18.29
  -3  -9   1  119.17   21.09
   2   9  -1  190.52   20.80
   2   9  -1  182.75   26.49
   2   9  -1  154.78   18.17
  -2  -9   1   97.47   18.12
  -2  -9   1  150.46   13.21
  -2  -9   1  126.31   17.58
  -2  -9   1  140.29   17.33
   1   9  -1  204.39   20.20
   1   9  -1  310.07   32.07
   1   9  -1  257.03   21.91
  -1  -9   1  270.74   23.10
  -1  -9   1  234.06   16.16
  -1  -9   1  240.12   27.56
  -1  -9   1  220.19   23.88
   0   9  -1  205.26   20.24
   0   9  -1  108.90   21.17
   0   9  -1  144.89   19.60
   0  -9   1  143.82   18.98
   0  -9   1  130.38   21.67
   0  -9   1  100.73   16.81
  -1   9  -1  118.08   17.88
  -1   9  -1  105.76   15.80
  -1   9  -1  120.72   24.28
   1  -9   1   76.00   19.59
   1  -9   1   80.87   17.25
  -2   9  -1  296.83   32.80
  -2   9  -1  256.18   24.19
  -2   9  -1  254.76   22.92
   2  -9   1  238.41   22.94
   2  -9   1  153.24   24.08
  -3   9  -1  134.45   26.85
  -3   9  -1   83.39   15.53
  -3   9  -1   91.69   18.04
   3  -9   1   97.27   17.09
   3  -9   1   92.18   16.21
   5   8  -1  539.95   38.22
   5   8  -1  513.31   30.76
  -5  -8   1  536.91   31.34
  -5  -8   1  520.98   35.32
  -5  -8   1  526.78   28.86
   4   8  -1  142.58   18.14
   4   8  -1   89.81   20.05
   4   8  -1   98.34   15.18
  -4  -8   1  141.70   20.24
  -4  -8   1  109.33   14.74
  -4  -8   1  109.51   16.15
  -4  -8   1  145.06   14.57
   3   8  -1   81.06   14.84
   3   8  -1   81.06   19.57
  -3  -8   1  109.03   14.59
  -3  -8   1   87.34   16.77
  -3  -8   1   67.96   10.65
  -3  -8   1   72.19   13.69
   2   8  -1  342.76   31.32
   2   8  -1  359.63   24.00
   2   8  -1  337.82   14.93
   2   8  -1  316.30   22.49
  -2  -8   1  371.30   28.74
  -2  -8   1  351.32   22.47
  -2  -8   1  345.44   18.43
  -2  -8   1  341.63   24.07
   1   8  -1   16.19    4.47
   1   8  -1   11.74    8.82
   1   8  -1   16.08   10.05
   1   8  -1   18.85   13.84
  -1  -8   1   16.07    6.61
  -1  -8   1   17.79   10.69
  -1  -8   1   19.80   10.03
  -1  -8   1   10.33   10.98
   0   8  -1  396.97   24.99
   0   8  -1  400.28   24.07
   0  -8   1  430.35   31.26
   0  -8   1  424.05   16.98
   0  -8   1  430.99   24.73
   0  -8   1  395.79   25.03
  -1   8  -1   53.24   10.35
  -1   8  -1   61.80   17.50
  -1   8  -1   44.55   12.01
   1  -8   1   74.60   16.79
   1  -8   1   41.89   12.19
  -2   8  -1   72.03   14.01
  -2   8  -1   64.86   12.59
  -2   8  -1   81.56   19.84
   2  -8   1   20.73   14.83
   2  -8   1   48.24   13.41
  -3   8  -1   43.42   12.76
  -3   8  -1   41.79   13.36
  -3   8  -1   26.04   18.03
   3  -8   1   21.60   11.37
   3  -8   1   27.71   11.75
  -4   8  -1   82.35   16.23
  -4   8  -1   88.84   18.37
  -4   8  -1  109.60   23.91
   4  -8   1   55.30   14.75
   4  -8   1   77.98   17.11
   6   7  -1   28.17   16.71
  -6  -7   1   12.72   12.09
  -6  -7   1   21.51   13.93
  -6  -7   1   26.39   14.18
   5   7  -1  321.85   21.61
   5   7  -1  320.19   23.58
  -5  -7   1  294.41   22.29
  -5  -7   1  299.34   24.66
  -5  -7   1  321.37   22.11
  -5  -7   1  311.61   26.15
   4   7  -1  265.71   19.40
   4   7  -1  260.49   27.68
   4   7  -1  256.80   19.71
  -4  -7   1  306.96   20.71
  -4  -7   1  280.35   17.76
  -4  -7   1  263.03   18.05
  -4  -7   1  279.60   24.70
   3   7  -1 1016.08   48.50
   3   7  -1 1025.69   41.15
  -3  -7   1 1020.63   38.90
  -3  -7   1 1009.58   42.36
  -3  -7   1 1067.83   48.06
  -3  -7   1  972.23   38.34
   2   7  -1   61.01   15.47
   2   7  -1   58.13    6.10
   2   7  -1   47.35    9.92
   2   7  -1   44.60   10.50
  -2  -7   1   55.11    8.36
  -2  -7   1   55.09   13.08
  -2  -7   1   66.99   11.55
  -2  -7   1   59.89   11.45
   1   7  -1   84.69   11.23
   1   7  -1   97.52    6.63
   1   7  -1  100.69   12.90
   1   7  -1  102.94   17.13
  -1  -7   1   87.88    8.29
  -1  -7   1   45.58   11.57
  -1  -7   1  100.72   12.17
  -1  -7   1   78.46   12.39
   0   7  -1  297.17   19.20
   0   7  -1  301.08   25.27
   0   7  -1  275.92   18.08
   0  -7   1  288.90   18.48
   0  -7   1  270.39   23.68
   0  -7   1  279.83   12.86
   0  -7   1  257.93   18.61
  -1   7  -1  195.07   15.68
  -1   7  -1  162.91   19.09
  -1   7  -1  150.15   15.74
   1  -7   1  150.86   15.56
   1  -7   1  168.73    7.56
   1  -7   1  143.47   17.73
  -2   7  -1   12.49    7.63
  -2   7  -1   13.44   10.91
  -2   7  -1   20.72   13.08
   2  -7   1   15.46    9.37
   2  -7   1   11.06   12.83
  -3   7  -1   22.09   10.97
  -3   7  -1   10.24    9.32
  -3   7  -1   18.98   14.08
   3  -7   1   13.15   14.05
   3  -7   1    7.67    9.43
   3  -7   1    9.61    9.02
   3  -7   1    4.12    9.03
  -4   7  -1  163.35   22.19
  -4   7  -1  149.18   18.12
   4  -7   1  136.15   17.47
  -5   7  -1    8.92   18.23
  -5   7  -1   10.11   13.85
  -5   7  -1    8.73   13.96
   5  -7   1    8.10   14.56
   5  -7   1    3.07   14.60
   6   6  -1  564.12   32.31
  -6  -6   1  566.02   30.69
  -6  -6   1  596.79   34.18
  -6  -6   1  595.43   31.31
   5   6  -1   88.02   12.08
   5   6  -1   78.86   10.24
   5   6  -1   66.29   13.00
  -5  -6   1   87.21   13.84
  -5  -6   1   83.88   12.85
  -5  -6   1   83.91   10.67
  -5  -6   1  108.82   16.87
   4   6  -1  335.04   16.32
   4   6  -1  316.30   27.41
   4   6  -1  373.40   22.21
   4   6  -1  352.72   20.24
  -4  -6   1  329.15   24.71
  -4  -6   1  331.45   19.71
  -4  -6   1  389.07   21.55
  -4  -6   1  379.86   18.59
   3   6  -1  385.02   20.57
   3   6  -1  392.41   15.38
   3   6  -1  394.74   27.88
  -3  -6   1  410.68   26.02
  -3  -6   1  403.77   21.94
  -3  -6   1  394.28   19.65
  -3  -6   1  371.83   18.84
   2   6  -1 1125.83   43.47
   2   6  -1 1127.09   36.93
   2   6  -1 1127.11   48.92
   2   6  -1 1079.04   42.16
  -2  -6   1 1076.50   47.26
  -2  -6   1 1111.91   42.89
  -2  -6   1 1190.54   40.81
  -2  -6   1 1140.76   39.46
   1   6  -1   27.75    3.84
   1   6  -1   22.29    6.46
   1   6  -1   27.95    7.94
   1   6  -1   21.06    9.36
  -1  -6   1   27.35    7.71
  -1  -6   1   32.02    5.64
  -1  -6   1   17.00    9.07
  -1  -6   1   22.38    7.87
   0   6  -1  170.84   18.47
   0   6  -1  181.75   13.76
   0   6  -1  186.83   13.89
   0  -6   1  164.48   14.44
   0  -6   1  183.50   13.59
   0  -6   1  176.48   17.75
   0  -6   1  165.31    9.17
  -1   6  -1  880.60   40.03
  -1   6  -1  848.34   34.00
  -1   6  -1  871.11   34.60
   1  -6   1  865.89   27.61
   1  -6   1  840.82   39.87
   1  -6   1  882.89   35.32
  -2   6  -1  409.80   26.89
  -2   6  -1  418.30   21.74
  -2   6  -1  435.27   22.69
   2  -6   1  471.27   28.87
   2  -6   1  422.00   21.85
   2  -6   1  425.99   19.08
  -3   6  -1  298.83   20.16
  -3   6  -1  228.52   17.25
  -3   6  -1  292.75   24.95
   3  -6   1  272.70   17.53
   3  -6   1  278.65   24.12
   3  -6   1  292.16   18.99
  -4   6  -1  267.21   19.84
  -4   6  -1  269.05   25.64
  -4   6  -1  256.24   21.44
   4  -6   1  241.94   15.90
   4  -6   1  292.00   20.28
   4  -6   1  268.63   21.17
  -5   6  -1  133.35   19.50
  -5   6  -1  155.32   21.58
  -5   6  -1  133.16   17.20
   5  -6   1  143.04   19.22
   5  -6   1  147.92   18.20
  -6   6  -1   41.19   18.13
   6  -6   1   32.90   17.49
   7   5  -1    6.99   17.90
   7   5  -1    7.31   12.12
  -7  -5   1    7.19   12.08
  -7  -5   1    9.41   13.43
   6   5  -1  352.23   21.98
   6   5  -1  360.94   26.48
  -6  -5   1  373.56   23.45
  -6  -5   1  335.99   23.14
  -6  -5   1  351.03   25.33
   5   5  -1   43.69    9.07
   5   5  -1   36.74   10.92
   5   5  -1   56.06    9.68
   5   5  -1   39.84    8.86
  -5  -5   1   51.86   10.97
  -5  -5   1   57.77   12.40
  -5  -5   1   45.80    9.74
  -5  -5   1   46.15    7.52
   4   5  -1  494.75   23.90
   4   5  -1  429.61   22.74
   4   5  -1  433.67   19.52
   4   5  -1  443.31   27.78
   4   5  -1  457.74   21.40
  -4  -5   1  457.95   28.50
  -4  -5   1  447.17   19.33
  -4  -5   1  450.06   25.82
  -4  -5   1  473.63   21.87
  -4  -5   1  428.67   22.36
  -4  -5   1  448.10   18.92
   3   5  -1  227.43   14.68
   3   5  -1  232.73   19.75
   3   5  -1  220.84   11.00
   3   5  -1  221.42   13.90
  -3  -5   1  189.79   11.31
  -3  -5   1  233.26   12.67
  -3  -5   1  223.48   15.00
  -3  -5   1  199.33   19.30
  -3  -5   1  228.41   18.08
  -3  -5   1  235.08   14.03
   2   5  -1 1569.92   53.55
   2   5  -1 1546.89   58.63
   2   5  -1 1512.77   47.89
   2   5  -1 1545.24   49.23
   2   5  -1 1531.38   54.77
  -2  -5   1 1563.67   51.64
  -2  -5   1 1580.42   58.34
  -2  -5   1 1501.05   58.01
  -2  -5   1 1570.45   54.44
  -2  -5   1 1573.82   51.43
   1   5  -1   87.23    9.76
   1   5  -1   88.67   13.31
   1   5  -1   77.23    8.99
   1   5  -1   83.69    5.36
  -1  -5   1   69.61   10.53
  -1  -5   1   90.07    7.25
  -1  -5   1   94.73    9.46
  -1  -5   1   69.39    9.45
   0   5  -1 1501.97   46.29
   0   5  -1 1481.18   56.31
   0   5  -1 1583.44   52.26
   0   5  -1 1532.74   52.10
   0  -5   1 1495.22   47.25
   0  -5   1 1442.74   55.81
   0  -5   1 1531.37   52.67
   0  -5   1 1495.44   51.04
  -1   5  -1   27.95    5.94
  -1   5  -1   60.61   11.28
  -1   5  -1   26.02    8.87
  -1   5  -1   49.40    8.43
  -1   5  -1   39.49    4.76
   1  -5   1   40.40    8.05
   1  -5   1   41.15    8.16
   1  -5   1   39.77    9.56
   1  -5   1   47.12    3.69
  -2   5  -1  108.18   10.66
  -2   5  -1  134.97   11.15
  -2   5  -1  105.98   13.61
  -2   5  -1  134.11   15.49
   2  -5   1   98.20   10.58
   2  -5   1  112.98    6.74
   2  -5   1  103.93   10.31
   2  -5   1  110.94    9.72
   2  -5   1  110.91   13.85
  -3   5  -1  577.22   30.42
  -3   5  -1  550.67   29.62
  -3   5  -1  600.74   25.76
  -3   5  -1  624.91   27.38
   3  -5   1  600.23   25.45
   3  -5   1  628.93   27.33
   3  -5   1  617.63   25.03
   3  -5   1  513.68   23.40
   3  -5   1  596.54   31.06
  -4   5  -1    7.77    9.56
  -4   5  -1   14.94    8.43
  -4   5  -1   13.23   11.06
   4  -5   1   13.65   12.05
   4  -5   1    7.29    5.55
   4  -5   1   12.43    8.89
   4  -5   1    9.44    9.09
  -5   5  -1   46.29   11.47
  -5   5  -1   61.30   14.22
  -5   5  -1   60.69   15.03
   5  -5   1   66.43   13.84
   5  -5   1   60.42   13.85
  -6   5  -1   34.87   15.57
  -6   5  -1   31.33   16.64
   6  -5   1   26.54   15.67
   6  -5   1   35.51   15.84
   7   4  -1  367.30   30.40
   7   4  -1  381.20   26.53
  -7  -4   1  397.97   25.71
  -7  -4   1  395.19   28.17
   6   4  -1   46.15   11.41
   6   4  -1   46.68   13.32
  -6  -4   1   52.51   12.95
  -6  -4   1   63.09   11.63
  -6  -4   1   55.29   11.68
   5   4  -1  489.92   20.12
   5   4  -1  463.88   23.16
   5   4  -1  510.58   32.19
  -5  -4   1  475.14   23.78
  -5  -4   1  513.36   24.08
  -5  -4   1  530.19   27.48
  -5  -4   1  488.20   18.79
   4   4  -1  153.16   11.88
   4   4  -1  155.81   17.31
   4   4  -1  160.05   11.80
   4   4  -1  153.17   11.52
   4   4  -1  160.21   12.95
   4   4  -1  164.80   12.13
  -4  -4   1  163.28   10.98
  -4  -4   1  159.19   13.05
  -4  -4   1  149.79   12.26
  -4  -4   1  161.24    9.24
  -4  -4   1  161.40   15.17
  -4  -4   1  165.37   17.80
   3   4  -1  674.83   26.64
   3   4  -1  696.85   25.15
   3   4  -1  680.45   26.91
   3   4  -1  681.58   24.69
   3   4  -1  673.20   27.04
   3   4  -1  666.73   31.19
  -3  -4   1  654.06   31.11
  -3  -4   1  717.77   26.74
  -3  -4   1  683.94   24.48
  -3  -4   1  725.59   28.10
  -3  -4   1  729.09   31.35
  -3  -4   1  669.53   24.11
  -3  -4   1  653.09   25.27
   2   4  -1  564.01   19.31
   2   4  -1  520.11   20.14
   2   4  -1  550.07   18.59
   2   4  -1  540.85   26.43
   2   4  -1  535.25   22.53
   2   4  -1  547.13   22.06
  -2  -4   1  515.77   20.10
  -2  -4   1  547.09   25.65
  -2  -4   1  501.82   20.46
  -2  -4   1  504.22   18.69
  -2  -4   1  512.37   25.44
  -2  -4   1  524.58   22.69
   1   4  -1 1204.96   37.92
   1   4  -1 1193.08   45.66
   1   4  -1 1312.83   46.76
   1   4  -1 1191.91   40.48
   1   4  -1 1178.88   42.28
   1   4  -1 1205.14   41.97
   1   4  -1 1232.00   42.27
  -1  -4   1 1263.99   42.75
  -1  -4   1 1166.94   41.85
  -1  -4   1 1206.02   40.75
  -1  -4   1 1230.62   39.55
  -1  -4   1 1193.71   45.44
  -1  -4   1 1271.63   46.23
  -1  -4   1 1195.93   42.02
   0   4  -1 1310.51   41.07
   0   4  -1 1277.48   48.17
   0   4  -1 1315.88   44.48
   0   4  -1 1267.10   45.53
   0   4  -1 1309.64   48.47
   0   4  -1 1383.14   49.29
   0   4  -1 1354.68   45.47
   0   4  -1 1440.05   45.66
   0  -4   1 1316.81   45.22
   0  -4   1 1335.41   44.63
   0  -4   1 1397.41   45.99
   0  -4   1 1322.96   49.45
   0  -4   1 1292.64   45.15
   0  -4   1 1346.15   41.70
   0  -4   1 1361.71   48.92
  -1   4  -1  361.26   15.27
  -1   4  -1  454.00   18.71
  -1   4  -1  400.57   21.10
  -1   4  -1  397.67   18.45
  -1   4  -1  444.59   21.82
  -1   4  -1  442.39   18.34
   1  -4   1  415.11   14.19
   1  -4   1  450.63   18.70
   1  -4   1  420.22   15.84
   1  -4   1  404.04   18.04
   1  -4   1  436.55   22.24
  -2   4  -1  491.99   23.91
  -2   4  -1  460.86   20.12
  -2   4  -1  486.83   21.11
  -2   4  -1  439.59   18.76
  -2   4  -1  457.42   23.65
   2  -4   1  471.14   19.10
   2  -4   1  490.38   19.98
   2  -4   1  467.84   23.90
   2  -4   1  459.77   16.80
   2  -4   1  455.90   19.04
  -3   4  -1   62.99    8.54
  -3   4  -1   47.83    5.14
  -3   4  -1   50.12   10.17
  -3   4  -1   62.27   10.78
  -3   4  -1   58.38    9.57
  -3   4  -1   56.03    3.87
   3  -4   1   46.75    9.97
   3  -4   1   54.97    8.51
   3  -4   1   51.05   10.04
   3  -4   1   49.23    8.56
   3  -4   1   49.23    6.59
   3  -4   1   58.17    7.17
  -4   4  -1  196.12   13.35
  -4   4  -1  203.92   18.60
  -4   4  -1  209.59   17.30
  -4   4  -1  192.44    9.09
  -4   4  -1  178.32   16.95
   4  -4   1  184.73    9.18
   4  -4   1  190.52   18.99
   4  -4   1  210.72   16.34
   4  -4   1  188.17    8.98
   4  -4   1  207.02   18.72
   4  -4   1  219.52   16.41
  -5   4  -1  204.27   12.10
  -5   4  -1  225.20   16.55
  -5   4  -1  206.04   20.58
  -5   4  -1  221.91   21.34
   5  -4   1  213.00   19.90
   5  -4   1  227.86   19.91
  -6   4  -1   49.45   16.51
  -6   4  -1   45.65   14.08
   6  -4   1   39.13   14.80
   6  -4   1   35.71   14.52
   7   3  -1  375.28   28.94
   7   3  -1  359.17   25.71
  -7  -3   1  345.81   22.97
  -7  -3   1  347.62   25.88
   6   3  -1   27.28   10.62
   6   3  -1   20.52   11.82
  -6  -3   1   22.24   10.19
  -6  -3   1   26.77   10.50
  -6  -3   1   29.01    9.72
   5   3  -1  171.85   19.35
   5   3  -1  213.32   15.81
   5   3  -1  204.81   17.16
   5   3  -1  190.97    9.41
  -5  -3   1  210.61   15.24
  -5  -3   1  215.23   17.80
  -5  -3   1  191.88    9.18
  -5  -3   1  196.33   14.39
   4   3  -1  859.43   30.31
   4   3  -1  849.89   36.23
   4   3  -1  836.76   30.17
   4   3  -1  897.10   33.82
   4   3  -1  885.60   32.41
   4   3  -1  808.92   28.84
  -4  -3   1  909.34   35.59
  -4  -3   1  853.39   32.64
  -4  -3   1  819.13   30.40
  -4  -3   1  876.64   28.48
  -4  -3   1  880.18   32.71
  -4  -3   1  839.61   35.83
   3   3  -1 4073.03  123.59
   3   3  -1 4106.30  129.90
   3   3  -1 4123.19  126.61
   3   3  -1 4210.02  125.56
   3   3  -1 4112.31  125.14
   3   3  -1 3984.03  125.29
  -3  -3   1 4330.88  130.42
  -3  -3   1 3875.64  125.15
  -3  -3   1 4061.61  123.21
  -3  -3   1 4116.18  126.53
  -3  -3   1 3955.56  129.36
  -3  -3   1 4043.18  125.89
  -3  -3   1 3808.29  128.95
  -3  -3   1 4039.18  123.76
   2   3  -1  769.78   26.96
   2   3  -1  738.07   30.61
   2   3  -1  796.54   31.33
   2   3  -1  753.03   27.36
   2   3  -1  782.93   28.17
   2   3  -1  759.74   27.60
   2   3  -1  762.00   25.96
  -2  -3   1  756.70   27.97
  -2  -3   1  767.81   25.80
  -2  -3   1  811.36   30.94
  -2  -3   1  818.73   28.60
  -2  -3   1  722.62   30.30
  -2  -3   1  735.92   28.24
  -2  -3   1  766.87   26.14
  -2  -3   1  784.16   27.34
   1   3  -1 2591.08   83.90
   1   3  -1 2643.24   81.69
   1   3  -1 2602.31   81.48
   1   3  -1 2594.51   81.18
   1   3  -1 2502.29   79.41
   1   3  -1 2538.47   79.88
   1   3  -1 2480.13   84.19
   1   3  -1 2638.61   78.19
  -1  -3   1 2629.14   81.38
  -1  -3   1 2580.41   77.89
  -1  -3   1 2565.55   79.41
  -1  -3   1 2676.07   84.15
  -1  -3   1 2612.72   79.92
  -1  -3   1 2498.36   83.76
  -1  -3   1 2597.96   81.55
  -1  -3   1 2569.07   81.23
   0   3  -1   89.90    7.52
   0   3  -1   95.08    4.61
   0   3  -1   88.68    9.73
   0   3  -1  113.95    7.49
   0   3  -1   85.44    6.28
   0   3  -1  112.69    7.56
   0   3  -1  101.41    9.90
   0  -3   1   98.83    6.94
   0  -3   1  100.70    6.69
   0  -3   1   82.90    9.34
   0  -3   1   88.09    9.52
   0  -3   1   74.61    6.38
   0  -3   1   97.57    5.03
   0  -3   1   98.16    7.53
  -1   3  -1   49.40    5.86
  -1   3  -1   55.96    6.23
  -1   3  -1   51.34    6.42
  -1   3  -1   49.96    5.70
  -1   3  -1   65.92    8.22
  -1   3  -1   40.67    6.68
  -1   3  -1   46.85    6.92
  -1   3  -1   40.97    4.35
   1  -3   1   62.03    7.49
   1  -3   1   42.89    5.39
   1  -3   1   48.87    4.62
   1  -3   1   53.56    3.57
   1  -3   1   58.18    6.10
  -2   3  -1  116.76   10.82
  -2   3  -1   94.61    8.36
  -2   3  -1   78.42    7.83
  -2   3  -1   97.47    5.69
  -2   3  -1  110.33    7.79
  -2   3  -1   83.04    7.72
  -2   3  -1  104.01   10.88
  -2   3  -1  116.73    9.32
   2  -3   1   95.15    8.12
   2  -3   1  103.69    8.07
   2  -3   1  101.82   10.66
   2  -3   1  104.99   11.20
   2  -3   1   95.59   10.29
   2  -3   1  112.38    7.76
   2  -3   1   98.08    6.36
   2  -3   1   97.39    6.87
   2  -3   1   97.30   10.53
  -3   3  -1  219.36   10.74
  -3   3  -1  234.96    8.98
  -3   3  -1  219.59   14.18
  -3   3  -1  235.89   15.34
  -3   3  -1  192.53   12.08
  -3   3  -1  223.04   14.28
  -3   3  -1  236.47   11.77
   3  -3   1  223.37   13.66
   3  -3   1  229.98   13.69
   3  -3   1  225.86   10.16
   3  -3   1  215.19   15.25
   3  -3   1  207.62   14.78
   3  -3   1  215.16   10.04
  -4   3  -1  338.88   13.33
  -4   3  -1  332.95   19.51
  -4   3  -1  281.26   17.66
   4  -3   1  316.11   19.10
   4  -3   1  332.49   19.62
   4  -3   1  356.55   19.36
   4  -3   1  308.11   18.42
  -5   3  -1  113.66   11.11
  -5   3  -1  144.07   18.40
  -5   3  -1  134.76   14.45
  -5   3  -1   78.15    7.93
   5  -3   1  128.06   15.12
   5  -3   1  133.05   15.28
  -6   3  -1    2.37    7.36
  -6   3  -1   16.58   11.48
  -6   3  -1   13.46   14.79
   6  -3   1    1.24   12.16
   6  -3   1   18.61   12.91
  -7   3  -1   26.06   18.02
   7  -3   1   24.10   15.36
   7  -3   1   37.73   18.20
   7   2  -1   42.18   13.95
  -7  -2   1   24.96   11.96
  -7  -2   1   19.97   11.09
   6   2  -1  493.86   26.68
   6   2  -1  528.53   28.87
  -6  -2   1  474.32   25.01
  -6  -2   1  520.44   27.09
  -6  -2   1  471.46   24.50
   5   2  -1  332.20   22.29
   5   2  -1  366.66   18.70
   5   2  -1  363.19   20.43
   5   2  -1  359.57   20.02
  -5  -2   1  312.71   26.06
  -5  -2   1  390.05   19.28
  -5  -2   1  378.83   21.40
  -5  -2   1  329.78   12.51
  -5  -2   1  371.04   18.99
   4   2  -1    6.09    5.32
   4   2  -1    3.46    6.07
   4   2  -1    3.19    4.07
   4   2  -1    5.81    4.17
   4   2  -1    8.94    5.60
   4   2  -1    5.21    7.19
  -4  -2   1   10.78    6.22
  -4  -2   1    1.53    2.57
  -4  -2   1   -2.27    5.85
  -4  -2   1    1.67    5.21
  -4  -2   1    4.90    5.06
  -4  -2   1    1.40    4.33
   3   2  -1  625.72   22.22
   3   2  -1  708.35   29.00
   3   2  -1  611.06   22.18
   3   2  -1  635.97   22.37
   3   2  -1  604.19   23.70
   3   2  -1  621.32   23.50
   3   2  -1  604.20   26.10
   3   2  -1  596.52   20.44
  -3  -2   1  576.60   23.01
  -3  -2   1  593.60   23.53
  -3  -2   1  599.55   23.25
  -3  -2   1  608.05   20.11
  -3  -2   1  601.60   25.61
  -3  -2   1  608.50   23.26
  -3  -2   1  658.23   23.65
  -3  -2   1  592.80   21.77
  -3  -2   1  602.41   25.29
   2   2  -1  998.39   33.28
   2   2  -1 1131.01   38.71
   2   2  -1 1085.03   35.47
   2   2  -1 1071.90   38.09
   2   2  -1 1062.86   35.32
   2   2  -1 1104.66   35.63
   2   2  -1 1060.30   35.58
  -2  -2   1 1069.48   37.77
  -2  -2   1 1082.14   35.35
  -2  -2   1 1055.64   33.35
  -2  -2   1 1037.17   34.70
  -2  -2   1 1074.71   35.67
  -2  -2   1 1031.43   37.70
  -2  -2   1 1020.17   35.59
  -2  -2   1 1039.54   33.55
   1   2  -1 1576.10   49.99
   1   2  -1 1563.47   49.51
   1   2  -1 1584.70   49.41
   1   2  -1 1514.30   51.24
   1   2  -1 1547.75   48.07
   1   2  -1 1562.58   51.72
   1   2  -1 1514.97   48.41
  -1  -2   1 1542.56   51.40
  -1  -2   1 1597.91   48.46
  -1  -2   1 1558.40   47.47
  -1  -2   1 1587.04   49.68
  -1  -2   1 1482.43   49.58
  -1  -2   1 1534.78   51.36
  -1  -2   1 1542.27   49.38
  -1  -2   1 1504.66   47.89
   0   2  -1 1894.00   59.99
   0   2  -1 1829.32   56.10
   0   2  -1 1872.53   60.25
   0   2  -1 1811.32   57.39
   0   2  -1 1914.52   58.42
   0   2  -1 1894.57   58.07
   0   2  -1 1878.19   58.25
   0  -2   1 1835.33   59.87
   0  -2   1 1748.55   57.73
   0  -2   1 1803.60   57.91
   0  -2   1 1894.13   59.88
   0  -2   1 1865.61   57.54
   0  -2   1 1871.18   58.17
   0  -2   1 1869.43   56.09
  -1   2  -1 9943.58  291.81
  -1   2  -1 9769.06  291.59
  -1   2  -1 9729.15  290.16
  -1   2  -1 9261.54  289.88
  -1   2  -1 9694.68  291.52
  -1   2  -1 9999.00  289.86
  -1   2  -1 9963.88  290.62
  -1   2  -1 9467.61  289.33
   1  -2   1 9634.09  290.71
   1  -2   1 9692.65  291.60
   1  -2   1 9626.80  289.31
   1  -2   1 9852.53  288.42
   1  -2   1 9644.42  289.72
   1  -2   1 9421.80  289.34
   1  -2   1 9641.42  291.48
  -2   2  -1  323.48   12.86
  -2   2  -1  312.94   14.96
  -2   2  -1  333.36   14.05
  -2   2  -1  329.06   14.85
  -2   2  -1  333.08   14.76
  -2   2  -1  304.75   13.13
  -2   2  -1  337.12   11.21
  -2   2  -1  325.86   12.38
   2  -2   1  312.11   15.52
   2  -2   1  342.18   15.14
   2  -2   1  327.23   14.10
   2  -2   1  317.59   14.64
   2  -2   1  312.62   14.65
   2  -2   1  323.14   12.56
   2  -2   1  318.96   14.24
   2  -2   1  343.87   12.11
   2  -2   1  340.85   12.26
  -3   2  -1  559.21   22.41
  -3   2  -1  508.55   20.06
  -3   2  -1  540.97   20.39
  -3   2  -1  558.40   19.00
  -3   2  -1  566.18   20.02
  -3   2  -1  542.75   23.87
  -3   2  -1  544.46   21.93
   3  -2   1  534.38   21.88
   3  -2   1  523.64   21.68
   3  -2   1  537.32   22.45
   3  -2   1  568.60   22.74
   3  -2   1  554.64   22.07
  -4   2  -1  282.63   17.81
  -4   2  -1  249.99   13.45
  -4   2  -1  256.99   13.26
  -4   2  -1  310.73   16.02
  -4   2  -1  261.02   12.03
  -4   2  -1  262.37   12.86
  -4   2  -1  268.81   14.67
   4  -2   1  301.55   16.92
   4  -2   1  257.50   15.39
   4  -2   1  302.85   16.90
   4  -2   1  206.60   14.74
  -5   2  -1  278.29   17.03
  -5   2  -1  227.17   18.53
  -5   2  -1  249.29   14.21
  -5   2  -1  250.11   20.53
  -5   2  -1  266.40   13.94
   5  -2   1  265.49   18.62
   5  -2   1  260.27   19.03
  -6   2  -1    3.10    8.64
  -6   2  -1    2.60    7.10
  -6   2  -1    3.20   11.08
   6  -2   1    7.07   11.08
   6  -2   1   -2.36   11.32
  -7   2  -1    3.33   16.18
   7  -2   1   11.34   15.07
   7  -2   1    5.14   15.46
   7   1  -1   55.20   15.23
   7   1  -1   51.89   14.52
  -7  -1   1   51.35   13.33
  -7  -1   1   43.70   11.71
   6   1  -1  463.48   27.03
   6   1  -1  460.59   25.21
  -6  -1   1  493.18   23.53
  -6  -1   1  472.03   23.55
  -6  -1   1  490.54   25.82
   5   1  -1   14.39    8.11
   5   1  -1   13.86    7.84
   5   1  -1    6.62    9.62
  -5  -1   1   14.30    3.66
  -5  -1   1    9.46    6.68
  -5  -1   1   10.82    2.91
  -5  -1   1   14.16    8.32
  -5  -1   1   11.81    7.53
  -5  -1   1   14.25    6.70
   4   1  -1  821.62   27.06
   4   1  -1  896.23   33.07
   4   1  -1  903.56   31.57
   4   1  -1  798.31   27.01
   4   1  -1  855.50   33.77
   4   1  -1  890.32   32.90
  -4  -1   1  824.43   33.31
  -4  -1   1  918.69   31.61
  -4  -1   1  845.80   31.29
  -4  -1   1  790.52   31.04
  -4  -1   1  879.09   27.05
  -4  -1   1  878.05   33.58
   3   1  -1  536.14   20.87
   3   1  -1  602.50   20.14
   3   1  -1  556.36   23.78
   3   1  -1  588.31   22.46
   3   1  -1  579.41   19.93
   3   1  -1  576.91   22.45
   3   1  -1  571.77   23.79
  -3  -1   1  546.71   23.20
  -3  -1   1  575.22   18.04
  -3  -1   1  538.70   20.50
  -3  -1   1  586.67   23.49
  -3  -1   1  551.00   21.45
  -3  -1   1  541.20   21.01
  -3  -1   1  536.93   21.69
  -3  -1   1  566.87   21.39
   2   1  -1 4831.52  143.20
   2   1  -1 4865.64  143.25
   2   1  -1 4697.31  143.63
   2   1  -1 4732.23  145.49
   2   1  -1 4810.35  143.82
   2   1  -1 4763.25  143.13
   2   1  -1 4685.67  142.57
   2   1  -1 4704.12  145.37
  -2  -1   1 4718.81  143.42
  -2  -1   1 4726.20  143.62
  -2  -1   1 4725.87  143.56
  -2  -1   1 4788.33  145.46
  -2  -1   1 4819.04  143.59
  -2  -1   1 4670.21  145.37
  -2  -1   1 4597.62  140.94
  -2  -1   1 4598.73  142.39
   1   1  -1 2632.94   80.63
   1   1  -1 2635.50   79.63
   1   1  -1 2626.93   80.88
   1   1  -1 2695.62   82.89
   1   1  -1 2670.60   81.28
   1   1  -1 2582.65   79.62
   1   1  -1 2633.49   82.69
   1   1  -1 2555.79   81.16
  -1  -1   1 2663.07   81.32
  -1  -1   1 2704.90   80.88
  -1  -1   1 2652.14   79.65
  -1  -1   1 2743.33   82.92
  -1  -1   1 2723.52   83.03
  -1  -1   1 2784.97   81.49
  -1  -1   1 2617.66   79.63
   0   1  -1  578.71   18.75
   0   1  -1  558.81   18.50
   0   1  -1  557.37   19.70
   0   1  -1  575.60   19.91
   0   1  -1  577.78   18.77
   0   1  -1  572.43   17.65
   0  -1   1  584.17   17.63
   0  -1   1  540.12   18.54
   0  -1   1  572.41   19.77
   0  -1   1  561.76   19.83
   0  -1   1  572.20   18.55
   0  -1   1  557.30   18.74
  -1   1  -1 2973.92   91.95
  -1   1  -1 3051.93   91.95
  -1   1  -1 3105.61   92.24
  -1   1  -1 2894.71   91.53
  -1   1  -1 3077.82   91.70
  -1   1  -1 3039.84   90.83
  -1   1  -1 3011.95   91.20
  -1   1  -1 3046.59   90.88
  -1   1  -1 3009.69   90.95
  -1   1  -1 2976.74   91.90
   1  -1   1 2886.31   90.46
   1  -1   1 3059.41   91.83
   1  -1   1 3095.70   90.65
   1  -1   1 3057.59   91.98
   1  -1   1 2953.20   91.52
   1  -1   1 3073.44   92.44
   1  -1   1 3025.42   90.98
   1  -1   1 3055.85   91.96
  -2   1  -1  204.92    8.28
  -2   1  -1  205.91   10.08
  -2   1  -1  212.59    9.53
  -2   1  -1  222.64   11.33
  -2   1  -1  223.92    9.62
  -2   1  -1  220.26   10.14
  -2   1  -1  214.46   10.45
  -2   1  -1  221.98    8.17
  -2   1  -1  208.76    9.30
  -2   1  -1  230.13   10.26
  -2   1  -1  215.26    8.60
   2  -1   1  231.11   10.78
   2  -1   1  216.66    9.40
   2  -1   1  215.30    9.38
   2  -1   1  227.71   10.70
  -3   1  -1 1016.00   33.87
  -3   1  -1 1017.35   36.44
  -3   1  -1 1051.34   33.61
  -3   1  -1 1014.31   35.36
  -3   1  -1 1119.91   34.64
  -3   1  -1  993.16   36.90
  -3   1  -1 1071.70   35.19
  -3   1  -1 1102.78   35.37
   3  -1   1 1107.69   37.33
   3  -1   1 1092.27   36.98
   3  -1   1 1012.54   34.69
  -4   1  -1  124.09    9.46
  -4   1  -1  138.07    8.99
  -4   1  -1  133.12    8.70
  -4   1  -1  119.71   12.76
  -4   1  -1  133.28    9.65
  -4   1  -1  122.07    7.66
   4  -1   1  124.57   11.58
   4  -1   1  116.52    9.37
   4  -1   1  131.57   11.91
   4  -1   1  122.23    9.33
  -5   1  -1  661.75   24.43
  -5   1  -1  577.13   24.40
  -5   1  -1  658.99   25.21
  -5   1  -1  659.18   25.65
  -5   1  -1  624.48   25.43
  -5   1  -1  658.78   32.22
   5  -1   1  651.23   25.00
   5  -1   1  674.91   29.63
   5  -1   1  645.65   29.10
  -6   1  -1   56.58    9.79
  -6   1  -1   58.36    8.78
  -6   1  -1   94.06   17.03
  -6   1  -1   62.46    9.61
   6  -1   1   50.10   12.27
   6  -1   1   46.31   12.50
  -7   1  -1   25.25   17.04
  -7   1  -1   22.16    9.95
   7  -1   1   28.49   14.58
   7  -1   1   29.93   15.64
   7   0  -1  136.33   19.45
   7   0  -1  133.94   18.95
  -7   0   1  143.79   16.90
  -7   0   1  130.24   14.74
  -7   0   1  108.80   20.46
   6   0  -1  322.65   22.85
   6   0  -1  347.97   23.33
  -6   0   1  350.10   19.09
  -6   0   1  338.78   19.87
  -6   0   1  339.98   21.89
   5   0  -1  928.76   38.90
   5   0  -1  999.58   39.42
   5   0  -1  994.21   37.92
  -5   0   1  945.96   31.39
  -5   0   1  968.16   35.74
  -5   0   1 1051.27   39.42
  -5   0   1  902.67   41.08
  -5   0   1 1003.13   36.52
   4   0  -1  298.90   15.72
   4   0  -1  283.70   16.18
   4   0  -1  270.71   17.16
  -4   0   1  263.53   13.49
  -4   0   1  266.54   10.50
  -4   0   1  283.64   10.83
  -4   0   1  284.15   14.02
  -4   0   1  257.80   14.10
  -4   0   1  272.63   16.18
  -4   0   1  260.81   14.01
  -4   0   1  294.60   16.40
   3   0  -1  364.66   16.22
   3   0  -1  374.49   14.21
   3   0  -1  412.55   18.87
   3   0  -1  391.90   14.32
   3   0  -1  369.12   16.53
   3   0  -1  399.40   17.85
   3   0  -1  375.43   17.85
  -3   0   1  367.28   16.66
  -3   0   1  384.90   15.62
  -3   0   1  401.86   16.04
  -3   0   1  380.34   13.05
  -3   0   1  380.91   16.06
  -3   0   1  389.36   17.84
  -3   0   1  420.69   18.09
  -3   0   1  374.45   15.80
   2   0  -1 1091.00   35.69
   2   0  -1 1096.01   35.09
   2   0  -1 1083.32   37.25
   2   0  -1 1077.10   35.41
   2   0  -1 1113.67   36.19
   2   0  -1 1132.81   37.83
   2   0  -1 1095.17   35.02
  -2   0   1 1134.52   35.76
  -2   0   1 1068.17   33.42
  -2   0   1 1089.28   37.16
  -2   0   1 1089.67   35.71
  -2   0   1 1118.62   37.68
  -2   0   1 1107.82   35.50
  -2   0   1 1070.05   35.94
   1   0  -1  958.83   31.92
   1   0  -1  944.18   30.50
   1   0  -1  967.50   30.23
   1   0  -1  944.43   30.19
   1   0  -1  944.89   31.66
   1   0  -1  994.77   30.72
  -1   0   1  961.99   30.64
  -1   0   1  986.89   30.14
  -1   0   1  933.67   31.65
  -1   0   1  965.28   31.86
  -1   0   1  959.71   30.25
  -1   0   1  949.10   30.56
  -1   0   1  954.85   30.66
   0   0  -1 2264.11   70.36
   0   0  -1 2324.88   71.05
   0   0  -1 2358.43   71.16
   0   0  -1 2399.45   70.06
   0   0  -1 2357.26   70.50
   0   0   1 2377.21   71.19
   0   0   1 2386.66   70.48
   0   0   1 2334.66   70.45
   0   0   1 2320.16   70.02
   0   0   1 2280.52   70.99
  -1   0  -1  385.34   13.18
  -1   0  -1  370.41   13.10
  -1   0  -1  387.61   12.81
  -1   0  -1  376.13   13.06
  -1   0  -1  391.82   12.98
   1   0   1  363.85   12.69
   1   0   1  372.51   13.10
   1   0   1  367.74   12.88
   1   0   1  371.18   13.07
   1   0   1  378.72   13.08
  -2   0  -1 2059.42   63.84
  -2   0  -1 1967.31   63.18
  -2   0  -1 2112.45   61.69
  -2   0  -1 2055.14   63.80
  -2   0  -1 1995.25   63.75
  -2   0  -1 1993.77   63.86
  -2   0  -1 2064.77   62.82
  -2   0  -1 2069.49   61.67
   2   0   1 1949.62   63.63
   2   0   1 2004.03   63.79
   2   0   1 2054.71   63.41
   2   0   1 2117.77   64.20
   2   0   1 2037.43   63.72
  -3   0  -1  715.13   22.90
  -3   0  -1  674.40   26.49
  -3   0  -1  714.73   22.95
  -3   0  -1  716.67   26.17
  -3   0  -1  694.44   26.35
  -3   0  -1  713.30   26.55
  -3   0  -1  696.21   24.05
  -3   0  -1  752.32   26.08
  -3   0  -1  721.29   24.07
  -3   0  -1  749.16   25.25
   3   0   1  725.43   26.95
   3   0   1  729.35   26.38
   3   0   1  700.34   23.79
   3   0   1  738.89   26.91
   3   0   1  739.57   23.99
  -4   0  -1  949.08   30.56
  -4   0  -1  897.79   30.50
  -4   0  -1  924.54   31.69
  -4   0  -1  932.28   31.59
  -4   0  -1  936.60   32.75
   4   0   1  940.04   31.09
   4   0   1  939.02   34.97
   4   0   1  950.48   34.62
   4   0   1  877.21   30.77
  -5   0  -1  143.67   10.66
  -5   0  -1  130.83   10.35
  -5   0  -1  130.89   10.46
  -5   0  -1  112.17    9.91
  -5   0  -1  152.62   10.24
  -5   0  -1  130.79   11.05
   5   0   1  131.95   10.27
   5   0   1  129.94   13.07
   5   0   1  154.51   13.89
  -6   0  -1   56.27    8.48
  -6   0  -1   55.21   15.06
  -6   0  -1   41.93    8.80
  -6   0  -1   48.27    8.34
   6   0   1   38.55   11.08
   6   0   1   78.34   13.44
  -7   0  -1   90.16   12.02
  -7   0  -1   86.58   20.63
   7   0   1   92.60   16.32
   7   0   1   82.55   16.68
   7  -1  -1  256.82   24.53
   7  -1  -1  314.61   28.36
  -7   1   1  285.61   29.59
  -7   1   1  303.98   24.29
  -7   1   1  290.06   20.28
   6  -1  -1   25.97   12.75
   6  -1  -1   32.34   12.18
  -6   1   1   26.60   10.15
  -6   1   1   39.55    8.78
  -6   1   1   15.63   12.87
  -6   1   1   20.41   10.24
   5  -1  -1 1371.87   66.19
   5  -1  -1 1633.73   57.34
   5  -1  -1 1600.50   55.56
  -5   1   1 1601.92   53.43
  -5   1   1 1435.74   58.54
  -5   1   1 1574.28   52.18
  -5   1   1 1554.79   56.06
   4  -1  -1   47.80    8.34
   4  -1  -1   60.84    9.05
   4  -1  -1   54.26    4.67
   4  -1  -1   59.90    9.81
  -4   1   1   68.45    7.15
  -4   1   1   59.80    5.53
  -4   1   1   49.10    9.34
  -4   1   1   52.91    9.03
  -4   1   1   62.92    7.74
  -4   1   1   63.34    9.06
   3  -1  -1  558.50   24.25
   3  -1  -1  567.43   20.00
   3  -1  -1  581.99   22.30
   3  -1  -1  541.72   23.68
   3  -1  -1  592.13   23.10
   3  -1  -1  524.11   21.16
   3  -1  -1  569.45   19.93
  -3   1   1  567.34   23.47
  -3   1   1  532.31   19.04
  -3   1   1  564.45   21.67
  -3   1   1  572.49   20.57
  -3   1   1  587.08   23.94
  -3   1   1  549.15   21.06
   2  -1  -1  486.65   18.62
   2  -1  -1  483.90   17.67
   2  -1  -1  457.60   19.72
   2  -1  -1  481.25   17.35
   2  -1  -1  463.45   20.00
   2  -1  -1  489.56   17.47
  -2   1   1  497.60   19.87
  -2   1   1  484.87   16.93
  -2   1   1  474.06   18.11
  -2   1   1  496.25   19.96
  -2   1   1  487.21   20.32
  -2   1   1  477.14   16.29
  -2   1   1  483.42   18.59
  -2   1   1  487.76   17.73
   1  -1  -1 6264.60  187.95
   1  -1  -1 6096.73  185.94
   1  -1  -1 6143.61  185.08
   1  -1  -1 6173.32  185.07
   1  -1  -1 6632.88  186.42
  -1   1   1 6071.38  187.00
  -1   1   1 6128.85  186.11
  -1   1   1 6281.65  187.89
  -1   1   1 6244.36  184.96
  -1   1   1 6053.23  186.20
  -1   1   1 6097.39  185.04
   0  -1  -1  781.96   24.60
   0  -1  -1  804.48   25.12
   0  -1  -1  761.48   25.88
   0  -1  -1  771.93   24.05
   0  -1  -1  794.90   24.91
   0  -1  -1  764.21   24.33
   0   1   1  769.25   24.51
   0   1   1  777.50   24.84
   0   1   1  760.90   25.83
   0   1   1  773.46   25.97
   0   1   1  787.31   25.06
   0   1   1  796.42   24.36
  -1  -1  -1 1639.56   49.72
  -1  -1  -1 1663.91   50.69
  -1  -1  -1 1611.65   50.11
  -1  -1  -1 1641.90   50.62
  -1  -1  -1 1633.19   50.69
  -1  -1  -1 1623.33   50.19
  -1  -1  -1 1656.47   50.38
  -1  -1  -1 1644.91   49.78
  -1  -1  -1 1604.45   49.91
   1   1   1 1637.29   49.90
   1   1   1 1647.87   50.66
   1   1   1 1646.60   50.13
   1   1   1 1621.37   50.44
   1   1   1 1546.89   50.27
   1   1   1 1655.26   49.51
   1   1   1 1666.64   49.59
   1   1   1 1662.01   50.65
   1   1   1 1644.36   50.32
  -2  -1  -1 2199.74   65.53
  -2  -1  -1 2179.20   67.48
  -2  -1  -1 2174.89   66.66
  -2  -1  -1 2214.19   66.82
  -2  -1  -1 2214.71   67.48
  -2  -1  -1 2137.62   67.45
  -2  -1  -1 2146.38   67.41
  -2  -1  -1 2118.94   67.73
  -2  -1  -1 2157.68   65.59
  -2  -1  -1 2203.70   66.93
  -2  -1  -1 2180.57   67.69
   2   1   1 2121.46   67.92
   2   1   1 2227.22   67.86
   2   1   1 2194.35   66.58
   2   1   1 2113.99   66.81
   2   1   1 2182.40   67.52
   2   1   1 2157.19   67.37
  -3  -1  -1 1155.17   39.53
  -3  -1  -1 1236.90   38.55
  -3  -1  -1 1215.95   37.04
  -3  -1  -1 1198.82   38.28
  -3  -1  -1 1187.92   40.34
  -3  -1  -1 1199.11   38.25
  -3  -1  -1 1126.32   39.82
  -3  -1  -1 1134.25   39.35
  -3  -1  -1 1197.00   37.10
  -3  -1  -1 1109.64   39.50
  -3  -1  -1 1182.37   39.39
   3   1   1 1156.62   37.93
   3   1   1 1172.52   39.99
   3   1   1 1185.59   37.94
   3   1   1 1167.54   39.51
   3   1   1 1215.33   40.55
  -4  -1  -1  715.72   25.76
  -4  -1  -1  688.46   24.39
  -4  -1  -1  721.32   25.26
  -4  -1  -1  714.34   26.96
  -4  -1  -1  734.56   24.46
  -4  -1  -1  715.36   25.59
   4   1   1  740.44   28.78
   4   1   1  676.62   24.92
   4   1   1  705.66   27.55
   4   1   1  722.25   28.11
   4   1   1  679.35   25.09
  -5  -1  -1  107.63   10.24
  -5  -1  -1  111.78   10.71
  -5  -1  -1  115.25    9.07
  -5  -1  -1  117.40    9.45
  -5  -1  -1  105.86   10.11
  -5  -1  -1  110.74    9.97
   5   1   1  112.90   10.96
   5   1   1   76.25   11.45
   5   1   1  110.92   11.60
   5   1   1  141.27   12.95
  -6  -1  -1  172.41   13.97
  -6  -1  -1  153.30   13.49
  -6  -1  -1  161.32   11.66
  -6  -1  -1  153.15   12.73
   6   1   1  155.55   15.25
   6   1   1  175.11   16.79
  -7  -1  -1  116.97   13.65
   7   1   1  132.86   17.31
   7   1   1  114.16   16.95
   7  -2  -1   56.98   17.55
   7  -2  -1   74.95   19.01
  -7   2   1   44.44   11.73
  -7   2   1   76.70   20.65
  -7   2   1   63.57   16.00
   6  -2  -1  411.91   27.77
   6  -2  -1  426.06   28.45
  -6   2   1  427.86   23.52
  -6   2   1  410.40   20.78
  -6   2   1  442.29   31.76
  -6   2   1  429.43   26.08
   5  -2  -1  260.28   19.10
   5  -2  -1  283.76   20.63
  -5   2   1  260.36   21.97
  -5   2   1  241.04   14.37
  -5   2   1  238.53   18.96
  -5   2   1  273.70   16.49
   4  -2  -1   -0.74    3.88
   4  -2  -1    2.90    7.07
   4  -2  -1   -0.07    6.11
   4  -2  -1    1.07    8.71
   4  -2  -1    0.58    3.91
  -4   2   1   -1.57    6.13
  -4   2   1   -0.13    5.32
  -4   2   1   -0.81    4.16
  -4   2   1    1.47    6.99
  -4   2   1   -0.68    6.37
  -4   2   1    1.40    4.03
   3  -2  -1 1866.49   61.04
   3  -2  -1 1773.72   58.40
   3  -2  -1 1964.62   61.30
   3  -2  -1 1909.91   58.57
   3  -2  -1 1907.16   63.18
  -3   2   1 1941.11   62.95
  -3   2   1 1898.67   59.85
  -3   2   1 1776.09   57.61
  -3   2   1 1775.54   62.92
  -3   2   1 1694.15   58.35
  -3   2   1 1730.87   57.92
  -3   2   1 1830.43   62.76
   2  -2  -1  686.78   27.65
   2  -2  -1  723.89   24.87
   2  -2  -1  683.92   25.02
   2  -2  -1  675.27   22.97
   2  -2  -1  673.52   24.21
   2  -2  -1  649.03   26.79
  -2   2   1  708.04   27.16
  -2   2   1  709.43   24.68
  -2   2   1  678.91   24.87
  -2   2   1  659.32   26.18
  -2   2   1  666.13   23.35
  -2   2   1  689.25   22.57
  -2   2   1  706.36   27.72
   1  -2  -1 1096.71   38.78
   1  -2  -1 1185.97   38.09
   1  -2  -1 1178.57   38.50
   1  -2  -1 1140.41   40.15
   1  -2  -1 1158.52   40.43
   1  -2  -1 1206.95   36.13
   1  -2  -1 1156.40   37.32
  -1   2   1 1169.90   40.36
  -1   2   1 1149.16   38.52
  -1   2   1 1124.15   37.14
  -1   2   1 1190.79   38.09
  -1   2   1 1189.15   40.41
  -1   2   1 1136.53   38.26
  -1   2   1 1222.65   36.09
   0  -2  -1 2360.58   71.59
   0  -2  -1 2298.07   71.91
   0  -2  -1 2199.72   71.34
   0  -2  -1 2383.06   72.46
   0  -2  -1 2354.94   73.87
   0  -2  -1 2387.83   74.01
   0   2   1 2329.64   71.57
   0   2   1 2366.07   73.84
   0   2   1 2364.12   72.04
   0   2   1 2346.36   73.90
   0   2   1 2267.50   71.47
   0   2   1 2281.91   72.09
  -1  -2  -1 7166.81  217.55
  -1  -2  -1 7291.29  219.36
  -1  -2  -1 7137.00  216.73
  -1  -2  -1 7261.24  219.41
  -1  -2  -1 7339.01  217.69
  -1  -2  -1 7448.01  219.49
  -1  -2  -1 7369.49  217.92
  -1  -2  -1 7202.30  216.32
  -1  -2  -1 7284.19  217.72
   1   2   1 7224.66  217.69
   1   2   1 7213.20  219.40
   1   2   1 7060.82  217.56
   1   2   1 7136.11  219.14
   1   2   1 7278.06  217.52
   1   2   1 7258.47  219.20
   1   2   1 7451.32  216.99
  -2  -2  -1  282.57   12.71
  -2  -2  -1  279.82   12.71
  -2  -2  -1  261.59   11.27
  -2  -2  -1  267.80   10.95
  -2  -2  -1  264.46   10.74
  -2  -2  -1  272.26   11.35
  -2  -2  -1  258.92   11.77
  -2  -2  -1  235.39   11.32
  -2  -2  -1  278.11   11.35
   2   2   1  274.44   11.99
   2   2   1  272.97   11.60
   2   2   1  275.24   11.03
   2   2   1  271.58   11.37
   2   2   1  259.07   10.06
   2   2   1  262.82   12.50
   2   2   1  261.80   12.44
   2   2   1  267.22   12.75
   2   2   1  266.59   10.14
  -3  -2  -1  847.99   34.48
  -3  -2  -1  963.25   32.66
  -3  -2  -1 1020.42   31.33
  -3  -2  -1  920.24   34.78
  -3  -2  -1  872.53   31.87
  -3  -2  -1  960.43   32.68
  -3  -2  -1  878.74   30.46
  -3  -2  -1  914.74   32.49
  -3  -2  -1  902.60   30.88
  -3  -2  -1  965.01   32.60
  -3  -2  -1  886.98   31.82
   3   2   1  933.40   32.38
   3   2   1  945.63   32.09
   3   2   1  942.99   32.56
   3   2   1  950.64   33.22
   3   2   1  869.52   31.23
   3   2   1  932.02   32.53
  -4  -2  -1  320.69   15.09
  -4  -2  -1  306.62   13.64
  -4  -2  -1  282.84   13.12
  -4  -2  -1  306.66   15.38
  -4  -2  -1  298.57   13.37
  -4  -2  -1  288.33   15.18
   4   2   1  289.58   15.34
   4   2   1  291.76   15.22
   4   2   1  309.16   16.52
  -5  -2  -1   83.75    9.66
  -5  -2  -1   75.30    9.53
  -5  -2  -1   85.53    8.26
  -5  -2  -1   57.33    7.82
  -5  -2  -1   95.48   10.26
  -5  -2  -1   79.28    7.86
   5   2   1   87.76   11.81
   5   2   1   83.05   10.69
   5   2   1   67.57    8.44
  -6  -2  -1  234.07   13.34
  -6  -2  -1  251.51   17.80
  -6  -2  -1  240.23   15.17
  -6  -2  -1  245.18   16.13
   6   2   1  248.90   19.11
   6   2   1  227.53   19.59
  -7  -2  -1   47.16   11.99
   7   2   1   36.51   16.34
   7   2   1   51.20   14.27
   6  -3  -1  256.41   23.98
   6  -3  -1  307.44   24.97
  -6   3   1  275.50   26.88
  -6   3   1  283.50   24.21
  -6   3   1  237.34   16.10
   5  -3  -1   63.27   12.79
   5  -3  -1   71.79   12.45
  -5   3   1   77.67    8.01
  -5   3   1   81.89   13.64
  -5   3   1   70.04   13.72
  -5   3   1   54.02   10.55
   4  -3  -1 1764.21   60.61
   4  -3  -1 1774.67   54.95
   4  -3  -1 1716.70   59.73
   4  -3  -1 1674.76   61.83
  -4   3   1 1595.69   61.19
  -4   3   1 1762.62   62.40
  -4   3   1 1723.94   58.13
  -4   3   1 1653.75   54.45
  -4   3   1 1665.05   61.60
   3  -3  -1    5.53    4.67
   3  -3  -1    2.98    5.58
   3  -3  -1    5.02    5.96
   3  -3  -1    1.53    7.69
   3  -3  -1    5.85    5.46
   3  -3  -1    5.78    5.32
  -3   3   1    7.75    3.69
  -3   3   1    5.87    5.19
  -3   3   1    7.98    6.46
  -3   3   1    4.77    6.65
  -3   3   1    5.92    3.90
  -3   3   1    9.49    4.87
  -3   3   1    4.76    5.69
   2  -3  -1 6014.91  184.20
   2  -3  -1 5816.45  177.55
   2  -3  -1 6139.08  180.02
   2  -3  -1 6087.04  180.44
  -2   3   1 5572.98  180.87
  -2   3   1 5857.13  179.55
  -2   3   1 5957.27  184.28
  -2   3   1 5842.60  177.49
  -2   3   1 5696.90  180.61
  -2   3   1 5962.64  182.34
  -2   3   1 5890.05  184.01
  -2   3   1 6173.50  177.51
   1  -3  -1  667.36   27.29
   1  -3  -1  632.65   23.48
   1  -3  -1  671.00   22.55
   1  -3  -1  630.23   26.46
   1  -3  -1  657.08   20.85
   1  -3  -1  614.11   24.21
   1  -3  -1  680.57   24.41
   1  -3  -1  594.75   23.11
  -1   3   1  671.07   24.15
  -1   3   1  667.47   26.95
  -1   3   1  616.87   23.95
  -1   3   1  611.26   26.27
  -1   3   1  656.21   23.72
  -1   3   1  637.58   23.28
   0  -3  -1   90.08    9.36
   0  -3  -1   63.17    6.02
   0  -3  -1   75.39    6.39
   0  -3  -1   80.67    7.20
   0  -3  -1   52.60    7.01
   0  -3  -1   65.63    6.36
   0  -3  -1   86.04    9.60
   0   3   1   70.75    8.26
   0   3   1   62.86    7.56
   0   3   1   70.90    5.90
   0   3   1   82.25    6.10
   0   3   1   74.86    6.36
   0   3   1   83.54    7.16
  -1  -3  -1 2123.67   69.36
  -1  -3  -1 2211.93   69.71
  -1  -3  -1 2050.16   66.53
  -1  -3  -1 2093.32   64.44
  -1  -3  -1 2124.74   63.15
  -1  -3  -1 2180.67   67.19
  -1  -3  -1 2146.60   69.54
  -1  -3  -1 2029.28   66.12
  -1  -3  -1 2201.04   66.22
   1   3   1 2124.52   66.55
   1   3   1 2022.32   68.61
   1   3   1 2108.02   66.39
   1   3   1 2057.07   69.05
   1   3   1 2009.29   65.84
   1   3   1 2111.71   66.70
  -2  -3  -1 2287.00   74.66
  -2  -3  -1 2336.87   73.97
  -2  -3  -1 2348.47   74.12
  -2  -3  -1 2371.48   74.38
  -2  -3  -1 2350.00   72.05
  -2  -3  -1 2419.67   76.68
  -2  -3  -1 2374.49   73.61
  -2  -3  -1 2458.70   77.12
  -2  -3  -1 2326.28   73.34
  -2  -3  -1 2209.63   72.72
   2   3   1 2294.97   76.08
   2   3   1 2334.74   76.34
   2   3   1 2357.55   72.05
   2   3   1 2321.30   73.33
   2   3   1 2477.03   73.68
   2   3   1 2291.83   73.61
   2   3   1 2369.71   76.59
   2   3   1 2430.54   73.94
  -3  -3  -1  370.57   17.72
  -3  -3  -1  388.78   16.11
  -3  -3  -1  346.66   17.45
  -3  -3  -1  346.72   15.29
  -3  -3  -1  328.56   15.48
  -3  -3  -1  350.77   16.07
  -3  -3  -1  351.64   15.31
  -3  -3  -1  383.41   15.17
   3   3   1  349.09   17.84
   3   3   1  363.61   13.87
   3   3   1  358.01   18.03
   3   3   1  380.38   17.23
   3   3   1  362.89   15.92
   3   3   1  378.20   18.03
   3   3   1  355.65   15.14
   3   3   1  363.69   13.97
   3   3   1  345.20   15.33
  -4  -3  -1   72.37    7.13
  -4  -3  -1   66.72    8.19
  -4  -3  -1   78.90    8.43
  -4  -3  -1   72.01    9.16
  -4  -3  -1   73.14    8.30
  -4  -3  -1   72.49    8.88
   4   3   1   81.83    8.54
   4   3   1   77.32    9.87
   4   3   1   72.11    9.65
   4   3   1   55.45    7.84
   4   3   1   60.17    8.24
  -5  -3  -1  647.17   26.22
  -5  -3  -1  688.95   28.28
  -5  -3  -1  638.52   24.71
  -5  -3  -1  674.87   28.78
  -5  -3  -1  660.57   28.41
   5   3   1  605.40   29.15
   5   3   1  666.23   28.68
   5   3   1  699.74   28.39
  -6  -3  -1   28.54    9.21
  -6  -3  -1   15.14    7.68
  -6  -3  -1   19.82    8.30
  -6  -3  -1   14.56    6.89
   6   3   1   23.39    9.48
   6   3   1   19.88   11.25
  -7  -3  -1  198.10   18.00
  -7  -3  -1  163.09   17.29
   7   3   1  191.18   23.01
   7   3   1  211.29   19.87
   6  -4  -1  103.95   18.88
   6  -4  -1  134.12   19.66
  -6   4   1  143.98   20.10
  -6   4   1  122.16   20.20
   5  -4  -1  390.56   25.08
   5  -4  -1  403.04   25.44
  -5   4   1  382.32   26.47
  -5   4   1  384.70   22.28
  -5   4   1  386.53   26.61
  -5   4   1  359.15   17.38
   4  -4  -1  571.99   27.53
   4  -4  -1  535.56   31.13
   4  -4  -1  531.09   22.88
   4  -4  -1  570.34   27.10
  -4   4   1  572.07   29.09
  -4   4   1  585.49   30.11
  -4   4   1  532.18   20.63
  -4   4   1  562.35   25.19
   3  -4  -1  188.85   14.36
   3  -4  -1  191.43   18.98
   3  -4  -1  191.45   13.26
   3  -4  -1  166.92   12.82
   3  -4  -1  178.82   10.29
  -3   4   1  188.63   12.71
  -3   4   1  188.00   16.74
  -3   4   1  197.63    8.97
  -3   4   1  163.83   17.47
  -3   4   1  167.15    9.45
  -3   4   1  166.52   14.37
   2  -4  -1  814.77   30.48
   2  -4  -1  809.09   29.13
   2  -4  -1  797.12   29.57
   2  -4  -1  834.14   34.96
   2  -4  -1  734.46   29.44
   2  -4  -1  777.50   25.69
  -2   4   1  800.99   33.92
  -2   4   1  764.38   29.74
  -2   4   1  740.62   33.45
  -2   4   1  770.55   30.65
  -2   4   1  793.46   25.42
  -2   4   1  780.53   25.02
   1  -4  -1   46.28    6.85
   1  -4  -1   50.86    4.35
   1  -4  -1   46.44    5.35
   1  -4  -1   41.86    8.70
   1  -4  -1   42.49    8.63
   1  -4  -1   41.01    7.11
   1  -4  -1   63.67    7.40
   1  -4  -1   39.87    7.44
  -1   4   1   66.22    7.67
  -1   4   1   71.41    8.52
  -1   4   1   62.37   10.20
  -1   4   1   45.45    6.50
  -1   4   1   63.62   10.64
   0  -4  -1  877.60   35.86
   0  -4  -1  896.47   32.87
   0  -4  -1  846.36   31.87
   0  -4  -1  849.87   31.83
   0  -4  -1  911.81   28.10
   0  -4  -1  939.56   31.38
   0  -4  -1  896.58   35.90
   0   4   1  906.55   31.52
   0   4   1  900.26   32.22
   0   4   1  850.25   35.01
   0   4   1  890.83   32.70
   0   4   1  900.74   31.41
  -1  -4  -1  544.19   24.76
  -1  -4  -1  492.87   20.65
  -1  -4  -1  499.66   21.43
  -1  -4  -1  516.19   24.31
  -1  -4  -1  519.22   17.74
  -1  -4  -1  494.45   20.30
  -1  -4  -1  530.41   20.46
   1   4   1  531.74   20.29
   1   4   1  527.08   23.95
   1   4   1  493.31   23.65
   1   4   1  528.67   20.74
   1   4   1  486.63   20.80
   1   4   1  534.48   20.74
  -2  -4  -1  325.96   18.64
  -2  -4  -1  327.95   15.99
  -2  -4  -1  335.54   14.95
  -2  -4  -1  318.80   15.39
  -2  -4  -1  379.72   16.00
  -2  -4  -1  306.75   15.24
  -2  -4  -1  352.44   19.04
   2   4   1  320.14   15.06
   2   4   1  341.65   13.99
   2   4   1  291.24   14.47
   2   4   1  339.75   16.18
   2   4   1  336.04   18.93
   2   4   1  341.73   15.09
  -3  -4  -1   71.97    9.94
  -3  -4  -1   81.12    8.26
  -3  -4  -1   73.13    8.52
  -3  -4  -1   80.43   10.29
  -3  -4  -1   55.58    7.15
   3   4   1   76.50    7.56
   3   4   1   74.04    7.38
   3   4   1   77.91   10.87
   3   4   1   77.93    8.63
   3   4   1   72.50    6.68
   3   4   1   88.01    9.48
   3   4   1   95.05    8.49
  -4  -4  -1   56.17    7.41
  -4  -4  -1   49.51    9.69
  -4  -4  -1   35.49    7.14
  -4  -4  -1   52.98    9.20
  -4  -4  -1   49.56    8.14
   4   4   1   48.38    5.73
   4   4   1   39.24    9.25
   4   4   1   42.46    8.87
   4   4   1   51.85    5.93
   4   4   1   33.98    6.91
   4   4   1   47.08    6.87
  -5  -4  -1   72.79   10.63
  -5  -4  -1   62.00    8.47
  -5  -4  -1   77.26   10.93
  -5  -4  -1   75.88   10.47
   5   4   1   71.87    9.62
   5   4   1   61.88   11.67
   5   4   1   77.00   12.79
  -6  -4  -1   31.65    9.94
  -6  -4  -1   17.57    9.15
  -6  -4  -1   39.53   10.01
  -6  -4  -1   28.54    8.90
   6   4   1   26.87   11.87
   6   4   1   32.88    9.86
  -7  -4  -1  263.08   21.80
  -7  -4  -1  244.83   21.48
   7   4   1  245.91   21.58
   7   4   1  248.53   25.59
   6  -5  -1   12.76   16.26
   6  -5  -1    6.10   16.19
  -6   5   1    4.15   15.07
  -6   5   1    8.80   16.58
   5  -5  -1  280.13   23.89
   5  -5  -1  238.18   21.79
  -5   5   1  269.69   20.54
  -5   5   1  270.58   24.84
  -5   5   1  285.26   26.60
   4  -5  -1   74.49   16.91
   4  -5  -1   60.62   10.24
   4  -5  -1   72.59   16.70
   4  -5  -1  108.43   14.44
   4  -5  -1   68.46   12.21
  -4   5   1   85.91   13.35
  -4   5   1   83.35    6.98
  -4   5   1   97.98   16.59
  -4   5   1   84.27   12.71
   3  -5  -1  865.33   32.47
   3  -5  -1  801.20   38.93
   3  -5  -1  788.53   38.78
   3  -5  -1  776.46   26.71
  -3   5   1  732.47   25.71
  -3   5   1  845.86   38.62
  -3   5   1  662.93   36.12
  -3   5   1  799.25   32.04
   2  -5  -1  646.90   25.49
   2  -5  -1  618.32   27.45
   2  -5  -1  644.18   32.58
   2  -5  -1  692.76   27.49
   2  -5  -1  648.36   32.35
  -2   5   1  606.58   31.38
  -2   5   1  618.65   31.49
  -2   5   1  649.50   27.41
  -2   5   1  680.69   27.99
   1  -5  -1 1131.35   37.43
   1  -5  -1 1189.09   39.33
   1  -5  -1 1219.70   43.70
   1  -5  -1 1145.31   46.82
   1  -5  -1 1171.39   47.03
   1  -5  -1 1188.26   42.07
  -1   5   1 1215.89   43.29
  -1   5   1 1180.84   47.38
  -1   5   1 1272.09   43.35
   0  -5  -1 1119.33   35.43
   0  -5  -1 1166.94   46.03
   0  -5  -1 1109.03   45.32
   0  -5  -1 1154.97   40.09
   0  -5  -1 1110.62   41.49
   0   5   1 1146.63   45.37
   0   5   1 1130.62   40.23
   0   5   1 1120.79   40.60
  -1  -5  -1 1427.35   55.41
  -1  -5  -1 1517.48   50.44
  -1  -5  -1 1469.94   56.03
  -1  -5  -1 1499.74   52.15
  -1  -5  -1 1485.74   46.69
   1   5   1 1492.03   50.84
   1   5   1 1512.25   55.65
   1   5   1 1499.46   50.93
  -2  -5  -1  733.47   28.12
  -2  -5  -1  691.91   32.59
  -2  -5  -1  763.43   27.57
  -2  -5  -1  752.14   29.88
  -2  -5  -1  764.45   33.42
   2   5   1  737.23   28.58
   2   5   1  667.18   32.36
   2   5   1  761.41   29.54
   2   5   1  725.02   30.11
   2   5   1  725.07   25.96
  -3  -5  -1   37.59    7.88
  -3  -5  -1   29.42    8.04
  -3  -5  -1   30.40    6.42
  -3  -5  -1   32.64    9.20
  -3  -5  -1   26.58    9.79
   3   5   1   27.87    9.15
   3   5   1   42.62    8.15
   3   5   1   38.55    7.04
   3   5   1   43.74    6.56
   3   5   1   43.56    4.71
  -4  -5  -1  546.71   22.69
  -4  -5  -1  567.94   27.89
  -4  -5  -1  515.93   28.56
  -4  -5  -1  565.32   24.97
  -4  -5  -1  540.28   24.36
   4   5   1  516.45   21.76
   4   5   1  532.65   23.08
   4   5   1  505.54   27.20
   4   5   1  525.70   21.08
   4   5   1  552.94   25.60
   4   5   1  496.48   21.42
  -5  -5  -1    8.53    7.04
  -5  -5  -1   15.63    8.68
  -5  -5  -1   14.38    7.91
  -5  -5  -1   11.36    8.12
   5   5   1   26.96    7.13
   5   5   1   12.22    9.39
  -6  -5  -1   56.08   12.23
  -6  -5  -1   49.50   11.27
  -6  -5  -1   56.36   11.92
   6   5   1   50.40   10.20
   6   5   1   42.79   13.64
  -7  -5  -1   52.32   13.77
  -7  -5  -1   35.40   12.87
   7   5   1   37.47   12.36
   7   5   1   36.52   17.23
   5  -6  -1   64.91   16.32
   5  -6  -1   79.76   17.99
  -5   6   1   65.69   16.40
  -5   6   1   75.88   15.63
  -5   6   1   53.43   18.00
   4  -6  -1   45.11   12.60
   4  -6  -1   37.67   12.52
   4  -6  -1   35.46   10.55
  -4   6   1   49.70   13.68
  -4   6   1   52.20   11.75
  -4   6   1   67.75   16.92
   3  -6  -1  474.63   33.93
   3  -6  -1  507.62   25.41
   3  -6  -1  513.45   33.91
   3  -6  -1  497.26   24.81
  -3   6   1  518.07   26.80
  -3   6   1  545.85   32.81
  -3   6   1  526.38   26.00
   2  -6  -1   -3.49   11.45
   2  -6  -1    9.55    7.98
   2  -6  -1    2.39    8.47
   2  -6  -1    3.02    3.65
   2  -6  -1    2.43    6.79
   2  -6  -1    1.77   11.04
  -2   6   1    3.09    6.01
  -2   6   1    7.45    7.50
  -2   6   1    2.82    9.88
   1  -6  -1  529.40   30.99
   1  -6  -1  503.75   19.68
   1  -6  -1  520.92   30.61
   1  -6  -1  564.09   25.14
   1  -6  -1  465.67   17.82
   1  -6  -1  490.47   25.47
  -1   6   1  515.04   30.01
  -1   6   1  533.21   24.00
  -1   6   1  486.99   23.83
   0  -6  -1  134.55   12.31
   0  -6  -1  138.38    6.86
   0  -6  -1  190.09   19.14
   0  -6  -1  114.74   13.07
   0  -6  -1  151.63   17.37
   0   6   1  142.91   11.64
   0   6   1  139.51   12.42
   0   6   1  141.02   16.96
  -1  -6  -1  269.28   15.77
  -1  -6  -1  287.21   17.83
  -1  -6  -1  247.95   11.11
  -1  -6  -1  256.80   20.53
   1   6   1  265.17   15.46
   1   6   1  260.88   15.86
   1   6   1  251.20   20.47
  -2  -6  -1  111.16    8.85
  -2  -6  -1  128.76   11.59
  -2  -6  -1  105.52   14.49
  -2  -6  -1  103.32    9.54
  -2  -6  -1  102.92   11.96
   2   6   1  134.89   17.20
   2   6   1   95.59   10.64
   2   6   1   98.93   10.20
   2   6   1  112.68    8.37
  -3  -6  -1  203.54   14.31
  -3  -6  -1  193.19   13.84
  -3  -6  -1  192.37   18.93
  -3  -6  -1  201.66   15.45
   3   6   1  203.89   14.41
   3   6   1  206.58   12.28
   3   6   1  202.98   20.35
  -4  -6  -1  613.10   25.19
  -4  -6  -1  515.07   31.83
  -4  -6  -1  624.44   31.70
  -4  -6  -1  582.79   27.96
  -4  -6  -1  612.92   26.79
   4   6   1  566.65   27.48
   4   6   1  584.89   32.57
   4   6   1  592.58   25.55
   4   6   1  565.80   24.54
   4   6   1  550.04   21.68
  -5  -6  -1   37.86   11.43
  -5  -6  -1   42.84   10.09
  -5  -6  -1   43.75   11.24
  -5  -6  -1   43.92   10.35
   5   6   1   37.71    7.68
   5   6   1   38.80   12.83
   5   6   1   41.02   12.99
  -6  -6  -1   65.91   14.09
  -6  -6  -1   61.30   12.27
  -6  -6  -1   76.90   14.15
   6   6   1   57.09   16.01
   6   6   1   57.46   10.95
  -7  -6  -1   50.84   14.29
  -7  -6  -1   32.51   13.42
   7   6   1   28.41   18.56
   5  -7  -1   30.54   16.84
   5  -7  -1   29.18   16.56
  -5   7   1   29.76   15.31
  -5   7   1   42.26   20.27
  -5   7   1   35.16   14.20
   4  -7  -1   72.74   15.71
   4  -7  -1   77.91   15.30
   4  -7  -1   76.78   19.31
  -4   7   1  121.43   22.99
  -4   7   1   84.35   16.50
  -4   7   1  114.81   17.18
   3  -7  -1   31.23   12.02
   3  -7  -1   39.96   18.67
   3  -7  -1   26.96   17.04
   3  -7  -1   41.00   11.42
  -3   7   1   51.97   17.28
  -3   7   1   58.04   13.52
  -3   7   1   48.66   12.09
   2  -7  -1  741.95   42.23
   2  -7  -1  730.53   33.93
   2  -7  -1  680.53   32.92
   2  -7  -1  725.99   29.02
   2  -7  -1  641.58   39.38
  -2   7   1  712.05   32.53
  -2   7   1  716.03   32.62
  -2   7   1  702.83   38.81
   1  -7  -1  163.70   16.51
   1  -7  -1  122.59   18.40
   1  -7  -1  164.93   21.51
   1  -7  -1  129.27   10.46
   1  -7  -1  142.32   15.93
  -1   7   1  171.34   16.22
  -1   7   1  195.30   22.37
  -1   7   1  150.18   14.10
   0  -7  -1  330.95   19.75
   0  -7  -1  323.52   26.92
   0  -7  -1  303.00   20.40
   0   7   1  331.99   19.25
   0   7   1  356.21   20.05
   0   7   1  333.49   25.74
  -1  -7  -1  859.31   29.32
  -1  -7  -1  865.01   42.59
  -1  -7  -1  876.01   32.00
  -1  -7  -1  841.28   37.20
  -1  -7  -1  875.04   35.28
   1   7   1  895.87   36.35
   1   7   1  957.63   36.43
   1   7   1  888.18   42.30
  -2  -7  -1  119.94   10.13
  -2  -7  -1  128.30   11.05
  -2  -7  -1  134.05   15.27
  -2  -7  -1  120.51   13.16
  -2  -7  -1  161.49   19.16
   2   7   1  167.11   20.83
   2   7   1  131.40   13.16
   2   7   1  129.67    9.46
   2   7   1  129.52   13.54
  -3  -7  -1  414.45   21.17
  -3  -7  -1  402.59   27.87
  -3  -7  -1  446.74   21.93
  -3  -7  -1  409.50   23.38
   3   7   1  415.81   18.93
   3   7   1  369.89   28.36
   3   7   1  384.43   21.40
  -4  -7  -1   44.82   12.54
  -4  -7  -1   51.67   10.27
  -4  -7  -1   64.35   12.66
  -4  -7  -1   60.48   11.69
   4   7   1   88.36   12.59
   4   7   1   53.57   12.17
   4   7   1   53.51    9.01
   4   7   1   52.38   14.61
  -5  -7  -1  177.06   16.32
  -5  -7  -1  186.73   17.24
  -5  -7  -1  212.49   21.75
  -5  -7  -1  190.49   18.17
   5   7   1  160.35   18.40
  -6  -7  -1  119.88   19.17
  -6  -7  -1  101.89   15.27
  -6  -7  -1  125.17   17.59
   6   7   1   95.89   17.49
   4  -8  -1   47.26   16.44
   4  -8  -1   36.09   15.20
  -4   8   1   50.53   19.93
  -4   8   1   37.86   15.10
  -4   8   1   31.62   15.81
   3  -8  -1   16.49   20.50
   3  -8  -1   20.36   11.65
   3  -8  -1    5.33   11.91
  -3   8   1   17.00   11.86
  -3   8   1   26.57   16.17
  -3   8   1   19.91   12.34
   2  -8  -1  298.80   22.48
   2  -8  -1  289.62   31.95
   2  -8  -1  276.66   17.64
  -2   8   1  316.26   30.31
  -2   8   1  289.38   21.67
  -2   8   1  319.14   22.09
   1  -8  -1  381.18   24.47
   1  -8  -1  382.76   32.57
   1  -8  -1  393.47   25.26
  -1   8   1  372.15   23.16
  -1   8   1  383.70   31.66
  -1   8   1  390.07   24.54
   0  -8  -1  547.54   30.78
   0  -8  -1  584.17   28.88
   0  -8  -1  558.17   37.28
   0  -8  -1  565.70   22.40
   0   8   1  566.98   28.99
   0   8   1  573.44   28.42
   0   8   1  562.43   36.49
  -1  -8  -1  153.76   21.37
  -1  -8  -1  159.23   16.96
  -1  -8  -1  141.16   17.25
  -1  -8  -1  118.80   10.50
   1   8   1  145.44   20.37
   1   8   1  143.19   15.01
   1   8   1  152.52   16.22
   1   8   1  121.96    8.94
  -2  -8  -1   11.34    7.37
  -2  -8  -1    8.87   10.37
  -2  -8  -1    5.31    9.86
  -2  -8  -1   12.12   11.52
   2   8   1   16.47   10.30
   2   8   1   15.37    8.11
   2   8   1   11.54    5.52
   2   8   1   13.15   12.63
  -3  -8  -1  136.56   16.28
  -3  -8  -1  130.20   17.04
  -3  -8  -1  100.88   12.34
  -3  -8  -1  101.49   17.83
   3   8   1  129.22   15.27
   3   8   1  180.10   24.14
   3   8   1  131.22   11.64
  -4  -8  -1  147.40   21.25
  -4  -8  -1  116.07   14.10
  -4  -8  -1  118.49   15.68
  -4  -8  -1  125.84   17.57
   4   8   1  111.90   19.94
   4   8   1  142.18   16.17
   4   8   1  136.85   17.09
   4   8   1  114.95   12.00
  -5  -8  -1   33.27   12.98
  -5  -8  -1   37.73   14.60
  -5  -8  -1   24.61   13.46
  -5  -8  -1   29.22   12.07
   5   8   1   39.42   14.55
  -6  -8  -1    3.59   12.64
  -6  -8  -1    1.02   12.61
  -6  -8  -1    4.22   13.02
   6   8   1    3.11   14.83
   3  -9  -1   40.97   16.01
  -3   9   1   54.61   15.14
  -3   9   1   67.84   23.74
  -3   9   1   82.42   17.90
   2  -9  -1   27.91   18.67
   2  -9  -1   50.20   16.07
  -2   9   1   43.04   15.82
  -2   9   1   36.56   11.66
  -2   9   1   34.36   19.22
   1  -9  -1  157.21   20.08
   1  -9  -1  156.35   25.52
   1  -9  -1  186.12   20.83
  -1   9   1  185.35   18.90
  -1   9   1  185.10   24.85
  -1   9   1  207.82   21.03
   0  -9  -1  116.04   16.60
   0  -9  -1   52.37   18.02
   0  -9  -1   79.52   16.17
   0   9   1  105.98   15.93
   0   9   1   76.40   12.78
   0   9   1  102.18   21.06
  -1  -9  -1  255.84   21.60
  -1  -9  -1  196.90   21.27
  -1  -9  -1  230.95   16.50
   1   9   1  221.80   20.55
   1   9   1  201.63   12.54
   1   9   1  235.61   19.55
   1   9   1  236.41   27.60
  -2  -9  -1   49.41   13.86
  -2  -9  -1   56.01   16.05
  -2  -9  -1   89.06   11.74
  -2  -9  -1   94.58   16.28
   2   9   1   98.28   14.58
   2   9   1  101.87   16.31
   2   9   1   84.10   20.63
   2   9   1   80.03   11.02
  -3  -9  -1   -1.20   11.40
  -3  -9  -1    3.09   11.76
  -3  -9  -1    1.96    9.46
  -3  -9  -1    6.55   13.70
   3   9   1    0.93   15.87
   3   9   1   -0.11   10.33
   3   9   1    7.18   12.31
  -4  -9  -1  352.47   24.48
  -4  -9  -1  380.59   27.46
  -4  -9  -1  344.27   25.82
  -4  -9  -1  348.31   32.07
   4   9   1  361.04   25.57
  -5  -9  -1    0.90   13.85
  -5  -9  -1    1.44   14.18
  -5  -9  -1    1.89   13.93
  -5  -9  -1    3.38   12.34
   5   9   1    3.61   14.51
   2 -10  -1    2.54   21.59
   2 -10  -1    0.31   15.89
  -2  10   1   -0.55   22.53
  -2  10   1    3.76   16.78
  -2  10   1    5.06   12.39
   1 -10  -1  108.95   23.00
   1 -10  -1   40.55   21.28
   1 -10  -1   44.37   16.73
  -1  10   1  100.81   17.25
  -1  10   1   79.07   24.23
  -1  10   1  117.96   20.24
   0 -10  -1   36.99   19.70
   0 -10  -1   24.06   16.31
   0 -10  -1   21.80   14.86
   0  10   1   39.59   13.44
   0  10   1   47.67   16.93
   0  10   1   30.24   20.85
  -1 -10  -1  212.70   23.00
  -1 -10  -1  210.26   24.95
  -1 -10  -1  191.11   27.83
   1  10   1  246.64   24.42
   1  10   1  214.48   21.45
   1  10   1  326.77   35.56
  -2 -10  -1  185.32   24.81
  -2 -10  -1  103.60   20.86
  -2 -10  -1  216.46   24.19
  -2 -10  -1  147.44   20.49
   2  10   1  244.36   30.57
   2  10   1  193.14   21.02
   2  10   1  174.77   19.24
  -3 -10  -1   78.08   19.31
  -3 -10  -1  108.51   14.71
  -3 -10  -1   64.32   17.49
  -3 -10  -1  108.54   19.76
   3  10   1  102.71   17.57
   3  10   1  134.88   20.38
   3  10   1  101.57   25.94
  -4 -10  -1   50.27   18.89
  -4 -10  -1   34.32   18.22
  -4 -10  -1   39.71   17.29
  -4 -10  -1   43.33   14.03
   4  10   1   45.18   16.76
  -1 -11  -1  199.47   25.10
  -1 -11  -1  283.58   30.28
   1  11   1  267.68   25.45
   1  11   1  246.34   35.48
   1  11   1  263.81   27.90
  -2 -11  -1    5.57   17.83
  -2 -11  -1    0.93   17.33
  -2 -11  -1    4.70   16.15
   2  11   1    9.58   23.50
   2  11   1   13.04   17.40
   2  11   1    4.91   12.94
   3  10  -2    8.10   16.20
   3  10  -2   -0.15   20.22
  -3 -10   2    3.01   10.64
  -3 -10   2   10.36   13.71
  -3 -10   2    0.61   14.90
   2  10  -2   -3.00   12.81
   2  10  -2    4.20   14.12
   2  10  -2    1.48   20.00
  -2 -10   2   -0.19   15.44
  -2 -10   2   -0.24   12.56
   1  10  -2  143.37   29.58
   1  10  -2  149.20   21.05
   1  10  -2   97.62   16.10
  -1 -10   2  122.96   23.97
  -1 -10   2   89.66   17.32
   0  10  -2   14.25   15.56
   0  10  -2    7.69   10.88
   0  10  -2   11.83   20.48
   0 -10   2   10.87   15.96
   0 -10   2   15.52   14.29
  -1  10  -2  158.61   22.28
  -1  10  -2  155.93   21.63
  -1  10  -2  117.90   26.49
   1 -10   2   78.79   16.23
   1 -10   2   73.84   21.30
  -2  10  -2   -6.10   12.93
  -2  10  -2    1.13   18.37
  -2  10  -2    2.24   19.91
   2 -10   2    2.08   14.55
   2 -10   2    0.02   11.94
   4   9  -2   56.85   17.34
   4   9  -2   74.52   15.78
   4   9  -2  100.31   35.82
  -4  -9   2   68.22   17.81
  -4  -9   2   60.80   13.01
  -4  -9   2   52.31   17.49
  -4  -9   2   63.17   14.85
   3   9  -2   38.67   16.78
   3   9  -2   30.98   18.52
  -3  -9   2   30.96   15.05
  -3  -9   2   34.62   10.74
  -3  -9   2   31.29   13.38
  -3  -9   2   35.98   13.90
   2   9  -2   50.89   13.52
   2   9  -2   53.90   14.59
   2   9  -2   76.58   20.29
  -2  -9   2   54.21   13.83
  -2  -9   2   50.50   13.77
  -2  -9   2   58.31   10.27
  -2  -9   2   35.64   14.49
   1   9  -2   65.47   13.13
   1   9  -2   74.30   22.42
   1   9  -2   82.92   16.09
  -1  -9   2   35.20   15.83
  -1  -9   2   46.68   13.27
   0   9  -2  126.55   23.17
   0   9  -2  112.76   17.52
   0   9  -2  122.55   16.17
   0  -9   2  107.63   20.47
   0  -9   2  100.92   15.75
  -1   9  -2  147.66   20.29
  -1   9  -2  120.63   17.18
  -1   9  -2  143.98   22.72
   1  -9   2  123.87   17.55
   1  -9   2   89.69   19.11
  -2   9  -2   28.09   13.10
  -2   9  -2   41.72   16.46
  -2   9  -2   18.73   19.11
   2  -9   2   15.65   12.55
   2  -9   2   17.16   10.93
   2  -9   2   10.56   16.16
  -3   9  -2  110.29   20.88
  -3   9  -2   89.30   15.81
  -3   9  -2  131.04   25.79
   3  -9   2   76.40   14.98
   3  -9   2   83.73   15.93
   5   8  -2  159.06   20.87
   5   8  -2  102.32   17.63
  -5  -8   2  123.09   20.86
  -5  -8   2  130.93   19.94
  -5  -8   2  116.16   15.73
   4   8  -2   -0.83   13.40
   4   8  -2    5.41   11.05
   4   8  -2    0.97   18.54
  -4  -8   2    1.97   10.21
  -4  -8   2    9.16    9.56
  -4  -8   2    0.56   11.66
  -4  -8   2    0.06   11.65
   3   8  -2   91.82   21.21
   3   8  -2   78.95   14.68
  -3  -8   2   67.50   15.87
  -3  -8   2   67.27   12.03
  -3  -8   2   67.73   10.61
  -3  -8   2   59.79   14.78
   2   8  -2   66.22   13.32
   2   8  -2   66.22   17.26
   2   8  -2  101.16   15.84
  -2  -8   2   53.61   12.39
  -2  -8   2   70.55   12.27
  -2  -8   2   66.11    9.23
  -2  -8   2   40.38   12.91
   1   8  -2   15.81   13.94
   1   8  -2   15.85    8.47
   1   8  -2   20.70   11.23
  -1  -8   2   14.24   11.60
  -1  -8   2   19.32   11.84
  -1  -8   2   20.89   10.14
  -1  -8   2   23.01    6.94
   0   8  -2   31.05   14.61
   0   8  -2   48.37   10.62
   0   8  -2   42.99   12.33
   0  -8   2   33.72    5.49
   0  -8   2   27.14   10.49
   0  -8   2   51.15   15.60
  -1   8  -2  481.05   26.83
  -1   8  -2  478.01   27.44
  -1   8  -2  478.05   35.06
   1  -8   2  472.45   26.41
   1  -8   2  478.41   33.50
  -2   8  -2  124.24   15.04
  -2   8  -2  161.81   18.98
  -2   8  -2  108.35   20.38
   2  -8   2  107.32   14.10
   2  -8   2   80.09   17.34
   2  -8   2   93.14   12.33
  -3   8  -2   47.02   18.45
  -3   8  -2   31.96   13.12
  -3   8  -2   52.71   13.86
   3  -8   2   43.33   12.14
   3  -8   2   30.91   11.86
  -4   8  -2  113.33   23.74
  -4   8  -2   76.46   15.69
  -4   8  -2   92.69   17.93
   4  -8   2   68.60   16.72
   6   7  -2   40.25   18.19
  -6  -7   2   74.18   16.15
  -6  -7   2   81.21   18.57
  -6  -7   2   65.63   14.69
   5   7  -2   85.82   15.90
   5   7  -2   60.97   15.01
  -5  -7   2   89.94   13.41
  -5  -7   2   98.15   15.92
  -5  -7   2   70.30   16.59
   4   7  -2   39.49   17.27
   4   7  -2   37.51   11.38
   4   7  -2   69.08   12.96
  -4  -7   2   62.68   10.86
  -4  -7   2   50.84   14.77
  -4  -7   2   52.16   10.52
  -4  -7   2   45.37   11.67
   3   7  -2   14.01   10.76
   3   7  -2    4.71   12.09
  -3  -7   2    6.20    9.98
  -3  -7   2    6.46    9.84
  -3  -7   2    9.01    8.38
  -3  -7   2    7.44    7.06
   2   7  -2   -6.77   11.51
   2   7  -2   -1.13    8.30
   2   7  -2    5.69    8.26
  -2  -7   2    2.45    6.10
  -2  -7   2    0.03    8.51
  -2  -7   2    2.22    8.04
  -2  -7   2    1.30    9.21
   1   7  -2  394.18   29.38
   1   7  -2  371.04   22.25
   1   7  -2  380.25   22.64
  -1  -7   2  433.53   21.75
  -1  -7   2  394.49   22.72
  -1  -7   2  385.54   27.39
  -1  -7   2  396.96   17.19
   0   7  -2   -0.25   10.80
   0   7  -2    4.84    8.60
   0   7  -2    1.13    6.30
   0  -7   2    3.30    9.97
   0  -7   2    3.73    4.15
   0  -7   2    9.28    8.03
  -1   7  -2  168.90   20.88
  -1   7  -2  149.73   14.51
  -1   7  -2  160.46   15.43
   1  -7   2   90.80   15.11
   1  -7   2  135.39    7.90
   1  -7   2  119.21   13.99
  -2   7  -2  956.07   46.47
  -2   7  -2  949.77   40.28
  -2   7  -2  937.98   39.12
   2  -7   2  956.98   31.41
   2  -7   2  945.93   38.79
  -3   7  -2    6.30    9.41
  -3   7  -2   10.25   14.51
  -3   7  -2   11.67    9.41
   3  -7   2   13.20    9.57
   3  -7   2   12.12    8.85
   3  -7   2   10.28   13.31
  -4   7  -2  201.81   19.07
  -4   7  -2  192.04   23.90
  -4   7  -2  143.91   17.89
   4  -7   2  196.43   17.91
   4  -7   2  203.42   20.04
  -5   7  -2   88.07   21.98
  -5   7  -2   48.11   15.52
  -5   7  -2   61.89   16.73
   5  -7   2   73.97   17.60
   5  -7   2   72.97   16.40
   6   6  -2    1.75   15.36
  -6  -6   2    1.83   10.90
  -6  -6   2    5.21   12.17
  -6  -6   2    4.12   11.85
   5   6  -2  163.08   17.37
   5   6  -2  178.74   15.30
   5   6  -2  193.10   16.74
   5   6  -2  190.76   17.50
  -5  -6   2  174.23   18.75
  -5  -6   2  183.06   21.35
  -5  -6   2  170.27   15.88
   4   6  -2  111.46   19.64
   4   6  -2   76.49   11.98
   4   6  -2   87.26    9.14
   4   6  -2   83.13   12.88
  -4  -6   2   91.91   10.15
  -4  -6   2   71.98   10.58
  -4  -6   2   86.72   12.71
  -4  -6   2   77.15   14.50
   3   6  -2  319.67   19.07
   3   6  -2  342.01   25.32
   3   6  -2  290.84   13.60
  -3  -6   2  322.22   20.62
  -3  -6   2  321.80   24.04
  -3  -6   2  288.11   13.92
  -3  -6   2  313.06   16.60
  -3  -6   2  318.69   16.97
   2   6  -2  268.19   17.73
   2   6  -2  260.35   17.54
   2   6  -2  247.63   23.32
  -2  -6   2  295.33   22.41
  -2  -6   2  286.05   17.96
  -2  -6   2  292.11   16.38
  -2  -6   2  292.76   15.22
   1   6  -2  556.89   31.43
   1   6  -2  500.09   24.51
   1   6  -2  531.87   25.30
  -1  -6   2  562.39   23.72
  -1  -6   2  500.75   29.18
  -1  -6   2  570.17   25.91
  -1  -6   2  529.43   20.83
   0   6  -2  491.90   29.24
   0   6  -2  443.40   16.47
   0   6  -2  503.20   23.95
   0   6  -2  484.37   23.04
   0  -6   2  483.29   23.41
   0  -6   2  464.86   17.23
   0  -6   2  468.87   27.97
  -1   6  -2  381.08   25.70
  -1   6  -2  341.61   19.65
  -1   6  -2  353.96   19.73
   1  -6   2  381.18   20.00
   1  -6   2  404.27   25.38
  -2   6  -2  206.86   15.59
  -2   6  -2  204.45   21.37
  -2   6  -2  223.76   16.01
   2  -6   2  199.50   20.45
   2  -6   2  216.88   10.44
   2  -6   2  212.90   15.34
   2  -6   2  210.21   14.75
  -3   6  -2  392.40   27.96
  -3   6  -2  418.17   23.26
  -3   6  -2  412.08   22.76
   3  -6   2  397.20   20.31
   3  -6   2  398.97   27.75
   3  -6   2  422.26   17.49
   3  -6   2  451.06   23.19
   3  -6   2  430.96   21.64
  -4   6  -2   73.60   16.48
  -4   6  -2   60.56   11.49
  -4   6  -2   53.80   12.42
   4  -6   2   72.43   12.31
   4  -6   2   44.00   12.23
  -5   6  -2   14.53   15.02
  -5   6  -2   15.32   13.56
  -5   6  -2   11.67   11.33
   5  -6   2    7.67   13.13
   5  -6   2   10.29   13.09
  -6   6  -2  263.48   28.13
  -6   6  -2  231.74   25.86
   6  -6   2  328.45   30.84
   6  -6   2  248.02   24.47
   6   5  -2  156.12   16.67
   6   5  -2  153.56   20.26
  -6  -5   2  193.97   22.11
  -6  -5   2  170.34   17.14
  -6  -5   2  165.09   18.49
   5   5  -2   15.87    9.68
   5   5  -2   26.79   12.18
   5   5  -2   15.91    9.25
   5   5  -2   20.15    8.37
  -5  -5   2   18.13    9.99
  -5  -5   2   20.32    9.28
  -5  -5   2   20.91    8.82
   4   5  -2  194.90   15.12
   4   5  -2  185.81   15.06
   4   5  -2  192.13   12.91
   4   5  -2  206.74   22.01
  -4  -5   2  192.87   15.95
  -4  -5   2  203.59   18.80
  -4  -5   2  175.46   11.22
  -4  -5   2  215.61   15.08
   3   5  -2  100.16   11.18
   3   5  -2   94.58   15.74
   3   5  -2   91.53    7.84
   3   5  -2   92.96   11.92
   3   5  -2   78.52    9.65
  -3  -5   2   87.48    9.18
  -3  -5   2   79.02    9.09
  -3  -5   2  109.26   15.29
  -3  -5   2   76.90   11.21
  -3  -5   2   85.08    7.87
  -3  -5   2   78.73    6.95
   2   5  -2  891.56   35.00
   2   5  -2  895.84   40.75
   2   5  -2  906.65   36.38
  -2  -5   2  960.12   35.92
  -2  -5   2  896.71   39.68
  -2  -5   2  922.28   32.56
  -2  -5   2  871.07   29.47
  -2  -5   2  917.10   32.72
   1   5  -2  498.24   21.89
   1   5  -2  481.32   22.30
   1   5  -2  486.70   26.75
  -1  -5   2  456.90   25.48
  -1  -5   2  468.04   18.31
  -1  -5   2  444.52   21.80
  -1  -5   2  471.77   20.09
   0   5  -2  389.37   18.58
   0   5  -2  360.17   23.16
   0   5  -2  341.39   13.61
   0   5  -2  393.56   19.17
   0  -5   2  400.19   19.08
   0  -5   2  388.72   14.01
   0  -5   2  346.91   22.36
  -1   5  -2 1125.19   46.57
  -1   5  -2 1211.12   48.04
  -1   5  -2 1154.50   39.36
  -1   5  -2 1221.51   43.45
  -1   5  -2 1167.88   47.14
  -1   5  -2 1256.83   43.40
   1  -5   2 1218.26   47.53
   1  -5   2 1285.95   43.93
  -2   5  -2  899.73   34.34
  -2   5  -2  871.77   33.25
  -2   5  -2  842.94   32.52
  -2   5  -2  821.62   36.89
  -2   5  -2  837.51   37.15
   2  -5   2  845.35   32.29
   2  -5   2  873.54   28.62
   2  -5   2  777.42   31.38
   2  -5   2  861.69   37.27
   2  -5   2  831.14   32.02
  -3   5  -2  503.97   23.13
  -3   5  -2  449.62   26.36
  -3   5  -2  473.96   23.76
  -3   5  -2  502.32   27.65
   3  -5   2  489.40   20.75
   3  -5   2  489.80   19.23
   3  -5   2  455.88   20.58
   3  -5   2  479.21   26.93
   3  -5   2  488.02   22.43
   3  -5   2  491.49   23.69
  -4   5  -2    9.53    8.76
  -4   5  -2    1.34   10.35
  -4   5  -2    5.09    7.83
   4  -5   2   12.38    9.06
   4  -5   2    5.71    4.46
   4  -5   2    0.56    8.85
   4  -5   2    7.15   12.58
  -5   5  -2  499.26   30.84
  -5   5  -2  500.53   25.57
  -5   5  -2  520.88   30.59
   5  -5   2  544.82   28.69
   5  -5   2  509.22   29.97
  -6   5  -2   23.59   15.05
  -6   5  -2   27.58   15.12
   6  -5   2   30.51   15.77
   6  -5   2   30.93   15.31
   7   4  -2  157.27   21.75
   7   4  -2  183.04   20.43
  -7  -4   2  145.00   19.93
  -7  -4   2  168.32   18.33
   6   4  -2   76.01   16.08
   6   4  -2   59.07   12.37
  -6  -4   2   79.45   15.16
  -6  -4   2   65.75   11.98
  -6  -4   2   82.34   13.93
   5   4  -2  121.95   11.79
   5   4  -2  133.60   13.44
   5   4  -2  170.16   33.22
   5   4  -2  121.40   15.20
  -5  -4   2  147.73   15.08
  -5  -4   2  134.93   13.17
  -5  -4   2  139.77   16.31
   4   4  -2   61.75    9.54
   4   4  -2   59.21    7.41
   4   4  -2   73.24    8.97
   4   4  -2   61.23    9.85
   4   4  -2   58.22   10.51
   4   4  -2   63.35   13.37
   4   4  -2   65.73   10.64
  -4  -4   2   60.85    6.54
  -4  -4   2   62.04    8.79
  -4  -4   2   51.61    9.57
  -4  -4   2   66.51    6.17
  -4  -4   2   74.28   14.15
  -4  -4   2   61.45   11.01
   3   4  -2  325.69   22.59
   3   4  -2  306.57   14.50
   3   4  -2  291.63   13.88
   3   4  -2  323.61   16.89
   3   4  -2  310.51   15.95
  -3  -4   2  326.58   12.90
  -3  -4   2  298.14   14.57
  -3  -4   2  310.32   20.37
  -3  -4   2  301.89   15.56
  -3  -4   2  341.26   17.41
  -3  -4   2  329.32   22.01
  -3  -4   2  326.27   13.97
   2   4  -2 1001.01   36.59
   2   4  -2 1025.79   41.63
   2   4  -2 1004.60   34.04
  -2  -4   2 1050.80   37.42
  -2  -4   2  966.99   40.72
  -2  -4   2 1027.90   34.81
  -2  -4   2 1002.91   33.99
  -2  -4   2 1010.41   40.57
  -2  -4   2  944.10   32.71
   1   4  -2  343.12   20.04
   1   4  -2  334.16   17.67
   1   4  -2  317.17   16.20
   1   4  -2  272.90   28.65
   1   4  -2  320.97   14.04
   1   4  -2  313.70   14.24
   1   4  -2  319.38   16.04
  -1  -4   2  299.12   18.79
  -1  -4   2  338.10   14.71
  -1  -4   2  333.40   16.19
  -1  -4   2  334.38   13.45
  -1  -4   2  347.14   20.06
   0   4  -2  195.53   10.88
   0   4  -2  194.38   15.72
   0   4  -2  189.76   15.06
   0   4  -2  203.81   11.99
   0   4  -2  226.30   11.87
   0   4  -2  174.58   12.09
   0  -4   2  189.53   15.29
   0  -4   2  195.35   11.50
   0  -4   2  203.64    8.64
   0  -4   2  205.50   12.13
   0  -4   2  198.70   12.01
   0  -4   2  225.74   15.38
  -1   4  -2   31.61    7.89
  -1   4  -2   19.99    6.79
  -1   4  -2   26.99    7.52
  -1   4  -2   31.48    6.22
  -1   4  -2   28.26    4.39
  -1   4  -2   37.76    8.16
  -1   4  -2   45.92    6.69
   1  -4   2   44.59    8.51
   1  -4   2   33.96    5.87
   1  -4   2   35.26    6.32
  -2   4  -2  532.41   22.61
  -2   4  -2  571.08   26.30
  -2   4  -2  552.25   26.48
   2  -4   2  570.90   22.09
   2  -4   2  570.58   20.11
   2  -4   2  570.47   22.22
   2  -4   2  598.88   26.93
  -3   4  -2   30.41    7.04
  -3   4  -2   38.28    9.07
  -3   4  -2   40.17    9.00
  -3   4  -2   41.63    7.62
   3  -4   2   38.62    5.45
   3  -4   2   36.91    9.04
   3  -4   2   30.89    5.28
   3  -4   2   34.90    7.60
   3  -4   2   31.44    7.56
   3  -4   2   29.44    5.33
  -4   4  -2  294.85   16.89
  -4   4  -2  282.74   19.31
  -4   4  -2  297.56   20.25
  -4   4  -2  289.73   11.22
  -4   4  -2  322.02   20.71
   4  -4   2  298.94   18.59
   4  -4   2  284.18   18.86
   4  -4   2  290.57   20.11
  -5   4  -2  159.51   16.73
  -5   4  -2  124.84   15.68
   5  -4   2  143.36   15.58
  -6   4  -2    4.86   13.79
  -6   4  -2   21.57   12.80
   6  -4   2   20.86   13.76
   6  -4   2   16.37   12.64
   7   3  -2   50.58   15.41
  -7  -3   2   28.66   14.17
  -7  -3   2   50.12   12.68
   6   3  -2   61.99   15.10
   6   3  -2   81.04   13.73
  -6  -3   2   79.44   11.80
  -6  -3   2   83.68   13.16
  -6  -3   2   78.05   14.78
   5   3  -2   97.39   16.86
   5   3  -2   95.98   11.67
   5   3  -2   72.17   12.93
   5   3  -2   86.91    9.39
  -5  -3   2   83.46   13.54
  -5  -3   2   88.12   11.52
  -5  -3   2   87.33   11.01
   4   3  -2  246.06   14.95
   4   3  -2  276.36   15.34
   4   3  -2  272.11   20.88
   4   3  -2  247.63   14.69
   4   3  -2  263.35   16.62
   4   3  -2  282.06   15.82
  -4  -3   2  245.66   17.71
  -4  -3   2  257.47   12.33
  -4  -3   2  269.37   16.04
  -4  -3   2  231.57   19.17
  -4  -3   2  262.67   10.13
  -4  -3   2  268.20   15.11
   3   3  -2   89.91   12.23
   3   3  -2   82.45    8.50
   3   3  -2   66.33    8.82
   3   3  -2   66.84    8.33
   3   3  -2   64.27    5.99
  -3  -3   2   56.53    9.94
  -3  -3   2   61.25    7.72
  -3  -3   2   59.96    9.20
  -3  -3   2   83.98    9.32
  -3  -3   2   65.29    5.41
  -3  -3   2   59.93    5.59
  -3  -3   2   68.70    7.48
   2   3  -2   98.81    9.80
   2   3  -2   96.58    8.03
   2   3  -2   95.51    7.60
   2   3  -2   98.95    9.26
   2   3  -2  101.28    6.40
   2   3  -2   94.38   10.99
  -2  -3   2   95.81    8.05
  -2  -3   2   98.01    5.11
  -2  -3   2   76.96    9.92
  -2  -3   2   92.88    5.92
  -2  -3   2  106.32    8.65
  -2  -3   2   94.71    6.71
  -2  -3   2   94.59    8.81
  -2  -3   2   98.42   11.05
   1   3  -2  503.49   18.43
   1   3  -2  516.37   20.25
   1   3  -2  496.03   20.26
   1   3  -2  513.90   23.52
   1   3  -2  482.26   18.04
   1   3  -2  527.21   20.71
   1   3  -2  506.05   23.17
  -1  -3   2  470.56   19.81
  -1  -3   2  449.53   19.35
  -1  -3   2  517.37   16.47
  -1  -3   2  450.70   22.70
  -1  -3   2  497.26   22.83
  -1  -3   2  533.71   18.24
  -1  -3   2  501.08   18.44
  -1  -3   2  541.79   20.57
   0   3  -2  216.45   11.83
   0   3  -2  226.39   11.60
   0   3  -2  220.45    8.95
   0   3  -2  232.59   10.67
   0   3  -2  223.89   14.51
   0   3  -2  223.35   11.02
   0   3  -2  212.30   14.28
   0  -3   2  212.09   11.06
   0  -3   2  228.70   11.42
   0  -3   2  216.31   11.07
   0  -3   2  203.42   13.70
   0  -3   2  227.81   14.01
   0  -3   2  230.34    8.69
  -1   3  -2  473.92   18.45
  -1   3  -2  467.36   18.51
  -1   3  -2  468.68   18.37
  -1   3  -2  429.28   17.99
  -1   3  -2  454.89   20.69
  -1   3  -2  464.90   20.68
   1  -3   2  459.26   18.81
   1  -3   2  427.34   17.61
   1  -3   2  452.71   20.73
   1  -3   2  460.89   20.62
   1  -3   2  457.34   17.89
   1  -3   2  472.24   17.50
  -2   3  -2  651.25   23.59
  -2   3  -2  634.43   24.81
  -2   3  -2  669.14   24.27
  -2   3  -2  646.86   26.46
  -2   3  -2  625.52   25.75
  -2   3  -2  644.58   22.67
  -2   3  -2  588.08   23.46
  -2   3  -2  604.27   23.94
   2  -3   2  640.03   24.27
   2  -3   2  647.28   26.29
   2  -3   2  614.01   25.87
   2  -3   2  667.42   22.11
   2  -3   2  603.88   25.53
   2  -3   2  637.25   22.21
   2  -3   2  662.46   23.77
   2  -3   2  633.72   22.60
  -3   3  -2  302.21   10.73
  -3   3  -2  300.03   17.02
  -3   3  -2  293.28   16.18
  -3   3  -2  285.00   14.55
  -3   3  -2  305.26   16.81
  -3   3  -2  257.84   12.64
  -3   3  -2  320.13   13.86
   3  -3   2  310.60   11.01
   3  -3   2  292.87   16.53
   3  -3   2  276.87   15.85
   3  -3   2  294.46   15.49
   3  -3   2  291.50   10.70
   3  -3   2  279.03   13.24
  -4   3  -2  274.60   19.03
  -4   3  -2  308.94   14.62
  -4   3  -2  285.78   17.45
  -4   3  -2  280.48   16.52
  -4   3  -2  313.12   12.54
  -4   3  -2  287.95   16.68
   4  -3   2  299.78   17.38
   4  -3   2  301.01   18.29
   4  -3   2  311.73   18.47
  -5   3  -2  142.89   10.35
  -5   3  -2  136.12   11.48
  -5   3  -2  130.48   15.36
  -5   3  -2  162.62   15.06
   5  -3   2  159.65   16.48
   5  -3   2  142.76   14.94
  -6   3  -2  327.69   21.61
   6  -3   2  331.79   25.50
   6  -3   2  348.88   25.57
  -7   3  -2   41.34   17.15
   7  -3   2   53.49   16.45
   7  -3   2   69.90   19.11
   7   2  -2    8.92   13.74
  -7  -2   2    1.59   10.43
  -7  -2   2   11.35   13.22
   6   2  -2   44.15   12.43
  -6  -2   2   25.87   10.38
  -6  -2   2   24.38   11.08
  -6  -2   2   34.70    9.75
   5   2  -2   60.94   10.54
   5   2  -2   35.32    9.79
   5   2  -2   49.95    9.10
   5   2  -2   50.38    6.35
   5   2  -2   61.27   13.67
  -5  -2   2   49.62   11.00
  -5  -2   2   51.69    9.69
  -5  -2   2   46.79    8.24
   4   2  -2  806.62   31.03
   4   2  -2  791.56   28.43
   4   2  -2  814.82   29.34
   4   2  -2  716.93   30.42
   4   2  -2  760.19   28.89
   4   2  -2  789.11   34.91
  -4  -2   2  818.94   30.94
  -4  -2   2  812.31   34.12
  -4  -2   2  732.52   33.47
  -4  -2   2  835.81   30.54
   3   2  -2  198.30   11.47
   3   2  -2  200.49   11.45
   3   2  -2  171.91   10.93
   3   2  -2  200.05    9.57
   3   2  -2  186.20   14.96
   3   2  -2  192.32   11.57
  -3  -2   2  182.16   11.65
  -3  -2   2  175.01   10.47
  -3  -2   2  190.52   11.22
  -3  -2   2  198.45   13.78
  -3  -2   2  186.34   14.19
   2   2  -2 2414.32   75.04
   2   2  -2 2383.48   78.25
   2   2  -2 2260.01   74.39
   2   2  -2 2398.06   74.10
   2   2  -2 2389.25   75.19
   2   2  -2 2328.23   77.74
   2   2  -2 2346.56   71.88
  -2  -2   2 2399.29   75.54
  -2  -2   2 2462.29   74.49
  -2  -2   2 2478.66   78.30
  -2  -2   2 2315.37   78.08
  -2  -2   2 2380.22   75.28
  -2  -2   2 2284.17   71.67
   1   2  -2 2187.65   70.82
   1   2  -2 2102.92   66.60
   1   2  -2 2103.88   70.33
   1   2  -2 2089.46   65.82
   1   2  -2 2101.94   68.05
   1   2  -2 2202.68   68.00
  -1  -2   2 2095.20   67.85
  -1  -2   2 2241.29   70.56
  -1  -2   2 2144.19   70.74
  -1  -2   2 2126.55   66.44
  -1  -2   2 2186.61   68.18
  -1  -2   2 2236.27   68.27
   0   2  -2  189.98   11.78
   0   2  -2  215.56    9.63
   0   2  -2  206.43   11.90
   0   2  -2  205.89    9.86
   0   2  -2  211.24   10.16
   0   2  -2  192.90    7.95
   0   2  -2  204.20    9.44
   0  -2   2  189.60   11.51
   0  -2   2  211.26    9.83
   0  -2   2  209.07    7.88
   0  -2   2  211.50    9.92
   0  -2   2  200.95    9.51
   0  -2   2  209.41    7.82
   0  -2   2  215.29   11.96
  -1   2  -2 1300.59   41.60
  -1   2  -2 1308.77   43.27
  -1   2  -2 1331.38   43.26
  -1   2  -2 1269.24   39.58
  -1   2  -2 1288.26   41.18
  -1   2  -2 1268.63   41.37
  -1   2  -2 1212.99   40.60
  -1   2  -2 1276.05   38.49
   1  -2   2 1279.88   40.67
   1  -2   2 1265.12   42.81
   1  -2   2 1253.22   40.79
   1  -2   2 1287.23   41.79
   1  -2   2 1276.51   40.99
   1  -2   2 1276.92   43.08
  -2   2  -2 1190.68   38.96
  -2   2  -2 1145.19   37.36
  -2   2  -2 1096.96   38.01
  -2   2  -2 1061.14   36.83
  -2   2  -2 1168.14   36.83
  -2   2  -2 1193.77   38.92
  -2   2  -2 1138.06   38.62
  -2   2  -2 1138.35   36.46
  -2   2  -2 1117.11   35.05
   2  -2   2 1115.66   38.52
   2  -2   2 1105.60   39.45
   2  -2   2 1141.56   36.89
   2  -2   2 1218.00   38.40
   2  -2   2 1148.56   35.42
   2  -2   2 1160.02   38.56
   2  -2   2 1151.09   38.51
   2  -2   2 1097.27   35.38
  -3   2  -2  484.66   18.76
  -3   2  -2  486.72   19.51
  -3   2  -2  484.45   18.24
  -3   2  -2  459.63   20.31
  -3   2  -2  501.94   17.88
  -3   2  -2  502.01   17.25
  -3   2  -2  481.33   21.66
  -3   2  -2  495.91   19.92
   3  -2   2  460.72   19.20
   3  -2   2  530.27   19.36
   3  -2   2  510.09   21.28
   3  -2   2  506.34   20.91
  -4   2  -2  658.89   25.11
  -4   2  -2  704.33   26.68
  -4   2  -2  704.38   24.59
  -4   2  -2  727.91   24.66
  -4   2  -2  713.46   30.33
  -4   2  -2  696.07   26.15
   4  -2   2  692.95   25.93
   4  -2   2  724.64   28.96
   4  -2   2  654.26   25.59
   4  -2   2  701.92   28.96
  -5   2  -2  257.01   20.06
  -5   2  -2  250.41   13.30
  -5   2  -2  253.00   15.07
  -5   2  -2  236.87   14.36
  -5   2  -2  235.95   14.45
  -5   2  -2  221.43   12.65
   5  -2   2  230.17   17.60
   5  -2   2  254.40   18.26
  -6   2  -2  315.13   16.81
  -6   2  -2  317.88   24.56
  -6   2  -2  315.27   17.40
   6  -2   2  317.71   22.89
   6  -2   2  326.12   23.21
  -7   2  -2  138.11   22.22
   7  -2   2  132.99   18.76
   7  -2   2  140.52   20.39
   7   1  -2  147.29   20.54
  -7  -1   2  169.60   16.44
  -7  -1   2  159.83   19.47
   6   1  -2   45.60   12.14
   6   1  -2   49.92   12.95
  -6  -1   2   49.42    9.87
  -6  -1   2   42.97   11.18
  -6  -1   2   42.86   11.85
   5   1  -2  378.30   25.69
   5   1  -2  350.90   19.77
   5   1  -2  414.78   21.84
  -5  -1   2  346.22   20.01
  -5  -1   2  396.05   19.30
  -5  -1   2  364.46   22.52
   4   1  -2 1261.68   49.32
   4   1  -2 1280.57   46.83
   4   1  -2 1271.35   43.64
   4   1  -2 1336.98   43.79
   4   1  -2 1352.74   46.66
   4   1  -2 1386.82   45.26
  -4  -1   2 1250.25   48.94
  -4  -1   2 1321.55   46.02
  -4  -1   2 1327.23   45.36
  -4  -1   2 1396.48   49.50
   3   1  -2  394.48   15.59
   3   1  -2  353.73   16.56
   3   1  -2  393.73   16.28
   3   1  -2  382.68   20.14
  -3  -1   2  369.76   19.29
  -3  -1   2  347.64   15.97
  -3  -1   2  378.20   16.77
  -3  -1   2  383.37   19.18
  -3  -1   2  349.46   16.44
  -3  -1   2  388.08   16.15
   2   1  -2  139.79    8.71
   2   1  -2  157.89    9.22
   2   1  -2  155.46    7.09
   2   1  -2  142.94    8.84
   2   1  -2  134.54   10.97
   2   1  -2  144.96    8.99
   2   1  -2  155.10    8.28
   2   1  -2  153.11   11.88
  -2  -1   2  145.15    8.32
  -2  -1   2  153.76    7.89
  -2  -1   2  142.89   10.69
  -2  -1   2  134.70   10.67
  -2  -1   2  153.11    9.24
  -2  -1   2  154.57    8.87
   1   1  -2 1706.97   55.50
   1   1  -2 1892.70   54.97
   1   1  -2 1710.60   54.13
   1   1  -2 1796.73   56.74
   1   1  -2 1818.97   56.64
   1   1  -2 1814.65   53.72
   1   1  -2 1779.90   58.72
  -1  -1   2 1788.91   55.52
  -1  -1   2 1816.95   58.71
  -1  -1   2 1827.90   58.46
  -1  -1   2 1778.50   56.66
  -1  -1   2 1767.88   56.47
   0   1  -2  387.49   14.31
   0   1  -2  405.51   13.75
   0   1  -2  362.99   12.86
   0   1  -2  374.99   14.21
   0   1  -2  386.37   12.45
   0   1  -2  384.73   15.99
   0   1  -2  375.96   15.90
   0  -1   2  393.65   12.45
   0  -1   2  383.65   14.06
   0  -1   2  389.22   13.61
   0  -1   2  391.56   15.86
   0  -1   2  371.40   14.01
   0  -1   2  360.89   15.41
   0  -1   2  395.48   12.95
  -1   1  -2 8397.20  255.51
  -1   1  -2 8782.38  254.45
  -1   1  -2 8596.16  254.94
  -1   1  -2 8223.17  254.76
  -1   1  -2 8392.76  254.92
  -1   1  -2 8495.22  254.17
  -1   1  -2 8796.23  256.81
  -1   1  -2 8833.84  255.81
   1  -1   2 8614.01  255.03
   1  -1   2 8205.98  256.54
   1  -1   2 8460.44  255.68
   1  -1   2 8723.00  258.06
   1  -1   2 8231.63  255.52
   1  -1   2 8519.50  255.44
   1  -1   2 8806.37  254.31
   1  -1   2 8339.21  254.62
  -2   1  -2    1.00    2.98
  -2   1  -2    3.89    3.38
  -2   1  -2    7.86    3.67
  -2   1  -2    3.38    1.61
  -2   1  -2    4.21    2.66
  -2   1  -2    7.20    3.63
  -2   1  -2    5.06    2.84
  -2   1  -2    2.59    2.63
  -2   1  -2    1.93    3.36
  -2   1  -2    7.21    1.98
   2  -1   2    4.00    2.78
   2  -1   2    3.30    3.26
   2  -1   2    7.96    3.72
   2  -1   2    3.60    2.42
   2  -1   2    1.40    2.71
   2  -1   2    4.85    2.55
   2  -1   2    7.41    3.82
  -3   1  -2 1400.72   47.18
  -3   1  -2 1399.84   42.92
  -3   1  -2 1397.23   43.44
  -3   1  -2 1370.66   42.73
  -3   1  -2 1378.97   41.60
  -3   1  -2 1288.20   44.19
  -3   1  -2 1219.20   41.62
  -3   1  -2 1269.61   44.94
   3  -1   2 1401.76   45.89
   3  -1   2 1356.03   42.24
   3  -1   2 1367.99   45.86
   3  -1   2 1348.89   42.24
   3  -1   2 1403.95   44.75
  -4   1  -2  627.49   21.49
  -4   1  -2  656.35   22.52
  -4   1  -2  660.21   23.78
  -4   1  -2  641.64   28.27
  -4   1  -2  601.57   21.66
  -4   1  -2  654.26   22.68
   4  -1   2  653.78   26.78
   4  -1   2  643.09   27.02
  -5   1  -2  570.90   22.55
  -5   1  -2  492.21   20.24
  -5   1  -2  531.98   20.13
  -5   1  -2  571.05   20.66
  -5   1  -2  519.27   19.93
  -5   1  -2  549.49   28.19
   5  -1   2  538.76   26.24
   5  -1   2  545.46   26.20
  -6   1  -2   35.01   13.64
  -6   1  -2   31.37    8.32
   6  -1   2   27.49   10.43
   6  -1   2   21.17   11.73
  -7   1  -2  161.97   14.36
  -7   1  -2  205.07   24.86
   7  -1   2  168.21   19.56
   7  -1   2  137.86   19.00
   7   0  -2  109.32   19.04
   7   0  -2  146.34   20.48
  -7   0   2  113.65   14.20
  -7   0   2  127.60   23.24
  -7   0   2  103.57   17.17
   6   0  -2   56.08   13.41
   6   0  -2   40.05   12.54
  -6   0   2   56.86   12.55
  -6   0   2   42.79   10.42
  -6   0   2   42.12    9.31
   5   0  -2  798.43   40.44
   5   0  -2  838.90   34.39
   5   0  -2  853.81   35.90
  -5   0   2  871.31   36.96
  -5   0   2  868.11   32.74
  -5   0   2  863.42   34.16
   4   0  -2  189.72   12.77
   4   0  -2  185.81   14.07
   4   0  -2  186.11   17.31
  -4   0   2  179.50   15.31
  -4   0   2  210.49   12.68
  -4   0   2  197.20   11.80
  -4   0   2  180.08   14.53
   3   0  -2    0.31    4.06
   3   0  -2    4.74    6.33
   3   0  -2    2.09    4.59
   3   0  -2    1.57    4.55
  -3   0   2    4.58    4.91
  -3   0   2    3.14    4.82
  -3   0   2    7.19    3.96
  -3   0   2   -0.52    4.72
  -3   0   2    4.70    4.92
  -3   0   2    3.72    4.92
  -3   0   2    0.84    4.14
   2   0  -2  916.91   31.67
   2   0  -2  871.65   34.30
   2   0  -2  967.56   32.18
   2   0  -2  954.45   32.33
   2   0  -2  977.16   34.99
   2   0  -2  979.93   31.29
  -2   0   2  956.06   31.47
  -2   0   2  966.41   32.51
  -2   0   2  940.37   31.68
  -2   0   2  975.23   34.48
  -2   0   2  936.91   32.40
  -2   0   2  946.51   32.57
  -2   0   2  950.26   35.00
   1   0  -2  948.40   30.12
   1   0  -2  954.52   31.07
   1   0  -2  944.77   31.21
   1   0  -2  945.75   33.10
   1   0  -2  953.33   32.78
   1   0  -2  925.70   28.54
  -1   0   2  914.06   31.01
  -1   0   2  928.86   30.97
  -1   0   2  949.38   29.54
  -1   0   2  955.05   33.01
  -1   0   2  938.93   29.94
  -1   0   2  917.99   31.01
  -1   0   2  887.97   32.61
   0   0  -2 2034.87   60.48
   0   0  -2 1973.99   61.31
   0   0  -2 2061.88   62.69
   0   0  -2 1997.10   62.65
   0   0  -2 1958.04   61.19
   0   0  -2 2007.91   60.66
   0   0   2 2041.71   60.53
   0   0   2 1957.77   61.22
   0   0   2 1970.63   62.51
   0   0   2 1977.53   61.19
   0   0   2 1925.43   62.47
  -1   0  -2 1301.33   41.05
  -1   0  -2 1390.83   42.24
  -1   0  -2 1293.59   42.27
  -1   0  -2 1300.28   41.65
  -1   0  -2 1444.07   42.17
  -1   0  -2 1340.14   41.46
  -1   0  -2 1389.48   42.14
  -1   0  -2 1322.67   41.12
  -1   0  -2 1372.02   41.87
   1   0   2 1370.00   41.95
   1   0   2 1337.61   40.67
   1   0   2 1363.17   40.66
   1   0   2 1362.57   41.99
   1   0   2 1369.01   41.94
   1   0   2 1342.03   42.29
   1   0   2 1338.42   42.08
  -2   0  -2  179.79    9.21
  -2   0  -2  175.97    8.86
  -2   0  -2  175.57    8.48
  -2   0  -2  165.62    8.89
  -2   0  -2  175.39    8.94
   2   0   2  174.49    9.09
   2   0   2  200.85    8.78
   2   0   2  187.89    9.41
   2   0   2  183.91    9.29
   2   0   2  167.89    8.82
  -3   0  -2 1023.70   35.91
  -3   0  -2 1031.38   36.09
  -3   0  -2  978.17   34.83
  -3   0  -2  997.04   35.71
  -3   0  -2 1064.31   34.56
  -3   0  -2 1062.90   35.77
   3   0   2  998.62   35.82
   3   0   2 1015.75   35.76
   3   0   2 1052.66   35.24
   3   0   2 1040.38   35.80
   3   0   2 1054.89   35.65
  -4   0  -2  256.33    9.19
  -4   0  -2  239.06    9.12
  -4   0  -2  252.60   12.74
   4   0   2  241.68   14.55
   4   0   2  256.74   14.92
   4   0   2  264.14   14.72
  -5   0  -2 1295.26   50.37
  -5   0  -2 1291.83   44.26
  -5   0  -2 1256.53   40.96
  -5   0  -2 1188.27   41.06
  -5   0  -2 1279.15   44.40
   5   0   2 1328.62   47.52
   5   0   2 1350.87   48.02
  -6   0  -2  252.97   16.25
  -6   0  -2  271.65   23.56
  -6   0  -2  275.52   17.18
   6   0   2  256.00   19.22
   6   0   2  233.84   19.38
  -7   0  -2  166.36   22.96
  -7   0  -2  160.10   14.94
   7   0   2  236.99   21.71
   7   0   2  200.07   20.04
   7  -1  -2   47.35   17.94
   7  -1  -2   59.44   17.44
  -7   1   2   46.48   15.28
  -7   1   2   63.67   12.40
  -7   1   2   56.23   20.35
   6  -1  -2    6.00   11.55
   6  -1  -2    1.19   11.90
  -6   1   2    3.36   10.60
  -6   1   2    3.88    7.94
  -6   1   2    6.35   10.42
  -6   1   2    6.84   12.20
   5  -1  -2  247.04   18.58
   5  -1  -2  269.34   20.01
  -5   1   2  271.66   17.40
  -5   1   2  294.10   15.80
  -5   1   2  283.27   20.07
  -5   1   2  279.14   22.46
   4  -1  -2  949.41   31.11
   4  -1  -2  872.74   37.28
   4  -1  -2  905.20   33.82
   4  -1  -2  847.95   30.54
   4  -1  -2  934.72   35.38
  -4   1   2  937.54   31.92
  -4   1   2  829.23   28.38
  -4   1   2  871.88   32.92
  -4   1   2  809.09   36.23
  -4   1   2  889.72   36.63
   3  -1  -2  582.25   24.32
   3  -1  -2  645.00   23.22
   3  -1  -2  596.53   26.81
   3  -1  -2  607.10   22.85
   3  -1  -2  597.52   23.34
  -3   1   2  602.82   26.60
  -3   1   2  633.93   26.96
  -3   1   2  571.46   19.97
  -3   1   2  584.01   23.86
  -3   1   2  608.53   22.08
  -3   1   2  616.08   23.42
   2  -1  -2  354.95   15.04
   2  -1  -2  369.64   15.40
   2  -1  -2  350.51   18.51
   2  -1  -2  367.79   18.04
   2  -1  -2  334.65   14.19
   2  -1  -2  359.71   12.62
  -2   1   2  345.84   14.62
  -2   1   2  353.44   13.71
  -2   1   2  394.31   17.90
  -2   1   2  349.02   15.31
  -2   1   2  358.40   17.58
  -2   1   2  350.14   12.43
  -2   1   2  340.11   14.80
   1  -1  -2  581.88   21.00
   1  -1  -2  588.03   23.06
   1  -1  -2  583.39   19.64
   1  -1  -2  592.58   23.25
   1  -1  -2  586.29   21.35
   1  -1  -2  604.51   19.23
  -1   1   2  552.06   18.97
  -1   1   2  576.15   21.19
  -1   1   2  565.09   22.77
  -1   1   2  583.45   19.53
  -1   1   2  616.52   23.24
  -1   1   2  599.10   21.04
  -1   1   2  579.53   20.93
   0  -1  -2  308.38   13.40
   0  -1  -2  300.85   11.09
   0  -1  -2  284.22   13.17
   0  -1  -2  297.50   12.07
   0  -1  -2  296.87   11.71
   0  -1  -2  302.08   10.74
   0  -1  -2  296.12   10.64
   0   1   2  304.69   13.17
   0   1   2  302.83   10.56
   0   1   2  302.99   11.63
   0   1   2  298.86   10.66
   0   1   2  291.02   13.17
   0   1   2  296.69   11.08
   0   1   2  294.13   11.61
  -1  -1  -2 3777.76  114.47
  -1  -1  -2 3771.49  115.73
  -1  -1  -2 3741.75  114.54
  -1  -1  -2 3971.24  115.99
  -1  -1  -2 3761.46  114.05
  -1  -1  -2 3701.20  115.42
  -1  -1  -2 3909.41  114.76
   1   1   2 3968.80  115.04
   1   1   2 3869.57  114.45
   1   1   2 3814.99  114.71
   1   1   2 3791.08  114.38
   1   1   2 3797.35  115.82
   1   1   2 3714.17  115.60
   1   1   2 3816.48  114.28
   1   1   2 3722.51  115.38
   1   1   2 3818.39  114.89
  -2  -1  -2  953.62   29.76
  -2  -1  -2  930.59   31.26
  -2  -1  -2  910.21   31.24
  -2  -1  -2  941.39   28.54
  -2  -1  -2  920.58   30.86
  -2  -1  -2  946.45   30.94
  -2  -1  -2  934.32   31.12
  -2  -1  -2  891.80   28.46
  -2  -1  -2  946.74   29.85
  -2  -1  -2  902.49   31.05
   2   1   2  952.75   29.66
   2   1   2  948.33   30.94
   2   1   2  924.23   31.42
   2   1   2  942.66   30.97
   2   1   2  942.26   29.63
   2   1   2  951.01   31.29
  -3  -1  -2  866.67   26.13
  -3  -1  -2  770.45   29.36
  -3  -1  -2  804.13   29.35
  -3  -1  -2  798.78   29.20
  -3  -1  -2  842.93   26.20
  -3  -1  -2  851.57   28.76
  -3  -1  -2  793.93   29.08
  -3  -1  -2  791.93   28.65
  -3  -1  -2  748.12   24.88
  -3  -1  -2  786.44   24.84
  -3  -1  -2  884.45   28.78
   3   1   2  823.29   29.86
   3   1   2  830.56   29.31
   3   1   2  834.31   29.15
   3   1   2  823.74   29.31
  -4  -1  -2  275.24   10.66
  -4  -1  -2  300.89   14.17
  -4  -1  -2  278.11   10.62
  -4  -1  -2  276.70   14.58
   4   1   2  295.66   15.41
   4   1   2  280.71   16.09
   4   1   2  280.37   15.38
  -5  -1  -2  217.14   10.21
  -5  -1  -2  231.48   14.22
  -5  -1  -2  211.18   13.73
  -5  -1  -2  189.93   10.57
   5   1   2  252.21   16.66
   5   1   2  221.76   15.47
   5   1   2  233.05   15.89
  -6  -1  -2   57.43    9.85
  -6  -1  -2   67.33   10.55
   6   1   2   60.61   12.97
   6   1   2   64.99   11.52
   6   1   2   74.12   12.47
  -7  -1  -2   58.93   19.19
  -7  -1  -2   73.19   11.97
   7   1   2   87.85   15.05
   6  -2  -2   40.64   13.47
   6  -2  -2   54.56   14.66
  -6   2   2   53.17   14.03
  -6   2   2   43.91    9.10
  -6   2   2   45.88   15.76
  -6   2   2   32.73   11.49
   5  -2  -2   92.65   14.35
   5  -2  -2  111.20   14.09
  -5   2   2  119.35   15.87
  -5   2   2  117.22   10.58
  -5   2   2  109.53   12.89
  -5   2   2  132.40   17.81
   4  -2  -2  464.30   20.71
   4  -2  -2  543.10   24.09
   4  -2  -2  532.40   24.78
   4  -2  -2  534.78   28.58
  -4   2   2  542.44   26.70
  -4   2   2  541.74   27.40
  -4   2   2  478.68   18.96
  -4   2   2  533.91   23.20
  -4   2   2  505.27   20.44
  -4   2   2  507.16   27.12
   3  -2  -2  494.76   25.21
   3  -2  -2  471.13   20.91
   3  -2  -2  494.64   20.20
   3  -2  -2  520.05   21.83
   3  -2  -2  468.69   19.90
  -3   2   2  474.16   18.10
  -3   2   2  452.75   22.38
  -3   2   2  466.85   23.54
  -3   2   2  444.12   23.10
  -3   2   2  465.84   17.40
  -3   2   2  484.21   20.29
   2  -2  -2  609.41   22.81
   2  -2  -2  545.45   25.41
   2  -2  -2  587.66   22.27
   2  -2  -2  588.27   20.65
   2  -2  -2  546.88   25.42
   2  -2  -2  570.63   20.25
  -2   2   2  598.64   20.09
  -2   2   2  569.54   23.69
  -2   2   2  600.51   25.47
  -2   2   2  576.95   22.19
  -2   2   2  559.07   24.89
  -2   2   2  566.90   22.48
  -2   2   2  550.41   20.00
   1  -2  -2 2553.29   76.08
   1  -2  -2 2490.12   77.45
   1  -2  -2 2386.71   79.87
   1  -2  -2 2558.22   77.88
   1  -2  -2 2489.49   80.08
   1  -2  -2 2341.44   77.54
   1  -2  -2 2479.30   75.33
  -1   2   2 2536.83   77.56
  -1   2   2 2515.10   80.16
  -1   2   2 2482.60   77.38
  -1   2   2 2489.20   75.18
  -1   2   2 2425.33   79.77
  -1   2   2 2381.09   77.53
  -1   2   2 2386.21   75.75
   0  -2  -2  186.18    8.14
   0  -2  -2  173.75   11.01
   0  -2  -2  174.35   11.59
   0  -2  -2  176.74    8.40
   0  -2  -2  178.25    7.44
   0  -2  -2  164.31    8.68
   0  -2  -2  190.55    9.69
   0   2   2  184.49    9.23
   0   2   2  158.91   10.75
   0   2   2  172.16    7.66
   0   2   2  180.65   11.05
   0   2   2  169.80    8.64
   0   2   2  169.87    8.14
  -1  -2  -2 1244.51   39.04
  -1  -2  -2 1309.25   40.60
  -1  -2  -2 1256.84   42.25
  -1  -2  -2 1211.95   41.89
  -1  -2  -2 1205.79   39.26
  -1  -2  -2 1257.82   40.49
  -1  -2  -2 1218.71   40.04
   1   2   2 1265.19   39.10
   1   2   2 1231.63   41.99
   1   2   2 1213.32   40.05
   1   2   2 1240.21   41.90
   1   2   2 1307.60   39.71
   1   2   2 1320.96   40.81
   1   2   2 1256.77   40.02
  -2  -2  -2  186.61   10.20
  -2  -2  -2  183.43    9.93
  -2  -2  -2  194.84   10.34
  -2  -2  -2  181.83    9.28
  -2  -2  -2  168.05    8.45
  -2  -2  -2  161.50    8.58
  -2  -2  -2  171.75    8.10
  -2  -2  -2  168.33    8.92
  -2  -2  -2  176.60    8.73
   2   2   2  174.86    9.72
   2   2   2  190.85    9.82
   2   2   2  176.69    9.98
   2   2   2  169.09    8.66
   2   2   2  168.34    8.83
   2   2   2  183.27    7.34
   2   2   2  167.96    9.24
   2   2   2  190.35    7.29
  -3  -2  -2  615.08   21.69
  -3  -2  -2  655.41   23.53
  -3  -2  -2  638.61   23.76
  -3  -2  -2  667.16   23.60
  -3  -2  -2  714.10   26.19
  -3  -2  -2  590.83   24.11
  -3  -2  -2  665.89   22.08
  -3  -2  -2  626.70   24.16
  -3  -2  -2  663.98   24.37
  -3  -2  -2  615.91   23.31
   3   2   2  623.48   24.01
   3   2   2  672.31   24.96
   3   2   2  626.16   23.02
   3   2   2  649.48   23.87
  -4  -2  -2   71.53    7.84
  -4  -2  -2   65.24    7.77
  -4  -2  -2   65.18    7.13
  -4  -2  -2   49.81    6.35
  -4  -2  -2   49.52    5.39
  -4  -2  -2   54.62    5.43
   4   2   2   53.93    8.57
   4   2   2   58.64    6.25
   4   2   2   48.41    7.07
   4   2   2   59.50    6.54
   4   2   2   62.93    7.53
  -5  -2  -2  138.86    9.87
  -5  -2  -2  129.68    9.07
  -5  -2  -2  133.27   10.07
  -5  -2  -2  103.33    9.05
  -5  -2  -2  132.18   11.11
  -5  -2  -2  145.85   12.21
   5   2   2  123.10    9.45
   5   2   2  150.75   12.77
   5   2   2  114.10    8.67
   5   2   2  130.65   13.46
  -6  -2  -2  780.34   32.86
  -6  -2  -2  777.43   29.94
  -6  -2  -2  720.87   27.35
   6   2   2  810.68   33.75
   6   2   2  760.78   34.62
  -7  -2  -2   32.29   10.73
   7   2   2   28.68   15.67
   7   2   2   34.78   12.03
   6  -3  -2    5.60   13.67
   6  -3  -2    9.25   14.14
  -6   3   2    8.57    8.64
  -6   3   2    2.16   12.41
  -6   3   2    8.58   14.87
  -6   3   2   10.24   11.53
   5  -3  -2  131.31   14.99
   5  -3  -2  122.37   15.70
  -5   3   2  124.22   16.64
  -5   3   2  146.90   17.69
  -5   3   2  163.63   12.69
  -5   3   2  114.21   13.73
   4  -3  -2   32.44    9.11
   4  -3  -2   12.59   11.77
   4  -3  -2   23.20    7.33
   4  -3  -2    9.87    8.74
   4  -3  -2   26.20    9.13
  -4   3   2   27.25    6.36
  -4   3   2   26.53    8.39
  -4   3   2   22.63    9.97
  -4   3   2   24.98    8.77
  -4   3   2   32.82   10.17
  -4   3   2   37.26    6.16
   3  -3  -2   36.70    7.83
   3  -3  -2   61.60    9.14
   3  -3  -2   39.85    7.78
   3  -3  -2   49.50    6.72
   3  -3  -2   58.77   11.93
  -3   3   2   54.14   10.19
  -3   3   2   61.40   10.94
  -3   3   2   60.74    6.37
  -3   3   2   51.24    9.22
  -3   3   2   58.84    6.91
  -3   3   2   52.89    8.27
  -3   3   2   47.10    5.56
   2  -3  -2  316.96   14.19
   2  -3  -2  309.78   20.06
   2  -3  -2  312.38   16.21
   2  -3  -2  288.16   14.76
   2  -3  -2  309.35   14.95
   2  -3  -2  285.92   12.54
  -2   3   2  271.83   18.25
  -2   3   2  317.56   16.26
  -2   3   2  321.98   15.56
  -2   3   2  281.63   13.26
  -2   3   2  315.75   18.43
  -2   3   2  319.21   12.35
   1  -3  -2  453.91   18.57
   1  -3  -2  419.58   17.31
   1  -3  -2  438.39   15.86
   1  -3  -2  478.54   22.61
   1  -3  -2  433.01   21.36
   1  -3  -2  484.19   19.55
   1  -3  -2  452.05   19.33
  -1   3   2  427.93   17.39
  -1   3   2  426.28   21.35
  -1   3   2  445.25   18.20
  -1   3   2  468.09   18.67
  -1   3   2  467.58   21.69
  -1   3   2  443.68   15.71
  -1   3   2  449.20   18.99
   0  -3  -2  231.31   11.00
   0  -3  -2  203.31   13.76
   0  -3  -2  218.20    9.18
   0  -3  -2  230.38   11.57
   0  -3  -2  215.76   11.96
   0  -3  -2  223.00   10.72
   0  -3  -2  237.77   14.76
   0   3   2  238.05    7.60
   0   3   2  221.18   13.80
   0   3   2  232.03   14.06
   0   3   2  241.06   10.77
   0   3   2  212.10   10.56
   0   3   2  226.19   11.58
   0   3   2  223.37   11.49
  -1  -3  -2 2035.55   62.05
  -1  -3  -2 1921.52   62.10
  -1  -3  -2 1894.92   64.64
  -1  -3  -2 1898.49   61.13
  -1  -3  -2 1985.05   59.76
  -1  -3  -2 2047.89   62.89
  -1  -3  -2 1994.88   64.99
   1   3   2 1908.11   64.54
   1   3   2 1882.22   61.77
   1   3   2 1872.73   61.70
   1   3   2 2054.56   61.65
   1   3   2 1936.50   62.10
   1   3   2 1907.03   64.50
  -2  -3  -2 1615.99   52.36
  -2  -3  -2 1596.08   54.39
  -2  -3  -2 1734.07   53.07
  -2  -3  -2 1620.92   54.58
  -2  -3  -2 1642.51   52.22
  -2  -3  -2 1596.32   51.49
  -2  -3  -2 1577.00   52.25
  -2  -3  -2 1633.52   50.65
   2   3   2 1635.03   54.66
   2   3   2 1613.77   51.63
   2   3   2 1533.44   52.28
   2   3   2 1662.35   52.11
   2   3   2 1562.18   54.23
   2   3   2 1646.54   51.55
  -3  -3  -2  474.09   19.89
  -3  -3  -2  413.85   17.14
  -3  -3  -2  423.00   17.31
  -3  -3  -2  443.58   19.58
  -3  -3  -2  431.34   18.74
  -3  -3  -2  422.85   17.78
  -3  -3  -2  460.62   17.78
  -3  -3  -2  417.61   18.93
   3   3   2  426.90   19.45
   3   3   2  463.32   19.26
   3   3   2  434.99   15.30
   3   3   2  429.85   15.18
   3   3   2  442.78   17.23
   3   3   2  441.80   18.64
   3   3   2  423.23   19.47
   3   3   2  419.65   18.30
  -4  -3  -2  412.32   17.04
  -4  -3  -2  428.76   18.06
  -4  -3  -2  415.20   17.10
  -4  -3  -2  427.38   19.15
  -4  -3  -2  384.48   18.78
  -4  -3  -2  388.38   18.83
   4   3   2  438.36   20.12
   4   3   2  399.56   18.77
   4   3   2  411.91   18.05
   4   3   2  399.92   18.90
   4   3   2  348.30   17.90
  -5  -3  -2 1302.95   46.69
  -5  -3  -2 1290.48   45.60
  -5  -3  -2 1322.79   45.09
  -5  -3  -2 1282.51   44.37
  -5  -3  -2 1233.79   43.85
  -5  -3  -2 1276.27   43.67
   5   3   2 1340.98   46.26
   5   3   2 1296.91   48.36
   5   3   2 1230.17   44.45
  -6  -3  -2  287.72   16.79
  -6  -3  -2  291.49   19.55
  -6  -3  -2  264.71   16.18
  -6  -3  -2  255.62   17.01
   6   3   2  267.49   21.54
   6   3   2  292.51   18.51
  -7  -3  -2   71.90   13.12
   7   3   2   85.10   17.13
   7   3   2  108.80   15.40
   6  -4  -2   25.98   17.02
   6  -4  -2   18.46   15.33
  -6   4   2   30.05   15.91
  -6   4   2   20.79   15.44
   5  -4  -2   -1.38   11.80
   5  -4  -2    7.20   11.93
  -5   4   2    4.07    9.88
  -5   4   2    5.49   11.62
  -5   4   2    1.47    6.59
  -5   4   2    2.57   11.31
   4  -4  -2  222.46   18.08
   4  -4  -2  202.93   21.37
   4  -4  -2  188.02   14.88
   4  -4  -2  253.72   18.51
  -4   4   2  241.84   21.25
  -4   4   2  207.64   12.13
  -4   4   2  205.63   15.59
  -4   4   2  230.44   19.24
   3  -4  -2  208.99   12.50
   3  -4  -2  192.03   14.30
   3  -4  -2  214.53   20.94
   3  -4  -2  227.64   15.47
  -3   4   2  183.95   10.47
  -3   4   2  235.65   15.16
  -3   4   2  211.49   10.47
  -3   4   2  231.51   18.81
  -3   4   2  199.10   15.85
  -3   4   2  200.85   19.34
   2  -4  -2  175.96   11.50
   2  -4  -2  161.58    8.91
   2  -4  -2  164.30   11.64
   2  -4  -2  146.96   16.92
   2  -4  -2  158.68   12.31
  -2   4   2  160.38    7.32
  -2   4   2  140.29   15.36
  -2   4   2  170.56    8.38
  -2   4   2  169.70   15.81
  -2   4   2  173.34   12.65
  -2   4   2  165.47   12.43
   1  -4  -2  896.49   28.80
   1  -4  -2  922.39   31.86
   1  -4  -2  878.93   33.33
   1  -4  -2  904.78   37.37
   1  -4  -2  812.89   35.16
  -1   4   2  887.94   32.46
  -1   4   2  865.03   31.98
  -1   4   2  847.98   36.04
  -1   4   2  866.79   32.33
   0  -4  -2  148.28   14.08
   0  -4  -2  161.55   11.19
   0  -4  -2  148.12   14.09
   0  -4  -2  163.86   10.29
   0  -4  -2  146.37    9.79
   0  -4  -2  168.34   10.78
   0   4   2  139.05   13.51
   0   4   2  144.23   10.56
   0   4   2  147.76    9.26
   0   4   2  132.79    9.73
   0   4   2  144.39    9.59
   0   4   2  163.83   13.66
  -1  -4  -2 1472.20   44.56
  -1  -4  -2 1365.69   51.14
  -1  -4  -2 1423.87   47.12
  -1  -4  -2 1524.10   49.46
  -1  -4  -2 1471.66   51.78
  -1  -4  -2 1430.15   51.63
  -1  -4  -2 1358.67   47.82
  -1  -4  -2 1460.54   47.83
   1   4   2 1398.56   48.17
   1   4   2 1457.28   51.68
   1   4   2 1472.68   48.06
   1   4   2 1419.82   47.35
   1   4   2 1384.28   47.34
   1   4   2 1346.85   50.82
  -2  -4  -2  995.70   32.98
  -2  -4  -2  971.70   37.74
  -2  -4  -2  949.72   34.50
  -2  -4  -2 1008.23   34.70
  -2  -4  -2  984.50   38.45
  -2  -4  -2 1004.02   34.99
  -2  -4  -2  995.20   35.47
  -2  -4  -2 1004.97   31.53
   2   4   2  977.95   34.22
   2   4   2 1011.74   35.18
   2   4   2  972.72   33.36
   2   4   2  921.78   34.40
   2   4   2  936.17   34.27
   2   4   2 1018.97   38.23
  -3  -4  -2   98.59    9.41
  -3  -4  -2  103.26    7.88
  -3  -4  -2  101.04   11.12
  -3  -4  -2  129.49   10.65
  -3  -4  -2  129.43   12.19
  -3  -4  -2  115.80    9.91
  -3  -4  -2  102.24    9.01
   3   4   2  104.46    7.86
   3   4   2  111.61   12.15
   3   4   2  109.03    9.62
   3   4   2  100.11    7.80
   3   4   2   94.64    8.72
  -4  -4  -2  118.50   12.65
  -4  -4  -2  121.34   12.43
  -4  -4  -2  126.42   11.34
  -4  -4  -2  135.83   10.99
  -4  -4  -2  130.42   10.43
   4   4   2  139.89   12.52
   4   4   2  127.78    6.77
   4   4   2  128.34    6.74
   4   4   2  110.53    9.65
   4   4   2  127.82   10.86
   4   4   2  130.87   13.31
  -5  -4  -2  871.69   34.57
  -5  -4  -2  829.71   31.97
  -5  -4  -2  831.29   46.00
  -5  -4  -2  842.43   34.67
  -5  -4  -2  896.92   33.16
   5   4   2  828.55   36.91
   5   4   2  884.21   34.70
   5   4   2  848.84   33.13
   5   4   2  897.71   36.94
  -6  -4  -2  321.06   17.79
  -6  -4  -2  324.26   20.94
  -6  -4  -2  319.98   18.47
  -6  -4  -2  347.62   20.12
   6   4   2  301.87   19.56
   6   4   2  315.08   22.28
  -7  -4  -2  296.80   20.25
  -7  -4  -2  315.83   23.23
   7   4   2  329.02   22.84
   7   4   2  300.60   25.37
   6  -5  -2   12.47   17.25
  -6   5   2    9.64   25.22
  -6   5   2   18.76   17.15
   5  -5  -2   61.03   14.58
   5  -5  -2   67.77   15.54
  -5   5   2   70.34   17.51
   4  -5  -2  132.37   15.64
   4  -5  -2  114.33   19.90
   4  -5  -2  104.31   13.15
   4  -5  -2  121.04   15.33
  -4   5   2  145.95   18.81
  -4   5   2  107.43   14.31
  -4   5   2  126.43    9.88
  -4   5   2  146.91   17.48
   3  -5  -2   93.38   17.13
   3  -5  -2  101.02   12.47
   3  -5  -2  112.61    9.44
   3  -5  -2  105.62   12.28
  -3   5   2  120.29   13.65
  -3   5   2  121.27    8.02
  -3   5   2  103.33   15.06
  -3   5   2  121.12   12.90
   2  -5  -2   78.05    8.91
   2  -5  -2   75.75   14.29
   2  -5  -2   61.29   10.80
   2  -5  -2   89.16   10.70
  -2   5   2   73.24    9.65
  -2   5   2   69.80   10.06
  -2   5   2   62.13   11.66
   1  -5  -2  474.21   20.56
   1  -5  -2  443.51   16.58
   1  -5  -2  474.34   18.57
  -1   5   2  406.83   25.01
  -1   5   2  446.98   20.60
  -1   5   2  436.14   21.15
   0  -5  -2  426.29   25.05
   0  -5  -2  446.21   19.68
   0  -5  -2  412.19   20.69
   0  -5  -2  440.99   24.92
   0   5   2  454.41   19.30
   0   5   2  437.87   20.09
   0   5   2  429.63   24.07
  -1  -5  -2  108.33   13.80
  -1  -5  -2   96.01   13.31
  -1  -5  -2   63.68   11.25
  -1  -5  -2   68.36    8.86
  -1  -5  -2   82.19   10.20
  -1  -5  -2   73.98    5.58
   1   5   2   81.19   11.88
   1   5   2   85.06    8.28
   1   5   2   89.31    9.26
  -2  -5  -2   58.78    6.25
  -2  -5  -2   57.66    9.67
  -2  -5  -2   83.81   12.70
  -2  -5  -2   60.46    4.39
  -2  -5  -2   60.28    8.55
  -2  -5  -2   47.91    9.88
   2   5   2   82.08   11.87
   2   5   2   55.40    6.15
   2   5   2   59.31    7.78
   2   5   2   63.19    8.83
   2   5   2   49.26    7.44
  -3  -5  -2   37.15    6.84
  -3  -5  -2   23.02    8.78
  -3  -5  -2   23.65    8.11
  -3  -5  -2   38.81    7.43
  -3  -5  -2   31.09    8.05
   3   5   2   25.99    8.75
   3   5   2   30.73    7.18
   3   5   2   23.11    6.14
   3   5   2   24.63    5.74
  -4  -5  -2  858.82   31.75
  -4  -5  -2  719.64   34.73
  -4  -5  -2  847.68   35.68
  -4  -5  -2  817.84   32.42
  -4  -5  -2  730.81   31.66
   4   5   2  796.58   35.22
   4   5   2  808.11   28.93
   4   5   2  805.97   29.28
   4   5   2  810.47   33.46
   4   5   2  828.46   31.69
  -5  -5  -2  276.49   16.80
  -5  -5  -2  301.27   18.95
  -5  -5  -2  304.81   20.19
  -5  -5  -2  273.23   17.43
   5   5   2  285.29   18.04
   5   5   2  282.83   19.66
   5   5   2  260.33   15.68
  -6  -5  -2  143.13   15.49
  -6  -5  -2  121.08   14.18
  -6  -5  -2  102.74   11.96
  -6  -5  -2  102.82   13.81
   6   5   2  108.80   12.47
   6   5   2  105.29   16.65
  -7  -5  -2  142.52   16.26
  -7  -5  -2  168.13   18.14
   7   5   2  135.06   20.54
   7   5   2  139.97   16.19
   5  -6  -2   31.17   15.42
   5  -6  -2   50.95   17.26
  -5   6   2   35.17   14.16
  -5   6   2   35.80   17.52
  -5   6   2   26.56   14.03
   4  -6  -2  119.70   16.28
  -4   6   2  109.01   18.37
  -4   6   2  122.14   15.97
  -4   6   2   85.07   14.15
   3  -6  -2    2.17   14.09
   3  -6  -2   -3.04    9.97
   3  -6  -2   -0.83    8.97
   3  -6  -2   -0.91   14.52
  -3   6   2   -1.49    8.24
  -3   6   2    2.36   10.76
  -3   6   2    0.56    7.68
   2  -6  -2    5.33    4.68
   2  -6  -2    2.98   11.85
   2  -6  -2   12.85    8.39
   2  -6  -2    8.23    9.56
   2  -6  -2    6.48   12.66
   2  -6  -2    7.51    7.39
  -2   6   2    5.76    7.67
  -2   6   2    5.60    9.35
  -2   6   2    2.57    6.53
   1  -6  -2  634.65   27.71
   1  -6  -2  656.20   22.97
   1  -6  -2  684.31   35.91
   1  -6  -2  659.03   30.64
   1  -6  -2  650.42   24.76
   1  -6  -2  644.53   35.88
  -1   6   2  643.49   28.68
  -1   6   2  657.87   27.93
  -1   6   2  634.67   33.90
   0  -6  -2  548.06   30.49
   0  -6  -2  513.49   23.67
   0  -6  -2  500.82   18.51
   0  -6  -2  525.45   25.98
   0  -6  -2  549.99   31.39
   0   6   2  550.57   24.45
   0   6   2  521.49   23.18
   0   6   2  512.16   29.26
  -1  -6  -2   27.55    8.82
  -1  -6  -2   46.57    8.99
  -1  -6  -2   32.48    4.03
  -1  -6  -2   26.22   10.48
  -1  -6  -2   40.75   12.56
   1   6   2   34.48    7.20
   1   6   2   32.45    7.80
   1   6   2   26.88    9.49
  -2  -6  -2  267.22   13.53
  -2  -6  -2  294.80   22.38
  -2  -6  -2  305.03   16.92
  -2  -6  -2  301.02   18.60
   2   6   2  295.05   21.38
   2   6   2  313.60   16.84
   2   6   2  321.09   14.36
   2   6   2  274.24   16.42
  -3  -6  -2  298.25   16.85
  -3  -6  -2  253.53   22.42
  -3  -6  -2  290.26   21.67
  -3  -6  -2  329.05   19.12
  -3  -6  -2  306.67   17.57
   3   6   2  282.55   21.63
   3   6   2  286.21   16.28
   3   6   2  284.23   15.00
  -4  -6  -2   27.61    7.91
  -4  -6  -2   50.55   11.03
  -4  -6  -2   31.29   12.74
  -4  -6  -2   43.27   11.01
  -4  -6  -2   25.08    9.13
   4   6   2   60.71   10.89
   4   6   2   32.72   11.72
   4   6   2   46.19    8.23
   4   6   2   30.58    7.90
  -5  -6  -2   90.75   12.20
  -5  -6  -2  110.47   14.14
  -5  -6  -2  108.63   15.52
  -5  -6  -2   88.03   12.48
   5   6   2   87.51   15.42
   5   6   2  113.40   12.70
  -6  -6  -2   59.70   12.88
  -6  -6  -2   61.77   13.14
  -6  -6  -2   44.40   11.37
  -6  -6  -2   45.24   11.76
   6   6   2   59.32   14.19
   6   6   2   43.73   10.15
  -7  -6  -2   20.91   13.18
  -7  -6  -2   22.53   11.87
   7   6   2   14.38   15.86
   4  -7  -2   53.22   15.43
   4  -7  -2   36.13   13.96
   4  -7  -2   33.34   13.97
  -4   7   2   71.80   20.01
  -4   7   2   36.39   13.14
   3  -7  -2  103.39   23.07
   3  -7  -2   96.79   15.18
   3  -7  -2  107.79   14.54
   3  -7  -2   79.52   21.46
  -3   7   2   95.17   14.39
  -3   7   2  141.14   22.93
  -3   7   2  121.80   16.90
   2  -7  -2  626.95   30.02
  -2   7   2  645.08   30.73
  -2   7   2  673.58   37.74
  -2   7   2  616.94   30.64
   1  -7  -2  221.72   13.24
   1  -7  -2  179.69   20.32
   1  -7  -2  222.29   18.75
   1  -7  -2  210.95   18.41
   1  -7  -2  171.42   20.87
  -1   7   2  223.53   23.90
  -1   7   2  208.12   16.92
  -1   7   2  212.72   15.97
   0  -7  -2   -2.30   10.59
   0  -7  -2   -1.85   12.40
   0  -7  -2    2.84    4.14
   0  -7  -2    0.42    8.63
   0  -7  -2    7.44    8.88
   0   7   2    9.21    9.91
   0   7   2    5.54    8.56
   0   7   2    6.32    5.99
  -1  -7  -2  132.99    7.58
  -1  -7  -2  120.80   17.62
  -1  -7  -2  141.53   16.22
  -1  -7  -2  155.50   14.60
   1   7   2  145.89   13.84
   1   7   2  186.65   21.12
   1   7   2  145.27   12.89
  -2  -7  -2   63.26   11.39
  -2  -7  -2   66.17   12.40
  -2  -7  -2   56.48   12.95
  -2  -7  -2   58.17    7.44
   2   7   2   74.07   11.08
   2   7   2   86.62   15.93
   2   7   2   78.83    7.95
   2   7   2   79.03   10.94
  -3  -7  -2  622.61   33.95
  -3  -7  -2  584.04   26.31
  -3  -7  -2  617.46   28.48
  -3  -7  -2  581.72   28.95
   3   7   2  547.52   33.34
   3   7   2  578.67   24.52
   3   7   2  616.02   27.44
  -4  -7  -2    4.43    8.38
  -4  -7  -2   -0.87    9.90
  -4  -7  -2   -1.64    8.62
  -4  -7  -2    1.74    9.27
   4   7   2    1.21    8.40
   4   7   2    1.22   11.76
   4   7   2    2.62    6.56
   4   7   2    4.14    9.40
  -5  -7  -2  278.29   20.08
  -5  -7  -2  272.64   21.65
  -5  -7  -2  258.66   24.03
  -5  -7  -2  265.09   20.31
   5   7   2  234.45   20.74
   5   7   2  241.40   17.94
  -6  -7  -2   93.76   17.96
  -6  -7  -2   68.12   14.04
  -6  -7  -2   91.77   15.91
  -6  -7  -2   60.76   13.96
   6   7   2   82.95   16.59
   4  -8  -2    2.16   14.67
   4  -8  -2    3.65   16.05
  -4   8   2    5.34   14.20
  -4   8   2    2.17   13.29
  -4   8   2   21.50   20.91
   3  -8  -2   23.53   27.26
   3  -8  -2   13.17   12.20
   3  -8  -2   23.00   26.51
   3  -8  -2   29.02   15.07
  -3   8   2   42.73   19.26
  -3   8   2   24.47   12.28
  -3   8   2   36.20   13.52
   2  -8  -2  366.92   24.98
   2  -8  -2  404.78   38.28
   2  -8  -2  371.71   35.85
  -2   8   2  378.92   33.56
  -2   8   2  370.86   24.70
  -2   8   2  344.45   23.19
   1  -8  -2   67.85   13.84
   1  -8  -2   63.43   15.24
   1  -8  -2   52.94   18.85
   1  -8  -2   38.09   15.89
  -1   8   2   85.98   19.05
  -1   8   2   66.59   11.72
  -1   8   2   91.75   14.64
   0  -8  -2   31.37   11.76
   0  -8  -2   20.03   11.76
   0  -8  -2   27.69   14.60
   0   8   2   33.07   10.99
   0   8   2   40.56   10.15
   0   8   2   49.69   14.75
  -1  -8  -2   17.53   11.98
  -1  -8  -2   23.46   12.33
  -1  -8  -2   22.04   11.93
   1   8   2   22.20    9.46
   1   8   2   22.26   12.89
   1   8   2   22.50    8.42
  -2  -8  -2  325.96   27.95
  -2  -8  -2  315.34   18.78
  -2  -8  -2  340.37   23.05
  -2  -8  -2  355.32   24.29
   2   8   2  329.70   21.32
   2   8   2  334.71   28.25
   2   8   2  361.33   22.39
   2   8   2  369.64   16.89
  -3  -8  -2  118.85   12.87
  -3  -8  -2  126.59   15.45
  -3  -8  -2  111.18   16.37
  -3  -8  -2  110.30   17.88
   3   8   2  137.72   11.88
   3   8   2  134.95   16.24
   3   8   2  149.88   15.80
   3   8   2  114.88   19.27
  -4  -8  -2   28.34   12.71
  -4  -8  -2   18.66   10.27
  -4  -8  -2   26.57   11.76
  -4  -8  -2   35.28   13.65
   4   8   2   36.98   17.07
   4   8   2   15.26   10.62
   4   8   2   19.73    8.29
   4   8   2   33.88   10.85
  -5  -8  -2  257.75   23.53
  -5  -8  -2  212.70   19.34
  -5  -8  -2  259.57   26.80
  -5  -8  -2  228.11   20.86
   5   8   2  258.72   22.86
   5   8   2  252.83   18.74
  -6  -8  -2   89.15   17.95
  -6  -8  -2   84.82   16.31
  -6  -8  -2   93.92   18.82
   6   8   2   75.88   18.34
   3  -9  -2    5.55   16.54
  -3   9   2    1.90   12.38
  -3   9   2    6.71   16.06
  -3   9   2    5.75   17.87
   2  -9  -2    5.93   19.21
   2  -9  -2   10.71   15.12
   2  -9  -2    6.35   15.51
  -2   9   2    9.36   17.33
  -2   9   2    5.41   12.60
  -2   9   2    4.42   10.87
   1  -9  -2  159.22   19.59
   1  -9  -2  113.56   19.48
  -1   9   2  152.69   19.51
  -1   9   2  167.63   18.08
  -1   9   2  197.99   27.87
   0  -9  -2  107.04   17.70
   0  -9  -2   75.21   16.21
   0  -9  -2  103.90   21.05
   0   9   2  121.08   15.85
   0   9   2  118.95   17.12
   0   9   2  111.14   22.77
  -1  -9  -2  166.56   19.35
  -1  -9  -2  118.93   17.48
  -1  -9  -2  130.71   12.19
  -1  -9  -2   93.77   19.03
   1   9   2  221.31   28.40
   1   9   2  119.80   14.35
   1   9   2  188.73   20.36
  -2  -9  -2  290.30   19.81
  -2  -9  -2  332.92   23.89
  -2  -9  -2  313.15   30.56
  -2  -9  -2  330.37   25.49
   2   9   2  309.98   31.61
   2   9   2  282.14   16.31
   2   9   2  333.47   22.77
   2   9   2  327.76   22.84
  -3  -9  -2    4.07    9.76
  -3  -9  -2    4.73   12.32
  -3  -9  -2    5.39   12.22
  -3  -9  -2    0.88   12.57
   3   9   2    3.00   11.42
   3   9   2    8.00   15.01
   3   9   2    0.68    9.38
   3   9   2    3.70    7.42
  -4  -9  -2  353.67   27.06
  -4  -9  -2  348.96   30.93
  -4  -9  -2  319.05   24.31
  -4  -9  -2  320.20   23.32
   4   9   2  322.09   20.13
   4   9   2  343.70   24.35
  -5  -9  -2   67.35   16.79
  -5  -9  -2   71.07   17.01
  -5  -9  -2   76.17   15.07
  -5  -9  -2   60.42   17.71
   5   9   2   81.41   17.99
   2 -10  -2   14.22   22.03
  -2  10   2   19.52   13.21
  -2  10   2   18.40   31.95
   1 -10  -2   57.30   22.55
   1 -10  -2  139.70   21.26
   1 -10  -2   75.34   20.42
  -1  10   2   93.40   23.67
  -1  10   2  132.09   20.21
  -1  10   2   97.23   16.09
   0 -10  -2   10.36   17.82
   0 -10  -2   16.25   16.65
   0 -10  -2    4.05   15.70
   0  10   2   20.47   18.21
   0  10   2   18.02   13.46
   0  10   2   28.52   12.79
  -1 -10  -2   60.09   19.51
  -1 -10  -2   68.11   17.41
  -1 -10  -2  117.66   18.85
   1  10   2  169.18   28.26
   1  10   2   91.76   14.70
   1  10   2   95.04   17.16
  -2 -10  -2  124.68   24.04
  -2 -10  -2  127.50   15.05
  -2 -10  -2  144.42   20.74
  -2 -10  -2  104.00   18.75
   2  10   2  109.46   16.08
   2  10   2  126.09   18.26
   2  10   2  127.32   25.30
  -3 -10  -2  139.11   21.86
  -3 -10  -2   88.87   14.47
  -3 -10  -2   94.16   18.97
  -3 -10  -2  116.79   22.92
   3  10   2  126.64   19.37
   3  10   2   94.48   24.90
   3  10   2  118.78   17.93
  -4 -10  -2   69.18   15.29
  -4 -10  -2   93.00   19.80
  -4 -10  -2   70.99   18.96
  -4 -10  -2   68.32   18.55
   4  10   2  108.26   18.65
  -1 -11  -2   22.11   19.86
  -1 -11  -2   31.85   22.12
  -1 -11  -2   20.91   20.14
   1  11   2   27.34   16.94
   1  11   2   39.52   24.71
   1  11   2   18.39   12.94
  -2 -11  -2  126.71   24.67
  -2 -11  -2   44.68   20.48
  -2 -11  -2   74.76   24.74
   2  11   2  107.08   19.83
   2  11   2   92.10   17.14
   2  11   2  118.29   29.54
   3  10  -3   76.72   25.80
   3  10  -3   83.60   20.56
  -3 -10   3   84.49   21.06
  -3 -10   3   89.42   18.46
   2  10  -3   33.06   15.52
   2  10  -3   11.57   20.83
   2  10  -3   32.90   18.60
  -2 -10   3   28.02   18.10
  -2 -10   3   37.55   16.20
   1  10  -3  337.48   29.23
   1  10  -3  365.47   38.34
   1  10  -3  322.47   27.56
  -1 -10   3  320.47   26.70
  -1 -10   3  333.40   34.84
   0  10  -3   39.37   12.95
   0  10  -3   50.91   24.46
   0  10  -3   41.49   19.08
   0 -10   3   34.71   15.24
   0 -10   3   32.37   18.82
  -1  10  -3  213.32   33.71
  -1  10  -3  160.02   23.23
  -1  10  -3  187.94   22.64
   1 -10   3  135.69   19.84
   1 -10   3  126.20   25.32
   1 -10   3  186.14   18.39
  -2  10  -3    5.36   23.59
  -2  10  -3   -1.90   13.27
  -2  10  -3   -0.62   17.26
   2 -10   3   -2.57   11.98
   2 -10   3    3.66   13.67
   4   9  -3  148.65   20.51
   4   9  -3  140.29   21.53
   4   9  -3  146.19   46.59
  -4  -9   3  169.05   21.59
  -4  -9   3  188.58   26.22
  -4  -9   3  146.67   15.88
   3   9  -3   88.55   19.27
   3   9  -3   80.09   24.27
  -3  -9   3   56.86   11.22
  -3  -9   3   43.10   13.75
  -3  -9   3   76.03   19.76
   2   9  -3   19.84   12.66
   2   9  -3   20.97   17.81
   2   9  -3   21.64   15.65
  -2  -9   3   16.03    8.06
  -2  -9   3   23.09   11.84
  -2  -9   3   18.16   14.13
   1   9  -3   89.19   14.56
   1   9  -3  117.07   20.11
   1   9  -3  120.38   23.67
  -1  -9   3   94.23   20.18
  -1  -9   3   85.49   15.31
   0   9  -3  175.11   27.82
   0   9  -3  141.97   16.97
   0   9  -3  117.11   18.15
   0  -9   3   86.60   18.74
   0  -9   3  109.32   17.22
  -1   9  -3  248.26   23.91
  -1   9  -3  238.63   22.55
  -1   9  -3  198.56   26.62
   1  -9   3  154.76   15.49
   1  -9   3  133.25   17.06
   1  -9   3  179.27   24.45
  -2   9  -3   19.19   16.81
  -2   9  -3   38.23   19.94
  -2   9  -3   24.43   10.96
   2  -9   3   21.92   11.50
   2  -9   3   18.25   17.05
   2  -9   3   25.49   12.78
  -3   9  -3  248.52   25.83
  -3   9  -3  250.19   26.39
  -3   9  -3  240.64   32.41
   3  -9   3  216.38   20.51
   3  -9   3  185.99   20.65
   5   8  -3   48.92   16.37
   5   8  -3   60.32   19.56
  -5  -8   3   54.39   12.74
  -5  -8   3   61.21   15.85
  -5  -8   3   74.02   19.26
   4   8  -3   62.38   16.61
   4   8  -3   50.94   22.90
   4   8  -3   65.38   15.53
  -4  -8   3   63.48   15.91
  -4  -8   3   75.24   15.41
  -4  -8   3   74.10   12.62
   3   8  -3  173.93   20.71
   3   8  -3  192.34   27.73
  -3  -8   3  166.22   23.27
  -3  -8   3  143.90   17.90
  -3  -8   3  198.37   15.85
   2   8  -3  898.47   41.12
   2   8  -3  830.40   46.76
   2   8  -3  860.48   39.84
  -2  -8   3  906.56   46.33
  -2  -8   3  860.58   39.52
  -2  -8   3  844.87   33.32
   1   8  -3  185.86   19.15
   1   8  -3  208.59   26.48
   1   8  -3  171.83   19.10
  -1  -8   3  180.30   12.19
  -1  -8   3  133.02   16.19
  -1  -8   3  151.52   21.82
   0   8  -3  568.22   38.81
   0   8  -3  578.75   30.04
   0   8  -3  585.23   30.57
   0  -8   3  604.00   31.64
   0  -8   3  634.69   37.32
  -1   8  -3   58.13   13.09
  -1   8  -3   51.79   17.56
  -1   8  -3   47.69   13.83
   1  -8   3   28.43   13.47
   1  -8   3   43.01   11.16
  -2   8  -3  365.50   33.77
  -2   8  -3  339.50   23.54
  -2   8  -3  367.84   23.83
   2  -8   3  344.21   22.83
   2  -8   3  337.61   30.33
   2  -8   3  368.76   22.71
  -3   8  -3   89.84   16.85
  -3   8  -3   81.16   18.88
  -3   8  -3   63.92   14.07
   3  -8   3   71.15   14.05
   3  -8   3   75.95   13.07
  -4   8  -3   67.08   19.86
  -4   8  -3   54.39   16.85
  -4   8  -3   66.39   15.77
   4  -8   3   76.70   16.59
   5   7  -3  281.03   25.86
   5   7  -3  253.66   21.47
  -5  -7   3  303.12   28.12
  -5  -7   3  308.67   25.28
  -5  -7   3  293.86   21.28
   4   7  -3   13.05   18.13
   4   7  -3    7.45   11.75
   4   7  -3   14.85   13.01
  -4  -7   3    9.75    9.02
  -4  -7   3   15.80   12.18
  -4  -7   3   11.68    9.83
   3   7  -3  304.81   29.67
   3   7  -3  251.22   19.90
  -3  -7   3  249.22   24.53
  -3  -7   3  236.02   16.39
  -3  -7   3  246.81   19.66
   2   7  -3  244.85   19.93
   2   7  -3  223.54   19.00
   2   7  -3  256.83   26.85
  -2  -7   3  239.90   18.57
  -2  -7   3  267.03   23.43
  -2  -7   3  234.60   14.91
   1   7  -3  332.41   21.85
   1   7  -3  336.17   21.87
  -1  -7   3  331.00   15.36
  -1  -7   3  331.48   21.00
  -1  -7   3  289.40   25.11
   0   7  -3  377.07   22.85
   0   7  -3  437.02   30.79
   0   7  -3  392.28   22.51
   0  -7   3  384.63   15.61
   0  -7   3  417.60   28.19
   0  -7   3  427.16   24.23
  -1   7  -3  308.89   20.72
  -1   7  -3  296.68   27.28
  -1   7  -3  282.78   18.81
   1  -7   3  294.27   25.23
   1  -7   3  302.67   19.34
  -2   7  -3  789.66   35.40
  -2   7  -3  818.67   35.40
  -2   7  -3  819.90   42.67
   2  -7   3  828.59   34.38
   2  -7   3  816.36   33.99
   2  -7   3  751.23   27.97
   2  -7   3  838.36   41.70
  -3   7  -3  160.67   16.99
  -3   7  -3  120.22   14.25
  -3   7  -3  193.92   23.22
   3  -7   3  170.38   15.59
   3  -7   3  104.28   17.07
   3  -7   3  173.27   16.37
  -4   7  -3  272.48   24.32
  -4   7  -3  270.07   28.56
  -4   7  -3  251.29   20.86
   4  -7   3  239.52   22.00
  -5   7  -3  111.08   22.10
  -5   7  -3   99.60   17.69
   5  -7   3  132.92   20.92
   6   6  -3  190.25   23.16
  -6  -6   3  235.83   21.74
  -6  -6   3  288.87   29.33
  -6  -6   3  201.76   18.91
   5   6  -3   68.49   10.93
   5   6  -3   32.15   13.29
   5   6  -3   51.42   13.74
   5   6  -3   44.03   12.85
  -5  -6   3   40.76   13.46
  -5  -6   3   39.26   10.28
  -5  -6   3   53.65   13.26
   4   6  -3   87.01   13.29
   4   6  -3   98.79   10.37
   4   6  -3  111.73   15.16
   4   6  -3  159.78   23.82
  -4  -6   3  116.90   12.93
  -4  -6   3  132.05   18.61
  -4  -6   3  112.66   14.76
   3   6  -3  805.98   42.65
   3   6  -3  768.80   34.44
   3   6  -3  838.19   33.19
  -3  -6   3  842.23   36.04
  -3  -6   3  779.57   31.57
  -3  -6   3  796.85   40.29
   2   6  -3  231.55   17.71
   2   6  -3  273.66   24.58
   2   6  -3  258.06   19.41
  -2  -6   3  279.24   18.30
  -2  -6   3  250.40   21.31
  -2  -6   3  256.35   14.61
   1   6  -3  399.13   21.35
   1   6  -3  386.91   22.65
   1   6  -3  353.34   26.79
  -1  -6   3  359.46   20.61
  -1  -6   3  376.13   25.25
  -1  -6   3  406.26   16.46
   0   6  -3   45.89    9.72
   0   6  -3   37.37    5.23
   0   6  -3   45.34    8.95
   0   6  -3   51.16   12.79
   0  -6   3   26.93    9.58
   0  -6   3   49.04    5.01
   0  -6   3   44.13    9.10
  -1   6  -3  771.61   29.06
  -1   6  -3  850.13   26.27
  -1   6  -3  841.81   33.97
  -1   6  -3  787.47   39.59
  -1   6  -3  859.89   34.14
   1  -6   3  802.36   38.61
   1  -6   3  817.36   33.82
   1  -6   3  837.70   31.20
  -2   6  -3   12.70   10.31
  -2   6  -3    7.44    5.28
  -2   6  -3    5.19    6.64
  -2   6  -3    8.81    8.79
   2  -6   3    3.42    5.99
   2  -6   3    4.96    9.37
   2  -6   3    3.75    4.17
   2  -6   3    6.49    6.55
  -3   6  -3  799.95   34.37
  -3   6  -3  832.60   40.44
  -3   6  -3  879.46   36.99
   3  -6   3  839.56   35.38
   3  -6   3  795.95   39.34
   3  -6   3  838.73   30.01
   3  -6   3  848.81   32.14
  -4   6  -3  334.39   27.28
  -4   6  -3  302.44   20.85
  -4   6  -3  285.66   22.86
   4  -6   3  283.91   21.58
  -5   6  -3    3.52   11.13
  -5   6  -3   16.47   15.00
  -5   6  -3    9.35   11.47
   5  -6   3    6.14   13.40
   5  -6   3   19.50   13.34
  -6   6  -3  213.58   25.17
  -6   6  -3  235.04   23.93
   6  -6   3  257.79   24.74
   6  -6   3  267.08   27.07
   6   5  -3  284.52   23.16
   6   5  -3  311.40   25.97
  -6  -5   3  302.89   24.04
  -6  -5   3  348.33   22.72
  -6  -5   3  299.32   27.56
   5   5  -3    8.48   11.25
   5   5  -3   14.53   11.16
   5   5  -3   10.11   11.54
   5   5  -3   21.82    8.84
  -5  -5   3   21.78    9.97
  -5  -5   3   20.58    8.74
  -5  -5   3   19.68   10.99
   4   5  -3  146.37   15.10
   4   5  -3  141.92   12.20
   4   5  -3  139.31   13.84
   4   5  -3  154.22   19.89
  -4  -5   3  137.10   12.69
  -4  -5   3  146.46   17.54
  -4  -5   3  163.00   16.25
   3   5  -3   34.92    8.72
   3   5  -3   46.31   14.69
   3   5  -3   39.23    7.70
   3   5  -3   32.50    9.06
  -3  -5   3   33.65    6.22
  -3  -5   3   31.85    9.72
  -3  -5   3   38.83    4.27
  -3  -5   3   43.63    9.39
  -3  -5   3   42.84    7.78
   2   5  -3   14.91    9.81
   2   5  -3   14.05    7.70
  -2  -5   3   14.20    3.45
  -2  -5   3   17.47    8.30
  -2  -5   3   12.98    6.72
  -2  -5   3   12.39    5.29
   1   5  -3  150.36   12.59
   1   5  -3  150.04   10.60
   1   5  -3  106.23   14.24
   1   5  -3  151.30   12.00
  -1  -5   3  150.07    8.96
  -1  -5   3  156.18   12.46
  -1  -5   3  111.50   13.60
   0   5  -3  163.50   17.44
   0   5  -3  163.52   12.05
   0   5  -3  171.01    9.43
   0   5  -3  190.07   13.46
   0  -5   3  180.06   12.67
   0  -5   3  181.69   16.66
   0  -5   3  200.70    8.82
  -1   5  -3  648.88   20.55
  -1   5  -3  615.87   31.59
  -1   5  -3  637.17   26.45
  -1   5  -3  594.12   30.92
  -1   5  -3  626.99   31.63
  -1   5  -3  663.42   26.61
  -1   5  -3  606.88   23.17
   1  -5   3  627.10   24.42
   1  -5   3  653.14   19.97
   1  -5   3  630.02   30.31
   1  -5   3  638.97   26.25
  -2   5  -3  479.42   27.51
  -2   5  -3  492.97   22.99
  -2   5  -3  501.96   19.35
  -2   5  -3  529.95   27.91
  -2   5  -3  481.09   27.22
  -2   5  -3  577.17   24.23
   2  -5   3  507.33   19.17
   2  -5   3  496.28   21.90
   2  -5   3  520.18   27.42
   2  -5   3  513.83   22.52
   2  -5   3  511.20   22.04
  -3   5  -3 1862.71   61.79
  -3   5  -3 1793.45   62.74
  -3   5  -3 1809.98   65.83
  -3   5  -3 1685.67   64.62
   3  -5   3 1828.40   58.53
   3  -5   3 1795.63   57.75
   3  -5   3 1827.51   62.01
   3  -5   3 1783.56   64.99
   3  -5   3 1646.57   57.93
  -4   5  -3   13.53    9.46
  -4   5  -3   15.27    7.85
  -4   5  -3   11.74   11.12
   4  -5   3   17.11    7.03
   4  -5   3    8.51    9.71
   4  -5   3   13.77    9.24
  -5   5  -3  574.51   32.34
  -5   5  -3  555.89   32.25
  -5   5  -3  563.87   27.74
   5  -5   3  626.96   30.94
   5  -5   3  557.74   31.12
  -6   5  -3   13.70   14.08
  -6   5  -3   15.10   15.64
   6  -5   3   25.35   15.58
   6  -5   3   18.16   14.53
   6   4  -3  108.38   17.51
   6   4  -3  145.37   16.49
  -6  -4   3  131.32   17.54
  -6  -4   3  109.83   17.28
  -6  -4   3  139.75   15.25
   5   4  -3   23.09   11.48
   5   4  -3   28.84    9.19
   5   4  -3   30.93   11.04
  -5  -4   3   27.98    8.64
  -5  -4   3   24.25   10.66
  -5  -4   3   20.69    9.23
   4   4  -3  228.43   17.08
   4   4  -3  225.03   16.82
   4   4  -3  200.09   15.97
   4   4  -3  227.08   14.53
   4   4  -3  239.10   24.00
  -4  -4   3  200.85   14.39
  -4  -4   3  219.86   19.10
  -4  -4   3  218.53   15.67
   3   4  -3  309.07   18.12
   3   4  -3  341.00   23.88
   3   4  -3  291.91   13.46
   3   4  -3  307.20   16.19
  -3  -4   3  316.11   17.45
  -3  -4   3  300.93   10.91
  -3  -4   3  285.90   20.76
  -3  -4   3  299.05   15.88
  -3  -4   3  324.05   16.69
   2   4  -3  575.98   24.33
   2   4  -3  533.43   20.83
   2   4  -3  570.70   29.43
  -2  -4   3  545.27   21.70
  -2  -4   3  550.79   27.70
  -2  -4   3  566.58   24.44
  -2  -4   3  558.02   19.96
   1   4  -3   16.63    8.80
   1   4  -3   12.14    5.92
   1   4  -3   11.95    5.05
   1   4  -3   10.98    4.64
   1   4  -3    8.48    4.37
  -1  -4   3   13.54    1.90
  -1  -4   3    5.17    5.40
  -1  -4   3   20.39    4.27
  -1  -4   3   18.41    5.91
   0   4  -3 1872.09   68.71
   0   4  -3 1975.58   61.01
   0   4  -3 1938.51   64.54
   0   4  -3 1940.01   65.11
   0   4  -3 1938.53   65.40
   0  -4   3 2013.75   65.12
   0  -4   3 1974.56   66.57
   0  -4   3 2021.29   60.62
   0  -4   3 1979.07   68.82
  -1   4  -3 1245.67   38.72
  -1   4  -3 1236.34   47.67
  -1   4  -3 1308.84   44.08
  -1   4  -3 1276.95   48.14
  -1   4  -3 1308.80   44.06
  -1   4  -3 1271.83   38.98
  -1   4  -3 1216.46   41.23
   1  -4   3 1242.87   43.53
   1  -4   3 1191.47   41.74
   1  -4   3 1243.95   38.54
   1  -4   3 1313.16   47.63
   1  -4   3 1296.76   43.35
  -2   4  -3  897.59   32.84
  -2   4  -3  869.92   36.18
  -2   4  -3  862.35   29.80
  -2   4  -3  843.71   32.99
  -2   4  -3  897.93   36.90
  -2   4  -3  930.89   36.82
  -2   4  -3  839.42   31.80
   2  -4   3  884.33   30.05
   2  -4   3  876.44   31.24
   2  -4   3  921.40   31.72
   2  -4   3  963.09   33.15
   2  -4   3  860.33   35.51
  -3   4  -3  857.00   31.74
  -3   4  -3  813.41   34.57
  -3   4  -3  846.13   33.71
  -3   4  -3  882.95   35.81
   3  -4   3  835.79   29.99
   3  -4   3  852.66   33.33
   3  -4   3  913.35   32.70
   3  -4   3  836.11   34.54
   3  -4   3  850.32   28.98
   3  -4   3  825.09   28.90
  -4   4  -3  214.47   13.77
  -4   4  -3  203.39   16.67
  -4   4  -3  219.48   18.24
  -4   4  -3  203.57    8.45
  -4   4  -3  247.57   17.18
   4  -4   3  213.26   13.47
   4  -4   3  184.38   15.70
   4  -4   3  239.71   17.26
   4  -4   3  234.12   17.46
  -5   4  -3  210.98   15.23
  -5   4  -3  209.21   19.27
  -5   4  -3  207.65   20.77
   5  -4   3  191.75   18.68
   5  -4   3  201.53   18.31
  -6   4  -3    9.70   14.14
  -6   4  -3   21.50   11.75
   6  -4   3    8.66   13.10
   6  -4   3   23.79   13.18
  -7   4  -3  321.96   33.38
   7  -4   3  282.25   29.59
   7  -4   3  313.23   27.71
  -7  -3   3  120.31   20.18
   6   3  -3   10.17   10.89
   6   3  -3    2.30   11.66
  -6  -3   3   13.38   11.66
  -6  -3   3   13.03   11.32
  -6  -3   3    9.46    9.26
   5   3  -3  134.75   13.50
   5   3  -3  158.29   14.83
   5   3  -3  124.00   14.56
   5   3  -3   73.54   20.77
  -5  -3   3  115.49   12.26
  -5  -3   3  121.77   14.22
  -5  -3   3  155.85   18.15
   4   3  -3  425.46   21.85
   4   3  -3  434.42   21.72
   4   3  -3  406.05   21.32
   4   3  -3  468.98   28.68
   4   3  -3  469.94   21.97
   4   3  -3  445.47   20.97
  -4  -3   3  457.09   20.94
  -4  -3   3  467.26   28.04
  -4  -3   3  452.97   25.80
  -4  -3   3  429.51   21.88
   3   3  -3  490.06   16.88
   3   3  -3  474.78   26.96
   3   3  -3  505.84   21.88
   3   3  -3  492.64   20.51
  -3  -3   3  472.24   24.84
  -3  -3   3  452.60   20.10
  -3  -3   3  470.55   26.31
  -3  -3   3  473.94   21.82
   2   3  -3  587.55   21.76
   2   3  -3  616.16   24.83
   2   3  -3  606.64   29.06
   2   3  -3  569.20   20.61
   2   3  -3  585.06   24.29
  -2  -3   3  625.70   24.65
  -2  -3   3  577.51   27.35
  -2  -3   3  607.61   22.37
  -2  -3   3  553.80   20.93
  -2  -3   3  551.50   27.36
   1   3  -3 2442.77   79.75
   1   3  -3 2432.76   82.80
   1   3  -3 2537.09   83.93
   1   3  -3 2521.31   80.00
   1   3  -3 2419.52   77.15
   1   3  -3 2449.89   79.87
   1   3  -3 2352.56   77.14
  -1  -3   3 2547.85   77.12
  -1  -3   3 2520.93   75.35
  -1  -3   3 2555.69   79.91
  -1  -3   3 2497.67   79.78
  -1  -3   3 2552.29   83.70
  -1  -3   3 2586.91   83.95
  -1  -3   3 2359.31   78.92
   0   3  -3  540.60   25.36
   0   3  -3  593.89   22.22
   0   3  -3  606.28   23.11
   0   3  -3  605.18   26.06
   0   3  -3  570.48   19.76
   0   3  -3  539.61   21.01
   0   3  -3  556.03   22.77
   0  -3   3  590.67   22.72
   0  -3   3  581.53   19.39
   0  -3   3  562.58   25.64
   0  -3   3  559.87   22.19
   0  -3   3  572.91   22.02
   0  -3   3  568.49   25.19
   0  -3   3  587.37   19.53
  -1   3  -3  367.95   19.17
  -1   3  -3  354.01   16.57
  -1   3  -3  365.06   18.99
  -1   3  -3  376.73   16.29
  -1   3  -3  361.46   14.88
  -1   3  -3  383.09   12.49
  -1   3  -3  379.23   12.75
  -1   3  -3  382.61   16.00
   1  -3   3  368.62   19.00
   1  -3   3  352.65   15.15
   1  -3   3  374.35   12.24
   1  -3   3  363.85   16.26
   1  -3   3  365.56   18.53
   1  -3   3  367.97   14.95
   1  -3   3  371.04   15.74
  -2   3  -3 8457.96  246.53
  -2   3  -3 7965.70  247.20
  -2   3  -3 8311.54  249.06
  -2   3  -3 7851.03  248.65
  -2   3  -3 8300.31  244.94
  -2   3  -3 8500.64  249.69
  -2   3  -3 7777.76  246.18
  -2   3  -3 7830.44  246.28
   2  -3   3 8107.82  244.91
   2  -3   3 8274.69  244.95
   2  -3   3 8095.86  248.85
   2  -3   3 8338.42  247.22
   2  -3   3 8003.68  248.24
   2  -3   3 8180.40  248.76
   2  -3   3 8249.85  244.85
  -3   3  -3   38.70    3.54
  -3   3  -3   40.80    6.70
  -3   3  -3   39.83    6.05
  -3   3  -3   49.53    8.27
  -3   3  -3   45.21    7.98
  -3   3  -3   37.24    7.88
  -3   3  -3   46.73    8.09
   3  -3   3   39.02    5.58
   3  -3   3   45.39    7.80
   3  -3   3   43.27    7.45
   3  -3   3   39.52    7.15
   3  -3   3   34.97    2.25
  -4   3  -3  486.68   19.65
  -4   3  -3  476.67   23.39
  -4   3  -3  493.11   22.86
  -4   3  -3  482.92   17.47
  -4   3  -3  426.53   20.08
  -4   3  -3  473.68   21.70
   4  -3   3  487.33   23.55
   4  -3   3  478.48   20.94
   4  -3   3  514.39   23.32
  -5   3  -3  107.29   12.10
  -5   3  -3  106.19    9.00
  -5   3  -3   79.38   12.88
   5  -3   3  113.58   13.78
   5  -3   3   74.82   12.01
  -6   3  -3  335.75   19.80
  -6   3  -3  296.95   25.77
   6  -3   3  354.40   25.23
   6  -3   3  379.67   26.06
  -7   3  -3    5.01   15.07
   7  -3   3   11.95   16.50
   7  -3   3    8.44   15.40
   7   2  -3   64.66   17.33
  -7  -2   3   41.93   15.95
  -7  -2   3   36.81   12.61
   6   2  -3   57.69   12.79
  -6  -2   3   71.38   13.53
  -6  -2   3   62.15   11.11
  -6  -2   3   74.86   15.19
   5   2  -3  336.60   29.78
   5   2  -3  365.14   21.63
   5   2  -3  350.51   17.72
   5   2  -3  353.76   18.32
   5   2  -3  342.40   20.92
  -5  -2   3  341.30   19.72
  -5  -2   3  378.42   24.02
  -5  -2   3  355.38   21.15
   4   2  -3  199.49   14.72
   4   2  -3  220.15   12.33
   4   2  -3  212.11   14.95
   4   2  -3  217.88   20.09
   4   2  -3  209.73   13.96
   4   2  -3  215.31   15.14
  -4  -2   3  198.90   18.44
  -4  -2   3  234.90   13.98
  -4  -2   3  244.73   18.21
  -4  -2   3  223.88   15.10
   3   2  -3  495.99   22.33
   3   2  -3  521.95   18.43
   3   2  -3  547.29   27.63
   3   2  -3  501.00   22.18
   3   2  -3  510.42   22.37
   3   2  -3  553.93   21.58
  -3  -2   3  506.57   21.09
  -3  -2   3  502.82   25.90
  -3  -2   3  512.23   22.80
  -3  -2   3  502.52   25.16
   2   2  -3  884.77   31.74
   2   2  -3  860.28   35.44
   2   2  -3  835.48   31.76
   2   2  -3  864.95   27.31
   2   2  -3  860.57   29.35
  -2  -2   3  862.63   29.96
  -2  -2   3  893.74   34.85
  -2  -2   3  831.25   31.71
  -2  -2   3  862.91   31.60
  -2  -2   3  850.31   34.93
   1   2  -3 5807.11  175.88
   1   2  -3 5559.55  175.35
   1   2  -3 5450.73  169.79
   1   2  -3 5777.78  172.75
   1   2  -3 5691.59  170.86
   1   2  -3 5789.71  172.84
  -1  -2   3 5724.51  170.53
  -1  -2   3 5682.65  175.71
  -1  -2   3 5652.15  172.48
  -1  -2   3 5461.78  172.01
  -1  -2   3 5508.18  175.22
  -1  -2   3 5706.38  172.62
   0   2  -3 1541.82   50.75
   0   2  -3 1586.53   50.25
   0   2  -3 1558.08   48.53
   0   2  -3 1606.22   51.12
   0  -2   3 1530.86   52.98
   0  -2   3 1543.78   53.52
   0  -2   3 1611.51   50.76
   0  -2   3 1625.58   48.49
   0  -2   3 1519.97   50.60
   0  -2   3 1592.23   48.06
   0  -2   3 1495.60   49.98
  -1   2  -3 2351.98   73.36
  -1   2  -3 2331.79   70.99
  -1   2  -3 2354.86   71.31
  -1   2  -3 2305.98   75.54
  -1   2  -3 2357.30   75.99
  -1   2  -3 2297.19   72.75
  -1   2  -3 2437.76   73.75
  -1   2  -3 2388.50   73.70
   1  -2   3 2322.69   73.04
   1  -2   3 2393.63   71.53
   1  -2   3 2365.03   73.23
   1  -2   3 2395.72   71.09
   1  -2   3 2373.24   72.94
   1  -2   3 2309.14   73.47
   1  -2   3 2286.18   75.64
   1  -2   3 2370.44   75.61
  -2   2  -3  665.63   23.51
  -2   2  -3  694.74   25.81
  -2   2  -3  610.19   24.25
  -2   2  -3  672.78   23.33
  -2   2  -3  678.98   25.34
  -2   2  -3  679.22   24.90
  -2   2  -3  669.86   23.57
  -2   2  -3  637.69   24.55
   2  -2   3  679.27   24.93
   2  -2   3  695.76   22.04
   2  -2   3  691.94   25.91
   2  -2   3  682.17   25.18
   2  -2   3  677.96   23.55
   2  -2   3  698.13   21.93
   2  -2   3  671.90   25.32
  -3   2  -3  244.65   14.15
  -3   2  -3  243.68   12.87
  -3   2  -3  255.47   12.60
  -3   2  -3  233.70   11.85
  -3   2  -3  236.56   11.22
  -3   2  -3  238.83   10.70
  -3   2  -3  256.70   10.46
  -3   2  -3  242.49   13.22
   3  -2   3  238.21   12.20
   3  -2   3  264.56   14.37
   3  -2   3  258.70   12.43
   3  -2   3  266.99   13.94
  -4   2  -3  358.42   13.99
  -4   2  -3  340.51   15.40
  -4   2  -3  363.91   14.75
  -4   2  -3  349.55   15.48
  -4   2  -3  355.05   18.97
  -4   2  -3  337.21   14.62
   4  -2   3  352.62   19.02
   4  -2   3  357.37   18.98
   4  -2   3  303.18   14.26
   4  -2   3  338.74   14.51
   4  -2   3  366.44   17.03
  -5   2  -3  337.30   15.44
  -5   2  -3  341.69   22.33
  -5   2  -3  287.03   14.81
  -5   2  -3  316.61   14.70
  -5   2  -3  320.81   14.39
  -5   2  -3  299.53   15.25
   5  -2   3  339.32   20.33
   5  -2   3  328.93   20.34
  -6   2  -3  837.10   31.96
  -6   2  -3  889.65   41.29
   6  -2   3  864.16   38.35
   6  -2   3  847.46   39.42
  -7   2  -3    6.63   15.94
   7  -2   3    2.25   13.95
   7  -2   3   18.58   15.24
   7   1  -3   68.71   18.04
  -7  -1   3   78.08   13.56
  -7  -1   3   52.77   15.73
   6   1  -3   81.77   14.49
   6   1  -3   82.78   13.87
  -6  -1   3  102.32   12.49
  -6  -1   3   91.11   14.13
  -6  -1   3   93.40   16.23
   5   1  -3  389.37   21.72
   5   1  -3  305.19   18.91
   5   1  -3  325.38   16.88
   5   1  -3  316.12   33.13
  -5  -1   3  337.25   20.15
  -5  -1   3  343.40   18.47
  -5  -1   3  334.74   23.09
   4   1  -3  722.37   27.51
   4   1  -3  708.73   26.65
   4   1  -3  660.86   32.87
   4   1  -3  730.13   29.38
   4   1  -3  646.41   27.31
  -4  -1   3  711.22   31.91
  -4  -1   3  746.86   27.66
  -4  -1   3  680.39   28.40
  -4  -1   3  656.75   32.16
   3   1  -3  840.67   30.62
   3   1  -3  831.87   35.20
   3   1  -3  765.53   30.32
   3   1  -3  811.86   29.52
   3   1  -3  831.45   28.20
  -3  -1   3  790.30   29.45
  -3  -1   3  809.31   29.26
  -3  -1   3  817.35   34.51
  -3  -1   3  839.21   34.10
  -3  -1   3  858.03   31.23
   2   1  -3  636.31   24.57
   2   1  -3  647.07   22.66
   2   1  -3  650.90   24.95
   2   1  -3  621.40   27.31
   2   1  -3  672.14   25.05
   2   1  -3  629.48   23.54
   2   1  -3  657.57   21.30
   2   1  -3  650.08   27.77
  -2  -1   3  660.96   24.52
  -2  -1   3  658.02   23.21
  -2  -1   3  606.29   24.33
  -2  -1   3  653.67   27.38
  -2  -1   3  600.62   22.05
  -2  -1   3  617.33   27.17
   1   1  -3 1621.27   51.54
   1   1  -3 1546.20   51.13
   1   1  -3 1665.25   54.32
   1   1  -3 1592.05   53.74
   1   1  -3 1517.34   49.67
   1   1  -3 1602.29   48.32
  -1  -1   3 1600.69   49.59
  -1  -1   3 1505.84   53.25
  -1  -1   3 1493.05   50.91
  -1  -1   3 1623.56   51.37
  -1  -1   3 1536.98   53.40
   0   1  -3 2332.99   71.51
   0   1  -3 2316.10   70.79
   0   1  -3 2236.20   70.07
   0   1  -3 2444.32   75.02
   0   1  -3 2359.79   72.52
   0   1  -3 2334.65   74.57
   0   1  -3 2375.55   72.64
   0  -1   3 2259.07   72.27
   0  -1   3 2372.05   70.87
   0  -1   3 2307.52   72.30
   0  -1   3 2319.68   74.43
   0  -1   3 2251.60   74.58
   0  -1   3 2269.58   71.23
  -1   1  -3  826.69   27.54
  -1   1  -3  812.40   26.90
  -1   1  -3  827.77   29.06
  -1   1  -3  847.83   29.50
  -1   1  -3  858.70   27.54
  -1   1  -3  849.35   26.88
  -1   1  -3  806.98   27.46
  -1   1  -3  818.83   26.18
   1  -1   3  818.90   27.07
   1  -1   3  833.71   28.87
   1  -1   3  818.01   26.56
   1  -1   3  815.89   29.05
   1  -1   3  819.85   26.98
   1  -1   3  842.37   27.05
   1  -1   3  839.64   27.54
  -2   1  -3  555.76   20.40
  -2   1  -3  572.55   19.11
  -2   1  -3  542.72   20.90
  -2   1  -3  548.91   21.36
  -2   1  -3  588.21   20.71
  -2   1  -3  601.26   21.13
  -2   1  -3  572.49   20.42
  -2   1  -3  583.76   19.06
  -2   1  -3  572.93   21.50
  -2   1  -3  550.57   19.92
   2  -1   3  577.90   21.49
   2  -1   3  595.48   21.62
   2  -1   3  573.03   20.58
   2  -1   3  596.05   20.76
   2  -1   3  574.58   20.28
  -3   1  -3 1017.43   35.17
  -3   1  -3  878.39   33.63
  -3   1  -3  997.53   31.18
  -3   1  -3  996.22   31.07
  -3   1  -3 1020.71   32.18
  -3   1  -3 1041.83   32.44
  -3   1  -3  998.21   35.89
   3  -1   3  997.71   34.83
   3  -1   3  993.28   34.45
   3  -1   3 1058.95   35.84
   3  -1   3 1053.74   36.32
  -4   1  -3  158.88   13.67
  -4   1  -3  140.10    7.00
  -4   1  -3  154.74    6.70
  -4   1  -3  153.33   10.14
   4  -1   3  159.61   12.31
   4  -1   3  172.43   12.74
   4  -1   3  160.92   11.57
  -5   1  -3  629.40   22.37
  -5   1  -3  633.84   22.92
  -5   1  -3  678.68   26.01
  -5   1  -3  684.19   31.49
   5  -1   3  713.42   30.17
   5  -1   3  679.52   29.77
  -6   1  -3   46.60   14.58
  -6   1  -3   49.07    8.93
   6  -1   3   56.67   12.32
   6  -1   3   54.24   13.05
  -7   1  -3   93.23   12.44
  -7   1  -3  132.56   21.10
   7  -1   3  122.58   18.65
   7  -1   3  122.46   17.42
   7   0  -3  119.47   20.41
  -7   0   3  106.66   18.90
  -7   0   3  121.42   36.28
  -7   0   3  117.33   15.36
   6   0  -3  203.20   18.94
   6   0  -3  225.80   21.16
  -6   0   3  202.31   16.74
  -6   0   3  225.95   21.96
  -6   0   3  237.12   19.91
   5   0  -3   63.68    8.82
   5   0  -3   66.58   11.49
   5   0  -3   79.73   11.49
  -5   0   3   71.14   13.05
  -5   0   3   44.31    8.53
  -5   0   3   67.60   11.33
   4   0  -3  173.60   19.38
   4   0  -3  180.01   12.84
   4   0  -3  194.42   13.14
   4   0  -3  192.01   14.47
   4   0  -3  177.60   13.36
  -4   0   3  185.73   13.86
  -4   0   3  210.99   17.08
  -4   0   3  176.19   17.06
  -4   0   3  204.54   12.63
   3   0  -3  354.04   15.47
   3   0  -3  339.44   21.05
   3   0  -3  322.27   16.44
   3   0  -3  349.64   16.80
  -3   0   3  351.79   15.23
  -3   0   3  346.01   16.42
  -3   0   3  370.25   20.46
  -3   0   3  361.88   19.79
  -3   0   3  316.93   15.54
   2   0  -3 3121.48   97.52
   2   0  -3 3177.28  105.00
   2   0  -3 3235.20  102.09
   2   0  -3 3398.57  102.44
   2   0  -3 3280.84  101.26
   2   0  -3 3289.14  105.92
  -2   0   3 3296.57  100.49
  -2   0   3 3247.81  102.36
  -2   0   3 3338.04  100.85
  -2   0   3 3254.36  102.42
  -2   0   3 3409.89  106.05
  -2   0   3 3268.86  105.10
  -2   0   3 3266.63  102.34
   1   0  -3  512.18   23.00
   1   0  -3  528.33   20.88
   1   0  -3  560.16   19.59
   1   0  -3  593.11   18.38
   1   0  -3  549.90   23.67
   1   0  -3  596.05   21.42
   1   0  -3  583.74   21.39
  -1   0   3  529.40   20.79
  -1   0   3  561.27   23.22
  -1   0   3  558.22   18.36
  -1   0   3  539.37   23.25
  -1   0   3  574.81   19.57
  -1   0   3  574.94   21.10
   0   0  -3  427.63   17.82
   0   0  -3  406.17   15.31
   0   0  -3  387.90   16.92
   0   0  -3  385.66   15.33
   0   0  -3  403.96   13.98
   0   0  -3  390.44   15.17
   0   0  -3  405.50   14.39
   0   0   3  374.49   16.65
   0   0   3  390.11   14.90
   0   0   3  401.12   14.00
   0   0   3  378.14   14.91
   0   0   3  359.60   16.54
  -1   0  -3 1177.90   36.74
  -1   0  -3 1143.88   36.16
  -1   0  -3 1227.05   38.59
  -1   0  -3 1184.32   35.44
  -1   0  -3 1113.58   37.85
  -1   0  -3 1119.48   36.23
  -1   0  -3 1153.39   36.73
  -1   0  -3 1113.07   36.97
   1   0   3 1167.55   36.34
   1   0   3 1169.25   38.25
   1   0   3 1142.02   36.24
   1   0   3 1162.16   36.31
   1   0   3 1166.05   38.08
   1   0   3 1172.89   35.64
  -2   0  -3  764.87   26.19
  -2   0  -3  805.70   27.65
  -2   0  -3  748.45   24.08
  -2   0  -3  801.18   24.12
  -2   0  -3  770.86   27.13
  -2   0  -3  761.68   26.51
  -2   0  -3  831.19   25.59
  -2   0  -3  811.36   25.49
  -2   0  -3  772.41   26.61
  -2   0  -3  747.77   26.81
   2   0   3  811.95   25.41
   2   0   3  756.13   26.85
   2   0   3  816.05   27.17
   2   0   3  775.33   25.08
   2   0   3  772.59   27.15
   2   0   3  744.15   26.43
  -3   0  -3 1242.16   42.00
  -3   0  -3 1168.14   44.28
  -3   0  -3 1169.49   41.45
  -3   0  -3 1265.22   42.60
  -3   0  -3 1233.24   44.64
  -3   0  -3 1217.88   42.44
   3   0   3 1257.01   42.45
   3   0   3 1290.42   42.24
   3   0   3 1289.45   42.24
   3   0   3 1229.08   41.42
   3   0   3 1268.69   42.40
  -4   0  -3  851.60   29.49
  -4   0  -3  807.93   32.29
   4   0   3  782.77   30.88
   4   0   3  791.40   30.98
   4   0   3  813.10   30.93
   4   0   3  796.75   30.26
   4   0   3  824.73   31.45
  -5   0  -3 1201.30   46.31
  -5   0  -3 1130.84   36.69
  -5   0  -3 1226.29   41.76
  -5   0  -3 1219.27   42.54
  -5   0  -3 1140.25   36.55
   5   0   3 1162.34   44.22
   5   0   3 1207.46   44.53
  -6   0  -3   18.44    8.08
  -6   0  -3   15.30   11.78
  -6   0  -3   24.35    9.52
   6   0   3   18.01    9.95
   6   0   3   10.62   10.18
  -7   0  -3  859.47   44.32
  -7   0  -3  852.97   36.11
   7   0   3  881.99   40.91
   7   0   3  894.31   40.56
   6  -1  -3  138.65   17.18
   6  -1  -3  135.81   18.48
  -6   1   3  140.04   17.05
  -6   1   3  149.83   14.01
  -6   1   3  133.80   21.50
  -6   1   3  152.22   18.92
   5  -1  -3  389.31   24.12
   5  -1  -3  409.00   20.17
   5  -1  -3  379.46   22.27
  -5   1   3  402.29   25.70
  -5   1   3  408.31   26.93
  -5   1   3  384.67   21.98
  -5   1   3  379.95   19.58
   4  -1  -3  387.77   19.47
   4  -1  -3  407.58   27.88
   4  -1  -3  374.01   20.70
  -4   1   3  379.34   12.79
  -4   1   3  353.66   22.69
  -4   1   3  380.43   19.70
  -4   1   3  430.22   18.15
  -4   1   3  337.38   23.33
   3  -1  -3  763.10   28.79
   3  -1  -3  708.55   28.28
   3  -1  -3  746.43   27.83
   3  -1  -3  794.48   33.94
  -3   1   3  754.92   32.55
  -3   1   3  754.85   26.97
  -3   1   3  714.64   32.24
  -3   1   3  747.57   24.14
  -3   1   3  788.16   28.97
   2  -1  -3 2206.26   69.70
   2  -1  -3 2241.85   74.73
   2  -1  -3 2252.75   71.16
   2  -1  -3 2105.98   67.44
  -2   1   3 2263.45   69.34
  -2   1   3 2229.66   71.17
  -2   1   3 2319.17   74.68
  -2   1   3 2166.40   74.57
  -2   1   3 2247.68   67.62
  -2   1   3 2205.13   71.53
  -2   1   3 2126.59   69.45
   1  -1  -3  803.74   28.23
   1  -1  -3  807.05   26.08
   1  -1  -3  735.10   29.89
   1  -1  -3  795.62   25.17
   1  -1  -3  766.39   30.37
   1  -1  -3  750.90   27.46
  -1   1   3  753.89   27.28
  -1   1   3  745.54   29.56
  -1   1   3  750.80   27.73
  -1   1   3  771.70   25.19
  -1   1   3  796.76   30.15
  -1   1   3  772.99   25.75
   0  -1  -3 3107.06   97.16
   0  -1  -3 2905.87   96.58
   0  -1  -3 2980.27   93.39
   0  -1  -3 3080.40   93.92
   0  -1  -3 3206.69   95.40
   0  -1  -3 3011.10   94.76
   0   1   3 3080.21   94.93
   0   1   3 3061.96   97.00
   0   1   3 3172.50   97.10
   0   1   3 3143.67   93.10
   0   1   3 3101.02   93.99
   0   1   3 3100.17   93.53
   0   1   3 3082.20   94.71
   0   1   3 3052.06   94.91
  -1  -1  -3 1350.14   44.18
  -1  -1  -3 1364.58   42.54
  -1  -1  -3 1334.85   42.54
  -1  -1  -3 1355.93   44.18
  -1  -1  -3 1353.22   43.31
   1   1   3 1372.96   43.26
   1   1   3 1349.37   42.14
   1   1   3 1315.60   43.72
   1   1   3 1354.62   44.14
   1   1   3 1321.48   42.24
   1   1   3 1304.64   41.92
   1   1   3 1343.36   41.96
   1   1   3 1318.44   42.21
  -2  -1  -3 4108.85  121.57
  -2  -1  -3 4170.08  121.61
  -2  -1  -3 3987.02  123.06
  -2  -1  -3 3908.60  123.20
  -2  -1  -3 3938.46  123.91
  -2  -1  -3 3951.40  123.36
  -2  -1  -3 3945.95  123.41
  -2  -1  -3 4110.40  124.07
  -2  -1  -3 4119.80  121.55
  -2  -1  -3 4100.79  122.82
  -2  -1  -3 4179.77  122.91
   2   1   3 4108.79  122.79
   2   1   3 3938.96  123.47
   2   1   3 4064.89  123.23
   2   1   3 4035.08  123.65
  -3  -1  -3  217.68   13.22
  -3  -1  -3  194.01   12.97
  -3  -1  -3  230.04   12.15
  -3  -1  -3  239.26   12.37
  -3  -1  -3  209.90   11.90
  -3  -1  -3  230.71   12.74
   3   1   3  218.74   11.72
   3   1   3  230.39   11.28
   3   1   3  231.71   12.27
   3   1   3  241.80   12.21
  -4  -1  -3 1079.37   36.84
  -4  -1  -3 1032.08   36.86
   4   1   3  973.57   37.15
   4   1   3 1030.23   38.46
   4   1   3 1065.35   37.64
  -5  -1  -3  331.13   16.97
  -5  -1  -3  319.95   17.45
  -5  -1  -3  305.32   11.84
  -5  -1  -3  317.80   11.86
   5   1   3  324.74   18.16
   5   1   3  315.91   18.22
   5   1   3  314.72   18.54
  -6  -1  -3 1175.84   42.30
  -6  -1  -3 1042.16   40.97
   6   1   3 1098.58   45.32
   6   1   3 1138.17   44.24
  -7  -1  -3  130.65   14.48
  -7  -1  -3  157.18   21.56
   7   1   3  155.27   17.81
  -8  -1  -3   47.47   13.97
  -8  -1  -3   46.47   21.19
   8   1   3   56.35   17.21
   6  -2  -3  154.09   19.28
   6  -2  -3  147.52   18.39
  -6   2   3  145.75   19.87
  -6   2   3  134.63   19.15
  -6   2   3  191.86   16.40
  -6   2   3  161.57   18.19
   5  -2  -3   37.47   11.32
   5  -2  -3   19.30   10.27
  -5   2   3   27.54    9.11
  -5   2   3   24.75   10.78
  -5   2   3   42.42    8.19
  -5   2   3   26.51   11.25
   4  -2  -3  400.55   27.68
   4  -2  -3  405.82   19.88
   4  -2  -3  367.79   20.04
   4  -2  -3  450.67   21.76
   4  -2  -3  427.09   22.47
  -4   2   3  425.17   21.27
  -4   2   3  393.98   15.80
  -4   2   3  439.27   24.99
  -4   2   3  441.36   25.02
  -4   2   3  380.66   25.52
  -4   2   3  431.07   18.69
   3  -2  -3  678.83   27.06
   3  -2  -3  625.01   26.69
   3  -2  -3  654.25   31.78
  -3   2   3  726.21   31.02
  -3   2   3  695.58   27.31
  -3   2   3  672.90   24.76
  -3   2   3  733.46   29.99
  -3   2   3  654.76   31.24
  -3   2   3  644.39   23.16
   2  -2  -3  146.97    9.20
   2  -2  -3  151.64    8.22
   2  -2  -3  141.42   11.36
   2  -2  -3  157.46   11.98
   2  -2  -3  128.69   14.76
  -2   2   3  150.91   11.00
  -2   2   3  127.73   12.23
  -2   2   3  158.94   11.38
  -2   2   3  156.99    8.50
  -2   2   3  137.17    7.62
  -2   2   3  140.81   13.13
   1  -2  -3 2324.12   75.76
   1  -2  -3 2491.98   79.73
   1  -2  -3 2356.85   73.79
   1  -2  -3 2499.27   76.72
   1  -2  -3 2318.87   73.62
  -1   2   3 2442.65   76.02
  -1   2   3 2359.98   75.33
  -1   2   3 2367.63   76.26
  -1   2   3 2338.63   79.08
  -1   2   3 2305.33   73.81
  -1   2   3 2428.82   78.72
  -1   2   3 2400.85   73.47
   0  -2  -3 2204.86   69.21
   0  -2  -3 2201.56   68.87
   0  -2  -3 2221.78   70.80
   0  -2  -3 2222.28   73.48
   0  -2  -3 2361.63   71.49
   0  -2  -3 2284.90   69.82
   0  -2  -3 2196.68   73.20
   0   2   3 2201.88   69.74
   0   2   3 2153.74   70.65
   0   2   3 2255.75   73.25
   0   2   3 2329.30   73.50
   0   2   3 2197.46   70.30
   0   2   3 2221.53   68.75
  -1  -2  -3 1901.59   60.09
  -1  -2  -3 1833.39   61.61
  -1  -2  -3 1891.78   60.02
  -1  -2  -3 1864.75   57.82
  -1  -2  -3 1861.85   59.55
  -1  -2  -3 1959.73   62.25
   1   2   3 1900.25   61.97
   1   2   3 1858.62   61.71
   1   2   3 1973.03   58.07
   1   2   3 1848.07   58.36
   1   2   3 1887.57   59.38
   1   2   3 1979.52   60.05
   1   2   3 1853.73   59.95
  -2  -2  -3  818.11   28.03
  -2  -2  -3  859.19   29.82
  -2  -2  -3  774.60   28.17
  -2  -2  -3  852.02   29.93
  -2  -2  -3  859.52   30.08
  -2  -2  -3  857.83   28.39
  -2  -2  -3  820.13   28.10
  -2  -2  -3  836.31   28.50
   2   2   3  887.60   30.12
   2   2   3  809.61   29.54
   2   2   3  848.32   29.86
   2   2   3  845.79   27.12
   2   2   3  876.35   29.45
   2   2   3  829.50   26.98
   2   2   3  857.64   28.64
   2   2   3  838.10   28.98
   2   2   3  877.62   27.25
  -3  -2  -3 3781.38  120.32
  -3  -2  -3 4057.41  119.94
  -3  -2  -3 3843.55  122.86
  -3  -2  -3 3852.17  120.67
  -3  -2  -3 3859.60  118.20
  -3  -2  -3 4059.55  119.99
  -3  -2  -3 3983.51  118.47
   3   2   3 3956.33  120.73
   3   2   3 3869.09  119.38
   3   2   3 3886.80  121.10
   3   2   3 3956.17  121.56
   3   2   3 3745.98  120.98
  -4  -2  -3  224.88   12.30
  -4  -2  -3  214.50   10.35
  -4  -2  -3  233.45   13.08
  -4  -2  -3  212.32   10.15
  -4  -2  -3  194.49    9.16
  -4  -2  -3  181.39    9.06
   4   2   3  204.65   12.89
   4   2   3  194.73   12.46
   4   2   3  203.77    9.51
   4   2   3  188.61   13.08
  -5  -2  -3   84.02   10.07
  -5  -2  -3   95.43    7.55
  -5  -2  -3  115.21   11.32
  -5  -2  -3   83.89    7.35
   5   2   3  110.54   11.10
   5   2   3   97.24   11.30
   5   2   3   90.82   11.79
  -6  -2  -3 2755.27   89.80
  -6  -2  -3 2843.55   91.63
   6   2   3 2765.75   94.24
   6   2   3 2725.46   92.35
  -7  -2  -3   72.63   12.41
   7   2   3   74.18   16.42
   7   2   3   79.19   14.34
  -8  -2  -3  117.70   26.02
  -8  -2  -3  115.70   17.14
   8   2   3  144.10   20.18
   6  -3  -3   42.24   16.42
   6  -3  -3   34.97   15.81
  -6   3   3   30.45   13.79
  -6   3   3   33.44   10.27
  -6   3   3   39.18   15.68
  -6   3   3   32.51   16.78
   5  -3  -3    0.89   10.34
   5  -3  -3    2.49   10.64
  -5   3   3    2.20   10.97
  -5   3   3   -1.53    6.85
  -5   3   3   -0.63    9.42
  -5   3   3    1.76    9.74
   4  -3  -3  386.43   20.36
   4  -3  -3  407.28   22.20
   4  -3  -3  383.79   28.77
   4  -3  -3  383.75   22.50
  -4   3   3  395.60   20.74
  -4   3   3  384.13   24.01
  -4   3   3  413.66   25.70
  -4   3   3  378.93   17.50
   3  -3  -3  335.24   17.90
   3  -3  -3  320.04   23.46
  -3   3   3  268.64   21.09
  -3   3   3  348.81   21.86
  -3   3   3  321.82   17.59
  -3   3   3  333.07   14.59
  -3   3   3  302.13   13.95
  -3   3   3  289.33   18.84
   2  -3  -3  512.63   26.45
   2  -3  -3  454.64   18.71
   2  -3  -3  541.52   19.83
  -2   3   3  468.90   25.22
  -2   3   3  499.31   25.17
  -2   3   3  491.73   18.44
  -2   3   3  460.13   18.84
  -2   3   3  525.12   22.02
  -2   3   3  495.38   22.58
   1  -3  -3 3757.69  118.90
   1  -3  -3 3369.98  114.02
   1  -3  -3 3627.31  112.91
   1  -3  -3 3617.93  111.68
   1  -3  -3 3576.56  114.69
   1  -3  -3 3915.83  115.83
  -1   3   3 3675.78  118.22
  -1   3   3 3800.33  111.86
  -1   3   3 3694.14  118.59
  -1   3   3 3687.94  114.72
  -1   3   3 3731.01  113.97
  -1   3   3 3531.58  112.78
   0  -3  -3  579.10   20.91
   0  -3  -3  633.57   24.16
   0  -3  -3  597.77   22.25
   0  -3  -3  587.33   26.16
   0  -3  -3  645.51   22.93
   0  -3  -3  571.26   23.32
   0  -3  -3  627.74   27.27
   0   3   3  623.32   23.37
   0   3   3  633.80   26.81
   0   3   3  631.90   22.03
   0   3   3  593.10   23.78
   0   3   3  607.98   26.81
   0   3   3  604.70   22.60
   0   3   3  623.67   19.49
  -1  -3  -3  721.11   24.92
  -1  -3  -3  696.17   29.30
  -1  -3  -3  732.39   27.11
  -1  -3  -3  739.01   26.80
  -1  -3  -3  725.14   23.83
  -1  -3  -3  736.51   26.77
  -1  -3  -3  709.06   29.36
   1   3   3  773.39   26.52
   1   3   3  740.76   26.62
   1   3   3  774.65   29.59
   1   3   3  727.20   25.06
   1   3   3  757.21   26.92
   1   3   3  729.40   29.45
   1   3   3  733.29   24.10
  -2  -3  -3  714.05   25.90
  -2  -3  -3  703.40   26.58
  -2  -3  -3  727.67   28.52
  -2  -3  -3  780.57   26.77
  -2  -3  -3  718.17   24.63
  -2  -3  -3  704.05   25.12
  -2  -3  -3  751.93   28.90
  -2  -3  -3  736.67   28.57
  -2  -3  -3  713.14   25.05
   2   3   3  720.85   25.42
   2   3   3  703.85   28.11
   2   3   3  714.36   26.47
   2   3   3  721.26   25.07
   2   3   3  717.19   25.75
   2   3   3  715.91   24.97
   2   3   3  707.95   28.14
  -3  -3  -3 1325.21   45.88
  -3  -3  -3 1372.12   46.98
  -3  -3  -3 1389.08   46.02
  -3  -3  -3 1346.64   44.91
  -3  -3  -3 1377.71   47.02
  -3  -3  -3 1442.34   45.24
  -3  -3  -3 1375.62   44.60
   3   3   3 1302.55   48.41
   3   3   3 1380.59   42.14
   3   3   3 1341.98   46.71
   3   3   3 1285.77   46.27
   3   3   3 1375.58   46.91
   3   3   3 1364.81   46.20
   3   3   3 1354.50   42.07
  -4  -3  -3   83.04    7.72
  -4  -3  -3  105.86   10.07
  -4  -3  -3   86.89    7.59
  -4  -3  -3   83.37    8.81
  -4  -3  -3  105.62   10.19
  -4  -3  -3   90.23    9.46
   4   3   3   99.01    9.62
   4   3   3   83.24    8.46
   4   3   3   92.24   10.40
  -5  -3  -3 1088.69   37.72
  -5  -3  -3 1060.48   39.51
  -5  -3  -3 1136.30   38.86
  -5  -3  -3  939.00   35.66
  -5  -3  -3 1004.63   36.24
  -5  -3  -3 1095.53   37.41
   5   3   3  972.57   36.10
   5   3   3 1081.20   39.19
   5   3   3 1088.43   41.71
   5   3   3 1092.44   40.21
  -6  -3  -3  123.84   13.31
  -6  -3  -3  103.75   10.52
  -6  -3  -3   92.22   11.93
   6   3   3  106.96   12.56
   6   3   3  123.13   16.22
  -7  -3  -3   98.59   14.60
   7   3   3   72.94   16.12
   7   3   3  135.79   16.19
   6  -4  -3  154.07   21.63
   6  -4  -3  129.37   21.45
  -6   4   3  194.95   24.63
  -6   4   3  163.21   23.22
  -6   4   3  128.83   18.20
   5  -4  -3   10.02   12.34
   5  -4  -3   16.05   12.74
  -5   4   3   17.62   13.49
  -5   4   3   15.22    7.45
  -5   4   3   11.27   11.07
  -5   4   3   11.01   11.08
   4  -4  -3  217.77   17.75
   4  -4  -3  125.82   13.88
   4  -4  -3  195.56   17.41
   4  -4  -3  138.21   19.77
  -4   4   3  178.54   12.17
  -4   4   3  183.36   16.43
  -4   4   3  174.75   17.98
  -4   4   3  186.47   20.77
   3  -4  -3  360.35   27.24
   3  -4  -3  365.06   20.55
   3  -4  -3  378.65   19.91
  -3   4   3  370.09   20.10
  -3   4   3  301.74   14.87
  -3   4   3  381.41   24.58
  -3   4   3  361.21   15.41
  -3   4   3  382.24   21.19
   2  -4  -3  419.36   26.59
   2  -4  -3  424.63   22.23
   2  -4  -3  402.60   18.77
  -2   4   3  405.73   19.81
  -2   4   3  440.00   24.66
  -2   4   3  428.18   20.37
  -2   4   3  423.11   16.53
   1  -4  -3  702.45   26.12
   1  -4  -3  658.51   27.97
   1  -4  -3  635.17   23.67
   1  -4  -3  700.24   32.51
  -1   4   3  700.83   26.40
  -1   4   3  663.06   26.93
  -1   4   3  668.82   30.96
   0  -4  -3 2469.35   87.56
   0  -4  -3 2645.33   84.71
   0  -4  -3 2485.44   80.19
   0  -4  -3 2631.95   82.87
   0  -4  -3 2735.69   88.71
   0  -4  -3 2481.66   82.14
   0   4   3 2614.66   83.66
   0   4   3 2651.05   87.86
   0   4   3 2672.62   82.20
   0   4   3 2630.78   78.11
  -1  -4  -3  410.33   18.02
  -1  -4  -3  387.71   16.29
  -1  -4  -3  393.59   14.14
  -1  -4  -3  410.14   21.84
  -1  -4  -3  428.28   19.15
  -1  -4  -3  393.98   21.77
   1   4   3  413.69   17.90
   1   4   3  360.79   17.51
   1   4   3  399.79   16.60
   1   4   3  381.33   20.78
   1   4   3  422.08   14.38
  -2  -4  -3  448.34   20.78
  -2  -4  -3  451.18   17.44
  -2  -4  -3  445.37   18.51
  -2  -4  -3  445.56   16.65
  -2  -4  -3  488.06   20.67
  -2  -4  -3  457.70   22.92
  -2  -4  -3  436.68   22.37
  -2  -4  -3  484.07   20.03
  -2  -4  -3  478.72   23.07
   2   4   3  445.38   22.34
   2   4   3  461.13   18.65
   2   4   3  457.48   18.15
   2   4   3  454.24   19.21
   2   4   3  476.31   19.15
  -3  -4  -3   93.79    9.22
  -3  -4  -3  122.25    9.65
  -3  -4  -3  115.82   10.50
  -3  -4  -3  107.71   11.84
  -3  -4  -3  115.83    8.77
  -3  -4  -3  116.69   12.32
  -3  -4  -3  123.45   11.16
   3   4   3  106.50    8.93
   3   4   3  114.45    9.69
   3   4   3  113.11   11.97
   3   4   3  101.68    7.59
   3   4   3  104.45    7.98
  -4  -4  -3   68.05    8.87
  -4  -4  -3   54.62    8.35
  -4  -4  -3   58.96    9.65
  -4  -4  -3   63.03    8.78
  -4  -4  -3   62.33    9.33
   4   4   3   53.81    9.46
   4   4   3   63.47    8.32
   4   4   3   54.26    9.46
  -5  -4  -3  740.49   35.40
  -5  -4  -3  808.98   30.20
  -5  -4  -3  747.21   30.91
  -5  -4  -3  787.99   30.67
  -5  -4  -3  812.99   32.18
   5   4   3  780.86   30.52
   5   4   3  754.13   33.67
   5   4   3  725.96   40.83
   5   4   3  732.67   31.47
  -6  -4  -3   55.23   10.14
  -6  -4  -3   77.08   10.77
  -6  -4  -3   54.32   11.14
   6   4   3   70.15   11.09
   6   4   3   51.51   12.86
  -7  -4  -3  267.99   22.75
   7   4   3  299.95   24.77
   7   4   3  280.03   21.35
   5  -5  -3  301.96   25.81
   5  -5  -3  280.29   25.05
  -5   5   3  266.79   23.17
  -5   5   3  260.38   24.89
  -5   5   3  263.80   28.92
   4  -5  -3   19.75   11.58
   4  -5  -3    4.75   10.40
   4  -5  -3    6.70   18.16
  -4   5   3   15.27   12.34
  -4   5   3   13.99    5.91
  -4   5   3    9.70    9.28
  -4   5   3    7.71    9.74
   3  -5  -3  235.57   17.73
   3  -5  -3  264.55   27.23
   3  -5  -3  236.84   16.85
   3  -5  -3  234.38   17.26
  -3   5   3  250.23   12.81
  -3   5   3  245.73   22.56
  -3   5   3  242.09   18.49
  -3   5   3  238.29   17.28
   2  -5  -3  302.30   20.44
   2  -5  -3  323.73   17.92
   2  -5  -3  328.68   18.58
   2  -5  -3  404.64   17.48
   2  -5  -3  352.04   27.16
  -2   5   3  340.42   23.91
  -2   5   3  341.91   18.94
  -2   5   3  340.86   19.10
   1  -5  -3  262.79   12.88
   1  -5  -3  323.98   16.41
   1  -5  -3  294.90   23.37
   1  -5  -3  265.70   17.57
  -1   5   3  321.31   21.71
  -1   5   3  302.91   16.11
  -1   5   3  279.48   16.48
   0  -5  -3  254.05   20.62
   0  -5  -3  214.61   15.74
   0  -5  -3  222.83   14.24
   0  -5  -3  224.21   11.36
   0   5   3  254.22   13.25
   0   5   3  224.62   14.06
   0   5   3  234.91   18.34
  -1  -5  -3  303.46   17.32
  -1  -5  -3  317.30   22.18
  -1  -5  -3  313.43   11.58
  -1  -5  -3  281.27   15.18
  -1  -5  -3  326.78   22.21
  -1  -5  -3  321.90   16.37
   1   5   3  328.13   20.47
   1   5   3  326.75   16.11
   1   5   3  327.77   15.66
  -2  -5  -3 1965.69   70.97
  -2  -5  -3 2035.72   71.39
  -2  -5  -3 2075.10   68.02
  -2  -5  -3 1992.02   63.13
  -2  -5  -3 1752.08   66.32
  -2  -5  -3 2038.26   71.41
  -2  -5  -3 2024.15   61.84
  -2  -5  -3 2040.16   66.45
   2   5   3 2085.04   64.66
   2   5   3 1996.27   66.14
   2   5   3 2052.61   66.04
   2   5   3 1955.95   70.57
   2   5   3 2033.96   68.28
  -3  -5  -3  119.38   11.35
  -3  -5  -3  107.33    8.34
  -3  -5  -3  108.61   13.22
  -3  -5  -3  101.85   13.12
  -3  -5  -3  112.21   11.36
   3   5   3  102.59   12.65
   3   5   3  102.77    9.55
   3   5   3   89.22    8.91
   3   5   3  112.89    9.77
  -4  -5  -3  675.02   30.97
  -4  -5  -3  667.71   28.68
  -4  -5  -3  746.62   29.34
  -4  -5  -3  663.72   31.77
  -4  -5  -3  696.16   28.21
  -4  -5  -3  602.06   25.78
   4   5   3  716.39   30.01
   4   5   3  692.95   24.68
   4   5   3  691.10   31.47
   4   5   3  651.67   24.62
   4   5   3  680.28   28.26
  -5  -5  -3  323.28   20.73
  -5  -5  -3  308.04   18.79
  -5  -5  -3  312.22   19.32
  -5  -5  -3  352.13   19.31
   5   5   3  276.58   20.04
   5   5   3  323.22   19.20
  -6  -5  -3   48.31   11.20
  -6  -5  -3   61.49   11.45
  -6  -5  -3   60.05   11.76
  -6  -5  -3   53.78   11.40
   6   5   3   57.95   11.86
   6   5   3   76.74   14.74
  -7  -5  -3  108.60   15.93
  -7  -5  -3  114.58   14.24
   7   5   3  121.41   15.31
   7   5   3  100.69   18.39
   5  -6  -3  233.07   24.99
   5  -6  -3  187.29   22.35
  -5   6   3  208.40   23.16
  -5   6   3  245.68   25.40
  -5   6   3  225.62   28.28
   4  -6  -3   68.77   15.14
   4  -6  -3   79.29   15.32
  -4   6   3   80.91   17.54
  -4   6   3   75.86   14.85
  -4   6   3   69.40   13.65
   3  -6  -3   47.28   13.08
   3  -6  -3   60.74   18.41
   3  -6  -3   55.59   11.59
  -3   6   3   67.69   13.34
  -3   6   3   79.23   17.15
  -3   6   3   61.92   12.00
   2  -6  -3   24.73   11.45
   2  -6  -3   19.60   14.56
   2  -6  -3   15.69   10.48
   2  -6  -3   18.36    8.16
  -2   6   3   17.79    8.56
  -2   6   3    8.31   10.08
  -2   6   3   20.36    7.30
   1  -6  -3  916.05   37.65
   1  -6  -3  744.02   30.58
   1  -6  -3  897.02   43.49
   1  -6  -3  900.47   35.09
   1  -6  -3  861.63   31.48
  -1   6   3  895.44   41.72
  -1   6   3  903.02   35.01
  -1   6   3  914.45   36.06
   0  -6  -3   65.50   14.90
   0  -6  -3   62.11    9.81
   0  -6  -3   49.32   13.99
   0  -6  -3   40.98   10.24
   0   6   3   50.79   12.32
   0   6   3   44.95    8.84
   0   6   3   50.89    8.10
  -1  -6  -3  744.42   32.23
  -1  -6  -3  793.04   38.26
  -1  -6  -3  735.05   37.32
  -1  -6  -3  688.52   29.79
   1   6   3  737.62   29.62
   1   6   3  738.24   30.33
   1   6   3  734.47   35.64
  -2  -6  -3 1328.17   48.28
  -2  -6  -3 1306.98   41.84
  -2  -6  -3 1335.93   54.01
  -2  -6  -3 1446.95   51.36
  -2  -6  -3 1283.34   44.11
  -2  -6  -3 1369.95   54.32
   2   6   3 1362.79   53.82
   2   6   3 1323.08   47.96
   2   6   3 1391.81   45.90
   2   6   3 1422.41   48.95
  -3  -6  -3  526.02   29.48
  -3  -6  -3  546.75   24.30
  -3  -6  -3  501.04   30.37
  -3  -6  -3  554.93   25.78
  -3  -6  -3  509.48   18.88
   3   6   3  502.27   28.33
   3   6   3  489.67   22.41
   3   6   3  542.84   22.51
  -4  -6  -3  758.50   35.30
  -4  -6  -3  728.10   30.91
  -4  -6  -3  749.97   32.43
  -4  -6  -3  718.37   30.78
  -4  -6  -3  649.49   45.16
   4   6   3  727.90   35.83
   4   6   3  702.59   29.46
   4   6   3  695.03   31.41
   4   6   3  738.14   28.11
  -5  -6  -3   89.15   13.66
  -5  -6  -3  113.61   15.54
  -5  -6  -3   86.29   11.98
  -5  -6  -3   82.82   12.81
   5   6   3  105.38   12.52
   5   6   3   94.02   14.51
  -6  -6  -3  287.45   21.59
  -6  -6  -3  282.36   20.06
  -6  -6  -3  308.52   22.83
  -6  -6  -3  273.65   21.54
   6   6   3  258.76   24.63
   6   6   3  276.47   20.83
  -7  -6  -3   78.63   15.37
  -7  -6  -3   93.69   14.69
   7   6   3   70.08   18.28
   4  -7  -3  114.72   18.09
   4  -7  -3   83.18   16.31
  -4   7   3  120.46   18.28
  -4   7   3  103.23   16.70
  -4   7   3  126.89   23.74
   3  -7  -3   43.71   12.61
   3  -7  -3   39.42   14.53
   3  -7  -3   48.32   20.14
   3  -7  -3   48.65   21.28
  -3   7   3   57.01   16.48
  -3   7   3   63.54   13.93
  -3   7   3   52.95   12.03
   2  -7  -3    8.26   16.74
   2  -7  -3   11.41    9.09
   2  -7  -3   17.88   11.89
   2  -7  -3    8.30   15.49
   2  -7  -3   28.12   11.10
  -2   7   3   15.84    8.41
  -2   7   3   23.88   11.34
  -2   7   3    4.45   10.99
   1  -7  -3   79.90   17.58
   1  -7  -3   88.45   18.16
   1  -7  -3  101.30    9.77
   1  -7  -3  167.57   15.83
   1  -7  -3  104.70   16.47
  -1   7   3   95.88   11.80
  -1   7   3   65.73   14.32
  -1   7   3  133.07   15.24
   0  -7  -3  309.75   21.48
   0  -7  -3  352.69   30.06
   0  -7  -3  306.59   28.34
   0  -7  -3  291.61   13.95
   0  -7  -3  328.58   20.29
   0   7   3  331.50   26.46
   0   7   3  333.88   20.54
   0   7   3  342.23   19.08
  -1  -7  -3  452.27   23.70
  -1  -7  -3  487.66   26.60
  -1  -7  -3  426.32   30.71
  -1  -7  -3  442.52   31.61
   1   7   3  464.62   22.50
   1   7   3  462.57   29.45
   1   7   3  464.05   23.68
  -2  -7  -3   94.99   13.60
  -2  -7  -3  112.36   15.45
  -2  -7  -3   76.50   14.41
  -2  -7  -3   77.63    7.67
   2   7   3  103.67    9.39
   2   7   3   96.73   16.62
   2   7   3  107.17   12.46
   2   7   3   87.26   11.37
  -3  -7  -3 1237.81   49.78
  -3  -7  -3 1359.29   48.88
  -3  -7  -3 1255.09   54.60
   3   7   3 1243.71   45.28
   3   7   3 1360.33   47.74
   3   7   3 1275.17   54.05
  -4  -7  -3   73.67   11.65
  -4  -7  -3   56.76   12.02
  -4  -7  -3   51.40   12.95
  -4  -7  -3   56.45   13.16
   4   7   3   71.12   10.16
   4   7   3   83.26   13.55
   4   7   3   70.25   10.73
   4   7   3   69.87   15.55
  -5  -7  -3  407.19   24.79
  -5  -7  -3  435.47   28.43
  -5  -7  -3  385.25   24.22
  -5  -7  -3  375.69   25.25
   5   7   3  408.27   25.59
   5   7   3  404.38   22.92
  -6  -7  -3   30.14   13.30
  -6  -7  -3   30.72   12.89
  -6  -7  -3   20.03   12.24
  -6  -7  -3   22.93   13.06
   6   7   3   23.15   11.74
   6   7   3   23.93   14.18
   3  -8  -3   88.48   18.87
   3  -8  -3  104.26   16.18
   3  -8  -3  109.54   35.41
   3  -8  -3   65.19   29.67
  -3   8   3  116.01   17.93
  -3   8   3  113.34   16.38
  -3   8   3  170.74   26.72
   2  -8  -3  132.36   26.75
   2  -8  -3  111.95   19.26
   2  -8  -3  103.88   23.30
   2  -8  -3  158.18   18.70
   2  -8  -3  137.55   14.32
  -2   8   3  136.99   16.21
  -2   8   3  151.41   17.85
  -2   8   3  128.45   22.01
   1  -8  -3  115.96   22.19
   1  -8  -3  102.47   15.40
   1  -8  -3  100.86   21.72
   1  -8  -3   61.78   16.19
  -1   8   3  111.91   15.74
  -1   8   3  117.05   13.89
  -1   8   3  120.28   20.02
   0  -8  -3  641.75   33.85
   0  -8  -3  577.46   39.40
   0  -8  -3  610.63   30.21
   0  -8  -3  611.46   40.85
   0   8   3  595.69   30.12
   0   8   3  551.92   28.10
   0   8   3  598.38   37.46
  -1  -8  -3   17.66   11.85
  -1  -8  -3   27.98   11.60
  -1  -8  -3   15.13   13.17
   1   8   3   18.48   13.14
   1   8   3   14.80    7.85
   1   8   3   16.54    9.46
  -2  -8  -3  325.11   23.31
  -2  -8  -3  274.43   26.88
  -2  -8  -3  308.29   21.41
   2   8   3  292.04   19.76
   2   8   3  268.20   18.86
   2   8   3  313.17   16.21
   2   8   3  328.29   27.80
  -3  -8  -3  885.56   37.96
  -3  -8  -3  794.56   38.07
  -3  -8  -3  805.75   42.92
  -3  -8  -3  774.63   33.83
   3   8   3  807.53   36.77
   3   8   3  831.73   35.12
   3   8   3  752.90   42.16
   3   8   3  804.48   31.91
  -4  -8  -3  171.96   21.46
  -4  -8  -3  192.37   20.57
  -4  -8  -3  137.25   15.13
  -4  -8  -3  211.91   19.87
   4   8   3  183.05   15.43
   4   8   3  209.07   26.87
   4   8   3  156.06   15.70
  -5  -8  -3  186.50   18.63
  -5  -8  -3  206.12   19.57
  -5  -8  -3  246.18   25.54
  -5  -8  -3  226.68   22.45
   5   8   3  210.31   18.47
   5   8   3  229.44   21.67
  -6  -8  -3   15.81   15.15
  -6  -8  -3   15.25   13.27
  -6  -8  -3   16.84   15.10
  -6  -8  -3   19.18   13.88
   6   8   3   12.14   11.89
   6   8   3    8.02   15.27
   2  -9  -3  218.90   24.49
   2  -9  -3  145.69   21.21
   2  -9  -3  123.81   28.44
   2  -9  -3  109.91   25.82
  -2   9   3  179.53   19.57
  -2   9   3  213.92   23.83
  -2   9   3  239.16   30.75
   1  -9  -3  134.56   26.53
   1  -9  -3  189.23   21.33
  -1   9   3  211.41   21.97
  -1   9   3  252.17   30.96
  -1   9   3  144.37   16.61
   0  -9  -3  161.24   24.66
   0  -9  -3  196.49   20.70
   0  -9  -3  110.10   18.79
   0   9   3  176.14   18.27
   0   9   3  167.28   19.25
   0   9   3  176.16   23.67
  -1  -9  -3   95.82   16.46
  -1  -9  -3   72.63   19.61
  -1  -9  -3   85.72   18.48
   1   9   3  101.06   19.67
   1   9   3   88.64   14.90
   1   9   3   87.76   13.33
  -2  -9  -3  142.33   19.35
  -2  -9  -3  142.47   14.38
  -2  -9  -3  189.18   19.92
  -2  -9  -3  156.92   22.63
   2   9   3  166.06   13.49
   2   9   3  199.80   18.62
   2   9   3  182.37   24.59
   2   9   3  201.85   18.56
  -3  -9  -3   51.20   11.74
  -3  -9  -3   14.01   13.19
  -3  -9  -3   22.81   13.01
  -3  -9  -3   33.10   15.55
   3   9   3   45.73   12.47
   3   9   3   47.29   18.98
   3   9   3   42.42    9.07
   3   9   3   48.87   12.70
  -4  -9  -3  506.82   36.35
  -4  -9  -3  493.12   33.08
  -4  -9  -3  546.69   30.38
  -4  -9  -3  515.14   28.56
   4   9   3  484.26   25.60
   4   9   3  508.82   28.14
  -5  -9  -3   35.96   16.59
  -5  -9  -3   41.04   16.76
  -5  -9  -3   58.46   14.91
  -5  -9  -3   59.49   18.47
   5   9   3   52.95   12.58
   5   9   3   44.64   16.42
   1 -10  -3  241.84   27.24
   1 -10  -3  331.83   29.88
   1 -10  -3  226.39   31.73
  -1  10   3  336.75   25.49
  -1  10   3  316.23   27.70
  -1  10   3  454.19   42.54
   0 -10  -3    6.61   18.27
   0 -10  -3   16.75   17.31
   0 -10  -3   13.97   15.65
   0  10   3   21.03   19.11
   0  10   3   28.17   14.98
   0  10   3   26.43   12.98
  -1 -10  -3   79.80   21.10
  -1 -10  -3  129.78   21.03
  -1 -10  -3   89.02   20.74
   1  10   3  163.42   28.03
   1  10   3  102.83   15.40
   1  10   3  154.32   20.96
  -2 -10  -3   79.38   18.12
  -2 -10  -3   88.72   19.99
  -2 -10  -3   87.61   13.68
  -2 -10  -3   69.03   19.30
   2  10   3  107.77   18.16
   2  10   3   72.57   21.43
   2  10   3  117.40   17.39
  -3 -10  -3  117.07   20.74
  -3 -10  -3  158.97   21.31
  -3 -10  -3  118.70   15.72
  -3 -10  -3  170.23   26.33
   3  10   3  177.67   20.73
   3  10   3  228.97   23.27
   3  10   3  179.05   28.71
  -4 -10  -3   81.18   20.61
  -4 -10  -3   50.43   19.18
  -4 -10  -3   60.42   20.06
  -4 -10  -3   57.74   15.13
   4  10   3   64.07   16.27
   2  10  -4  211.43   24.54
   2  10  -4  235.97   36.11
   2  10  -4  212.54   25.60
  -2 -10   4  138.50   24.21
  -2 -10   4  183.47   23.24
   1  10  -4  333.83   27.76
   1  10  -4  282.88   33.73
   1  10  -4  374.20   33.02
  -1 -10   4  303.13   26.45
  -1 -10   4  310.14   33.75
   0  10  -4   21.65   23.99
   0  10  -4   32.01   18.11
   0  10  -4   44.24   15.73
   0 -10   4   22.40   16.66
   0 -10   4   26.64   14.04
  -1  10  -4  265.06   26.15
  -1  10  -4  255.23   34.14
  -1  10  -4  266.54   28.85
   1 -10   4  275.32   33.41
   1 -10   4  188.20   21.37
   1 -10   4  269.54   22.49
  -2  10  -4   30.52   31.52
   2 -10   4   19.29   14.00
   4   9  -4  215.09   22.41
   4   9  -4  254.10   27.15
  -4  -9   4  241.56   19.68
  -4  -9   4  193.87   29.37
  -4  -9   4  234.04   24.94
   3   9  -4    3.05   15.04
   3   9  -4   11.88   22.98
  -3  -9   4    3.28    9.69
  -3  -9   4    2.57   14.04
  -3  -9   4    8.35   15.19
   2   9  -4  106.40   18.29
   2   9  -4  113.64   19.78
   2   9  -4  144.34   27.99
  -2  -9   4   96.85   17.03
  -2  -9   4  117.27   12.00
  -2  -9   4   67.51   17.56
   1   9  -4  110.12   18.65
   1   9  -4  119.79   17.43
   1   9  -4  110.20   23.28
  -1  -9   4  101.13   17.39
  -1  -9   4   71.65   17.62
   0   9  -4  261.41   24.87
   0   9  -4  279.38   31.45
   0   9  -4  265.27   21.83
   0  -9   4  259.77   28.93
   0  -9   4  219.55   17.19
   0  -9   4  239.91   21.49
  -1   9  -4  282.06   24.01
  -1   9  -4  285.43   24.86
  -1   9  -4  386.63   37.26
   1  -9   4  262.19   21.71
   1  -9   4  245.05   19.26
   1  -9   4  197.20   26.67
  -2   9  -4    2.07   18.05
  -2   9  -4   20.67   15.27
  -2   9  -4   12.63   13.08
   2  -9   4   10.23   11.41
   2  -9   4   10.51   11.50
   2  -9   4    8.01   18.16
  -3   9  -4  134.94   22.16
  -3   9  -4   96.08   18.13
  -3   9  -4   78.47   23.67
   3  -9   4  100.90   17.31
   4   8  -4  227.83   32.29
   4   8  -4  222.73   21.13
   4   8  -4  187.16   21.90
  -4  -8   4  189.48   17.54
  -4  -8   4  207.40   26.45
  -4  -8   4  179.79   21.83
   3   8  -4  304.76   34.46
   3   8  -4  301.20   26.65
  -3  -8   4  268.94   27.17
  -3  -8   4  232.32   18.46
  -3  -8   4  284.18   23.15
   2   8  -4  223.58   21.80
   2   8  -4  186.95   19.88
   2   8  -4  228.25   28.49
  -2  -8   4  154.30   20.74
  -2  -8   4  188.20   19.45
  -2  -8   4  189.27   14.95
   1   8  -4   28.42   15.71
   1   8  -4   42.61   14.87
   1   8  -4   45.42   11.73
  -1  -8   4   48.00   12.99
  -1  -8   4   47.24    7.38
  -1  -8   4   15.37   11.50
   0   8  -4  620.14   32.02
   0   8  -4  661.21   40.95
   0   8  -4  695.99   34.29
   0  -8   4  648.16   31.73
   0  -8   4  553.06   36.61
   0  -8   4  634.67   26.51
  -1   8  -4  241.87   21.85
  -1   8  -4  104.84   19.48
  -1   8  -4  184.22   20.03
   1  -8   4  154.61   17.31
   1  -8   4  170.38   14.56
   1  -8   4  157.69   21.25
  -2   8  -4  550.78   31.16
  -2   8  -4  490.99   28.35
  -2   8  -4  581.28   39.68
   2  -8   4  540.47   37.03
   2  -8   4  533.03   27.63
   2  -8   4  513.14   27.45
  -3   8  -4   21.24   11.65
  -3   8  -4   12.36   13.52
  -3   8  -4   23.07   17.99
   3  -8   4   17.03    9.76
   3  -8   4   29.38   12.38
  -4   8  -4  182.25   26.92
  -4   8  -4  209.80   24.01
   4  -8   4  201.71   21.28
   5   7  -4  464.33   28.97
   5   7  -4  460.96   32.37
   5   7  -4  505.08   31.71
  -5  -7   4  455.99   26.89
  -5  -7   4  501.54   30.49
  -5  -7   4  499.29   35.10
   4   7  -4   62.31   13.75
   4   7  -4   93.41   17.17
   4   7  -4   52.07   21.11
  -4  -7   4   79.64   14.92
  -4  -7   4   71.65   12.03
  -4  -7   4   74.97   16.56
   3   7  -4  478.67   37.19
   3   7  -4  443.35   27.12
   3   7  -4  433.60   23.70
  -3  -7   4  482.37   23.35
  -3  -7   4  452.38   31.11
  -3  -7   4  455.46   27.17
   2   7  -4   68.78   13.75
   2   7  -4   60.46   17.14
  -2  -7   4   73.24   16.18
  -2  -7   4   96.61    9.93
  -2  -7   4   63.91   12.06
   1   7  -4   52.26   11.30
   1   7  -4   43.65   14.69
   1   7  -4   45.07   11.79
  -1  -7   4   41.38   10.66
  -1  -7   4   40.71   12.08
  -1  -7   4   44.43    6.87
   0   7  -4  224.65   24.78
   0   7  -4  231.02   19.05
   0   7  -4  226.02   17.65
   0  -7   4  209.61   13.00
   0  -7   4  193.80   10.48
   0  -7   4  221.26   17.28
   0  -7   4  206.75   21.95
  -1   7  -4  156.19   16.21
  -1   7  -4  114.66   17.66
  -1   7  -4  142.52   16.60
   1  -7   4  133.13   17.82
   1  -7   4  134.41   14.29
   1  -7   4  149.57   12.55
  -2   7  -4  827.23   44.78
  -2   7  -4  930.11   39.07
  -2   7  -4  884.32   37.68
   2  -7   4  857.61   43.35
   2  -7   4  860.73   31.03
   2  -7   4  906.50   36.01
   2  -7   4  856.31   35.96
  -3   7  -4   24.82   10.62
  -3   7  -4   37.95   13.52
  -3   7  -4   33.74   15.78
   3  -7   4   32.42   19.27
   3  -7   4   37.43   10.93
   3  -7   4   27.91    9.01
   3  -7   4   27.61    7.76
  -4   7  -4  173.29   24.03
  -4   7  -4  189.64   20.61
  -4   7  -4  223.02   21.01
   4  -7   4  153.10   19.03
  -5   7  -4    2.22   14.72
  -5   7  -4    0.44   17.24
   5  -7   4    5.59   14.93
   5   6  -4  666.76   34.08
   5   6  -4  677.31   34.71
   5   6  -4  655.53   30.44
   5   6  -4  659.14   32.93
  -5  -6   4  645.17   30.98
  -5  -6   4  677.68   35.31
  -5  -6   4  679.96   39.61
   4   6  -4  121.35   11.91
   4   6  -4   99.28   20.09
   4   6  -4   87.20   13.19
   4   6  -4   89.38   15.08
  -4  -6   4  126.74   16.16
  -4  -6   4  159.42   21.38
  -4  -6   4  110.82   12.89
   3   6  -4  325.28   30.43
   3   6  -4  305.11   18.61
   3   6  -4  320.35   21.62
  -3  -6   4  323.79   25.48
  -3  -6   4  323.29   18.56
  -3  -6   4  338.56   21.15
   2   6  -4  704.99   32.28
   2   6  -4  687.64   40.07
  -2  -6   4  685.05   37.77
  -2  -6   4  695.90   27.15
  -2  -6   4  688.25   31.63
   1   6  -4  404.83   23.22
   1   6  -4  442.47   29.70
   1   6  -4  427.06   22.81
  -1  -6   4  406.38   26.90
  -1  -6   4  415.58   17.77
  -1  -6   4  439.37   23.43
   0   6  -4  144.91   19.42
   0   6  -4  105.71    9.17
   0   6  -4  134.01   14.47
   0   6  -4  134.02   13.15
   0  -6   4  123.44    9.40
   0  -6   4  111.40    7.78
   0  -6   4  115.54   12.61
   0  -6   4   97.06   14.12
  -1   6  -4  887.52   34.16
  -1   6  -4 1031.91   38.87
  -1   6  -4  983.57   39.35
  -1   6  -4  994.57   44.97
   1  -6   4  951.77   38.09
   1  -6   4  960.99   30.43
   1  -6   4  999.71   35.53
   1  -6   4  968.08   43.56
  -2   6  -4   12.01    8.64
  -2   6  -4   11.90    4.82
  -2   6  -4    9.27   11.46
  -2   6  -4   15.89    7.76
   2  -6   4    6.82    6.89
   2  -6   4   12.14    9.69
   2  -6   4   10.99    7.26
   2  -6   4    9.09    4.91
  -3   6  -4  413.93   29.28
  -3   6  -4  433.46   23.41
  -3   6  -4  419.50   23.68
   3  -6   4  407.46   27.90
   3  -6   4  436.35   23.00
   3  -6   4  395.58   18.51
   3  -6   4  410.62   20.09
  -4   6  -4   20.40   10.84
  -4   6  -4   20.31   11.44
  -4   6  -4   36.00   14.65
   4  -6   4   23.75    8.30
   4  -6   4   23.97   11.21
  -5   6  -4   84.35   16.82
  -5   6  -4   81.03   18.09
  -5   6  -4   64.37   14.72
   5  -6   4   80.84   15.64
  -6   6  -4  147.39   22.77
  -6   6  -4  189.26   23.49
   6  -6   4  174.79   24.13
   6   5  -4  431.53   29.27
   6   5  -4  443.99   27.49
  -6  -5   4  394.02   28.28
  -6  -5   4  443.35   33.58
  -6  -5   4  379.38   25.26
   5   5  -4  203.94   19.20
   5   5  -4  212.73   20.24
   5   5  -4  192.37   18.84
   5   5  -4  197.47   17.49
  -5  -5   4  230.10   19.37
  -5  -5   4  215.78   17.68
  -5  -5   4  253.86   24.18
   4   5  -4  754.40   43.28
   4   5  -4  763.69   32.94
   4   5  -4  780.89   35.07
  -4  -5   4  830.12   35.83
  -4  -5   4  779.65   32.52
  -4  -5   4  775.91   39.16
   3   5  -4  726.37   31.63
   3   5  -4  659.96   26.22
   3   5  -4  706.11   38.57
   3   5  -4  693.46   28.39
  -3  -5   4  728.85   27.98
  -3  -5   4  738.32   36.44
  -3  -5   4  648.90   28.02
  -3  -5   4  708.89   31.83
   2   5  -4  743.83   38.13
   2   5  -4  750.64   32.18
  -2  -5   4  732.43   27.92
  -2  -5   4  707.23   24.86
  -2  -5   4  734.20   31.58
  -2  -5   4  764.69   36.12
   1   5  -4  873.40   41.54
   1   5  -4  925.47   36.06
   1   5  -4  918.54   36.20
  -1  -5   4  915.42   31.18
  -1  -5   4  838.97   39.44
  -1  -5   4  894.63   29.00
  -1  -5   4  878.08   35.83
   0   5  -4  587.08   25.03
   0   5  -4  541.76   20.88
   0   5  -4  552.58   30.95
   0   5  -4  569.71   26.00
   0  -5   4  571.05   20.79
   0  -5   4  551.88   28.64
   0  -5   4  579.65   20.04
   0  -5   4  538.06   24.71
  -1   5  -4  284.91   10.93
  -1   5  -4  245.69   13.50
  -1   5  -4  279.90   21.42
  -1   5  -4  272.50   16.66
  -1   5  -4  290.32   16.57
   1  -5   4  280.31   10.23
   1  -5   4  259.26   13.83
   1  -5   4  263.11   15.56
   1  -5   4  272.81   20.08
  -2   5  -4   49.22   11.74
  -2   5  -4   59.68    9.52
  -2   5  -4   36.04   11.00
  -2   5  -4   45.21    5.48
  -2   5  -4   45.36   11.57
  -2   5  -4   64.10   10.56
   2  -5   4   40.92    8.25
   2  -5   4   55.84    7.86
   2  -5   4   49.63   10.84
   2  -5   4   53.79    8.47
   2  -5   4   71.76    6.93
  -3   5  -4  938.32   42.85
  -3   5  -4 1074.73   39.87
  -3   5  -4 1038.89   44.26
  -3   5  -4 1109.00   41.87
   3  -5   4 1132.24   41.53
   3  -5   4 1060.71   36.90
   3  -5   4  997.89   36.41
   3  -5   4 1082.97   36.80
   3  -5   4 1005.52   43.20
  -4   5  -4   34.24   10.05
  -4   5  -4   26.12   10.47
  -4   5  -4   37.77   12.87
   4  -5   4   17.48    7.38
   4  -5   4   21.49    9.51
  -5   5  -4   49.41   13.68
  -5   5  -4   55.03   11.57
  -5   5  -4   69.45   15.12
   5  -5   4   77.92   14.63
  -6   5  -4   31.05   14.21
  -6   5  -4   30.99   14.75
   6  -5   4   73.46   16.10
   6  -5   4   56.82   17.15
   6   4  -4  451.88   27.69
   6   4  -4  463.04   27.86
  -6  -4   4  436.71   31.49
  -6  -4   4  421.42   25.21
  -6  -4   4  414.93   27.32
   5   4  -4  179.95   16.40
   5   4  -4  152.46   16.57
   5   4  -4  150.27   17.24
  -5  -4   4  171.48   15.36
  -5  -4   4  188.03   21.95
  -5  -4   4  158.13   17.87
   4   4  -4  382.89   30.71
   4   4  -4  443.22   24.18
   4   4  -4  435.50   23.60
   4   4  -4  429.30   22.02
  -4  -4   4  412.05   21.02
  -4  -4   4  425.12   23.38
  -4  -4   4  444.35   26.91
   3   4  -4  844.91   29.62
   3   4  -4  923.80   42.30
   3   4  -4  904.67   32.54
   3   4  -4  850.58   35.00
  -3  -4   4  865.23   40.01
  -3  -4   4  851.24   35.49
  -3  -4   4  860.42   32.68
   2   4  -4  916.33   36.10
   2   4  -4  852.37   31.29
   2   4  -4  966.10   32.41
   2   4  -4  883.58   40.93
  -2  -4   4  945.91   39.94
  -2  -4   4  950.31   36.32
  -2  -4   4  859.94   30.41
  -2  -4   4  917.94   32.60
   1   4  -4   90.51   12.72
   1   4  -4  122.54   11.69
   1   4  -4  117.06   11.24
   1   4  -4  129.94    9.42
   1   4  -4  131.08   11.06
  -1  -4   4   98.04   11.93
  -1  -4   4  129.25    8.40
  -1  -4   4  124.54    5.59
  -1  -4   4  133.04   10.97
   0   4  -4 1834.11   68.56
   0   4  -4 1897.92   60.16
   0   4  -4 1966.34   64.56
   0   4  -4 1920.61   69.70
   0   4  -4 1930.80   63.71
   0  -4   4 1907.72   64.05
   0  -4   4 1923.40   59.84
   0  -4   4 1879.94   67.64
   0  -4   4 1934.36   59.64
  -1   4  -4  449.31   15.79
  -1   4  -4  423.45   24.14
  -1   4  -4  409.22   17.98
  -1   4  -4  466.88   20.44
  -1   4  -4  496.61   24.95
  -1   4  -4  456.89   19.67
   1  -4   4  462.17   19.77
   1  -4   4  449.18   15.43
   1  -4   4  464.76   23.87
   1  -4   4  476.01   18.90
   1  -4   4  471.32   20.02
  -2   4  -4  152.95   15.11
  -2   4  -4  144.27   11.40
  -2   4  -4  157.51   15.95
  -2   4  -4  174.68   12.60
  -2   4  -4  138.10    8.24
   2  -4   4  142.69    9.81
   2  -4   4  153.11    9.37
   2  -4   4  145.44   13.89
   2  -4   4  141.17   10.27
   2  -4   4  143.83   11.14
  -3   4  -4  186.91   14.28
  -3   4  -4  177.19   12.75
  -3   4  -4  196.65   12.99
  -3   4  -4  187.68   16.67
  -3   4  -4  195.23   17.21
  -3   4  -4  209.02   17.16
   3  -4   4  192.28   13.98
   3  -4   4  188.67    9.92
   3  -4   4  174.81    9.84
   3  -4   4  193.95   15.58
   3  -4   4  193.14   11.39
  -4   4  -4  665.59   27.10
  -4   4  -4  669.88   30.64
  -4   4  -4  666.97   29.97
  -4   4  -4  727.01   33.42
  -4   4  -4  638.67   22.28
   4  -4   4  714.71   30.81
   4  -4   4  629.37   29.18
   4  -4   4  703.66   27.03
  -5   4  -4  234.72   19.61
  -5   4  -4  254.84   21.22
  -5   4  -4  233.60   15.99
   5  -4   4  261.48   20.61
   5  -4   4  219.36   19.00
   5  -4   4  237.87   16.81
  -6   4  -4   34.32   14.82
  -6   4  -4   21.82   10.88
   6  -4   4   26.50   14.07
   6  -4   4   28.00   13.66
  -7   4  -4  228.25   26.67
   7  -4   4  276.62   33.81
   7  -4   4  295.39   27.04
   6   3  -4   76.70   14.77
  -6  -3   4   57.92   11.72
  -6  -3   4   67.64   13.48
  -6  -3   4  100.89   18.28
   5   3  -4  153.15   16.05
   5   3  -4  148.28   15.43
   5   3  -4  179.75   16.48
  -5  -3   4  160.92   16.33
  -5  -3   4  159.70   14.40
  -5  -3   4  181.99   20.42
   4   3  -4   44.46   10.84
   4   3  -4   24.62    9.22
   4   3  -4   29.35    9.56
   4   3  -4   10.21   13.27
  -4  -3   4   51.37   12.28
  -4  -3   4   36.68    8.01
  -4  -3   4   33.91    9.11
   3   3  -4 1201.00   44.19
   3   3  -4 1106.11   48.51
   3   3  -4 1225.38   43.86
   3   3  -4 1132.94   36.97
   3   3  -4 1228.07   41.33
  -3  -3   4 1209.35   47.89
  -3  -3   4 1171.39   43.79
  -3  -3   4 1154.34   41.36
   2   3  -4  351.74   22.99
   2   3  -4  357.03   14.98
   2   3  -4  309.57   13.51
   2   3  -4  344.58   18.83
  -2  -3   4  346.98   15.59
  -2  -3   4  364.76   17.99
  -2  -3   4  382.03   21.84
   1   3  -4   75.32    6.98
   1   3  -4   97.06    9.73
   1   3  -4   60.64    9.77
   1   3  -4   72.02    6.93
  -1  -3   4   87.92    6.48
  -1  -3   4   90.85    9.42
  -1  -3   4   77.82   11.62
  -1  -3   4   70.47    9.50
   0   3  -4  997.55   39.22
   0   3  -4 1096.87   37.43
   0   3  -4 1081.44   38.39
   0   3  -4 1042.18   34.86
   0   3  -4 1145.99   42.66
   0   3  -4 1060.98   41.42
   0  -3   4 1010.68   41.71
   0  -3   4 1122.22   41.36
   0  -3   4 1076.43   34.17
   0  -3   4 1075.69   37.76
   0  -3   4 1047.91   37.43
   0  -3   4 1107.03   34.68
   0  -3   4 1046.77   36.95
  -1   3  -4 2798.76   88.30
  -1   3  -4 2837.46   92.30
  -1   3  -4 2791.45   89.05
  -1   3  -4 2808.44   85.06
  -1   3  -4 2609.68   88.64
  -1   3  -4 2865.74   92.63
   1  -3   4 2815.54   87.12
   1  -3   4 2842.33   92.01
   1  -3   4 2781.49   88.68
   1  -3   4 2965.27   85.34
   1  -3   4 2735.58   88.05
   1  -3   4 2807.62   88.38
   1  -3   4 2796.33   84.82
  -2   3  -4  244.60   16.01
  -2   3  -4  254.55   13.71
  -2   3  -4  250.70   16.08
  -2   3  -4  248.96   17.37
  -2   3  -4  251.48   12.67
  -2   3  -4  257.51    9.25
  -2   3  -4  256.47   11.29
  -2   3  -4  241.14   13.81
   2  -3   4  256.50   15.75
   2  -3   4  259.44   11.68
   2  -3   4  269.94   11.98
   2  -3   4  244.81   15.16
   2  -3   4  257.28   13.31
   2  -3   4  246.92   11.81
  -3   3  -4    8.99    6.26
  -3   3  -4    7.53    6.08
  -3   3  -4    4.96    2.45
  -3   3  -4    3.80    6.21
  -3   3  -4    3.47    5.34
  -3   3  -4    5.11    5.03
  -3   3  -4    9.32    5.88
  -3   3  -4    6.04    5.74
   3  -3   4    8.18    5.63
   3  -3   4    7.60    5.77
   3  -3   4    8.36    4.38
  -4   3  -4 1226.85   41.25
  -4   3  -4 1172.69   42.24
  -4   3  -4 1208.61   39.19
  -4   3  -4 1141.52   42.79
  -4   3  -4 1195.76   45.48
  -4   3  -4 1299.43   44.44
   4  -3   4 1272.66   43.01
   4  -3   4 1234.39   44.65
   4  -3   4 1233.43   45.68
  -5   3  -4   73.12    7.30
  -5   3  -4   72.29    9.75
  -5   3  -4   76.82    9.06
  -5   3  -4   44.33   11.81
   5  -3   4   70.04   12.23
   5  -3   4   81.30   12.80
   5  -3   4   68.65   10.02
  -6   3  -4  505.99   30.57
   6  -3   4  516.15   29.68
   6  -3   4  495.85   29.93
  -7   3  -4    3.18   16.03
   7  -3   4    1.87   15.21
   7  -3   4    0.84   14.00
   6   2  -4  165.79   18.27
  -6  -2   4  153.38   20.37
  -6  -2   4  155.85   15.34
  -6  -2   4  152.40   18.36
   5   2  -4   50.23   11.10
   5   2  -4   51.11   11.71
   5   2  -4   55.97   14.73
  -5  -2   4   58.17   11.44
  -5  -2   4   55.20    9.35
  -5  -2   4   66.83   14.03
   4   2  -4    3.01    7.79
   4   2  -4    2.26    8.81
   4   2  -4    2.29    5.49
   4   2  -4    0.78   11.80
  -4  -2   4   -3.12    6.99
  -4  -2   4   -0.72    9.38
  -4  -2   4    3.17    5.83
  -4  -2   4   -0.46    6.21
   3   2  -4  572.20   25.48
   3   2  -4  554.10   31.00
   3   2  -4  559.09   19.87
   3   2  -4  597.41   23.01
   3   2  -4  559.48   25.30
  -3  -2   4  624.58   25.86
  -3  -2   4  563.25   23.17
  -3  -2   4  597.08   28.93
  -3  -2   4  562.99   29.85
   2   2  -4   54.05    4.50
   2   2  -4   52.10    8.40
   2   2  -4   83.23   11.89
   2   2  -4   72.33    6.43
  -2  -2   4   55.61    8.93
  -2  -2   4   74.81    9.02
  -2  -2   4   58.40    6.23
  -2  -2   4   56.20    9.71
   1   2  -4 4326.19  124.62
   1   2  -4 3994.55  128.56
   1   2  -4 4020.62  128.48
   1   2  -4 4259.62  133.12
   1   2  -4 4123.28  132.39
   1   2  -4 4040.62  126.43
  -1  -2   4 4129.31  127.93
  -1  -2   4 3992.21  128.47
  -1  -2   4 4134.39  126.09
  -1  -2   4 4304.52  129.07
  -1  -2   4 4264.32  132.25
  -1  -2   4 4017.45  132.05
   0   2  -4  742.81   24.93
   0   2  -4  761.75   27.92
   0   2  -4  737.69   30.04
   0   2  -4  751.99   26.33
   0   2  -4  816.40   31.35
   0   2  -4  704.74   23.78
   0   2  -4  734.07   27.76
   0  -2   4  735.52   27.08
   0  -2   4  722.05   29.58
   0  -2   4  754.34   27.42
   0  -2   4  701.55   25.86
   0  -2   4  751.85   24.91
   0  -2   4  737.30   30.13
  -1   2  -4 1743.35   53.07
  -1   2  -4 1776.59   58.76
  -1   2  -4 1755.64   55.85
  -1   2  -4 1784.06   55.03
  -1   2  -4 1705.09   58.26
  -1   2  -4 1743.28   55.83
  -1   2  -4 1665.34   54.25
   1  -2   4 1758.31   53.20
   1  -2   4 1634.37   57.89
   1  -2   4 1632.60   57.76
   1  -2   4 1745.33   53.16
   1  -2   4 1714.87   55.10
   1  -2   4 1712.93   54.47
   1  -2   4 1709.97   55.14
  -2   2  -4  767.93   29.09
  -2   2  -4  843.05   31.02
  -2   2  -4  812.28   30.48
  -2   2  -4  871.71   28.63
  -2   2  -4  789.40   28.38
  -2   2  -4  819.31   27.62
  -2   2  -4  785.42   26.16
  -2   2  -4  868.40   29.33
  -2   2  -4  788.04   29.19
   2  -2   4  832.57   26.85
   2  -2   4  855.88   26.92
   2  -2   4  812.52   29.38
   2  -2   4  833.56   27.94
   2  -2   4  794.04   30.08
   2  -2   4  821.38   29.99
   2  -2   4  781.69   30.35
   2  -2   4  812.78   28.14
  -3   2  -4 1301.34   44.16
  -3   2  -4 1327.79   43.85
  -3   2  -4 1290.98   42.00
  -3   2  -4 1299.38   43.75
  -3   2  -4 1311.02   42.43
  -3   2  -4 1202.57   43.29
   3  -2   4 1356.05   45.48
   3  -2   4 1285.87   43.67
   3  -2   4 1289.06   43.54
  -4   2  -4   98.61    9.43
  -4   2  -4   84.41    7.92
  -4   2  -4   98.96   11.22
  -4   2  -4  112.08    7.73
  -4   2  -4  111.88    8.29
  -4   2  -4  100.86    8.32
   4  -2   4  107.03    7.37
   4  -2   4  101.68    9.43
   4  -2   4   85.47   10.09
   4  -2   4   98.44    7.96
   4  -2   4  122.44   11.67
  -5   2  -4  404.85   23.16
  -5   2  -4  356.47   16.68
  -5   2  -4  297.10   17.07
  -5   2  -4  361.05   15.35
   5  -2   4  366.37   22.05
   5  -2   4  351.29   21.44
   5  -2   4  356.93   19.56
  -6   2  -4  260.43   16.15
  -6   2  -4  252.01   22.88
   6  -2   4  294.92   22.79
   6  -2   4  293.81   23.50
  -7   2  -4    2.09   15.12
   7  -2   4   10.55   13.02
   7  -2   4   11.16   15.08
   6   1  -4  130.03   17.14
  -6  -1   4  130.56   19.42
  -6  -1   4  120.10   16.56
  -6  -1   4  110.98   13.72
   5   1  -4  289.99   17.98
   5   1  -4  338.19   21.16
   5   1  -4  260.62   17.78
  -5  -1   4  280.34   17.07
  -5  -1   4  270.27   22.99
  -5  -1   4  319.36   19.57
   4   1  -4  381.80   21.13
   4   1  -4  401.28   18.07
   4   1  -4  407.21   28.24
  -4  -1   4  384.62   25.73
  -4  -1   4  353.30   20.14
  -4  -1   4  450.71   25.01
  -4  -1   4  395.07   19.15
   3   1  -4  186.18   13.09
   3   1  -4  176.63   18.17
   3   1  -4  170.93    9.77
  -3  -1   4  187.33   15.86
  -3  -1   4  188.01   13.67
  -3  -1   4  160.42   15.82
  -3  -1   4  165.45   10.40
  -3  -1   4  176.62   11.00
   2   1  -4  468.52   20.55
   2   1  -4  464.45   16.05
   2   1  -4  468.24   24.66
   2   1  -4  464.76   14.90
   2   1  -4  448.22   20.49
   2   1  -4  477.67   20.65
   2   1  -4  434.87   14.72
   2   1  -4  469.61   17.17
  -2  -1   4  467.78   23.31
  -2  -1   4  471.26   23.76
  -2  -1   4  430.93   16.51
  -2  -1   4  442.95   18.11
  -2  -1   4  480.17   20.23
   1   1  -4 5763.74  183.18
   1   1  -4 5711.53  180.17
   1   1  -4 5664.05  178.16
   1   1  -4 6117.77  175.97
   1   1  -4 6044.41  180.61
   1   1  -4 6167.26  184.29
  -1  -1   4 5789.43  180.05
  -1  -1   4 5911.69  178.02
  -1  -1   4 5752.85  183.35
  -1  -1   4 6013.31  180.31
  -1  -1   4 5874.05  183.25
   0   1  -4 1840.23   61.47
   0   1  -4 1795.08   56.93
   0   1  -4 1855.03   59.06
   0   1  -4 1865.18   61.89
   0   1  -4 1773.66   55.92
   0   1  -4 1830.70   58.89
   0  -1   4 1835.32   57.08
   0  -1   4 1751.38   61.06
   0  -1   4 1859.04   56.89
   0  -1   4 1804.78   58.59
   0  -1   4 1847.25   61.20
   0  -1   4 1840.64   58.59
  -1   1  -4  945.75   31.53
  -1   1  -4 1011.90   31.89
  -1   1  -4  956.87   35.18
  -1   1  -4  993.33   33.38
  -1   1  -4  966.78   32.50
  -1   1  -4  989.94   33.27
  -1   1  -4  986.05   35.62
  -1   1  -4  996.17   31.57
   1  -1   4  969.88   35.26
   1  -1   4 1011.56   31.79
   1  -1   4  987.24   32.53
   1  -1   4 1033.32   31.84
   1  -1   4  968.03   32.62
   1  -1   4  997.64   31.93
   1  -1   4  981.33   34.79
  -2   1  -4  287.42   11.82
  -2   1  -4  278.30   13.34
  -2   1  -4  260.51   13.07
  -2   1  -4  285.07   12.11
  -2   1  -4  303.01   13.77
  -2   1  -4  281.85   12.21
  -2   1  -4  285.45   11.58
  -2   1  -4  271.38   12.74
  -2   1  -4  280.68   13.40
   2  -1   4  300.03   13.42
   2  -1   4  296.67    9.59
   2  -1   4  286.73   12.30
   2  -1   4  291.31   12.86
   2  -1   4  283.13   12.30
   2  -1   4  283.84   12.76
   2  -1   4  278.12    9.49
   2  -1   4  298.75   13.57
  -3   1  -4  568.30   19.35
  -3   1  -4  585.39   19.41
  -3   1  -4  593.52   23.08
  -3   1  -4  530.04   22.37
  -3   1  -4  614.02   21.01
  -3   1  -4  586.38   20.68
   3  -1   4  556.96   19.83
   3  -1   4  603.28   22.49
   3  -1   4  557.69   20.14
   3  -1   4  570.78   22.49
   3  -1   4  590.13   23.65
  -4   1  -4   26.09    3.45
  -4   1  -4   21.84    5.35
  -4   1  -4   14.96    7.30
  -4   1  -4   24.08    3.03
   4  -1   4   20.91    7.12
   4  -1   4   16.02    5.62
   4  -1   4   21.66    7.35
  -5   1  -4  516.14   18.37
  -5   1  -4  510.44   18.78
  -5   1  -4  573.73   27.91
  -5   1  -4  583.71   22.88
   5  -1   4  564.48   26.55
   5  -1   4  602.79   25.15
   5  -1   4  548.44   25.98
  -6   1  -4   27.77    8.51
  -6   1  -4   21.35   12.72
   6  -1   4   28.57   11.02
   6  -1   4   19.58   11.11
  -7   1  -4   72.18   17.59
  -7   1  -4   69.93   11.89
  -7   1  -4   46.79   15.17
   7  -1   4   84.54   16.33
   7  -1   4   83.80   16.59
   6   0  -4   92.31   15.94
  -6   0   4   73.11   13.50
  -6   0   4   60.08   15.28
  -6   0   4   86.55   12.79
   5   0  -4  265.60   20.03
   5   0  -4  258.21   17.89
  -5   0   4  259.82   16.55
  -5   0   4  241.82   22.03
  -5   0   4  256.19   18.57
   4   0  -4  485.93   30.74
   4   0  -4  394.30   20.72
   4   0  -4  355.28   18.53
   4   0  -4  370.13   27.46
  -4   0   4  337.57   24.65
  -4   0   4  398.43   21.47
  -4   0   4  432.01   25.16
  -4   0   4  369.34   18.30
   3   0  -4  403.97   19.95
   3   0  -4  399.70   16.46
   3   0  -4  386.74   24.24
   3   0  -4  311.93   20.03
  -3   0   4  385.46   17.25
  -3   0   4  353.80   16.70
  -3   0   4  366.65   22.54
  -3   0   4  421.66   22.73
  -3   0   4  388.37   18.61
   2   0  -4 2818.99   86.68
   2   0  -4 2984.42   92.43
   2   0  -4 2987.59   96.33
   2   0  -4 2834.12   91.91
  -2   0   4 2771.40   95.39
  -2   0   4 2887.66   89.88
  -2   0   4 2884.78   88.96
  -2   0   4 2930.19   95.72
  -2   0   4 2906.20   92.10
   1   0  -4   74.00    8.05
   1   0  -4   82.95    5.48
   1   0  -4   78.58    9.70
   1   0  -4   54.79    8.25
   1   0  -4   54.83    7.26
   1   0  -4   66.85    6.04
   1   0  -4   81.33    8.24
  -1   0   4   84.38    6.36
  -1   0   4   75.05    4.27
  -1   0   4   78.83    8.12
  -1   0   4   65.36    8.60
  -1   0   4   89.95    9.75
  -1   0   4   92.73    8.04
   0   0  -4 8406.56  253.25
   0   0  -4 8465.08  254.91
   0   0  -4 8507.87  253.65
   0   0  -4 8381.17  257.39
   0   0  -4 8465.96  255.01
   0   0  -4 8546.95  255.04
   0   0   4 8721.47  257.78
   0   0   4 8329.83  254.76
   0   0   4 8073.35  257.35
   0   0   4 8697.42  254.90
   0   0   4 8397.59  253.10
  -1   0  -4  501.59   18.29
  -1   0  -4  515.48   20.58
  -1   0  -4  488.66   17.92
  -1   0  -4  481.91   16.31
  -1   0  -4  486.08   19.83
  -1   0  -4  482.00   15.48
  -1   0  -4  481.06   16.94
   1   0   4  469.77   19.50
   1   0   4  463.76   17.43
   1   0   4  477.95   15.59
   1   0   4  477.19   17.42
   1   0   4  445.03   19.62
   1   0   4  504.71   16.43
  -2   0  -4  826.48   26.98
  -2   0  -4  834.55   28.45
  -2   0  -4  842.82   27.14
  -2   0  -4  895.80   29.14
  -2   0  -4  765.47   27.92
  -2   0  -4  809.22   27.21
  -2   0  -4  776.50   28.91
   2   0   4  830.15   28.59
   2   0   4  828.09   28.28
   2   0   4  820.04   28.31
   2   0   4  840.36   28.35
   2   0   4  848.45   28.55
  -3   0  -4  360.93   11.99
  -3   0  -4  332.54   16.62
  -3   0  -4  363.23   16.32
  -3   0  -4  369.22   13.12
  -3   0  -4  360.22   12.01
  -3   0  -4  374.51   13.06
   3   0   4  359.84   15.96
   3   0   4  378.56   17.01
   3   0   4  379.26   16.33
   3   0   4  372.23   16.24
  -4   0  -4  173.54   12.88
  -4   0  -4  160.61   11.29
   4   0   4  163.05   11.25
   4   0   4  157.36   12.20
   4   0   4  139.25   11.78
   4   0   4  158.27   12.22
   4   0   4  165.90   11.64
  -5   0  -4  118.83   10.38
  -5   0  -4  113.13   13.62
  -5   0  -4  129.38   13.08
   5   0   4  109.40   12.12
   5   0   4  112.21   12.17
  -6   0  -4  185.49   15.09
  -6   0  -4  196.57   20.32
  -6   0  -4  205.81   17.56
   6   0   4  204.25   17.85
   6   0   4  207.56   18.03
  -7   0  -4  705.95   31.10
  -7   0  -4  728.04   39.43
  -7   0  -4  637.96   33.05
   7   0   4  700.20   35.11
   7   0   4  674.98   34.88
   6  -1  -4   51.25   15.04
   6  -1  -4   79.76   16.05
  -6   1   4   74.91   16.65
  -6   1   4   58.23   15.06
  -6   1   4   73.23   11.44
  -6   1   4   71.94   19.12
   5  -1  -4  408.89   23.53
   5  -1  -4  421.85   25.53
   5  -1  -4  384.18   21.23
  -5   1   4  435.29   23.54
  -5   1   4  386.29   27.18
  -5   1   4  387.05   20.45
  -5   1   4  415.95   27.96
   4  -1  -4  113.38   12.87
   4  -1  -4  140.00   12.66
   4  -1  -4  133.16   17.95
  -4   1   4  132.32   10.98
  -4   1   4   91.61   15.04
  -4   1   4  202.31   20.16
  -4   1   4  159.62   15.03
   3  -1  -4 1484.21   56.70
   3  -1  -4 1485.36   51.30
  -3   1   4 1528.68   48.98
  -3   1   4 1486.00   55.64
  -3   1   4 1488.35   51.61
  -3   1   4 1346.16   54.92
  -3   1   4 1424.77   45.01
   2  -1  -4  795.36   31.88
   2  -1  -4  872.65   27.49
   2  -1  -4  838.73   36.01
   2  -1  -4  894.53   33.01
  -2   1   4  783.78   34.83
  -2   1   4  850.19   27.49
  -2   1   4  837.47   29.12
  -2   1   4  871.02   31.99
  -2   1   4  819.90   29.33
  -2   1   4  872.19   35.40
   1  -1  -4  559.09   22.83
   1  -1  -4  577.55   26.35
   1  -1  -4  563.61   26.46
   1  -1  -4  597.88   23.43
   1  -1  -4  605.12   20.31
   1  -1  -4  577.18   20.94
  -1   1   4  560.60   25.62
  -1   1   4  592.11   20.93
  -1   1   4  605.90   20.30
  -1   1   4  550.55   22.76
  -1   1   4  604.87   25.95
  -1   1   4  578.87   22.96
  -1   1   4  577.57   22.71
   0  -1  -4 1324.15   41.58
   0  -1  -4 1293.60   43.53
   0  -1  -4 1225.48   45.51
   0  -1  -4 1292.78   43.17
   0  -1  -4 1305.94   42.02
   0   1   4 1338.91   43.17
   0   1   4 1268.48   43.12
   0   1   4 1303.55   43.30
   0   1   4 1327.37   45.91
   0   1   4 1308.90   40.87
   0   1   4 1332.89   41.65
   0   1   4 1293.18   45.95
   0   1   4 1263.28   41.90
  -1  -1  -4 2276.91   70.59
  -1  -1  -4 2101.78   71.60
  -1  -1  -4 2134.92   68.86
  -1  -1  -4 2241.25   69.88
  -1  -1  -4 2189.54   70.09
  -1  -1  -4 2282.82   70.25
  -1  -1  -4 2279.40   72.30
   1   1   4 2273.60   70.59
   1   1   4 2263.29   69.74
   1   1   4 2215.05   71.85
   1   1   4 2252.48   69.53
   1   1   4 2231.30   72.15
   1   1   4 2234.01   68.43
   1   1   4 2282.39   68.83
  -2  -1  -4  215.48    9.68
  -2  -1  -4  215.40   10.37
  -2  -1  -4  212.68    9.79
  -2  -1  -4  208.62    9.53
  -2  -1  -4  209.28    9.16
  -2  -1  -4  214.35   10.93
  -2  -1  -4  207.83   11.54
  -2  -1  -4  229.85   11.34
   2   1   4  208.49    7.62
   2   1   4  213.97   10.38
   2   1   4  200.67   10.52
   2   1   4  205.70    7.58
   2   1   4  211.74   10.38
   2   1   4  218.58   10.64
   2   1   4  208.41    9.97
  -3  -1  -4  436.58   18.71
  -3  -1  -4  440.07   15.51
  -3  -1  -4  431.96   14.33
  -3  -1  -4  421.21   15.42
  -3  -1  -4  392.42   14.10
  -3  -1  -4  367.08   18.05
   3   1   4  442.01   17.50
   3   1   4  402.43   17.89
   3   1   4  407.73   14.77
   3   1   4  407.79   14.86
   3   1   4  435.52   18.05
  -4  -1  -4 1364.48   47.10
   4   1   4 1379.96   47.60
   4   1   4 1310.29   47.56
   4   1   4 1364.86   46.81
  -5  -1  -4  141.14   12.77
  -5  -1  -4  137.76   12.15
   5   1   4  162.94   13.41
   5   1   4  160.84   13.23
   5   1   4  125.29   13.44
  -6  -1  -4   58.20   13.59
  -6  -1  -4   50.98   10.02
  -6  -1  -4   62.46   11.78
   6   1   4   53.70   10.73
   6   1   4   43.64   11.16
  -7  -1  -4   95.71   14.63
  -7  -1  -4   78.42   12.91
  -7  -1  -4   99.65   20.06
   7   1   4   97.89   15.17
  -8  -1  -4   75.24   22.26
  -8  -1  -4   74.54   14.85
   8   1   4  123.78   19.57
   6  -2  -4  125.52   18.68
   6  -2  -4  144.23   19.08
  -6   2   4  132.42   20.21
  -6   2   4  131.63   13.86
  -6   2   4  137.32   21.12
  -6   2   4  127.57   17.79
   5  -2  -4  237.46   19.84
   5  -2  -4  242.14   21.21
  -5   2   4  226.62   16.14
  -5   2   4  248.67   22.93
  -5   2   4  249.37   23.85
  -5   2   4  233.64   18.32
   4  -2  -4   11.94    8.70
   4  -2  -4   19.92    9.11
   4  -2  -4   10.12    9.16
   4  -2  -4   10.62   13.37
  -4   2   4   15.79    6.42
  -4   2   4   17.07    9.70
  -4   2   4   10.96    8.85
  -4   2   4   19.58    8.91
   3  -2  -4  682.33   29.15
   3  -2  -4  684.41   34.59
  -3   2   4  714.17   25.96
  -3   2   4  699.77   29.01
  -3   2   4  682.93   33.03
  -3   2   4  656.26   23.92
  -3   2   4  628.24   33.13
  -3   2   4  746.11   31.16
   2  -2  -4  929.25   40.21
   2  -2  -4  950.53   36.35
   2  -2  -4  997.17   32.27
  -2   2   4  931.95   35.95
  -2   2   4  986.06   33.05
  -2   2   4  931.45   32.03
  -2   2   4  958.12   39.37
  -2   2   4 1009.66   36.19
   1  -2  -4  119.13   14.90
   1  -2  -4  172.42    9.35
   1  -2  -4  185.69   15.51
   1  -2  -4  178.68    9.44
   1  -2  -4  164.99   11.32
   1  -2  -4  159.62   12.60
  -1   2   4  176.19   10.44
  -1   2   4  171.29   13.78
  -1   2   4  196.02    8.92
  -1   2   4  188.71   11.11
  -1   2   4  171.24    8.96
  -1   2   4  184.41   13.96
   0  -2  -4  812.32   29.84
   0  -2  -4  840.11   33.22
   0  -2  -4  848.59   28.73
   0  -2  -4  829.59   32.83
   0  -2  -4  787.64   30.03
   0  -2  -4  801.57   27.68
   0   2   4  780.12   32.38
   0   2   4  832.76   32.32
   0   2   4  806.21   28.45
   0   2   4  809.51   29.87
   0   2   4  835.78   29.53
   0   2   4  839.19   27.88
   0   2   4  849.72   27.27
  -1  -2  -4 5438.85  161.46
  -1  -2  -4 5258.65  160.96
  -1  -2  -4 5337.81  163.61
  -1  -2  -4 5389.46  161.21
  -1  -2  -4 5434.21  164.01
  -1  -2  -4 5125.82  157.79
   1   2   4 5225.97  160.45
   1   2   4 5323.85  157.86
   1   2   4 5111.74  163.36
   1   2   4 5349.97  163.47
   1   2   4 5323.96  159.10
   1   2   4 5144.91  160.63
   1   2   4 5243.96  160.72
   1   2   4 5239.56  161.05
  -2  -2  -4 1786.81   57.03
  -2  -2  -4 1653.02   53.99
  -2  -2  -4 1691.13   54.17
  -2  -2  -4 1741.05   56.53
  -2  -2  -4 1730.10   54.53
  -2  -2  -4 1729.32   55.86
  -2  -2  -4 1661.64   52.85
   2   2   4 1727.74   54.21
   2   2   4 1663.85   55.93
   2   2   4 1681.99   55.65
   2   2   4 1715.03   54.93
   2   2   4 1727.73   54.99
   2   2   4 1723.59   53.35
   2   2   4 1689.55   56.24
   2   2   4 1645.03   53.02
  -3  -2  -4  495.65   20.56
  -3  -2  -4  467.07   19.70
  -3  -2  -4  485.62   17.79
  -3  -2  -4  492.90   19.12
  -3  -2  -4  475.94   19.17
  -3  -2  -4  473.88   17.50
   3   2   4  505.55   20.32
   3   2   4  464.74   18.84
   3   2   4  486.06   19.52
   3   2   4  466.24   19.82
  -4  -2  -4  629.83   26.10
  -4  -2  -4  617.57   21.97
  -4  -2  -4  640.53   22.07
  -4  -2  -4  605.90   21.21
  -4  -2  -4  597.67   21.01
   4   2   4  597.74   24.83
   4   2   4  595.25   25.17
   4   2   4  651.51   26.35
  -5  -2  -4   48.40    8.61
  -5  -2  -4   57.24   10.11
  -5  -2  -4   47.29    5.42
  -5  -2  -4   60.64    5.71
   5   2   4   55.48    8.77
   5   2   4   50.42    9.88
   5   2   4   65.74    9.52
  -6  -2  -4  567.59   26.37
  -6  -2  -4  541.86   25.88
   6   2   4  540.01   26.47
  -7  -2  -4   58.39   12.03
  -7  -2  -4   38.05   12.77
   7   2   4   47.45   15.13
   7   2   4   47.49   12.21
  -8  -2  -4   33.83   20.62
  -8  -2  -4   29.62   13.07
   8   2   4   34.08   15.19
   6  -3  -4  203.11   23.45
   6  -3  -4  204.58   23.41
  -6   3   4  231.67   26.15
  -6   3   4  238.13   26.67
  -6   3   4  202.30   16.62
  -6   3   4  203.13   22.11
   5  -3  -4   50.39   13.75
   5  -3  -4   74.77   15.01
  -5   3   4   63.48   13.31
  -5   3   4   77.55   15.56
  -5   3   4   64.41   10.07
  -5   3   4   69.95   15.78
   4  -3  -4  811.30   43.43
   4  -3  -4  922.08   36.49
   4  -3  -4  824.65   34.78
   4  -3  -4  830.11   36.78
  -4   3   4  851.42   31.94
  -4   3   4  843.92   35.66
  -4   3   4  898.54   42.13
  -4   3   4  845.81   38.68
   3  -3  -4  348.68   27.84
   3  -3  -4  386.84   21.91
   3  -3  -4  401.95   17.24
  -3   3   4  376.69   16.63
  -3   3   4  391.86   21.56
  -3   3   4  376.16   24.66
  -3   3   4  399.00   20.44
  -3   3   4  395.06   17.20
   2  -3  -4  427.74   27.03
   2  -3  -4  451.10   22.14
   2  -3  -4  467.44   18.43
  -2   3   4  441.74   24.71
  -2   3   4  405.86   17.77
  -2   3   4  455.92   21.63
  -2   3   4  454.30   21.20
  -2   3   4  452.28   17.65
   1  -3  -4  352.69   14.91
   1  -3  -4  345.99   21.34
   1  -3  -4  290.75   13.98
   1  -3  -4  349.52   18.28
  -1   3   4  322.47   13.86
  -1   3   4  304.90   14.58
  -1   3   4  323.95   19.64
  -1   3   4  316.85   16.26
  -1   3   4  359.02   15.63
  -1   3   4  326.31   20.13
   0  -3  -4  852.95   37.26
   0  -3  -4  888.56   37.59
   0  -3  -4  951.01   32.42
   0  -3  -4  934.72   31.45
   0  -3  -4  939.98   34.73
   0  -3  -4 1029.56   33.29
   0   3   4  985.03   37.45
   0   3   4  907.58   31.31
   0   3   4  957.40   33.23
   0   3   4  964.09   33.89
   0   3   4  928.06   34.43
   0   3   4  914.43   37.23
  -1  -3  -4 2017.42   67.08
  -1  -3  -4 2007.79   64.49
  -1  -3  -4 2066.27   70.55
  -1  -3  -4 2087.19   70.61
  -1  -3  -4 2103.32   67.07
  -1  -3  -4 2131.90   68.00
   1   3   4 2001.15   66.98
   1   3   4 2093.21   67.44
   1   3   4 2063.36   66.83
   1   3   4 2157.67   64.95
   1   3   4 2077.30   70.49
   1   3   4 2103.90   64.53
   1   3   4 2186.72   71.59
  -2  -3  -4  116.99   11.41
  -2  -3  -4  108.82    9.39
  -2  -3  -4  101.69    8.49
  -2  -3  -4  120.81   11.34
  -2  -3  -4  125.21    7.19
  -2  -3  -4  109.41    7.38
  -2  -3  -4  123.19    8.89
   2   3   4  115.34    7.88
   2   3   4  110.97   11.51
   2   3   4   98.88    7.01
   2   3   4  105.38   10.17
   2   3   4  129.95    8.10
   2   3   4  118.78    7.79
  -3  -3  -4 4185.01  125.71
  -3  -3  -4 4090.28  123.66
  -3  -3  -4 3901.86  123.47
  -3  -3  -4 3788.28  123.20
  -3  -3  -4 4031.05  125.60
  -3  -3  -4 3989.28  125.48
  -3  -3  -4 4017.69  123.24
  -3  -3  -4 4037.56  124.93
   3   3   4 3953.05  120.44
   3   3   4 4094.11  124.93
   3   3   4 4050.59  127.49
   3   3   4 3854.83  120.43
   3   3   4 4121.13  125.55
   3   3   4 3985.03  125.35
   3   3   4 4014.45  123.91
  -4  -3  -4   28.51    5.76
  -4  -3  -4   30.65    7.08
  -4  -3  -4   27.75    5.74
  -4  -3  -4   29.74    6.28
  -4  -3  -4   24.35    7.50
   4   3   4   15.02    6.66
   4   3   4   26.83    6.68
  -5  -3  -4  515.44   21.16
  -5  -3  -4  531.49   20.68
  -5  -3  -4  541.07   24.88
  -5  -3  -4  491.65   20.15
  -5  -3  -4  491.88   23.40
  -5  -3  -4  506.78   20.33
   5   3   4  534.54   26.29
   5   3   4  492.80   20.11
   5   3   4  495.50   24.36
  -6  -3  -4  280.95   19.29
  -6  -3  -4  282.41   18.72
   6   3   4  283.48   18.84
   6   3   4  269.13   19.65
   6   3   4  279.49   20.23
  -7  -3  -4   30.39   11.73
  -7  -3  -4   55.75   12.50
   7   3   4   57.07   13.02
   7   3   4   40.28   14.56
   5  -4  -4  112.85   17.69
   5  -4  -4  129.26   18.59
  -5   4   4  162.43   13.50
  -5   4   4  113.07   16.00
  -5   4   4  113.80   17.47
  -5   4   4  156.43   22.10
   4  -4  -4  685.05   30.98
   4  -4  -4  655.20   32.29
   4  -4  -4  599.18   39.56
  -4   4   4  668.04   32.59
  -4   4   4  674.20   26.35
  -4   4   4  647.01   36.53
  -4   4   4  700.15   31.36
   3  -4  -4  199.66   16.49
   3  -4  -4  150.17   19.83
   3  -4  -4  173.31   13.50
  -3   4   4  186.57   15.11
  -3   4   4  186.63   11.42
  -3   4   4  174.06   15.48
  -3   4   4  190.07   20.18
   2  -4  -4  151.95   11.57
   2  -4  -4  120.03   16.86
   2  -4  -4  147.58   15.22
  -2   4   4  148.81   16.89
  -2   4   4  144.55    9.68
  -2   4   4  162.91   12.61
  -2   4   4  131.00   13.26
   1  -4  -4  557.03   29.92
   1  -4  -4  568.43   23.11
   1  -4  -4  557.87   25.61
  -1   4   4  537.87   28.13
  -1   4   4  542.34   24.09
  -1   4   4  563.28   22.74
   0  -4  -4 1735.86   60.72
   0  -4  -4 1915.32   62.31
   0  -4  -4 1846.29   61.75
   0  -4  -4 1895.27   68.46
   0  -4  -4 1951.85   64.49
   0   4   4 1901.37   67.65
   0   4   4 1910.91   57.93
   0   4   4 1985.30   61.56
   0   4   4 1924.31   63.22
  -1  -4  -4   25.45    6.63
  -1  -4  -4   30.63    8.97
  -1  -4  -4   20.50    6.83
  -1  -4  -4   17.46    8.28
  -1  -4  -4   25.79    4.82
   1   4   4   19.38    6.51
   1   4   4   18.41    6.68
   1   4   4   26.14    5.69
   1   4   4   21.99    4.34
   1   4   4   23.37    3.40
  -2  -4  -4 1332.63   44.46
  -2  -4  -4 1400.38   51.62
  -2  -4  -4 1419.83   50.95
  -2  -4  -4 1430.15   47.92
  -2  -4  -4 1367.45   47.99
  -2  -4  -4 1323.48   45.04
   2   4   4 1378.90   44.73
   2   4   4 1302.66   46.33
   2   4   4 1373.08   46.11
   2   4   4 1420.45   45.80
   2   4   4 1398.02   50.63
  -3  -4  -4  946.85   35.73
  -3  -4  -4  936.33   33.31
  -3  -4  -4  932.27   37.80
  -3  -4  -4 1027.70   38.55
  -3  -4  -4 1006.77   35.80
  -3  -4  -4 1008.99   38.14
  -3  -4  -4  897.04   33.91
   3   4   4  948.14   32.70
   3   4   4  935.07   32.73
   3   4   4 1007.56   36.01
   3   4   4  991.69   35.27
   3   4   4  985.16   37.63
  -4  -4  -4 1581.80   53.62
  -4  -4  -4 1525.42   52.43
  -4  -4  -4 1534.15   51.19
  -4  -4  -4 1451.78   53.13
   4   4   4 1511.42   52.41
   4   4   4 1480.50   53.46
   4   4   4 1415.83   52.54
  -5  -4  -4   58.45    8.70
  -5  -4  -4   65.12    9.41
  -5  -4  -4   79.71   12.16
  -5  -4  -4   55.69    9.91
   5   4   4   48.53   10.59
   5   4   4   54.58    9.69
  -6  -4  -4  236.17   18.75
  -6  -4  -4  218.39   14.80
  -6  -4  -4  260.78   18.56
   6   4   4  179.45   18.78
   6   4   4  208.43   17.88
  -7  -4  -4  149.90   15.98
  -7  -4  -4  220.87   19.43
   7   4   4  154.15   19.89
   5  -5  -4  314.07   28.47
   5  -5  -4  301.36   26.93
  -5   5   4  296.50   31.11
  -5   5   4  281.13   24.46
  -5   5   4  297.85   26.20
   4  -5  -4  152.33   17.18
   4  -5  -4   93.72   15.03
  -4   5   4  132.05   16.46
  -4   5   4  130.26   19.73
  -4   5   4  138.19   16.17
  -4   5   4  127.63   10.77
   3  -5  -4  638.41   40.92
   3  -5  -4  681.45   28.45
   3  -5  -4  616.63   29.72
   3  -5  -4  656.55   31.97
  -3   5   4  667.55   30.76
  -3   5   4  652.31   30.63
  -3   5   4  666.38   36.89
  -3   5   4  660.15   25.41
   2  -5  -4   35.59   15.96
   2  -5  -4   27.37   10.27
   2  -5  -4   27.91    9.17
  -2   5   4   42.54   12.01
  -2   5   4   29.98    7.86
  -2   5   4   33.03    8.61
   1  -5  -4   25.34    9.18
   1  -5  -4   32.94   12.25
   1  -5  -4   34.60    8.70
  -1   5   4   45.42    7.36
  -1   5   4   36.62    8.06
  -1   5   4   19.76    8.41
   0  -5  -4  660.43   27.19
   0  -5  -4  678.83   29.48
   0  -5  -4  632.81   33.72
   0   5   4  648.95   32.17
   0   5   4  651.40   25.63
   0   5   4  663.91   27.75
  -1  -5  -4  143.24   12.22
  -1  -5  -4  101.70   14.18
  -1  -5  -4  133.36   10.50
  -1  -5  -4  156.47   13.36
   1   5   4  137.88    9.63
   1   5   4  136.19   14.90
   1   5   4  151.16   11.15
  -2  -5  -4 1009.59   37.50
  -2  -5  -4  944.92   33.55
  -2  -5  -4  950.46   41.43
  -2  -5  -4 1026.66   41.98
  -2  -5  -4 1044.31   42.46
  -2  -5  -4 1003.21   38.76
  -2  -5  -4  985.61   35.47
   2   5   4 1023.63   36.03
   2   5   4 1036.63   36.71
   2   5   4 1041.27   41.88
  -3  -5  -4  190.92   17.98
  -3  -5  -4  206.29   11.68
  -3  -5  -4  237.77   18.42
  -3  -5  -4  200.09   14.57
  -3  -5  -4  217.08   18.49
  -3  -5  -4  218.51   15.32
   3   5   4  203.15   12.12
   3   5   4  214.96   16.95
   3   5   4  227.39   12.93
   3   5   4  206.14   13.10
  -4  -5  -4 2793.13   89.74
  -4  -5  -4 2823.97   89.51
  -4  -5  -4 2848.26   92.79
  -4  -5  -4 2674.86   92.51
   4   5   4 2694.97   84.93
   4   5   4 2741.46   84.80
   4   5   4 2625.48   90.56
   4   5   4 2751.94   89.52
   4   5   4 2662.83   91.85
  -5  -5  -4   16.82    9.03
  -5  -5  -4   12.75    8.22
  -5  -5  -4   10.79    7.85
  -5  -5  -4    9.49    7.95
   5   5   4   16.31    9.23
   5   5   4    7.44    7.68
  -6  -5  -4  132.05   15.19
  -6  -5  -4  111.29   14.34
  -6  -5  -4  146.29   14.81
   6   5   4   92.45   15.74
   6   5   4  134.72   15.15
  -7  -5  -4   66.67   20.77
  -7  -5  -4   93.92   15.35
   7   5   4   82.63   18.95
   4  -6  -4   26.57   14.46
   4  -6  -4   15.46   14.10
  -4   6   4   32.27   17.44
  -4   6   4   26.13   12.60
  -4   6   4   22.30   12.13
   3  -6  -4  468.65   38.45
   3  -6  -4  495.14   26.51
   3  -6  -4  495.17   26.07
   3  -6  -4  472.60   28.52
  -3   6   4  501.01   27.16
  -3   6   4  475.84   26.98
  -3   6   4  499.28   33.71
   2  -6  -4   44.15   12.18
   2  -6  -4   51.97   17.40
   2  -6  -4   48.80   10.23
   2  -6  -4   54.12   10.21
  -2   6   4   39.69    9.21
  -2   6   4   58.24   11.63
  -2   6   4   39.61   12.56
   1  -6  -4  237.24   16.69
   1  -6  -4  263.59   27.37
   1  -6  -4  255.32   21.22
  -1   6   4  228.54   21.44
  -1   6   4  258.04   17.54
  -1   6   4  256.98   16.02
   0  -6  -4  113.40   12.58
   0  -6  -4   85.36   12.70
   0  -6  -4   65.21   14.81
   0   6   4  107.88   10.33
   0   6   4  149.63   18.48
   0   6   4  118.24   12.53
  -1  -6  -4  465.57   29.83
  -1  -6  -4  492.38   24.68
  -1  -6  -4  428.45   22.68
  -1  -6  -4  453.48   29.49
   1   6   4  476.69   27.52
   1   6   4  469.19   21.26
   1   6   4  463.47   22.59
  -2  -6  -4  236.03   17.10
  -2  -6  -4  236.02   22.38
  -2  -6  -4  219.85   11.26
  -2  -6  -4  228.76   21.10
  -2  -6  -4  212.89   10.46
  -2  -6  -4  226.82   17.28
   2   6   4  241.83   14.50
   2   6   4  233.78   14.57
   2   6   4  194.85   19.35
  -3  -6  -4  256.02   17.62
  -3  -6  -4  275.38   13.12
  -3  -6  -4  276.94   22.42
  -3  -6  -4  238.55   22.53
  -3  -6  -4  287.27   18.64
   3   6   4  276.98   15.23
   3   6   4  275.34   15.67
   3   6   4  258.84   20.77
  -4  -6  -4   32.40   10.69
  -4  -6  -4   34.26   10.59
  -4  -6  -4   35.23    9.99
   4   6   4   27.29    7.11
   4   6   4   19.52    7.53
   4   6   4   29.32   11.02
   4   6   4   21.78    8.86
  -5  -6  -4   44.67   11.99
  -5  -6  -4   40.22   10.99
  -5  -6  -4   33.29   10.14
  -5  -6  -4   51.70   11.81
   5   6   4   44.54   12.73
   5   6   4   45.66    9.98
  -6  -6  -4   41.39   11.95
  -6  -6  -4   56.35   12.27
  -6  -6  -4   35.88   12.06
   6   6   4   34.48   13.36
   6   6   4   42.37   11.28
  -7  -6  -4   62.87   15.03
  -7  -6  -4   58.07   13.16
   7   6   4   48.43   18.56
   4  -7  -4  216.54   22.39
  -4   7   4  195.32   23.15
  -4   7   4  240.70   23.93
  -4   7   4  287.54   32.58
   3  -7  -4  103.68   17.91
   3  -7  -4  114.00   25.18
   3  -7  -4  140.17   17.32
   3  -7  -4  114.86   16.28
  -3   7   4  139.56   19.09
  -3   7   4  162.07   25.29
  -3   7   4  111.66   14.84
   2  -7  -4  222.58   19.46
   2  -7  -4  206.59   17.61
   2  -7  -4  162.23   24.84
   2  -7  -4  219.18   21.36
  -2   7   4  253.49   18.38
  -2   7   4  175.40   22.05
  -2   7   4  237.70   21.56
   1  -7  -4   68.06    9.64
   1  -7  -4  104.99   13.91
   1  -7  -4   74.35   15.02
   1  -7  -4   83.31   19.34
  -1   7   4  105.65   14.32
  -1   7   4  101.41   18.86
  -1   7   4  102.89   12.15
   0  -7  -4   99.24   18.65
   0  -7  -4  115.88   16.98
   0  -7  -4  130.80   20.52
   0  -7  -4  176.66   16.71
   0   7   4  163.17   13.12
   0   7   4  161.04   19.41
   0   7   4  194.39   17.94
  -1  -7  -4  434.05   31.28
  -1  -7  -4  401.84   31.55
  -1  -7  -4  453.97   26.38
  -1  -7  -4  446.08   25.09
   1   7   4  445.76   29.55
   1   7   4  474.95   22.22
   1   7   4  420.18   22.88
  -2  -7  -4    4.41   10.66
  -2  -7  -4   -1.06   10.71
  -2  -7  -4    2.72   12.60
  -2  -7  -4    3.13    9.49
   2   7   4    1.86    9.07
   2   7   4   -0.10    6.13
   2   7   4    2.76    6.78
  -3  -7  -4  702.44   33.57
  -3  -7  -4  742.77   38.56
  -3  -7  -4  771.44   32.29
   3   7   4  693.07   36.50
   3   7   4  705.61   30.27
   3   7   4  663.03   28.35
  -4  -7  -4  234.39   19.51
  -4  -7  -4  281.09   24.03
  -4  -7  -4  249.10   19.10
   4   7   4  266.24   19.22
   4   7   4  252.21   24.76
   4   7   4  277.23   16.97
   4   7   4  237.95   16.73
  -5  -7  -4  246.40   20.00
  -5  -7  -4  264.58   20.94
  -5  -7  -4  260.30   21.74
  -5  -7  -4  257.05   23.25
   5   7   4  276.98   21.75
   5   7   4  231.01   18.79
  -6  -7  -4   54.41   13.87
  -6  -7  -4   53.53   14.97
  -6  -7  -4   69.68   17.09
  -6  -7  -4   68.14   15.17
   6   7   4   68.32   17.66
   6   7   4   50.26   12.78
   3  -8  -4   22.28   14.79
   3  -8  -4   22.51   15.88
  -3   8   4   28.69   12.52
  -3   8   4   20.89   16.83
  -3   8   4   41.90   16.41
   2  -8  -4  261.51   21.88
   2  -8  -4  298.41   25.47
   2  -8  -4  323.80   35.33
   2  -8  -4  237.88   31.11
   2  -8  -4  266.87   25.16
  -2   8   4  302.24   23.79
  -2   8   4  306.72   21.91
  -2   8   4  336.77   32.72
   1  -8  -4   32.91   20.60
   1  -8  -4   21.03   18.40
   1  -8  -4   23.06   13.04
   1  -8  -4   24.66   13.86
  -1   8   4   31.63   13.20
  -1   8   4   13.31   13.20
  -1   8   4   16.39    8.75
   0  -8  -4  657.52   34.86
   0  -8  -4  686.54   43.64
   0  -8  -4  636.84   43.94
   0  -8  -4  607.64   31.46
   0   8   4  685.76   32.00
   0   8   4  649.67   30.24
   0   8   4  652.03   40.45
  -1  -8  -4  220.67   26.81
  -1  -8  -4  217.87   20.04
  -1  -8  -4  179.01   23.93
  -1  -8  -4  150.45   18.98
   1   8   4  198.19   22.98
   1   8   4  207.92   17.56
   1   8   4  181.78   15.15
  -2  -8  -4   99.76   15.73
  -2  -8  -4   97.38   18.55
  -2  -8  -4   79.18   14.70
   2   8   4  119.30   19.78
   2   8   4  108.83   10.79
   2   8   4  139.35   16.32
   2   8   4  104.71   13.57
  -3  -8  -4  107.38   17.54
  -3  -8  -4  101.08   16.13
  -3  -8  -4   93.28   18.20
   3   8   4  107.81   13.37
   3   8   4  130.76   20.88
   3   8   4  110.26   11.40
   3   8   4  110.19   14.33
  -4  -8  -4   15.24   12.46
  -4  -8  -4   14.97   10.10
  -4  -8  -4    5.89   11.88
  -4  -8  -4   14.05   12.55
   4   8   4   12.74    8.61
   4   8   4   16.09    9.64
  -5  -8  -4   40.56   12.54
  -5  -8  -4   40.00   14.68
  -5  -8  -4   55.92   15.56
  -5  -8  -4   43.38   14.57
   5   8   4   55.93   12.04
   5   8   4   53.84   16.01
  -6  -8  -4   63.91   16.76
  -6  -8  -4   71.04   17.96
  -6  -8  -4   58.49   17.55
  -6  -8  -4   48.33   15.19
   6   8   4   61.34   14.06
   6   8   4   73.38   18.83
   2  -9  -4   89.45   29.17
   2  -9  -4  111.27   21.76
   2  -9  -4  110.35   28.88
   2  -9  -4   98.86   20.29
  -2   9   4  123.69   17.25
  -2   9   4  152.73   22.55
  -2   9   4  142.87   27.46
   1  -9  -4   46.17   24.33
   1  -9  -4   32.65   16.47
   1  -9  -4   58.22   17.10
   1  -9  -4   37.86   21.76
  -1   9   4   61.42   16.99
  -1   9   4   40.13   11.75
  -1   9   4   64.75   21.33
   0  -9  -4  337.97   37.04
   0  -9  -4  344.57   39.42
   0  -9  -4  320.41   27.29
   0  -9  -4  343.67   26.31
   0   9   4  359.19   25.31
   0   9   4  309.26   21.83
   0   9   4  346.43   33.83
  -1  -9  -4   56.94   15.95
  -1  -9  -4   67.15   16.08
  -1  -9  -4   45.34   18.52
   1   9   4   41.00   16.23
   1   9   4   84.78   15.96
   1   9   4   81.69   12.84
  -2  -9  -4   79.30   16.31
  -2  -9  -4   56.73   15.50
  -2  -9  -4   60.01   18.27
   2   9   4   82.46   13.41
   2   9   4   72.69   17.90
   2   9   4   94.09   14.67
   2   9   4   92.87   11.11
  -3  -9  -4   81.78   17.34
  -3  -9  -4   78.09   19.56
  -3  -9  -4   78.11   16.70
   3   9   4  102.63   15.18
   3   9   4  102.99   15.62
   3   9   4   85.10   19.34
   3   9   4   90.57   11.94
  -4  -9  -4  352.04   24.47
  -4  -9  -4  292.32   25.80
  -4  -9  -4  330.94   27.92
  -4  -9  -4  339.89   31.41
   4   9   4  340.24   21.41
   4   9   4  332.65   24.41
  -5  -9  -4    3.89   14.19
  -5  -9  -4    3.75   17.15
  -5  -9  -4    2.99   12.44
  -5  -9  -4    0.15   15.53
   5   9   4    4.97   10.58
   5   9   4    6.71   15.92
   1 -10  -4  232.06   25.65
   1 -10  -4  163.84   26.20
   1 -10  -4  178.59   30.68
   1 -10  -4  161.35   31.87
  -1  10   4  210.52   22.22
  -1  10   4  221.82   24.92
  -1  10   4  215.43   30.35
   0 -10  -4   16.06   22.43
   0 -10  -4   12.07   16.23
   0 -10  -4   18.95   19.16
   0  10   4   22.05   20.08
   0  10   4   20.35   12.34
   0  10   4   13.51   14.36
  -1 -10  -4  271.07   29.10
  -1 -10  -4  334.61   28.62
  -1 -10  -4  272.88   33.61
   1  10   4  297.94   25.14
   1  10   4  323.44   36.33
   1  10   4  343.96   23.48
  -2 -10  -4    4.62   17.36
  -2 -10  -4    0.57   17.41
  -2 -10  -4   -2.30   17.27
   2  10   4    2.76   10.56
   2  10   4   -3.39   16.43
   2  10   4   -0.22   12.22
   2  10   4   -2.92    8.31
  -3 -10  -4    2.65   14.65
  -3 -10  -4   14.92   15.97
  -3 -10  -4   13.28   17.09
  -3 -10  -4   -0.84   12.33
   3  10   4    9.71   11.93
   3  10   4    4.50   11.02
   3  10   4    7.41   10.54
   3  10   4    4.48   18.56
  -4 -10  -4   80.62   19.41
  -4 -10  -4   77.80   21.85
  -4 -10  -4  101.48   21.08
  -4 -10  -4   98.24   16.77
   4  10   4   89.90   17.28
   1  10  -5   86.56   21.21
   1  10  -5   80.43   18.13
   1  10  -5   86.94   28.36
  -1 -10   5   66.97   20.76
  -1 -10   5   50.28   15.64
   0  10  -5    4.88   21.08
   0  10  -5   10.84   12.36
   0  10  -5   29.03   20.54
   0 -10   5   18.87   17.66
   0 -10   5    9.75   13.62
  -1  10  -5  100.73   28.28
  -1  10  -5  141.88   20.41
  -1  10  -5  203.56   27.00
   1 -10   5  124.88   18.06
   1 -10   5  129.59   25.76
   3   9  -5   63.18   28.58
   3   9  -5   69.04   19.36
   3   9  -5   75.22   15.70
  -3  -9   5   64.58   12.15
  -3  -9   5   75.85   17.18
  -3  -9   5   57.70   17.80
   2   9  -5   72.82   26.71
   2   9  -5   31.10   18.94
  -2  -9   5   23.89   15.74
  -2  -9   5   42.98   14.61
   1   9  -5   -0.61   17.45
   1   9  -5   -2.07   11.67
   1   9  -5    2.73   15.17
  -1  -9   5    2.66   13.12
  -1  -9   5    1.31   11.21
   0   9  -5   65.35   20.56
   0   9  -5  107.86   17.64
   0   9  -5   83.78   18.81
   0  -9   5   85.88   20.52
   0  -9   5   79.18   15.74
  -1   9  -5   39.31   20.11
  -1   9  -5   29.11   13.09
  -1   9  -5   26.51   16.55
   1  -9   5   30.77   12.57
   1  -9   5   24.44   16.23
   1  -9   5   27.45   10.76
  -2   9  -5  144.48   21.63
  -2   9  -5  154.92   20.16
  -2   9  -5  147.77   27.54
   2  -9   5  108.05   16.47
   2  -9   5   92.56   14.84
  -3   9  -5    2.92   21.00
  -3   9  -5    3.75   18.95
  -3   9  -5    0.60   14.07
   3  -9   5    3.33   13.95
   4   8  -5   99.02   30.94
   4   8  -5  113.20   21.86
   4   8  -5   72.91   15.54
  -4  -8   5   95.94   17.81
  -4  -8   5   80.97   13.48
  -4  -8   5   88.00   19.85
   3   8  -5   61.60   24.64
   3   8  -5  110.49   16.00
   3   8  -5   89.58   19.47
  -3  -8   5   98.58   20.23
  -3  -8   5   91.61   17.69
  -3  -8   5   90.29   12.27
   2   8  -5   -0.05   13.44
   2   8  -5    5.29   19.39
  -2  -8   5   -3.26    9.33
  -2  -8   5    0.32    7.27
  -2  -8   5    4.98   10.99
   1   8  -5  338.59   27.55
   1   8  -5  394.83   35.28
   1   8  -5  321.42   24.45
  -1  -8   5  333.29   16.96
  -1  -8   5  341.52   29.79
  -1  -8   5  321.28   24.52
   0   8  -5   93.68   19.86
   0   8  -5   95.59   14.90
   0   8  -5  110.31   17.77
   0  -8   5   77.99   13.86
   0  -8   5   94.42   10.40
   0  -8   5   69.65   15.93
  -1   8  -5   23.36   16.28
  -1   8  -5   19.48   14.71
  -1   8  -5   31.94   11.80
   1  -8   5   15.34    9.01
   1  -8   5   34.69    8.99
   1  -8   5    6.01   12.37
  -2   8  -5  111.00   19.27
  -2   8  -5   74.35   19.87
  -2   8  -5   84.93   15.12
   2  -8   5   76.64   13.20
   2  -8   5   91.81   12.85
   2  -8   5   43.55   15.27
  -3   8  -5   66.00   14.50
  -3   8  -5   38.13   18.50
  -3   8  -5   42.69   15.79
   3  -8   5   51.72   14.32
   3  -8   5   29.57   10.77
  -4   8  -5   24.38   16.57
  -4   8  -5   34.16   19.86
  -4   8  -5   32.69   15.58
   4  -8   5   22.54   14.17
   5   7  -5  149.50   23.71
   5   7  -5  133.41   22.19
  -5  -7   5  121.05   15.73
  -5  -7   5  145.19   24.07
  -5  -7   5  135.07   20.67
   4   7  -5  132.86   26.15
   4   7  -5  182.85   18.34
   4   7  -5  198.73   22.50
  -4  -7   5  183.41   16.40
  -4  -7   5  196.56   25.34
  -4  -7   5  229.30   23.07
   3   7  -5  185.47   16.21
   3   7  -5  194.18   28.91
   3   7  -5  134.62   19.77
  -3  -7   5  137.83   13.37
  -3  -7   5  116.61   16.53
  -3  -7   5  163.24   22.46
   2   7  -5   18.37   12.58
   2   7  -5   14.85   17.53
  -2  -7   5    3.72    8.83
  -2  -7   5   11.78    6.94
  -2  -7   5   14.61    9.61
   1   7  -5  581.09   30.42
   1   7  -5  573.88   31.05
   1   7  -5  624.59   40.33
  -1  -7   5  600.77   29.97
  -1  -7   5  607.25   23.77
  -1  -7   5  597.88   35.82
  -1  -7   5  579.85   22.05
   0   7  -5   28.65   11.94
   0   7  -5   24.50    9.67
   0   7  -5   20.37   14.02
   0  -7   5   40.60    5.81
   0  -7   5   48.06   10.57
   0  -7   5   39.14   11.89
   0  -7   5   41.50    7.18
  -1   7  -5   85.83   12.54
  -1   7  -5   95.23   15.43
  -1   7  -5   88.41   18.36
   1  -7   5   85.56   12.20
   1  -7   5   98.93   10.98
   1  -7   5   81.83   15.56
  -2   7  -5   30.84   15.68
  -2   7  -5   28.82   12.31
  -2   7  -5   20.22    9.26
   2  -7   5   19.30    8.93
   2  -7   5   23.70   12.49
   2  -7   5   32.36    9.61
   2  -7   5   33.44    7.26
  -3   7  -5   74.98   14.19
  -3   7  -5   73.46   17.88
  -3   7  -5   71.07   15.67
   3  -7   5   55.92    8.60
   3  -7   5   50.78   11.85
   3  -7   5   53.93    9.89
  -4   7  -5   50.50   14.58
  -4   7  -5   60.89   18.30
  -4   7  -5   34.88   13.06
   4  -7   5   36.16   13.27
  -5   7  -5   -1.67   15.69
  -5   7  -5    2.16   16.92
   5  -7   5    5.95   15.23
   5   6  -5  143.29   22.16
   5   6  -5  161.52   19.16
   5   6  -5  119.85   20.59
  -5  -6   5  141.22   16.20
  -5  -6   5  159.34   22.22
  -5  -6   5  174.16   21.76
   4   6  -5  121.28   25.35
   4   6  -5   97.86   13.38
   4   6  -5   80.15   15.51
  -4  -6   5   78.66   11.42
  -4  -6   5   69.73   15.24
  -4  -6   5  103.31   15.47
   3   6  -5  114.59   22.69
   3   6  -5  109.69   12.88
   3   6  -5   97.53   15.50
  -3  -6   5  111.33   14.90
  -3  -6   5  151.82   21.22
  -3  -6   5  123.14   11.99
   2   6  -5  978.10   42.34
   2   6  -5 1025.35   51.44
  -2  -6   5  979.97   36.68
  -2  -6   5 1035.83   48.10
  -2  -6   5 1041.45   42.62
   1   6  -5   22.41   10.58
   1   6  -5   26.66   14.26
   1   6  -5   11.78    7.64
  -1  -6   5   26.65    5.83
  -1  -6   5   25.37    8.59
  -1  -6   5   36.23   12.66
  -1  -6   5   27.90    4.46
   0   6  -5  109.49   17.65
   0   6  -5  136.66   15.25
   0   6  -5  130.17   13.85
   0   6  -5  113.21    9.20
   0  -6   5  120.06    9.37
   0  -6   5   81.99   13.56
   0  -6   5  117.22    8.36
   0  -6   5  104.76   12.45
  -1   6  -5  167.92   16.43
  -1   6  -5  201.08   16.37
  -1   6  -5  195.02   22.16
   1  -6   5  182.21   12.86
   1  -6   5  167.84   14.05
  -2   6  -5   37.24   11.77
  -2   6  -5   17.56   13.18
  -2   6  -5   25.57    9.55
   2  -6   5   24.61    6.33
   2  -6   5   29.41    8.31
   2  -6   5   25.28    7.73
   2  -6   5   11.50    9.63
  -3   6  -5   -1.36    8.59
  -3   6  -5   -1.58   11.98
  -3   6  -5   -1.37    9.09
   3  -6   5   -0.20    6.35
   3  -6   5   -5.29    8.34
   3  -6   5   -0.23    5.83
   3  -6   5    0.83    9.44
  -4   6  -5   20.48   11.69
  -4   6  -5   23.96   12.26
  -4   6  -5   27.19   13.97
   4  -6   5   28.11    8.49
   4  -6   5   23.96   11.36
  -5   6  -5   79.12   18.21
  -5   6  -5   81.13   17.06
   5  -6   5   47.66   18.80
   5  -6   5   52.92   15.47
  -6   6  -5   48.75   18.03
   5   5  -5  251.68   23.51
   5   5  -5  215.92   21.29
   5   5  -5  204.32   19.09
   5   5  -5  156.13   17.83
  -5  -5   5  250.80   26.35
  -5  -5   5  197.84   17.39
  -5  -5   5  216.67   20.63
   4   5  -5  193.25   16.39
   4   5  -5  126.02   22.61
   4   5  -5  194.38   20.30
   4   5  -5  196.92   19.33
  -4  -5   5  187.18   17.51
  -4  -5   5  196.48   21.34
  -4  -5   5  192.91   15.63
   3   5  -5   85.66   14.04
   3   5  -5   93.16   19.14
   3   5  -5   95.26   11.50
  -3  -5   5  110.26   10.91
  -3  -5   5  107.45   14.07
  -3  -5   5  128.30   18.94
   2   5  -5 1176.65   54.22
   2   5  -5 1305.59   47.97
  -2  -5   5 1253.64   47.40
  -2  -5   5 1248.73   42.73
  -2  -5   5 1234.87   52.30
  -2  -5   5 1153.85   39.49
   1   5  -5   89.19   12.42
   1   5  -5   87.24   11.52
   1   5  -5   71.07   15.04
  -1  -5   5   59.08   11.82
  -1  -5   5   72.32   10.85
  -1  -5   5   83.62    7.71
   0   5  -5  150.30   14.42
   0   5  -5  141.29   12.09
   0   5  -5  143.53   18.24
   0   5  -5  121.80   10.13
   0  -5   5  160.05    8.81
   0  -5   5  157.05   12.99
   0  -5   5  147.73    8.73
   0  -5   5  109.19   14.28
  -1   5  -5   75.90   14.45
  -1   5  -5   51.02    9.72
  -1   5  -5   53.98    5.55
  -1   5  -5   75.70   10.19
   1  -5   5   66.49    9.28
   1  -5   5   57.79    4.67
   1  -5   5   40.45    9.78
   1  -5   5   64.61    7.49
  -2   5  -5  230.03   22.14
  -2   5  -5  229.99   10.57
  -2   5  -5  241.62   21.54
  -2   5  -5  240.69   16.42
  -2   5  -5  239.08   16.47
   2  -5   5  267.27   13.07
   2  -5   5  236.93   15.04
   2  -5   5  262.89   14.89
   2  -5   5  251.02   19.23
  -3   5  -5   95.36   12.22
  -3   5  -5   81.71   11.89
  -3   5  -5   71.85   14.01
  -3   5  -5   72.20   13.83
  -3   5  -5   72.73   14.02
   3  -5   5   78.43    8.53
   3  -5   5   63.07   11.60
   3  -5   5   82.53   11.07
  -4   5  -5  106.85   14.88
  -4   5  -5  101.26   15.49
  -4   5  -5  108.01   13.41
   4  -5   5  113.66   11.28
   4  -5   5  115.93   14.93
  -5   5  -5  228.82   23.64
  -5   5  -5  207.19   21.15
  -5   5  -5  216.88   19.55
   5  -5   5  175.39   18.71
   5  -5   5  207.73   17.47
  -6   5  -5   31.29   15.85
  -6   5  -5   38.42   14.16
   6  -5   5   41.39   16.15
   6   4  -5   41.01   14.42
  -6  -4   5   46.05   11.86
  -6  -4   5   44.67   17.41
  -6  -4   5   35.60   15.16
   5   4  -5  268.10   20.34
   5   4  -5  245.48   22.23
   5   4  -5  229.39   19.71
  -5  -4   5  241.48   24.25
  -5  -4   5  239.02   20.78
  -5  -4   5  217.48   17.74
   4   4  -5   13.16   11.94
   4   4  -5   13.29   12.59
   4   4  -5   19.13    9.90
   4   4  -5    4.75   16.41
  -4  -4   5   21.24   11.10
  -4  -4   5   18.10    9.50
  -4  -4   5    9.71    7.29
   3   4  -5   14.16    7.27
   3   4  -5    9.58   12.62
   3   4  -5    5.82   10.15
  -3  -4   5   13.85    6.47
  -3  -4   5    9.21    7.56
  -3  -4   5    7.45    7.57
   2   4  -5 1034.74   44.76
   2   4  -5  892.21   33.51
   2   4  -5 1006.06   34.27
   2   4  -5  991.12   38.98
  -2  -4   5 1024.47   39.24
  -2  -4   5  932.58   32.98
  -2  -4   5 1021.13   35.27
  -2  -4   5  993.40   43.02
   1   4  -5  106.59   15.57
   1   4  -5  113.70   12.70
  -1  -4   5  104.09    8.38
  -1  -4   5  101.72   11.20
  -1  -4   5   89.16   12.64
   0   4  -5   45.94    9.09
   0   4  -5   52.19    5.92
   0   4  -5   60.71   12.06
   0   4  -5   41.85    7.18
   0  -4   5   57.42    5.48
   0  -4   5   56.06    8.40
   0  -4   5   62.10   10.97
   0  -4   5   51.49    5.03
  -1   4  -5  412.10   19.16
  -1   4  -5  403.28   24.55
  -1   4  -5  408.27   19.96
  -1   4  -5  399.44   24.52
  -1   4  -5  394.49   15.25
   1  -4   5  421.68   17.37
   1  -4   5  385.92   23.19
   1  -4   5  418.56   19.25
   1  -4   5  395.03   14.83
  -2   4  -5  320.01   21.52
  -2   4  -5  290.91   12.66
  -2   4  -5  315.56   11.68
  -2   4  -5  330.43   21.56
  -2   4  -5  336.24   17.78
  -2   4  -5  345.47   17.05
   2  -4   5  305.25   15.62
   2  -4   5  319.29   16.29
   2  -4   5  313.65   14.48
   2  -4   5  323.70   15.65
   2  -4   5  294.23   19.24
  -3   4  -5  310.34   17.72
  -3   4  -5  253.72   19.00
  -3   4  -5  260.01   15.52
  -3   4  -5  301.57   20.17
  -3   4  -5  238.69   19.05
  -3   4  -5  256.35   14.01
  -3   4  -5  259.21    9.79
   3  -4   5  293.95   14.84
   3  -4   5  262.77   12.04
   3  -4   5  307.32   17.27
   3  -4   5  273.71   18.12
   3  -4   5  262.73   12.54
  -4   4  -5  414.16   22.48
  -4   4  -5  408.34   23.71
  -4   4  -5  355.27   13.32
  -4   4  -5  366.13   19.04
   4  -4   5  378.48   22.27
   4  -4   5  351.65   18.37
  -5   4  -5  117.95   13.86
  -5   4  -5  115.60   12.42
  -5   4  -5  106.17   15.30
   5  -4   5  104.08   14.78
   5  -4   5   93.06   11.41
  -6   4  -5   14.38   14.06
  -6   4  -5   36.21   15.16
   6  -4   5   25.88   14.46
   6   3  -5   98.14   17.06
  -6  -3   5   69.71   13.03
  -6  -3   5  104.22   19.69
  -6  -3   5   65.40   15.35
   5   3  -5   85.35   14.33
   5   3  -5  126.47   17.83
   5   3  -5  106.02   14.53
  -5  -3   5   86.95   16.38
  -5  -3   5   96.47   12.22
  -5  -3   5  104.03   14.88
   4   3  -5  752.84   30.34
   4   3  -5  761.51   34.31
   4   3  -5  729.67   33.51
   4   3  -5  719.66   41.59
  -4  -3   5  782.69   33.63
  -4  -3   5  765.31   38.13
  -4  -3   5  764.90   31.07
   3   3  -5  786.85   40.54
   3   3  -5  778.17   32.71
   3   3  -5  750.37   32.56
   3   3  -5  730.30   24.91
   3   3  -5  780.87   29.18
  -3  -3   5  759.78   29.80
  -3  -3   5  786.26   32.96
  -3  -3   5  813.16   37.23
   2   3  -5   45.46   11.26
   2   3  -5   71.80    6.86
   2   3  -5   77.53   11.11
   2   3  -5   61.81    6.04
  -2  -3   5   55.07    6.90
  -2  -3   5   96.80   10.93
  -2  -3   5   77.64   11.98
   1   3  -5  961.24   34.34
   1   3  -5  979.96   42.14
   1   3  -5 1020.24   38.32
  -1  -3   5 1038.79   34.49
  -1  -3   5 1052.64   42.22
  -1  -3   5 1023.17   38.08
   0   3  -5  255.79   14.65
   0   3  -5  212.25   18.00
   0   3  -5  190.09   10.79
   0   3  -5  224.15   17.76
   0   3  -5  229.60   13.02
   0  -3   5  216.14   15.84
   0  -3   5  230.05   13.73
   0  -3   5  244.84   10.66
   0  -3   5  210.62   12.36
  -1   3  -5  310.35   12.68
  -1   3  -5  295.91   19.49
  -1   3  -5  328.35   15.19
  -1   3  -5  318.54   19.71
  -1   3  -5  342.78   16.63
  -1   3  -5  299.98   13.70
   1  -3   5  308.29   15.23
   1  -3   5  313.13   15.50
   1  -3   5  343.16   15.80
   1  -3   5  319.65   12.32
   1  -3   5  326.02   18.76
   1  -3   5  337.52   12.07
   1  -3   5  348.62   14.22
  -2   3  -5  739.32   27.66
  -2   3  -5  680.89   26.70
  -2   3  -5  748.04   31.50
  -2   3  -5  658.10   23.03
  -2   3  -5  678.23   29.94
   2  -3   5  732.72   25.67
   2  -3   5  722.88   25.54
   2  -3   5  695.49   26.59
   2  -3   5  676.31   29.06
   2  -3   5  679.56   25.26
   2  -3   5  705.37   24.41
  -3   3  -5   36.75    8.53
  -3   3  -5   42.94    4.24
  -3   3  -5   31.81    7.18
  -3   3  -5   38.93    6.65
  -3   3  -5   48.15    7.95
  -3   3  -5   33.27    8.37
  -3   3  -5   42.56    8.77
   3  -3   5   39.42    3.35
   3  -3   5   43.06    3.34
   3  -3   5   33.36    7.10
   3  -3   5   43.92    7.88
   3  -3   5   42.03    6.55
  -4   3  -5 1144.51   40.23
  -4   3  -5 1201.46   38.13
  -4   3  -5 1130.60   43.79
  -4   3  -5 1186.60   42.23
  -4   3  -5 1140.83   42.33
   4  -3   5 1152.35   41.52
   4  -3   5 1235.03   44.66
  -5   3  -5    5.54    7.32
  -5   3  -5   13.69   10.23
  -5   3  -5    1.53    5.58
  -5   3  -5    5.91    6.43
   5  -3   5    7.33    9.66
   5  -3   5    6.86    7.15
  -6   3  -5    3.87   12.07
   6  -3   5   18.42   13.01
  -7   3  -5   68.70   19.60
   7  -3   5   78.93   18.85
   6   2  -5   65.01   15.18
  -6  -2   5   85.80   16.01
  -6  -2   5   70.32   17.71
  -6  -2   5   78.84   13.44
   5   2  -5   83.42   13.25
   5   2  -5   47.86   13.45
  -5  -2   5   72.28   15.16
  -5  -2   5   55.78   10.13
  -5  -2   5   59.53   12.21
   4   2  -5  232.42   26.96
   4   2  -5  303.42   20.21
   4   2  -5  263.27   13.45
  -4  -2   5  280.18   18.35
  -4  -2   5  266.87   21.98
  -4  -2   5  287.61   16.73
   3   2  -5  350.98   13.41
   3   2  -5  363.97   26.73
   3   2  -5  364.48   16.71
   3   2  -5  376.23   21.15
   3   2  -5  340.62   21.13
  -3  -2   5  372.24   23.60
  -3  -2   5  335.01   17.03
  -3  -2   5  354.31   20.17
   2   2  -5  951.71   41.32
   2   2  -5  923.45   30.54
   2   2  -5  882.82   35.04
   2   2  -5  892.89   29.71
   2   2  -5  925.25   35.78
  -2  -2   5  926.81   35.13
  -2  -2   5  939.25   39.61
  -2  -2   5  834.29   31.95
   1   2  -5   47.27   10.52
   1   2  -5   51.53    8.85
   1   2  -5   54.20    4.36
  -1  -2   5   50.68    5.70
  -1  -2   5   40.96    6.62
  -1  -2   5   39.28    8.10
  -1  -2   5   57.76    7.80
   0   2  -5  275.23   11.12
   0   2  -5  293.54   18.89
   0   2  -5  305.90   13.85
   0   2  -5  289.26   18.82
   0   2  -5  289.46   15.25
   0   2  -5  273.40   12.47
   0  -2   5  277.93   14.40
   0  -2   5  285.56   17.19
   0  -2   5  312.35   12.43
   0  -2   5  295.94   14.51
   0  -2   5  301.06   13.36
  -1   2  -5  227.99   15.74
  -1   2  -5  230.20   10.57
  -1   2  -5  259.66   16.41
  -1   2  -5  278.47   14.10
  -1   2  -5  245.60   11.81
  -1   2  -5  228.10   13.22
  -1   2  -5  260.25   11.90
   1  -2   5  259.25   12.41
   1  -2   5  252.53   11.86
   1  -2   5  268.23   11.56
   1  -2   5  251.05   10.60
   1  -2   5  242.47   14.81
   1  -2   5  201.69   16.50
   1  -2   5  256.25   12.44
   1  -2   5  247.92   10.18
  -2   2  -5  142.22   12.48
  -2   2  -5  140.18    7.41
  -2   2  -5  141.07   12.25
  -2   2  -5  136.26   10.25
  -2   2  -5  144.86    9.41
  -2   2  -5  155.64    9.06
  -2   2  -5  137.63    9.84
  -2   2  -5  131.30    9.99
   2  -2   5  145.51    9.80
   2  -2   5  147.34    9.66
   2  -2   5  151.05    8.56
   2  -2   5  140.72   10.56
   2  -2   5  155.93    8.13
   2  -2   5  153.31    8.59
   2  -2   5  150.97    8.90
   2  -2   5  124.87   12.60
  -3   2  -5  535.27   24.27
  -3   2  -5  622.38   22.04
  -3   2  -5  611.08   24.50
  -3   2  -5  609.46   24.28
  -3   2  -5  563.41   22.04
  -3   2  -5  577.76   23.35
   3  -2   5  517.22   25.26
   3  -2   5  636.71   24.75
   3  -2   5  586.74   23.25
   3  -2   5  617.45   22.90
   3  -2   5  535.38   25.69
   3  -2   5  600.80   23.18
  -4   2  -5    1.08    4.85
  -4   2  -5    1.97    5.01
  -4   2  -5    4.12    5.28
  -4   2  -5    3.12    6.49
  -4   2  -5    0.42    4.32
   4  -2   5   -2.21    5.25
   4  -2   5    1.93    3.90
   4  -2   5    0.73    4.65
   4  -2   5    0.28    6.32
  -5   2  -5  152.38   10.22
  -5   2  -5  152.84   16.01
  -5   2  -5  175.82   12.00
   5  -2   5  175.16   14.32
   5  -2   5  149.30   15.03
  -6   2  -5    1.89   11.20
  -6   2  -5    0.47    7.59
   6  -2   5    2.30   11.27
  -7   2  -5   78.77   18.43
   7  -2   5   83.45   17.73
   6   1  -5  173.46   20.07
  -6  -1   5  180.90   23.12
  -6  -1   5  169.55   16.78
  -6  -1   5  145.44   19.62
   5   1  -5  330.83   22.92
   5   1  -5  298.98   21.84
  -5  -1   5  277.40   21.06
  -5  -1   5  315.58   25.53
  -5  -1   5  289.89   18.64
   4   1  -5   28.11    7.26
   4   1  -5   30.13   11.57
   4   1  -5   40.60   15.63
  -4  -1   5   27.65    9.28
  -4  -1   5   25.97   10.15
  -4  -1   5   32.20    7.51
   3   1  -5   57.58   11.19
   3   1  -5   56.92    6.35
   3   1  -5   49.91   12.97
  -3  -1   5   67.28   12.42
  -3  -1   5   66.14    8.28
  -3  -1   5   52.64    9.06
  -3  -1   5   50.17    6.58
   2   1  -5 1734.16   59.84
   2   1  -5 1745.89   59.95
   2   1  -5 1768.39   53.70
   2   1  -5 1756.36   65.14
  -2  -1   5 1641.36   54.33
  -2  -1   5 1753.16   63.32
  -2  -1   5 1775.15   59.74
  -2  -1   5 1798.63   56.90
   1   1  -5  125.36   14.29
   1   1  -5  117.55   10.87
   1   1  -5  110.08    7.67
   1   1  -5  115.05   10.49
  -1  -1   5  144.74    8.44
  -1  -1   5  125.41   13.25
  -1  -1   5  121.45    8.84
  -1  -1   5  116.42    9.52
  -1  -1   5  113.20   12.05
   0   1  -5  582.46   23.26
   0   1  -5  556.26   26.59
   0   1  -5  563.47   22.99
   0   1  -5  575.68   20.83
   0  -1   5  573.91   22.43
   0  -1   5  579.41   25.32
   0  -1   5  577.34   25.54
   0  -1   5  548.60   22.33
   0  -1   5  596.29   20.81
   0  -1   5  556.21   20.33
  -1   1  -5  558.08   19.07
  -1   1  -5  534.66   18.34
  -1   1  -5  543.49   23.73
  -1   1  -5  538.27   19.08
  -1   1  -5  520.96   19.92
  -1   1  -5  528.64   21.08
  -1   1  -5  528.10   21.22
  -1   1  -5  578.58   24.63
   1  -1   5  530.67   19.18
   1  -1   5  553.00   23.75
   1  -1   5  516.32   20.32
   1  -1   5  537.78   20.42
   1  -1   5  552.40   23.41
   1  -1   5  544.49   19.01
  -2   1  -5 1596.55   50.34
  -2   1  -5 1570.61   51.49
  -2   1  -5 1626.40   54.02
  -2   1  -5 1619.92   51.65
  -2   1  -5 1602.21   53.88
  -2   1  -5 1564.23   50.70
  -2   1  -5 1532.21   52.55
  -2   1  -5 1581.96   51.55
   2  -1   5 1620.09   52.41
   2  -1   5 1700.40   50.05
   2  -1   5 1591.91   49.89
   2  -1   5 1526.17   51.38
   2  -1   5 1639.38   53.91
   2  -1   5 1640.00   53.44
   2  -1   5 1604.76   51.58
   2  -1   5 1605.06   51.49
  -3   1  -5  421.02   16.05
  -3   1  -5  438.87   17.65
  -3   1  -5  423.13   17.82
  -3   1  -5  426.21   16.17
  -3   1  -5  458.89   18.35
   3  -1   5  415.45   17.80
   3  -1   5  400.42   17.73
   3  -1   5  398.69   16.56
   3  -1   5  392.74   17.16
   3  -1   5  409.62   18.94
  -4   1  -5   76.84    5.71
  -4   1  -5   69.24    6.19
  -4   1  -5   90.03   10.09
   4  -1   5   96.91   10.99
   4  -1   5   91.37    9.32
   4  -1   5   69.31    8.48
  -5   1  -5  260.95   14.73
  -5   1  -5  269.78   18.66
  -5   1  -5  260.09   10.73
  -5   1  -5  279.09   11.35
   5  -1   5  255.25   18.43
   5  -1   5  270.02   17.07
  -6   1  -5   54.18    9.34
  -6   1  -5   44.94   13.24
  -6   1  -5   40.02   11.39
   6  -1   5   68.41   13.23
  -7   1  -5  114.63   20.04
  -7   1  -5  114.52   13.65
  -7   1  -5  126.23   19.28
   7  -1   5  155.33   18.59
   7  -1   5  124.81   17.75
   6   0  -5  179.75   21.03
  -6   0   5  146.71   18.44
  -6   0   5  140.62   20.64
  -6   0   5  140.91   15.29
   5   0  -5  157.45   17.31
   5   0  -5  150.29   16.79
   5   0  -5  141.27   14.19
  -5   0   5  158.75   19.50
  -5   0   5  162.32   14.21
  -5   0   5  148.15   16.51
   4   0  -5   29.52   14.79
   4   0  -5   45.98    8.48
   4   0  -5   36.25   10.99
  -4   0   5   38.96    8.05
  -4   0   5   45.47    9.59
  -4   0   5   34.39   10.65
   3   0  -5  472.66   19.62
   3   0  -5  500.03   24.52
   3   0  -5  454.27   28.91
  -3   0   5  470.42   20.29
  -3   0   5  459.61   22.56
  -3   0   5  507.64   27.20
  -3   0   5  459.01   19.44
   2   0  -5  191.09   18.67
   2   0  -5  190.33   15.03
   2   0  -5  197.92    8.42
  -2   0   5  195.08    9.43
  -2   0   5  186.75   17.64
  -2   0   5  194.94   12.92
  -2   0   5  189.21   15.62
  -2   0   5  202.45   11.07
   1   0  -5   34.77    8.03
   1   0  -5   31.74    4.84
   1   0  -5   32.72    7.81
   1   0  -5   35.74    9.55
  -1   0   5   36.43    3.06
  -1   0   5   37.91    6.62
  -1   0   5   35.47    4.79
  -1   0   5   17.92    6.62
  -1   0   5   41.93    8.01
   0   0  -5  319.56   13.66
   0   0  -5  341.84   16.08
   0   0  -5  329.95   15.93
   0   0  -5  301.35   15.27
   0   0  -5  324.11   18.90
   0   0  -5  328.28   14.32
   0   0  -5  344.82   18.54
   0   0   5  344.01   12.84
   0   0   5  321.15   15.06
   0   0   5  336.14   15.02
   0   0   5  338.06   13.26
   0   0   5  305.47   17.58
   0   0   5  344.06   17.86
  -1   0  -5   65.32    7.02
  -1   0  -5   62.82    7.01
  -1   0  -5   68.87    5.68
  -1   0  -5   73.27    8.54
  -1   0  -5   86.15    9.70
  -1   0  -5   68.37    7.57
   1   0   5   61.80    5.88
   1   0   5   74.63    8.49
   1   0   5   71.79    3.81
   1   0   5   74.44    4.51
   1   0   5   73.07    6.53
   1   0   5   71.17    8.79
  -2   0  -5 3271.82   99.93
  -2   0  -5 3131.30   97.41
  -2   0  -5 3318.97   96.17
  -2   0  -5 3166.69   99.52
  -2   0  -5 3225.05   97.70
  -2   0  -5 2988.58   98.78
  -2   0  -5 3274.50   97.91
   2   0   5 3024.04   99.15
   2   0   5 3193.66   99.39
   2   0   5 3117.55   98.06
   2   0   5 3232.27   97.70
   2   0   5 3179.49   95.92
   2   0   5 3097.23   95.91
   2   0   5 3107.28   97.92
  -3   0  -5    2.06    3.20
  -3   0  -5    4.69    3.81
  -3   0  -5    1.16    3.10
  -3   0  -5    4.53    4.74
  -3   0  -5    3.25    5.35
  -3   0  -5    2.81    3.80
   3   0   5    1.60    3.79
   3   0   5    2.87    3.76
   3   0   5    0.63    4.51
   3   0   5    2.45    3.15
   3   0   5   -2.07    4.10
  -4   0  -5  306.88   11.15
  -4   0  -5  319.44   11.30
  -4   0  -5  334.28   17.91
  -4   0  -5  316.32   16.83
   4   0   5  313.81   17.24
   4   0   5  315.28   16.80
   4   0   5  314.97   16.07
   4   0   5  318.03   16.68
  -5   0  -5   26.26    9.71
  -5   0  -5   20.19    7.20
  -5   0  -5   23.64    9.33
   5   0   5   23.54    7.58
   5   0   5   22.37    8.43
   5   0   5   21.73    7.44
  -6   0  -5   50.93    9.87
  -6   0  -5   48.99   13.59
  -6   0  -5   56.26   12.27
   6   0   5   64.49   12.33
  -7   0  -5  231.86   19.70
  -7   0  -5  250.84   26.31
  -7   0  -5  224.69   20.61
   7   0   5  223.77   20.28
   6  -1  -5    3.34   14.36
  -6   1   5    7.60   13.91
  -6   1   5    0.31   14.22
  -6   1   5   15.62   10.67
  -6   1   5    4.21   14.35
   5  -1  -5  127.94   15.41
   5  -1  -5  177.68   18.66
   5  -1  -5  152.06   16.08
  -5   1   5  145.34   13.83
  -5   1   5  140.65   17.10
  -5   1   5  207.53   23.20
  -5   1   5  144.23   18.47
   4  -1  -5  202.36   15.39
   4  -1  -5  198.30   23.01
   4  -1  -5  217.18   18.87
  -4   1   5  237.38   20.96
  -4   1   5  227.36   14.74
  -4   1   5  202.88   16.40
   3  -1  -5  379.91   21.15
   3  -1  -5  326.53   25.77
  -3   1   5  363.44   19.87
  -3   1   5  400.60   17.81
  -3   1   5  410.65   24.59
   2  -1  -5  493.87   28.07
   2  -1  -5  522.16   18.27
   2  -1  -5  520.89   23.83
  -2   1   5  529.99   23.24
  -2   1   5  511.00   18.23
  -2   1   5  506.87   26.44
  -2   1   5  541.17   20.72
  -2   1   5  476.59   19.02
   1  -1  -5 1484.06   46.05
   1  -1  -5 1412.67   49.65
   1  -1  -5 1370.33   53.20
  -1   1   5 1400.99   49.06
  -1   1   5 1403.96   52.25
  -1   1   5 1379.24   45.81
  -1   1   5 1507.39   46.92
   0  -1  -5  643.54   27.95
   0  -1  -5  613.96   22.00
   0  -1  -5  625.45   22.71
   0  -1  -5  633.91   24.50
   0  -1  -5  580.85   24.11
   0  -1  -5  608.14   27.67
   0   1   5  583.48   22.25
   0   1   5  636.16   26.84
   0   1   5  560.08   26.17
   0   1   5  619.09   24.09
   0   1   5  616.09   21.99
   0   1   5  595.65   23.63
   0   1   5  611.40   23.60
  -1  -1  -5 4471.20  134.43
  -1  -1  -5 4320.99  131.02
  -1  -1  -5 4207.22  133.51
  -1  -1  -5 4155.73  130.50
  -1  -1  -5 4338.96  130.98
  -1  -1  -5 4330.30  131.00
  -1  -1  -5 4170.23  129.10
   1   1   5 4365.61  130.24
   1   1   5 4187.00  133.06
   1   1   5 4141.91  130.16
   1   1   5 4125.27  128.08
   1   1   5 4113.34  133.20
  -2  -1  -5  636.47   22.96
  -2  -1  -5  631.20   20.28
  -2  -1  -5  643.45   25.00
  -2  -1  -5  638.24   22.74
  -2  -1  -5  655.52   25.38
  -2  -1  -5  651.11   25.07
  -2  -1  -5  644.52   23.09
   2   1   5  625.33   21.37
   2   1   5  627.05   24.81
   2   1   5  623.82   21.48
   2   1   5  643.97   23.33
   2   1   5  639.78   24.74
   2   1   5  631.12   23.04
   2   1   5  608.00   22.68
  -3  -1  -5  515.54   18.66
  -3  -1  -5  515.70   22.34
  -3  -1  -5  461.00   22.96
  -3  -1  -5  553.62   20.42
  -3  -1  -5  529.72   19.76
  -3  -1  -5  507.23   19.96
  -3  -1  -5  520.01   18.53
  -3  -1  -5  519.62   18.70
   3   1   5  488.89   19.36
   3   1   5  558.66   21.76
   3   1   5  507.05   19.75
   3   1   5  555.98   21.16
   3   1   5  535.07   21.17
  -4  -1  -5  716.30   28.01
  -4  -1  -5  637.26   21.79
  -4  -1  -5  680.72   22.04
  -4  -1  -5  682.75   27.41
   4   1   5  677.78   27.49
   4   1   5  680.85   27.37
   4   1   5  633.61   26.30
  -5  -1  -5   32.24    9.62
  -5  -1  -5   18.56    2.65
  -5  -1  -5   16.35    2.71
  -5  -1  -5   17.48    8.79
   5   1   5   31.47    8.66
   5   1   5   28.51    7.56
   5   1   5   36.36    8.47
  -6  -1  -5  202.68   15.88
  -6  -1  -5  209.33   18.58
  -6  -1  -5  153.13   17.79
   6   1   5  190.33   17.63
  -7  -1  -5   85.66   13.38
  -7  -1  -5   73.54   17.65
  -7  -1  -5   93.86   16.46
  -8  -1  -5   46.83   14.02
  -8  -1  -5   39.83   20.61
   6  -2  -5  145.56   21.76
   6  -2  -5  120.49   19.72
  -6   2   5  117.43   14.63
  -6   2   5  115.62   21.04
  -6   2   5  118.14   18.63
  -6   2   5  129.87   22.14
   5  -2  -5  182.43   19.33
   5  -2  -5  142.76   23.77
   5  -2  -5  146.94   16.76
  -5   2   5  128.97   18.49
  -5   2   5  195.51   23.06
  -5   2   5  162.55   18.59
  -5   2   5  139.96   13.62
   4  -2  -5   54.47   18.00
   4  -2  -5   85.08   12.32
  -4   2   5   46.02   11.37
  -4   2   5   46.11   10.57
  -4   2   5   64.46    8.94
  -4   2   5   48.90   13.20
   3  -2  -5  203.32   17.08
   3  -2  -5  209.23   21.51
   3  -2  -5  191.38   10.44
  -3   2   5  196.51   14.63
  -3   2   5  197.36   19.01
  -3   2   5  210.85   12.99
  -3   2   5  192.26    9.97
  -3   2   5  201.31   16.03
   2  -2  -5  361.12   14.69
   2  -2  -5  319.26   19.72
   2  -2  -5  315.95   24.54
  -2   2   5  340.46   14.47
  -2   2   5  333.08   15.50
  -2   2   5  354.37   21.90
  -2   2   5  341.48   18.07
  -2   2   5  372.15   18.37
   1  -2  -5   34.62    5.72
   1  -2  -5   22.15    7.92
   1  -2  -5   29.24    7.92
  -1   2   5   32.04    6.80
  -1   2   5   45.90    9.60
  -1   2   5   31.67    4.97
  -1   2   5   37.89    5.51
  -1   2   5   49.05    6.63
   0  -2  -5  178.63   15.58
   0  -2  -5  181.57   11.04
   0  -2  -5  172.91   15.36
   0  -2  -5  193.13   12.95
   0   2   5  192.31   14.30
   0   2   5  181.10   10.49
   0   2   5  182.92    8.68
   0   2   5  200.46   11.48
   0   2   5  192.67   11.80
   0   2   5  176.73    9.58
   0   2   5  170.96   11.41
  -1  -2  -5 3230.52  104.56
  -1  -2  -5 3267.79  100.11
  -1  -2  -5 3345.11  101.69
  -1  -2  -5 3347.69  102.28
  -1  -2  -5 3325.68  105.39
  -1  -2  -5 3084.28  101.20
   1   2   5 3095.78  100.97
   1   2   5 3348.69   99.39
   1   2   5 3159.95  104.67
   1   2   5 3232.04  100.96
   1   2   5 3225.35  101.33
   1   2   5 3285.28  104.34
   1   2   5 3265.66   97.07
   1   2   5 3209.09  101.37
  -2  -2  -5  783.75   30.57
  -2  -2  -5  782.29   28.22
  -2  -2  -5  732.52   27.56
  -2  -2  -5  802.50   30.81
  -2  -2  -5  766.40   29.13
  -2  -2  -5  806.96   24.71
   2   2   5  787.96   27.43
   2   2   5  789.46   27.72
   2   2   5  761.84   26.83
   2   2   5  798.30   26.74
   2   2   5  763.75   29.78
   2   2   5  789.00   27.96
   2   2   5  767.58   30.25
  -3  -2  -5  164.40    9.59
  -3  -2  -5  137.44    8.61
  -3  -2  -5  143.55   10.80
  -3  -2  -5  139.50   10.79
  -3  -2  -5  154.80   11.79
   3   2   5  148.81   10.69
   3   2   5  143.59    9.88
   3   2   5  156.27   10.45
   3   2   5  182.60   11.04
   3   2   5  152.58   10.04
  -4  -2  -5    3.63    4.42
  -4  -2  -5    7.18    7.19
  -4  -2  -5    2.47    3.83
  -4  -2  -5    2.79    3.78
  -4  -2  -5    4.11    4.34
   4   2   5    6.06    6.45
   4   2   5    3.35    3.93
   4   2   5    4.50    4.56
   4   2   5    3.80    5.17
   4   2   5    3.48    3.80
  -5  -2  -5    5.05    4.32
  -5  -2  -5    7.27    4.10
  -5  -2  -5    3.79    8.28
   5   2   5    0.49    6.94
   5   2   5    5.31    6.51
   5   2   5    9.59    7.07
  -6  -2  -5  380.22   20.85
  -6  -2  -5  317.17   21.73
   6   2   5  347.47   21.62
   6   2   5  324.62   21.96
  -7  -2  -5   24.20   13.23
  -7  -2  -5   20.60   14.89
  -7  -2  -5   26.55   10.79
   7   2   5   43.81   14.64
  -8  -2  -5   63.94   21.56
  -8  -2  -5  116.63   17.11
   5  -3  -5   28.41   13.39
   5  -3  -5   53.92   15.19
  -5   3   5   54.85   10.36
  -5   3   5   32.05   15.61
  -5   3   5   52.23   15.00
  -5   3   5   68.08   15.10
   4  -3  -5  593.31   30.49
   4  -3  -5  609.16   40.84
   4  -3  -5  619.60   30.88
  -4   3   5  601.60   25.85
  -4   3   5  637.84   35.90
  -4   3   5  640.20   32.12
  -4   3   5  651.92   31.10
   3  -3  -5   89.48   17.10
   3  -3  -5  125.55   10.04
   3  -3  -5  102.89   13.44
  -3   3   5  107.24    9.73
  -3   3   5  153.27   18.91
  -3   3   5  113.63   10.00
  -3   3   5  111.49   13.05
  -3   3   5  133.70   14.20
   2  -3  -5 1250.96   52.05
   2  -3  -5 1254.09   41.60
  -2   3   5 1218.91   44.87
  -2   3   5 1244.79   50.44
  -2   3   5 1157.55   41.58
  -2   3   5 1204.19   45.52
  -2   3   5 1260.23   41.60
   1  -3  -5  177.12   14.25
   1  -3  -5  192.90   18.80
   1  -3  -5  204.00   12.01
  -1   3   5  210.91   13.25
  -1   3   5  193.30   16.71
  -1   3   5  201.32   11.71
  -1   3   5  183.90   11.13
  -1   3   5  212.68   11.17
   0  -3  -5  184.43   11.79
   0  -3  -5  184.01   13.72
   0  -3  -5  157.50   16.09
   0   3   5  165.57    8.75
   0   3   5  175.10   11.57
   0   3   5  158.89   14.25
   0   3   5  160.51   11.91
  -1  -3  -5   66.52   10.28
  -1  -3  -5   81.13    6.33
  -1  -3  -5   78.03   10.97
  -1  -3  -5   90.31    9.15
  -1  -3  -5   79.15    9.37
   1   3   5   72.22    5.62
   1   3   5   79.21    5.23
   1   3   5   90.53    9.49
   1   3   5   86.56    8.48
   1   3   5  113.04   12.59
  -2  -3  -5  490.31   20.83
  -2  -3  -5  566.73   25.29
  -2  -3  -5  562.04   22.94
  -2  -3  -5  539.19   22.30
  -2  -3  -5  522.26   18.29
  -2  -3  -5  501.12   23.99
   2   3   5  516.53   20.63
   2   3   5  507.84   19.76
   2   3   5  525.44   20.66
   2   3   5  551.50   20.55
   2   3   5  534.00   23.94
  -3  -3  -5   59.93    7.75
  -3  -3  -5   90.63   10.51
  -3  -3  -5   74.62    7.86
  -3  -3  -5   76.50    9.55
  -3  -3  -5   77.11    7.06
  -3  -3  -5   77.82    9.73
   3   3   5   87.61    9.57
   3   3   5   91.51    8.45
   3   3   5   78.37    5.50
   3   3   5   84.81    8.31
   3   3   5   78.71    5.45
   3   3   5   65.05    7.12
  -4  -3  -5  563.40   24.73
  -4  -3  -5  572.16   24.77
  -4  -3  -5  650.48   23.72
  -4  -3  -5  628.16   25.03
  -4  -3  -5  572.17   22.96
  -4  -3  -5  635.66   26.13
   4   3   5  627.41   25.94
   4   3   5  650.08   25.39
   4   3   5  598.83   25.88
  -5  -3  -5 1067.63   35.80
  -5  -3  -5 1019.30   35.52
  -5  -3  -5 1016.08   35.71
  -5  -3  -5 1058.22   39.74
  -5  -3  -5  978.87   35.26
   5   3   5 1022.80   39.85
   5   3   5 1027.92   41.03
  -6  -3  -5   19.95    9.43
  -6  -3  -5   10.55   10.36
   6   3   5   22.21    9.31
   6   3   5   17.83   11.30
  -7  -3  -5   62.24   14.21
  -7  -3  -5   58.78   13.45
   7   3   5   66.73   15.73
   5  -4  -5  223.17   22.32
  -5   4   5  214.49   20.92
  -5   4   5  231.35   23.17
  -5   4   5  172.91   23.83
   4  -4  -5    4.36   11.30
   4  -4  -5   10.91   19.41
   4  -4  -5    4.72   12.50
  -4   4   5   17.42   12.89
  -4   4   5    9.22    9.73
  -4   4   5    6.80    6.57
  -4   4   5   10.05    9.45
   3  -4  -5   25.62   12.17
   3  -4  -5   30.01   16.10
   3  -4  -5   40.62    8.50
  -3   4   5   38.87   13.43
  -3   4   5   36.41    7.26
  -3   4   5   44.91    9.95
  -3   4   5   37.30   10.55
   2  -4  -5  514.94   21.32
   2  -4  -5  401.32   24.88
   2  -4  -5  432.73   30.66
  -2   4   5  445.53   19.20
  -2   4   5  458.38   28.09
  -2   4   5  454.95   21.98
  -2   4   5  484.53   23.40
   1  -4  -5  195.75   15.72
   1  -4  -5  176.77   13.42
   1  -4  -5  210.02   21.29
  -1   4   5  203.40   13.93
  -1   4   5  191.79   12.09
  -1   4   5  209.41   18.69
   0  -4  -5   72.36    8.45
   0  -4  -5   51.44   11.70
   0  -4  -5   79.66    9.46
   0  -4  -5   90.91   11.45
   0   4   5   79.11    6.99
   0   4   5   62.11   11.35
   0   4   5   71.50    4.96
   0   4   5  104.72   10.73
  -1  -4  -5  178.87   13.66
  -1  -4  -5  157.71   16.91
  -1  -4  -5  156.92   16.34
  -1  -4  -5  164.62   12.01
  -1  -4  -5  174.26    9.87
   1   4   5  157.92   14.85
   1   4   5  155.45   11.38
   1   4   5  161.99    8.25
   1   4   5  154.57    8.97
  -2  -4  -5  406.43   23.03
  -2  -4  -5  460.20   24.16
  -2  -4  -5  441.43   20.56
  -2  -4  -5  452.53   20.21
  -2  -4  -5  396.06   16.42
   2   4   5  417.44   18.68
   2   4   5  432.28   16.87
   2   4   5  402.17   22.19
   2   4   5  428.26   16.90
   2   4   5  418.03   18.87
  -3  -4  -5  217.41   12.70
  -3  -4  -5  208.60   14.77
  -3  -4  -5  224.97   16.57
  -3  -4  -5  209.54   16.50
  -3  -4  -5  217.93   16.53
  -3  -4  -5  191.97   11.72
  -3  -4  -5  228.55   13.82
   3   4   5  224.37   13.20
   3   4   5  232.28   12.32
   3   4   5  201.43   11.37
   3   4   5  226.46   13.12
   3   4   5  227.04   15.63
   3   4   5  212.74   11.31
   3   4   5  207.24   11.25
  -4  -4  -5  122.77   14.27
  -4  -4  -5  139.09   14.14
  -4  -4  -5  157.85   12.07
  -4  -4  -5  161.26   14.37
   4   4   5  149.79   12.95
   4   4   5  139.52   13.55
   4   4   5  131.95   12.38
  -5  -4  -5  648.91   26.91
  -5  -4  -5  670.90   27.98
  -5  -4  -5  677.29   30.47
   5   4   5  654.54   30.23
   5   4   5  643.83   29.31
  -6  -4  -5   42.36   12.64
  -6  -4  -5   48.83   11.45
  -6  -4  -5   46.47    8.37
   6   4   5   43.52   11.52
   6   4   5   30.40   11.85
  -7  -4  -5  216.32   19.98
  -7  -4  -5  210.28   19.67
   7   4   5  224.35   21.31
   7   4   5  184.33   21.17
   5  -5  -5   62.67   18.63
   5  -5  -5   52.26   17.51
  -5   5   5   51.58   16.00
  -5   5   5   55.98   16.80
  -5   5   5   46.54   19.79
   4  -5  -5   37.69   14.07
   4  -5  -5   22.82   14.99
  -4   5   5   38.90   12.49
  -4   5   5   79.12   15.32
  -4   5   5   51.54    8.77
  -4   5   5   56.03   16.38
   3  -5  -5  125.33   17.22
   3  -5  -5  171.43   15.26
   3  -5  -5  153.34   24.10
   3  -5  -5  163.99   15.82
  -3   5   5  179.88   17.18
  -3   5   5  155.07   20.06
  -3   5   5  187.36   17.94
  -3   5   5  157.46   12.52
   2  -5  -5  115.17   19.32
   2  -5  -5  138.94   12.55
  -2   5   5  117.01   12.51
  -2   5   5  149.14   19.19
  -2   5   5  149.72   15.26
   1  -5  -5  938.09   44.63
   1  -5  -5  951.13   35.43
  -1   5   5  836.32   41.39
  -1   5   5  946.80   37.10
  -1   5   5  877.32   34.37
   0  -5  -5   95.52   13.16
   0  -5  -5  133.30   12.57
   0  -5  -5   93.65   15.24
   0   5   5  106.19    9.02
   0   5   5   79.08   12.52
   0   5   5  134.98   12.96
   0   5   5  111.82    5.83
  -1  -5  -5 1009.48   37.77
  -1  -5  -5 1137.33   42.68
  -1  -5  -5 1085.16   46.52
  -1  -5  -5 1130.03   40.51
   1   5   5 1079.61   39.91
   1   5   5 1046.33   37.45
   1   5   5 1066.17   44.67
   1   5   5 1086.94   35.02
  -2  -5  -5   21.12    8.33
  -2  -5  -5   20.52   10.12
  -2  -5  -5   12.66    5.58
  -2  -5  -5    8.58    9.48
  -2  -5  -5   16.77    9.44
   2   5   5   10.56    6.09
   2   5   5   18.68    5.12
   2   5   5   17.87    7.95
   2   5   5   12.34    3.85
  -3  -5  -5   53.64    7.76
  -3  -5  -5   63.30   11.26
  -3  -5  -5   70.09   11.10
  -3  -5  -5   44.46   11.06
  -3  -5  -5   67.68    7.92
  -3  -5  -5   54.08    9.59
  -3  -5  -5   80.25   12.66
   3   5   5   51.91    7.43
   3   5   5   57.52    8.39
   3   5   5   56.98    7.88
   3   5   5   62.77   11.37
  -4  -5  -5  307.73   19.06
  -4  -5  -5  296.14   22.38
  -4  -5  -5  321.19   21.63
  -4  -5  -5  313.61   18.86
   4   5   5  312.49   17.83
   4   5   5  338.20   19.66
   4   5   5  294.48   17.59
   4   5   5  303.91   13.50
   4   5   5  306.01   20.58
   4   5   5  316.06   18.10
  -5  -5  -5  433.59   24.25
  -5  -5  -5  415.88   21.29
  -5  -5  -5  402.29   23.17
   5   5   5  417.55   22.85
   5   5   5  396.43   23.00
  -6  -5  -5   61.51   11.14
  -6  -5  -5   32.56   11.46
  -6  -5  -5   44.41   11.71
   6   5   5   37.95   13.22
   6   5   5   37.11   11.35
  -7  -5  -5  125.06   17.31
  -7  -5  -5  156.30   18.21
   7   5   5  141.50   20.31
   7   5   5  128.73   17.77
   4  -6  -5  116.18   19.68
   4  -6  -5  114.12   17.53
  -4   6   5  152.03   18.26
  -4   6   5  196.54   27.51
  -4   6   5  185.22   21.35
   3  -6  -5  162.02   17.15
   3  -6  -5  116.28   24.48
   3  -6  -5  142.27   18.13
   3  -6  -5  201.42   18.19
  -3   6   5  138.37   15.93
  -3   6   5  180.22   19.07
  -3   6   5  230.59   27.24
   2  -6  -5   94.02   16.03
   2  -6  -5  135.45   15.11
   2  -6  -5   82.81   20.37
  -2   6   5  149.85   16.01
  -2   6   5  100.93   12.92
  -2   6   5  131.14   20.86
   1  -6  -5  529.79   36.28
   1  -6  -5  557.53   25.67
  -1   6   5  525.84   32.83
  -1   6   5  541.02   26.76
  -1   6   5  517.07   24.25
   0  -6  -5   75.55   12.58
   0  -6  -5   73.18   14.15
   0  -6  -5   82.37   16.29
   0   6   5   78.85   14.04
   0   6   5   86.13   12.14
   0   6   5   89.66    9.76
  -1  -6  -5  311.86   26.49
  -1  -6  -5  313.09   19.29
  -1  -6  -5  311.74   20.93
   1   6   5  284.51   17.51
   1   6   5  290.39   15.76
   1   6   5  318.77   23.46
  -2  -6  -5  313.95   26.06
  -2  -6  -5  339.78   25.81
  -2  -6  -5  293.21   20.54
  -2  -6  -5  290.34   18.89
   2   6   5  355.37   23.50
   2   6   5  310.01   16.48
   2   6   5  308.84   17.46
  -3  -6  -5  205.96   12.64
  -3  -6  -5  209.09   20.38
  -3  -6  -5  240.60   17.28
  -3  -6  -5  226.98   22.15
  -3  -6  -5  249.04   18.80
   3   6   5  203.02   14.00
   3   6   5  226.96   14.25
   3   6   5  213.94   19.64
  -4  -6  -5  427.59   23.75
  -4  -6  -5  431.19   26.40
  -4  -6  -5  426.56   23.96
   4   6   5  444.90   22.07
   4   6   5  445.63   23.06
   4   6   5  401.43   26.08
   4   6   5  416.49   19.14
  -5  -6  -5  147.97   17.08
  -5  -6  -5  125.92   14.97
  -5  -6  -5  120.38   14.70
  -5  -6  -5  124.48   15.23
   5   6   5  137.72   17.26
   5   6   5  151.24   15.17
  -6  -6  -5   88.19   15.51
  -6  -6  -5  102.31   14.93
  -6  -6  -5   89.81   14.40
   6   6   5   89.93   15.78
   6   6   5   88.33   14.46
  -7  -6  -5   24.09   15.07
  -7  -6  -5   21.29   13.71
   7   6   5   26.66   15.96
   7   6   5   24.23   13.80
   3  -7  -5    4.30   23.37
   3  -7  -5    9.87   12.61
   3  -7  -5   16.70   16.26
   3  -7  -5   25.31   13.65
  -3   7   5   19.13   16.60
  -3   7   5   14.19   10.18
  -3   7   5   17.53   12.67
   2  -7  -5  326.64   36.56
   2  -7  -5  328.45   23.20
   2  -7  -5  292.00   20.98
   2  -7  -5  308.08   25.14
  -2   7   5  327.50   21.22
  -2   7   5  284.53   22.50
  -2   7   5  320.93   29.64
   1  -7  -5   12.68   18.25
   1  -7  -5   23.44   11.38
   1  -7  -5   20.11   12.72
  -1   7   5   15.51    7.61
  -1   7   5   14.31   11.66
  -1   7   5   24.71   10.36
   0  -7  -5   76.08   18.95
   0  -7  -5   66.38   12.95
   0  -7  -5   56.28   14.03
   0   7   5   44.79   14.00
   0   7   5   67.10   12.34
   0   7   5   71.90   10.36
  -1  -7  -5   44.70   16.42
  -1  -7  -5   35.70   13.53
  -1  -7  -5   16.42   13.32
  -1  -7  -5   29.75   12.26
   1   7   5   21.02    9.03
   1   7   5   33.14    7.87
   1   7   5   27.19   11.48
  -2  -7  -5  253.61   26.44
  -2  -7  -5  250.56   18.95
  -2  -7  -5  302.11   28.27
  -2  -7  -5  283.76   21.28
   2   7   5  241.27   16.73
   2   7   5  258.58   23.90
   2   7   5  242.77   16.29
  -3  -7  -5    8.94   12.62
  -3  -7  -5    7.57   10.71
  -3  -7  -5    7.31   11.23
  -3  -7  -5    9.93   11.51
   3   7   5    7.35    6.37
   3   7   5    5.71    7.85
   3   7   5   11.25   11.00
  -4  -7  -5  207.42   22.89
  -4  -7  -5  207.99   19.51
  -4  -7  -5  205.88   18.89
   4   7   5  212.39   23.53
   4   7   5  202.14   14.95
   4   7   5  191.13   15.38
   4   7   5  198.71   17.61
  -5  -7  -5  147.99   18.92
  -5  -7  -5  146.66   18.47
  -5  -7  -5  125.63   15.40
  -5  -7  -5  155.64   18.76
   5   7   5  158.16   18.14
   5   7   5  146.98   15.67
  -6  -7  -5   99.98   16.92
  -6  -7  -5  121.76   18.87
  -6  -7  -5   98.90   15.91
   6   7   5   91.58   15.33
   6   7   5   82.43   16.88
   3  -8  -5    0.09   17.44
   3  -8  -5    5.67   15.86
  -3   8   5    0.15   14.30
  -3   8   5    0.75   17.23
  -3   8   5    6.09   11.44
   2  -8  -5   45.69   20.90
   2  -8  -5   42.82   22.74
   2  -8  -5   86.30   19.32
   2  -8  -5   48.59   18.24
   2  -8  -5   55.26   24.01
  -2   8   5  105.54   17.31
  -2   8   5   62.45   12.81
   1  -8  -5   21.83   14.99
   1  -8  -5   24.33   21.34
   1  -8  -5   15.34   13.12
   1  -8  -5   15.75   19.45
  -1   8   5    8.74   10.99
  -1   8   5   19.38    8.97
  -1   8   5   33.29   16.83
   0  -8  -5  122.11   16.33
   0  -8  -5   69.08   15.54
   0  -8  -5   68.52   19.65
   0  -8  -5   65.49   20.78
   0   8   5  126.21   13.33
   0   8   5   96.25   18.23
   0   8   5  135.94   16.57
  -1  -8  -5   79.26   15.56
  -1  -8  -5   84.56   15.19
  -1  -8  -5   54.15   17.01
  -1  -8  -5   80.32   20.62
   1   8   5   80.27   13.45
   1   8   5   84.97   11.76
   1   8   5   90.00   18.60
  -2  -8  -5  627.92   39.73
  -2  -8  -5  582.11   39.64
  -2  -8  -5  604.52   33.04
  -2  -8  -5  616.82   30.67
   2   8   5  571.22   29.34
   2   8   5  540.13   35.91
   2   8   5  573.51   27.77
  -3  -8  -5   78.62   15.63
  -3  -8  -5   40.42   15.03
  -3  -8  -5   92.56   18.73
   3   8   5   74.01   12.27
   3   8   5   66.61   16.35
   3   8   5   77.53   10.76
  -4  -8  -5   94.29   17.43
  -4  -8  -5   86.16   15.50
  -4  -8  -5  116.14   19.94
   4   8   5  104.22   14.48
   4   8   5  117.70   13.76
   4   8   5  133.70   14.77
  -5  -8  -5  211.83   21.86
  -5  -8  -5  200.33   22.40
  -5  -8  -5  191.84   22.93
  -5  -8  -5  176.91   18.74
   5   8   5  201.11   18.45
   5   8   5  250.91   23.84
  -6  -8  -5    7.51   13.35
  -6  -8  -5   10.40   17.53
  -6  -8  -5    9.43   12.98
   6   8   5    7.51   12.36
   6   8   5    8.74   16.69
   2  -9  -5   30.00   19.51
   2  -9  -5   33.46   27.83
   2  -9  -5   23.29   20.25
   2  -9  -5   17.44   24.58
  -2   9   5   31.02   20.55
  -2   9   5   39.22   16.40
  -2   9   5   36.84   13.21
   1  -9  -5   14.09   21.46
   1  -9  -5   25.98   18.08
   1  -9  -5    7.23   16.21
   1  -9  -5    6.87   23.21
  -1   9   5   38.60   21.15
  -1   9   5   20.81   11.41
  -1   9   5   14.84   13.50
   0  -9  -5   32.17   16.58
   0  -9  -5   62.10   18.48
   0  -9  -5   42.37   21.58
   0  -9  -5   56.33   21.27
   0   9   5   64.95   12.59
   0   9   5   65.89   20.89
   0   9   5   78.56   15.93
  -1  -9  -5   78.97   17.57
  -1  -9  -5   63.31   21.37
  -1  -9  -5   83.46   23.10
  -1  -9  -5   64.04   17.78
   1   9   5   93.71   16.93
   1   9   5   69.41   19.10
   1   9   5   83.80   12.92
  -2  -9  -5    5.85   15.40
  -2  -9  -5   33.85   15.17
  -2  -9  -5   17.84   14.81
   2   9   5   15.47   14.68
   2   9   5   14.92    8.17
   2   9   5   19.49   12.00
   2   9   5   14.69    9.76
  -3  -9  -5   15.84   14.31
  -3  -9  -5   22.07   15.01
  -3  -9  -5   32.05   15.48
   3   9   5   27.33    9.45
   3   9   5   28.80   12.57
   3   9   5   17.57   15.93
   3   9   5   29.42   11.05
  -4  -9  -5  117.75   21.06
  -4  -9  -5  177.58   21.48
  -4  -9  -5  184.36   22.67
   4   9   5  157.47   17.53
   4   9   5  172.97   16.77
  -5  -9  -5    1.22   14.66
  -5  -9  -5    6.07   13.30
  -5  -9  -5   -2.55   15.71
  -5  -9  -5    3.48   16.92
   5   9   5    2.76   11.18
   5   9   5    8.36   14.13
   0 -10  -5   17.76   21.23
   0 -10  -5    7.15   17.37
   0 -10  -5   16.12   27.26
   0 -10  -5   -2.62   20.77
   0  10   5   15.29   11.77
   0  10   5   14.92   15.34
   0  10   5    6.10   18.34
  -1 -10  -5  200.34   23.98
  -1 -10  -5  194.97   27.02
   1  10   5  221.92   30.81
   1  10   5  243.71   24.34
   1  10   5  213.55   20.05
  -2 -10  -5   25.78   18.77
  -2 -10  -5   39.23   21.24
  -2 -10  -5   33.36   17.26
   2  10   5   33.03   10.50
   2  10   5   46.39   21.27
   2  10   5   37.17   12.12
   2  10   5   49.20   16.23
  -3 -10  -5    8.76   18.81
  -3 -10  -5    3.35   17.06
  -3 -10  -5    4.49   18.16
   3  10   5    1.04   12.69
   3  10   5    2.86   31.45
   3  10   5    4.02   11.41
   3  10   5    0.28    9.27
  -4 -10  -5  160.67   27.62
  -4 -10  -5  180.78   23.86
  -4 -10  -5  129.92   18.55
   4  10   5  179.64   23.74
   4  10   5  144.64   16.39
   2   9  -6    6.90   25.15
   2   9  -6   23.15   17.80
  -2  -9   6    1.06   13.48
  -2  -9   6    2.12   14.55
   1   9  -6   26.77   19.47
   1   9  -6   49.35   25.85
   1   9  -6   30.27   14.57
  -1  -9   6   50.10   17.26
  -1  -9   6   38.00   14.92
   0   9  -6  129.74   25.86
   0   9  -6  164.77   21.04
   0   9  -6  160.96   23.03
   0  -9   6  154.26   25.56
   0  -9   6  116.54   17.69
  -1   9  -6   39.13   18.61
  -1   9  -6   26.88   21.13
  -1   9  -6   32.30   13.70
   1  -9   6   27.16   13.37
   1  -9   6   28.63   16.38
  -2   9  -6   71.65   23.54
  -2   9  -6  111.04   21.83
  -2   9  -6   90.86   18.01
   2  -9   6   76.18   15.07
   2  -9   6   69.28   14.39
   3   8  -6   26.88   25.07
   3   8  -6   27.22   18.77
  -3  -8   6   33.41   10.68
  -3  -8   6   18.41   14.03
  -3  -8   6   43.21   14.01
   2   8  -6   37.62   17.33
   2   8  -6   26.58   23.55
  -2  -8   6   39.24   13.65
  -2  -8   6   31.21   14.43
  -2  -8   6   36.42    9.30
   1   8  -6   60.45   22.46
   1   8  -6   43.56   14.21
   1   8  -6   59.00   18.31
  -1  -8   6   58.26   13.56
  -1  -8   6   64.16   15.99
  -1  -8   6   57.96    8.73
   0   8  -6    9.03   13.90
   0   8  -6   11.39   18.82
   0   8  -6    4.78    9.77
   0  -8   6    7.63    9.97
   0  -8   6    9.78   13.03
  -1   8  -6   21.11   18.56
  -1   8  -6   10.97   11.37
  -1   8  -6    9.36   14.42
   1  -8   6   17.67   13.61
   1  -8   6   14.83    8.93
   1  -8   6   15.22   10.03
  -2   8  -6  245.42   22.68
  -2   8  -6  224.50   26.96
  -2   8  -6  229.92   24.69
   2  -8   6  209.06   19.03
   2  -8   6  237.05   27.15
   2  -8   6  240.58   19.62
  -3   8  -6  163.04   22.32
  -3   8  -6  115.69   23.78
  -3   8  -6  195.86   20.74
   3  -8   6  168.33   18.49
  -4   8  -6    6.39   15.02
  -4   8  -6    8.77   21.58
  -4   8  -6   12.89   17.68
   4  -8   6   14.78   15.18
   4   7  -6   84.13   19.38
   4   7  -6   56.92   25.78
  -4  -7   6   67.80   17.40
  -4  -7   6   70.05   12.32
  -4  -7   6   96.12   18.32
   3   7  -6    7.50   15.47
   3   7  -6    8.41   20.02
   3   7  -6   -1.66   11.07
  -3  -7   6    2.74   10.22
  -3  -7   6    3.19   11.00
  -3  -7   6    5.84    8.29
   2   7  -6  114.48   25.31
   2   7  -6   92.67   17.72
  -2  -7   6  100.98   10.98
  -2  -7   6   72.14   15.30
  -2  -7   6   74.46   13.83
   1   7  -6  222.94   22.42
   1   7  -6  217.55   28.26
   1   7  -6  202.20   19.25
  -1  -7   6  226.16   19.73
  -1  -7   6  222.18   23.44
  -1  -7   6  228.57   14.32
   0   7  -6   86.70   16.26
   0   7  -6   82.86   13.57
   0   7  -6   74.39   18.39
   0  -7   6   68.42   15.36
   0  -7   6   82.34    7.62
   0  -7   6   74.18   12.38
   0  -7   6   88.48    8.90
  -1   7  -6   22.27   16.56
  -1   7  -6   13.71    8.58
  -1   7  -6   14.50   13.90
   1  -7   6    9.28    8.96
   1  -7   6   23.51    7.83
   1  -7   6   13.70   10.88
  -2   7  -6  207.21   24.57
  -2   7  -6  221.18   18.57
  -2   7  -6  212.49   20.63
   2  -7   6  214.04   17.26
   2  -7   6  244.66   24.63
   2  -7   6  232.30   17.38
   2  -7   6  212.82   14.47
  -3   7  -6   40.57   12.73
  -3   7  -6   41.97   16.86
  -3   7  -6   51.42   14.58
   3  -7   6   47.37    9.44
   3  -7   6   39.54   11.57
   3  -7   6   38.76    9.71
  -4   7  -6   99.94   18.37
  -4   7  -6  106.77   17.10
  -4   7  -6   99.81   20.75
   4  -7   6  116.58   17.82
  -5   7  -6   61.37   20.50
  -5   7  -6   72.15   17.96
   5  -7   6   53.50   17.46
   5   6  -6    7.05   20.46
   5   6  -6    4.90   18.71
  -5  -6   6    9.73   12.84
  -5  -6   6   14.15   15.38
  -5  -6   6    3.73   10.07
   4   6  -6   67.79   16.79
   4   6  -6  129.21   29.30
  -4  -6   6   77.17   17.12
  -4  -6   6   82.72   12.27
  -4  -6   6   85.95   15.84
   3   6  -6  149.28   23.41
   3   6  -6  112.22   17.95
   3   6  -6  183.21   16.51
  -3  -6   6  191.55   19.79
  -3  -6   6  159.36   13.71
  -3  -6   6  171.22   22.25
   2   6  -6  201.86   20.70
   2   6  -6  173.72   24.29
  -2  -6   6  123.15   17.48
  -2  -6   6  160.33   17.14
  -2  -6   6  172.78   12.88
   1   6  -6   98.24   19.29
   1   6  -6  134.60   15.26
   1   6  -6  129.21   16.60
  -1  -6   6  128.40   14.61
  -1  -6   6   68.42   13.44
  -1  -6   6  116.93    9.77
   0   6  -6  565.81   36.58
   0   6  -6  621.81   30.46
   0   6  -6  587.07   29.06
   0  -6   6  551.96   21.88
   0  -6   6  605.16   28.54
   0  -6   6  578.60   22.24
   0  -6   6  580.10   32.94
  -1   6  -6  707.82   31.17
  -1   6  -6  695.46   39.74
  -1   6  -6  665.21   32.11
   1  -6   6  698.59   27.59
   1  -6   6  736.36   38.06
   1  -6   6  643.42   29.92
   1  -6   6  699.03   23.97
  -2   6  -6   62.52   15.91
  -2   6  -6   59.44   11.55
  -2   6  -6   61.60   13.83
   2  -6   6   35.47    8.93
   2  -6   6   63.99    8.40
   2  -6   6   64.20    9.90
   2  -6   6   45.01   11.90
  -3   6  -6   78.23   14.68
  -3   6  -6   76.07   12.85
  -3   6  -6   63.44   16.27
   3  -6   6   67.78    9.37
   3  -6   6   62.61   11.71
   3  -6   6   53.08   16.55
   3  -6   6   58.21    9.06
  -4   6  -6  215.04   20.32
  -4   6  -6  136.04   20.09
  -4   6  -6  188.29   19.44
   4  -6   6  203.94   16.15
   4  -6   6  178.08   18.09
  -5   6  -6   30.95   15.15
  -5   6  -6   61.61   17.73
   5  -6   6   45.83   11.96
   5  -6   6   44.69   14.78
   5   5  -6   76.95   18.04
   5   5  -6   80.65   14.73
   5   5  -6   87.78   20.67
  -5  -5   6   92.09   13.60
  -5  -5   6  101.45   17.71
  -5  -5   6   96.72   19.35
   4   5  -6   15.61   21.01
   4   5  -6   15.76   11.24
   4   5  -6    9.78   12.80
   4   5  -6   17.95   14.27
  -4  -5   6   21.82   12.21
  -4  -5   6   11.33    8.47
  -4  -5   6   21.34   12.79
   3   5  -6  226.91   15.46
   3   5  -6  252.25   23.28
   3   5  -6  257.20   28.53
  -3  -5   6  256.27   19.72
  -3  -5   6  226.10   22.58
  -3  -5   6  241.19   16.17
   2   5  -6   86.19   14.50
   2   5  -6   95.04    9.87
   2   5  -6   93.13   17.28
  -2  -5   6  107.94   10.24
  -2  -5   6  127.85   15.37
  -2  -5   6  106.09   16.18
   1   5  -6  409.16   30.09
   1   5  -6  419.90   25.26
  -1  -5   6  376.35   25.74
  -1  -5   6  401.63   17.78
  -1  -5   6  399.32   22.23
   0   5  -6  366.28   27.52
   0   5  -6  370.22   22.68
   0   5  -6  364.93   20.83
   0  -5   6  392.34   25.48
   0  -5   6  356.74   14.89
   0  -5   6  344.50   19.79
   0  -5   6  362.04   15.46
  -1   5  -6 1079.98   39.20
  -1   5  -6 1264.18   44.90
  -1   5  -6 1231.79   46.33
  -1   5  -6 1204.73   52.69
   1  -5   6 1200.58   41.35
   1  -5   6 1221.30   38.97
   1  -5   6 1197.20   44.50
   1  -5   6 1214.03   49.57
  -2   5  -6   11.46   11.57
  -2   5  -6   12.97    4.14
  -2   5  -6   16.04    9.49
  -2   5  -6   21.71    7.87
  -2   5  -6   14.12   15.37
   2  -5   6   20.28    5.79
   2  -5   6   15.97    6.64
   2  -5   6   16.74    9.09
   2  -5   6   18.29    6.81
  -3   5  -6  171.94   15.76
  -3   5  -6  194.46   15.65
  -3   5  -6  181.39   20.27
   3  -5   6  167.41   12.69
   3  -5   6  193.90   19.27
   3  -5   6  182.71   12.16
   3  -5   6  167.45   15.21
  -4   5  -6   77.67   15.20
  -4   5  -6   76.86   13.38
  -4   5  -6   63.71   12.52
   4  -5   6   75.05   12.60
   4  -5   6   73.81   10.32
  -5   5  -6  212.06   22.12
  -5   5  -6  224.84   23.49
   5  -5   6  243.57   22.01
   5  -5   6  229.72   18.43
  -6   5  -6   52.85   16.39
   6  -5   6   49.77   17.24
   6  -5   6   72.94   14.23
   5   4  -6   12.04   10.94
   5   4  -6    6.20   16.87
  -5  -4   6   17.26   12.47
  -5  -4   6   15.06    9.90
  -5  -4   6    8.22   11.39
   4   4  -6    5.28   12.57
   4   4  -6    1.59    9.54
   4   4  -6    7.00   11.85
   4   4  -6    4.22   18.12
  -4  -4   6    5.40   10.64
  -4  -4   6    2.66    7.63
  -4  -4   6   14.10    9.44
   3   4  -6  614.14   26.09
   3   4  -6  701.59   40.53
   3   4  -6  713.39   33.45
  -3  -4   6  654.26   35.79
  -3  -4   6  642.00   30.62
  -3  -4   6  669.99   27.68
   2   4  -6  175.98   16.66
   2   4  -6  133.77   10.91
   2   4  -6  175.93   11.30
   2   4  -6  172.49   21.52
  -2  -4   6  145.44   17.91
  -2  -4   6  178.68   12.47
  -2  -4   6  159.49   14.56
   1   4  -6  487.27   29.73
   1   4  -6  444.61   23.79
  -1  -4   6  432.61   18.89
  -1  -4   6  428.13   25.86
  -1  -4   6  490.57   23.78
   0   4  -6 1348.46   49.48
   0   4  -6 1458.23   52.16
   0   4  -6 1530.48   58.00
   0  -4   6 1419.97   46.30
   0  -4   6 1414.08   55.34
   0  -4   6 1391.30   50.54
   0  -4   6 1363.15   43.31
  -1   4  -6   97.30   14.15
  -1   4  -6  130.96    8.95
  -1   4  -6  124.96   12.71
  -1   4  -6  148.52   11.98
   1  -4   6  121.48   10.86
   1  -4   6  135.58    6.45
   1  -4   6  122.21    7.96
   1  -4   6  134.92    9.48
   1  -4   6  135.81   15.03
  -2   4  -6   79.34   13.75
  -2   4  -6  100.49    7.12
  -2   4  -6  104.76   12.02
  -2   4  -6  104.89   14.42
  -2   4  -6  120.40   11.59
   2  -4   6  112.75   10.35
   2  -4   6   97.22   12.67
   2  -4   6   98.87   10.17
   2  -4   6  103.82    9.44
  -3   4  -6  298.11   11.94
  -3   4  -6  299.66   22.15
  -3   4  -6  329.42   18.17
  -3   4  -6  258.12   14.88
  -3   4  -6  303.71   17.85
  -3   4  -6  341.44   22.92
   3  -4   6  344.83   16.68
   3  -4   6  319.08   13.83
   3  -4   6  293.52   13.86
   3  -4   6  323.66   18.07
   3  -4   6  317.70   20.11
  -4   4  -6  181.21   19.03
  -4   4  -6  186.04    9.65
  -4   4  -6  196.88   16.94
  -4   4  -6  206.64   15.54
   4  -4   6  188.14   13.92
   4  -4   6  187.03   17.21
  -5   4  -6  312.52   21.94
  -5   4  -6  322.95   24.25
   5  -4   6  372.97   24.40
   5  -4   6  322.64   20.05
  -6   4  -6   10.84   13.69
   6  -4   6   15.70   11.34
   6  -4   6    5.91   13.66
   5   3  -6   32.81   16.76
  -5  -3   6   44.85   15.44
  -5  -3   6   31.41    9.96
  -5  -3   6   34.21   12.52
   4   3  -6  495.25   37.10
   4   3  -6  531.97   30.08
   4   3  -6  486.67   23.52
  -4  -3   6  519.24   31.87
  -4  -3   6  501.41   27.08
  -4  -3   6  526.68   24.45
   3   3  -6   27.99   12.43
   3   3  -6   41.56    7.92
   3   3  -6   39.51   11.55
   3   3  -6   34.13   15.90
   3   3  -6   35.26    5.96
  -3  -3   6   37.45   11.81
  -3  -3   6   44.86   10.27
  -3  -3   6   29.98    7.06
   2   3  -6  102.39    8.37
   2   3  -6  107.75    8.55
   2   3  -6   94.31   16.89
   2   3  -6   97.71   12.89
  -2  -3   6  125.32   13.58
  -2  -3   6   90.27   13.13
  -2  -3   6  104.97    9.20
   1   3  -6 1018.80   39.16
   1   3  -6  993.82   32.01
   1   3  -6 1022.90   44.69
  -1  -3   6 1002.30   34.67
  -1  -3   6  909.85   41.77
  -1  -3   6  997.36   38.22
   0   3  -6  729.35   35.47
   0   3  -6  771.49   29.83
   0   3  -6  775.69   31.03
   0  -3   6  730.68   33.66
   0  -3   6  761.79   29.98
   0  -3   6  788.87   27.12
  -1   3  -6  166.31   13.76
  -1   3  -6  168.46   16.85
  -1   3  -6  154.59   16.71
  -1   3  -6  171.87   10.32
  -1   3  -6  168.85   10.87
  -1   3  -6  163.95    9.38
   1  -3   6  171.63    9.05
   1  -3   6  187.96   12.67
   1  -3   6  163.30   14.17
   1  -3   6  185.54   12.03
   1  -3   6  170.21    8.17
   1  -3   6  162.56   11.01
   1  -3   6  165.50    9.56
  -2   3  -6  524.58   26.83
  -2   3  -6  572.45   23.86
  -2   3  -6  525.44   19.18
  -2   3  -6  486.64   26.20
  -2   3  -6  530.02   22.07
   2  -3   6  556.16   21.23
   2  -3   6  513.43   20.91
   2  -3   6  567.41   20.05
   2  -3   6  524.72   21.83
   2  -3   6  538.35   25.26
  -3   3  -6  411.07   16.02
  -3   3  -6  436.49   23.37
  -3   3  -6  402.60   22.53
  -3   3  -6  438.66   20.31
  -3   3  -6  445.61   19.94
   3  -3   6  414.90   15.21
   3  -3   6  443.02   19.43
   3  -3   6  408.88   20.80
   3  -3   6  428.82   20.78
   3  -3   6  456.49   18.49
  -4   3  -6   52.49    9.71
  -4   3  -6   38.40    8.13
  -4   3  -6   35.80    9.36
  -4   3  -6   40.73    9.33
  -4   3  -6   31.63    5.13
  -4   3  -6   47.89    9.90
   4  -3   6   41.65    9.46
   4  -3   6   27.69    7.24
   4  -3   6   31.02    7.15
  -5   3  -6   72.68   11.24
  -5   3  -6   78.44    9.98
  -5   3  -6   71.49   12.48
  -5   3  -6   68.70    8.15
   5  -3   6   63.19   10.25
   5  -3   6   85.07   13.54
  -6   3  -6  419.41   28.75
   6  -3   6  432.38   25.21
   6  -3   6  449.95   28.31
  -7   3  -6   53.84   18.25
   7  -3   6   52.43   17.86
   6   2  -6   19.70   15.03
  -6  -2   6   20.39   11.81
  -6  -2   6   18.22   15.41
  -6  -2   6   22.94   15.60
   5   2  -6   18.77   14.85
  -5  -2   6   19.29   11.10
  -5  -2   6    8.11    8.48
  -5  -2   6   12.47   11.86
   4   2  -6  554.24   39.44
   4   2  -6  582.92   30.34
  -4  -2   6  568.67   25.73
  -4  -2   6  583.99   33.69
  -4  -2   6  600.67   29.15
   3   2  -6  266.64   26.47
   3   2  -6  256.97   19.31
   3   2  -6  223.51   18.15
  -3  -2   6  249.26   14.83
  -3  -2   6  287.07   21.70
  -3  -2   6  234.04   16.85
   2   2  -6  194.57   15.91
   2   2  -6  211.21   16.45
   2   2  -6  202.87   10.83
   2   2  -6  209.46   21.48
   2   2  -6  176.45    9.58
  -2  -2   6  198.36   12.18
  -2  -2   6  225.48   15.07
  -2  -2   6  225.20   18.60
   1   2  -6  498.36   15.71
   1   2  -6  490.35   23.43
   1   2  -6  498.54   28.14
  -1  -2   6  478.71   19.22
  -1  -2   6  467.84   21.74
  -1  -2   6  461.93   25.84
   0   2  -6  600.44   21.70
   0   2  -6  662.77   27.02
   0   2  -6  629.26   32.64
   0   2  -6  648.08   30.60
   0  -2   6  637.46   25.89
   0  -2   6  648.02   23.15
   0  -2   6  668.57   29.82
   0  -2   6  598.06   23.80
  -1   2  -6   45.09    7.81
  -1   2  -6   38.25    5.10
  -1   2  -6   39.87    4.79
  -1   2  -6   45.59    5.76
  -1   2  -6   29.24    8.18
  -1   2  -6   29.96    8.35
  -1   2  -6   38.50    5.75
   1  -2   6   33.92    7.13
   1  -2   6   45.77    6.73
   1  -2   6   53.07    5.40
   1  -2   6   39.77    6.84
   1  -2   6   36.17    5.41
   1  -2   6   44.58    4.74
  -2   2  -6 1442.09   47.09
  -2   2  -6 1328.24   44.93
  -2   2  -6 1419.12   45.38
  -2   2  -6 1365.93   49.71
  -2   2  -6 1338.68   49.73
  -2   2  -6 1203.59   43.20
   2  -2   6 1378.55   45.51
   2  -2   6 1384.84   46.10
   2  -2   6 1359.49   44.63
   2  -2   6 1398.84   44.72
   2  -2   6 1389.54   44.47
   2  -2   6 1346.53   48.45
   2  -2   6 1329.97   45.59
  -3   2  -6  466.62   20.39
  -3   2  -6  503.02   23.05
  -3   2  -6  482.05   20.19
  -3   2  -6  468.58   17.84
  -3   2  -6  512.40   22.83
  -3   2  -6  482.45   20.43
   3  -2   6  463.63   20.01
   3  -2   6  438.92   21.33
   3  -2   6  472.80   20.39
   3  -2   6  461.31   21.09
   3  -2   6  533.12   22.16
  -4   2  -6  685.14   27.58
  -4   2  -6  646.98   24.13
  -4   2  -6  576.96   24.38
  -4   2  -6  670.87   26.20
  -4   2  -6  647.22   25.49
   4  -2   6  657.48   28.69
   4  -2   6  662.61   26.31
   4  -2   6  609.50   26.14
   4  -2   6  598.61   24.11
  -5   2  -6  175.67   12.90
  -5   2  -6  171.41   11.17
  -5   2  -6  183.53   16.83
   5  -2   6  206.70   17.85
   5  -2   6  168.73   14.90
  -6   2  -6  577.93   25.36
  -6   2  -6  605.76   32.16
   6  -2   6  605.65   29.14
   6  -2   6  610.33   32.11
  -7   2  -6   19.97   16.01
  -7   2  -6   14.71   14.15
   7  -2   6   21.10   14.89
   6   1  -6    7.96   14.83
  -6  -1   6    8.07   11.09
  -6  -1   6    4.82   14.58
  -6  -1   6    5.21   14.02
   5   1  -6   10.91   13.79
  -5  -1   6    4.26   11.37
  -5  -1   6    6.34    8.63
  -5  -1   6    1.55   11.27
   4   1  -6   11.19   13.12
   4   1  -6   15.48    8.83
   4   1  -6    9.31   16.12
  -4  -1   6   16.47    8.78
  -4  -1   6   24.37   11.02
  -4  -1   6   11.95    7.29
   3   1  -6   79.02    7.23
   3   1  -6   52.76   14.36
   3   1  -6   94.23   13.89
  -3  -1   6   77.92    7.35
  -3  -1   6  122.55   16.59
  -3  -1   6   66.13    8.57
  -3  -1   6   67.80   10.99
   2   1  -6  160.17    8.72
   2   1  -6  172.67   16.28
   2   1  -6  105.24   15.11
   2   1  -6  168.82   15.90
  -2  -1   6  165.18   12.62
  -2  -1   6  167.22   10.83
  -2  -1   6  184.80   16.76
   1   1  -6  771.58   31.49
   1   1  -6  792.30   31.72
   1   1  -6  785.98   27.37
   1   1  -6  804.53   36.37
  -1  -1   6  711.13   28.44
  -1  -1   6  746.96   30.23
  -1  -1   6  786.07   28.11
  -1  -1   6  778.32   34.35
   0   1  -6  265.49   15.38
   0   1  -6  281.04   18.98
   0   1  -6  247.08   18.41
   0  -1   6  271.32   12.35
   0  -1   6  246.82   11.59
   0  -1   6  279.42   17.49
   0  -1   6  254.20   13.68
  -1   1  -6 1951.39   58.53
  -1   1  -6 1914.70   62.90
  -1   1  -6 1998.93   59.90
  -1   1  -6 1966.41   66.87
  -1   1  -6 1859.17   60.91
  -1   1  -6 1804.30   60.17
  -1   1  -6 1856.44   65.81
   1  -1   6 1948.52   62.15
   1  -1   6 1906.50   61.71
   1  -1   6 1912.70   60.43
   1  -1   6 1913.78   65.52
   1  -1   6 1855.99   59.71
  -2   1  -6  584.96   25.62
  -2   1  -6  634.90   21.53
  -2   1  -6  569.47   23.29
  -2   1  -6  636.98   26.63
  -2   1  -6  522.72   26.66
  -2   1  -6  582.61   22.23
  -2   1  -6  629.13   23.46
  -2   1  -6  597.24   21.49
   2  -1   6  621.01   25.32
   2  -1   6  626.80   22.41
   2  -1   6  624.34   21.62
   2  -1   6  593.65   21.53
   2  -1   6  577.75   21.69
   2  -1   6  565.22   22.47
  -3   1  -6  882.64   32.40
  -3   1  -6  950.90   32.58
  -3   1  -6  967.58   32.85
  -3   1  -6  899.91   34.40
  -3   1  -6  967.46   34.86
   3  -1   6  945.09   33.63
   3  -1   6  948.20   33.95
   3  -1   6  965.75   34.06
  -4   1  -6  822.81   30.04
  -4   1  -6  903.95   33.70
  -4   1  -6  911.53   31.06
  -4   1  -6  925.01   31.43
  -4   1  -6  885.79   30.32
   4  -1   6  894.60   33.67
   4  -1   6  852.67   29.72
   4  -1   6  876.36   33.80
   4  -1   6  909.66   35.21
  -5   1  -6 1759.23   60.98
  -5   1  -6 1736.20   54.29
   5  -1   6 1713.49   61.58
   5  -1   6 1759.79   60.21
   5  -1   6 1652.80   60.09
  -6   1  -6   -3.83   11.30
  -6   1  -6   -0.57   10.99
  -6   1  -6    4.98    8.31
   6  -1   6   11.37    9.21
   6  -1   6   -3.14   10.02
  -7   1  -6   19.77   10.60
  -7   1  -6   15.66   14.99
  -7   1  -6   22.44   16.99
   7  -1   6   29.15   14.07
   6   0  -6   36.79   17.43
  -6   0   6   36.47   14.74
  -6   0   6   42.72   12.59
  -6   0   6   27.43   15.90
   5   0  -6  179.68   20.03
   5   0  -6  131.98   17.51
  -5   0   6  207.78   24.04
  -5   0   6  175.20   15.54
  -5   0   6  192.27   19.62
   4   0  -6  166.50   13.79
   4   0  -6  181.19   18.46
   4   0  -6  166.57   23.86
  -4   0   6  179.02   14.26
  -4   0   6  193.80   20.42
  -4   0   6  167.80   16.18
   3   0  -6  372.59   22.94
   3   0  -6  362.44   27.92
  -3   0   6  380.24   18.30
  -3   0   6  359.06   19.85
  -3   0   6  333.31   16.11
  -3   0   6  390.77   25.41
   2   0  -6  504.01   30.45
   2   0  -6  493.81   17.62
   2   0  -6  497.49   24.31
  -2   0   6  490.03   22.62
  -2   0   6  476.84   17.57
  -2   0   6  470.50   20.10
  -2   0   6  485.99   26.86
   1   0  -6   67.82    9.96
   1   0  -6   71.93    7.12
   1   0  -6   57.03   10.97
   1   0  -6   63.10    9.64
  -1   0   6   69.13    6.88
  -1   0   6   91.56    9.89
  -1   0   6   48.68    8.84
  -1   0   6   65.67    3.54
   0   0  -6  394.27   22.85
   0   0  -6  419.28   20.66
   0   0  -6  362.85   21.89
   0   0  -6  406.63   17.24
   0   0  -6  430.50   20.47
   0   0   6  442.81   19.02
   0   0   6  407.89   15.51
   0   0   6  409.27   21.27
   0   0   6  425.77   16.82
  -1   0  -6   40.80    8.59
  -1   0  -6   26.68    7.51
  -1   0  -6   23.37    6.33
  -1   0  -6   37.16    7.07
  -1   0  -6   23.96    6.41
  -1   0  -6   24.41    5.12
  -1   0  -6   35.14    7.08
   1   0   6   39.75    3.53
   1   0   6   39.28    7.51
   1   0   6   30.48    5.72
   1   0   6   36.72    5.86
   1   0   6   28.73    2.91
  -2   0  -6 2267.27   73.37
  -2   0  -6 2244.45   70.11
  -2   0  -6 2169.45   70.26
  -2   0  -6 2299.15   72.45
  -2   0  -6 2138.57   72.66
  -2   0  -6 2201.29   70.53
  -2   0  -6 2179.47   67.22
  -2   0  -6 2111.14   68.93
   2   0   6 2227.49   70.29
   2   0   6 2225.95   68.75
   2   0   6 2240.51   72.73
   2   0   6 2214.20   69.04
   2   0   6 2181.32   70.26
   2   0   6 2192.83   69.04
  -3   0  -6  461.04   17.44
  -3   0  -6  444.46   19.54
  -3   0  -6  444.39   17.75
  -3   0  -6  468.33   20.00
  -3   0  -6  466.50   18.23
  -3   0  -6  407.45   22.53
  -3   0  -6  455.38   21.50
   3   0   6  455.06   18.86
   3   0   6  463.81   18.82
   3   0   6  452.15   19.37
   3   0   6  461.30   19.77
   3   0   6  431.38   19.55
  -4   0  -6  285.74   17.95
  -4   0  -6  252.15   11.52
  -4   0  -6  267.60   12.07
  -4   0  -6  257.30   11.94
  -4   0  -6  244.62   11.36
  -4   0  -6  256.16   14.28
   4   0   6  272.70   15.45
   4   0   6  262.24   15.22
   4   0   6  271.48   15.10
  -5   0  -6 1076.85   34.82
  -5   0  -6 1149.02   42.47
  -5   0  -6 1161.62   43.96
  -5   0  -6  955.09   36.04
   5   0   6 1164.10   41.92
   5   0   6 1158.71   42.12
  -6   0  -6  192.64   19.76
   6   0   6  200.25   16.81
  -7   0  -6  118.68   19.44
  -7   0  -6  123.98   14.32
  -7   0  -6  142.46   19.67
   5  -1  -6   -3.10   11.43
   5  -1  -6    4.04   14.97
   5  -1  -6    8.97   14.26
  -5   1   6    1.50   11.76
  -5   1   6    1.55    8.63
  -5   1   6    4.97   12.38
  -5   1   6   13.45   11.54
   4  -1  -6   71.15   20.98
   4  -1  -6   54.97   13.86
   4  -1  -6   50.48   10.33
  -4   1   6   79.07   15.34
  -4   1   6   71.06   12.13
  -4   1   6   59.86    9.89
   3  -1  -6   66.27   13.45
   3  -1  -6   61.05    5.05
   3  -1  -6   59.97   16.21
  -3   1   6   53.97   11.80
  -3   1   6   75.48   11.73
  -3   1   6   48.18    7.91
   2  -1  -6 1170.83   48.55
   2  -1  -6 1107.80   42.74
   2  -1  -6 1087.50   35.87
  -2   1   6 1077.01   41.28
  -2   1   6 1005.51   36.22
  -2   1   6 1088.99   38.27
  -2   1   6 1140.02   46.37
   1  -1  -6  273.44   13.28
   1  -1  -6  256.34   16.45
  -1   1   6  289.15   13.75
  -1   1   6  288.76   18.94
  -1   1   6  302.95   16.14
   0  -1  -6  270.33   13.60
   0  -1  -6  239.63   18.51
   0  -1  -6  265.24   18.92
   0  -1  -6  241.85   15.09
   0   1   6  262.81   17.00
   0   1   6  262.82   12.38
   0   1   6  261.20   13.97
  -1  -1  -6   81.06    9.48
  -1  -1  -6  106.16   10.22
  -1  -1  -6  102.23    9.99
  -1  -1  -6   81.63   10.91
  -1  -1  -6  100.79   12.21
   1   1   6   81.84    7.35
   1   1   6   97.35   11.17
   1   1   6   86.26    5.48
   1   1   6   92.35    8.94
  -2  -1  -6  426.13   19.04
  -2  -1  -6  463.28   20.91
  -2  -1  -6  455.75   21.84
  -2  -1  -6  463.54   19.68
  -2  -1  -6  490.18   19.91
  -2  -1  -6  452.99   21.67
   2   1   6  479.68   17.79
   2   1   6  464.38   18.24
   2   1   6  492.54   21.70
   2   1   6  472.38   18.53
   2   1   6  473.36   18.83
   2   1   6  482.34   18.03
  -3  -1  -6  674.75   23.95
  -3  -1  -6  655.07   23.74
  -3  -1  -6  597.96   25.02
  -3  -1  -6  597.77   22.98
  -3  -1  -6  668.39   25.87
  -3  -1  -6  639.49   22.46
  -3  -1  -6  586.71   26.24
   3   1   6  652.67   24.88
   3   1   6  671.98   25.10
   3   1   6  687.59   25.72
   3   1   6  635.84   24.67
   3   1   6  614.57   25.28
  -4  -1  -6 1492.22   47.87
  -4  -1  -6 1386.68   47.32
  -4  -1  -6 1545.74   50.73
  -4  -1  -6 1503.44   52.98
  -4  -1  -6 1536.97   48.39
  -4  -1  -6 1473.18   48.27
  -4  -1  -6 1534.57   47.98
   4   1   6 1468.06   47.40
   4   1   6 1470.93   51.89
   4   1   6 1519.24   51.60
   4   1   6 1539.17   52.28
   4   1   6 1490.20   47.26
  -5  -1  -6   16.33    8.80
  -5  -1  -6    7.54    4.30
  -5  -1  -6    8.59    3.84
  -5  -1  -6   18.72   10.17
  -5  -1  -6   10.46    4.22
   5   1   6    6.89    5.91
   5   1   6   10.68    7.20
   5   1   6    6.18    7.21
  -6  -1  -6  143.85   15.84
  -6  -1  -6  146.00   16.58
  -6  -1  -6  187.24   15.22
   6   1   6  162.42   15.09
   6   1   6  176.18   15.85
   6   1   6  161.74   16.21
  -7  -1  -6  174.27   21.06
  -7  -1  -6  193.30   20.76
  -7  -1  -6  211.65   18.12
   5  -2  -6    7.70   13.42
   5  -2  -6    6.26   12.69
  -5   2   6    2.94   12.61
  -5   2   6    3.03   12.45
  -5   2   6    1.45    8.75
  -5   2   6    2.97   13.18
   4  -2  -6  897.68   49.28
   4  -2  -6  904.82   36.66
  -4   2   6  915.52   35.18
  -4   2   6  905.51   45.14
  -4   2   6  841.78   40.29
   3  -2  -6 1158.98   55.28
   3  -2  -6 1224.65   48.60
   3  -2  -6 1234.57   40.72
  -3   2   6 1273.59   48.36
  -3   2   6 1212.65   43.39
  -3   2   6 1295.90   53.86
  -3   2   6 1265.11   47.63
   2  -2  -6    5.49   11.27
   2  -2  -6    1.06    5.11
   2  -2  -6    6.62    9.22
  -2   2   6    7.24    7.84
  -2   2   6    5.85    7.09
  -2   2   6    3.55    4.35
  -2   2   6    7.97    4.88
  -2   2   6    0.97    5.27
   1  -2  -6  581.20   27.64
   1  -2  -6  658.65   23.81
   1  -2  -6  633.15   32.33
  -1   2   6  600.80   23.30
  -1   2   6  582.74   30.10
  -1   2   6  644.95   26.75
  -1   2   6  612.63   24.32
  -1   2   6  636.83   23.97
   0  -2  -6  529.69   27.62
   0  -2  -6  527.28   21.64
   0  -2  -6  529.04   24.07
   0   2   6  509.81   21.25
   0   2   6  510.06   18.92
   0   2   6  536.96   26.26
   0   2   6  552.48   22.86
   0   2   6  522.12   20.50
  -1  -2  -6   36.68    7.07
  -1  -2  -6   38.10    9.40
  -1  -2  -6   42.51    8.16
  -1  -2  -6   38.37    9.61
   1   2   6   32.11    7.34
   1   2   6   35.23    6.45
   1   2   6   49.12    6.95
   1   2   6   40.40    6.79
  -2  -2  -6   68.46    8.75
  -2  -2  -6   62.26    9.35
  -2  -2  -6   82.72   10.79
  -2  -2  -6   69.67    8.43
  -2  -2  -6   56.27    7.33
   2   2   6   65.85    6.67
   2   2   6   71.07    9.41
   2   2   6   66.48    6.52
   2   2   6   61.24    6.33
   2   2   6   58.27    6.54
  -3  -2  -6  355.48   17.79
  -3  -2  -6  340.91   13.45
  -3  -2  -6  357.06   15.57
  -3  -2  -6  354.45   17.79
  -3  -2  -6  347.14   15.45
  -3  -2  -6  390.45   18.65
   3   2   6  335.20   16.16
   3   2   6  328.06   16.76
   3   2   6  288.48   10.79
   3   2   6  350.55   15.75
   3   2   6  329.30   15.65
  -4  -2  -6 1120.14   38.18
  -4  -2  -6 1115.61   37.38
  -4  -2  -6 1037.10   38.17
  -4  -2  -6 1174.28   41.83
  -4  -2  -6 1076.71   36.80
   4   2   6 1069.62   40.54
   4   2   6 1072.68   39.63
   4   2   6 1146.07   40.70
   4   2   6 1064.31   37.33
  -5  -2  -6  246.78   17.93
  -5  -2  -6  228.85   11.57
  -5  -2  -6  223.03   11.67
   5   2   6  253.28   15.94
  -6  -2  -6  958.13   41.23
  -6  -2  -6  978.30   39.08
  -6  -2  -6 1009.97   40.79
   6   2   6  906.13   39.09
   6   2   6  971.99   40.99
  -7  -2  -6   46.55   14.06
  -7  -2  -6   68.62   13.75
  -7  -2  -6   63.80   17.63
   7   2   6   45.28   14.97
   5  -3  -6   26.78   15.23
   5  -3  -6   25.38   14.97
  -5   3   6   26.48   14.13
  -5   3   6   14.25    9.45
  -5   3   6   27.75   13.26
  -5   3   6   23.78   15.98
   4  -3  -6   31.73   14.52
   4  -3  -6   34.80   20.30
  -4   3   6   44.46   14.79
  -4   3   6   45.55    9.13
  -4   3   6   57.87   13.44
  -4   3   6   42.30   12.17
   3  -3  -6  746.08   35.66
   3  -3  -6  691.08   42.57
   3  -3  -6  773.88   29.01
  -3   3   6  783.60   34.19
  -3   3   6  765.07   39.37
  -3   3   6  837.87   35.08
  -3   3   6  757.90   29.92
   2  -3  -6  238.11   13.74
   2  -3  -6  218.26   23.44
   2  -3  -6  199.83   17.42
  -2   3   6  197.63   16.28
  -2   3   6  198.65   13.15
  -2   3   6  218.77   14.93
  -2   3   6  192.22   13.24
  -2   3   6  238.38   20.40
   1  -3  -6   41.69    7.76
   1  -3  -6   43.27   10.87
   1  -3  -6   16.76   10.41
  -1   3   6   37.59    6.29
  -1   3   6   50.25    8.97
  -1   3   6   39.33   10.19
  -1   3   6   39.90    6.46
   0  -3  -6  660.27   32.98
   0  -3  -6  678.94   26.55
   0  -3  -6  652.38   28.52
   0   3   6  638.80   23.36
   0   3   6  670.08   31.50
   0   3   6  645.06   26.79
  -1  -3  -6 1486.75   50.44
  -1  -3  -6 1538.10   51.90
  -1  -3  -6 1307.40   54.08
  -1  -3  -6 1491.26   55.30
   1   3   6 1507.14   54.56
   1   3   6 1443.55   46.96
   1   3   6 1435.43   45.66
   1   3   6 1504.05   50.09
  -2  -3  -6  304.42   19.77
  -2  -3  -6  328.44   16.90
  -2  -3  -6  316.01   11.48
  -2  -3  -6  333.98   17.12
  -2  -3  -6  323.53   19.83
   2   3   6  322.08   18.52
   2   3   6  292.15   14.81
   2   3   6  322.88   14.13
   2   3   6  322.58   14.42
   2   3   6  303.69   15.05
   2   3   6  316.30   14.70
  -3  -3  -6  681.55   29.32
  -3  -3  -6  715.27   26.94
  -3  -3  -6  669.59   28.29
  -3  -3  -6  698.57   29.34
  -3  -3  -6  623.32   22.99
   3   3   6  636.06   23.17
   3   3   6  664.51   25.48
   3   3   6  685.00   26.75
   3   3   6  652.93   28.03
   3   3   6  646.17   22.97
   3   3   6  729.29   26.99
  -4  -3  -6  354.91   18.79
  -4  -3  -6  346.92   16.83
  -4  -3  -6  355.71   16.77
  -4  -3  -6  418.56   19.87
  -4  -3  -6  384.35   19.51
  -4  -3  -6  321.97   16.59
  -4  -3  -6  351.01   20.51
   4   3   6  374.69   19.27
   4   3   6  349.12   18.00
   4   3   6  346.31   17.77
   4   3   6  360.97   18.60
  -5  -3  -6  225.77   12.92
  -5  -3  -6  196.17   14.43
  -5  -3  -6  244.47   13.76
  -5  -3  -6  228.82   13.99
  -5  -3  -6  224.09   19.60
   5   3   6  229.72   16.67
   5   3   6  240.52   16.86
   5   3   6  228.05   15.94
  -6  -3  -6  266.24   19.36
  -6  -3  -6  258.42   20.32
   6   3   6  278.84   21.36
   6   3   6  302.67   20.60
  -7  -3  -6  175.81   17.61
  -7  -3  -6  170.09   20.15
   7   3   6  188.92   19.16
   7   3   6  166.26   20.30
   5  -4  -6   38.47   17.80
   5  -4  -6   25.95   17.10
  -5   4   6   34.30   14.60
  -5   4   6   36.10   14.23
  -5   4   6   22.86   17.97
  -5   4   6   32.42    9.98
   4  -4  -6   38.15   15.63
   4  -4  -6   40.15   13.55
   4  -4  -6   41.86   30.77
  -4   4   6   37.95   11.55
  -4   4   6   48.86   13.21
  -4   4   6   34.48    8.65
  -4   4   6   73.45   18.32
  -3   4   6  249.14   18.66
  -3   4   6  259.81   25.60
  -3   4   6  245.85   19.31
  -3   4   6  282.06   15.40
   2  -4  -6   66.38   17.02
   2  -4  -6   72.27    9.88
   2  -4  -6   49.18   12.64
  -2   4   6   85.88   15.93
  -2   4   6   76.21    8.72
  -2   4   6   73.68   10.06
  -2   4   6   80.25   12.01
   1  -4  -6 1303.25   55.04
   1  -4  -6 1254.37   49.04
  -1   4   6 1265.58   52.83
  -1   4   6 1240.16   44.47
  -1   4   6 1313.52   48.11
   0  -4  -6 1019.19   40.51
   0  -4  -6  970.06   44.41
   0  -4  -6 1076.63   38.13
   0   4   6 1002.56   35.07
   0   4   6  991.61   43.10
   0   4   6 1011.95   38.74
  -1  -4  -6  161.88   14.03
  -1  -4  -6  129.46   15.64
  -1  -4  -6  136.62    9.44
  -1  -4  -6  153.14   12.93
   1   4   6  152.18   11.33
   1   4   6  140.03   14.98
   1   4   6  138.78    8.16
   1   4   6  129.78    7.95
  -2  -4  -6  642.09   23.28
  -2  -4  -6  642.97   32.29
  -2  -4  -6  669.95   32.15
  -2  -4  -6  731.36   28.83
  -2  -4  -6  690.92   29.11
   2   4   6  641.86   26.83
   2   4   6  689.11   26.46
   2   4   6  696.86   31.00
   2   4   6  684.97   24.89
   2   4   6  640.88   26.81
  -3  -4  -6  463.38   21.91
  -3  -4  -6  432.58   17.48
  -3  -4  -6  405.30   23.45
  -3  -4  -6  452.76   22.59
  -3  -4  -6  467.76   24.87
   3   4   6  420.08   18.40
   3   4   6  427.27   22.90
   3   4   6  474.39   20.69
   3   4   6  457.30   19.15
   3   4   6  403.68   18.20
   3   4   6  438.16   18.06
   3   4   6  464.50   20.69
  -4  -4  -6   56.28   11.56
  -4  -4  -6   53.15   10.12
  -4  -4  -6   46.01    7.84
  -4  -4  -6   49.13    9.24
  -4  -4  -6   67.77   10.99
  -4  -4  -6   78.53   11.89
   4   4   6   65.07   10.28
   4   4   6   56.58    9.30
   4   4   6   55.83    9.76
   4   4   6   53.10    7.97
  -5  -4  -6  697.21   28.73
  -5  -4  -6  720.01   29.97
  -5  -4  -6  720.96   32.19
   5   4   6  654.73   30.74
   5   4   6  738.31   32.45
  -6  -4  -6   36.77   12.84
  -6  -4  -6   40.50    8.06
  -6  -4  -6   42.35   11.34
   6   4   6   43.04   11.65
   6   4   6   30.92   11.80
  -7  -4  -6  336.92   26.73
  -7  -4  -6  368.75   25.44
   7   4   6  349.89   27.94
   7   4   6  347.37   25.31
   4  -5  -6   18.05   16.82
   4  -5  -6   14.98   14.56
  -4   5   6   17.06   15.57
  -4   5   6   28.56   14.55
  -4   5   6   18.48   11.62
  -4   5   6   13.88    8.54
   3  -5  -6   17.71   20.16
   3  -5  -6   28.98   14.16
   3  -5  -6   29.76   11.38
  -3   5   6   19.05    9.54
  -3   5   6   26.48    7.39
  -3   5   6   55.83   16.93
  -3   5   6   27.66   10.95
   2  -5  -6  382.76   27.72
   2  -5  -6  314.74   33.29
   2  -5  -6  368.48   20.76
  -2   5   6  378.44   23.69
  -2   5   6  366.13   20.55
  -2   5   6  400.99   29.23
   1  -5  -6  732.42   30.41
   1  -5  -6  701.70   41.39
  -1   5   6  728.40   32.81
  -1   5   6  751.54   38.61
  -1   5   6  739.89   30.02
   0  -5  -6  483.38   31.24
   0  -5  -6  420.33   24.95
   0  -5  -6  433.99   21.81
   0   5   6  422.25   19.05
   0   5   6  488.66   28.30
   0   5   6  456.72   22.41
   0   5   6  454.74   16.29
  -1  -5  -6   57.46   10.43
  -1  -5  -6   63.09   14.21
  -1  -5  -6   67.62    8.91
  -1  -5  -6   68.44   12.41
   1   5   6   83.57   13.96
   1   5   6   74.30    6.23
   1   5   6   66.13    7.37
   1   5   6   83.45   10.96
  -2  -5  -6 1045.34   40.93
  -2  -5  -6 1074.95   45.73
  -2  -5  -6 1003.68   35.68
  -2  -5  -6 1045.95   39.89
   2   5   6 1045.88   35.48
   2   5   6 1021.27   35.72
   2   5   6 1020.94   43.28
   2   5   6 1049.39   38.42
  -3  -5  -6   40.11   12.34
  -3  -5  -6   30.51    6.62
  -3  -5  -6   44.18   10.00
  -3  -5  -6   45.96   10.42
  -3  -5  -6   47.87   11.56
   3   5   6   42.19    7.03
   3   5   6   32.68    5.91
   3   5   6   35.25    8.04
   3   5   6   45.39   10.11
   3   5   6   33.25    7.18
   3   5   6   42.19    7.68
  -4  -5  -6  199.99   18.53
  -4  -5  -6  197.73   16.93
  -4  -5  -6  189.08   18.44
  -4  -5  -6  209.23   16.42
   4   5   6  185.94   14.65
   4   5   6  184.73   10.25
   4   5   6  197.16   15.19
   4   5   6  201.73   17.49
  -5  -5  -6   65.34   11.56
  -5  -5  -6   72.03   11.23
  -5  -5  -6   62.20   13.39
   5   5   6   77.37   11.93
   5   5   6   86.25   13.09
  -6  -5  -6   51.12   14.67
  -6  -5  -6   47.49   12.02
  -6  -5  -6   52.10   11.01
   6   5   6   42.52   13.38
   6   5   6   62.68   12.69
  -7  -5  -6   75.72   14.84
  -7  -5  -6   35.27   14.32
   7   5   6   48.38   14.23
   7   5   6   52.24   16.47
  -4   6   6   80.14   21.37
  -4   6   6   80.79   15.24
   3  -6  -6  128.81   27.53
   3  -6  -6  154.10   16.89
   3  -6  -6  106.21   19.86
   3  -6  -6  111.14   16.28
  -3   6   6  110.43   14.75
  -3   6   6  103.41   19.69
  -3   6   6  149.02   18.30
   2  -6  -6   41.97   12.35
   2  -6  -6   42.84   21.08
   2  -6  -6   29.83   14.49
  -2   6   6   57.73   15.98
  -2   6   6   53.24   13.10
  -2   6   6   47.38    9.89
   1  -6  -6  164.38   15.58
   1  -6  -6  112.91   16.56
   1  -6  -6  116.19   20.68
  -1   6   6  144.44   12.69
  -1   6   6  151.77   16.40
  -1   6   6  138.57   19.76
   0  -6  -6  400.43   25.58
   0  -6  -6  441.90   23.50
   0   6   6  402.71   19.71
   0   6   6  424.25   23.11
   0   6   6  411.22   28.56
   0   6   6  441.44   15.11
  -1  -6  -6   21.15   11.45
  -1  -6  -6   35.25   14.74
  -1  -6  -6   39.11   10.90
   1   6   6   34.60   11.87
   1   6   6   35.39    6.98
   1   6   6   35.70    4.74
   1   6   6   38.02    9.13
  -2  -6  -6  980.74   45.47
  -2  -6  -6  961.59   40.60
  -2  -6  -6  977.69   38.85
   2   6   6  988.49   37.46
   2   6   6  940.04   33.01
   2   6   6  935.19   43.69
   2   6   6  956.98   35.05
  -3  -6  -6  682.83   31.41
  -3  -6  -6  674.96   30.80
  -3  -6  -6  657.10   35.65
  -3  -6  -6  666.31   35.19
   3   6   6  662.58   28.25
   3   6   6  613.18   33.59
   3   6   6  677.14   27.63
  -4  -6  -6  121.54   16.82
  -4  -6  -6  116.80   15.12
  -4  -6  -6  117.02   16.03
  -4  -6  -6  129.84   16.20
   4   6   6  112.72   13.39
   4   6   6  119.57   12.65
   4   6   6  121.20   16.33
   4   6   6  111.02   10.45
  -5  -6  -6   63.21   13.38
  -5  -6  -6   58.14   12.84
  -5  -6  -6   61.91   13.66
   5   6   6   82.08   14.01
   5   6   6   65.09   12.40
  -6  -6  -6  256.53   23.73
  -6  -6  -6  242.93   21.05
  -6  -6  -6  252.37   21.65
   6   6   6  255.64   22.26
   6   6   6  268.84   20.87
  -7  -6  -6   19.66   16.78
  -7  -6  -6   19.64   13.30
   7   6   6   32.91   14.35
   7   6   6   31.59   16.57
   3  -7  -6   89.65   21.52
   3  -7  -6   87.50   17.32
   3  -7  -6  133.53   19.52
   3  -7  -6   98.19   29.65
  -3   7   6  107.98   15.50
  -3   7   6   98.28   21.87
  -3   7   6  130.01   20.04
   2  -7  -6   26.38   17.10
   2  -7  -6   30.63   14.54
   2  -7  -6   24.96   12.19
   2  -7  -6   19.01   20.37
  -2   7   6   21.26   14.85
  -2   7   6   52.34   13.85
  -2   7   6   29.40    9.96
   1  -7  -6   81.45   22.89
   1  -7  -6   69.74   15.21
   1  -7  -6   76.72   18.34
  -1   7   6  112.09   15.94
  -1   7   6   56.80   15.71
  -1   7   6   89.27   11.95
   0  -7  -6   40.37   17.57
   0  -7  -6   27.97   13.48
   0  -7  -6   52.84   13.42
   0   7   6   64.58   16.08
   0   7   6   58.46   12.04
   0   7   6   63.59   10.01
  -1  -7  -6  867.03   39.94
  -1  -7  -6  856.55   37.23
  -1  -7  -6  874.05   46.68
   1   7   6  869.49   37.10
   1   7   6  818.47   43.25
   1   7   6  811.28   33.25
  -2  -7  -6   56.24   12.70
  -2  -7  -6   54.46   16.45
  -2  -7  -6   46.84   13.63
  -2  -7  -6   45.87   15.45
   2   7   6   72.52   10.15
   2   7   6   72.36   11.76
   2   7   6   99.49   17.66
  -3  -7  -6  254.96   19.89
  -3  -7  -6  217.74   25.15
  -3  -7  -6  250.12   26.22
  -3  -7  -6  234.50   22.30
   3   7   6  225.57   22.71
   3   7   6  218.43   16.41
   3   7   6  234.57   16.28
  -4  -7  -6   45.12   13.66
  -4  -7  -6   67.91   15.42
  -4  -7  -6   66.56   14.76
   4   7   6   87.68   11.88
   4   7   6   86.14   13.34
   4   7   6   76.08   11.06
  -5  -7  -6  235.26   21.53
  -5  -7  -6  244.03   24.58
  -5  -7  -6  235.30   22.40
   5   7   6  233.08   21.75
   5   7   6  232.89   20.16
  -6  -7  -6  112.83   17.34
  -6  -7  -6   86.20   16.21
  -6  -7  -6   82.00   18.56
   6   7   6  102.81   19.47
   6   7   6   68.65   14.13
   2  -8  -6   52.68   18.61
   2  -8  -6   25.09   17.24
   2  -8  -6   41.99   27.56
  -2   8   6   76.74   23.36
  -2   8   6   29.62   11.65
  -2   8   6   50.87   15.61
   1  -8  -6   26.96   22.25
   1  -8  -6   80.44   16.24
   1  -8  -6   43.58   17.93
  -1   8   6   34.86   10.64
  -1   8   6   95.03   22.20
  -1   8   6   84.22   16.02
   0  -8  -6   14.61   15.04
   0  -8  -6   24.18   19.72
   0  -8  -6   26.23   19.59
   0  -8  -6   31.70   14.25
   0   8   6   12.75   13.90
   0   8   6   10.67    7.87
   0   8   6   12.70   10.53
  -1  -8  -6  495.62   38.42
  -1  -8  -6  496.38   39.33
  -1  -8  -6  469.18   30.81
  -1  -8  -6  438.17   28.05
   1   8   6  500.69   26.89
   1   8   6  505.85   35.17
   1   8   6  470.05   24.16
  -2  -8  -6  188.87   19.52
  -2  -8  -6  166.25   24.61
  -2  -8  -6  178.11   20.66
  -2  -8  -6  145.43   23.03
   2   8   6  165.94   15.38
   2   8   6  178.15   17.96
   2   8   6  185.78   23.10
  -3  -8  -6  148.18   22.53
  -3  -8  -6  141.37   17.99
  -3  -8  -6  184.33   25.81
  -3  -8  -6  132.55   18.83
   3   8   6  159.19   16.12
   3   8   6  208.24   25.48
   3   8   6  165.96   15.13
  -4  -8  -6   -0.60   13.79
  -4  -8  -6   -1.45   12.69
  -4  -8  -6    1.18   13.17
   4   8   6    5.16   10.08
   4   8   6    1.33    9.47
   4   8   6    2.62    8.50
  -5  -8  -6  524.96   32.07
  -5  -8  -6  558.57   32.15
  -5  -8  -6  560.34   35.99
   5   8   6  549.28   30.08
   5   8   6  509.94   30.81
  -6  -8  -6  108.46   21.29
  -6  -8  -6  114.86   19.64
   6   8   6  102.71   16.32
   6   8   6  105.57   22.50
   1  -9  -6   66.01   21.17
   1  -9  -6   30.38   26.41
   1  -9  -6   41.10   19.21
   1  -9  -6   38.18   24.23
  -1   9   6   72.38   14.37
  -1   9   6   69.70   18.64
  -1   9   6   80.54   23.40
   0  -9  -6  115.60   26.46
   0  -9  -6  114.48   22.98
   0  -9  -6  144.73   29.13
   0  -9  -6  169.10   22.64
   0   9   6  196.28   22.02
   0   9   6  161.90   27.71
   0   9   6  117.86   15.40
  -1  -9  -6    0.31   15.47
  -1  -9  -6   -5.03   14.83
  -1  -9  -6    9.40   22.66
  -1  -9  -6    2.84   18.04
   1   9   6   10.95   13.13
   1   9   6   -0.44    8.50
   1   9   6   -0.94   15.83
  -2  -9  -6   69.79   19.52
  -2  -9  -6  126.72   19.83
  -2  -9  -6   91.97   19.31
  -2  -9  -6  138.54   25.91
   2   9   6  133.19   23.38
   2   9   6  136.13   15.84
   2   9   6  135.90   17.86
  -3  -9  -6   81.61   19.23
  -3  -9  -6   44.24   17.95
  -3  -9  -6   65.02   18.34
   3   9   6   66.67   12.01
   3   9   6   70.67   19.53
   3   9   6   68.09   14.56
  -4  -9  -6   81.56   20.32
  -4  -9  -6   71.53   20.16
  -4  -9  -6   75.51   19.59
   4   9   6   96.94   15.45
   4   9   6   90.39   13.78
  -5  -9  -6   30.29   20.24
  -5  -9  -6   21.91   16.53
  -5  -9  -6   32.55   17.42
  -5  -9  -6   28.23   14.57
   5   9   6   34.28   15.68
   5   9   6   25.97   12.79
  -1 -10  -6   27.01   23.29
  -1 -10  -6   53.31   19.89
  -1 -10  -6   44.45   26.33
  -1 -10  -6   27.89   18.88
   1  10   6   45.44   20.73
   1  10   6   45.65   12.77
   1  10   6   76.07   18.65
  -2 -10  -6  179.04   27.16
  -2 -10  -6  252.85   28.58
  -2 -10  -6  267.49   26.80
   2  10   6  254.78   31.12
   2  10   6  263.45   25.47
   2  10   6  293.36   19.89
  -3 -10  -6   44.19   20.62
  -3 -10  -6   51.81   19.78
  -3 -10  -6   58.55   20.27
   3  10   6   65.26   17.17
   3  10   6   49.10   12.11
   1   9  -7  174.93   26.10
   1   9  -7  185.02   34.11
   1   9  -7  142.52   20.25
  -1  -9   7  146.92   21.37
  -1  -9   7  183.34   28.27
   0   9  -7  124.77   18.02
   0   9  -7  134.10   29.03
   0   9  -7  134.19   23.31
   0  -9   7  152.80   20.88
   0  -9   7  174.00   25.83
  -1   9  -7   76.51   25.88
  -1   9  -7  137.08   20.02
  -1   9  -7   93.09   21.79
   1  -9   7   87.14   15.96
   1  -9   7  112.78   24.40
  -2   9  -7   61.84   22.83
  -2   9  -7   56.13   15.80
  -2   9  -7   58.55   25.53
   2  -9   7   43.40   13.98
   3   8  -7  245.53   29.03
   3   8  -7  209.72   35.49
  -3  -8   7  244.56   20.95
  -3  -8   7  261.08   24.63
  -3  -8   7  266.36   31.90
   2   8  -7  405.52   45.09
   2   8  -7  451.95   35.04
  -2  -8   7  417.44   23.10
  -2  -8   7  423.45   34.89
  -2  -8   7  432.43   30.02
   1   8  -7  116.36   18.86
   1   8  -7  110.96   21.16
   1   8  -7  155.72   31.73
  -1  -8   7  114.59   17.76
  -1  -8   7   66.86   17.78
   0   8  -7  165.27   19.50
   0   8  -7  178.48   23.11
   0   8  -7  166.34   27.75
   0  -8   7  166.47   19.37
   0  -8   7  214.93   26.34
  -1   8  -7   74.59   22.18
  -1   8  -7  120.29   20.13
  -1   8  -7   72.40   14.68
   1  -8   7   71.31   17.68
   1  -8   7   96.29   15.66
  -2   8  -7  107.98   20.51
  -2   8  -7  106.84   16.91
  -2   8  -7   96.88   23.96
   2  -8   7  120.27   15.92
   2  -8   7  120.94   13.81
   2  -8   7  124.78   15.39
  -3   8  -7   46.55   21.22
  -3   8  -7   64.98   20.76
  -3   8  -7   57.09   15.35
   3  -8   7   58.90   14.97
   4   7  -7  168.77   32.94
   4   7  -7  225.89   27.26
  -4  -7   7  274.80   27.80
  -4  -7   7  183.69   27.15
  -4  -7   7  238.35   19.51
   3   7  -7  251.11   34.40
   3   7  -7  247.03   25.61
  -3  -7   7  219.92   19.28
  -3  -7   7  266.50   28.00
  -3  -7   7  267.79   26.14
   2   7  -7  107.69   23.98
   2   7  -7  100.81   19.27
  -2  -7   7  124.11   12.78
  -2  -7   7  113.52   16.37
  -2  -7   7  108.62   19.04
   1   7  -7   89.82   17.78
   1   7  -7  119.70   26.16
   1   7  -7   85.44   16.17
  -1  -7   7   98.03   10.53
  -1  -7   7   92.21   14.88
  -1  -7   7   73.09   16.29
   0   7  -7  283.30   21.76
   0   7  -7  271.39   23.99
   0   7  -7  308.25   32.52
   0  -7   7  258.32   14.66
   0  -7   7  300.38   27.44
   0  -7   7  297.03   21.09
  -1   7  -7   49.18   15.00
  -1   7  -7   52.11   19.57
  -1   7  -7   54.30   11.97
   1  -7   7   55.41   14.72
   1  -7   7   55.34    9.20
   1  -7   7   40.35   11.12
  -2   7  -7  404.88   29.40
  -2   7  -7  420.66   26.10
  -2   7  -7  393.52   34.69
   2  -7   7  393.81   22.54
   2  -7   7  383.46   22.50
   2  -7   7  388.20   20.47
   2  -7   7  349.86   29.39
  -3   7  -7   88.48   15.53
  -3   7  -7   86.32   18.56
  -3   7  -7  109.44   22.80
   3  -7   7   85.66   14.17
   3  -7   7   75.06   11.21
  -4   7  -7   77.41   18.55
  -4   7  -7  100.05   22.98
  -4   7  -7   78.09   17.39
   4  -7   7   89.94   16.24
   4   6  -7   65.01   19.71
   4   6  -7   93.84   19.61
   4   6  -7   78.99   29.97
  -4  -6   7   77.08   16.23
  -4  -6   7   90.67   13.41
  -4  -6   7   52.65   16.61
   3   6  -7  116.75   19.48
   3   6  -7  137.15   28.41
  -3  -6   7  133.60   21.44
  -3  -6   7  120.24   16.97
  -3  -6   7  111.61   12.99
   2   6  -7   16.80    8.53
   2   6  -7   20.21   14.38
   2   6  -7   16.09   16.50
  -2  -6   7   17.42    7.91
  -2  -6   7   19.94   11.55
  -2  -6   7   20.30   10.12
   1   6  -7  414.14   34.62
   1   6  -7  429.90   27.02
  -1  -6   7  441.97   20.21
  -1  -6   7  453.28   30.65
  -1  -6   7  427.79   25.62
   0   6  -7  622.13   29.69
   0   6  -7  620.50   32.00
   0   6  -7  583.51   39.48
   0  -6   7  579.60   23.12
   0  -6   7  594.67   22.13
   0  -6   7  607.26   29.68
   0  -6   7  568.43   34.12
  -1   6  -7  153.70   17.93
  -1   6  -7  182.51   16.68
  -1   6  -7  185.53   24.30
   1  -6   7  174.17   12.73
   1  -6   7  144.30   18.33
   1  -6   7  168.32    9.77
   1  -6   7  182.44   16.02
  -2   6  -7  135.14   15.43
  -2   6  -7  146.78   18.26
  -2   6  -7  122.57   20.43
   2  -6   7  129.27   12.77
   2  -6   7  136.24   13.22
   2  -6   7  147.52   18.90
  -3   6  -7  313.68   22.06
  -3   6  -7  337.47   25.07
  -3   6  -7  354.15   29.78
   3  -6   7  324.19   18.33
   3  -6   7  349.45   18.92
   3  -6   7  349.75   21.53
  -4   6  -7  133.06   18.14
  -4   6  -7  121.62   20.48
  -4   6  -7  141.35   17.50
   4  -6   7  105.87   13.17
   4  -6   7  109.59   15.58
  -5   6  -7   35.93   17.43
  -5   6  -7   53.47   15.45
   5  -6   7   49.09   15.55
   5  -6   7   51.07   12.50
   5   5  -7   86.83   24.35
  -5  -5   7   64.86   18.08
  -5  -5   7   82.09   17.40
  -5  -5   7   93.00   16.51
   4   5  -7   74.33   20.56
   4   5  -7   59.40   17.32
   4   5  -7   98.10   27.95
  -4  -5   7   67.05   11.95
  -4  -5   7  112.48   16.70
  -4  -5   7   72.61   16.96
   3   5  -7    3.88   13.29
   3   5  -7    6.91   19.39
  -3  -5   7   -0.18    8.49
  -3  -5   7    4.68   10.80
  -3  -5   7    4.69    7.72
   2   5  -7   52.72    8.58
   2   5  -7   69.62   15.15
   2   5  -7   41.71   17.70
  -2  -5   7   40.67   11.28
  -2  -5   7   45.87    8.30
  -2  -5   7   70.44   15.52
   1   5  -7  315.19   23.91
   1   5  -7  266.76   28.09
  -1  -5   7  323.68   25.06
  -1  -5   7  305.20   19.95
  -1  -5   7  299.79   15.51
   0   5  -7  501.77   27.46
   0   5  -7  529.94   34.90
   0   5  -7  505.42   25.24
   0  -5   7  462.90   24.49
   0  -5   7  495.84   30.23
   0  -5   7  508.17   20.51
  -1   5  -7 1049.38   41.45
  -1   5  -7  989.81   39.14
  -1   5  -7 1012.38   47.71
   1  -5   7  977.46   38.28
   1  -5   7  928.30   43.49
   1  -5   7  966.07   33.30
   1  -5   7 1029.09   35.43
  -2   5  -7  169.57   15.96
  -2   5  -7  186.50   17.93
  -2   5  -7  181.13   21.08
   2  -5   7  155.19   12.95
   2  -5   7  166.13   18.39
   2  -5   7  183.02   13.38
  -3   5  -7  545.61   33.09
  -3   5  -7  543.87   27.94
  -3   5  -7  581.17   27.58
   3  -5   7  530.99   29.84
   3  -5   7  543.24   23.10
   3  -5   7  548.00   24.29
   3  -5   7  570.37   26.78
  -4   5  -7   29.94   13.40
  -4   5  -7   27.89   12.12
  -4   5  -7   16.89   10.73
   4  -5   7   21.28   10.81
   4  -5   7   12.94    8.29
  -5   5  -7  100.70   16.77
  -5   5  -7  105.35   17.81
   5  -5   7  106.11   13.51
   5  -5   7  126.90   17.73
  -6   5  -7   18.03   16.49
   6  -5   7   26.81   16.45
   6  -5   7   23.24   12.87
   5   4  -7   19.07   19.51
  -5  -4   7   20.00   13.15
  -5  -4   7   20.99   11.30
  -5  -4   7   17.94   14.41
   4   4  -7   53.29   16.67
   4   4  -7   38.42   23.19
   4   4  -7   43.96   15.15
  -4  -4   7   23.78    9.24
  -4  -4   7   54.98   14.07
  -4  -4   7   34.62   12.95
   3   4  -7  300.24   33.77
   3   4  -7  297.56   18.01
   3   4  -7  284.72   24.90
   3   4  -7  275.24   24.31
  -3  -4   7  278.89   21.43
  -3  -4   7  292.82   17.90
  -3  -4   7  256.43   24.56
   2   4  -7  999.51   42.31
   2   4  -7  938.04   48.58
   2   4  -7  972.89   33.74
  -2  -4   7  970.28   36.26
  -2  -4   7 1008.54   46.66
  -2  -4   7  994.78   40.49
   1   4  -7  287.82   26.71
   1   4  -7  258.01   12.05
   1   4  -7  253.91   21.35
  -1  -4   7  242.56   17.98
  -1  -4   7  260.14   21.50
  -1  -4   7  285.69   14.85
   0   4  -7  710.50   37.52
   0   4  -7  719.75   30.25
   0   4  -7  690.53   31.34
   0  -4   7  688.29   29.85
   0  -4   7  722.76   35.02
   0  -4   7  672.78   25.69
  -1   4  -7 1860.70   63.93
  -1   4  -7 1788.32   61.59
  -1   4  -7 1835.37   69.39
   1  -4   7 1802.05   55.89
   1  -4   7 1760.50   66.86
   1  -4   7 1758.17   58.16
   1  -4   7 1838.50   57.78
   1  -4   7 1760.35   61.75
  -2   4  -7  523.37   23.43
  -2   4  -7  490.79   29.00
  -2   4  -7  449.48   28.79
  -2   4  -7  508.17   24.40
  -2   4  -7  410.44   18.18
   2  -4   7  514.21   21.94
   2  -4   7  510.10   21.91
   2  -4   7  499.64   18.51
   2  -4   7  483.45   26.32
  -3   4  -7  271.10   17.37
  -3   4  -7  261.91   17.50
  -3   4  -7  258.39   22.35
   3  -4   7  258.14   17.57
   3  -4   7  226.05   18.03
   3  -4   7  275.27   13.70
   3  -4   7  286.26   15.78
  -4   4  -7  178.04   16.35
  -4   4  -7  179.53   19.64
  -4   4  -7  166.47   15.84
   4  -4   7  191.79   15.10
   4  -4   7  167.72   16.17
  -5   4  -7    7.31   10.72
  -5   4  -7    8.09   11.41
   5  -4   7    6.93    8.40
   5  -4   7   14.86   11.94
  -6   4  -7  108.86   18.03
   6  -4   7  122.92   18.38
   6  -4   7   91.32   14.54
   5   3  -7  164.69   23.54
  -5  -3   7  180.18   17.49
  -5  -3   7  192.28   21.60
  -5  -3   7  156.20   22.65
   4   3  -7  117.11   24.79
   4   3  -7  176.52   21.13
  -4  -3   7  158.72   14.92
  -4  -3   7  199.28   24.56
  -4  -3   7  165.69   18.99
   3   3  -7  212.31   20.61
   3   3  -7  217.27   20.31
   3   3  -7  172.87   23.27
  -3  -3   7  190.81   17.32
  -3  -3   7  178.77   13.99
  -3  -3   7  205.23   21.22
   2   3  -7  139.27   11.84
   2   3  -7  127.22   20.18
   2   3  -7  149.85   17.03
   2   3  -7  148.55    9.00
  -2  -3   7  148.18   11.72
  -2  -3   7  146.52   14.06
  -2  -3   7  143.24   17.98
   1   3  -7  429.81   23.35
   1   3  -7  387.30   28.19
   1   3  -7  402.03   14.18
  -1  -3   7  398.64   18.07
  -1  -3   7  375.29   20.75
  -1  -3   7  397.05   25.26
   0   3  -7 1022.27   40.62
   0   3  -7 1041.57   46.26
   0   3  -7  991.93   33.66
   0  -3   7 1048.86   39.40
   0  -3   7 1045.69   43.84
   0  -3   7 1088.64   36.12
  -1   3  -7   51.68   10.74
  -1   3  -7   66.31   17.17
  -1   3  -7   56.68   12.90
  -1   3  -7   49.60    7.57
  -1   3  -7   42.47    6.73
   1  -3   7   69.98    8.97
   1  -3   7   64.90    5.67
   1  -3   7   49.58    9.54
   1  -3   7   67.05    6.60
  -2   3  -7 1484.30   52.17
  -2   3  -7 1621.91   61.31
  -2   3  -7 1668.55   57.30
  -2   3  -7 1750.61   55.59
  -2   3  -7 1533.18   53.94
  -2   3  -7 1708.28   61.94
   2  -3   7 1625.63   59.68
   2  -3   7 1719.61   55.23
   2  -3   7 1729.36   53.20
   2  -3   7 1600.70   54.74
  -3   3  -7  275.43   13.04
  -3   3  -7  263.97   16.93
  -3   3  -7  249.22   19.77
  -3   3  -7  290.11   16.19
  -3   3  -7  279.68   19.48
   3  -3   7  310.76   16.98
   3  -3   7  272.59   14.12
   3  -3   7  292.78   15.73
   3  -3   7  275.62   11.95
   3  -3   7  277.91   17.65
   3  -3   7  269.16   12.01
  -4   3  -7  342.06   19.79
  -4   3  -7  342.46   21.20
  -4   3  -7  352.04   18.83
   4  -3   7  373.25   19.66
   4  -3   7  365.92   21.49
  -5   3  -7  164.45   13.24
  -5   3  -7  179.76   18.48
  -5   3  -7  178.84   15.41
   5  -3   7  220.48   19.26
   5  -3   7  162.65   14.90
  -6   3  -7  219.99   22.12
   6  -3   7  247.58   22.35
   6  -3   7  214.09   18.11
  -7   3  -7   28.30   17.48
   7  -3   7   36.94   17.32
   5   2  -7  436.17   30.44
  -5  -2   7  386.24   23.70
  -5  -2   7  406.39   32.44
  -5  -2   7  360.94   27.02
   4   2  -7    3.21   13.57
   4   2  -7   10.70   18.67
  -4  -2   7    9.86    8.08
  -4  -2   7    7.23   11.24
  -4  -2   7    5.89    9.56
   3   2  -7 1260.94   58.88
   3   2  -7 1309.25   51.98
   3   2  -7 1288.97   51.48
  -3  -2   7 1356.67   56.24
  -3  -2   7 1286.45   50.37
  -3  -2   7 1263.89   46.34
   2   2  -7  186.25   11.53
   2   2  -7  196.90   21.84
   2   2  -7  185.93   17.68
   2   2  -7  182.69   16.72
  -2  -2   7  181.94   14.96
  -2  -2   7  170.52   18.14
  -2  -2   7  193.11   13.01
   1   2  -7  345.45   12.91
   1   2  -7  350.51   20.99
   1   2  -7  364.32   27.02
  -1  -2   7  362.81   19.39
  -1  -2   7  339.81   16.67
  -1  -2   7  403.13   24.35
   0   2  -7  350.96   14.50
   0   2  -7  360.89   19.81
   0   2  -7  372.79   24.85
   0  -2   7  348.18   15.62
   0  -2   7  338.79   15.89
   0  -2   7  344.71   17.90
   0  -2   7  362.91   21.96
  -1   2  -7  723.53   24.15
  -1   2  -7  759.79   30.49
  -1   2  -7  683.75   33.73
  -1   2  -7  775.50   26.67
  -1   2  -7  682.12   26.19
  -1   2  -7  704.55   33.58
   1  -2   7  724.11   28.03
   1  -2   7  750.39   32.65
   1  -2   7  714.46   25.98
   1  -2   7  681.77   26.31
  -2   2  -7  209.16   13.94
  -2   2  -7  217.55   17.49
  -2   2  -7  234.27   12.42
  -2   2  -7  274.83   12.90
  -2   2  -7  210.86   11.76
  -2   2  -7  241.50   18.09
   2  -2   7  228.21   12.22
   2  -2   7  228.76   12.16
   2  -2   7  218.67   15.64
   2  -2   7  225.16   11.58
   2  -2   7  202.66   12.37
  -3   2  -7  571.95   26.97
  -3   2  -7  556.83   21.84
  -3   2  -7  576.08   24.35
  -3   2  -7  573.42   26.75
  -3   2  -7  599.78   22.97
   3  -2   7  563.56   18.48
   3  -2   7  612.80   23.90
   3  -2   7  496.31   23.69
   3  -2   7  570.57   22.93
   3  -2   7  547.77   18.42
   3  -2   7  551.54   24.83
   3  -2   7  564.28   24.16
  -4   2  -7  527.15   24.40
  -4   2  -7  501.66   22.96
  -4   2  -7  526.11   22.43
  -4   2  -7  485.71   23.61
   4  -2   7  556.04   23.92
   4  -2   7  533.75   23.21
   4  -2   7  506.42   24.49
  -5   2  -7   89.80   12.56
  -5   2  -7  104.10   11.00
   5  -2   7  114.04   12.49
   5  -2   7  120.20   14.68
  -6   2  -7  452.76   22.14
  -6   2  -7  454.49   27.38
   6  -2   7  444.54   25.16
   6  -2   7  425.54   27.17
  -7   2  -7  138.31   20.12
  -7   2  -7  150.37   22.75
   7  -2   7  209.57   22.96
   5   1  -7  123.18   20.05
  -5  -1   7  183.93   20.03
  -5  -1   7  161.49   15.91
  -5  -1   7  197.92   26.03
   4   1  -7  315.97   35.37
   4   1  -7  398.59   27.89
  -4  -1   7  381.25   21.15
  -4  -1   7  374.68   28.38
  -4  -1   7  366.27   24.60
   3   1  -7  404.47   26.41
   3   1  -7  399.89   16.88
   3   1  -7  393.15   32.66
  -3  -1   7  401.48   20.29
  -3  -1   7  394.91   23.67
  -3  -1   7  434.53   27.66
   2   1  -7  316.15   27.46
   2   1  -7  332.36   21.17
   2   1  -7  339.23   14.56
   2   1  -7  339.34   21.67
  -2  -1   7  323.81   16.47
  -2  -1   7  336.85   23.29
  -2  -1   7  333.56   19.80
   1   1  -7  391.50   26.92
   1   1  -7  368.86   17.18
   1   1  -7  375.09   21.61
   1   1  -7  394.67   21.38
  -1  -1   7  379.18   23.41
  -1  -1   7  390.24   17.22
  -1  -1   7  372.17   20.03
   0   1  -7  179.85   12.54
   0   1  -7  194.51   14.48
   0   1  -7  174.20   18.23
   0  -1   7  181.98   12.40
   0  -1   7  182.68   10.42
   0  -1   7  173.87   15.16
   0  -1   7  177.35    9.87
  -1   1  -7  185.91   17.32
  -1   1  -7  163.59   16.26
  -1   1  -7  176.78   11.18
  -1   1  -7  187.64   13.38
   1  -1   7  189.52   14.60
   1  -1   7  189.23   10.32
   1  -1   7  198.97   11.49
   1  -1   7  177.22   12.37
   1  -1   7  158.27    8.81
  -2   1  -7  420.85   19.86
  -2   1  -7  405.26   22.45
  -2   1  -7  393.36   16.58
  -2   1  -7  424.29   16.09
  -2   1  -7  402.06   22.61
   2  -1   7  419.66   17.15
   2  -1   7  399.85   17.80
   2  -1   7  443.30   21.64
   2  -1   7  394.45   16.91
   2  -1   7  420.17   16.57
   2  -1   7  400.65   17.24
  -3   1  -7 1760.14   60.01
  -3   1  -7 1833.43   56.03
  -3   1  -7 1723.92   59.38
  -3   1  -7 1432.46   57.90
  -3   1  -7 1735.55   56.97
   3  -1   7 1682.90   58.48
   3  -1   7 1838.60   58.10
   3  -1   7 1802.94   58.13
  -4   1  -7  551.41   21.91
  -4   1  -7  541.51   23.09
  -4   1  -7  560.83   23.30
  -4   1  -7  574.83   23.22
  -4   1  -7  513.52   22.18
   4  -1   7  528.45   24.01
   4  -1   7  500.32   21.44
   4  -1   7  587.40   24.11
  -5   1  -7  346.06   18.07
  -5   1  -7  382.36   20.52
   5  -1   7  347.56   19.93
   5  -1   7  393.82   21.16
  -6   1  -7   53.98   10.31
  -6   1  -7   41.46   14.83
  -6   1  -7   55.96   13.05
   6  -1   7   43.17   10.88
  -7   1  -7  374.73   27.71
  -7   1  -7  289.50   26.48
   5   0  -7   14.33   16.72
  -5   0   7   46.80   16.00
  -5   0   7   25.20   13.08
  -5   0   7   23.56   10.09
   4   0  -7  383.81   36.68
   4   0  -7  408.17   26.29
  -4   0   7  397.34   21.72
  -4   0   7  370.43   23.49
  -4   0   7  431.05   30.05
   3   0  -7  605.02   32.04
   3   0  -7  600.30   38.78
  -3   0   7  626.77   29.42
  -3   0   7  636.73   34.84
  -3   0   7  630.65   26.26
   2   0  -7 1216.56   47.32
   2   0  -7 1246.46   39.90
   2   0  -7 1179.33   53.01
  -2   0   7 1234.61   46.17
  -2   0   7 1220.45   42.85
  -2   0   7 1176.80   38.76
  -2   0   7 1253.56   51.54
   1   0  -7  563.96   26.69
   1   0  -7  586.11   27.16
   1   0  -7  556.44   21.76
   1   0  -7  562.91   31.23
  -1   0   7  576.34   22.77
  -1   0   7  529.02   24.57
  -1   0   7  551.40   28.85
   0   0  -7  104.37   12.12
   0   0  -7   99.21   13.82
   0   0  -7  103.06   10.24
   0   0  -7   93.49   11.92
   0   0   7  131.52   15.10
   0   0   7  105.66    7.27
   0   0   7   92.19    8.04
   0   0   7  107.13   10.40
  -1   0  -7   60.49   11.06
  -1   0  -7   47.28    8.48
  -1   0  -7   40.29    8.11
  -1   0  -7   43.56    8.04
  -1   0  -7   33.09    8.66
   1   0   7   46.81    3.98
   1   0   7   54.18    7.49
   1   0   7   39.10    8.00
   1   0   7   51.70    7.05
  -2   0  -7  147.61   14.12
  -2   0  -7  128.56   13.26
  -2   0  -7  132.13    6.10
  -2   0  -7  108.21    8.00
  -2   0  -7  132.72   11.52
  -2   0  -7  135.16   12.22
   2   0   7  119.62   11.67
   2   0   7  123.67    9.02
   2   0   7  133.91    7.81
   2   0   7  129.46    8.84
   2   0   7  122.55    8.87
   2   0   7  129.95    9.28
  -3   0  -7  466.65   20.19
  -3   0  -7  490.92   17.65
  -3   0  -7  442.94   19.93
  -3   0  -7  456.75   22.02
  -3   0  -7  483.20   22.59
  -3   0  -7  477.27   23.07
   3   0   7  471.90   19.16
   3   0   7  472.98   20.46
   3   0   7  437.52   20.69
   3   0   7  489.93   20.68
  -4   0  -7  134.78   10.12
  -4   0  -7  132.82   10.95
  -4   0  -7  152.68   11.79
  -4   0  -7  126.31   10.97
  -4   0  -7  149.07   15.19
  -4   0  -7  126.54   10.82
   4   0   7  126.89    9.32
   4   0   7  140.53   11.81
   4   0   7  142.49   12.06
   4   0   7  105.96   10.40
  -5   0  -7 1204.72   43.23
  -5   0  -7 1257.08   47.39
  -5   0  -7 1112.91   39.00
   5   0   7 1127.61   43.79
   5   0   7 1170.59   44.45
  -6   0  -7  225.14   21.37
  -6   0  -7  216.44   21.18
  -6   0  -7  219.18   17.12
   6   0   7  234.16   18.75
  -7   0  -7  261.69   26.70
  -7   0  -7  233.17   18.62
  -7   0  -7  204.93   23.32
   5  -1  -7  153.42   25.63
  -5   1   7  190.68   23.06
  -5   1   7  184.31   17.01
  -5   1   7  186.68   22.53
  -5   1   7  129.16   21.47
   4  -1  -7  127.38   20.33
   4  -1  -7  127.53   26.14
   4  -1  -7  164.64   14.91
  -4   1   7  140.07   18.37
  -4   1   7  160.57   14.22
  -4   1   7  162.95   19.03
  -4   1   7  151.86   20.12
   3  -1  -7  614.31   38.65
   3  -1  -7  622.44   32.14
  -3   1   7  581.69   34.22
  -3   1   7  603.02   30.18
  -3   1   7  627.83   26.51
   2  -1  -7 2459.75   77.40
   2  -1  -7 2583.17   85.67
   2  -1  -7 2512.42   91.62
  -2   1   7 2271.74   76.99
  -2   1   7 2472.12   80.15
  -2   1   7 2545.35   89.86
  -2   1   7 2537.35   84.23
   1  -1  -7   18.90    9.19
   1  -1  -7   15.24   10.88
   1  -1  -7   15.16    6.11
  -1   1   7   18.68    3.35
  -1   1   7   11.90    7.59
  -1   1   7   13.69    4.62
  -1   1   7   16.55    6.99
   0  -1  -7  213.82   15.35
   0  -1  -7  207.57   19.41
   0  -1  -7  214.56   13.46
   0   1   7  219.94   11.89
   0   1   7  222.67   14.15
   0   1   7  214.81   16.77
  -1  -1  -7  858.27   31.89
  -1  -1  -7  835.20   32.49
  -1  -1  -7  760.29   35.43
  -1  -1  -7  802.73   36.03
  -1  -1  -7  825.82   32.41
   1   1   7  841.04   30.86
   1   1   7  826.00   31.37
   1   1   7  835.91   27.01
   1   1   7  814.41   34.78
  -2  -1  -7 2400.20   80.03
  -2  -1  -7 2430.32   80.24
  -2  -1  -7 2414.60   82.89
  -2  -1  -7 2576.06   84.12
  -2  -1  -7 2433.33   81.17
   2   1   7 2570.01   77.69
   2   1   7 2581.62   78.54
   2   1   7 2403.57   78.33
   2   1   7 2534.03   82.99
   2   1   7 2446.69   78.51
  -3  -1  -7  187.55   14.16
  -3  -1  -7  163.05   12.23
  -3  -1  -7  182.82   12.22
  -3  -1  -7  192.12   14.68
  -3  -1  -7  139.43   11.49
  -3  -1  -7  173.20    7.80
  -3  -1  -7  165.89   13.43
   3   1   7  192.31   11.86
   3   1   7  170.05   12.35
   3   1   7  142.88    5.87
   3   1   7  168.57   11.52
   3   1   7  170.91   10.86
  -4  -1  -7  738.45   28.77
  -4  -1  -7  748.08   28.59
  -4  -1  -7  688.15   26.99
  -4  -1  -7  760.10   32.43
  -4  -1  -7  778.43   27.94
  -4  -1  -7  762.50   27.76
  -4  -1  -7  771.21   27.90
   4   1   7  736.29   29.64
   4   1   7  783.27   30.76
   4   1   7  704.68   27.19
   4   1   7  758.69   29.84
  -5  -1  -7  520.46   23.62
  -5  -1  -7  473.95   19.61
  -5  -1  -7  459.90   19.35
  -5  -1  -7  543.41   28.27
   5   1   7  541.59   24.67
   5   1   7  494.90   23.81
   5   1   7  490.05   24.26
  -6  -1  -7  437.14   28.10
  -6  -1  -7  464.57   25.66
   6   1   7  441.98   24.12
   6   1   7  397.82   23.88
   6   1   7  414.34   24.14
  -7  -1  -7   28.10   10.81
  -7  -1  -7   28.71   15.44
  -7  -1  -7   30.71   15.86
   5  -2  -7  102.51   18.98
  -5   2   7  160.22   24.22
  -5   2   7  136.57   20.22
  -5   2   7  125.98   19.49
  -5   2   7  126.88   14.65
   4  -2  -7  166.71   26.61
   4  -2  -7  247.00   19.90
  -4   2   7  255.16   21.68
  -4   2   7  218.30   19.99
  -4   2   7  257.47   26.59
  -4   2   7  257.35   17.64
   3  -2  -7  549.96   41.58
   3  -2  -7  595.22   32.93
  -3   2   7  575.94   28.55
  -3   2   7  535.65   24.95
  -3   2   7  606.17   35.05
  -3   2   7  553.03   28.16
   2  -2  -7  285.68   14.86
   2  -2  -7  267.65   26.85
   2  -2  -7  298.18   21.05
  -2   2   7  258.68   13.56
  -2   2   7  302.15   17.54
  -2   2   7  264.93   13.92
  -2   2   7  323.06   23.90
  -2   2   7  301.23   18.91
  -2   2   7  278.47   15.34
   1  -2  -7 1731.38   57.21
   1  -2  -7 1622.91   61.27
   1  -2  -7 1760.60   68.50
  -1   2   7 1734.62   57.37
  -1   2   7 1764.76   66.45
  -1   2   7 1735.36   58.51
  -1   2   7 1684.24   60.67
  -1   2   7 1781.42   57.83
   0  -2  -7  307.41   17.01
   0  -2  -7  312.15   23.82
   0  -2  -7  291.27   18.77
   0   2   7  335.70   15.31
   0   2   7  284.38   16.46
   0   2   7  314.45   12.75
   0   2   7  335.67   21.42
  -1  -2  -7  510.45   27.87
  -1  -2  -7  534.26   23.48
  -1  -2  -7  559.89   25.50
  -1  -2  -7  536.08   27.80
   1   2   7  523.61   26.67
   1   2   7  556.84   22.77
  -2  -2  -7  635.35   29.75
  -2  -2  -7  655.25   30.45
  -2  -2  -7  676.70   27.65
  -2  -2  -7  734.42   28.39
   2   2   7  613.49   24.92
   2   2   7  664.48   24.35
   2   2   7  654.28   28.85
   2   2   7  675.92   25.05
   2   2   7  644.43   24.80
  -3  -2  -7  452.33   21.48
  -3  -2  -7  407.49   21.31
  -3  -2  -7  399.69   13.79
  -3  -2  -7  410.31   18.93
  -3  -2  -7  373.49   21.19
  -3  -2  -7  390.50   13.55
   3   2   7  392.36   14.62
   3   2   7  408.91   19.00
   3   2   7  425.97   18.22
   3   2   7  407.12   18.29
   3   2   7  373.50   19.56
   3   2   7  370.70   14.67
  -4  -2  -7  293.06   16.55
  -4  -2  -7  314.28   15.06
  -4  -2  -7  283.23   19.04
  -4  -2  -7  277.88   14.66
  -4  -2  -7  286.42   16.74
  -4  -2  -7  263.18   14.90
   4   2   7  299.37   17.54
   4   2   7  313.04   16.96
   4   2   7  312.49   16.45
  -5  -2  -7   34.71    9.45
  -5  -2  -7   31.10    7.02
  -5  -2  -7   39.83    6.39
  -5  -2  -7   42.13    6.08
  -5  -2  -7   37.34   13.16
   5   2   7   34.35    8.99
   5   2   7   32.92    8.92
   5   2   7   26.67    7.92
  -6  -2  -7  563.67   30.40
  -6  -2  -7  569.87   29.30
   6   2   7  568.56   29.07
   6   2   7  593.73   28.64
   6   2   7  574.14   29.14
  -7  -2  -7    4.90   13.78
  -7  -2  -7    2.07   10.22
  -7  -2  -7    3.17   14.68
   7   2   7    3.24   12.12
   7   2   7    9.35   14.29
   5  -3  -7  137.27   26.20
   5  -3  -7  122.67   20.74
  -5   3   7  137.78   19.78
  -5   3   7  136.96   14.79
  -5   3   7  149.81   20.50
  -5   3   7  143.97   24.66
   4  -3  -7   65.76   24.37
   4  -3  -7   62.05   17.97
  -4   3   7  102.74   20.06
  -4   3   7   91.83   11.74
  -4   3   7   75.71   14.66
  -4   3   7   72.72   14.75
   3  -3  -7  139.90   19.57
   3  -3  -7  111.95   21.61
  -3   3   7  172.88   21.60
  -3   3   7  159.74   17.32
  -3   3   7  144.60   15.32
  -3   3   7  170.56   12.74
   2  -3  -7  177.50   22.43
  -2   3   7  209.33   14.70
  -2   3   7  247.47   17.32
  -2   3   7  229.30   14.14
  -2   3   7  200.24   20.64
   1  -3  -7 1525.35   53.61
   1  -3  -7 1611.80   59.02
   1  -3  -7 1585.59   65.05
  -1   3   7 1613.24   53.70
  -1   3   7 1506.74   61.51
  -1   3   7 1603.00   53.44
  -1   3   7 1674.28   57.72
   0  -3  -7  840.87   31.16
   0  -3  -7  769.62   39.20
   0  -3  -7  825.24   34.36
   0   3   7  858.22   32.80
   0   3   7  758.99   27.60
   0   3   7  753.11   36.42
  -1  -3  -7 1406.04   55.42
  -1  -3  -7 1339.94   48.77
  -1  -3  -7 1417.63   50.74
   1   3   7 1400.80   48.80
   1   3   7 1463.88   54.43
   1   3   7 1345.32   42.95
   1   3   7 1374.16   45.47
  -2  -3  -7   53.87   10.09
  -2  -3  -7   59.83   11.93
  -2  -3  -7   52.84    9.70
  -2  -3  -7   44.40   11.08
   2   3   7   58.27    7.65
   2   3   7   61.26    6.64
   2   3   7   59.56    9.91
   2   3   7   58.78    8.33
   2   3   7   60.27    7.16
  -3  -3  -7  887.59   34.06
  -3  -3  -7  792.73   31.76
  -3  -3  -7  873.85   35.50
  -3  -3  -7  774.26   34.45
  -3  -3  -7  771.40   26.08
   3   3   7  811.85   31.05
   3   3   7  825.45   28.37
   3   3   7  790.14   33.45
   3   3   7  787.84   28.55
   3   3   7  840.36   31.85
   3   3   7  838.36   30.48
  -4  -3  -7  328.71   19.67
  -4  -3  -7  328.55   15.56
  -4  -3  -7  345.36   20.83
  -4  -3  -7  322.06   19.13
  -4  -3  -7  338.99   17.59
   4   3   7  363.03   18.36
   4   3   7  314.06   18.10
   4   3   7  326.09   18.51
   4   3   7  355.13   17.90
  -5  -3  -7  123.27   11.88
  -5  -3  -7  128.28   11.95
  -5  -3  -7  115.01   15.28
   5   3   7  159.10   14.06
   5   3   7  155.17   15.70
   5   3   7  117.81   13.26
  -6  -3  -7   15.10   14.40
   6   3   7    8.92    9.94
   6   3   7   11.29    9.62
  -7  -3  -7   83.45   17.78
  -7  -3  -7   91.55   15.26
  -7  -3  -7   84.93   17.00
   7   3   7   68.71   15.80
   7   3   7   66.38   14.69
   4  -4  -7  103.77   20.17
  -4   4   7  139.73   14.29
  -4   4   7  119.68   16.80
  -4   4   7  129.07   18.29
  -4   4   7  120.25   21.94
   3  -4  -7   73.66   23.28
   3  -4  -7   85.50   18.05
  -3   4   7   99.41   15.71
  -3   4   7  117.12   11.51
  -3   4   7   70.63   12.10
  -3   4   7   64.85   16.59
   2  -4  -7  404.57   20.54
   2  -4  -7  369.04   33.83
   2  -4  -7  362.20   26.88
  -2   4   7  404.77   19.83
  -2   4   7  386.92   29.40
  -2   4   7  429.11   23.95
  -2   4   7  421.88   21.46
   1  -4  -7  242.76   26.62
   1  -4  -7  232.20   20.21
   1  -4  -7  242.21   16.66
  -1   4   7  234.20   17.57
  -1   4   7  235.26   22.11
  -1   4   7  240.72   14.08
   0  -4  -7  866.13   42.98
   0  -4  -7  876.69   34.57
   0  -4  -7  861.17   37.87
   0   4   7  857.33   41.00
   0   4   7  865.27   35.15
   0   4   7  858.56   30.66
  -1  -4  -7  359.29   19.42
  -1  -4  -7  374.79   25.77
  -1  -4  -7  364.21   21.37
   1   4   7  414.30   24.58
   1   4   7  356.40   14.61
   1   4   7  373.01   19.22
   1   4   7  364.37   15.54
  -2  -4  -7  718.72   35.19
  -2  -4  -7  732.03   24.89
  -2  -4  -7  780.87   31.74
  -2  -4  -7  785.21   31.60
  -2  -4  -7  647.14   34.82
   2   4   7  694.77   33.34
   2   4   7  759.22   27.21
   2   4   7  731.99   28.73
  -3  -4  -7 1107.28   41.71
  -3  -4  -7 1074.05   35.06
  -3  -4  -7 1118.07   41.36
  -3  -4  -7  980.68   43.73
  -3  -4  -7 1117.42   44.48
   3   4   7 1089.14   37.39
   3   4   7 1117.56   39.81
   3   4   7 1020.53   38.02
   3   4   7 1137.57   40.34
   3   4   7  972.76   37.25
   3   4   7 1083.85   43.14
  -4  -4  -7  122.91   11.26
  -4  -4  -7  155.21   15.78
  -4  -4  -7  147.96   15.75
  -4  -4  -7  164.42   15.48
   4   4   7  153.94   12.54
   4   4   7  132.12   14.11
   4   4   7  161.35   13.06
   4   4   7  144.96   13.56
  -5  -4  -7  101.32   16.83
  -5  -4  -7   75.67   10.77
  -5  -4  -7   97.74   12.15
   5   4   7   73.34   11.42
   5   4   7  107.48   12.07
   5   4   7   85.70   12.48
  -6  -4  -7   42.60    8.49
  -6  -4  -7   32.08   14.05
   6   4   7   42.16   13.30
   6   4   7   29.64   10.60
  -7  -4  -7  417.94   27.90
  -7  -4  -7  391.86   28.08
   7   4   7  376.79   27.56
   7   4   7  350.63   26.25
   4  -5  -7  100.42   19.33
   4  -5  -7   71.61   20.93
  -4   5   7  106.81   16.67
  -4   5   7  101.97   12.75
  -4   5   7  118.55   19.35
  -4   5   7  147.27   26.09
   3  -5  -7   56.99   18.54
   3  -5  -7   55.53   23.31
  -3   5   7   71.72   12.80
  -3   5   7  104.20   11.17
  -3   5   7   99.02   20.24
  -3   5   7  105.29   17.31
   2  -5  -7  393.93   22.34
   2  -5  -7  336.84   36.12
   2  -5  -7  344.45   28.06
  -2   5   7  380.13   30.85
  -2   5   7  357.71   22.81
  -2   5   7  377.08   20.91
   1  -5  -7  118.44   17.40
   1  -5  -7  115.91   19.94
   1  -5  -7  135.88   14.43
  -1   5   7  164.06   21.84
  -1   5   7  130.64   11.91
  -1   5   7  141.33   15.77
   0  -5  -7  650.47   37.53
   0  -5  -7  645.45   32.21
   0  -5  -7  589.74   28.45
   0   5   7  627.09   28.91
   0   5   7  620.57   22.20
   0   5   7  625.07   34.49
   0   5   7  602.20   24.36
  -1  -5  -7  261.88   15.50
  -1  -5  -7  318.41   26.51
  -1  -5  -7  328.59   19.36
  -1  -5  -7  255.97   20.15
   1   5   7  284.25   12.80
   1   5   7  285.80   22.43
   1   5   7  250.53   13.27
   1   5   7  292.63   17.46
  -2  -5  -7 1772.07   60.24
  -2  -5  -7 1680.07   65.38
  -2  -5  -7 1666.92   60.27
  -2  -5  -7 1558.18   53.25
   2   5   7 1657.50   53.44
   2   5   7 1648.57   54.13
   2   5   7 1621.05   62.94
   2   5   7 1595.57   56.86
  -3  -5  -7  693.89   30.70
  -3  -5  -7  614.34   35.12
  -3  -5  -7  685.65   31.54
  -3  -5  -7  716.07   36.15
  -3  -5  -7  600.37   24.90
   3   5   7  695.76   28.38
   3   5   7  694.43   27.02
   3   5   7  741.81   29.25
   3   5   7  678.21   26.73
   3   5   7  665.05   33.03
  -4  -5  -7  184.07   17.23
  -4  -5  -7  160.78   17.18
  -4  -5  -7  187.37   19.62
  -4  -5  -7  194.32   19.08
   4   5   7  178.26   10.70
   4   5   7  180.87   13.40
   4   5   7  167.75   18.02
   4   5   7  195.45   15.67
   4   5   7  177.41   15.18
  -5  -5  -7   10.75    9.68
  -5  -5  -7   20.65    9.98
  -5  -5  -7   17.18   12.72
   5   5   7   17.95    9.14
   5   5   7   11.78    8.72
  -6  -5  -7  245.68   22.58
  -6  -5  -7  226.53   18.97
   6   5   7  259.09   23.37
   6   5   7  266.02   21.00
  -7  -5  -7   59.91   15.50
  -7  -5  -7   78.59   19.99
   7   5   7   41.02   17.57
   7   5   7   50.13   15.08
   3  -6  -7  112.06   22.27
   3  -6  -7  116.06   29.99
  -3   6   7  113.59   15.47
  -3   6   7  131.49   22.63
  -3   6   7  133.96   19.12
   2  -6  -7   33.95   15.93
   2  -6  -7   40.25   12.02
   2  -6  -7   33.74   22.76
  -2   6   7   32.64   12.11
  -2   6   7   43.60   10.47
  -2   6   7   51.91   17.87
   1  -6  -7  106.75   14.68
   1  -6  -7  104.98   18.63
   1  -6  -7  104.13   23.16
  -1   6   7  134.81   16.54
  -1   6   7  116.13   12.39
  -1   6   7  143.87   21.76
   0  -6  -7  462.61   25.05
   0  -6  -7  424.14   28.78
   0  -6  -7  445.47   36.98
   0   6   7  455.71   31.10
   0   6   7  479.72   25.37
   0   6   7  449.39   21.06
   0   6   7  482.15   17.27
  -1  -6  -7  149.24   16.05
  -1  -6  -7  149.11   18.29
  -1  -6  -7  133.92   19.66
   1   6   7  143.17   18.44
   1   6   7  160.66    9.22
   1   6   7  141.32   11.25
   1   6   7  169.23   14.71
  -2  -6  -7 1387.86   52.37
  -2  -6  -7 1414.18   55.08
  -2  -6  -7 1438.15   60.30
   2   6   7 1379.71   47.33
   2   6   7 1416.91   51.36
   2   6   7 1335.10   57.35
   2   6   7 1413.45   46.60
  -3  -6  -7  282.39   20.73
  -3  -6  -7  288.61   21.54
  -3  -6  -7  242.25   24.01
   3   6   7  253.90   14.44
   3   6   7  276.94   17.34
   3   6   7  260.15   16.98
   3   6   7  277.44   22.53
  -4  -6  -7  153.39   17.23
  -4  -6  -7  163.11   19.28
  -4  -6  -7  173.40   19.99
  -4  -6  -7  132.10   16.20
   4   6   7  148.75   14.42
   4   6   7  169.66   15.15
   4   6   7  151.65   12.18
  -5  -6  -7  121.69   16.18
  -5  -6  -7  114.07   15.63
  -5  -6  -7  100.28   17.00
   5   6   7  117.87   14.61
   5   6   7  121.13   16.64
  -6  -6  -7  595.77   33.45
  -6  -6  -7  599.18   31.91
   6   6   7  650.28   34.99
   6   6   7  606.54   32.00
   7   6   7   17.52   19.05
   3  -7  -7  158.84   36.25
   3  -7  -7  128.67   24.42
   3  -7  -7  165.43   20.81
  -3   7   7  175.01   28.99
  -3   7   7  186.38   19.67
  -3   7   7  182.51   21.98
   2  -7  -7   31.47   25.66
   2  -7  -7   26.57   20.01
   2  -7  -7   47.68   16.16
  -2   7   7   50.87   19.15
  -2   7   7   74.02   16.08
  -2   7   7   59.02   12.20
   1  -7  -7  222.33   20.45
   1  -7  -7  206.67   25.04
   1  -7  -7  178.63   27.77
  -1   7   7  263.50   21.57
  -1   7   7  315.20   32.85
  -1   7   7  214.61   17.01
   0  -7  -7  148.55   19.94
   0  -7  -7  219.08   20.24
   0  -7  -7  136.41   23.46
   0   7   7  231.75   27.92
   0   7   7  196.91   18.18
   0   7   7  187.06   14.60
  -1  -7  -7  261.24   24.28
  -1  -7  -7  319.23   22.30
  -1  -7  -7  283.42   32.76
   1   7   7  288.05   26.78
   1   7   7  291.23   20.79
   1   7   7  303.94   17.23
  -2  -7  -7    5.68   14.48
  -2  -7  -7    8.82   12.10
  -2  -7  -7   16.60   13.01
   2   7   7   13.38   11.85
   2   7   7   14.52    9.51
   2   7   7   10.21    6.53
  -3  -7  -7  608.79   31.70
  -3  -7  -7  653.50   38.13
  -3  -7  -7  632.21   33.46
  -3  -7  -7  634.29   38.86
   3   7   7  611.45   36.23
   3   7   7  619.82   28.27
   3   7   7  576.40   28.02
  -4  -7  -7   11.99   12.96
  -4  -7  -7   11.34   13.09
  -4  -7  -7   13.33   12.89
  -4  -7  -7    8.76   14.18
   4   7   7    6.08    8.56
   4   7   7    3.05    8.77
   4   7   7    8.10    8.13
  -5  -7  -7   96.48   17.47
  -5  -7  -7   89.12   18.50
  -5  -7  -7   72.14   16.10
   5   7   7  101.39   15.72
   5   7   7   83.66   13.83
  -6  -7  -7   23.48   17.17
  -6  -7  -7   24.67   13.90
  -6  -7  -7   24.65   13.13
   6   7   7   24.81   13.02
   6   7   7   28.86   14.23
   2  -8  -7   15.24   28.37
   2  -8  -7    6.36   18.32
   2  -8  -7   18.81   15.42
  -2   8   7   23.80   15.84
  -2   8   7   20.46   11.74
  -2   8   7   30.83   19.38
   1  -8  -7  154.08   19.85
   1  -8  -7  119.07   23.38
   1  -8  -7  160.28   31.80
  -1   8   7  168.00   20.51
  -1   8   7  127.48   22.45
  -1   8   7  160.44   16.52
   0  -8  -7  160.61   26.90
   0  -8  -7  152.28   21.60
   0  -8  -7  155.13   19.77
   0   8   7  201.59   20.97
   0   8   7  169.57   24.09
   0   8   7  151.64   14.87
  -1  -8  -7   65.67   22.02
  -1  -8  -7   83.37   18.53
  -1  -8  -7   63.71   17.08
   1   8   7   79.10   11.52
   1   8   7   42.96   14.93
   1   8   7   92.64   15.50
  -2  -8  -7   -2.10   17.31
  -2  -8  -7   -3.28   13.41
  -2  -8  -7    3.39   14.64
  -2  -8  -7    0.62   14.08
   2   8   7   -2.46   13.51
   2   8   7    1.44    7.55
   2   8   7   -2.59   10.69
  -3  -8  -7  405.77   34.95
  -3  -8  -7  364.23   26.00
  -3  -8  -7  342.28   27.50
  -3  -8  -7  329.47   33.07
   3   8   7  362.73   21.70
   3   8   7  332.33   22.58
   3   8   7  330.91   30.46
  -4  -8  -7   69.63   16.96
  -4  -8  -7   96.18   19.96
  -4  -8  -7   61.31   18.07
   4   8   7  120.94   16.47
   4   8   7  110.15   14.77
   4   8   7   63.92   12.96
  -5  -8  -7  186.22   23.90
  -5  -8  -7  149.79   21.04
  -5  -8  -7  183.53   23.24
   5   8   7  163.47   18.05
   5   8   7  167.03   20.33
   0  -9  -7  172.94   22.43
   0  -9  -7  140.55   30.81
   0  -9  -7  105.19   27.92
   0  -9  -7  113.21   24.64
   0   9   7  130.81   23.82
   0   9   7  170.01   21.24
  -1  -9  -7   49.29   25.73
  -1  -9  -7   33.78   19.67
  -1  -9  -7   14.44   19.86
  -1  -9  -7   21.00   17.77
   1   9   7   31.87   17.90
   1   9   7   43.07   14.16
  -2  -9  -7   49.11   21.30
  -2  -9  -7   52.03   23.20
  -2  -9  -7   52.88   18.03
  -2  -9  -7   44.34   20.51
   2   9   7   64.63   15.52
   2   9   7   50.34   20.15
  -3  -9  -7    8.47   19.85
  -3  -9  -7   -1.51   16.19
  -3  -9  -7    5.52   16.36
  -3  -9  -7    0.04   17.56
   3   9   7    9.63   11.13
   3   9   7    4.62   10.15
  -4  -9  -7  155.89   24.75
  -4  -9  -7  226.73   25.83
  -4  -9  -7  156.89   24.25
   4   9   7  219.20   20.84
   4   9   7  241.47   20.96
   2   8  -8    8.21   24.35
   2   8  -8   27.32   21.76
  -2  -8   8   32.86   15.16
  -2  -8   8   27.97   10.66
  -2  -8   8   29.84   16.24
   1   8  -8  169.27   25.81
   1   8  -8  152.89   29.63
  -1  -8   8  167.40   20.99
  -1  -8   8  201.29   28.28
   0   8  -8  106.70   21.52
   0   8  -8  119.68   18.35
   0   8  -8   99.58   27.88
   0  -8   8   93.55   20.68
   0  -8   8   98.66   16.62
  -1   8  -8  158.20   24.55
  -1   8  -8  138.71   27.22
  -1   8  -8  132.79   17.96
   1  -8   8  133.21   17.62
   1  -8   8  125.65   23.04
  -2   8  -8   79.41   22.20
  -2   8  -8   66.37   16.23
  -2   8  -8   52.05   24.04
   2  -8   8   60.22   13.31
   2  -8   8   67.36   11.81
  -3   8  -8   10.91   22.49
  -3   8  -8    4.87   15.48
  -3   8  -8    6.42   20.22
   3  -8   8   -1.88   12.56
   3   7  -8   96.89   21.73
   3   7  -8  123.19   32.66
  -3  -7   8  148.05   19.82
  -3  -7   8  110.36   13.84
  -3  -7   8  102.09   21.44
   2   7  -8  111.77   29.09
   2   7  -8   96.92   21.10
  -2  -7   8   86.33   17.12
  -2  -7   8   82.16   11.79
  -2  -7   8   93.84   20.29
   1   7  -8   60.44   20.06
   1   7  -8   66.46   23.92
  -1  -7   8   54.91   16.91
  -1  -7   8   50.83   13.57
  -1  -7   8   67.00    9.51
   0   7  -8  222.63   30.61
   0   7  -8  194.98   20.74
   0   7  -8  170.09   22.66
   0  -7   8  226.42   26.93
   0  -7   8  187.04   19.47
  -1   7  -8  167.15   26.82
  -1   7  -8  168.33   17.97
  -1   7  -8  168.05   21.56
   1  -7   8  174.35   18.09
   1  -7   8   93.78   17.16
  -2   7  -8   16.49   11.64
  -2   7  -8    7.49   18.11
  -2   7  -8   15.12   16.75
   2  -7   8   17.41    9.59
   2  -7   8   21.10    9.58
   2  -7   8   16.14    8.53
  -3   7  -8    9.67   13.38
  -3   7  -8   10.12   16.52
  -3   7  -8    1.79   18.23
   3  -7   8    7.40    9.12
   3  -7   8    3.88   10.76
  -4   7  -8  182.33   21.64
  -4   7  -8  143.32   25.22
  -4   7  -8  147.23   22.06
   4  -7   8  136.48   16.37
   4  -7   8  199.11   21.25
   4   6  -8    1.21   18.50
   4   6  -8    4.51   20.29
   4   6  -8    0.06   28.65
  -4  -6   8   -2.28   10.35
  -4  -6   8   -2.41   26.75
   3   6  -8  136.09   30.30
   3   6  -8   98.30   20.28
  -3  -6   8  113.17   17.20
  -3  -6   8   93.21   12.80
  -3  -6   8   91.53   19.24
   2   6  -8  383.83   29.31
   2   6  -8  389.49   40.64
  -2  -6   8  403.60   31.27
  -2  -6   8  387.51   25.18
  -2  -6   8  363.09   20.97
   1   6  -8  344.66   35.97
   1   6  -8  356.22   28.58
  -1  -6   8  298.38   21.72
  -1  -6   8  334.15   27.79
  -1  -6   8  326.48   17.70
   0   6  -8   79.67   13.74
   0   6  -8  102.46   22.41
   0   6  -8   83.76   16.56
   0  -6   8   91.48   13.27
   0  -6   8   89.40    8.91
   0  -6   8   61.61   14.27
  -1   6  -8   74.07   15.65
  -1   6  -8   94.14   13.50
  -1   6  -8   93.87   21.01
   1  -6   8   69.04   11.43
   1  -6   8   93.19    9.94
   1  -6   8   80.74   15.24
   1  -6   8   80.12    7.62
  -2   6  -8   20.84   16.33
  -2   6  -8   34.74   13.64
  -2   6  -8   30.43   11.02
   2  -6   8   30.44    9.05
   2  -6   8   24.47   12.06
   2  -6   8   33.36    9.48
  -3   6  -8  157.15   19.75
  -3   6  -8  180.16   24.86
  -3   6  -8  197.91   19.15
   3  -6   8  188.40   15.93
   3  -6   8  197.20   17.26
   3  -6   8  123.31   13.90
  -4   6  -8    2.57   15.66
  -4   6  -8    7.85   12.94
  -4   6  -8   10.77   17.13
   4  -6   8   16.90   11.95
   4  -6   8   13.53   10.18
  -5   6  -8  126.60   19.07
  -5   6  -8  147.40   22.98
   5  -6   8  155.99   20.03
   5  -6   8  138.47   16.22
   4   5  -8  179.39   26.02
   4   5  -8  180.08   24.71
   4   5  -8  156.74   31.84
  -4  -5   8  235.09   28.93
  -4  -5   8  229.02   18.73
  -4  -5   8  209.93   23.07
   3   5  -8  112.13   20.76
   3   5  -8   95.21   20.74
   3   5  -8  108.95   28.12
  -3  -5   8  114.47   13.25
  -3  -5   8  119.28   21.65
  -3  -5   8  117.18   17.02
   2   5  -8  238.20   23.11
   2   5  -8  284.85   31.61
  -2  -5   8  230.95   19.25
  -2  -5   8  226.57   24.41
  -2  -5   8  236.59   16.48
   1   5  -8  176.59   25.33
   1   5  -8  145.54   19.09
  -1  -5   8  187.87   18.22
  -1  -5   8  156.88   12.58
  -1  -5   8  126.33   17.64
   0   5  -8  101.27   18.97
   0   5  -8  119.28   13.85
   0   5  -8  164.97   18.06
   0  -5   8  140.66   11.09
   0  -5   8  122.12   16.98
   0  -5   8  145.29   14.85
  -1   5  -8  100.39   15.77
  -1   5  -8   88.15   11.87
  -1   5  -8   82.29   18.03
   1  -5   8   73.78   10.99
   1  -5   8   93.04   15.26
   1  -5   8   77.79    7.56
  -2   5  -8  372.93   20.86
  -2   5  -8  321.31   23.92
  -2   5  -8  323.53   29.21
   2  -5   8  323.99   18.20
   2  -5   8  325.27   24.15
   2  -5   8  342.65   18.80
  -3   5  -8  183.54   21.80
  -3   5  -8  191.53   19.18
  -3   5  -8  180.62   17.28
   3  -5   8  198.90   16.51
   3  -5   8  199.33   13.79
   3  -5   8  196.52   15.23
  -4   5  -8   87.52   14.28
  -4   5  -8   59.71   14.61
  -4   5  -8   88.38   18.32
   4  -5   8   93.21   12.14
   4  -5   8   86.98   13.74
  -5   5  -8  172.25   20.93
  -5   5  -8  171.86   18.87
   5  -5   8  173.00   16.89
   5  -5   8  210.53   20.52
   4   4  -8  248.55   35.00
   4   4  -8  196.89   25.57
   4   4  -8  195.20   23.98
  -4  -4   8  186.74   24.09
  -4  -4   8  220.77   20.82
  -4  -4   8  227.11   19.06
   3   4  -8   28.83   16.36
   3   4  -8   26.63   17.45
   3   4  -8   30.80   21.10
  -3  -4   8   32.28   12.99
  -3  -4   8   26.42    8.91
  -3  -4   8   40.67   11.58
   2   4  -8  503.31   30.07
   2   4  -8  493.09   39.36
  -2  -4   8  562.10   29.00
  -2  -4   8  528.66   33.29
  -2  -4   8  526.79   24.33
   1   4  -8   61.27    6.16
   1   4  -8   54.96   17.97
   1   4  -8   56.64   14.04
  -1  -4   8   66.95    8.70
  -1  -4   8   41.14    9.76
  -1  -4   8   78.32   15.25
   0   4  -8  325.56   28.21
   0   4  -8  262.49   20.64
   0  -4   8  303.36   23.20
   0  -4   8  265.71   14.61
   0  -4   8  262.46   18.31
  -1   4  -8  340.10   22.35
  -1   4  -8  348.42   19.42
  -1   4  -8  318.45   27.29
   1  -4   8  360.62   15.74
   1  -4   8  302.51   22.79
   1  -4   8  351.88   13.94
   1  -4   8  328.44   19.59
  -2   4  -8   62.82   14.32
  -2   4  -8   82.90   10.68
  -2   4  -8   60.38   13.15
   2  -4   8   73.55    7.16
   2  -4   8   84.90    9.67
   2  -4   8   64.65    9.17
   2  -4   8   57.31   11.60
  -3   4  -8   16.65   11.37
  -3   4  -8   18.80   10.66
  -3   4  -8   29.38    8.76
   3  -4   8   16.03    8.68
   3  -4   8   26.53    8.43
   3  -4   8   23.47    7.47
   3  -4   8   20.62    5.93
   3  -4   8   26.93    6.29
  -4   4  -8  507.63   25.87
  -4   4  -8  444.78   26.05
  -4   4  -8  498.67   29.24
   4  -4   8  521.53   24.86
   4  -4   8  478.13   26.28
  -5   4  -8   26.40   12.43
  -5   4  -8   21.14   12.03
   5  -4   8    6.78    9.95
   5  -4   8   25.56   12.46
  -6   4  -8   16.40   15.09
   6  -4   8   29.97   15.49
   6  -4   8   23.66   12.84
  -5  -3   8  111.12   25.62
   4   3  -8  134.25   29.33
   4   3  -8  114.69   21.07
  -4  -3   8  144.73   15.19
  -4  -3   8  131.10   18.81
  -4  -3   8  145.88   22.80
   3   3  -8  165.50   26.35
   3   3  -8  150.91   20.08
   3   3  -8  135.13   19.12
  -3  -3   8  172.02   14.45
  -3  -3   8  178.27   18.38
  -3  -3   8  176.60   22.93
   2   3  -8  171.84   13.18
   2   3  -8  189.99   25.86
   2   3  -8  164.76   18.40
   2   3  -8  189.77   19.67
  -2  -3   8  188.18   18.13
  -2  -3   8  181.71   14.03
  -2  -3   8  216.61   21.32
   1   3  -8  207.52   19.10
   1   3  -8  213.54   24.70
  -1  -3   8  201.15   16.02
  -1  -3   8  197.92   19.29
  -1  -3   8  191.83   12.68
   0   3  -8   16.54   12.82
   0   3  -8    9.86    4.99
   0   3  -8   23.77   10.79
   0   3  -8   15.88    2.89
   0  -3   8   15.20    5.25
   0  -3   8   16.85    7.55
   0  -3   8   22.03    9.40
  -1   3  -8 1163.16   49.25
  -1   3  -8  969.34   37.00
  -1   3  -8 1091.21   42.66
  -1   3  -8 1126.58   39.60
  -1   3  -8 1030.16   35.45
   1  -3   8 1081.94   40.26
   1  -3   8 1074.32   45.29
   1  -3   8 1065.52   37.17
   1  -3   8 1124.88   36.24
  -2   3  -8  205.13   17.23
  -2   3  -8  202.19   13.40
  -2   3  -8  186.85   19.70
  -2   3  -8  206.48   20.86
  -2   3  -8  224.28   13.74
   2  -3   8  204.86   17.43
   2  -3   8  222.94   13.72
   2  -3   8  212.17   11.84
  -3   3  -8  128.02   13.91
  -3   3  -8  116.98   11.69
  -3   3  -8  151.71   16.93
  -3   3  -8   94.95   20.33
   3  -3   8  121.14   11.32
   3  -3   8  139.94   15.08
   3  -3   8  112.44   11.65
   3  -3   8  114.37    8.97
   3  -3   8  120.83   10.35
  -4   3  -8  742.30   30.71
  -4   3  -8  722.71   30.59
  -4   3  -8  753.20   33.75
   4  -3   8  733.19   31.12
   4  -3   8  714.07   29.32
   4  -3   8  720.68   31.72
  -5   3  -8    1.83    8.90
  -5   3  -8    4.20   10.43
   5  -3   8   -0.77    8.33
   5  -3   8    4.70    9.99
  -6   3  -8    7.60   13.73
   6  -3   8    7.06   10.78
   6  -3   8   13.19   13.09
   5   2  -8  304.64   28.93
  -5  -2   8  290.69   27.34
  -5  -2   8  308.29   22.14
  -5  -2   8  291.69   31.21
   4   2  -8   27.28   23.54
   4   2  -8   33.42   17.12
  -4  -2   8   19.33   11.96
  -4  -2   8   22.49   12.87
  -4  -2   8   30.61    9.78
   3   2  -8  134.68   20.16
   3   2  -8  192.47   28.22
  -3  -2   8  198.94   20.18
  -3  -2   8  146.47   13.43
  -3  -2   8  149.34   20.99
   2   2  -8  581.40   30.91
   2   2  -8  561.62   38.36
   2   2  -8  587.32   30.57
   2   2  -8  572.93   23.29
  -2  -2   8  601.97   25.45
  -2  -2   8  641.81   35.32
  -2  -2   8  608.79   29.13
   1   2  -8  277.63   12.45
   1   2  -8  299.52   21.36
   1   2  -8  312.76   17.49
   1   2  -8  297.45   27.35
   1   2  -8  305.46   20.69
  -1  -2   8  328.11   23.02
  -1  -2   8  328.57   16.31
  -1  -2   8  326.35   19.87
   0   2  -8  267.35   24.56
   0   2  -8  242.85   18.52
   0   2  -8  233.89   12.57
   0  -2   8  272.61   13.39
   0  -2   8  239.82   14.29
   0  -2   8  262.77   15.72
   0  -2   8  258.02   19.83
  -1   2  -8 1256.48   42.90
  -1   2  -8 1278.39   39.07
  -1   2  -8 1392.83   52.84
  -1   2  -8 1314.83   47.29
  -1   2  -8 1158.70   42.28
   1  -2   8 1114.04   41.94
   1  -2   8 1288.95   42.70
   1  -2   8 1242.53   44.76
   1  -2   8 1217.61   49.75
  -2   2  -8    4.09    4.96
  -2   2  -8    1.02    9.15
  -2   2  -8    6.36    5.94
  -2   2  -8    1.48    9.58
  -2   2  -8    6.60    7.88
   2  -2   8    6.79    5.13
   2  -2   8    2.75    6.59
   2  -2   8   10.28    5.27
   2  -2   8    4.91    6.00
   2  -2   8   10.95    4.68
  -3   2  -8  144.99   13.59
  -3   2  -8  179.52   17.21
  -3   2  -8  132.13   15.04
  -3   2  -8  156.49   11.42
   3  -2   8  140.42   12.76
   3  -2   8  169.10   12.53
   3  -2   8  148.20   11.17
   3  -2   8  148.73   13.95
   3  -2   8  151.63    8.45
   3  -2   8  141.25    8.68
  -4   2  -8   19.46    9.11
  -4   2  -8   12.95    8.83
  -4   2  -8   24.27    8.12
   4  -2   8   16.19    7.53
   4  -2   8   28.13    7.72
  -5   2  -8   56.81   10.82
  -5   2  -8   48.69    9.44
   5  -2   8   39.50   11.03
   5  -2   8   54.36   10.35
   5  -2   8   31.42    9.75
  -6   2  -8   71.03   14.45
   6  -2   8   94.06   15.78
   6  -2   8   80.18   13.87
  -7   2  -8   27.10   19.20
  -7   2  -8   30.42   15.73
   7  -2   8   48.65   14.79
   5   1  -8   64.47   21.95
  -5  -1   8   65.38   13.34
  -5  -1   8   53.65   17.12
  -5  -1   8   81.02   16.82
   4   1  -8   88.70   20.72
   4   1  -8   92.45   24.65
  -4  -1   8  109.36   13.38
  -4  -1   8   90.12   15.66
  -4  -1   8   92.62   17.90
   3   1  -8  556.29   41.84
   3   1  -8  568.27   32.65
  -3  -1   8  576.34   29.53
  -3  -1   8  547.84   25.49
  -3  -1   8  582.38   34.57
   2   1  -8  232.92   22.13
   2   1  -8  193.13   11.96
   2   1  -8  159.09   20.70
  -2  -1   8  168.19   18.56
  -2  -1   8  181.11   13.48
  -2  -1   8  203.54   16.47
   1   1  -8  414.05   19.64
   1   1  -8  420.15   30.33
   1   1  -8  473.22   24.89
   1   1  -8  435.67   24.55
  -1  -1   8  425.67   19.61
  -1  -1   8  402.45   21.98
  -1  -1   8  415.99   26.40
   0   1  -8  383.08   21.31
   0   1  -8  340.27   15.79
   0   1  -8  370.96   26.95
   0   1  -8  361.83   19.13
   0   1  -8  373.20   21.18
   0  -1   8  382.64   19.28
   0  -1   8  391.02   24.08
   0  -1   8  354.46   16.64
   0  -1   8  338.97   15.71
  -1   1  -8   32.67   11.85
  -1   1  -8   17.37    8.67
  -1   1  -8   19.83    7.01
  -1   1  -8   12.27    8.50
   1  -1   8   25.32    5.29
   1  -1   8   26.59    8.05
   1  -1   8   12.64    4.02
   1  -1   8   26.14    7.04
  -2   1  -8  826.19   37.03
  -2   1  -8  860.69   28.26
  -2   1  -8  816.23   28.51
  -2   1  -8  841.84   33.27
  -2   1  -8  806.08   36.60
   2  -1   8  767.89   30.11
   2  -1   8  818.64   30.15
   2  -1   8  837.05   35.25
   2  -1   8  837.35   30.32
   2  -1   8  800.74   28.41
  -3   1  -8  546.73   20.70
  -3   1  -8  581.88   27.46
  -3   1  -8  539.43   27.06
  -3   1  -8  565.94   24.53
   3  -1   8  524.92   23.40
   3  -1   8  537.72   23.15
   3  -1   8  538.14   18.98
   3  -1   8  549.16   18.82
   3  -1   8  511.57   24.58
  -4   1  -8   94.16   12.82
  -4   1  -8   82.72   10.19
  -4   1  -8   78.11   10.63
  -4   1  -8   99.43    9.77
   4  -1   8   71.97    9.64
   4  -1   8   94.92   10.77
  -5   1  -8  281.80   14.85
  -5   1  -8  294.71   18.37
  -5   1  -8  291.99   22.44
   5  -1   8  287.09   18.80
   5  -1   8  288.85   19.32
  -6   1  -8    0.50   10.59
  -6   1  -8    4.00   14.63
   6  -1   8    4.05    9.42
   6  -1   8    6.08    9.68
  -7   1  -8  192.69   21.46
   7  -1   8  213.40   20.46
   5   0  -8   24.94   19.67
  -5   0   8   45.53   15.33
  -5   0   8   39.17   16.88
  -5   0   8   49.25   12.63
   4   0  -8  358.95   29.90
   4   0  -8  372.11   39.82
  -4   0   8  419.99   32.08
  -4   0   8  422.17   23.75
  -4   0   8  400.91   26.18
   3   0  -8   92.06   20.49
   3   0  -8  131.42   19.45
  -3   0   8  121.56   12.38
  -3   0   8  124.11   17.67
  -3   0   8  174.40   17.42
   2   0  -8  738.50   26.99
   2   0  -8  696.11   41.44
   2   0  -8  727.87   35.58
  -2   0   8  706.46   29.18
  -2   0   8  747.70   32.77
  -2   0   8  802.30   39.10
   1   0  -8   11.55    7.26
   1   0  -8    1.99    9.74
   1   0  -8    8.15   13.56
  -1   0   8    6.89    6.60
  -1   0   8    2.05    4.51
  -1   0   8    4.03    8.01
   0   0  -8  683.36   35.35
   0   0  -8  687.78   28.35
   0   0  -8  731.23   32.09
   0   0  -8  701.34   31.12
   0   0   8  713.31   29.26
   0   0   8  734.72   34.29
   0   0   8  714.05   27.09
   0   0   8  681.31   24.86
  -1   0  -8  343.60   28.93
  -1   0  -8  442.97   25.73
  -1   0  -8  401.76   21.68
  -1   0  -8  454.37   21.85
  -1   0  -8  449.27   22.08
   1   0   8  381.68   14.57
   1   0   8  417.45   23.64
   1   0   8  455.68   19.75
  -2   0  -8  346.50   19.52
  -2   0  -8  368.90   23.32
  -2   0  -8  326.74   21.44
  -2   0  -8  344.24   19.34
  -2   0  -8  372.66   19.91
   2   0   8  340.62   16.13
   2   0   8  320.31   16.14
   2   0   8  336.28   20.05
   2   0   8  355.52   16.19
   2   0   8  370.33   16.42
  -3   0  -8  383.33   21.38
  -3   0  -8  362.91   21.15
  -3   0  -8  362.32   18.47
  -3   0  -8  371.17   21.75
  -3   0  -8  341.28   13.34
   3   0   8  319.93   18.65
   3   0   8  356.30   17.75
   3   0   8  356.21   13.15
   3   0   8  347.98   17.42
   3   0   8  329.38   12.97
  -4   0  -8  287.02   14.88
  -4   0  -8  297.99   16.28
  -4   0  -8  303.85   17.87
  -4   0  -8  284.04   17.87
  -4   0  -8  319.37   21.39
   4   0   8  294.67   17.81
   4   0   8  289.39   16.97
  -5   0  -8   74.22   14.23
  -5   0  -8   51.36   13.96
  -5   0  -8   46.28    9.54
   5   0   8   44.78    9.55
   5   0   8   47.31    9.83
  -6   0  -8   85.62   18.05
  -6   0  -8   73.33   13.04
   6   0   8   89.56   13.19
   6   0   8   74.50   12.55
  -7   0  -8  101.38   17.69
  -7   0  -8  112.12   14.54
  -7   0  -8   86.57   21.17
   7   0   8  134.12   16.65
  -5   1   8   44.43   19.70
  -5   1   8   24.42   11.99
  -5   1   8   40.75   17.38
   4  -1  -8  278.38   26.41
   4  -1  -8  197.33   30.33
  -4   1   8  269.32   23.86
  -4   1   8  325.38   29.93
  -4   1   8  277.24   22.95
  -4   1   8  255.46   19.29
   3  -1  -8  168.65   24.31
   3  -1  -8  189.68   20.51
  -3   1   8  212.83   18.48
  -3   1   8  200.22   15.76
  -3   1   8  175.74   21.23
   2  -1  -8   96.88   17.93
   2  -1  -8  125.81   11.12
   2  -1  -8  130.39   18.41
  -2   1   8  142.82   12.18
  -2   1   8  200.12   22.81
  -2   1   8  162.81   16.43
   1  -1  -8  160.21   12.16
   1  -1  -8  107.18   16.30
   1  -1  -8  161.01   17.22
  -1   1   8  192.25   12.46
  -1   1   8  169.30    7.26
  -1   1   8  196.51   15.67
  -1   1   8  177.48   18.22
   0  -1  -8  526.79   23.36
   0  -1  -8  561.69   27.06
   0  -1  -8  489.03   30.66
   0   1   8  500.39   19.17
   0   1   8  516.63   16.71
   0   1   8  511.38   21.98
   0   1   8  545.60   24.59
   0   1   8  525.38   28.23
  -1  -1  -8  439.72   26.24
  -1  -1  -8  404.43   22.56
  -1  -1  -8  398.75   20.27
   1   1   8  388.42   19.24
   1   1   8  364.29   22.72
   1   1   8  414.08   14.57
  -2  -1  -8  200.79   18.52
  -2  -1  -8  216.88   16.07
  -2  -1  -8  233.63   16.37
  -2  -1  -8  245.95   15.67
  -2  -1  -8  212.25   18.67
   2   1   8  227.93   16.62
   2   1   8  218.94   12.54
   2   1   8  214.29   13.32
   2   1   8  236.43   12.80
   2   1   8  228.91   10.97
  -3  -1  -8   56.21    9.73
  -3  -1  -8   47.20   10.00
  -3  -1  -8   52.34    9.47
  -3  -1  -8   59.76   10.83
  -3  -1  -8   55.71   11.13
   3   1   8   57.82    8.18
   3   1   8   50.75    5.13
   3   1   8   62.92    9.68
   3   1   8   63.50    7.64
   3   1   8   66.45    8.44
   3   1   8   45.51    5.15
  -4  -1  -8  299.64   17.60
  -4  -1  -8  294.10   16.46
  -4  -1  -8  275.69   13.46
  -4  -1  -8  268.56   17.93
  -4  -1  -8  281.30   16.72
  -4  -1  -8  289.16   20.29
   4   1   8  276.24   16.21
   4   1   8  319.96   17.77
   4   1   8  284.17   16.82
  -5  -1  -8  260.06   13.68
  -5  -1  -8  259.37   15.63
  -5  -1  -8  282.14   16.21
  -5  -1  -8  307.70   22.39
  -5  -1  -8  278.61   16.35
   5   1   8  253.17   18.09
   5   1   8  290.85   17.99
   5   1   8  267.80   17.31
  -6  -1  -8   79.52   14.28
  -6  -1  -8   44.49   15.43
   6   1   8   61.00   12.27
   6   1   8   61.58   10.99
   6   1   8   67.79   12.76
  -7  -1  -8   59.78   18.54
  -7  -1  -8   74.82   14.05
   7   1   8   88.30   15.13
   7   1   8   77.45   15.75
   4  -2  -8   48.31   19.33
   4  -2  -8   45.54   24.38
  -4   2   8   77.24   11.76
  -4   2   8   46.48   15.84
  -4   2   8   71.01   15.15
  -4   2   8   70.87   15.34
   3  -2  -8   78.00   18.53
   3  -2  -8   68.51   23.75
  -3   2   8   71.01   16.30
  -3   2   8   66.34   10.14
  -3   2   8   86.11   13.32
  -3   2   8   71.52   14.45
   2  -2  -8  182.52   21.10
  -2   2   8  214.66   17.22
  -2   2   8  204.21   15.49
  -2   2   8  221.18   21.99
  -2   2   8  232.55   15.09
   1  -2  -8  126.26   11.68
   1  -2  -8  103.53   15.39
   1  -2  -8  116.61   20.58
  -1   2   8  178.96   16.82
  -1   2   8  122.46   10.58
  -1   2   8  117.46   10.88
  -1   2   8  177.89   21.67
   0  -2  -8  307.21   18.29
   0  -2  -8  365.56   21.92
   0  -2  -8  305.66   26.06
   0   2   8  328.74   23.14
   0   2   8  297.46   15.74
   0   2   8  297.44   12.93
   0   2   8  294.01   17.53
  -1  -2  -8  356.86   24.56
  -1  -2  -8  320.47   20.10
  -1  -2  -8  355.03   18.96
   1   2   8  332.38   21.71
   1   2   8  354.47   18.04
   1   2   8  330.57   13.52
  -2  -2  -8  142.96   13.61
  -2  -2  -8  169.89   18.73
  -2  -2  -8  152.45   16.13
  -2  -2  -8  139.15   13.80
   2   2   8  143.93    8.81
   2   2   8  138.15   10.85
   2   2   8  124.89   11.77
   2   2   8  154.23   15.01
   2   2   8  140.80   10.10
  -3  -2  -8  342.11   21.31
  -3  -2  -8  352.73   18.81
  -3  -2  -8  319.86   19.80
  -3  -2  -8  315.05   20.64
   3   2   8  339.35   16.27
   3   2   8  318.45   13.91
   3   2   8  285.80   13.92
   3   2   8  326.78   17.56
   3   2   8  334.91   19.40
   3   2   8  315.78   16.54
  -4  -2  -8    0.48    4.53
  -4  -2  -8    4.85    7.72
  -4  -2  -8    1.14    4.98
  -4  -2  -8   -0.38    7.24
  -4  -2  -8    2.16    7.61
  -4  -2  -8    2.39   11.43
   4   2   8    4.52    6.60
   4   2   8    0.73    6.10
   4   2   8   -2.44    5.72
   4   2   8    1.07    6.04
  -5  -2  -8  256.92   16.25
  -5  -2  -8  215.25   15.52
  -5  -2  -8  269.11   14.88
  -5  -2  -8  272.12   21.07
   5   2   8  236.96   17.46
   5   2   8  223.45   16.57
  -6  -2  -8   10.87   13.99
  -6  -2  -8   26.42   11.70
   6   2   8   19.30   10.44
   6   2   8   31.10   10.08
   6   2   8   36.30   11.84
  -7  -2  -8   17.37   17.85
  -7  -2  -8   15.16   11.47
   7   2   8   22.48   13.20
   7   2   8    6.37   12.59
   4  -3  -8   48.33   19.83
  -4   3   8   57.57   14.90
  -4   3   8   53.73   14.20
  -4   3   8   40.10    9.97
  -4   3   8   44.79   18.16
   3  -3  -8   34.95   17.96
   3  -3  -8   30.50   22.07
  -3   3   8   50.74    9.96
  -3   3   8   39.92   10.88
  -3   3   8   44.40   12.85
  -3   3   8   47.06   15.37
   2  -3  -8  418.07   36.15
   2  -3  -8  371.44   19.78
   2  -3  -8  364.37   26.09
  -2   3   8  366.23   22.61
  -2   3   8  380.35   20.65
  -2   3   8  365.14   19.57
  -2   3   8  384.02   28.28
   1  -3  -8  672.43   34.00
   1  -3  -8  665.11   39.50
   1  -3  -8  659.42   27.80
  -1   3   8  670.15   26.32
  -1   3   8  632.57   26.54
  -1   3   8  718.05   36.46
  -1   3   8  637.20   30.07
   0  -3  -8   16.35    8.08
   0  -3  -8   13.60   12.25
   0  -3  -8   16.70   10.93
   0   3   8   14.85    4.18
   0   3   8   19.28    7.46
   0   3   8   29.76   10.12
  -1  -3  -8  452.62   24.90
  -1  -3  -8  440.14   22.37
  -1  -3  -8  452.44   29.44
   1   3   8  464.63   18.82
   1   3   8  495.38   22.18
   1   3   8  485.72   27.32
  -2  -3  -8   70.91   11.45
  -2  -3  -8   66.72   11.65
  -2  -3  -8   82.73   14.49
  -2  -3  -8   73.32   13.99
   2   3   8   87.91    8.35
   2   3   8   75.14   11.56
   2   3   8  106.34   10.30
   2   3   8   76.51    8.23
  -3  -3  -8  540.35   29.06
  -3  -3  -8  623.07   27.35
  -3  -3  -8  615.29   28.57
  -3  -3  -8  626.83   30.38
   3   3   8  603.34   24.66
   3   3   8  613.65   25.73
   3   3   8  582.65   22.81
   3   3   8  523.50   22.56
   3   3   8  613.96   28.75
   3   3   8  609.53   24.78
  -4  -3  -8   17.25    9.05
  -4  -3  -8    9.01    8.41
  -4  -3  -8   35.73   11.83
  -4  -3  -8   22.33    5.86
   4   3   8   22.41    7.73
   4   3   8   20.91    7.82
   4   3   8   23.38    7.16
   4   3   8   37.53    8.88
  -5  -3  -8   85.19   11.16
  -5  -3  -8   95.04   11.35
  -5  -3  -8   90.84   11.33
  -5  -3  -8   74.20   14.78
  -5  -3  -8   91.02   11.06
   5   3   8   82.19   11.19
   5   3   8   83.59   12.19
   5   3   8   76.57   11.82
  -6  -3  -8   81.30   16.66
   6   3   8   58.42   10.95
   6   3   8   64.65   12.83
   6   3   8   75.88   13.37
  -7  -3  -8  290.62   26.14
  -7  -3  -8  223.31   20.43
   7   3   8  241.47   24.48
   7   3   8  295.51   23.79
   4  -4  -8   62.19   22.58
  -4   4   8   72.57   16.77
  -4   4   8  105.33   13.66
  -4   4   8   68.53   15.11
  -4   4   8   82.53   22.36
   3  -4  -8   32.86   23.16
   3  -4  -8   17.96   18.48
  -3   4   8   39.59   11.16
  -3   4   8   53.80   14.84
  -3   4   8   42.64    9.78
  -3   4   8   28.05   15.45
   2  -4  -8  104.77   13.56
   2  -4  -8   96.65   19.47
   2  -4  -8  120.25   25.07
  -2   4   8   96.44   18.02
  -2   4   8  117.01   13.04
  -2   4   8  106.18   11.31
  -2   4   8  106.39   14.97
   1  -4  -8  119.17   13.16
   1  -4  -8   87.81   16.96
   1  -4  -8   67.65   18.10
  -1   4   8  129.43   14.34
  -1   4   8  110.27   17.00
  -1   4   8   86.00    9.58
   0  -4  -8  336.64   23.22
   0  -4  -8  348.82   30.29
   0  -4  -8  363.19   20.37
   0   4   8  353.33   20.18
   0   4   8  364.31   26.28
   0   4   8  362.24   15.81
  -1  -4  -8  347.55   23.82
  -1  -4  -8  342.33   28.43
  -1  -4  -8  330.36   20.04
   1   4   8  352.90   13.68
   1   4   8  357.24   15.60
   1   4   8  337.47   24.16
   1   4   8  356.54   19.28
  -2  -4  -8  152.18   15.74
  -2  -4  -8  149.29   15.87
  -2  -4  -8  115.18   16.84
   2   4   8  131.75   12.09
   2   4   8  141.00   10.27
   2   4   8  151.47   16.74
  -3  -4  -8   10.01   10.06
  -3  -4  -8    3.29   11.22
  -3  -4  -8    8.96    9.88
  -3  -4  -8    1.63    9.77
   3   4   8    6.58    5.11
   3   4   8    6.21    6.88
   3   4   8    8.40    5.65
   3   4   8    3.59    7.78
   3   4   8    4.31    5.85
   3   4   8   18.38    7.27
  -4  -4  -8  317.59   22.70
  -4  -4  -8  294.73   22.00
  -4  -4  -8  300.93   19.41
   4   4   8  327.91   18.48
   4   4   8  298.01   18.76
   4   4   8  291.18   17.42
  -5  -4  -8   36.04   14.46
  -5  -4  -8   23.47    9.53
  -5  -4  -8   30.48   10.86
  -5  -4  -8   31.40   10.51
   5   4   8   29.64    9.86
   5   4   8   31.04    8.55
   5   4   8   37.31   11.26
  -6  -4  -8   51.69    9.93
  -6  -4  -8   57.11   16.22
   6   4   8   28.33   11.45
   6   4   8   36.27   12.00
  -7  -4  -8  325.03   25.26
  -7  -4  -8  338.79   30.61
   7   4   8  299.92   25.38
   7   4   8  300.66   27.57
   3  -5  -8   26.42   18.73
   3  -5  -8   44.66   25.95
  -3   5   8   62.91   20.69
  -3   5   8   55.48   15.12
  -3   5   8   36.21   11.48
  -3   5   8   59.44   10.64
   2  -5  -8   61.16   23.89
   2  -5  -8   75.04   19.41
   2  -5  -8   65.63   13.17
  -2   5   8   81.18   14.35
  -2   5   8   84.99   19.60
  -2   5   8   64.36   11.03
   1  -5  -8   41.47   18.32
   1  -5  -8   72.25   13.62
   1  -5  -8   62.41   16.72
  -1   5   8   61.27   15.23
  -1   5   8   79.88   10.29
  -1   5   8   89.00   13.51
   0  -5  -8  135.81   21.28
   0  -5  -8  126.44   18.12
   0  -5  -8  198.33   17.16
   0   5   8  215.55   10.85
   0   5   8  181.24   11.74
   0   5   8  193.70   22.04
   0   5   8  192.99   16.10
  -1  -5  -8  230.88   18.03
  -1  -5  -8  192.31   21.40
  -1  -5  -8  235.11   25.08
   1   5   8  187.98   10.94
   1   5   8  212.15   15.54
   1   5   8  198.82   21.39
   1   5   8  212.11   11.53
  -2  -5  -8  122.98   15.01
  -2  -5  -8  122.69   19.27
  -2  -5  -8  107.78   16.83
   2   5   8  124.44    9.82
   2   5   8  196.50   21.07
   2   5   8  129.28   12.12
  -3  -5  -8  120.76   17.48
  -3  -5  -8  129.21   15.65
  -3  -5  -8  117.13   15.87
   3   5   8  133.73   10.95
   3   5   8  118.18   11.33
   3   5   8  137.71   13.36
   3   5   8   94.44   14.75
   3   5   8  103.29   11.15
  -4  -5  -8  620.01   30.90
  -4  -5  -8  579.85   32.20
  -4  -5  -8  581.89   28.11
   4   5   8  582.78   24.91
   4   5   8  514.92   26.30
   4   5   8  615.71   25.18
   4   5   8  552.58   27.46
  -5  -5  -8   16.90   10.63
  -5  -5  -8   27.17   11.94
  -5  -5  -8   15.68   13.72
  -5  -5  -8   11.62   11.74
   5   5   8   16.46    7.71
   5   5   8   16.07    9.83
   5   5   8   23.13    9.69
  -6  -5  -8  104.78   18.38
  -6  -5  -8  101.80   14.05
   6   5   8   98.61   15.52
   6   5   8  103.38   16.89
  -7  -5  -8    3.08   17.14
  -7  -5  -8    7.25   13.43
   7   5   8   -3.11   14.01
   7   5   8    4.20   13.34
   3  -6  -8   81.07   23.29
   3  -6  -8   88.55   30.81
  -3   6   8  106.68   16.05
  -3   6   8   93.05   19.32
  -3   6   8  147.84   27.59
   2  -6  -8   66.71   26.25
   2  -6  -8   81.36   15.82
  -2   6   8   83.60   13.13
  -2   6   8   78.71   15.49
  -2   6   8   66.07   17.53
   1  -6  -8    8.63   13.64
   1  -6  -8    2.31   15.32
   1  -6  -8   13.73   21.05
  -1   6   8    9.25   13.88
  -1   6   8    4.89    6.82
  -1   6   8    5.04    9.74
   0  -6  -8  112.56   22.80
   0  -6  -8  123.78   15.88
   0  -6  -8   97.95   19.67
   0   6   8  121.00   15.65
   0   6   8  101.88   17.97
   0   6   8  105.85   11.01
  -1  -6  -8  380.87   25.07
  -1  -6  -8  326.23   33.32
  -1  -6  -8  348.94   26.93
   1   6   8  306.51   26.86
   1   6   8  340.20   20.89
   1   6   8  317.01   14.44
   1   6   8  289.38   15.55
  -2  -6  -8  140.16   17.89
  -2  -6  -8  117.84   16.05
  -2  -6  -8  110.28   18.81
   2   6   8  139.33   13.54
   2   6   8  137.90   18.79
   2   6   8  143.68   10.47
  -3  -6  -8  123.88   18.93
  -3  -6  -8  130.72   18.42
  -3  -6  -8  171.17   17.92
   3   6   8  129.79   18.62
   3   6   8  172.19   15.77
   3   6   8  140.21   11.10
   3   6   8  141.12   13.57
  -4  -6  -8  166.10   19.16
  -4  -6  -8  123.64   17.96
  -4  -6  -8  167.14   20.56
  -4  -6  -8  150.84   18.32
   4   6   8  162.90   16.45
   4   6   8  133.28   12.36
   4   6   8  125.45   13.83
   4   6   8  138.72   14.47
  -5  -6  -8   36.89   13.74
  -5  -6  -8   33.80   15.97
  -5  -6  -8   37.49   12.71
   5   6   8   49.64   12.53
   5   6   8   58.63   12.82
  -6  -6  -8   -1.98   15.11
  -6  -6  -8    4.91   11.25
   6   6   8    6.93   11.76
   6   6   8    3.29   11.91
   2  -7  -8   18.65   19.68
   2  -7  -8   27.90   17.08
   2  -7  -8   18.09   27.11
  -2   7   8   15.46   13.52
  -2   7   8   20.68   17.07
  -2   7   8   19.57   13.44
   1  -7  -8  141.57   28.57
   1  -7  -8   96.96   21.19
   1  -7  -8  132.90   19.24
  -1   7   8  124.09   17.92
  -1   7   8  143.25   15.96
  -1   7   8  206.34   28.75
   0  -7  -8  141.19   18.70
   0  -7  -8  106.82   19.39
   0  -7  -8   90.65   22.32
   0   7   8  177.43   19.51
   0   7   8   90.62   18.34
  -1  -7  -8   40.73   16.15
  -1  -7  -8   44.01   18.56
  -1  -7  -8   66.51   17.26
   1   7   8   43.73   14.92
   1   7   8   61.43   12.72
  -2  -7  -8   64.82   16.45
  -2  -7  -8   47.82   15.74
  -2  -7  -8   50.06   18.14
   2   7   8   84.40   18.38
   2   7   8   66.01   13.27
  -3  -7  -8  112.71   20.98
  -3  -7  -8   94.72   18.71
  -3  -7  -8   99.78   16.75
  -3  -7  -8  101.12   18.71
   3   7   8  127.87   20.53
   3   7   8   79.69   12.25
   3   7   8  112.88   14.03
  -4  -7  -8   64.84   17.90
  -4  -7  -8   52.29   18.05
  -4  -7  -8   60.87   16.63
  -4  -7  -8   47.01   15.69
   4   7   8   71.43   12.46
   4   7   8   68.10   13.22
  -5  -7  -8  275.57   27.65
  -5  -7  -8  219.43   23.04
  -5  -7  -8  243.30   24.09
   5   7   8  240.15   21.44
   5   7   8  237.31   22.52
  -6  -7  -8   34.56   14.75
  -6  -7  -8   38.96   19.69
   6   7   8   31.25   14.09
   6   7   8   32.87   13.54
   1  -8  -8   26.41   19.19
   1  -8  -8   33.27   28.27
   1  -8  -8   20.83   19.91
  -1   8   8   14.30   16.40
  -1   8   8   21.36   14.91
   0  -8  -8   65.54   27.23
   0  -8  -8   56.51   17.55
   0  -8  -8   33.29   18.59
   0   8   8   93.57   22.82
   0   8   8   66.59   15.49
  -1  -8  -8   56.41   22.58
  -1  -8  -8   70.30   18.57
  -1  -8  -8   48.45   19.95
   1   8   8  125.11   24.08
   1   8   8   62.21   14.09
  -2  -8  -8   62.69   17.09
  -2  -8  -8   32.99   17.90
  -2  -8  -8   18.20   16.47
  -2  -8  -8   37.72   20.03
   2   8   8   74.30   20.03
   2   8   8   47.30   12.31
  -3  -8  -8  107.65   18.78
  -3  -8  -8   69.41   18.17
  -3  -8  -8  108.05   21.83
  -3  -8  -8  122.75   22.79
   3   8   8  109.53   14.49
   3   8   8  111.20   15.28
  -4  -8  -8  126.81   20.40
  -4  -8  -8  122.78   22.48
  -4  -8  -8  199.21   26.83
  -4  -8  -8  149.71   22.99
   4   8   8  191.93   18.34
   4   8   8  151.68   17.74
  -5  -8  -8   43.10   16.87
  -5  -8  -8   41.12   17.28
  -5  -8  -8   38.77   17.90
   5   8   8   58.38   15.10
   5   8   8   45.70   14.62
  -1  -9  -8   89.58   21.49
  -1  -9  -8   83.08   26.51
  -1  -9  -8   94.61   28.69
  -1  -9  -8   60.54   21.09
   1   9   8  104.00   18.20
   1   9   8  170.67   29.20
  -2  -9  -8    1.92   20.92
  -2  -9  -8   12.90   20.04
  -2  -9  -8    6.46   18.90
  -2  -9  -8    6.30   17.61
   2   9   8   11.23   12.19
   2   9   8    1.61   17.05
  -3  -9  -8   55.02   19.64
  -3  -9  -8   57.96   19.66
  -3  -9  -8   42.36   20.01
  -3  -9  -8   74.31   24.91
   3   9   8   76.28   15.81
   3   9   8   99.18   15.13
  -4  -9  -8   97.11   24.25
  -4  -9  -8  139.49   22.75
  -4  -9  -8  128.92   25.07
   4   9   8  156.39   17.84
   4   9   8  144.34   20.29
   1   8  -9  151.98   33.02
   1   8  -9  154.10   29.40
  -1  -8   9  150.21   24.48
  -1  -8   9  165.23   21.34
   0   8  -9   52.94   28.23
   0   8  -9   32.71   21.30
   0   8  -9   27.97   15.67
   0  -8   9   33.10   17.53
   0  -8   9   35.47   13.28
  -1   8  -9   31.11   24.42
  -1   8  -9   31.37   15.19
  -1   8  -9   32.01   22.55
   1  -8   9   50.74   23.19
   1  -8   9   34.61   13.78
  -2   8  -9    4.78   14.65
  -2   8  -9   18.42   19.50
  -2   8  -9   24.68   25.64
   2  -8   9   11.32   10.91
   2  -8   9   13.35   12.32
   2   7  -9   -1.57   18.86
   2   7  -9   10.31   26.12
  -2  -7   9   -5.96    8.93
  -2  -7   9    1.84   13.60
  -2  -7   9   -1.45   11.32
   1   7  -9  235.08   34.81
   1   7  -9  297.22   29.33
  -1  -7   9  193.64   25.13
  -1  -7   9  251.47   17.63
  -1  -7   9  270.71   23.98
   0   7  -9   78.39   16.07
   0   7  -9   73.55   25.14
   0   7  -9   72.19   19.41
   0  -7   9   68.29   13.70
   0  -7   9   94.24   20.27
  -1   7  -9   92.35   24.31
  -1   7  -9  100.43   16.53
  -1   7  -9  101.52   21.21
   1  -7   9  101.20   20.07
   1  -7   9  124.54   16.26
  -2   7  -9   72.49   15.48
  -2   7  -9   87.40   24.78
  -2   7  -9   65.91   19.22
   2  -7   9   89.33   14.36
  -3   7  -9   67.09   23.13
  -3   7  -9   73.92   20.50
  -3   7  -9   56.74   15.43
   3  -7   9   72.73   12.93
   3  -7   9   94.75   14.94
   3   6  -9   10.04   29.69
   3   6  -9    6.51   21.24
  -3  -6   9    3.98   13.57
  -3  -6   9    6.14   14.11
  -3  -6   9    0.29    9.79
   2   6  -9   71.57   19.80
   2   6  -9   72.98   25.75
  -2  -6   9   98.49   21.45
  -2  -6   9   72.07   15.12
  -2  -6   9   49.71   10.49
   1   6  -9   68.52   24.61
   1   6  -9   62.61   18.70
  -1  -6   9   37.91   13.80
  -1  -6   9   58.92    9.55
  -1  -6   9   40.78   12.22
   0   6  -9   91.75   16.00
   0   6  -9   78.73   22.88
   0   6  -9   76.51   18.26
   0  -6   9   81.50    9.54
   0  -6   9   53.74   14.46
   0  -6   9  114.33   15.91
  -1   6  -9   -4.22   16.21
  -1   6  -9    5.09   14.18
  -1   6  -9    4.21   10.00
   1  -6   9    4.76    9.46
   1  -6   9   12.25    9.64
   1  -6   9    5.70   10.72
  -2   6  -9   41.28   15.83
  -2   6  -9   38.15   11.94
  -2   6  -9   30.12   18.76
   2  -6   9   36.69   10.51
   2  -6   9   43.88   14.86
   2  -6   9   52.88    9.83
  -3   6  -9  204.54   20.30
  -3   6  -9  173.19   21.04
  -3   6  -9  173.00   25.42
   3  -6   9  192.71   16.66
   3  -6   9  183.87   17.34
  -4   6  -9  187.25   23.08
  -4   6  -9  199.71   20.37
  -4   6  -9  198.36   25.69
   4  -6   9  185.67   17.94
   4  -6   9  242.93   21.57
   3   5  -9   46.39   21.83
   3   5  -9   30.50   25.42
   3   5  -9   35.39   20.18
  -3  -5   9   29.01   12.07
  -3  -5   9   26.43   10.54
  -3  -5   9   39.14   16.83
   2   5  -9  210.03   24.19
   2   5  -9  257.18   34.52
  -2  -5   9  239.94   16.79
  -2  -5   9  242.80   26.39
  -2  -5   9  219.03   20.18
   1   5  -9   83.83   19.39
   1   5  -9   60.17   22.23
  -1  -5   9   97.02   19.19
  -1  -5   9   76.50   10.22
  -1  -5   9   84.50   14.68
   0   5  -9   33.74   14.83
   0   5  -9   26.68   17.55
   0  -5   9   38.69   12.47
   0  -5   9   53.57    8.19
   0  -5   9   39.66   10.43
  -1   5  -9  118.22   21.83
  -1   5  -9  117.90   18.28
  -1   5  -9  116.87   14.23
   1  -5   9  108.58    9.59
   1  -5   9   95.89   15.63
   1  -5   9  154.34   16.19
  -2   5  -9  324.26   25.70
  -2   5  -9  321.51   30.71
  -2   5  -9  273.50   19.98
   2  -5   9  300.06   18.49
   2  -5   9  280.34   23.97
  -3   5  -9   32.19   11.27
  -3   5  -9   19.96   14.67
  -3   5  -9   25.70   15.87
   3  -5   9   24.23   12.77
   3  -5   9   41.52   10.09
   3  -5   9   23.55    9.11
  -4   5  -9   66.69   16.44
  -4   5  -9   71.71   18.18
  -4   5  -9   79.06   14.45
   4  -5   9   55.44   12.83
   4  -5   9   58.89   11.79
  -5   5  -9  173.60   21.82
  -5   5  -9  195.87   20.61
   5  -5   9  219.36   19.38
   5  -5   9  197.97   21.39
   4   4  -9   10.53   23.28
   4   4  -9   14.09   29.82
  -4  -4   9   16.31   13.29
  -4  -4   9   10.68   11.04
  -4  -4   9   17.98   15.98
   3   4  -9    7.60   23.46
   3   4  -9    3.20   16.35
   3   4  -9   10.31   17.61
  -3  -4   9   29.62   14.50
  -3  -4   9   12.52    8.68
  -3  -4   9   16.19   12.42
   2   4  -9   -2.72   14.89
   2   4  -9    5.56   19.31
   2   4  -9    6.01   14.11
  -2  -4   9    5.54    9.18
  -2  -4   9    2.99    7.07
  -2  -4   9   20.64   13.08
   1   4  -9  327.52   34.49
   1   4  -9  328.27   24.89
  -1  -4   9  311.94   20.32
  -1  -4   9  284.00   16.60
  -1  -4   9  273.08   25.25
   0   4  -9  176.09   19.72
   0   4  -9  228.36   26.95
   0  -4   9  183.27   17.41
   0  -4   9  193.88   20.71
   0  -4   9  192.50   12.65
  -1   4  -9  157.97   18.37
  -1   4  -9  158.72   15.18
  -1   4  -9  115.62   19.31
   1  -4   9  154.66    9.62
   1  -4   9  152.44   11.27
   1  -4   9  195.58   21.66
   1  -4   9  180.88   15.18
  -2   4  -9  274.78   17.73
  -2   4  -9  270.66   23.01
  -2   4  -9  280.21   27.23
   2  -4   9  290.68   13.94
   2  -4   9  288.63   22.22
  -3   4  -9  434.43   22.59
  -3   4  -9  407.43   30.20
  -3   4  -9  377.70   25.48
   3  -4   9  369.01   18.41
   3  -4   9  442.87   22.22
   3  -4   9  416.04   18.63
  -4   4  -9    5.44   12.85
  -4   4  -9   15.29   10.31
  -4   4  -9   13.74   13.25
   4  -4   9   12.75    9.13
   4  -4   9   23.92   10.29
  -5   4  -9  183.39   20.33
  -5   4  -9  204.51   20.78
   5  -4   9  178.92   16.91
   5  -4   9  189.18   19.15
  -6   4  -9  177.47   20.83
   6  -4   9  204.97   20.18
   6  -4   9  164.57   21.32
   4   3  -9   61.49   28.56
   4   3  -9   63.41   24.58
  -4  -3   9   60.46   17.29
  -4  -3   9   77.41   16.47
  -4  -3   9   62.10   12.08
   3   3  -9    7.83   19.21
   3   3  -9    9.34   17.20
   3   3  -9   14.68   23.53
  -3  -3   9   21.39   13.65
  -3  -3   9   19.51   11.12
  -3  -3   9   10.75    8.60
   2   3  -9  233.21   22.96
   2   3  -9  255.71   24.19
   2   3  -9  174.78   25.57
  -2  -3   9  225.06   18.66
  -2  -3   9  238.10   16.14
  -2  -3   9  242.33   23.61
   1   3  -9  495.27   35.50
   1   3  -9  452.56   29.41
  -1  -3   9  439.44   20.77
  -1  -3   9  442.24   24.37
  -1  -3   9  419.61   28.84
   0   3  -9  130.19   19.54
   0   3  -9  155.18   18.55
   0  -3   9  153.43   13.91
   0  -3   9  150.40   11.33
   0  -3   9  172.25   18.81
  -1   3  -9  483.61   22.49
  -1   3  -9  468.71   33.00
  -1   3  -9  492.63   26.71
   1  -3   9  466.73   19.03
   1  -3   9  464.82   20.54
   1  -3   9  453.42   27.61
   1  -3   9  480.13   23.20
  -2   3  -9  291.78   25.90
  -2   3  -9  310.11   17.28
  -2   3  -9  310.19   20.95
   2  -3   9  335.82   15.47
   2  -3   9  312.55   21.84
   2  -3   9  275.87   17.01
  -3   3  -9  641.53   26.86
  -3   3  -9  645.70   30.67
  -3   3  -9  590.92   34.03
   3  -3   9  685.55   28.38
   3  -3   9  598.97   25.20
   3  -3   9  611.76   24.17
   3  -3   9  623.26   30.91
  -4   3  -9  475.58   28.50
  -4   3  -9  439.65   22.80
  -4   3  -9  452.61   25.77
   4  -3   9  454.07   21.83
   4  -3   9  454.12   23.89
  -5   3  -9   83.52   13.78
  -5   3  -9  117.44   14.49
   5  -3   9  104.23   13.42
  -6   3  -9   21.72   13.92
   6  -3   9   18.15   11.99
   4   2  -9  156.61   26.17
   4   2  -9  144.15   32.52
  -4  -2   9  189.80   22.19
  -4  -2   9  170.22   16.71
  -4  -2   9  256.19   29.50
   3   2  -9   35.00   17.58
   3   2  -9   28.29   20.71
  -3  -2   9   38.89   10.11
  -3  -2   9   45.13   13.11
  -3  -2   9   27.45   12.47
   2   2  -9  109.95   17.42
   2   2  -9   97.10   20.95
   2   2  -9  100.94   17.52
  -2  -2   9   83.94   10.83
  -2  -2   9   97.34   14.90
  -2  -2   9  102.99   18.73
   1   2  -9  258.73   21.75
   1   2  -9  262.82   28.67
   1   2  -9  253.48   16.73
   1   2  -9  227.83   21.65
  -1  -2   9  250.02   15.41
  -1  -2   9  242.17   22.59
  -1  -2   9  293.79   20.76
   0   2  -9  367.16   29.50
   0   2  -9  310.42   22.98
   0  -2   9  395.39   20.77
   0  -2   9  380.61   18.08
   0  -2   9  377.74   25.20
  -1   2  -9  103.33   16.75
  -1   2  -9   93.98   14.02
   1  -2   9   89.75    8.69
   1  -2   9  107.63   12.43
   1  -2   9  107.97   15.01
   1  -2   9   92.50    9.15
  -2   2  -9  175.99   11.68
  -2   2  -9  190.78   16.49
  -2   2  -9  204.61   20.89
  -2   2  -9  206.57   12.88
  -2   2  -9  200.12   20.62
   2  -2   9  168.69   12.04
   2  -2   9  198.73   13.00
   2  -2   9  187.92   11.90
   2  -2   9  194.74   17.25
  -3   2  -9  905.95   33.70
  -3   2  -9  987.29   38.13
  -3   2  -9  966.82   42.02
   3  -2   9 1008.41   36.84
   3  -2   9  886.60   34.72
   3  -2   9  924.55   32.22
   3  -2   9  879.78   39.26
  -4   2  -9   74.19   13.07
  -4   2  -9   67.26   11.91
  -4   2  -9   82.55   10.08
   4  -2   9   90.24   10.84
   4  -2   9   57.46   10.12
  -5   2  -9  162.16   15.56
  -5   2  -9  161.85   17.11
   5  -2   9  173.70   15.53
   5  -2   9  154.48   15.34
  -6   2  -9  254.65   21.31
   6  -2   9  268.91   21.88
   4   1  -9   54.97   27.55
   4   1  -9   81.28   23.84
  -4  -1   9   81.17   18.20
  -4  -1   9   71.93   16.59
  -4  -1   9   84.74   13.48
   3   1  -9   -2.11   17.19
   3   1  -9    3.04   18.93
  -3  -1   9    2.97    7.85
  -3  -1   9    8.90   10.88
  -3  -1   9    3.01    9.49
   2   1  -9   63.82   15.61
   2   1  -9   84.50   19.40
  -2  -1   9   84.79   13.92
  -2  -1   9   90.01   10.83
  -2  -1   9   73.21   14.97
   1   1  -9  694.50   28.91
   1   1  -9  713.27   34.14
   1   1  -9  750.99   34.81
   1   1  -9  686.24   40.49
  -1  -1   9  687.50   36.00
  -1  -1   9  685.54   28.41
  -1  -1   9  701.24   31.80
   0   1  -9   18.37   12.56
   0   1  -9   16.16    9.48
   0   1  -9   13.54    6.62
   0   1  -9    7.84   11.48
   0   1  -9   15.30   12.11
   0  -1   9   10.41    7.01
   0  -1   9   15.50    8.92
   0  -1   9   10.12    5.38
   0  -1   9   13.23    5.26
  -1   1  -9  121.47   14.31
  -1   1  -9  126.88   14.76
  -1   1  -9  121.68   17.17
  -1   1  -9  127.46   13.56
   1  -1   9  120.00   10.30
   1  -1   9   93.32    8.13
   1  -1   9  135.87   15.31
   1  -1   9  143.40   12.15
  -2   1  -9 1731.48   65.90
  -2   1  -9 1794.18   62.07
  -2   1  -9 1667.10   65.48
  -2   1  -9 1772.96   61.71
   2  -1   9 1694.56   55.50
   2  -1   9 1802.50   64.34
   2  -1   9 1686.50   58.01
   2  -1   9 1729.92   57.76
  -3   1  -9   32.24   10.00
  -3   1  -9   40.88    6.07
  -3   1  -9   40.81   11.83
  -3   1  -9   46.23   11.87
  -3   1  -9   29.19   12.31
   3  -1   9   50.68    8.54
   3  -1   9   38.89    7.57
   3  -1   9   50.08    9.78
   3  -1   9   34.14    5.44
  -4   1  -9  133.81   17.33
  -4   1  -9  154.75   16.08
  -4   1  -9  157.40   15.26
  -4   1  -9  144.91   11.51
   4  -1   9  169.92   13.52
   4  -1   9  181.42   14.64
  -5   1  -9  290.75   17.88
  -5   1  -9  279.14   18.06
  -5   1  -9  274.23   24.31
   5  -1   9  281.20   19.27
   5  -1   9  286.66   20.09
  -6   1  -9  163.57   21.70
  -6   1  -9  115.15   19.83
   6  -1   9  224.27   19.86
   6  -1   9  170.50   17.10
  -7   1  -9   41.21   20.26
   7  -1   9   33.75   13.40
   4   0  -9   36.45   20.96
   4   0  -9   46.98   26.12
  -4   0   9   26.00   14.69
  -4   0   9   59.22   11.89
  -4   0   9   32.94   13.48
   3   0  -9  213.00   23.81
   3   0  -9  211.83   30.31
  -3   0   9  255.90   25.89
  -3   0   9  251.79   17.52
  -3   0   9  214.99   19.73
   2   0  -9    1.06   14.70
   2   0  -9   -2.01   15.23
  -2   0   9    2.96    7.90
  -2   0   9    1.71    9.82
  -2   0   9    4.22    6.68
   1   0  -9  683.72   35.45
   1   0  -9  754.16   42.32
   1   0  -9  710.24   29.04
  -1   0   9  755.92   32.97
  -1   0   9  731.66   38.07
  -1   0   9  751.83   29.41
   0   0  -9    8.09   11.51
   0   0  -9   12.19   10.53
   0   0  -9    7.53    8.75
   0   0  -9    1.87   10.44
   0   0   9    6.37    5.31
   0   0   9    6.15    4.30
   0   0   9   11.67    7.23
   0   0   9   14.12    9.24
  -1   0  -9    4.51    8.38
  -1   0  -9    9.84   10.57
  -1   0  -9    1.52   11.15
  -1   0  -9   14.40   10.76
   1   0   9    5.82    7.06
   1   0   9    5.82    2.95
   1   0   9    7.76    6.37
  -2   0  -9  968.49   38.59
  -2   0  -9  957.40   37.63
  -2   0  -9  962.88   37.73
  -2   0  -9  831.64   40.99
  -2   0  -9  996.97   42.38
   2   0   9  899.82   39.34
   2   0   9  905.11   34.48
   2   0   9  940.18   34.45
  -3   0  -9  506.22   24.70
  -3   0  -9  531.35   24.75
  -3   0  -9  488.07   16.91
  -3   0  -9  537.37   28.43
  -3   0  -9  541.87   27.11
  -3   0  -9  473.42   27.21
   3   0   9  491.53   19.02
   3   0   9  440.99   20.22
   3   0   9  499.43   25.29
   3   0   9  497.69   22.57
   3   0   9  525.22   23.18
  -4   0  -9   49.91   10.68
  -4   0  -9   72.55   15.77
  -4   0  -9   58.54    6.84
  -4   0  -9   63.07   10.66
   4   0   9   56.15    9.90
   4   0   9   43.65    8.64
  -5   0  -9  365.56   18.88
  -5   0  -9  356.79   27.65
  -5   0  -9  370.37   19.19
   5   0   9  364.31   21.32
   5   0   9  377.22   21.86
  -6   0  -9  162.25   22.27
   6   0   9  132.14   16.03
   6   0   9  150.38   16.15
  -7   0  -9  137.04   16.29
  -7   0  -9  124.30   24.34
   7   0   9  122.03   17.57
   7   0   9  129.19   17.22
   4  -1  -9   71.61   28.86
   4  -1  -9   49.69   21.37
  -4   1   9   80.59   13.10
  -4   1   9  102.27   17.18
  -4   1   9   58.14   15.03
  -4   1   9   66.91   18.75
   3  -1  -9    8.57   18.27
   3  -1  -9   36.15   17.15
  -3   1   9   32.99   10.95
  -3   1   9   26.43   11.60
  -3   1   9   29.26    9.06
  -3   1   9   18.88   12.95
   2  -1  -9   53.46   16.08
   2  -1  -9   41.16   16.48
  -2   1   9  100.61   18.32
  -2   1   9   57.20    8.99
  -2   1   9   72.06   13.04
   1  -1  -9  582.57   24.99
   1  -1  -9  573.26   30.50
  -1   1   9  554.30   32.84
  -1   1   9  524.81   23.70
  -1   1   9  539.38   26.99
   0  -1  -9   10.44   11.66
   0  -1  -9   17.67   11.76
   0  -1  -9   18.61    8.49
   0   1   9   13.04    5.76
   0   1   9   16.55    4.57
   0   1   9   20.80    7.68
   0   1   9   23.69    9.94
   0   1   9   21.31    5.01
  -1  -1  -9  382.56   21.28
  -1  -1  -9  420.72   23.41
  -1  -1  -9  417.26   28.45
   1   1   9  407.28   14.51
   1   1   9  416.31   25.34
   1   1   9  438.35   20.69
  -2  -1  -9  408.99   26.41
  -2  -1  -9  394.62   22.88
  -2  -1  -9  399.94   22.63
  -2  -1  -9  406.24   23.06
  -2  -1  -9  316.95   24.93
   2   1   9  416.02   18.63
   2   1   9  406.12   23.60
   2   1   9  405.43   15.93
   2   1   9  385.33   18.54
  -3  -1  -9  105.90   14.40
  -3  -1  -9  111.00   13.18
  -3  -1  -9  123.42   14.53
  -3  -1  -9  112.59   13.15
  -3  -1  -9   74.37   12.78
   3   1   9  108.32   10.89
   3   1   9  110.35   10.73
   3   1   9   95.97    8.61
   3   1   9  112.05    8.33
   3   1   9  113.57    9.36
   3   1   9   92.73   12.25
  -4  -1  -9   23.55    9.39
  -4  -1  -9   20.78    4.66
  -4  -1  -9   19.32    9.20
  -4  -1  -9   25.70    9.68
  -4  -1  -9   43.42   13.25
   4   1   9   15.57    6.63
   4   1   9   19.27    7.38
   4   1   9   23.13    7.89
  -5  -1  -9  273.71   17.03
  -5  -1  -9  261.33   22.77
   5   1   9  262.47   19.34
   5   1   9  277.32   18.94
   5   1   9  290.24   18.69
  -6  -1  -9   95.06   20.07
   6   1   9   81.64   13.19
   6   1   9  106.00   14.98
   6   1   9  109.16   15.61
  -7  -1  -9  237.97   20.48
  -7  -1  -9  188.39   24.28
   7   1   9  183.48   20.31
   7   1   9  232.46   21.45
   4  -2  -9   31.44   21.29
  -4   2   9   45.53   14.31
  -4   2   9   37.73   18.27
  -4   2   9   38.68   10.78
  -4   2   9   41.07   15.78
   3  -2  -9   37.63   25.82
   3  -2  -9   11.87   16.84
  -3   2   9   17.32   10.17
  -3   2   9   20.31   14.70
  -3   2   9   24.00    8.62
  -3   2   9   15.79   10.96
   2  -2  -9  126.08   21.91
   2  -2  -9  123.78   19.62
  -2   2   9  135.03   12.75
  -2   2   9  166.69   18.21
  -2   2   9  141.26   14.51
  -2   2   9  173.18   22.34
   1  -2  -9    2.55   16.46
   1  -2  -9   11.71   13.23
   1  -2  -9   -0.73    8.71
  -1   2   9    9.09   10.00
  -1   2   9    1.30    7.85
  -1   2   9    3.52    5.17
  -1   2   9    0.23    5.60
   0  -2  -9  252.41   27.74
   0  -2  -9  260.46   21.80
   0  -2  -9  299.03   19.03
   0   2   9  264.69   18.16
   0   2   9  272.00   12.41
   0   2   9  279.65   22.81
   0   2   9  317.19   16.46
  -1  -2  -9  232.50   16.58
  -1  -2  -9  209.77   18.34
  -1  -2  -9  223.63   23.63
   1   2   9  226.58   19.43
   1   2   9  238.06   15.07
   1   2   9  213.48   10.26
  -2  -2  -9  255.43   18.21
  -2  -2  -9  269.84   23.55
  -2  -2  -9  229.76   18.21
  -2  -2  -9  228.11   26.36
   2   2   9  269.10   20.26
   2   2   9  265.39   15.29
   2   2   9  285.14   15.09
   2   2   9  285.43   13.00
  -3  -2  -9  147.34   17.26
  -3  -2  -9  180.37   17.56
  -3  -2  -9  162.80   14.90
  -3  -2  -9  179.17   19.70
   3   2   9  167.75   12.55
   3   2   9  177.69   10.92
   3   2   9  162.98   11.25
   3   2   9  166.94   16.18
   3   2   9  179.54   13.65
  -4  -2  -9  373.46   24.37
  -4  -2  -9  400.35   24.09
  -4  -2  -9  387.65   22.00
   4   2   9  423.59   20.73
   4   2   9  413.85   21.98
   4   2   9  374.13   20.60
  -5  -2  -9   36.76    8.96
  -5  -2  -9   27.28   13.96
  -5  -2  -9   28.51   12.24
   5   2   9   39.80   10.14
   5   2   9   42.10    9.34
   5   2   9   36.87   10.70
  -6  -2  -9   65.69   17.72
   6   2   9  104.13   15.51
   6   2   9   72.27   12.09
   6   2   9   62.90   12.85
  -7  -2  -9   22.31   18.18
   7   2   9   10.28   12.88
   7   2   9   16.45   12.94
   7   2   9   20.43   12.41
  -4   3   9    1.71   21.76
  -4   3   9    5.98   12.68
   3  -3  -9   -8.51   21.38
   3  -3  -9   -4.38   18.79
  -3   3   9    2.53    8.15
  -3   3   9   -2.05   12.57
  -3   3   9    2.90   11.71
  -3   3   9    1.83    9.56
   2  -3  -9  328.54   27.62
   2  -3  -9  227.30   28.38
   2  -3  -9  257.11   20.56
  -2   3   9  292.30   18.11
  -2   3   9  285.35   21.79
  -2   3   9  286.02   18.40
  -2   3   9  356.72   28.98
   1  -3  -9  139.08   14.19
   1  -3  -9   90.77   19.27
   1  -3  -9  111.12   17.23
  -1   3   9  104.30   10.52
  -1   3   9  113.63   16.99
  -1   3   9  135.80   12.59
  -1   3   9  145.98   16.05
   0  -3  -9  100.46   17.98
   0  -3  -9  176.67   18.76
   0  -3  -9  154.29   14.89
   0   3   9  150.09    9.11
   0   3   9  201.17   22.05
   0   3   9  159.74   14.31
  -1  -3  -9  211.35   16.73
  -1  -3  -9  225.78   25.45
  -1  -3  -9  245.33   21.06
   1   3   9  213.03   15.73
   1   3   9  214.56   20.29
   1   3   9  218.72   12.51
  -2  -3  -9   93.35   16.31
  -2  -3  -9   90.74   13.83
  -2  -3  -9   88.94   13.83
   2   3   9   84.01    8.64
   2   3   9  107.53    9.85
   2   3   9  100.04   14.48
   2   3   9  103.07   11.00
  -3  -3  -9   25.17   12.24
  -3  -3  -9   25.27   11.43
  -3  -3  -9   30.25   10.31
   3   3   9   24.97    6.54
   3   3   9   29.74    6.83
   3   3   9   19.79    6.38
   3   3   9   31.70    8.18
   3   3   9   26.39    9.25
  -4  -3  -9  982.72   41.54
  -4  -3  -9  934.79   40.90
  -4  -3  -9  958.80   38.79
   4   3   9  968.01   38.89
   4   3   9  954.46   37.17
   4   3   9  973.86   37.51
  -5  -3  -9   92.68   12.74
  -5  -3  -9   98.82   12.69
  -5  -3  -9   79.84   16.45
   5   3   9  111.18   13.98
   5   3   9   95.46   13.45
   5   3   9  137.06   14.33
  -6  -3  -9   33.14   16.36
   6   3   9   17.78   10.64
   6   3   9    7.04   10.12
   6   3   9   11.79    9.34
  -7  -3  -9   25.72   20.53
   7   3   9   34.71   14.72
   7   3   9   22.60   15.55
   3  -4  -9   49.78   27.35
   3  -4  -9   77.68   20.60
  -3   4   9   79.21   14.16
  -3   4   9   96.78   22.55
  -3   4   9   68.69   11.84
  -3   4   9   71.57   15.95
   2  -4  -9   16.83   20.63
   2  -4  -9   14.42   17.83
  -2   4   9   21.75   11.10
  -2   4   9   28.09    8.76
  -2   4   9   31.42   15.79
  -2   4   9   15.09    8.06
   1  -4  -9   91.24   21.08
   1  -4  -9  118.34   14.47
   1  -4  -9  102.81   18.32
  -1   4   9  147.08   16.60
  -1   4   9  125.95   11.51
  -1   4   9  115.66   19.29
   0  -4  -9  265.22   24.06
   0  -4  -9  286.24   20.67
   0  -4  -9  291.40   29.92
   0   4   9  265.08   18.32
   0   4   9  253.38   24.47
   0   4   9  253.89   13.07
  -1  -4  -9   66.30   16.88
  -1  -4  -9   44.54   14.18
  -1  -4  -9   42.43   11.35
   1   4   9   65.24   11.18
   1   4   9   65.44   15.26
   1   4   9   40.74    6.54
  -2  -4  -9  668.24   37.44
  -2  -4  -9  691.98   33.02
  -2  -4  -9  713.46   31.58
   2   4   9  662.97   28.70
   2   4   9  651.28   26.08
   2   4   9  623.34   26.00
   2   4   9  640.93   34.35
  -3  -4  -9  936.31   43.14
  -3  -4  -9  906.29   39.57
  -3  -4  -9  891.88   38.84
   3   4   9  893.59   36.52
   3   4   9  970.22   35.42
   3   4   9  888.42   34.82
   3   4   9  904.88   40.79
   3   4   9  912.05   34.23
  -4  -4  -9   17.67   11.73
  -4  -4  -9    4.17   12.95
  -4  -4  -9    1.80    9.95
   4   4   9    4.07    6.24
   4   4   9    9.11    7.72
   4   4   9   12.70    7.68
  -5  -4  -9  105.36   17.82
  -5  -4  -9  106.51   13.99
  -5  -4  -9  110.15   14.72
   5   4   9   98.10   13.78
   5   4   9  108.44   13.78
   5   4   9   83.97   11.54
  -6  -4  -9  117.40   19.20
  -6  -4  -9  131.81   14.19
   6   4   9  135.57   18.31
   6   4   9  104.78   15.56
   6   4   9  134.08   15.12
  -7  -4  -9  165.74   26.62
   7   4   9  117.14   20.05
   7   4   9  149.19   20.53
   3  -5  -9    2.43   23.02
   3  -5  -9   18.33   26.60
  -3   5   9   18.32   14.22
  -3   5   9   14.80   18.20
  -3   5   9   16.22   10.01
   2  -5  -9   20.88   23.65
   2  -5  -9   20.80   18.48
  -2   5   9   23.90   13.07
  -2   5   9   34.48   16.50
   1  -5  -9  169.17   17.72
   1  -5  -9  132.74   21.36
   1  -5  -9  110.67   22.46
  -1   5   9  164.82   18.32
  -1   5   9  186.49   24.33
   0  -5  -9   43.43   19.85
   0  -5  -9   21.40   18.65
   0  -5  -9   35.25   12.65
   0   5   9   27.97    5.92
   0   5   9   32.63   13.52
   0   5   9   46.46   11.71
  -1  -5  -9  165.88   24.25
  -1  -5  -9  140.91   19.05
  -1  -5  -9  156.29   17.05
   1   5   9  197.86   23.94
   1   5   9  156.41   14.92
   1   5   9  151.06   11.04
  -2  -5  -9   44.65   13.74
  -2  -5  -9   33.32   15.54
  -2  -5  -9   36.28   14.79
   2   5   9   39.06   12.36
   2   5   9   48.75    7.62
   2   5   9   57.36   10.40
  -3  -5  -9  290.63   23.88
  -3  -5  -9  347.26   29.87
  -3  -5  -9  329.90   25.07
   3   5   9  299.08   16.89
   3   5   9  289.99   23.75
   3   5   9  319.30   19.24
   3   5   9  328.92   18.45
   3   5   9  295.98   17.20
  -4  -5  -9  181.57   19.39
  -4  -5  -9  206.49   22.10
  -4  -5  -9  187.06   20.27
   4   5   9  206.25   15.29
   4   5   9  209.33   17.52
   4   5   9  195.79   15.76
  -5  -5  -9  182.47   19.16
  -5  -5  -9  223.74   21.53
  -5  -5  -9  217.44   21.97
  -5  -5  -9  219.57   22.49
   5   5   9  203.80   17.00
   5   5   9  215.60   18.59
   5   5   9  267.56   20.48
  -6  -5  -9  223.51   23.68
  -6  -5  -9  191.58   20.99
   6   5   9  200.26   20.48
   6   5   9  190.23   22.04
   2  -6  -9   21.88   28.09
   2  -6  -9    8.72   20.54
  -2   6   9   27.88   13.27
  -2   6   9   12.81   16.73
   1  -6  -9   37.27   16.12
   1  -6  -9   23.24   22.66
   1  -6  -9   13.54   18.31
  -1   6   9   19.76   15.16
  -1   6   9   28.12   12.81
   0  -6  -9   60.66   14.88
   0  -6  -9   66.76   20.45
   0  -6  -9   60.61   21.16
   0   6   9   93.34   19.87
   0   6   9  104.45   15.25
  -1  -6  -9  160.31   23.58
  -1  -6  -9  250.74   22.22
  -1  -6  -9  223.23   23.65
   1   6   9  214.42   12.64
   1   6   9  207.00   17.77
   1   6   9  225.23   25.75
  -2  -6  -9   14.82   16.16
  -2  -6  -9   13.21   13.19
  -2  -6  -9   22.12   14.49
   2   6   9   18.10   12.11
   2   6   9   21.98    6.32
   2   6   9   17.10    9.67
  -3  -6  -9  138.62   21.01
  -3  -6  -9  122.35   17.34
  -3  -6  -9  131.48   20.02
   3   6   9  142.20   12.21
   3   6   9  136.63   14.20
   3   6   9  177.34   16.15
   3   6   9  148.07   13.40
   3   6   9  130.05   18.92
  -4  -6  -9   99.86   17.92
  -4  -6  -9  102.22   17.94
  -4  -6  -9   70.12   16.15
   4   6   9  114.25   14.43
   4   6   9   89.23   10.93
   4   6   9  121.51   15.43
  -5  -6  -9  487.93   30.59
  -5  -6  -9  448.32   30.42
  -5  -6  -9  461.61   29.84
  -5  -6  -9  410.66   30.90
   5   6   9  475.23   27.37
   5   6   9  421.37   26.45
  -6  -6  -9  264.03   26.51
  -6  -6  -9  280.74   25.39
   6   6   9  276.22   24.95
   6   6   9  271.84   24.28
   1  -7  -9   11.56   19.46
   1  -7  -9    5.03   16.71
   1  -7  -9   14.21   26.04
  -1   7   9   10.82   12.97
  -1   7   9    3.04   16.08
   0  -7  -9   46.16   21.99
   0  -7  -9   61.10   19.22
   0  -7  -9   63.79   21.35
   0   7   9   65.00   18.62
   0   7   9   96.15   17.47
  -1  -7  -9   75.80   21.92
  -1  -7  -9  113.85   19.22
  -1  -7  -9   75.52   20.73
   1   7   9  105.98   15.31
   1   7   9   72.70   18.56
  -2  -7  -9   99.40   23.00
  -2  -7  -9  119.71   18.67
  -2  -7  -9   65.05   19.29
   2   7   9  105.73   19.52
   2   7   9   91.65   14.52
  -3  -7  -9    9.64   16.35
  -3  -7  -9    6.63   16.79
  -3  -7  -9    5.85   17.66
   3   7   9   -0.69    8.23
   3   7   9    0.39    9.76
   3   7   9    3.61    6.65
  -4  -7  -9  149.51   22.91
  -4  -7  -9  120.45   20.89
  -4  -7  -9  155.77   20.84
  -4  -7  -9  156.05   21.43
   4   7   9  123.23   15.34
   4   7   9  189.50   17.91
  -5  -7  -9  363.54   32.94
  -5  -7  -9  404.55   32.77
  -5  -7  -9  339.51   30.66
  -5  -7  -9  350.57   29.81
   5   7   9  360.19   25.43
   5   7   9  387.88   25.49
   0  -8  -9   20.83   20.54
   0  -8  -9   44.45   28.61
   0  -8  -9   30.88   20.39
   0   8   9   47.39   15.72
   0   8   9   40.83   18.63
  -1  -8  -9  157.32   30.34
  -1  -8  -9  159.36   22.27
  -1  -8  -9  122.24   23.52
   1   8   9  168.55   20.48
   1   8   9  198.18   27.39
  -2  -8  -9  254.78   32.02
  -2  -8  -9  258.33   29.14
   2   8   9  280.95   22.77
   2   8   9  207.87   26.63
  -3  -8  -9   35.70   17.05
  -3  -8  -9   39.97   18.81
  -3  -8  -9   30.89   21.47
  -3  -8  -9   21.56   17.93
   3   8   9   37.67   12.13
   3   8   9   40.08   13.41
  -4  -8  -9   43.93   20.97
  -4  -8  -9   48.08   20.00
  -4  -8  -9   74.63   20.11
  -4  -8  -9   79.35   22.88
   4   8   9   52.04   14.47
   4   8   9   65.91   13.97
   1   7 -10  109.67   24.60
   1   7 -10   66.17   27.26
  -1  -7  10   99.15   18.78
  -1  -7  10  110.83   15.20
  -1  -7  10  107.81   22.64
   0   7 -10  565.01   49.46
   0   7 -10  600.40   39.08
   0  -7  10  576.51   32.50
   0  -7  10  600.34   40.94
  -1   7 -10   14.83   13.90
  -1   7 -10   11.05   19.13
  -1   7 -10   13.65   23.11
   1  -7  10   23.03   15.18
   1  -7  10    6.03   10.22
  -2   7 -10   32.08   20.61
  -2   7 -10   42.22   23.40
  -2   7 -10   38.11   14.68
   2  -7  10   32.93   13.12
  -3   7 -10  173.15   20.71
  -3   7 -10  141.82   27.22
  -3   7 -10  158.71   26.00
   3  -7  10  162.86   16.92
   2   6 -10  126.26   26.49
   2   6 -10  117.73   33.29
  -2  -6  10  147.54   25.66
  -2  -6  10  167.61   21.26
  -2  -6  10  132.81   14.79
   1   6 -10  256.29   28.08
   1   6 -10  174.27   28.75
  -1  -6  10  317.56   30.38
  -1  -6  10  256.46   18.05
  -1  -6  10  236.83   21.48
   0   6 -10  514.71   34.80
   0   6 -10  492.01   45.13
   0  -6  10  477.69   22.79
   0  -6  10  554.10   36.61
   0  -6  10  534.72   29.75
  -1   6 -10   32.06   13.16
  -1   6 -10   41.72   17.90
  -1   6 -10   19.33   20.75
   1  -6  10   28.32   11.74
   1  -6  10   35.69   14.11
  -2   6 -10  119.81   24.65
  -2   6 -10  157.40   22.92
  -2   6 -10  110.92   16.07
   2  -6  10  110.54   14.68
  -3   6 -10  107.70   23.94
  -3   6 -10   94.83   20.06
  -3   6 -10   82.33   15.24
   3  -6  10  127.10   15.14
   3  -6  10   97.78   13.93
  -4   6 -10  180.50   24.67
  -4   6 -10  144.30   25.21
  -4   6 -10  236.54   22.80
   4  -6  10  192.13   19.66
   4  -6  10  152.96   17.90
   3   5 -10  102.81   34.26
   3   5 -10  133.34   28.50
   3   5 -10  126.97   25.00
  -3  -5  10  100.56   20.76
  -3  -5  10  102.64   20.41
  -3  -5  10  116.11   15.05
   2   5 -10    4.68   24.39
   2   5 -10    2.69   17.79
  -2  -5  10    3.09    8.64
  -2  -5  10   -1.12   11.71
  -2  -5  10   -2.15   11.42
   1   5 -10  831.24   55.32
   1   5 -10  838.29   44.47
  -1  -5  10  918.64   48.53
  -1  -5  10  834.94   39.93
  -1  -5  10  839.93   34.15
   0   5 -10   98.96   19.30
   0   5 -10  117.57   25.51
   0  -5  10   84.76    9.80
   0  -5  10  106.84   19.59
   0  -5  10  110.53   15.41
  -1   5 -10  228.27   27.82
  -1   5 -10  231.55   24.79
  -1   5 -10  196.66   19.73
   1  -5  10  203.71   18.14
   1  -5  10  212.79   14.05
   1  -5  10  200.25   24.05
  -2   5 -10   60.90   18.19
  -2   5 -10   79.20   13.36
  -2   5 -10   59.82   19.86
   2  -5  10   80.37   11.85
   2  -5  10   65.20   15.75
  -3   5 -10  150.66   16.12
  -3   5 -10  120.30   22.38
  -3   5 -10  115.68   19.20
   3  -5  10  134.17   14.85
  -4   5 -10   12.56   17.19
  -4   5 -10    6.60   16.70
  -4   5 -10   20.11   12.71
   4  -5  10    9.09   10.74
   4  -5  10   10.11   10.67
  -5   5 -10   44.25   19.29
  -5   5 -10   32.48   17.16
   5  -5  10   35.69   13.81
   5  -5  10   47.97   15.22
   3   4 -10  165.66   25.40
   3   4 -10  214.10   27.78
   3   4 -10  183.85   35.09
  -3  -4  10  182.70   17.52
  -3  -4  10  149.79   23.35
  -3  -4  10  198.87   22.16
   2   4 -10  131.58   22.89
   2   4 -10  142.76   30.31
   2   4 -10  134.28   23.68
  -2  -4  10  123.40   21.02
  -2  -4  10  107.06   13.14
  -2  -4  10  114.39   16.82
   1   4 -10  243.42   24.96
   1   4 -10  239.73   30.75
  -1  -4  10  246.71   25.78
  -1  -4  10  259.40   17.15
  -1  -4  10  280.51   20.72
   0   4 -10   13.63   15.89
   0   4 -10   17.59   17.36
   0  -4  10   14.75    8.73
   0  -4  10   10.22   10.45
   0  -4  10   14.66    6.65
  -1   4 -10  156.21   20.01
  -1   4 -10  126.89   22.74
   1  -4  10  169.51   21.13
   1  -4  10  150.40   12.19
   1  -4  10  138.44   14.40
  -2   4 -10   88.16   19.23
  -2   4 -10   95.99   12.88
  -2   4 -10   94.45   18.14
   2  -4  10   96.07   16.13
   2  -4  10   88.14   12.10
  -3   4 -10  144.49   14.54
  -3   4 -10   99.68   18.87
  -3   4 -10  108.03   16.87
   3  -4  10  136.28   13.60
  -4   4 -10   43.21   16.49
  -4   4 -10   62.65   12.72
  -4   4 -10   63.40   16.65
   4  -4  10   53.59   11.93
  -5   4 -10  338.37   28.51
   5  -4  10  320.05   24.03
   3   3 -10   22.39   20.12
   3   3 -10   31.88   27.49
   3   3 -10   22.84   18.06
  -3  -3  10   28.72   16.14
  -3  -3  10   12.27    9.50
  -3  -3  10   24.11   12.73
   2   3 -10  123.14   21.55
   2   3 -10  113.43   25.37
   2   3 -10   95.45   21.15
  -2  -3  10  119.08   12.91
  -2  -3  10   93.63   17.49
  -2  -3  10  148.55   17.66
   1   3 -10   57.22   20.25
   1   3 -10   49.02   15.99
   1   3 -10   65.41   17.72
   1   3 -10   50.56   13.53
  -1  -3  10   78.11   10.16
  -1  -3  10   71.76   12.50
  -1  -3  10   42.31   12.62
   0   3 -10  399.40   26.85
   0   3 -10  384.03   33.51
   0  -3  10  400.24   23.55
   0  -3  10  333.70   26.72
   0  -3  10  369.07   19.50
  -1   3 -10  131.08   17.75
  -1   3 -10  103.15   20.04
   1  -3  10  157.48   19.33
   1  -3  10  135.44   11.45
   1  -3  10  135.09   10.75
   1  -3  10  172.56   16.19
  -2   3 -10  373.58   19.81
  -2   3 -10  376.51   26.33
  -2   3 -10  345.44   29.54
   2  -3  10  393.10   17.88
   2  -3  10  368.17   19.75
   2  -3  10  330.56   24.42
  -3   3 -10  191.61   21.84
  -3   3 -10  185.11   18.48
  -3   3 -10  181.80   14.57
   3  -3  10  177.68   13.52
   3  -3  10  172.53   12.43
   3  -3  10  180.76   14.91
  -4   3 -10   62.15   15.10
  -4   3 -10   79.89   11.88
  -4   3 -10   79.16   15.00
   4  -3  10   72.14   12.16
   4  -3  10   68.03   10.67
  -5   3 -10   59.29   14.58
   5  -3  10  100.08   13.62
   5  -3  10   87.59   14.10
   6  -3  10  138.54   17.74
   3   2 -10  275.27   36.17
   3   2 -10  252.90   28.06
  -3  -2  10  249.51   27.84
  -3  -2  10  244.61   19.32
  -3  -2  10  243.82   23.12
   2   2 -10  138.80   20.95
   2   2 -10  216.44   24.42
   2   2 -10  199.02   31.05
  -2  -2  10  211.08   25.98
  -2  -2  10  185.10   19.71
  -2  -2  10  173.60   15.46
   1   2 -10    4.08   13.54
   1   2 -10    8.88   14.06
   1   2 -10    8.97   18.21
   1   2 -10    6.35   10.48
  -1  -2  10    1.06    6.21
  -1  -2  10    6.86    8.48
  -1  -2  10    0.01    9.03
   0   2 -10  959.05   42.94
   0   2 -10 1001.58   51.37
   0   2 -10  964.02   43.68
   0   2 -10  998.93   39.90
   0  -2  10  984.09   36.73
   0  -2  10 1007.19   46.68
   0  -2  10  989.80   40.16
  -1   2 -10   -2.10   11.63
  -1   2 -10    9.32   14.41
  -1   2 -10   -0.43    9.81
   1  -2  10   -0.82    7.28
   1  -2  10    2.85    6.32
   1  -2  10    5.99    5.86
  -2   2 -10  297.89   26.58
  -2   2 -10  306.14   21.98
   2  -2  10  316.03   17.82
   2  -2  10  304.35   22.40
   2  -2  10  310.99   16.38
  -3   2 -10  351.13   17.40
  -3   2 -10  373.63   27.65
  -3   2 -10  374.65   24.13
   3  -2  10  360.59   16.84
   3  -2  10  356.60   20.01
   3  -2  10  353.85   18.87
  -4   2 -10 1266.66   51.61
  -4   2 -10 1101.65   44.68
  -4   2 -10 1279.69   48.55
   4  -2  10 1339.31   46.83
   4  -2  10 1322.06   48.38
  -5   2 -10   80.46   14.61
   5  -2  10   74.84   12.44
   5  -2  10   86.59   13.62
  -6   2 -10  105.49   24.00
   6  -2  10  129.13   16.58
   6  -2  10  133.44   16.75
   3   1 -10  516.22   35.50
   3   1 -10  559.07   47.73
  -3  -1  10  552.64   31.21
  -3  -1  10  581.62   28.65
  -3  -1  10  599.88   39.48
   2   1 -10  112.11   19.90
   2   1 -10  106.47   26.35
  -2  -1  10   94.06   11.73
  -2  -1  10   83.73   17.09
  -2  -1  10  125.78   15.92
   1   1 -10  215.99   22.04
   1   1 -10  215.63   28.00
   1   1 -10  198.90   16.29
   1   1 -10  233.15   23.27
  -1  -1  10  208.14   21.87
  -1  -1  10  216.27   17.28
  -1  -1  10  207.86   14.26
   0   1 -10  309.11   25.08
   0   1 -10  323.27   20.93
   0   1 -10  324.03   29.65
   0   1 -10  310.29   23.23
   0  -1  10  342.29   24.98
   0  -1  10  366.33   21.16
   0  -1  10  317.26   17.50
  -1   1 -10  721.01   34.48
  -1   1 -10  737.31   34.63
  -1   1 -10  689.81   40.31
  -1   1 -10  763.71   34.13
   1  -1  10  764.34   30.03
   1  -1  10  774.30   32.06
   1  -1  10  765.12   37.08
  -2   1 -10  159.59   17.94
  -2   1 -10  112.80   17.31
  -2   1 -10  152.11   17.14
   2  -1  10  166.75   18.63
   2  -1  10  159.94   12.30
   2  -1  10  153.37   12.97
  -3   1 -10  846.13   35.47
  -3   1 -10  843.89   40.17
  -3   1 -10  761.59   30.79
  -3   1 -10  821.02   37.35
   3  -1  10  791.34   36.44
   3  -1  10  808.72   33.43
   3  -1  10  879.51   33.21
   3  -1  10  806.88   29.63
  -4   1 -10   85.08   14.70
  -4   1 -10   88.98   13.30
  -4   1 -10   83.68   16.71
   4  -1  10   75.89   11.45
   4  -1  10   62.89   10.81
  -5   1 -10   98.71   18.70
  -5   1 -10  104.27   13.57
   5  -1  10   83.67   12.65
   5  -1  10  125.64   14.83
  -6   1 -10  113.51   23.49
   6  -1  10  141.68   17.17
   6  -1  10  140.89   16.97
   3   0 -10  434.65   33.69
  -3   0  10  442.92   29.49
  -3   0  10  424.14   24.63
  -3   0  10  440.89   35.16
   2   0 -10  244.40   24.12
   2   0 -10  217.28   29.03
  -2   0  10  214.12   16.52
  -2   0  10  236.71   25.71
  -2   0  10  226.86   19.37
   1   0 -10  226.88   23.09
   1   0 -10  226.90   26.80
   1   0 -10  207.21   16.20
  -1   0  10  209.67   18.92
  -1   0  10  253.51   16.52
  -1   0  10  279.16   24.46
   0   0 -10   25.48   12.94
   0   0 -10   41.17   14.07
   0   0 -10   34.04   15.23
   0   0 -10   35.37   11.30
   0   0  10   40.12    9.83
   0   0  10   40.65   12.80
   0   0  10   39.60    7.91
  -1   0 -10  679.40   33.33
  -1   0 -10  674.36   38.81
  -1   0 -10  681.44   30.85
  -1   0 -10  666.61   32.99
   1   0  10  719.99   30.59
   1   0  10  731.24   36.27
  -2   0 -10  588.90   33.50
  -2   0 -10  519.37   29.07
  -2   0 -10  536.43   29.31
  -2   0 -10  544.54   27.79
   2   0  10  568.09   24.65
   2   0  10  511.80   29.36
  -3   0 -10  745.16   35.43
  -3   0 -10  795.13   38.42
  -3   0 -10  830.75   35.19
  -3   0 -10  806.78   35.02
   3   0  10  826.26   32.07
   3   0  10  797.05   32.03
   3   0  10  750.33   35.29
   3   0  10  713.31   28.23
  -4   0 -10  135.08   14.69
  -4   0 -10  127.59   14.47
  -4   0 -10  142.49   16.04
  -4   0 -10  146.15   19.36
   4   0  10   99.28   12.36
   4   0  10  124.20   13.38
  -5   0 -10  161.49   20.92
  -5   0 -10  183.61   17.37
   5   0  10  150.53   15.24
   5   0  10  165.22   16.48
  -6   0 -10   59.87   18.42
   6   0  10   60.66   13.21
   6   0  10   48.94   12.75
  -7   0 -10  139.12   24.45
   7   0  10  134.67   19.87
   7   0  10  146.43   19.88
   3  -1 -10   20.61   21.02
   3  -1 -10   22.88   21.72
  -3   1  10   54.73   13.13
  -3   1  10   40.39   10.10
  -3   1  10   49.93   13.69
  -3   1  10   32.55   14.79
   2  -1 -10   69.55   20.96
   2  -1 -10   31.59   18.14
  -2   1  10   43.57   14.19
  -2   1  10   35.92    9.36
  -2   1  10   60.58   13.44
  -2   1  10   51.98   10.91
   1  -1 -10   41.93   17.03
   1  -1 -10   35.91   16.74
   1  -1 -10   48.46   11.02
  -1   1  10   53.03    8.73
  -1   1  10   47.36    8.80
  -1   1  10   71.93   16.12
  -1   1  10   32.21   10.35
   0  -1 -10  329.33   31.13
   0  -1 -10  369.49   21.92
   0  -1 -10  395.03   26.08
   0   1  10  405.01   27.63
   0   1  10  389.34   21.83
   0   1  10  410.05   20.08
   0   1  10  381.36   16.73
  -1  -1 -10  520.73   33.89
  -1  -1 -10  566.90   31.18
  -1  -1 -10  488.07   26.78
   1   1  10  484.51   29.12
   1   1  10  470.35   24.03
  -2  -1 -10  276.79   20.35
  -2  -1 -10  244.55   21.41
  -2  -1 -10  254.27   24.53
   2   1  10  288.09   16.21
   2   1  10  244.51   20.42
   2   1  10  282.69   15.80
   2   1  10  268.91   12.00
  -3  -1 -10  379.73   26.18
  -3  -1 -10  384.04   23.35
  -3  -1 -10  357.36   22.98
  -3  -1 -10  386.09   24.17
   3   1  10  359.06   16.74
   3   1  10  350.03   16.72
   3   1  10  378.35   23.19
   3   1  10  359.52   19.33
   3   1  10  379.64   20.15
  -4  -1 -10   25.86   11.16
  -4  -1 -10   13.74   11.35
  -4  -1 -10    8.77   13.23
  -4  -1 -10    9.23   11.13
   4   1  10   17.79    7.79
   4   1  10   19.00    8.48
   4   1  10   10.92    6.94
  -5  -1 -10  391.70   23.18
  -5  -1 -10  419.77   29.15
   5   1  10  425.55   24.09
   5   1  10  426.06   24.57
   5   1  10  430.51   22.91
  -6  -1 -10  106.41   21.97
   6   1  10   96.51   14.68
   6   1  10   91.25   14.45
  -7  -1 -10   57.59   23.23
   7   1  10   78.56   15.72
   7   1  10   68.52   15.94
   3  -2 -10  222.43   26.80
   3  -2 -10  155.38   30.79
  -3   2  10  233.92   19.82
  -3   2  10  247.10   25.40
  -3   2  10  321.02   30.49
  -3   2  10  277.40   30.86
   2  -2 -10   50.71   18.90
   2  -2 -10   31.12   20.73
  -2   2  10   46.86   11.13
  -2   2  10   56.00   16.09
  -2   2  10   46.60   10.05
  -2   2  10   49.34   13.13
   1  -2 -10    6.22   14.81
   1  -2 -10    0.80   10.24
   1  -2 -10   -5.60   15.83
  -1   2  10    5.25   10.57
  -1   2  10    1.43    6.56
  -1   2  10    1.23    7.78
   0  -2 -10  845.14   34.71
   0  -2 -10  845.41   47.76
   0  -2 -10  781.79   38.68
   0   2  10  822.53   41.42
   0   2  10  811.00   35.72
  -1  -2 -10  212.22   23.56
  -1  -2 -10  211.92   18.01
  -1  -2 -10  195.51   20.30
   1   2  10  209.50   15.38
   1   2  10  217.78   20.62
   1   2  10  218.90    9.94
  -2  -2 -10  634.51   35.71
  -2  -2 -10  624.12   30.09
  -2  -2 -10  597.19   32.35
   2   2  10  621.14   26.88
   2   2  10  619.91   25.98
   2   2  10  623.96   32.34
   2   2  10  611.78   23.28
  -3  -2 -10  971.36   43.36
  -3  -2 -10  911.28   38.53
  -3  -2 -10  939.32   39.65
   3   2  10  897.19   35.57
   3   2  10  890.00   33.06
   3   2  10  826.10   39.10
   3   2  10  891.49   36.03
   3   2  10  889.37   32.94
  -4  -2 -10  768.52   36.58
  -4  -2 -10  692.80   34.09
  -4  -2 -10  793.49   37.20
   4   2  10  741.75   32.24
   4   2  10  753.86   33.62
   4   2  10  813.59   31.22
  -5  -2 -10   47.97   16.36
  -5  -2 -10   58.89   11.73
   5   2  10   76.19   12.19
   5   2  10   85.81   12.58
   5   2  10   87.14   14.37
  -6  -2 -10  226.26   26.54
   6   2  10  179.74   18.28
   6   2  10  247.33   21.19
   6   2  10  204.04   20.53
  -7  -2 -10   30.04   21.82
   7   2  10   30.02   14.37
   7   2  10   29.96   14.86
   7   2  10   27.07   12.98
   3  -3 -10   87.46   22.97
   3  -3 -10   95.70   29.67
  -3   3  10  125.49   23.91
  -3   3  10  130.72   14.97
  -3   3  10   96.88   18.87
   2  -3 -10   22.64   19.03
   2  -3 -10   19.46   22.38
  -2   3  10   31.54   14.60
  -2   3  10   32.29   12.38
  -2   3  10   48.75   10.45
   1  -3 -10  110.29   22.79
   1  -3 -10  134.71   21.25
   1  -3 -10  163.06   16.51
  -1   3  10  182.51   18.55
  -1   3  10  171.97   14.77
  -1   3  10  141.89   20.49
   0  -3 -10  290.96   24.29
   0  -3 -10  271.97   20.57
   0  -3 -10  219.91   26.19
   0   3  10  289.47   25.14
   0   3  10  265.45   18.94
  -1  -3 -10  607.90   29.72
  -1  -3 -10  617.28   32.43
  -1  -3 -10  639.23   39.74
   1   3  10  622.48   25.35
   1   3  10  642.78   29.04
   1   3  10  679.06   35.98
   1   3  10  599.54   22.96
  -2  -3 -10  247.78   22.82
  -2  -3 -10  237.02   20.13
  -2  -3 -10  220.51   24.18
   2   3  10  210.63   21.22
   2   3  10  228.48   12.94
   2   3  10  248.42   14.45
   2   3  10  210.12   15.57
  -3  -3 -10  195.55   19.03
  -3  -3 -10  206.17   22.20
  -3  -3 -10  189.41   19.07
   3   3  10  203.79   13.75
   3   3  10  205.57   15.10
   3   3  10  200.97   19.43
   3   3  10  206.51   13.44
   3   3  10  197.39   15.82
  -4  -3 -10  698.29   35.43
  -4  -3 -10  653.30   32.12
  -4  -3 -10  688.02   35.01
   4   3  10  681.66   29.72
   4   3  10  687.78   29.37
   4   3  10  721.51   32.00
  -5  -3 -10   92.57   18.23
  -5  -3 -10  118.48   15.09
   5   3  10  121.99   13.42
   5   3  10  130.33   14.95
   5   3  10  116.46   14.78
  -6  -3 -10   97.08   20.17
   6   3  10   75.17   12.81
   6   3  10   98.62   15.73
   6   3  10   72.07   14.29
   2  -4 -10  118.69   30.24
   2  -4 -10   91.74   23.71
  -2   4  10  105.61   17.79
  -2   4  10  126.73   14.27
  -2   4  10  133.15   23.96
   1  -4 -10  348.81   36.54
   1  -4 -10  263.68   21.73
   1  -4 -10  244.28   27.59
  -1   4  10  279.02   21.38
  -1   4  10  252.06   28.68
   0  -4 -10   17.85   15.74
   0  -4 -10   24.76   12.09
   0  -4 -10   14.25   18.12
   0   4  10   24.01    9.57
   0   4  10   24.31   13.45
  -1  -4 -10  411.64   26.03
  -1  -4 -10  419.88   28.82
  -1  -4 -10  405.90   35.22
   1   4  10  433.27   19.50
   1   4  10  454.45   30.96
   1   4  10  441.14   24.40
  -2  -4 -10  428.16   26.74
  -2  -4 -10  414.76   32.93
  -2  -4 -10  394.37   24.90
   2   4  10  409.43   18.95
   2   4  10  385.94   21.50
   2   4  10  385.46   27.70
   2   4  10  402.55   19.64
  -3  -4 -10  268.07   23.12
  -3  -4 -10  245.62   21.43
  -3  -4 -10  243.08   26.01
   3   4  10  223.31   21.41
   3   4  10  224.39   16.88
   3   4  10  245.24   15.67
   3   4  10  224.71   15.86
   3   4  10  256.89   15.83
  -4  -4 -10   11.57   14.18
  -4  -4 -10    6.09   12.77
  -4  -4 -10   10.01   11.94
   4   4  10   -0.34    7.39
   4   4  10    9.81    7.70
   4   4  10    4.92    8.59
  -5  -4 -10  356.52   25.67
  -5  -4 -10  344.13   27.73
  -5  -4 -10  304.97   27.31
   5   4  10  332.30   21.10
   5   4  10  353.74   21.61
   5   4  10  355.34   22.72
  -6  -4 -10  296.26   22.08
  -6  -4 -10  294.67   27.70
   6   4  10  273.98   23.27
   6   4  10  296.52   21.65
   6   4  10  274.57   22.00
   2  -5 -10  238.14   28.44
   2  -5 -10  222.98   34.62
  -2   5  10  284.42   24.42
  -2   5  10  312.78   32.97
   1  -5 -10  239.00   27.56
   1  -5 -10  292.93   24.38
  -1   5  10  279.59   31.22
  -1   5  10  284.29   22.98
   0  -5 -10  139.99   23.75
   0  -5 -10  132.80   18.79
   0  -5 -10  158.39   27.29
   0   5  10  133.65   10.79
   0   5  10  118.43   15.96
   0   5  10  169.48   23.17
  -1  -5 -10   60.81   19.82
  -1  -5 -10   60.72   17.03
  -1  -5 -10   91.85   17.16
   1   5  10  101.43   13.65
   1   5  10   81.52    9.01
   1   5  10   66.86   16.21
  -2  -5 -10  287.10   25.27
  -2  -5 -10  336.30   32.35
  -2  -5 -10  336.14   23.76
   2   5  10  309.12   16.76
   2   5  10  335.86   17.30
   2   5  10  323.95   27.65
   2   5  10  350.92   21.45
  -3  -5 -10   -1.47   12.41
  -3  -5 -10   11.86   14.02
  -3  -5 -10    6.92   13.96
   3   5  10   10.13    7.51
   3   5  10    4.58    6.73
   3   5  10    6.04    8.01
   3   5  10    6.81    7.84
  -4  -5 -10    9.14   13.55
  -4  -5 -10    8.38   14.78
  -4  -5 -10   15.99   13.85
   4   5  10   18.03    9.91
   4   5  10   15.17    9.14
   4   5  10   15.18    8.23
  -5  -5 -10  256.57   24.73
  -5  -5 -10  270.67   25.11
  -5  -5 -10  227.04   24.61
   5   5  10  288.92   21.13
   5   5  10  257.48   18.82
   5   5  10  283.05   22.29
  -6  -5 -10  279.80   24.09
  -6  -5 -10  230.16   26.10
   6   5  10  322.45   26.01
   6   5  10  277.82   22.88
   1  -6 -10   80.24   24.28
   1  -6 -10  103.00   19.26
   1  -6 -10   79.10   27.98
  -1   6  10   86.38   21.67
  -1   6  10  102.31   17.52
   0  -6 -10  684.15   36.02
   0  -6 -10  679.59   51.09
   0  -6 -10  610.60   39.09
   0   6  10  659.81   33.75
   0   6  10  671.66   43.57
  -1  -6 -10   53.46   22.09
  -1  -6 -10   53.74   16.08
  -1  -6 -10   38.50   18.41
   1   6  10   67.04   18.39
   1   6  10   69.07   14.48
  -2  -6 -10  245.97   29.51
  -2  -6 -10  285.43   24.20
  -2  -6 -10  317.40   30.41
   2   6  10  263.23   28.63
   2   6  10  299.90   21.31
   2   6  10  279.71   16.55
  -3  -6 -10   63.71   18.65
  -3  -6 -10   80.93   18.69
  -3  -6 -10   94.34   18.49
   3   6  10   87.05   12.12
   3   6  10   84.22   10.33
   3   6  10   93.26   13.26
   3   6  10   84.52   12.37
  -4  -6 -10  130.33   21.48
  -4  -6 -10  102.56   19.03
  -4  -6 -10  108.56   20.42
   4   6  10  120.75   15.15
   4   6  10  100.53   14.36
   4   6  10  136.30   13.70
  -5  -6 -10   99.17   19.96
  -5  -6 -10   96.86   21.81
  -5  -6 -10  121.81   19.99
  -5  -6 -10   67.29   16.43
   5   6  10   99.46   15.67
   5   6  10   74.75   13.85
   5   6  10   80.82   12.68
   0  -7 -10  443.86   31.08
   0  -7 -10  407.35   45.17
   0  -7 -10  410.92   39.53
   0   7  10  455.88   39.28
   0   7  10  409.50   30.45
  -1  -7 -10  186.58   28.47
  -1  -7 -10  206.62   27.06
  -1  -7 -10  266.57   25.43
   1   7  10  282.53   22.35
   1   7  10  284.98   31.84
  -2  -7 -10   80.13   18.78
  -2  -7 -10   67.27   21.68
  -2  -7 -10   63.32   20.82
   2   7  10  108.41   22.29
   2   7  10  107.53   16.32
  -3  -7 -10  147.89   21.45
  -3  -7 -10  147.97   23.32
  -3  -7 -10  192.88   27.41
   3   7  10  192.67   18.21
   3   7  10  192.70   18.31
   3   7  10  151.16   17.15
  -4  -7 -10   83.35   19.79
  -4  -7 -10   76.07   20.51
  -4  -7 -10   81.34   22.09
  -4  -7 -10  106.71   22.93
   4   7  10  105.57   15.49
   4   7  10   94.49   15.11
   4   7  10   88.04   11.78
  -5  -7 -10  173.64   25.44
  -5  -7 -10  118.26   20.99
  -5  -7 -10  123.72   22.79
  -5  -7 -10  131.44   22.73
   5   7  10  182.11   21.46
   5   7  10  126.24   18.55
  -1  -8 -10  183.31   24.85
  -1  -8 -10  161.32   32.79
   1   8  10  245.44   31.96
   1   8  10  204.58   22.32
  -2  -8 -10   20.90   20.52
  -2  -8 -10   29.44   24.84
  -2  -8 -10   17.76   18.14
   2   8  10   23.89   19.53
   2   8  10   21.74   12.70
  -3  -8 -10  268.81   28.06
  -3  -8 -10  193.77   29.88
  -3  -8 -10  210.86   28.60
  -3  -8 -10  186.93   30.17
   3   8  10  276.39   22.48
   3   8  10  277.29   22.80
   1   6 -11   15.58   21.53
   1   6 -11   14.93   26.22
  -1  -6  11   26.14   17.67
  -1  -6  11   27.44   15.07
  -1  -6  11   15.36    9.94
   0   6 -11  298.00   37.16
   0   6 -11  265.17   29.65
   0  -6  11  275.14   29.80
   0  -6  11  276.14   18.57
   0  -6  11  271.64   24.64
  -1   6 -11   42.79   20.68
  -1   6 -11   63.08   24.92
   1  -6  11   64.32   19.07
   1  -6  11   56.56   14.22
  -2   6 -11   17.65   22.24
  -2   6 -11   35.91   14.14
  -2   6 -11   19.47   21.83
   2  -6  11   23.09   11.47
  -3   6 -11   70.77   22.85
  -3   6 -11   79.36   24.98
   3  -6  11   74.10   14.61
   2   5 -11   26.56   22.80
   2   5 -11   21.07   23.48
   2   5 -11   15.61   27.28
  -2  -5  11   25.13   15.57
  -2  -5  11   12.93   13.58
  -2  -5  11   16.34   10.30
   1   5 -11  199.00   35.78
   1   5 -11  147.45   24.43
  -1  -5  11  137.52   22.35
  -1  -5  11  202.31   16.62
  -1  -5  11  232.84   23.56
   0   5 -11  257.05   28.61
   0   5 -11  182.36   30.02
   0  -5  11  223.78   27.53
   0  -5  11  234.46   20.97
   0  -5  11  222.55   16.74
  -1   5 -11  399.51   30.58
  -1   5 -11  391.22   40.82
   1  -5  11  407.50   21.01
   1  -5  11  440.40   33.15
   1  -5  11  393.27   23.85
  -2   5 -11   45.28   13.32
  -2   5 -11   13.49   19.31
  -2   5 -11   41.47   19.75
   2  -5  11   39.18   11.68
  -3   5 -11   46.32   19.29
  -3   5 -11   60.97   21.09
   3  -5  11   59.64   11.95
  -4   5 -11   66.69   21.31
  -4   5 -11   47.27   20.46
   4  -5  11   68.96   14.55
   2   4 -11   72.66   23.39
   2   4 -11   83.44   21.57
   2   4 -11   61.46   27.66
  -2  -4  11   68.27   16.05
  -2  -4  11   98.15   13.68
  -2  -4  11   91.27   20.86
   1   4 -11  238.93   35.08
   1   4 -11  227.22   28.31
   1   4 -11  205.90   27.32
  -1  -4  11  236.74   20.29
  -1  -4  11  158.94   22.33
  -1  -4  11  216.28   17.05
   0   4 -11   89.30   24.07
   0   4 -11  147.27   22.38
   0  -4  11  149.85   12.93
   0  -4  11  113.30   19.70
   0  -4  11  142.23   17.65
  -1   4 -11  226.75   28.18
  -1   4 -11  303.37   29.04
   1  -4  11  294.46   21.02
   1  -4  11  309.61   27.81
   1  -4  11  324.54   18.08
  -2   4 -11   35.25   17.94
  -2   4 -11   16.04   17.45
  -2   4 -11   26.57   14.08
   2  -4  11   29.78    9.98
  -3   4 -11   63.04   19.20
  -3   4 -11   50.14   18.11
   3  -4  11   66.89   12.20
  -4   4 -11  133.70   21.57
  -4   4 -11  120.33   22.25
   4  -4  11  143.33   17.19
  -5   4 -11   72.10   18.52
   5  -4  11   50.34   14.29
   2   3 -11  385.00   41.72
   2   3 -11  368.54   34.64
   2   3 -11  334.02   32.91
  -2  -3  11  371.90   27.48
  -2  -3  11  366.98   23.23
  -2  -3  11  372.43   32.44
   1   3 -11   29.02   18.73
   1   3 -11   23.76   20.44
   1   3 -11   23.39   17.66
  -1  -3  11   26.94   11.12
  -1  -3  11   21.92    8.33
  -1  -3  11   14.86   13.16
   0   3 -11  168.31   22.89
   0   3 -11  147.55   25.91
   0   3 -11  170.40   19.18
   0  -3  11  159.53   13.93
   0  -3  11  165.61   17.30
   0  -3  11  185.44   23.71
  -1   3 -11   91.55   20.21
  -1   3 -11  103.93   18.54
   1  -3  11  127.77   14.82
   1  -3  11  114.85   10.35
   1  -3  11   83.27   10.41
   1  -3  11  124.56   18.81
  -2   3 -11  402.90   29.58
  -2   3 -11  449.90   35.09
   2  -3  11  441.29   23.09
   2  -3  11  424.09   20.31
   2  -3  11  405.14   28.30
  -3   3 -11   85.50   18.91
  -3   3 -11   49.09   16.25
   3  -3  11   70.70   10.49
   3  -3  11   58.88   11.13
  -4   3 -11   46.62   16.07
  -4   3 -11   38.76   16.02
   4  -3  11   47.04   10.44
   4  -3  11   71.56   13.36
  -5   3 -11   46.97   16.43
   5  -3  11   53.56   13.60
   5  -3  11   36.10   14.47
   3   2 -11  168.12   27.56
   3   2 -11  109.59   31.20
  -3  -2  11  185.59   21.96
  -3  -2  11  173.42   18.41
  -3  -2  11  193.63   27.57
   2   2 -11  374.97   39.99
   2   2 -11  348.96   33.24
  -2  -2  11  320.06   21.78
  -2  -2  11  336.36   30.80
  -2  -2  11  330.28   24.28
   1   2 -11   47.22   23.91
   1   2 -11   32.06   20.02
   1   2 -11   31.45   19.06
  -1  -2  11   44.62   14.51
  -1  -2  11   34.45   10.95
  -1  -2  11   47.70    9.50
   0   2 -11  148.61   24.17
   0   2 -11  146.33   21.76
   0   2 -11  157.15   17.49
   0   2 -11  140.28   20.78
   0  -2  11  176.64   14.32
   0  -2  11  115.61   17.58
   0  -2  11  167.88   17.24
  -1   2 -11    2.71   14.56
  -1   2 -11   11.94   14.29
  -1   2 -11   -1.21   11.83
  -1   2 -11    6.71   14.46
   1  -2  11   -0.82    7.88
   1  -2  11    0.32    9.45
   1  -2  11   -4.67    5.94
  -2   2 -11  183.75   22.77
  -2   2 -11  220.82   20.93
  -2   2 -11  208.06   21.94
   2  -2  11  213.01   14.78
   2  -2  11  226.97   21.50
   2  -2  11  233.16   16.65
  -3   2 -11   25.61   13.02
  -3   2 -11   32.18   14.75
  -3   2 -11   32.22   15.01
   3  -2  11   35.52    9.48
   3  -2  11   46.59    9.36
   3  -2  11   42.57   12.11
  -4   2 -11  321.49   27.38
  -4   2 -11  341.05   25.27
  -4   2 -11  372.04   27.86
   4  -2  11  352.71   21.63
   4  -2  11  369.63   23.44
  -5   2 -11    0.84   12.98
  -5   2 -11   -2.25   19.57
   5  -2  11    4.78    9.63
   5  -2  11    6.58   10.48
  -6   2 -11   81.91   25.33
   6  -2  11   76.02   15.35
   3   1 -11  161.97   31.50
   3   1 -11  277.30   33.88
  -3  -1  11  279.63   21.49
  -3  -1  11  298.29   24.95
  -3  -1  11  343.78   34.29
   2   1 -11   69.45   21.31
   2   1 -11   65.99   24.67
  -2  -1  11   62.47   10.75
  -2  -1  11   62.66   13.94
  -2  -1  11   84.40   19.96
   1   1 -11   33.23   19.66
   1   1 -11   23.45   18.88
   1   1 -11   22.40   16.99
   1   1 -11    7.71   15.11
  -1  -1  11   34.99   11.17
  -1  -1  11   18.54   13.24
  -1  -1  11   24.96    9.02
   0   1 -11  171.56   21.32
   0   1 -11  157.09   17.40
   0   1 -11  185.23   22.01
   0   1 -11  165.16   24.58
   0  -1  11  163.92   20.22
   0  -1  11  163.11   15.76
   0  -1  11  179.10   14.22
  -1   1 -11   44.42   12.98
  -1   1 -11   61.13   17.44
  -1   1 -11   80.89   16.90
  -1   1 -11   64.18   19.42
   1  -1  11   57.40   12.70
   1  -1  11   79.72   12.27
  -2   1 -11   71.86   16.98
  -2   1 -11   74.40   15.45
  -2   1 -11   99.76   17.21
  -2   1 -11   90.52   16.91
   2  -1  11  111.67   11.44
   2  -1  11  102.61   15.68
   2  -1  11  106.20   12.36
  -3   1 -11  169.62   20.41
  -3   1 -11  132.90   19.51
  -3   1 -11  184.17   19.58
   3  -1  11  179.03   14.70
   3  -1  11  157.94   12.58
   3  -1  11  200.89   16.25
  -4   1 -11  138.07   17.88
  -4   1 -11  139.76   18.29
  -4   1 -11  134.57   20.59
   4  -1  11  109.55   13.59
   4  -1  11  147.81   14.93
  -5   1 -11    7.46   18.97
  -5   1 -11   16.70   12.56
   5  -1  11    5.60    9.69
   5  -1  11    3.64    9.46
  -6   1 -11    8.36   20.04
   6  -1  11   13.61   12.23
   6  -1  11    9.23   12.43
   3   0 -11  199.78   36.12
   3   0 -11  194.90   28.73
  -3   0  11  194.68   17.21
  -3   0  11  176.60   22.05
  -3   0  11  223.30   28.28
   2   0 -11  350.45   39.07
   2   0 -11  305.74   30.57
  -2   0  11  370.43   31.81
  -2   0  11  351.83   25.27
  -2   0  11  311.55   21.43
   1   0 -11  148.28   21.77
   1   0 -11  127.32   18.59
   1   0 -11  163.24   25.71
  -1   0  11  172.32   15.09
  -1   0  11  207.98   26.48
  -1   0  11  124.97   16.85
   0   0 -11   76.49   14.16
   0   0 -11   65.61   17.37
   0   0 -11   61.73   18.95
   0   0  11   89.26   10.74
   0   0  11  100.10   14.41
   0   0  11  118.79   19.68
  -1   0 -11  284.64   23.49
  -1   0 -11  304.74   24.51
  -1   0 -11  323.86   30.19
  -1   0 -11  294.73   24.76
   1   0  11  319.02   19.16
   1   0  11  347.45   26.26
  -2   0 -11    6.70   12.48
  -2   0 -11    4.64   12.20
  -2   0 -11   -5.10   11.35
  -2   0 -11   10.16   14.18
   2   0  11    1.27    7.45
   2   0  11    4.90    9.19
   2   0  11    9.48    6.83
  -3   0 -11  144.23   19.89
  -3   0 -11  170.66   19.48
  -3   0 -11  150.89   18.68
  -3   0 -11  149.48   18.69
   3   0  11  176.87   14.55
   3   0  11  160.51   14.60
   3   0  11  159.72   12.49
  -4   0 -11  276.93   21.83
  -4   0 -11  289.56   26.58
  -4   0 -11  285.94   24.73
  -4   0 -11  215.65   21.60
   4   0  11  240.01   18.35
   4   0  11  298.58   20.00
  -5   0 -11  220.41   21.41
  -5   0 -11  202.24   23.55
   5   0  11  216.94   19.76
   5   0  11  191.93   18.39
   6   0  11   84.80   15.72
   6   0  11  101.47   15.97
   3  -1 -11    9.69   27.59
   3  -1 -11   16.01   22.60
  -3   1  11   34.67   18.85
  -3   1  11   32.44   11.25
  -3   1  11   24.88   14.98
   2  -1 -11  519.14   36.84
   2  -1 -11  499.83   46.16
  -2   1  11  522.99   31.46
  -2   1  11  577.36   27.45
  -2   1  11  560.49   38.79
   1  -1 -11   23.59   20.93
   1  -1 -11   22.42   17.50
   1  -1 -11   27.21   13.14
  -1   1  11   27.61    9.09
  -1   1  11   38.01   11.50
  -1   1  11   26.53   13.28
   0  -1 -11  277.95   30.83
   0  -1 -11  230.89   21.25
   0  -1 -11  234.35   23.94
   0   1  11  253.64   24.69
   0   1  11  238.01   16.78
   0   1  11  282.77   19.60
  -1  -1 -11  198.00   18.57
  -1  -1 -11  164.67   20.46
  -1  -1 -11  167.03   24.00
   1   1  11  147.12   14.19
   1   1  11  138.70   18.34
  -2  -1 -11   91.85   17.59
  -2  -1 -11  108.87   17.39
  -2  -1 -11   93.37   15.33
   2   1  11  108.59   16.31
   2   1  11   94.46   11.54
   2   1  11  118.54   12.09
  -3  -1 -11  514.04   29.75
  -3  -1 -11  511.28   33.12
  -3  -1 -11  516.55   29.72
   3   1  11  513.46   22.58
   3   1  11  503.38   25.50
   3   1  11  518.63   25.17
  -4  -1 -11  268.41   23.56
  -4  -1 -11  305.34   25.60
  -4  -1 -11  287.31   25.10
   4   1  11  302.00   20.28
   4   1  11  284.38   19.66
  -5  -1 -11    1.46   11.30
  -5  -1 -11    2.95   16.31
   5   1  11    3.35   10.00
   5   1  11    1.43    9.28
  -6  -1 -11  110.66   24.92
   6   1  11  110.28   15.43
   6   1  11   94.17   15.87
   2  -2 -11   62.78   28.37
   2  -2 -11   68.20   24.90
  -2   2  11   73.59   15.79
  -2   2  11   75.69   19.34
  -2   2  11   66.81   11.98
   1  -2 -11  497.20   33.28
   1  -2 -11  493.10   27.93
   1  -2 -11  446.96   41.50
  -1   2  11  484.70   27.59
  -1   2  11  482.14   34.23
  -1   2  11  461.72   24.59
   0  -2 -11  183.49   22.77
   0  -2 -11  217.92   19.10
   0  -2 -11  190.72   26.81
   0   2  11  237.07   18.48
   0   2  11  161.25   20.72
  -1  -2 -11    6.27   13.15
  -1  -2 -11    6.53   14.00
  -1  -2 -11   11.96   15.33
   1   2  11    2.61    9.80
   1   2  11    0.80    8.18
  -2  -2 -11  132.07   21.24
  -2  -2 -11  131.47   18.57
  -2  -2 -11  152.82   17.76
   2   2  11  167.83   13.74
   2   2  11  145.52   13.88
   2   2  11  165.56   19.08
  -3  -2 -11  107.75   18.60
  -3  -2 -11  114.11   17.24
  -3  -2 -11   99.94   17.58
   3   2  11   89.91   11.66
   3   2  11   90.22   10.27
   3   2  11  103.40   12.51
   3   2  11   90.61    9.42
  -4  -2 -11    6.36   13.53
  -4  -2 -11    7.54   12.74
  -4  -2 -11    7.86   14.59
   4   2  11    8.14    7.28
   4   2  11    7.89    8.72
   4   2  11    6.09    7.84
  -5  -2 -11   25.75   12.59
  -5  -2 -11   21.76   17.29
   5   2  11   24.15    9.97
   5   2  11   34.42   10.91
   5   2  11   21.87   10.58
  -6  -2 -11   90.21   21.61
   6   2  11   92.64   15.28
   6   2  11  100.09   16.75
   6   2  11   77.79   13.87
   2  -3 -11   63.56   22.86
   2  -3 -11   63.52   30.35
  -2   3  11   72.59   12.48
  -2   3  11   61.29   18.47
  -2   3  11   84.74   16.36
   1  -3 -11  276.24   34.19
   1  -3 -11  308.99   23.16
   1  -3 -11  283.33   28.93
  -1   3  11  282.88   22.41
  -1   3  11  314.58   29.85
   0  -3 -11   94.43   19.67
   0  -3 -11   80.15   21.84
   0  -3 -11   95.06   16.08
   0   3  11  112.58   16.13
   0   3  11  102.86   18.66
  -1  -3 -11   45.27   13.85
  -1  -3 -11   25.34   17.13
  -1  -3 -11   56.19   17.65
   1   3  11   47.92    8.19
   1   3  11   70.31   11.94
   1   3  11   40.22   13.80
  -2  -3 -11  286.35   29.87
  -2  -3 -11  275.77   24.05
  -2  -3 -11  246.57   23.09
   2   3  11  263.95   24.79
   2   3  11  242.35   16.04
   2   3  11  278.02   18.33
  -3  -3 -11  160.41   21.27
  -3  -3 -11  157.66   19.25
  -3  -3 -11  119.47   18.87
   3   3  11  138.06   14.80
   3   3  11  171.87   14.73
   3   3  11  118.21   12.38
   3   3  11  134.33   11.70
  -4  -3 -11  155.82   20.83
  -4  -3 -11  101.08   17.39
  -4  -3 -11  114.08   17.18
   4   3  11  116.71   13.80
   4   3  11  124.25   13.31
   4   3  11  110.01   13.97
  -5  -3 -11   29.45   13.07
  -5  -3 -11   31.34   17.65
   5   3  11   38.23   12.21
   5   3  11   46.48   11.72
   5   3  11   29.46   10.34
  -6  -3 -11   83.44   22.07
   6   3  11   59.58   14.61
   6   3  11   84.44   14.77
   6   3  11   83.68   15.97
   2  -4 -11   74.36   32.18
   2  -4 -11   42.66   23.16
  -2   4  11   62.76   21.32
  -2   4  11   51.80   15.17
   1  -4 -11  124.24   21.22
   1  -4 -11  117.28   30.63
   1  -4 -11  119.83   23.75
  -1   4  11  184.39   27.11
  -1   4  11   97.21   15.91
   0  -4 -11  108.17   27.42
   0  -4 -11  103.09   21.36
   0  -4 -11  123.40   18.24
   0   4  11  127.93   16.15
   0   4  11  112.79   20.87
  -1  -4 -11  264.15   22.41
  -1  -4 -11  306.46   34.69
  -1  -4 -11  256.39   25.65
   1   4  11  280.24   16.33
   1   4  11  302.60   28.01
   1   4  11  315.57   21.82
  -2  -4 -11    7.34   15.35
  -2  -4 -11    1.74   16.03
  -2  -4 -11   12.19   16.15
   2   4  11    7.64    6.50
   2   4  11    4.63   11.58
   2   4  11    3.59    8.88
  -3  -4 -11   49.26   16.46
  -3  -4 -11   49.44   17.53
  -3  -4 -11   34.63   15.82
   3   4  11   42.89    9.68
   3   4  11   37.40   10.05
   3   4  11   35.39    8.60
   3   4  11   63.83   10.07
  -4  -4 -11   42.98   17.05
  -4  -4 -11   31.08   15.49
  -4  -4 -11   22.33   14.50
   4   4  11   35.80    9.70
   4   4  11   43.52   11.75
   4   4  11   49.27   10.88
  -5  -4 -11   12.30   13.38
  -5  -4 -11   13.92   17.27
   5   4  11   14.14   10.64
   5   4  11   17.23   11.38
   5   4  11   12.18    9.78
  -6  -4 -11   36.76   17.10
  -6  -4 -11   24.51   21.34
  -6  -4 -11   29.63   15.76
   6   4  11   22.28   11.22
   6   4  11   28.75   14.19
   6   4  11   19.87   11.70
   1  -5 -11   19.93   26.66
   1  -5 -11   13.39   24.00
  -1   5  11   28.43   18.62
  -1   5  11   34.81   13.64
   0  -5 -11  270.63   24.52
   0  -5 -11  236.82   31.67
   0  -5 -11  265.36   28.14
   0   5  11  287.15   31.12
   0   5  11  269.72   22.03
  -1  -5 -11  649.85   37.89
  -1  -5 -11  601.65   45.33
  -1  -5 -11  640.93   35.36
   1   5  11  613.42   30.87
   1   5  11  606.00   26.08
   1   5  11  601.95   40.41
  -2  -5 -11  249.85   25.66
  -2  -5 -11  267.43   30.01
  -2  -5 -11  310.75   24.48
   2   5  11  282.58   20.50
   2   5  11  243.06   27.05
   2   5  11  276.21   17.24
  -3  -5 -11   88.10   18.63
  -3  -5 -11   68.07   19.19
  -3  -5 -11   66.39   19.22
   3   5  11   63.17   10.71
   3   5  11   86.89   13.48
   3   5  11   79.15   10.75
   3   5  11   77.14   12.67
  -4  -5 -11   55.57   17.75
  -4  -5 -11   52.72   18.27
  -4  -5 -11   54.47   17.42
   4   5  11   53.03   12.94
   4   5  11   67.85   11.28
   4   5  11   45.77   10.98
  -5  -5 -11  122.57   21.78
  -5  -5 -11  102.24   19.08
   5   5  11  110.42   16.33
   5   5  11  120.10   17.70
   5   5  11  103.72   14.16
   0  -6 -11  205.99   32.11
   0  -6 -11  194.96   27.75
   0  -6 -11  234.31   24.38
   0   6  11  259.94   24.32
   0   6  11  273.81   31.59
  -1  -6 -11  135.09   27.27
  -1  -6 -11  167.69   22.65
  -1  -6 -11  147.14   26.52
   1   6  11  187.47   26.04
   1   6  11  173.12   20.03
  -2  -6 -11   93.48   21.89
  -2  -6 -11   57.57   21.80
  -2  -6 -11   83.29   20.41
   2   6  11   89.85   17.60
   2   6  11   86.40   20.77
   2   6  11   64.95   12.76
  -3  -6 -11   97.81   21.63
  -3  -6 -11   79.67   21.64
  -3  -6 -11  110.84   22.92
   3   6  11   71.37   11.93
   3   6  11  117.61   13.12
   3   6  11  112.24   15.57
   3   6  11   87.58   14.24
  -4  -6 -11   99.36   22.09
  -4  -6 -11   96.70   20.90
  -4  -6 -11  103.87   21.16
   4   6  11  140.37   17.27
   4   6  11  114.78   16.52
   4   6  11   98.59   12.97
  -5  -6 -11    6.46   17.76
  -5  -6 -11    6.65   18.75
  -5  -6 -11    6.69   16.03
   5   6  11    6.11    9.57
   5   6  11    1.98   11.24
   5   6  11   12.04   12.88
  -1  -7 -11   51.43   26.91
  -1  -7 -11   81.90   24.88
  -1  -7 -11   77.15   21.80
   1   7  11   99.37   23.71
   1   7  11   86.07   16.29
  -2  -7 -11   -2.24   17.67
  -2  -7 -11   -0.39   21.75
  -2  -7 -11    1.17   22.74
   2   7  11    0.81   10.67
  -3  -7 -11  134.93   25.67
  -3  -7 -11  149.01   24.83
  -3  -7 -11  180.80   29.83
   3   7  11  149.81   17.28
   3   7  11  191.65   18.56
   3   7  11  137.46   17.24
  -4  -7 -11  145.68   26.06
  -4  -7 -11  145.60   26.57
   4   7  11  162.60   19.37
   4   7  11  171.33   18.82
   0   5 -12   -0.92   20.59
   0   5 -12   28.17   26.01
   0  -5  12    9.47    9.10
   0  -5  12   10.22   15.02
   0  -5  12   13.53   12.04
  -1   5 -12   34.89   20.98
  -1   5 -12   25.18   23.56
   1  -5  12   16.17    9.35
   1  -5  12   32.74   13.51
  -2   5 -12  160.71   25.82
  -2   5 -12  128.12   27.07
   2  -5  12  169.04   17.50
  -3   5 -12    2.83   18.84
  -3   5 -12   10.21   21.18
   3  -5  12   13.30   11.87
   1   4 -12   39.71   25.71
   1   4 -12   43.65   23.14
   1   4 -12   44.93   22.18
  -1  -4  12   52.01   11.62
  -1  -4  12   50.17   15.53
  -1  -4  12   65.53   20.54
   0   4 -12   42.12   24.90
   0   4 -12   31.98   22.38
   0   4 -12   29.72   16.80
   0  -4  12   65.69   18.67
   0  -4  12   62.98   10.93
   0  -4  12   48.86   14.78
  -1   4 -12   66.42   22.57
  -1   4 -12   74.64   21.14
   1  -4  12   78.78   18.46
   1  -4  12   98.49   15.23
   1  -4  12   82.54   11.37
  -2   4 -12   50.33   22.02
  -2   4 -12   73.82   21.81
   2  -4  12   65.77   13.13
  -3   4 -12   36.96   19.55
  -3   4 -12   28.99   17.76
   3  -4  12   41.30   12.19
  -4   4 -12   39.42   19.79
  -4   4 -12   69.08   22.56
   4  -4  12   74.33   14.75
   1   3 -12   85.02   22.40
   1   3 -12   80.84   29.93
   1   3 -12   51.77   21.11
  -1  -3  12   62.02   17.21
  -1  -3  12   64.49   11.78
  -1  -3  12   76.22   16.80
   0   3 -12    3.07   17.78
   0   3 -12    2.84   18.79
   0   3 -12    1.60   15.99
   0   3 -12   -0.13   20.38
   0  -3  12    2.78    7.94
   0  -3  12    0.97   11.16
   0  -3  12    2.56    9.52
  -1   3 -12  207.75   29.07
  -1   3 -12  220.71   22.12
  -1   3 -12  204.68   24.23
   1  -3  12  198.40   18.85
   1  -3  12  226.12   25.81
   1  -3  12  162.10   14.73
  -2   3 -12   37.32   17.56
  -2   3 -12   57.80   21.79
   2  -3  12   30.46   10.90
  -3   3 -12    2.23   17.32
  -3   3 -12   -0.22   16.99
   3  -3  12    8.03    9.68
  -4   3 -12   23.85   17.81
  -4   3 -12   24.65   18.13
   4  -3  12   34.84   12.57
  -5   3 -12  120.21   21.29
  -5   3 -12   65.28   24.32
   5  -3  12  118.45   17.50
   2   2 -12   78.14   25.08
   2   2 -12   43.02   28.41
  -2  -2  12   96.45   18.38
  -2  -2  12   52.26   17.67
  -2  -2  12   67.17   11.83
   1   2 -12   -2.39   18.09
   1   2 -12    2.95   22.87
   1   2 -12   -0.19   19.85
  -1  -2  12    3.23   10.54
  -1  -2  12    6.90   13.38
  -1  -2  12    7.81    8.47
   0   2 -12   15.10   20.82
   0   2 -12   45.65   16.39
   0   2 -12   47.44   19.13
   0   2 -12   45.94   18.83
   0  -2  12   43.60   10.15
   0  -2  12   53.02   12.72
   0  -2  12   26.69   12.57
  -1   2 -12  305.61   25.18
  -1   2 -12  345.34   28.19
  -1   2 -12  335.41   36.06
  -1   2 -12  329.11   27.53
   1  -2  12  300.96   22.03
   1  -2  12  370.77   27.94
  -2   2 -12   25.52   15.84
  -2   2 -12   15.52   17.03
  -2   2 -12   23.48   15.98
  -2   2 -12   26.55   16.93
   2  -2  12   30.06    8.78
   2  -2  12   29.73    9.74
  -3   2 -12    9.15   15.60
  -3   2 -12   22.22   16.88
  -3   2 -12    4.40   16.71
   3  -2  12   13.88    8.68
   3  -2  12   17.04    9.69
  -4   2 -12   88.03   19.62
  -4   2 -12   75.74   19.08
  -4   2 -12  121.53   22.15
   4  -2  12   87.81   13.02
   4  -2  12   87.75   14.37
  -5   2 -12   99.67   23.31
  -5   2 -12  100.30   19.21
   5  -2  12   78.33   14.64
   5  -2  12   84.17   15.85
   2   1 -12   19.68   24.20
   2   1 -12   41.70   23.24
  -2  -1  12   59.39   14.96
  -2  -1  12   43.96   11.63
  -2  -1  12   34.74   16.36
   1   1 -12  149.33   24.42
   1   1 -12  170.07   32.23
  -1  -1  12  137.19   18.19
  -1  -1  12  156.95   15.44
  -1  -1  12  125.56   21.02
   0   1 -12   33.05   15.58
   0   1 -12   17.77   18.60
   0   1 -12   40.51   18.42
   0   1 -12   38.81   19.67
   0  -1  12   36.91   14.49
   0  -1  12   31.26    9.07
   0  -1  12   39.35   11.75
  -1   1 -12   36.04   17.16
  -1   1 -12   25.05   17.81
  -1   1 -12   42.67   16.68
  -1   1 -12   17.37   17.53
   1  -1  12   23.89    9.23
   1  -1  12   41.66   14.54
  -2   1 -12   30.38   18.15
  -2   1 -12   25.75   15.25
  -2   1 -12   30.19   15.34
  -2   1 -12   34.35   16.52
   2  -1  12   23.56    9.28
   2  -1  12   23.99   12.38
   2  -1  12   24.92    8.77
  -3   1 -12   20.68   16.12
  -3   1 -12   19.17   16.21
  -3   1 -12   23.85   16.20
  -3   1 -12   13.97   15.87
   3  -1  12   30.34    9.59
   3  -1  12   35.58   10.50
  -4   1 -12  152.10   20.91
  -4   1 -12  138.58   22.19
  -4   1 -12  168.66   22.32
  -4   1 -12  192.25   21.39
   4  -1  12  174.37   17.32
   4  -1  12  153.62   16.17
  -5   1 -12   91.40   17.89
  -5   1 -12  102.69   22.07
   5  -1  12  116.80   16.60
   2   0 -12   34.46   28.07
   2   0 -12   32.72   22.61
  -2   0  12   24.79   10.40
  -2   0  12   30.20   16.74
  -2   0  12   25.93   14.02
   1   0 -12  144.24   26.66
   1   0 -12   85.21   24.94
  -1   0  12  139.16   14.82
  -1   0  12  136.69   23.22
  -1   0  12  121.85   17.59
   0   0 -12   74.81   22.53
   0   0 -12   90.97   21.76
   0   0 -12   82.40   16.11
   0   0  12  106.52   15.11
   0   0  12  119.79   20.46
   0   0  12  113.15   12.92
  -1   0 -12  101.75   22.85
  -1   0 -12   76.52   18.40
  -1   0 -12   94.78   19.50
  -1   0 -12   66.10   16.97
   1   0  12   97.26   13.44
   1   0  12  101.63   17.77
  -2   0 -12  168.92   21.14
  -2   0 -12  188.46   21.47
  -2   0 -12  168.05   21.58
  -2   0 -12  171.65   24.83
   2   0  12  180.13   15.69
   2   0  12  144.51   14.79
   2   0  12  188.40   22.21
  -3   0 -12  192.09   22.29
  -3   0 -12  195.92   22.17
  -3   0 -12  202.90   25.17
  -3   0 -12  190.44   22.45
   3   0  12  207.75   17.45
   3   0  12  232.91   18.18
  -4   0 -12  260.98   28.02
  -4   0 -12  245.28   23.26
  -4   0 -12  257.75   24.79
  -4   0 -12  266.73   25.81
   4   0  12  300.16   21.21
   4   0  12  292.37   20.28
  -5   0 -12   28.12   14.45
  -5   0 -12   20.60   19.02
   5   0  12   10.48   10.45
   5   0  12   24.78   11.94
  -6   0 -12   40.36   25.63
   6   0  12   44.43   14.47
   6   0  12   36.36   18.31
   2  -1 -12  113.92   27.70
  -2   1  12  129.45   15.85
  -2   1  12  160.02   25.79
  -2   1  12  126.16   18.66
   1  -1 -12   17.18   21.13
   1  -1 -12   32.02   23.33
  -1   1  12   30.94    9.72
  -1   1  12   13.71   11.25
  -1   1  12   33.54   15.95
   0  -1 -12   15.51   14.96
   0  -1 -12   25.25   17.90
   0  -1 -12   21.54   19.34
   0   1  12   27.39   13.50
   0   1  12   27.76   11.25
  -1  -1 -12   14.57   15.00
  -1  -1 -12    6.37   16.70
  -1  -1 -12    6.61   16.07
   1   1  12   17.38   10.14
   1   1  12   11.07   12.16
  -2  -1 -12  145.55   23.26
  -2  -1 -12  139.86   19.67
  -2  -1 -12  117.21   18.54
   2   1  12  149.43   20.85
   2   1  12  118.39   13.69
   2   1  12  126.57   12.93
  -3  -1 -12    3.57   16.38
  -3  -1 -12    7.71   15.22
  -3  -1 -12   -2.00   15.03
   3   1  12    3.67    8.32
   3   1  12    5.70    7.89
   3   1  12    1.49    9.47
  -4  -1 -12   69.60   20.23
  -4  -1 -12   50.33   16.02
  -4  -1 -12   59.46   16.85
   4   1  12   71.36   12.91
   4   1  12   77.22   13.64
  -5  -1 -12  113.80   22.19
  -5  -1 -12  127.34   18.44
   5   1  12  133.37   17.07
   5   1  12  136.91   17.11
  -6  -1 -12    9.76   21.20
   6   1  12   12.22   13.13
   6   1  12   11.10   12.55
   2  -2 -12   92.24   35.86
  -2   2  12   92.82   17.30
  -2   2  12  114.38   21.01
  -2   2  12  130.98   25.00
   1  -2 -12   18.05   22.02
   1  -2 -12   25.63   20.21
  -1   2  12   48.12   11.49
  -1   2  12   38.20   16.26
  -1   2  12   31.28   13.11
   0  -2 -12   73.84   21.88
   0  -2 -12   37.42   20.91
   0  -2 -12   52.93   15.73
   0   2  12   40.83   14.20
   0   2  12   70.18   14.40
  -1  -2 -12   17.32   17.06
  -1  -2 -12   32.67   14.25
  -1  -2 -12   21.84   19.63
   1   2  12   17.80   12.20
   1   2  12   39.85   11.53
  -2  -2 -12  163.07   25.91
  -2  -2 -12  137.42   20.56
  -2  -2 -12  169.53   20.29
   2   2  12  153.06   20.80
   2   2  12  167.58   14.78
   2   2  12  164.33   16.00
  -3  -2 -12   34.15   17.37
  -3  -2 -12   52.28   16.99
  -3  -2 -12   39.25   17.87
   3   2  12   39.72    9.66
   3   2  12   33.40    9.43
   3   2  12   49.40   11.03
  -4  -2 -12   23.04   15.54
  -4  -2 -12   14.50   16.23
  -4  -2 -12   13.14   14.72
   4   2  12   35.53   10.27
   4   2  12   30.07   11.07
  -5  -2 -12  306.96   26.54
  -5  -2 -12  264.81   27.23
   5   2  12  314.48   24.32
   5   2  12  301.15   23.58
  -6  -2 -12   27.56   21.41
   6   2  12   29.72   13.88
   6   2  12   32.69   13.96
   6   2  12   10.33   13.48
   1  -3 -12   -3.72   23.79
   1  -3 -12    6.94   21.03
  -1   3  12    5.85   12.58
  -1   3  12    6.29   14.58
   0  -3 -12   -1.01   14.78
   0  -3 -12   -1.02   21.05
   0  -3 -12    1.49   23.50
   0   3  12   -0.21   10.77
   0   3  12    1.40   12.74
  -1  -3 -12   16.06   20.22
  -1  -3 -12   20.38   17.96
  -1  -3 -12   35.94   14.93
   1   3  12   37.46   15.74
   1   3  12   17.80    7.21
   1   3  12   46.51   12.43
  -2  -3 -12  103.51   18.86
  -2  -3 -12   56.03   20.23
  -2  -3 -12   92.93   19.23
   2   3  12   77.76   17.97
   2   3  12   87.27   13.39
   2   3  12  102.77   11.90
  -3  -3 -12    6.72   16.98
  -3  -3 -12   11.29   17.16
  -3  -3 -12    8.57   16.16
   3   3  12    4.81    9.13
   3   3  12    5.41    8.59
   3   3  12   10.24    8.06
  -4  -3 -12   88.17   18.93
  -4  -3 -12   63.79   18.33
  -4  -3 -12   91.28   20.02
   4   3  12   64.86   11.45
   4   3  12   93.15   14.69
  -5  -3 -12   97.95   22.42
  -5  -3 -12   99.26   18.23
   5   3  12   87.58   14.57
   5   3  12  165.17   26.79
   5   3  12  133.35   17.80
   1  -4 -12   14.61   22.96
   1  -4 -12   14.40   27.99
  -1   4  12   11.86   17.24
  -1   4  12   15.79   13.11
   0  -4 -12   59.35   28.14
   0  -4 -12   63.20   22.77
   0  -4 -12   53.16   17.89
   0   4  12   61.49   19.17
   0   4  12   64.74   14.69
  -1  -4 -12  169.63   21.64
  -1  -4 -12  154.96   24.35
  -1  -4 -12  161.04   28.97
   1   4  12  184.79   25.82
   1   4  12  166.38   14.40
   1   4  12  169.23   18.98
  -2  -4 -12   88.66   21.78
  -2  -4 -12   77.64   18.30
  -2  -4 -12   69.77   22.34
   2   4  12   78.31   11.00
   2   4  12   90.60   19.95
   2   4  12   85.54   13.60
  -3  -4 -12   16.72   17.78
  -3  -4 -12   19.81   18.04
  -3  -4 -12    1.52   17.05
   3   4  12    8.92   10.25
   3   4  12   12.16    9.63
   3   4  12   21.19    8.52
  -4  -4 -12  149.80   23.59
  -4  -4 -12  155.42   23.46
  -4  -4 -12  137.83   21.80
   4   4  12  124.28   15.86
   4   4  12  137.95   15.11
  -5  -4 -12   23.53   19.52
  -5  -4 -12   23.52   15.56
   5   4  12   37.52   13.94
   5   4  12   21.67   12.60
   5   4  12   36.01   11.47
   0  -5 -12   10.19   26.77
   0  -5 -12   15.53   16.86
   0  -5 -12    7.46   23.81
   0   5  12   16.34   12.67
   0   5  12   12.78   17.09
  -1  -5 -12  149.36   21.11
  -1  -5 -12  145.14   26.85
  -1  -5 -12  164.01   30.41
   1   5  12  161.09   18.51
   1   5  12  196.08   28.02
   1   5  12  144.15   17.80
  -2  -5 -12   -3.29   20.57
  -2  -5 -12    2.94   19.77
  -2  -5 -12    1.08   18.00
   2   5  12    3.10    7.67
   2   5  12   -2.37   10.01
  -3  -5 -12   39.03   21.01
  -3  -5 -12   32.93   20.70
  -3  -5 -12   19.78   18.25
   3   5  12   26.95    9.67
   3   5  12   30.77   16.88
   3   5  12   24.66   11.23
  -4  -5 -12  131.29   23.09
  -4  -5 -12  141.63   21.75
  -4  -5 -12  127.39   25.09
   4   5  12  148.78   15.65
   4   5  12  122.11   16.51
  -5  -5 -12   43.02   36.04
  -5  -5 -12   48.48   18.99
   5   5  12  106.27   24.22
   5   5  12   49.11   12.45
   5   5  12   58.77   15.22
  -1  -6 -12    4.89   22.81
  -1  -6 -12   13.13   26.13
  -1  -6 -12    4.61   17.99
   1   6  12   15.34   13.86
   1   6  12   12.47   18.53
  -2  -6 -12   70.92   22.28
  -2  -6 -12   81.04   24.09
  -2  -6 -12   69.99   24.39
   2   6  12   91.84   16.07
  -3  -6 -12    4.99   22.30
  -3  -6 -12    2.09   18.15
  -3  -6 -12    3.56   22.93
   3   6  12    3.69   10.86
  -4  -6 -12   -0.01   19.08
   4   6  12   -3.88   20.34
   4   6  12    5.53    9.86
  -1   4 -13   11.31   23.92
  -1   4 -13   21.39   19.13
  -1   4 -13   16.81   22.30
   1  -4  13   29.17   13.58
  -2   4 -13   47.77   22.48
  -2   4 -13   68.27   26.83
   0   3 -13   69.47   24.53
   0   3 -13  111.28   31.43
   0   3 -13  113.92   28.57
   0  -3  13   84.85   21.38
   0  -3  13   82.97   12.77
   0  -3  13   91.74   17.53
  -1   3 -13    4.92   17.44
  -1   3 -13    6.79   19.49
  -1   3 -13   15.33   21.03
  -1   3 -13   14.21   22.79
   1  -3  13    8.22   15.41
   1  -3  13    5.49   11.27
  -2   3 -13  111.17   24.70
  -2   3 -13   99.83   24.41
  -2   3 -13   76.49   20.81
   2  -3  13   69.57   13.07
  -3   3 -13   55.27   21.74
  -3   3 -13   58.23   22.39
  -3   3 -13   56.44   22.63
   3  -3  13   58.59   13.25
   1   2 -13   -1.87   25.60
  -1  -2  13    6.56   16.26
   0   2 -13   92.23   23.34
   0   2 -13  119.63   24.99
   0   2 -13   96.21   26.97
   0  -2  13  116.23   13.96
   0  -2  13   75.00   18.67
   0  -2  13   97.74   16.25
  -1   2 -13   24.25   18.10
  -1   2 -13   18.88   22.04
  -1   2 -13   28.61   21.14
  -1   2 -13   21.84   19.79
   1  -2  13   19.58   11.80
   1  -2  13   15.98   13.47
  -2   2 -13   65.89   22.12
  -2   2 -13   56.35   21.07
  -2   2 -13   54.77   23.00
  -2   2 -13   80.06   22.23
   2  -2  13   62.79   12.60
  -3   2 -13  159.76   24.42
  -3   2 -13  181.12   26.65
  -3   2 -13  159.94   24.41
  -3   2 -13  144.81   24.71
   3  -2  13  187.05   17.87
  -4   2 -13   58.10   20.19
  -4   2 -13   53.97   22.37
  -4   2 -13   55.96   20.67
   4  -2  13   67.90   14.69
   1   1 -13  287.40   33.35
   1   1 -13  200.05   33.53
  -1  -1  13  297.80   24.97
  -1  -1  13  272.39   21.86
  -1  -1  13  328.37   34.04
   0   1 -13  145.91   31.20
   0   1 -13  130.29   27.69
   0  -1  13  139.18   22.83
   0  -1  13  139.92   15.09
   0  -1  13  156.37   18.29
  -1   1 -13   30.71   17.90
  -1   1 -13   37.43   21.54
  -1   1 -13   30.08   21.47
  -1   1 -13   32.07   22.49
   1  -1  13   30.02   15.04
   1  -1  13   33.67   12.13
  -2   1 -13  401.36   39.26
  -2   1 -13  423.66   30.16
  -2   1 -13  370.95   33.34
  -2   1 -13  436.05   34.89
   2  -1  13  374.85   22.25
   2  -1  13  396.06   23.32
  -3   1 -13   23.99   18.08
  -3   1 -13   20.61   17.65
  -3   1 -13   16.73   18.41
  -3   1 -13   32.83   17.15
   3  -1  13   26.47   10.51
   3  -1  13   32.15   11.62
  -4   1 -13  129.94   23.45
  -4   1 -13  117.46   22.69
  -4   1 -13  126.11   23.33
  -4   1 -13  104.02   21.98
   4  -1  13  116.27   15.67
   4  -1  13  126.62   17.00
  -5   1 -13   18.20   16.63
   5  -1  13   27.23   17.75
   1   0 -13  152.73   30.82
   1   0 -13  176.98   30.53
  -1   0  13  181.18   21.40
  -1   0  13  227.46   30.49
  -1   0  13  205.11   18.57
   0   0 -13    0.03   21.85
   0   0 -13   -0.59   27.45
   0   0 -13    5.76   21.14
   0   0  13    0.01    9.82
   0   0  13    0.32   13.20
   0   0  13    0.39    8.91
  -1   0 -13  172.79   22.46
  -1   0 -13  177.78   26.18
  -1   0 -13  180.67   30.19
   1   0  13  163.17   22.57
   1   0  13  166.55   17.93
  -2   0 -13  233.12   27.09
  -2   0 -13  257.76   24.67
  -2   0 -13  257.15   27.55
  -2   0 -13  247.79   30.43
   2   0  13  227.52   19.66
   2   0  13  218.04   17.50
   2   0  13  260.66   18.30
  -3   0 -13  516.27   33.93
  -3   0 -13  533.04   40.27
  -3   0 -13  570.24   36.73
  -3   0 -13  508.56   36.11
   3   0  13  517.77   28.31
   3   0  13  528.37   27.91
  -4   0 -13   42.81   20.01
  -4   0 -13   39.03   19.25
  -4   0 -13   42.56   19.18
  -4   0 -13   36.40   18.05
   4   0  13   70.70   13.80
   4   0  13   67.69   13.66
  -5   0 -13   57.09   22.52
  -5   0 -13   46.09   17.33
   5   0  13   69.86   15.66
   5   0  13   35.74   13.05
   1  -1 -13  202.81   34.79
   1  -1 -13  145.60   28.61
  -1   1  13  164.16   19.82
  -1   1  13  124.63   21.33
  -1   1  13  198.37   21.84
   0  -1 -13  187.47   28.54
   0  -1 -13  190.63   29.49
   0  -1 -13  179.11   32.53
   0   1  13  194.81   26.72
   0   1  13  227.90   22.25
  -1  -1 -13  154.04   24.14
  -1  -1 -13  170.25   20.66
  -1  -1 -13  187.72   31.09
   1   1  13  177.62   18.34
   1   1  13  123.20   19.96
  -2  -1 -13   76.46   19.65
  -2  -1 -13   94.65   20.24
  -2  -1 -13  106.16   23.77
   2   1  13   96.48   12.85
   2   1  13   83.46   13.27
  -3  -1 -13  537.24   40.84
  -3  -1 -13  540.84   34.56
  -3  -1 -13  525.42   35.79
   3   1  13  500.63   28.39
   3   1  13  600.08   29.49
  -4  -1 -13   64.24   19.02
  -4  -1 -13   88.30   23.35
  -4  -1 -13   66.24   19.62
   4   1  13   68.78   13.65
   4   1  13   59.79   13.82
  -5  -1 -13   49.17   17.57
  -5  -1 -13   61.97   23.03
   5   1  13   53.82   14.79
   5   1  13   43.34   14.85
   0  -2 -13  109.87   26.02
   0  -2 -13  126.49   30.27
   0  -2 -13  141.88   30.13
   0   2  13  104.54   21.69
   0   2  13  120.44   17.54
  -1  -2 -13    0.55   19.70
  -1  -2 -13    0.10   17.41
  -1  -2 -13    1.88   23.92
   1   2  13    5.25   12.57
   1   2  13    2.75   10.71
  -2  -2 -13  321.75   29.43
  -2  -2 -13  420.24   41.93
  -2  -2 -13  318.03   30.22
   2   2  13  356.77   21.60
   2   2  13  344.16   22.96
  -3  -2 -13  193.49   27.16
  -3  -2 -13  190.83   24.53
  -3  -2 -13  147.16   22.08
   3   2  13  209.04   18.94
   3   2  13  192.05   17.71
  -4  -2 -13  219.49   25.35
  -4  -2 -13  191.51   25.13
  -4  -2 -13  196.09   24.90
   4   2  13  238.01   20.01
   4   2  13  234.30   21.38
  -5  -2 -13  193.87   23.31
   5   2  13  219.44   20.41
   5   2  13  167.22   20.27
   0  -3 -13   46.87   27.87
   0  -3 -13   34.77   30.32
   0  -3 -13   38.42   23.80
   0   3  13   50.75   14.78
   0   3  13   32.60   16.80
  -1  -3 -13  104.37   28.37
  -1  -3 -13   81.83   20.68
  -1  -3 -13   96.72   24.30
   1   3  13   81.48   15.18
   1   3  13   74.42   19.92
   1   3  13   96.53   12.27
  -2  -3 -13  316.74   30.44
  -2  -3 -13  334.89   28.53
  -2  -3 -13  334.02   34.97
   2   3  13  331.20   20.77
   2   3  13  330.77   22.76
  -3  -3 -13   14.32   20.84
  -3  -3 -13   18.58   20.54
  -3  -3 -13   37.10   20.42
   3   3  13   24.34   10.23
   3   3  13   17.16   10.96
  -4  -3 -13  102.81   22.62
  -4  -3 -13   84.16   20.99
  -4  -3 -13   64.95   20.63
   4   3  13  128.78   17.19
   4   3  13   96.47   14.62
  -1  -4 -13   63.25   28.03
  -1  -4 -13   63.89   20.18
  -1  -4 -13   60.41   24.11
   1   4  13   59.29   19.33
   1   4  13   74.51   16.06
   1   4  13   68.15   11.11
  -2  -4 -13   99.57   22.53
  -2  -4 -13   84.23   22.09
  -2  -4 -13   83.63   25.96
   2   4  13  102.30   12.85
   2   4  13   74.87   14.42
  -3  -4 -13  211.85   27.33
  -3  -4 -13  246.69   30.22
  -3  -4 -13  296.96   29.70
   3   4  13  278.90   20.12
   3   4  13  256.15   21.56
  -4  -4 -13   13.62   20.28
  -4  -4 -13   10.13   19.95
  -4  -4 -13   11.66   17.99
   4   4  13    4.29   11.51
   4   4  13   11.58   10.63
  -2  -5 -13   24.56   21.59
  -2  -5 -13   17.95   30.24
  -2  -5 -13   20.46   24.30
   2   5  13   15.91   12.86
   2   5  13   20.77    9.81
  -3  -5 -13   92.60   25.26
  -3  -5 -13  101.98   24.37
  -3  -5 -13   77.65   24.88
   3   5  13   88.14   18.69
   3   5  13  108.23   13.97
  -2   2 -14  137.49   26.82
  -2   2 -14  106.82   22.28
  -2   2 -14  118.95   25.48
  -2   2 -14  149.39   31.70
  -1   1 -14  259.86   36.94
  -1   1 -14  317.95   34.55
  -1   1 -14  336.13   36.03
  -1   1 -14  281.08   28.18
   1  -1  14  298.79   24.82
  -2   1 -14  193.58   30.30
  -2   1 -14  171.24   30.91
  -2   1 -14  200.28   25.30
  -2   1 -14  189.47   29.16
   2  -1  14  214.11   19.33
   2  -1  14  187.92   19.46
   2  -1  14  206.90   18.55
  -3   1 -14   25.11   23.01
  -3   1 -14   11.98   22.31
  -3   1 -14   23.49   23.17
  -3   1 -14   14.95   22.33
   3  -1  14   14.26   12.05
   3  -1  14   29.89   12.19
  -1   0 -14  322.52   39.66
  -1   0 -14  241.69   30.99
  -1   0 -14  258.76   26.65
   1   0  14  239.80   22.63
  -2   0 -14   21.63   18.83
  -2   0 -14   26.35   23.55
  -2   0 -14   20.67   20.91
   2   0  14   22.31   10.65
   2   0  14   15.94   11.44
   2   0  14   21.07   10.28
  -3   0 -14  112.32   25.38
  -3   0 -14  117.76   23.50
  -3   0 -14  128.96   26.18
   3   0  14  170.20   17.61
   3   0  14  133.54   16.71
  -1  -1 -14  248.53   27.65
  -1  -1 -14  177.47   30.11
  -1  -1 -14  215.92   29.08
   1   1  14  199.22   20.69
  -2  -1 -14   69.10   24.20
  -2  -1 -14   56.34   25.40
  -2  -1 -14   69.01   22.32
   2   1  14   69.77   12.81
   2   1  14   50.25   13.09
  -3  -1 -14  251.02   27.85
  -3  -1 -14  247.62   31.07
  -3  -1 -14  261.14   29.33
   3   1  14  301.79   22.69
   3   1  14  260.92   22.02
  -2  -2 -14   83.46   23.40
  -2  -2 -14  102.15   27.69
  -2  -2 -14   97.68   27.86
   2   2  14   99.61   16.14
   2   2  14  103.39   14.31
  -3  -2 -14  237.65   29.05
  -3  -2 -14  230.58   27.46
  -3  -2 -14  207.79   30.57
   3   2  14  217.43   19.39
   3   2  14  197.40   19.66
   0   0   0    0.00    0.00





 _exptl_absorpt_process_details
)
 SADABS 2016/2: Krause, L., Herbst-Irmer, R., Sheldrick G.M. & Stalke D.,
 J. Appl. Cryst. 48 (2015) 3-10
)
 _exptl_absorpt_correction_type   multi-scan
 _exptl_absorpt_correction_T_max  0.2602
 _exptl_absorpt_correction_T_min  0.2174
 _exptl_special_details
)
 The following wavelength and cell were deduced by SADABS from the
 direction cosines etc. They are given here for emergency use only:
 CELL 0.71082    6.436    8.893   11.485   87.774   73.788   81.979
)

_computing_structure_solution     'SHELXT 2018/2 (Sheldrick, 2018)'
_computing_structure_solution     'SHELXT 2018/2 (Sheldrick, 2018)'
_computing_structure_solution     'SHELXT 2018/2 (Sheldrick, 2018)'
_computing_structure_solution     'SHELXT 2018/2 (Sheldrick, 2018)'
;
_shelx_hkl_checksum              72780
_olex2_submission_special_instructions 'No special instructions were received'
loop_
_space_group_symop_operation_xyz
'x, y, z'
'-x, -y, -z'
loop_
_atom_site_label
_atom_site_type_symbol
_atom_site_fract_x
_atom_site_fract_y
_atom_site_fract_z
_atom_site_U_iso_or_equiv
_atom_site_adp_type
_atom_site_occupancy
_atom_site_site_symmetry_order
_atom_site_calc_flag
_atom_site_refinement_flags_posn
_atom_site_refinement_flags_adp
_atom_site_refinement_flags_occupancy
_atom_site_disorder_assembly
_atom_site_disorder_group
K1 K -0.26022(7) 0.62556(5) 0.62843(4) 0.02093(11) Uani 1 1 d . . . . .
S1 S 0.71030(8) 0.62419(6) 0.33811(4) 0.01927(12) Uani 1 1 d . . . . .
F1 F 0.9952(2) 0.58694(17) 0.12170(12) 0.0446(4) Uani 1 1 d . . . . .
F2 F 0.8024(2) 0.80725(16) 0.15030(12) 0.0398(3) Uani 1 1 d . . . . .
F3 F 1.0629(2) 0.75124(16) 0.23381(12) 0.0349(3) Uani 1 1 d . . . . .
O1 O -0.0432(2) 0.84481(15) 0.68159(12) 0.0219(3) Uani 1 1 d . . . . .
O2 O -0.3835(2) 0.72881(18) 0.85847(13) 0.0306(3) Uani 1 1 d . . . . .
O3 O 0.8599(2) 0.52541(15) 0.39128(12) 0.0231(3) Uani 1 1 d . . . . .
O4 O 0.5780(2) 0.54920(17) 0.28100(14) 0.0258(3) Uani 1 1 d . . . . .
N1 N 0.5996(3) 0.75658(18) 0.42131(15) 0.0204(4) Uani 1 1 d . . . . .
C1 C 0.4091(3) 0.8510(2) 0.39428(19) 0.0229(4) Uani 1 1 d . . . . .
H1A H 0.409123 0.831057 0.310126 0.027 Uiso 1 1 calc R . . . .
H1B H 0.423406 0.959676 0.400115 0.027 Uiso 1 1 calc R . . . .
C2 C 0.1938(3) 0.8186(2) 0.48059(18) 0.0217(4) Uani 1 1 d . . . . .
H2A H 0.072420 0.880956 0.456854 0.026 Uiso 1 1 calc R . . . .
H2B H 0.178204 0.710514 0.473272 0.026 Uiso 1 1 calc R . . . .
C3 C 0.1769(3) 0.8521(2) 0.61088(19) 0.0213(4) Uani 1 1 d . . . . .
H3A H 0.278220 0.776878 0.640964 0.026 Uiso 1 1 calc R . . . .
H3B H 0.216529 0.954449 0.617398 0.026 Uiso 1 1 calc R . . . .
C4 C -0.0635(3) 0.8500(3) 0.80764(19) 0.0262(5) Uani 1 1 d . . . . .
H4A H 0.000203 0.938382 0.825761 0.031 Uiso 1 1 calc R . . . .
H4B H 0.016806 0.756767 0.832347 0.031 Uiso 1 1 calc R . . . .
C5 C -0.3005(4) 0.8628(3) 0.87685(19) 0.0277(5) Uani 1 1 d . . . . .
H5A H -0.317295 0.876093 0.964299 0.033 Uiso 1 1 calc R . . . .
H5B H -0.382682 0.952218 0.848306 0.033 Uiso 1 1 calc R . . . .
C6 C -0.5806(4) 0.7090(3) 0.9483(2) 0.0384(6) Uani 1 1 d . . . . .
H6A H -0.686080 0.800927 0.953060 0.058 Uiso 1 1 calc GR . . . .
H6B H -0.550738 0.690251 1.027018 0.058 Uiso 1 1 calc GR . . . .
H6C H -0.640893 0.622327 0.926593 0.058 Uiso 1 1 calc GR . . . .
C7 C 0.9025(3) 0.6950(2) 0.20402(19) 0.0254(5) Uani 1 1 d . . . . .
loop_
_atom_site_aniso_label
_atom_site_aniso_U_11
_atom_site_aniso_U_22
_atom_site_aniso_U_33
_atom_site_aniso_U_23
_atom_site_aniso_U_13
_atom_site_aniso_U_12
K1 0.0170(2) 0.0236(2) 0.0215(2) -0.00259(19) -0.00368(19) -0.00322(15)
S1 0.0171(2) 0.0207(2) 0.0195(2) 0.0006(2) -0.0033(2) -0.00453(18)
F1 0.0442(8) 0.0498(10) 0.0299(7) -0.0136(6) 0.0117(6) -0.0147(7)
F2 0.0380(8) 0.0503(9) 0.0329(7) 0.0213(7) -0.0122(6) -0.0132(6)
F3 0.0254(7) 0.0507(9) 0.0318(7) 0.0042(6) -0.0064(5) -0.0198(6)
O1 0.0198(7) 0.0245(7) 0.0208(7) -0.0017(6) -0.0037(6) -0.0047(6)
O2 0.0265(8) 0.0377(9) 0.0237(8) -0.0061(7) 0.0024(6) -0.0095(6)
O3 0.0221(7) 0.0211(7) 0.0236(8) 0.0005(6) -0.0050(6) 0.0033(6)
O4 0.0231(7) 0.0285(8) 0.0277(8) -0.0012(7) -0.0067(6) -0.0101(6)
N1 0.0183(8) 0.0196(9) 0.0221(8) 0.0008(7) -0.0050(7) 0.0001(6)
C1 0.0204(10) 0.0212(10) 0.0265(11) 0.0033(8) -0.0070(8) -0.0007(8)
C2 0.0201(10) 0.0183(10) 0.0268(11) 0.0001(8) -0.0069(8) -0.0021(8)
C3 0.0134(9) 0.0235(10) 0.0273(11) -0.0003(8) -0.0057(8) -0.0027(8)
C4 0.0286(12) 0.0302(12) 0.0222(11) -0.0018(9) -0.0086(9) -0.0085(9)
C5 0.0335(12) 0.0289(12) 0.0188(10) -0.0030(9) -0.0059(9) -0.0002(9)
C6 0.0262(12) 0.0594(17) 0.0254(12) -0.0024(11) 0.0021(10) -0.0108(11)
C7 0.0245(11) 0.0313(12) 0.0204(10) -0.0002(9) -0.0041(8) -0.0080(9)
loop_
_atom_type_symbol
_atom_type_description
_atom_type_scat_dispersion_real
_atom_type_scat_dispersion_imag
_atom_type_scat_source
C C 0.0033 0.0016 'International Tables Vol C Tables 4.2.6.8 and 6.1.1.4'
H H 0.0000 0.0000 'International Tables Vol C Tables 4.2.6.8 and 6.1.1.4'
F F 0.0171 0.0103 'International Tables Vol C Tables 4.2.6.8 and 6.1.1.4'
K K 0.2009 0.2494 'International Tables Vol C Tables 4.2.6.8 and 6.1.1.4'
N N 0.0061 0.0033 'International Tables Vol C Tables 4.2.6.8 and 6.1.1.4'
O O 0.0106 0.0060 'International Tables Vol C Tables 4.2.6.8 and 6.1.1.4'
S S 0.1246 0.1234 'International Tables Vol C Tables 4.2.6.8 and 6.1.1.4'
loop_
_geom_angle_atom_site_label_1
_geom_angle_atom_site_label_2
_geom_angle_atom_site_label_3
_geom_angle
_geom_angle_site_symmetry_1
_geom_angle_site_symmetry_3
_geom_angle_publ_flag
S1 K1 K1 62.536(15) 1_455 2_566 ?
O1 K1 K1 99.27(3) . 2_566 ?
O1 K1 S1 115.37(3) . 1_455 ?
O1 K1 O3 117.17(4) . 1_455 ?
O1 K1 N1 102.30(4) . 1_455 ?
O2 K1 K1 142.55(4) . 2_566 ?
O2 K1 S1 153.90(4) . 1_455 ?
O2 K1 O1 62.68(4) . . ?
O2 K1 O3 178.67(5) . 1_455 ?
O2 K1 N1 128.02(5) . 1_455 ?
O3 K1 K1 39.88(3) 2_666 2_566 ?
O3 K1 K1 38.62(3) 1_455 2_566 ?
O3 K1 S1 102.04(3) 2_666 1_455 ?
O3 K1 S1 24.78(3) 1_455 1_455 ?
O3 K1 O1 77.52(4) 2_666 . ?
O3 K1 O2 102.67(5) 2_666 . ?
O3 K1 O3 78.51(5) 2_666 1_455 ?
O3 K1 O4 112.40(5) 2_666 2_566 ?
O3 K1 N1 50.65(4) 1_455 1_455 ?
O3 K1 N1 123.29(5) 2_666 1_455 ?
O4 K1 K1 109.48(4) 2_566 2_566 ?
O4 K1 S1 96.04(4) 2_566 1_455 ?
O4 K1 O1 144.85(5) 2_566 . ?
O4 K1 O2 82.17(5) 2_566 . ?
O4 K1 O3 97.97(5) 2_566 1_455 ?
O4 K1 N1 99.40(5) 2_566 1_455 ?
N1 K1 K1 86.25(4) 1_455 2_566 ?
N1 K1 S1 26.33(3) 1_455 1_455 ?
O3 S1 K1 52.60(6) . 1_655 ?
O3 S1 N1 110.22(8) . . ?
O3 S1 C7 100.85(9) . . ?
O4 S1 K1 131.97(7) . 1_655 ?
O4 S1 O3 116.28(9) . . ?
O4 S1 N1 118.05(9) . . ?
O4 S1 C7 100.57(9) . . ?
N1 S1 K1 59.04(6) . 1_655 ?
N1 S1 C7 108.54(10) . . ?
C7 S1 K1 126.65(7) . 1_655 ?
C3 O1 K1 118.63(11) . . ?
C4 O1 K1 111.51(11) . . ?
C4 O1 C3 111.48(14) . . ?
C5 O2 K1 115.46(11) . . ?
C5 O2 C6 112.40(17) . . ?
C6 O2 K1 126.50(14) . . ?
K1 O3 K1 101.49(5) 2_666 1_655 ?
S1 O3 K1 149.70(8) . 2_666 ?
S1 O3 K1 102.62(7) . 1_655 ?
S1 O4 K1 131.94(9) . 2_566 ?
S1 N1 K1 94.62(7) . 1_655 ?
C1 N1 K1 139.91(12) . 1_655 ?
C1 N1 S1 117.38(14) . . ?
N1 C1 C2 112.20(16) . . ?
C3 C2 C1 112.58(16) . . ?
O1 C3 C2 108.37(15) . . ?
O1 C4 C5 109.30(17) . . ?
O2 C5 C4 108.93(17) . . ?
F1 C7 S1 112.32(14) . . ?
F1 C7 F2 107.61(18) . . ?
F1 C7 F3 107.37(18) . . ?
F2 C7 S1 111.15(14) . . ?
F2 C7 F3 106.78(16) . . ?
F3 C7 S1 111.35(14) . . ?
loop_
_geom_bond_atom_site_label_1
_geom_bond_atom_site_label_2
_geom_bond_distance
_geom_bond_site_symmetry_2
_geom_bond_publ_flag
K1 K1 4.2228(9) 2_566 ?
K1 S1 3.3943(7) 1_455 ?
K1 O1 2.7317(13) . ?
K1 O2 2.6968(15) . ?
K1 O3 2.6898(14) 2_666 ?
K1 O3 2.7632(15) 1_455 ?
K1 O4 2.6940(15) 2_566 ?
K1 N1 2.9202(17) 1_455 ?
S1 O3 1.4579(14) . ?
S1 O4 1.4519(15) . ?
S1 N1 1.5107(16) . ?
S1 C7 1.837(2) . ?
F1 C7 1.330(2) . ?
F2 C7 1.337(2) . ?
F3 C7 1.339(2) . ?
O1 C3 1.432(2) . ?
O1 C4 1.419(2) . ?
O2 C5 1.418(3) . ?
O2 C6 1.422(3) . ?
N1 C1 1.488(2) . ?
C1 C2 1.520(3) . ?
C2 C3 1.509(3) . ?
C4 C5 1.502(3) . ?
loop_
_twin_individual_id
_twin_individual_mass_fraction_refined
1 0.5950(9)
2 0.4050(9)
