#------------------------------------------------------------------------------
#$Date: 2021-06-26 02:06:57 +0300 (Sat, 26 Jun 2021) $
#$Revision: 266693 $
#$URL: file:///home/coder/svn-repositories/cod/cif/4/00/39/4003958.cif $
#------------------------------------------------------------------------------
#
# This file is available in the Crystallography Open Database (COD),
# http://www.crystallography.net/
#
# All data on this site have been placed in the public domain by the
# contributors.
#
data_4003958
loop_
_publ_author_name
'Hu, Yilei'
'Jiang, Xingxing'
'Wu, Chao'
'Huang, Zhipeng'
'Lin, Zheshuai'
'Humphrey, Mark G.'
'Zhang, Chi'
_publ_section_title
;
 A2MoO2F3(IO2F2) (A = Rb, Cs): Strong Nonlinear Optical Responses and
 Enlarged Band Gaps through Fluorine Incorporation
;
_journal_name_full               'Chemistry of Materials'
_journal_paper_doi               10.1021/acs.chemmater.1c01434
_journal_year                    2021
_chemical_formula_sum            'F5 I Mo O4 Rb2'
_chemical_formula_weight         552.78
_space_group_crystal_system      orthorhombic
_space_group_IT_number           36
_space_group_name_Hall           'C 2c -2'
_space_group_name_H-M_alt        'C m c 21'
_atom_sites_solution_hydrogens   none
_audit_creation_method           SHELXL-2017/1
_cell_angle_alpha                90
_cell_angle_beta                 90
_cell_angle_gamma                90
_cell_formula_units_Z            4
_cell_length_a                   11.8060(13)
_cell_length_b                   10.1279(13)
_cell_length_c                   7.6661(8)
_cell_measurement_reflns_used    1778
_cell_measurement_temperature    289(2)
_cell_measurement_theta_max      30.0410
_cell_measurement_theta_min      2.6498
_cell_volume                     916.64(18)
_computing_structure_refinement  'SHELXL-2017/1 (Sheldrick, 2017)'
_diffrn_ambient_temperature      289(2)
_diffrn_measured_fraction_theta_full 0.989
_diffrn_measured_fraction_theta_max 0.989
_diffrn_measurement_device_type  'CCD area detector'
_diffrn_measurement_method       'phi and omega scans'
_diffrn_radiation_type           MoK\a
_diffrn_radiation_wavelength     0.71073
_diffrn_reflns_av_R_equivalents  0.0297
_diffrn_reflns_av_unetI/netI     0.0449
_diffrn_reflns_Laue_measured_fraction_full 0.989
_diffrn_reflns_Laue_measured_fraction_max 0.989
_diffrn_reflns_limit_h_max       14
_diffrn_reflns_limit_h_min       -16
_diffrn_reflns_limit_k_max       14
_diffrn_reflns_limit_k_min       -14
_diffrn_reflns_limit_l_max       9
_diffrn_reflns_limit_l_min       -10
_diffrn_reflns_number            2884
_diffrn_reflns_point_group_measured_fraction_full 0.990
_diffrn_reflns_point_group_measured_fraction_max 0.990
_diffrn_reflns_theta_full        25.242
_diffrn_reflns_theta_max         30.040
_diffrn_reflns_theta_min         2.650
_diffrn_source                   'sealed tube'
_exptl_absorpt_coefficient_mu    15.412
_exptl_crystal_colour            colorless
_exptl_crystal_density_diffrn    4.006
_exptl_crystal_description       stable
_exptl_crystal_F_000             984
_refine_diff_density_max         1.633
_refine_diff_density_min         -2.439
_refine_diff_density_rms         0.404
_refine_ls_abs_structure_details
;
 Refined as an inversion twin.
;
_refine_ls_abs_structure_Flack   0.48(6)
_refine_ls_extinction_method     none
_refine_ls_goodness_of_fit_ref   1.175
_refine_ls_hydrogen_treatment    none
_refine_ls_matrix_type           full
_refine_ls_number_parameters     74
_refine_ls_number_reflns         1343
_refine_ls_number_restraints     13
_refine_ls_restrained_S_all      1.181
_refine_ls_R_factor_all          0.0818
_refine_ls_R_factor_gt           0.0696
_refine_ls_shift/su_max          0.000
_refine_ls_shift/su_mean         0.000
_refine_ls_structure_factor_coef Fsqd
_refine_ls_weighting_details
'w=1/[\s^2^(Fo^2^)+94.5981P] where P=(Fo^2^+2Fc^2^)/3'
_refine_ls_weighting_scheme      calc
_refine_ls_wR_factor_gt          0.1516
_refine_ls_wR_factor_ref         0.1578
_reflns_Friedel_coverage         0.871
_reflns_Friedel_fraction_full    0.990
_reflns_Friedel_fraction_max     0.991
_reflns_number_gt                1197
_reflns_number_total             1343
_reflns_threshold_expression     'I > 2\s(I)'
_cod_data_source_file            cm1c01434_si_002.cif
_cod_data_source_block           2
_cod_database_code               4003958
_shelx_shelxl_version_number     2017/1
_shelx_space_group_comment
;
The symmetry employed for this shelxl refinement is uniquely defined
by the following loop, which should always be used as a source of
symmetry information in preference to the above space-group names.
They are only intended as comments.
;
_shelx_res_file
;
TITL 2 in Cmc2(1)                           New:Cmc21
    2.res
    created by SHELXL-2017/1 at 10:51:03 on 24-May-2021
CELL  0.71073   11.8060   10.1279    7.6661    90.000    90.000    90.000
ZERR        4    0.0013    0.0013    0.0008     0.000     0.000     0.000
LATT  -7
SYMM             - X ,            - Y ,    0.50000 + Z
SYMM             - X ,              Y ,              Z
SYMM               X ,            - Y ,    0.50000 + Z
SFAC  F  I Mo  O Rb
UNIT     20   4   4  16   8
TEMP    16
L.S. 30
FMAP 2
PLAN -20
ACTA
TWIN
isor 0.01  F1
isor 0.001 I1B
WGHT    0.000000   94.598099
BASF   0.47618
FVAR       0.08822
RESI 0
I1A   2    0.000000   -0.474770    0.023725    10.40000    0.02844    0.01919 =
         0.01365   -0.00137    0.00000    0.00000
I1B   2    0.000000   -0.522151    0.054647    10.10000    0.02259    0.02189 =
         0.02213   -0.00122    0.00000    0.00000
MO1   3    0.000000   -0.157326    0.294677    10.50000    0.03243    0.02039 =
         0.01916   -0.00072    0.00000    0.00000
F1    1   -0.167422   -0.481183    0.021346    11.00000    0.03895    0.10238 =
         0.07030   -0.01434    0.01214   -0.01844
F2    1   -0.110869   -0.215174    0.461555    11.00000    0.02315    0.19111 =
         0.03519   -0.01471    0.00273   -0.01370
O1    4    0.000000   -0.377956    0.223882    10.50000    0.06777    0.01026 =
         0.02326   -0.00090    0.00000    0.00000
O2    4    0.000000   -0.344916   -0.140907    10.50000    0.09015    0.05003 =
         0.01735   -0.00919    0.00000    0.00000
O3    4    0.117579   -0.152025    0.144610    11.00000    0.09157    0.10847 =
         0.05527    0.04407    0.05188    0.02821
F3    1    0.000000   -0.005895    0.358511    10.50000    0.09638    0.04594 =
         0.06498    0.00956    0.00000    0.00000
RB1   5    0.302746   -0.332477    0.292332    11.00000    0.02610    0.06693 =
         0.02590    0.00139   -0.00393    0.00314
HKLF 4




REM  2 in Cmc2(1)                           New:Cmc21
REM R1 =  0.0696 for    1197 Fo > 4sig(Fo)  and  0.0818 for all    1343 data
REM     74 parameters refined using     13 restraints

END

WGHT      0.0000     94.7103

REM Highest difference peak  1.633,  deepest hole -2.439,  1-sigma level  0.404
Q1    1  -0.0522 -0.2258  0.0269  11.00000  0.05    1.63
Q2    1  -0.1061 -0.2442  0.1352  11.00000  0.05    1.63
Q3    1   0.0000 -0.1045  0.5767  10.50000  0.05    1.52
Q4    1   0.0000 -0.5884  0.1056  10.50000  0.05    1.51
Q5    1   0.3611 -0.4416  0.3016  11.00000  0.05    1.50
Q6    1  -0.1040 -0.3126  0.0300  11.00000  0.05    1.41
Q7    1  -0.2338 -0.4488  0.0366  11.00000  0.05    1.41
Q8    1  -0.0884 -0.0849  0.3371  11.00000  0.05    1.36
Q9    1   0.0000 -0.7473  0.0192  10.50000  0.05    1.33
Q10   1   0.1560 -0.5482  0.0756  11.00000  0.05    1.26
Q11   1   0.0433  0.0659  0.2808  11.00000  0.05    1.24
Q12   1   0.0583 -0.5592  0.0283  11.00000  0.05    1.21
Q13   1  -0.2061 -0.2455  0.4829  11.00000  0.05    1.19
Q14   1  -0.1608 -0.1522  0.4981  11.00000  0.05    1.15
Q15   1   0.0000 -0.1537  0.0034  10.50000  0.05    1.15
Q16   1  -0.1041 -0.3086  0.2399  11.00000  0.05    1.14
Q17   1  -0.2285 -0.5771  0.0512  11.00000  0.05    1.13
Q18   1   0.1730 -0.1078  0.0253  11.00000  0.05    1.12
Q19   1  -0.2170 -0.2310  0.5189  11.00000  0.05    1.12
Q20   1   0.0000 -0.1035 -0.0048  10.50000  0.05    1.10
;
_shelx_res_checksum              88772
_shelx_hkl_file
;
   0  -2   0    0.71    0.24
   0   2   0    1.00    0.21
   0   4   0    7.68    0.54
   0  -4   0    7.65    0.77
   0  -6   0  669.94   19.73
   0   6   0  711.00   19.53
   0   8   0    6.95    0.88
   0  -8   0   12.86    2.06
   0  10   0   51.47    1.98
   0 -10   0   56.59    3.25
   0 -12   0   11.98    1.84
   0  12   0   10.09    1.34
  -1   1   0   10.42    0.59
   1  -5   0   20.13    1.29
  -1   5   0   19.08    0.98
  -1  -5   0   17.50    0.98
   1   5   0   15.44    0.71
   1  -7   0    6.54    1.21
   1   7   0    6.02    0.66
  -1   7   0    7.06    0.96
  -1  -7   0    7.72    1.04
   1  -9   0   64.58    3.23
  -1   9   0   52.58    2.14
   1   9   0   60.09    1.96
   1 -11   0    9.90    2.24
  -1  11   0    5.98    0.89
  -1 -11   0    8.00    1.65
  -1  13   0   35.53    2.03
  -2   0   0  322.46    9.24
   2  -2   0  282.06    8.29
  -2   2   0  281.32    8.31
  -2  -2   0  291.13    8.03
   2  -4   0   52.84    2.10
  -2   4   0   57.21    2.01
  -2   6   0   43.95    1.85
  -2  -6   0   49.59    1.69
   2  -6   0   41.44    2.21
  -2   8   0   60.13    2.44
   2  -8   0   71.88    3.33
  -2  10   0    6.05    0.93
   2 -10   0   10.20    3.47
  -2  12   0    2.57    0.99
   2 -12   0    4.10    1.93
  -2  14   0    2.19    1.20
  -3  -1   0  220.98    6.51
  -3   1   0  219.91    6.66
   3  -1   0  223.70    6.59
   3  -3   0   11.31    1.11
  -3   3   0   11.65    1.20
  -3   5   0   75.65    2.80
   3  -5   0   77.83    2.92
   3  -7   0   10.20    1.51
  -3   7   0   12.04    1.56
  -3   9   0    4.06    0.95
   3  -9   0    5.45    1.63
  -3  11   0    1.51    1.04
   3 -11   0    1.68    2.00
  -3  13   0   13.12    2.00
  -4   0   0  631.11   18.61
   4   0   0  666.60   18.54
   4  -2   0  122.17    3.94
  -4   2   0  118.34    4.03
  -4  -2   0  122.75    3.75
  -4   4   0   12.89    1.55
   4  -4   0   13.36    1.48
  -4   6   0  260.81    8.06
   4  -6   0  263.88    8.18
  -4   8   0   13.77    1.94
   4  -8   0    9.86    1.73
   4 -10   0   16.26    2.21
  -4  10   0   16.21    1.93
   4 -12   0    6.67    2.32
  -4  12   0    3.60    1.29
   5  -1   0   12.40    1.21
  -5  -1   0   14.86    1.44
  -5   1   0   14.56    1.59
  -5  -3   0  841.73   23.54
   5  -3   0  824.01   23.91
  -5  -3   0  823.25   23.68
  -5   3   0  844.84   24.37
  -5   5   0    2.59    1.16
   5  -5   0    1.60    1.07
   5  -7   0   19.63    2.49
  -5   7   0   20.13    2.46
  -5   9   0   89.13    3.81
   5  -9   0   98.47    4.38
   5 -11   0    8.47    2.24
  -5  11   0    7.32    1.49
  -5  13   0   19.54    2.55
  -6   0   0 1000.00   28.67
   6  -2   0  107.61    3.70
  -6  -2   0  106.12    3.71
  -6   2   0  104.32    4.03
   6  -4   0    2.38    0.98
  -6  -4   0    2.78    0.88
  -6   4   0    2.56    1.35
  -6  -4   0    1.74    0.50
  -6   6   0  254.42    8.26
  -6   8   0   11.38    1.69
   6  -8   0    8.13    1.58
   6 -10   0   14.70    2.33
  -6  10   0   12.90    1.77
   6 -12   0   10.40    3.07
  -6  12   0    3.92    1.69
  -7  -1   0  171.91    5.56
   7  -1   0  161.28    5.34
  -7   1   0  163.39    5.68
  -7   3   0   53.19    3.07
   7  -3   0   47.12    2.45
  -7  -3   0   53.70    2.56
  -7  -5   0   74.16    2.51
  -7  -5   0   84.25    3.09
   7  -7   0    1.33    1.36
  -7   7   0    1.67    1.53
  -7   9   0    8.97    1.83
   7  -9   0   13.93    2.16
   7 -11   0    6.61    2.49
  -7  11   0    3.18    1.80
  -8   0   0   72.32    3.45
   8  -2   0  118.34    4.36
  -8   2   0  105.73    4.62
  -8  -4   0   35.58    1.79
  -8  -4   0   47.21    2.58
  -8   4   0   42.91    3.33
  -8   6   0   10.28    2.06
   8  -6   0    5.54    1.34
  -8   8   0   25.87    3.37
   8  -8   0   23.70    2.88
   8 -10   0   10.34    2.33
  -8  10   0    4.13    2.03
  -8  12   0   -2.18    2.17
  -9  -1   0   18.53    2.57
  -9   1   0   19.04    2.81
  -9  -3   0  179.24    6.06
  -9   3   0  178.95    6.64
   9  -3   0  171.57    5.95
  -9   5   0    3.47    1.74
  -9  -5   0    1.83    0.73
  -9  -5   0    2.19    1.19
  -9   7   0    7.39    2.02
   9  -7   0    6.03    1.66
  -9   9   0   11.38    2.27
   9  -9   0   17.46    2.60
  -9  11   0   -3.55    2.27
 -10   0   0  627.00   18.76
 -10  -2   0    5.53    1.61
 -10   2   0    6.57    1.85
 -10  -4   0    6.81    0.99
 -10  -4   0   10.42    1.58
 -10   4   0   11.82    2.13
 -10   6   0  162.72    6.52
 -10   8   0   -1.77    2.27
 -10  10   0    8.75    2.69
 -11   1   0   13.63    2.19
 -11  -1   0   13.92    2.13
 -11  -3   0  185.38    6.46
 -11   3   0  184.39    7.00
 -11   5   0   10.05    3.53
 -11  -5   0    5.90    1.00
 -11  -5   0    7.84    1.55
 -11   7   0    1.16    2.19
 -11   9   0   13.51    2.62
 -12   0   0   24.59    3.20
 -12  -2   0   72.50    3.92
 -12   2   0   70.14    4.31
 -12  -4   0   18.45    1.94
 -12   4   0   21.34    2.82
 -12  -4   0   19.47    2.69
 -12   6   0   10.14    2.49
 -12  -6   0   13.85    2.28
 -12  -6   0   13.21    1.33
 -12   8   0    4.12    2.49
 -13  -1   0   51.05    3.66
 -13   1   0   49.90    3.98
 -13   3   0   -0.76    1.93
 -13  -3   0    1.34    1.72
 -13  -5   0   25.92    1.97
 -13   5   0   20.45    2.87
 -13  -5   0   21.39    2.61
 -13   7   0   -0.46    2.36
 -14   0   0   35.14    3.46
 -14  -2   0    8.24    1.98
 -14   2   0    7.01    2.42
 -14   4   0    2.41    2.45
 -14  -4   0   -0.28    1.64
 -14   6   0   15.19    2.80
 -14  -6   0   13.83    1.88
 -14  -6   0   18.46    1.58
 -15   1   0    1.07    2.06
 -15  -1   0    1.82    2.02
 -15  -3   0   75.19    3.39
 -15  -3   0   67.08    5.10
 -15   3   0   75.53    4.85
 -15   5   0   -2.42    2.25
 -16   0   0   39.33    3.80
 -16   2   0    0.05    2.13
 -16  -2   0   -1.57    1.83
   0   0  -1    0.05    0.05
   0   2  -1   25.48    0.90
   0  -2   1   24.38    0.91
   0  -4   1   61.32    1.91
   0   4  -1   59.39    1.85
   0   4   1   55.66    1.90
   0  -6   1   47.93    1.83
   0   6  -1   48.71    1.64
   0  -6  -1   41.53    2.13
   0   6   1   48.79    1.62
   0   8   1   27.22    1.22
   0  -8   1   26.69    1.95
   0  10   1   27.26    1.30
   0  10  -1   27.87    1.47
   0 -10   1   24.68    2.45
   0 -12   1   11.71    2.12
   0  12  -1   19.35    1.55
   0 -14   1   21.00    2.73
   0  14  -1   14.98    1.72
   1   1   1   64.70    1.84
  -1  -1   1   63.64    1.88
  -1   1  -1   63.54    1.91
  -1  -1  -1   64.09    1.84
   1   1  -1   63.15    1.88
  -1  -3   1   45.44    1.43
  -1   3  -1   45.57    1.50
   1  -3   1   46.91    1.54
  -1   3   1   37.46    1.73
   1   3  -1   45.27    1.40
  -1  -5   1   57.10    1.95
  -1   5  -1   59.28    1.98
   1  -5  -1   63.79    2.42
   1   5  -1   54.50    1.85
  -1   5   1   61.54    2.11
   1  -5   1   59.09    2.09
  -1  -7   1   42.86    1.85
   1  -7  -1   37.37    2.44
   1   7  -1   43.83    1.52
   1  -7   1   42.57    2.06
  -1   7   1   41.50    1.74
  -1  -9   1   26.73    2.06
  -1   9  -1   27.81    1.49
   1   9  -1   28.37    2.03
   1  -9   1   27.25    2.29
  -1 -11   1   24.13    2.75
  -1  11  -1   29.57    1.66
   1 -11   1   25.76    2.93
  -1  11   1   27.29    1.53
   1  11  -1   28.75    1.48
  -1  13  -1    4.67    1.10
   1 -13   1    8.72    2.34
  -1  13   1    4.84    0.98
   1  13  -1    9.13    1.45
   2   0   1    5.68    0.51
  -2   0  -1    3.89    0.50
  -2   2   1  586.32   16.75
   2  -4  -1  340.33    9.75
  -2   4  -1  322.47    9.49
  -2  -4   1  338.18    9.37
   2  -4   1  325.63    9.54
  -2   4   1  318.47    9.66
   2   4  -1  329.38    9.34
  -2   6  -1   23.84    1.82
   2  -6  -1   17.38    1.95
  -2  -6   1   21.19    1.08
   2   6  -1   19.17    0.87
  -2   6   1   20.29    1.49
   2  -6   1   19.68    1.46
   2  -8  -1  156.50    5.45
  -2   8  -1  149.27    4.68
  -2  -8   1  144.25    4.72
   2   8  -1  150.72    4.42
   2  -8   1  147.38    5.10
  -2   8   1  148.53    4.74
  -2  10  -1   33.94    1.77
  -2 -10   1   28.47    2.35
  -2  10   1   33.20    1.78
   2 -10   1   29.75    2.78
  -2  12  -1   14.55    1.69
  -2 -12   1   12.07    1.83
   2 -12   1   12.83    2.34
  -2  12   1   13.85    1.58
  -2  14  -1   16.33    2.02
  -2  14   1   18.55    1.88
   3   1   1  462.67   13.55
  -3  -1   1  499.79   13.58
  -3   1   1  471.48   13.73
  -3  -3   1    6.76    0.53
  -3   3  -1    7.80    0.96
   3   3  -1    6.07    0.52
   3  -3   1    8.90    0.87
  -3   3   1    8.07    0.96
  -3  -5   1  291.09    8.02
  -3   5  -1  274.46    8.49
   3  -5  -1  286.06    8.56
  -3   5   1  266.14    8.44
   3  -5   1  270.82    8.31
   3   5  -1  288.57    7.98
  -3  -7   1   91.37    2.82
   3  -7  -1   83.56    3.78
  -3   7  -1   83.28    3.07
  -3   7   1   81.83    3.27
   3  -7   1   84.40    3.34
   3   7  -1   88.96    2.64
  -3  -9   1   16.73    1.66
  -3   9  -1   17.59    1.63
   3  -9  -1   13.81    2.31
   3   9  -1   18.25    1.00
  -3   9   1   18.68    1.76
   3  -9   1   15.94    2.29
  -3  11  -1   39.38    2.14
   3 -11   1   40.10    3.38
  -3  11   1   39.30    2.17
  -3  13  -1    5.27    1.28
  -3  13   1    4.88    1.24
   3 -13   1   13.40    4.72
  -4   0  -1    2.57    0.62
   4   0   1    1.79    0.48
  -4  -2   1   30.53    1.17
  -4   2  -1   30.60    1.58
   4   2   1   30.65    1.22
  -4   2   1   28.18    1.72
  -4  -2  -1   28.35    1.25
  -4  -4   1   24.64    1.03
   4  -4  -1   27.71    1.97
  -4   4   1   25.53    1.94
   4  -6  -1   15.52    2.27
  -4  -6   1   14.37    0.94
  -4   6  -1   18.66    1.75
   4   6  -1   13.72    0.87
   4  -6   1   16.79    1.68
  -4   6   1   17.27    2.05
  -4   8  -1   53.40    2.59
   4  -8  -1   69.88    5.72
  -4  -8   1   59.54    2.19
  -4   8   1   52.36    2.85
   4   8  -1   58.79    1.91
   4  -8   1   51.46    2.91
  -4  10  -1   22.48    2.06
  -4  10   1   23.02    2.19
   4 -10   1   23.82    2.83
  -4  12  -1    7.69    1.39
   4 -12   1   14.41    4.03
  -4  12   1    9.06    1.47
  -5   1  -1  118.30    3.88
   5   1   1  114.77    3.60
  -5  -1  -1  105.88    3.70
  -5   1   1  111.35    3.84
   5  -1   1  119.52    3.66
  -5   3  -1   12.74    1.90
  -5  -3   1   12.03    0.87
  -5  -3  -1   14.58    1.10
   5  -3   1   12.65    1.21
  -5  -5   1   38.57    1.35
  -5   5  -1   34.91    2.20
   5  -5  -1   28.50    2.41
   5  -5   1   31.53    1.91
  -5   5   1   36.36    2.57
   5  -7  -1   30.12    2.92
  -5  -7   1   30.43    1.42
  -5   7  -1   34.63    2.42
  -5   7   1   35.47    2.77
   5  -7   1   34.03    2.40
  -5   9  -1   22.13    2.14
   5  -9   1   18.68    2.58
  -5   9   1   25.45    2.53
  -5  11  -1    7.78    1.45
  -5  11   1    7.63    1.57
   5 -11   1   10.46    2.48
  -5  13  -1    2.17    1.46
  -5  13   1    1.83    1.63
   6   0   1    5.40    0.79
  -6   0   1    7.77    1.06
  -6   0  -1    6.38    1.16
  -6   2  -1   22.16    1.93
  -6   2   1   20.71    1.99
   6  -2   1   20.24    1.42
  -6  -2  -1   20.58    1.64
  -6  -4   1   17.45    1.05
  -6   4  -1   17.60    2.13
  -6   4   1   19.64    2.29
   6  -4   1   17.74    1.63
   6  -6  -1   17.42    2.63
  -6  -6   1   21.49    1.16
  -6   6  -1   22.15    2.46
  -6   6   1   19.34    2.80
   6  -6   1   19.77    2.08
  -6   8  -1   47.28    2.86
  -6   8   1   48.79    3.20
   6  -8   1   44.43    2.90
  -6  10  -1    8.62    1.52
   6 -10   1   12.39    2.09
  -6  10   1    9.57    1.81
  -6  12  -1    4.39    1.67
  -6  12   1    6.19    1.85
   7   1   1  250.34    7.21
  -7   1  -1  232.44    7.64
   7  -1   1  232.68    7.27
  -7   1   1  237.85    7.55
  -7  -1  -1  240.49    7.54
  -7  -3   1   13.42    1.50
  -7  -3   1   12.78    1.21
  -7   3  -1   13.99    2.33
  -7  -3  -1   15.38    1.77
   7  -3   1   14.45    1.62
  -7   3   1   16.14    2.32
  -7   5  -1  179.21    6.37
  -7  -5   1  182.78    5.36
   7  -5   1  171.22    5.92
  -7   5   1  183.23    6.47
  -7   7  -1   45.80    3.12
  -7  -7   1   46.23    1.76
   7  -7   1   45.16    2.80
  -7   7   1   50.55    3.39
  -7   9  -1   11.48    1.93
  -7   9   1   12.08    2.05
   7  -9   1   12.76    2.08
  -7  11  -1   26.52    3.08
  -7  11   1   26.44    3.43
  -8   0  -1   12.57    1.76
  -8   0   1   10.00    1.43
   8   0   1   11.75    1.49
  -8  -2   1  248.18    7.95
  -8   2  -1  258.43    8.48
  -8   2   1  262.77    8.36
  -8  -2  -1  258.99    8.17
   8  -2   1  258.77    8.25
  -8  -4   1  152.61    4.87
  -8   4  -1  150.53    5.88
  -8  -4  -1  160.67    5.21
   8  -4   1  153.20    5.31
  -8   4   1  166.58    5.96
  -8  -6   1   12.66    1.52
  -8   6  -1   17.61    2.88
  -8  -6   1   14.82    1.14
  -8   6   1   12.49    1.93
   8  -6   1   15.43    2.10
  -8   8  -1   70.30    4.04
   8  -8   1   73.75    3.85
  -8   8   1   72.46    4.22
  -8  10  -1   14.96    2.27
  -8  10   1   12.36    2.33
  -8  12  -1    3.69    2.07
  -8  12   1    3.10    2.25
  -9   1  -1   27.83    3.12
  -9  -1   1   29.51    2.50
  -9   1   1   28.45    2.75
   9  -1   1   28.39    2.00
  -9  -1  -1   32.00    2.92
  -9  -3   1   15.25    2.11
  -9  -3   1   10.23    1.53
  -9   3  -1   14.08    2.11
   9  -3   1   13.90    1.85
  -9   3   1   16.37    2.23
  -9   5  -1   15.44    2.14
  -9  -5   1   14.08    1.33
  -9  -5   1   15.31    1.80
  -9  -5  -1   13.95    1.19
  -9   5   1   18.07    2.93
  -9   7  -1   31.37    3.41
  -9  -7   1   27.62    1.48
  -9  -7   1   28.61    1.96
  -9   7   1   32.46    3.55
   9  -7   1   34.07    3.36
  -9   9  -1    7.74    2.07
  -9   9   1    8.03    2.33
  -9  11  -1    6.71    2.55
  -9  11   1    4.41    2.43
 -10   0   1    8.42    1.66
 -10   0  -1   10.43    1.98
 -10  -2   1   12.76    1.65
 -10   2  -1   13.43    2.07
 -10   2   1   12.16    1.84
 -10  -2  -1   17.20    2.76
  10  -2   1   12.57    1.81
 -10   4  -1   24.44    3.36
 -10  -4   1   19.69    1.68
 -10  -4   1   21.79    2.20
 -10  -4  -1   23.36    2.38
 -10   4   1   23.54    3.03
 -10  -6   1   11.69    1.34
 -10  -6   1   11.82    1.93
 -10   6  -1    9.86    2.24
 -10   6   1   10.99    2.28
 -10   8  -1    4.26    2.19
 -10   8   1    3.79    2.14
 -10  10  -1    6.75    2.62
 -10  10   1    8.63    2.90
 -11  -1   1    4.33    1.51
 -11   1  -1    0.94    1.95
 -11  -1  -1    2.64    1.91
  11  -1   1    2.90    1.15
 -11   1   1    1.46    1.50
 -11   3  -1    5.58    2.06
 -11  -3   1    6.40    1.52
 -11  -3   1    5.77    1.14
 -11   3   1    6.46    1.85
 -11  -3  -1    7.27    1.78
 -11  -5   1   10.76    1.53
 -11  -5   1   12.24    1.78
 -11  -5  -1   12.20    1.64
 -11  -5  -1   10.51    1.45
  11  -5   1   11.49    1.62
 -11  -7   1    7.45    1.21
 -11  -7   1    5.93    1.32
 -11   7  -1    5.05    2.47
 -11   7   1    4.68    2.42
 -11   9  -1    1.34    2.37
 -11   9   1    3.88    2.58
 -12   0  -1    2.70    2.04
 -12   0   1    2.48    1.75
 -12  -2   1   63.55    3.50
 -12   2  -1   65.82    4.39
 -12   2   1   65.30    3.92
 -12  -2  -1   63.65    3.82
 -12  -4   1   31.80    2.73
 -12   4  -1   37.57    3.96
 -12  -4   1   32.03    2.27
  12  -4   1   36.29    2.77
 -12   4   1   35.36    3.64
 -12  -4  -1   30.61    2.88
 -12  -6   1    5.10    0.95
 -12   6  -1    1.41    2.58
 -12  -6   1    3.02    1.28
 -12   6   1    4.32    2.38
 -12   8  -1   24.65    3.16
 -12   8   1   22.11    3.10
 -13   1  -1   57.65    4.20
 -13  -1   1   54.78    3.55
 -13  -1  -1   52.44    3.81
 -13  -3   1    4.07    1.24
 -13  -3   1    2.27    1.59
 -13   3  -1    0.08    2.23
 -13  -3  -1    1.20    1.74
 -13   3   1    1.08    1.99
 -13   5  -1   46.56    4.44
 -13  -5   1   46.47    2.48
 -13  -5   1   45.41    2.97
 -13   5   1   47.15    4.10
 -13  -5  -1   42.61    2.99
 -13  -5  -1   47.16    2.37
 -13  -7   1   17.87    1.47
 -13   7  -1   13.74    2.84
 -13  -7   1   13.04    1.69
 -13   7   1   15.16    2.72
 -14   0  -1    1.59    2.35
 -14   0   1    5.13    2.06
 -14  -2   1    6.32    1.50
 -14   2  -1    2.39    2.22
 -14  -2   1    4.55    2.95
 -14   2   1    4.10    1.97
 -14  -2  -1    2.16    1.96
 -14   4  -1    6.71    2.60
 -14  -4   1    5.69    1.71
 -14   4   1    4.85    2.08
 -14  -4  -1    5.57    1.83
 -14   6  -1    2.54    2.57
 -14  -6   1    0.93    1.55
 -14   6   1    2.83    2.34
 -14  -6  -1    0.20    1.45
 -15   1  -1    4.10    2.38
 -15  -1   1    8.48    2.11
 -15  -1  -1    7.30    2.20
 -15   1   1    8.40    2.35
 -15   3  -1   -0.45    2.25
 -15  -3   1    3.13    1.87
 -15  -3  -1    0.93    1.91
 -15   3   1    1.37    2.10
 -15   5  -1   -0.61    2.57
 -15  -5   1   -1.13    1.87
 -15   5   1   -1.80    2.48
 -15  -5  -1   -3.04    1.59
 -16   0   1   -0.08    2.00
 -16   0  -1   -0.83    2.09
 -16   2  -1   -1.58    2.25
 -16  -2   1   -0.89    1.80
 -16  -2  -1   -3.17    1.91
 -16   2   1   -0.32    2.26
   0   4  -2  817.15   22.82
   0  -4   2  816.00   22.85
   0   4   2  753.67   22.88
   0   4   2  843.21   22.78
   0  -6   2  138.38    4.20
   0   6   2  130.66    4.13
   0   6  -2  135.81    4.14
   0   8  -2   30.07    1.50
   0  -8   2   33.30    1.95
   0   8   2   31.38    1.41
   0  10  -2   31.49    1.66
   0 -10   2   30.74    2.38
   0  12  -2   35.08    1.87
   0 -12   2   28.03    3.08
   0  14  -2   12.79    1.82
  -1  -3   2   25.62    1.05
   1   3   2   28.50    0.94
  -1   3  -2   27.05    1.09
   1  -3   2   27.28    1.11
  -1  -5   2  196.05    5.55
  -1   5  -2  185.29    5.54
   1   5  -2  189.44    5.48
   1  -5   2  188.00    5.61
  -1   5   2  179.43    5.76
  -1   7  -2  109.95    3.59
  -1  -7   2  113.75    3.68
   1  -7   2  114.78    3.81
  -1   7   2  108.46    3.70
   1   7  -2  120.74    3.63
  -1  -9   2   35.15    2.10
  -1   9  -2   32.61    1.65
   1   9  -2   34.51    1.51
   1  -9   2   33.73    2.18
  -1 -11   2    3.40    1.54
  -1  11  -2    3.07    0.93
   1  11  -2    3.03    0.82
   1 -11   2    3.23    1.67
  -1  11   2    3.21    0.83
  -1 -13   2   -0.91    1.91
  -1  13  -2    2.54    1.12
   1 -13   2    0.60    2.07
   1  13  -2    3.28    1.02
   2   0  -2  225.24    6.55
  -2   0   2  230.79    6.57
  -2   0  -2  222.31    6.52
   2   0   2  231.28    6.52
  -2  -2   2   48.49    1.61
  -2   2  -2   49.84    1.68
   2   2   2   51.06    1.50
   2  -2   2   50.17    1.66
   2   2  -2   48.41    1.59
  -2  -2  -2   47.59    1.50
  -2   4  -2  120.76    3.77
  -2  -4   2  124.27    3.68
  -2   4   2  119.81    4.02
   2   4  -2  123.98    3.64
   2  -4   2  124.61    3.79
  -2  -6   2   41.67    1.69
  -2   6  -2   42.58    1.77
   2   6  -2   40.03    1.53
  -2   6   2   48.09    2.27
   2  -6   2   42.98    1.91
  -2   8  -2    4.38    0.80
   2  -8   2    5.16    1.23
   2   8  -2    3.36    0.60
  -2   8   2    6.73    1.10
  -2 -10   2    8.20    1.34
  -2  10  -2    8.84    1.44
   2  10  -2    8.89    1.11
   2 -10   2    7.66    1.60
  -2  10   2    9.15    1.49
  -2 -12   2    3.66    1.74
  -2  12  -2    4.68    1.10
   2  12  -2    6.60    0.93
  -2  12   2    4.17    1.06
   2 -12   2    2.92    2.07
  -3   1  -2   62.41    2.05
  -3  -1   2   63.75    2.02
   3   1   2   62.26    1.93
  -3  -1  -2   62.51    1.93
   3   1  -2   61.85    2.00
   3  -1   2   62.09    2.01
  -3   1   2   59.74    2.12
  -3  -3   2  217.58    6.05
  -3   3  -2  209.91    6.17
  -3   3   2  193.79    6.30
   3   3  -2  210.56    6.03
   3  -3   2  207.74    6.16
  -3  -5   2   23.96    1.12
  -3   5  -2   23.82    1.39
   3  -5   2   24.13    1.41
   3   5  -2   22.55    1.02
  -3   5   2   23.35    1.96
  -3   7  -2   34.41    1.79
  -3  -7   2   30.08    1.54
   3   7  -2   28.94    1.33
  -3   7   2   34.97    2.35
  -3   9  -2    2.81    0.91
  -3  -9   2    3.22    0.93
  -3   9   2    3.33    1.13
   3   9  -2    2.55    0.63
   3  -9   2    3.25    1.26
  -3  11  -2    3.18    1.04
  -3 -11   2    0.42    1.34
  -3  11   2    1.40    1.12
   3  11  -2    2.77    0.77
   3 -11   2    2.32    1.83
  -3  13  -2    1.60    1.26
   3 -13   2    0.78    2.32
  -3  13   2   -1.36    1.22
  -4   0   2   89.87    2.88
   4   0   2   88.65    2.78
  -4   0  -2   89.97    2.85
  -4  -2   2  315.71    8.61
   4   2   2  283.48    8.51
  -4  -2  -2  295.00    8.50
   4  -2   2  297.07    8.67
  -4   4  -2  233.67    7.04
  -4  -4   2  236.07    6.79
   4   4  -2  234.69    6.77
   4  -4   2  228.19    6.98
  -4   6  -2   41.91    2.12
  -4  -6   2   40.91    1.71
   4   6  -2   37.88    1.56
  -4   6   2   47.61    2.75
   4  -6   2   45.54    2.43
  -4  -8   2    4.57    0.83
  -4   8  -2    6.27    1.15
   4  -8   2    5.13    1.22
  -4   8   2    6.82    1.44
  -4  10  -2   20.84    1.91
  -4 -10   2   17.95    1.96
   4 -10   2   23.43    2.62
   4  10  -2   19.98    1.34
  -4  10   2   23.11    2.39
  -4  12  -2   18.97    2.09
   4 -12   2   17.58    2.55
  -4  12   2   16.90    2.31
   5   1   2  640.89   18.86
  -5  -1   2  705.90   18.97
  -5   1  -2  636.07   19.01
   5  -1   2  675.41   18.95
  -5  -1  -2  662.62   18.91
  -5  -3   2  113.42    3.36
  -5   3  -2  104.95    3.67
   5   3   2  103.37    3.28
   5  -3   2  111.70    3.55
  -5   3   2  102.81    3.81
  -5  -5   2  253.11    7.13
  -5   5  -2  237.39    7.51
   5   5  -2  247.26    7.11
   5  -5   2  230.09    7.65
  -5   5   2  248.52    7.89
  -5  -7   2  124.62    3.82
  -5   7  -2  114.45    4.26
   5   7  -2  116.91    3.73
   5  -7   2  119.92    4.29
  -5   7   2  126.37    4.83
  -5   9  -2   42.98    2.57
  -5  -9   2   43.51    2.02
   5  -9   2   40.42    2.79
  -5   9   2   43.44    3.04
   5   9  -2   46.21    1.82
  -5  11  -2    0.93    1.59
   5 -11   2    0.64    1.86
  -5  11   2    0.84    1.56
  -5  13  -2    2.86    1.45
  -5  13   2    0.10    1.61
   6   0   2   20.58    1.21
  -6   0  -2   21.00    1.63
  -6  -2   2  354.46   10.08
  -6   2  -2  335.85   10.33
   6   2   2  359.80   10.03
  -6  -2  -2  344.64   10.04
   6  -2   2  339.62   10.15
  -6   2   2  339.73   10.35
  -6  -4   2  251.30    7.11
  -6   4  -2  232.16    7.57
  -6   4   2  238.55    7.74
  -6   6  -2   24.57    2.38
  -6  -6   2   23.56    1.40
   6  -6   2   23.93    2.03
  -6   6   2   22.86    2.83
  -6  -8   2   18.73    1.37
  -6   8  -2   19.97    2.24
  -6   8   2   18.08    2.80
   6  -8   2   18.82    2.28
   6 -10   2   14.79    2.09
  -6  10   2   13.64    2.06
  -6  12  -2   12.46    1.78
  -6  12   2   11.37    2.10
  -7   1  -2   97.49    3.72
   7   1   2   91.35    3.21
  -7  -1   2   97.12    3.35
   7  -1   2  101.52    3.32
  -7   1   2   92.44    3.55
  -7  -1  -2   94.25    3.50
   7   3   2  143.56    4.42
  -7   3  -2  144.36    5.12
  -7  -3   2  144.21    4.48
  -7  -3  -2  135.76    4.45
  -7   3   2  140.84    5.07
  -7  -5   2   28.55    1.58
  -7   5  -2   33.95    2.81
  -7   5   2   33.00    2.99
   7  -5   2   32.16    2.08
  -7   7  -2   23.45    2.58
  -7  -7   2   21.43    1.38
  -7   7   2   22.59    2.94
   7  -7   2   21.31    2.18
  -7   9  -2    6.41    2.17
   7  -9   2    5.83    1.91
  -7   9   2    7.04    2.09
  -7  11  -2    8.50    1.82
  -7  11   2   11.50    2.50
   8   0   2  139.22    4.50
  -8   0  -2  137.70    5.01
  -8   0   2  137.60    4.75
  -8  -2   2   12.38    1.54
   8   2   2   16.97    1.44
  -8   2  -2   15.60    2.49
  -8   2   2   13.06    2.18
  -8  -2  -2   16.19    1.98
   8  -2   2   13.31    1.57
  -8  -4   2   43.40    2.02
  -8   4  -2   46.79    3.31
  -8   4   2   46.74    3.21
   8  -4   2   46.91    2.45
  -8  -4  -2   46.37    2.04
  -8  -6   2   22.44    1.44
  -8   6  -2   23.11    2.80
  -8   6   2   22.43    2.89
  -8  -8   2    2.06    0.83
  -8   8  -2    3.50    2.13
   8  -8   2   -0.26    1.56
  -8   8   2    1.32    1.96
  -8  10  -2    2.86    1.94
  -8  10   2    1.05    2.09
  -8  12  -2    0.31    2.02
  -8  12   2   -1.52    2.25
  -9   1  -2   99.06    4.38
   9   1   2   90.70    3.36
  -9  -1   2   93.09    3.74
  -9  -1  -2   92.53    4.07
  -9   1   2   91.40    3.96
   9  -1   2   97.85    3.49
  -9  -3   2    3.81    1.13
  -9   3  -2    4.97    1.90
  -9   3   2    3.73    1.48
  -9  -3  -2    4.75    1.60
   9  -3   2    3.38    1.09
  -9  -5   2   30.13    1.71
  -9   5  -2   31.30    3.20
  -9   5   2   29.84    2.99
  -9   7  -2   39.72    5.27
  -9  -7   2   34.44    1.81
  -9   7   2   40.70    3.66
   9  -7   2   37.83    2.81
  -9  -9   2   10.62    1.50
  -9   9  -2    8.41    2.28
  -9   9   2   11.89    2.46
  -9  11  -2   -1.71    2.29
  -9  11   2   -3.86    2.28
 -10   0  -2   65.61    3.79
 -10   0   2   65.21    3.29
  10   0   2   63.68    2.75
 -10  -2   2  114.04    4.28
 -10  -2   2  125.04    4.55
 -10   2  -2  126.55    5.27
  10  -2   2  121.93    4.38
 -10   2   2  131.48    4.96
 -10  -2  -2  125.09    4.77
 -10  -4   2  125.32    4.32
 -10  -4   2  125.13    4.49
 -10   4  -2  128.53    5.50
 -10   4   2  132.98    5.23
 -10  -6   2   38.46    2.25
 -10   6  -2   37.94    6.23
 -10  -6   2   40.43    2.00
 -10  -8   2   12.27    1.48
 -10  -8   2   16.55    1.84
 -10   8  -2    9.21    2.26
 -10   8   2   11.30    2.52
 -10  10  -2    6.63    2.58
 -10  10   2    8.67    2.83
 -11   1  -2  115.34    5.13
  11   1   2  113.76    4.03
 -11  -1   2  107.84    4.39
  11  -1   2  112.31    4.07
 -11   1   2  109.36    4.58
 -11  -1  -2  107.84    4.81
 -11  -3   2    5.38    1.17
 -11   3  -2    3.65    2.15
 -11  -3   2    5.25    1.38
 -11   3   2    4.98    1.63
 -11  -3  -2    5.58    1.61
 -11  -5   2   47.53    2.37
 -11  -5   2   52.68    2.73
 -11   5  -2   50.86    4.20
 -11   5   2   56.34    3.74
 -11  -5  -2   50.65    3.09
  11  -5   2   55.07    3.12
 -11   7  -2   20.51    2.70
 -11  -7   2   28.33    2.13
 -11  -7   2   24.83    1.69
 -11   7   2   26.12    3.54
 -11   9  -2    5.90    2.74
 -11   9   2    4.35    2.43
 -12   0   2   50.70    3.34
 -12   0  -2   54.76    3.95
  12   0   2   58.21    2.82
 -12  -2   2   29.87    2.65
 -12  -2   2   28.94    2.29
 -12   2  -2   29.82    3.70
 -12   2   2   24.52    3.56
 -12  -2  -2   28.66    3.16
  12  -2   2   30.67    2.29
 -12  -4   2   18.61    2.34
 -12  -4   2   19.27    2.05
 -12   4  -2   17.09    2.55
 -12   4   2   18.59    3.04
  12  -4   2   23.82    2.52
 -12  -4  -2   17.35    2.48
 -12  -6   2   10.88    1.63
 -12   6  -2    8.63    2.56
 -12  -6   2   10.72    1.50
 -12   6   2   10.08    2.38
 -12   8  -2    6.19    2.82
 -12  -8   2    6.77    1.02
 -12  -8   2    7.36    1.40
 -12   8   2    7.42    2.57
 -13  -1   2   14.12    2.18
 -13  -1   2   18.25    2.63
 -13   1  -2   18.49    2.69
 -13  -1  -2   15.64    2.31
 -13   1   2   16.95    2.81
 -13  -3   2   41.98    2.97
 -13  -3   2   40.82    2.67
 -13   3  -2   43.60    4.28
 -13  -3  -2   38.55    3.29
  13  -3   2   49.62    3.24
 -13   3   2   44.73    3.57
 -13  -5   2    6.36    1.20
 -13   5  -2    4.73    2.56
 -13  -5   2    4.33    1.48
 -13  -5  -2    3.44    1.50
 -13   5   2    4.52    2.03
 -13  -7   2    3.13    1.40
 -13   7  -2   -0.29    2.54
 -13   7   2    1.91    2.26
 -14   0  -2   -0.79    2.14
 -14   0   2    1.14    1.64
 -14  -2   2   27.11    2.49
 -14   2  -2   23.76    3.13
 -14  -2   2   22.80    2.79
 -14  -2  -2   19.35    2.48
 -14   2   2   20.26    3.16
 -14   4  -2   12.65    3.12
 -14   4   2   21.68    3.52
 -14  -4  -2   15.12    2.10
 -14   6  -2   -0.61    2.43
 -14  -6   2    1.30    1.45
 -14   6   2    1.73    2.32
 -15  -1   2   36.74    3.30
 -15   1  -2   32.47    4.26
 -15  -1  -2   29.47    3.93
 -15   1   2   39.27    3.56
 -15   3  -2   12.93    3.11
 -15   3   2   13.58    2.52
 -15  -3  -2   11.65    2.29
 -15  -5   2   16.07    2.51
 -15   5  -2    8.86    4.87
 -15   5   2   16.60    5.01
 -15  -5  -2   10.44    1.83
 -16   0   2    2.47    1.85
 -16   0  -2   -3.51    2.22
 -16   2  -2   11.62    2.78
 -16   2   2   11.97    2.38
 -16  -2  -2   12.50    2.45
   0   0   3    0.49    0.33
   0   0  -3    0.19    0.31
   0   2  -3  136.72    4.15
   0   2   3  142.51    4.11
   0  -2  -3  140.71    4.15
   0  -2   3  141.75    4.18
   0  -4   3   48.65    1.77
   0   4   3   48.24    1.61
   0   6   3   72.47    2.30
   0  -6   3   73.77    2.56
   0   6  -3   70.46    2.43
   0   6   3   68.37    2.72
   0  -8   3   23.72    1.72
   0   8   3   22.38    1.38
   0   8   3   22.75    1.18
   0   8  -3   22.84    1.40
   0  10  -3   15.83    1.41
   0 -10   3   13.58    2.12
   0 -12   3   12.00    2.16
   0  12  -3   17.56    1.67
  -1   1  -3    2.78    0.41
  -1  -1   3    2.74    0.42
   1  -1  -3    1.40    0.37
   1   1   3    2.15    0.33
   1   1  -3    2.10    0.38
   1  -1   3    3.08    0.41
  -1  -1  -3    2.28    0.36
  -1   1   3    1.77    0.38
  -1   3  -3   42.15    1.56
   1   3   3   41.89    1.39
  -1  -3   3   42.26    1.55
   1   3  -3   42.64    1.51
  -1   3   3   44.15    1.53
   1  -3   3   44.04    1.59
  -1  -3  -3   41.89    1.46
  -1  -5   3   37.85    1.58
  -1   5  -3   38.64    1.56
   1   5   3   38.35    1.28
   1   5  -3   36.22    1.46
   1  -5   3   40.49    1.64
  -1   5   3   38.91    1.54
  -1   5   3   34.17    1.88
  -1   7  -3   58.42    2.21
  -1  -7   3   59.84    2.34
  -1   7   3   56.28    2.17
   1   7  -3   57.76    2.10
  -1   7   3   59.35    2.62
  -1   9  -3   25.65    1.57
  -1  -9   3   27.89    1.91
   1  -9   3   27.12    2.07
   1   9  -3   28.61    1.46
  -1   9   3   24.16    1.50
  -1   9   3   25.69    2.15
  -1  11  -3   13.96    1.63
  -1 -11   3    7.92    1.58
   1 -11   3    8.05    1.77
  -1  11   3    9.98    1.30
   1  11  -3   11.41    1.34
  -1 -13   3    6.34    2.20
  -1  13  -3   12.02    1.76
   1  13  -3   14.15    1.77
  -2   0   3    0.59    0.37
   2   0  -3    0.36    0.36
  -2   0  -3    0.44    0.35
   2   2   3  357.04   10.02
  -2  -2   3  355.59   10.11
  -2   2  -3  348.80   10.13
   2   2  -3  343.11   10.09
  -2  -2  -3  350.02   10.02
  -2   2   3  360.11   10.15
  -2  -4   3  299.16    8.55
   2   4   3  295.07    8.37
  -2   4  -3  288.90    8.59
  -2   4   3  298.49    8.62
   2   4  -3  292.44    8.58
   2  -4   3  295.65    8.62
  -2  -6   3   41.96    1.79
  -2   6  -3   40.87    1.82
   2  -6   3   42.14    1.94
   2   6  -3   40.02    1.60
  -2   6   3   40.66    2.44
  -2   8  -3   62.79    2.47
  -2  -8   3   65.30    2.55
   2  -8   3   61.30    2.71
   2   8  -3   62.61    2.27
  -2   8   3   68.58    2.90
  -2  10  -3   49.12    2.24
  -2 -10   3   43.73    2.58
   2  10  -3   50.26    2.01
  -2  10   3   50.77    2.41
   2 -10   3   46.26    2.84
  -2 -12   3   12.10    1.96
  -2  12  -3   22.66    3.66
  -2  12   3   14.45    1.73
   2 -12   3   15.79    2.40
   3   1   3  567.12   16.05
  -3  -1   3  562.86   16.12
   3   1  -3  561.42   16.12
  -3  -1  -3  573.97   16.05
  -3   3  -3    8.01    0.98
   3   3   3    8.33    0.54
  -3  -3   3    6.91    0.82
   3   3  -3    7.93    0.75
  -3  -3  -3    7.75    0.59
   3  -3   3    9.41    0.89
  -3   3   3    9.22    1.03
  -3   5  -3  176.77    5.45
  -3  -5   3  181.97    5.36
   3  -5   3  180.95    5.49
   3   5  -3  177.83    5.28
  -3   5   3  171.72    5.76
  -3   7  -3  118.24    4.03
  -3  -7   3  128.34    3.97
   3   7  -3  124.68    3.80
   3  -7   3  123.08    4.17
  -3   7   3  113.38    4.58
  -3  -9   3   30.29    1.89
  -3   9  -3   30.28    1.89
  -3   9   3   29.59    2.36
   3   9  -3   31.63    1.54
   3  -9   3   29.80    2.28
  -3  11  -3   21.21    1.89
  -3 -11   3   14.25    2.31
  -3  11   3   18.42    2.17
   3  11  -3   26.33    1.60
  -3  13  -3   14.20    2.20
   3  13  -3   17.99    1.84
  -3  13   3   21.89    1.93
  -4   0  -3   12.22    0.94
   4   0   3   13.42    0.86
  -4   0   3   10.88    1.01
   4   2   3   47.80    1.62
  -4  -2   3   48.41    1.81
  -4   2  -3   48.91    1.90
  -4   2   3   48.64    1.97
   4  -2   3   48.90    1.82
  -4  -2  -3   47.99    1.63
   4   2  -3   49.57    2.25
  -4  -4   3   73.35    2.52
  -4   4  -3   76.20    2.74
  -4   4   3   71.83    2.95
   4   4  -3   75.29    2.48
   4  -4   3   77.24    2.68
  -4  -6   3   39.82    1.82
  -4   6  -3   40.26    2.06
   4   6  -3   40.08    1.64
   4  -6   3   41.38    2.10
  -4   6   3   40.69    2.78
  -4  -8   3   17.06    1.49
  -4   8  -3   18.11    1.71
   4   8  -3   16.10    1.17
  -4   8   3   16.12    2.43
   4  -8   3   16.72    1.83
  -4 -10   3   17.82    1.92
  -4  10  -3   23.28    2.00
  -4  10   3   19.83    2.50
   4  10  -3   24.43    1.48
   4 -10   3   18.08    2.60
  -4  12  -3   21.72    2.20
  -4 -12   3   13.69    1.89
  -4  12   3   15.40    2.45
   5   1   3    6.31    0.75
  -5  -1   3    6.51    1.01
  -5   1  -3    7.67    0.94
  -5   1   3    6.95    0.92
  -5  -1  -3    6.35    0.87
   5  -1   3    7.52    0.89
  -5   3  -3   18.29    1.49
   5   3   3   17.29    0.91
  -5  -3   3   17.49    1.23
  -5  -3  -3   18.64    0.92
   5  -3   3   20.10    1.29
  -5   3   3   17.14    1.75
  -5   5  -3   33.97    2.09
  -5  -5   3   34.08    1.67
  -5   5   3   34.81    2.57
   5  -5   3   38.79    1.95
   5   5  -3   35.64    1.57
  -5   7  -3   24.10    1.97
  -5  -7   3   20.30    1.52
  -5   7   3   21.33    2.61
   5  -7   3   21.94    1.85
   5   7  -3   20.62    1.34
  -5   9  -3   34.79    2.31
   5   9  -3   38.04    1.79
   5  -9   3   34.90    2.64
  -5   9   3   40.39    3.12
  -5 -11   3    0.08    1.32
  -5  11  -3    3.66    1.31
  -5  11   3    3.17    1.75
   5  11  -3    6.00    1.00
  -6   0  -3    9.90    1.41
   6   0   3    9.80    0.98
  -6   0   3    8.78    1.26
  -6  -2   3    7.34    1.19
   6   2   3    6.92    0.84
  -6   2  -3    8.65    1.16
  -6  -2  -3    8.37    0.98
   6  -2   3    8.43    1.11
  -6  -4   3   33.79    1.65
  -6   4  -3   31.73    2.21
   6  -4   3   31.65    1.80
  -6   4   3   30.36    2.34
  -6   6  -3   39.62    2.48
  -6  -6   3   37.24    1.85
  -6   6   3   40.91    3.02
   6  -6   3   38.51    2.21
  -6  -8   3    9.66    1.30
  -6   8  -3   13.27    2.13
  -6   8   3   12.75    2.02
   6  -8   3   13.49    2.09
  -6 -10   3   10.24    1.28
  -6  10  -3    8.54    1.56
   6 -10   3   10.31    1.98
  -6  10   3    9.89    2.04
  -6  12  -3   11.05    1.78
  -6  12   3    9.01    2.18
  -7  -1   3  165.91    5.10
  -7   1  -3  162.02    5.29
   7   1   3  154.18    4.86
  -7  -1  -3  149.86    5.25
   7  -1   3  159.32    4.96
  -7   1   3  156.89    5.45
  -7   3  -3   13.42    2.15
  -7  -3   3   10.94    1.33
   7   3   3    9.91    1.17
  -7  -3  -3   12.09    1.12
   7  -3   3   13.45    1.40
  -7   3   3   11.37    1.46
  -7   5  -3   75.81    3.47
  -7  -5   3   76.61    2.76
  -7   5   3   73.65    3.65
   7  -5   3   75.49    3.06
  -7   7  -3   72.87    3.47
   7  -7   3   73.14    3.30
  -7   7   3   79.02    4.01
  -7  -9   3   14.36    1.66
  -7   9  -3   19.20    2.61
   7  -9   3   20.77    2.58
  -7   9   3   19.92    3.27
  -7  11  -3    8.74    1.91
  -7  11   3    8.19    2.30
  -8   0   3    2.72    1.06
  -8   0  -3    1.84    1.23
   8   0   3    2.13    0.77
  -8   2  -3  119.68    4.59
  -8  -2   3  122.49    4.08
   8   2   3  118.60    3.86
   8  -2   3  116.19    4.03
  -8  -2  -3  113.97    4.00
  -8   2   3  117.46    4.38
  -8  -4   3  119.69    3.94
  -8   4  -3  118.97    4.75
  -8   4   3  117.04    4.62
  -8  -4  -3  114.09    3.64
   8  -4   3  115.49    4.13
  -8  -6   3   17.33    1.51
  -8   6  -3   18.71    2.53
  -8   6   3   16.61    2.04
  -8  -8   3   31.37    1.89
  -8   8  -3   30.02    3.01
  -8   8   3   34.76    3.55
   8  -8   3   31.93    2.78
  -8  10  -3   24.94    3.15
  -8 -10   3   16.48    1.88
  -8  10   3   25.22    3.95
  -9  -1   3    3.84    1.25
   9   1   3    4.15    0.91
  -9  -1   3    1.55    1.15
  -9   1  -3    2.44    1.51
   9  -1   3    3.93    1.04
  -9  -1  -3    3.88    1.40
  -9   1   3    3.65    1.28
  -9  -3   3   10.53    1.26
   9   3   3   11.21    1.36
  -9   3  -3   15.89    2.19
  -9   3   3    9.96    1.60
   9  -3   3   12.22    1.66
  -9  -3  -3    8.67    1.23
  -9   5  -3   11.90    2.06
  -9  -5   3   12.00    1.57
  -9   5   3   12.49    1.81
  -9   7  -3   23.49    3.15
  -9  -7   3   25.73    1.80
   9  -7   3   27.38    2.59
  -9   7   3   31.92    4.94
  -9  -9   3    7.44    1.17
  -9   9  -3   11.79    2.35
  -9   9   3    9.43    2.47
  -9  11  -3    0.37    2.19
  -9  11   3   -1.22    2.60
 -10   0  -3    5.59    1.64
  10   0   3    6.05    1.04
 -10   0   3    5.22    1.26
 -10   0   3    6.49    1.28
 -10  -2   3   15.66    1.91
 -10  -2   3   14.57    1.89
 -10   2  -3   17.68    2.90
  10   2   3   17.50    1.63
 -10   2   3   18.25    2.34
  10  -2   3   16.66    1.79
 -10  -2  -3   17.27    2.21
 -10  -4   3   13.03    1.69
 -10   4  -3   12.68    2.26
 -10   4   3   11.68    1.88
 -10   6  -3   22.05    3.44
 -10  -6   3   20.65    1.75
 -10   6   3   20.31    3.00
  10  -6   3   19.08    2.37
 -10   8  -3    1.37    2.12
 -10  -8   3    3.74    1.07
 -10   8   3    2.26    2.18
 -10 -10   3   -0.97    1.07
 -10  10  -3    0.39    2.17
 -10  10   3    1.93    2.48
  11   1   3    1.34    1.02
 -11   1  -3    1.10    1.89
 -11  -1   3    0.55    1.29
 -11  -1   3    0.44    1.10
  11  -1   3    1.74    1.12
 -11  -1  -3    0.84    1.64
 -11   1   3    1.17    1.40
 -11   3  -3   12.26    2.25
 -11  -3   3   13.01    1.95
 -11  -3   3   12.79    1.98
 -11   3   3   15.10    2.57
 -11  -3  -3   10.98    1.58
  11  -3   3   13.14    1.92
 -11   5  -3    5.23    2.10
 -11  -5   3    5.68    1.16
 -11  -5   3    4.49    1.21
 -11   5   3    5.32    1.73
  11  -5   3    5.92    1.56
 -11  -7   3    7.09    1.24
 -11  -7   3    7.69    1.15
 -11   7  -3    5.42    2.21
 -11   7   3    6.95    2.28
 -11  -9   3    6.13    1.15
 -11  -9   3    8.56    1.33
 -11   9  -3    3.28    2.36
 -11   9   3    6.82    2.62
 -12   0   3    6.73    1.72
 -12   0  -3    5.31    2.10
 -12   0   3    6.32    1.80
  12   0   3    9.03    1.44
 -12   2  -3   44.39    4.07
 -12  -2   3   44.55    2.72
 -12  -2   3   41.64    2.78
 -12   2   3   42.37    3.19
 -12  -2  -3   40.48    3.30
 -12  -4   3   48.78    2.65
 -12  -4   3   47.46    2.84
 -12   4  -3   50.83    4.39
 -12   4   3   49.32    3.55
 -12  -4  -3   43.00    2.53
  12  -4   3   56.27    3.91
 -12  -6   3   10.62    1.55
 -12   6  -3    7.39    2.61
 -12  -6   3   11.59    1.81
 -12   6   3    8.63    2.21
 -12   8  -3    5.50    2.77
 -12  -8   3    8.64    1.41
 -12  -8   3   11.09    1.68
 -12   8   3    8.09    2.49
 -13  -1   3   65.58    3.31
 -13   1  -3   70.72    5.94
 -13  -1   3   65.14    3.53
 -13   1   3   67.32    3.76
 -13  -1  -3   60.82    4.12
  13  -1   3   64.69    3.20
 -13  -3   3    5.58    1.76
 -13   3  -3    3.81    2.67
 -13  -3   3    7.07    1.39
 -13   3   3    5.32    1.93
 -13  -3  -3    3.97    1.78
 -13   5  -3   17.31    3.09
 -13  -5   3   15.54    2.82
 -13  -5   3   23.02    2.11
 -13  -5  -3   16.05    1.81
 -13   5   3   24.69    3.36
 -13  -7   3   24.27    2.33
 -13   7  -3   16.13    3.15
 -13   7   3   18.58    2.61
 -14   0  -3    1.73    2.29
 -14   0   3    5.21    1.86
 -14   2  -3   -0.92    2.42
 -14  -2   3    3.30    1.56
 -14   2   3    2.20    1.80
 -14  -2  -3   -0.95    2.02
 -14   4  -3    5.76    3.08
 -14  -4   3    9.76    1.98
 -14   4   3    9.06    2.27
 -14   6  -3    0.04    3.10
 -14  -6   3    5.73    1.51
 -14   6   3    0.74    4.12
 -15  -1   3    2.98    1.74
 -15   1  -3   -1.08    2.70
 -15  -1  -3    0.83    2.37
 -15   1   3    3.44    1.75
 -15   3  -3   -0.51    2.84
 -15  -3   3    2.52    1.65
 -15  -3  -3   -0.27    1.98
 -15   3   3    2.80    1.84
   0  -2  -4   17.21    0.97
   0   2  -4   17.18    0.97
   0  -2   4   17.76    1.01
   0   2   4   16.29    0.90
   0  -4   4   15.67    1.12
   0   4   4   14.08    0.92
   0   4  -4   15.02    1.03
   0   6  -4  345.33   10.26
   0   6   4  343.77   10.44
   0   6   4  364.80   10.14
   0  -6   4  358.81   10.38
   0   8   4    4.02    0.58
   0   8   4    4.25    0.99
   0   8  -4    3.12    0.70
   0  -8   4    4.64    1.02
   0  10  -4   20.63    1.57
   0 -10   4   18.60    2.28
   0 -12   4    3.57    1.88
  -1  -1   4   62.66    2.10
   1  -1  -4   59.76    2.09
   1   1   4   62.89    2.03
   1   1  -4   58.28    2.16
  -1  -1  -4   60.36    2.03
   1  -1   4   65.10    2.10
  -1   1   4   62.38    2.07
  -1  -3   4  470.98   13.75
   1   3   4  484.14   13.64
  -1   3  -4  472.45   13.75
  -1   3   4  493.00   13.71
  -1  -3  -4  488.50   13.69
   1   3  -4  463.12   13.72
   1  -3   4  486.38   13.78
   1   5   4   25.64    1.08
  -1   5  -4   25.94    1.43
  -1  -5   4   27.00    1.46
  -1   5   4   26.22    1.30
   1   5  -4   25.63    1.32
  -1   7  -4    9.32    1.27
   1   7   4    8.52    1.41
  -1  -7   4    6.86    1.05
   1  -7   4    8.63    1.43
  -1   7   4    5.82    0.76
   1   7  -4    5.53    0.79
  -1   9  -4   44.81    2.11
  -1  -9   4   44.79    2.35
  -1   9   4   41.99    2.28
   1  -9   4   46.93    2.52
  -1   9   4   42.64    1.81
   1   9  -4   43.83    1.93
  -1 -11   4    0.80    1.53
  -1  11  -4    2.66    0.99
   1 -11   4    1.29    1.92
   1  11  -4    3.21    0.93
  -1  13  -4   19.44    2.05
   1  13  -4   21.12    2.02
  -2   0   4   38.82    1.52
  -2   0  -4   37.97    1.46
   2   0   4   39.94    1.45
   2   0  -4   38.69    1.52
  -2   2  -4  145.36    4.45
  -2  -2   4  146.81    4.45
   2   2   4  148.92    4.34
   2   2  -4  145.46    4.43
   2  -2   4  147.82    4.46
  -2   2   4  145.81    4.45
  -2  -2  -4  145.62    4.35
  -2  -4   4   47.83    1.85
  -2   4  -4   45.69    1.89
   2   4   4   46.48    1.57
  -2   4   4   46.62    1.85
  -2  -4  -4   46.92    1.69
   2   4  -4   46.69    1.77
   2  -4   4   47.20    1.91
  -2   6  -4   19.12    1.45
  -2  -6   4   21.58    1.65
   2   6  -4   17.31    1.22
  -2   6   4   18.46    1.41
  -2   6   4   17.01    2.00
   2  -6   4   20.32    1.58
  -2   8  -4   17.33    1.54
  -2  -8   4   17.54    1.63
   2   8  -4   16.95    1.28
   2  -8   4   18.09    1.80
  -2   8   4   23.51    2.23
  -2   8   4   15.90    1.42
  -2  10  -4    4.02    1.00
  -2 -10   4    1.37    1.26
   2 -10   4    2.61    1.46
   2  10  -4    4.50    0.87
  -2  10   4    2.73    0.93
  -2  10   4    4.06    1.24
  -2  12  -4    2.54    1.17
   2  12  -4    4.43    1.10
  -2  12   4    5.06    1.08
  -2  12   4    0.56    1.11
  -3   1  -4   91.13    2.97
   3   1   4   94.31    2.88
  -3  -1   4   93.83    2.99
   3   1  -4   92.86    2.97
  -3  -1  -4   87.99    2.88
   3  -1   4   92.80    2.94
  -3   1   4   93.34    3.01
  -3  -3   4   43.44    1.77
   3   3   4   46.35    1.54
  -3   3  -4   45.16    1.84
  -3  -3  -4   44.61    1.58
   3   3  -4   44.63    1.71
  -3   3   4   43.82    1.88
  -3   5  -4   71.63    2.64
  -3  -5   4   71.29    2.56
   3  -5   4   71.64    2.65
  -3   5   4   67.51    3.03
  -3   5   4   69.42    2.65
   3   5  -4   68.78    2.43
  -3  -7   4    3.90    0.88
  -3   7  -4    3.62    0.86
  -3   7   4    3.25    1.37
   3  -7   4    3.58    0.98
  -3   7   4    3.02    0.90
   3   7  -4    4.00    0.69
  -3   9  -4    3.35    1.00
  -3  -9   4    2.55    1.08
  -3   9   4    3.33    1.48
  -3   9   4    3.33    1.01
   3   9  -4    3.21    0.81
   3  -9   4    3.25    1.36
  -3  11  -4    3.36    1.13
  -3 -11   4   -2.24    1.38
  -3  11   4    0.49    1.36
  -3  11   4    2.61    1.05
   3 -11   4    0.56    1.78
   3  11  -4    2.55    0.96
  -3  13   4   20.35    1.64
   4   0   4  506.95   14.56
  -4   0   4  512.54   14.66
  -4   0  -4  508.49   14.71
  -4  -2   4   19.34    1.23
   4   2   4   19.72    0.97
  -4   2  -4   19.91    1.35
   4  -2   4   20.30    1.21
  -4  -2  -4   18.68    1.03
  -4   2   4   17.95    1.37
   4   2  -4   19.50    1.20
  -4  -4   4    9.28    1.18
  -4   4  -4   12.79    1.42
   4   4   4   11.20    0.75
  -4   4   4    8.76    1.42
   4   4  -4    9.63    1.04
  -4  -4  -4    9.97    0.82
   4  -4   4   11.34    1.30
  -4  -6   4  138.71    4.29
  -4   6  -4  133.79    4.41
   4  -6   4  135.54    4.45
   4   6  -4  132.50    4.12
  -4   6   4  127.61    4.81
  -4   6   4  120.78    4.44
  -4  -8   4    4.16    0.99
  -4   8  -4    4.85    1.03
   4  -8   4    3.91    1.19
  -4   8   4    3.04    1.07
   4   8  -4    4.42    0.78
  -4   8   4    4.31    1.56
  -4  10  -4   15.65    1.88
  -4 -10   4   13.14    1.53
  -4  10   4   15.67    1.89
   4  10  -4   16.51    1.49
   4 -10   4   12.92    1.83
  -4  10   4   15.63    1.97
  -4  12  -4    4.56    1.39
  -4  12   4    1.66    1.69
   4  12  -4    6.66    1.19
  -5   1  -4   19.33    1.38
  -5  -1   4   18.61    1.32
   5   1   4   19.69    1.10
   5  -1   4   19.35    1.23
  -5  -1  -4   17.72    1.74
  -5   1   4   17.80    1.46
  -5   3  -4  732.65   21.36
  -5  -3   4  772.25   21.31
   5   3   4  712.06   21.07
  -5  -3  -4  741.69   21.07
   5   3  -4  750.38   21.23
   5  -3   4  756.87   21.32
  -5   5  -4    5.38    1.13
  -5  -5   4    4.62    0.92
   5   5  -4    4.28    0.77
  -5   5   4    5.88    1.23
  -5   5   4    7.52    1.31
   5  -5   4    5.13    0.93
  -5   7  -4   17.65    1.83
  -5  -7   4   19.00    1.58
   5   7  -4   16.22    1.35
  -5   7   4   17.82    2.58
   5  -7   4   14.72    1.78
  -5  -9   4   59.40    2.71
  -5   9  -4   65.68    3.68
  -5   9   4   59.46    3.64
   5   9  -4   62.86    2.46
   5  -9   4   56.66    3.18
  -5  11  -4    1.55    1.27
   5  11  -4    2.04    1.08
  -5  11   4    4.03    1.51
  -5  11   4   -0.35    1.79
  -6   0  -4  450.85   13.30
   6   0   4  453.20   13.24
  -6   0   4  473.26   13.43
  -6   2  -4   31.04    1.89
  -6  -2   4   31.60    1.73
   6   2   4   28.94    1.39
  -6  -2  -4   31.92    1.48
  -6   2   4   26.93    1.93
   6  -2   4   32.25    1.65
  -6   4  -4    4.90    1.09
   6   4   4    5.75    0.85
  -6  -4   4    3.90    0.88
  -6  -4  -4    4.49    0.61
  -6   4   4    4.11    1.26
   6  -4   4    5.39    1.01
  -6   4   4    5.60    1.42
  -6  -6   4  139.66    4.46
   6   6  -4  137.86    4.35
  -6   6   4  130.50    5.11
  -6   8  -4    7.39    2.07
  -6  -8   4    5.83    1.12
   6   8  -4    5.29    0.91
  -6   8   4    6.90    1.78
   6  -8   4    7.04    1.44
  -6 -10   4    7.52    1.37
  -6  10  -4    8.08    1.57
   6  10  -4   12.94    1.63
  -6  10   4    9.81    2.18
  -6  12  -4    4.29    1.54
  -6  12   4    1.28    2.14
  -7   1  -4   90.27    3.46
  -7  -1   4   93.81    3.42
   7   1   4   92.23    3.11
   7  -1   4   93.29    3.23
  -7  -1  -4   94.53    3.26
  -7   1   4   90.34    3.48
  -7  -3   4   30.90    1.87
   7   3   4   32.19    1.49
  -7   3  -4   30.22    2.34
  -7   3   4   29.62    2.33
  -7   3   4   27.45    2.16
   7  -3   4   32.04    1.82
  -7  -3  -4   30.36    1.51
  -7   5  -4   50.25    2.79
  -7  -5   4   52.60    2.24
  -7   5   4   47.78    2.89
  -7  -7   4    2.70    1.01
  -7   7  -4    2.81    1.34
   7  -7   4    3.33    1.64
  -7   7   4    3.20    1.69
  -7   9  -4    5.88    1.60
  -7  -9   4    5.52    1.21
  -7  11  -4    1.92    1.66
  -7  11   4   -1.13    2.17
  -8   0  -4    5.56    1.26
  -8   0   4    3.14    1.13
   8   0   4    3.91    0.82
  -8  -2   4   77.16    2.96
   8   2   4   68.90    2.64
  -8   2  -4   74.36    3.35
  -8   2   4   72.29    3.27
  -8  -2  -4   75.77    2.80
   8  -2   4   76.23    2.88
  -8   2   4   75.98    3.44
  -8  -4   4   30.18    1.88
   8   4   4   30.36    1.56
  -8   4  -4   28.21    2.55
  -8  -4  -4   29.03    1.41
  -8   4   4   30.16    2.44
   8  -4   4   29.62    1.93
  -8   4   4   25.90    2.28
  -8   6  -4    2.15    1.48
  -8  -6   4    2.45    0.99
  -8   6   4    3.45    1.57
  -8  -8   4    6.63    1.19
  -8   8  -4    7.56    1.64
  -8   8   4    5.38    2.14
  -8  10  -4    1.59    1.67
  -8  10   4    1.93    2.19
  -9   1  -4   10.80    1.60
   9   1   4   12.27    1.35
  -9  -1   4   10.76    1.75
  -9   1   4   10.76    1.46
   9  -1   4   11.35    1.47
  -9  -1  -4   12.46    1.78
  -9   1   4   13.14    1.98
  -9   3  -4   84.83    3.90
   9   3   4   85.99    3.06
  -9  -3   4   88.48    3.33
  -9  -3  -4   86.06    3.07
  -9   3   4   83.91    3.73
   9  -3   4   87.58    3.35
  -9   5  -4    6.93    1.84
  -9  -5   4    6.54    1.12
  -9   5   4    6.26    1.67
   9  -5   4    4.92    2.29
  -9  -7   4    5.32    1.18
  -9   7  -4    5.52    1.78
  -9   7   4    8.30    2.09
  -9  -9   4   10.15    1.40
  -9   9  -4   12.48    2.37
  -9   9   4   13.04    2.49
  10   0   4  250.75    7.75
 -10   0  -4  253.38    8.14
 -10   0   4  250.49    8.04
 -10   0   4  255.77    8.07
 -10   2  -4    2.72    1.69
 -10  -2   4    3.65    1.16
  10   2   4    3.96    0.98
  10  -2   4    2.94    1.32
 -10  -2  -4    4.61    1.18
 -10   2   4    3.15    1.43
 -10  -4   4    8.76    1.28
 -10   4  -4   10.77    2.37
  10   4   4   13.96    1.62
  10  -4   4    9.44    1.51
 -10   4   4   10.81    2.35
 -10  -4  -4   11.16    1.37
 -10   6  -4   99.67    4.85
 -10  -6   4   98.76    3.69
 -10   6   4   99.55    4.68
 -10   8  -4    1.10    1.97
 -10  -8   4    1.56    1.18
 -10   8   4   -0.22    1.91
 -10  10  -4    4.73    4.04
 -10 -10   4    3.05    1.34
 -10  10   4    6.15    2.57
 -11   1  -4    6.64    1.79
  11   1   4   10.74    1.71
 -11  -1   4    8.39    1.54
 -11  -1   4    7.27    1.55
 -11  -1  -4    8.67    1.64
 -11   1   4   10.91    1.58
 -11  -3   4  111.63    4.32
 -11  -3   4  110.61    4.19
 -11  -3  -4  111.96    4.04
 -11   3   4  107.43    4.46
  11  -3   4  109.16    4.27
 -11   3   4  119.85    4.75
 -11   5  -4    3.20    2.04
 -11  -5   4    7.97    1.29
 -11   5   4    4.85    1.91
 -11  -7   4    3.50    1.28
 -11   7  -4    1.65    2.29
 -11   7   4    2.11    2.06
 -11   9  -4   14.76    5.25
 -11   9   4   12.79    2.65
 -12   0   4   17.64    2.22
 -12   0  -4   16.44    2.25
 -12   0   4   17.68    2.46
 -12  -2   4   35.24    2.54
 -12  -2   4   33.26    2.56
  12   2   4   34.43    2.33
 -12   2  -4   27.57    3.66
 -12   2   4   31.93    2.92
 -12  -2  -4   31.68    2.66
  12  -2   4   33.63    2.51
 -12   4  -4    9.39    2.28
 -12  -4   4   13.04    1.96
 -12  -4   4   10.84    1.54
 -12   4   4   11.80    2.13
 -12  -4  -4   11.77    1.74
 -12  -6   4    9.70    1.42
 -12   6  -4    7.97    2.55
 -12  -6   4    8.49    1.45
 -12   6   4    9.42    2.08
 -12   8  -4    1.68    4.49
 -12  -8   4    5.56    1.31
 -12  -8   4    4.18    1.24
 -12   8   4    6.87    2.72
  13   1   4   35.42    2.94
 -13  -1   4   25.26    2.71
 -13   1  -4   21.88    3.47
 -13  -1  -4   23.89    3.28
  13  -1   4   28.43    2.60
 -13   1   4   25.84    2.82
 -13   3  -4    0.91    2.65
 -13  -3   4    4.77    1.49
 -13   3   4    4.27    1.85
 -13  -3  -4    2.85    1.45
 -13   5  -4    9.22    2.60
 -13  -5   4   11.41    2.04
 -13   5   4   11.37    2.26
 -13  -7   4    3.02    1.42
 -13   7  -4   -3.01    2.81
 -13   7   4    3.19    2.86
 -14   0   4   32.10    3.08
  14   0   4   34.72    4.04
 -14   0  -4   21.63    3.48
 -14  -2   4    5.14    1.71
 -14   2  -4    0.24    2.22
 -14  -2  -4    2.05    1.75
 -14   2   4    2.89    1.83
 -14   4  -4    0.90    2.77
 -14  -4   4    3.19    1.47
 -14  -4  -4    1.64    1.30
 -14   4   4    3.02    1.87
 -15  -1   4    0.94    1.72
 -15   1  -4   -4.21    2.04
 -15  -1  -4   -0.30    1.98
 -15   1   4    0.68    1.75
 -15   3  -4   43.05    4.70
 -15  -3   4   46.69    3.28
 -15   3   4   50.50    3.94
 -15  -3  -4   45.31    5.25
   0   0  -5    0.31    0.52
   0   0   5    0.34    0.52
   0  -2  -5   20.60    1.25
   0   2   5   22.56    1.17
   0  -2   5   22.17    1.29
   0   2  -5   22.83    1.25
   0   4  -5   56.90    2.17
   0   4   5   59.40    2.04
   0  -4   5   57.77    2.26
   0   6   5   10.12    0.95
   0  -6   5   12.74    1.45
   0   6  -5   11.86    1.21
   0   8  -5   31.11    1.73
   0   8   5   27.98    2.60
   0  -8   5   31.31    2.07
   0   8   5   30.89    1.36
   0 -10   5   15.58    2.20
   0  12  -5    3.70    1.08
   1   1   5    9.92    0.91
   1  -1  -5    9.59    1.00
  -1  -1   5    9.45    1.03
  -1   1  -5    9.72    0.98
   1  -1   5   10.44    1.03
  -1   1   5    9.35    0.95
  -1  -1  -5    9.77    0.95
   1   1  -5   10.36    0.99
  -1  -3   5   12.36    1.16
   1   3   5   12.37    0.95
  -1   3  -5   12.58    1.11
   1   3  -5   12.32    1.08
   1  -3   5   12.85    1.17
  -1  -3  -5   11.02    1.25
  -1   3   5   12.35    1.05
  -1   5  -5   63.02    2.46
   1   5   5   66.73    2.23
  -1  -5   5   67.29    2.57
  -1   5   5   67.42    2.37
   1  -5   5   69.48    2.61
   1   5  -5   66.69    2.44
   1   7   5   16.57    0.95
  -1  -7   5   17.16    1.60
   1   7   5   16.34    1.64
  -1   7  -5   16.06    1.36
  -1   7   5   16.93    1.92
   1   7  -5   15.11    1.31
   1  -7   5   17.71    1.62
  -1   7   5   15.96    1.18
  -1  -9   5    8.10    1.45
  -1   9  -5   10.84    1.39
   1  -9   5    9.85    1.60
  -1   9   5    9.75    1.40
  -1   9   5   12.53    1.14
   1   9  -5   11.93    1.38
  -1  11  -5   37.23    2.20
   1  11  -5   35.23    2.04
  -2   0  -5    1.01    0.54
  -2   0   5    1.62    0.64
   2   0   5    1.18    0.53
   2   0  -5    1.36    0.60
  -2   2  -5  279.58    8.60
   2   2   5  296.26    8.52
   2   2  -5  290.15    8.60
  -2   2   5  297.26    8.62
  -2  -2  -5  288.68    8.54
   2  -2   5  309.86    8.79
  -2   4  -5   82.36    2.96
   2   4   5   83.84    2.68
  -2  -4   5   83.18    2.96
   2  -4   5   86.92    2.98
  -2   4   5   86.27    2.90
  -2  -4  -5   86.25    2.82
   2   4  -5   82.25    2.87
   2   6   5    6.54    0.77
  -2   6  -5    8.91    1.36
  -2  -6   5    7.56    1.05
   2   6  -5    7.38    1.15
  -2   6   5    7.64    1.11
   2  -6   5    9.41    1.42
  -2   8  -5  115.79    4.01
  -2  -8   5  120.17    4.14
  -2   8   5  120.26    4.49
   2  -8   5  114.06    4.20
   2   8  -5  114.83    3.85
  -2  10  -5    4.41    0.96
  -2  10   5    3.06    1.34
   2 -10   5    1.67    1.46
  -2  12  -5    2.35    1.11
   2  12  -5    4.79    1.17
  -2  12   5    8.23    1.27
  -3   1  -5  194.63    6.01
   3  -1  -5  201.10    6.07
   3   1   5  202.65    5.93
  -3   1   5  205.20    6.08
   3   1  -5  199.66    6.02
  -3  -1  -5  192.68    5.93
   3  -1   5  201.68    6.00
  -3  -3   5    8.76    1.01
   3   3   5    9.03    0.87
  -3   3  -5    8.06    1.26
   3  -3   5    8.66    1.18
   3   3  -5    6.64    1.04
  -3   3   5    8.36    1.00
  -3  -3  -5    7.97    0.95
   3   5   5  214.39    6.25
  -3  -5   5  216.07    6.58
  -3   5  -5  214.49    6.61
   3   5  -5  209.13    6.45
  -3   5   5  222.70    6.82
   3  -5   5  213.31    6.63
  -3   7  -5   28.44    1.82
  -3  -7   5   26.22    1.84
   3   7  -5   28.44    1.58
  -3   7   5   25.53    1.69
  -3   7   5   25.78    2.39
   3  -7   5   26.20    1.95
  -3  -9   5    6.66    1.29
  -3   9  -5    8.61    1.31
   3   9  -5   10.67    1.43
  -3   9   5    7.42    1.64
   3  -9   5    6.68    1.61
  -3   9   5   10.40    1.48
  -3  11  -5   46.56    2.74
  -3  11   5   48.20    2.28
   3  11  -5   53.91    2.38
  -3  11   5   44.07    3.00
  -4   0  -5   -0.02    0.64
   4   0   5    1.23    0.63
  -4   0   5   -0.40    0.71
   4   2   5   32.15    1.38
  -4   2  -5   29.86    1.72
  -4  -2   5   31.21    1.65
   4   2  -5   30.88    1.60
  -4   2   5   32.03    1.69
  -4  -2  -5   30.47    1.44
   4  -2   5   32.38    1.59
   4   4   5   15.34    0.95
  -4   4  -5   15.61    1.52
  -4  -4   5   12.15    1.42
   4  -4   5   14.55    1.42
  -4  -4  -5   12.78    1.08
  -4   4   5   13.87    1.54
   4   4  -5   13.90    1.23
  -4   6  -5   10.30    1.51
  -4  -6   5    8.48    1.11
   4  -6   5    7.56    1.07
  -4   6   5    6.58    1.32
  -4   6   5    8.19    1.11
   4   6  -5    7.14    1.17
  -4  -8   5   44.68    2.40
  -4   8  -5   38.47    2.62
  -4   8   5   43.55    2.33
   4  -8   5   49.83    2.96
  -4   8   5   45.33    3.14
   4   8  -5   45.50    2.01
  -4 -10   5   11.01    1.88
  -4  10  -5   17.91    2.06
  -4  10   5   16.89    1.79
   4  10  -5   14.55    1.61
  -4  10   5   15.41    2.12
  -4  12  -5    2.56    1.29
   4  12  -5    4.38    1.22
  -4  12   5   -0.77    1.72
  -5  -1   5   43.84    2.04
  -5   1  -5   42.58    1.98
   5   1   5   43.56    1.75
  -5  -1  -5   41.43    1.85
   5  -1   5   44.51    1.86
  -5   1   5   40.10    2.00
   5   3   5   10.37    0.95
  -5   3  -5   10.31    1.54
  -5  -3   5    8.64    1.34
   5   3  -5    9.18    1.23
  -5   3   5    8.80    1.15
   5  -3   5   12.78    1.37
  -5   5  -5   12.11    1.68
  -5  -5   5   10.01    1.42
  -5   5   5    9.86    1.23
  -5   5   5    8.81    1.40
   5   5  -5    8.99    1.22
  -5  -7   5   28.84    1.98
  -5   7  -5   29.04    2.09
   5   7  -5   27.22    1.70
  -5   7   5   28.86    2.71
   5  -7   5   33.21    3.29
  -5   7   5   26.74    2.13
  -5   9  -5   11.57    1.93
  -5  -9   5    7.48    1.40
  -5   9   5    8.20    1.96
   5   9  -5   10.96    1.56
  -5  11  -5   15.58    2.43
   5  11  -5   19.92    2.20
  -5  11   5   19.65    2.18
  -6   0   5   -0.20    0.84
   6   0   5    1.84    1.18
  -6   0  -5    1.05    0.83
  -6  -2   5   20.80    1.65
  -6   2  -5   19.13    1.79
   6   2   5   19.83    1.27
  -6  -2  -5   20.83    1.40
   6  -2   5   20.30    1.52
  -6   2   5   16.42    1.74
  -6   4  -5   10.90    1.33
   6   4   5    8.65    0.92
  -6  -4   5    9.07    1.11
   6  -4   5    9.66    1.23
  -6  -4  -5    7.43    0.96
  -6   4   5    7.09    1.18
   6   4  -5    7.49    0.98
  -6  -6   5    7.31    1.19
  -6   6  -5    8.53    1.28
  -6   6   5    6.74    1.27
  -6   6   5   10.32    1.75
   6   6  -5    8.43    1.33
  -6   8  -5   36.79    2.57
  -6  -8   5   34.80    2.29
  -6   8   5   32.67    2.87
   6  -8   5   44.15    3.30
   6   8  -5   36.28    1.99
  -6   8   5   40.28    3.32
   6  10  -5   10.64    1.76
  -6  10   5   13.93    2.24
  -7  -1   5   79.48    3.13
  -7   1  -5   81.05    3.18
  -7  -1  -5   80.78    2.98
   7  -1   5   84.71    2.96
  -7  -3   5    6.60    1.04
   7   3   5    6.00    0.99
  -7   3  -5    5.69    1.17
  -7  -3  -5    6.03    0.79
   7  -3   5    8.59    1.42
  -7   3   5    6.22    1.25
  -7   5  -5  117.26    4.45
  -7  -5   5  124.30    4.16
  -7   5   5  118.09    4.60
  -7   7  -5    9.52    1.59
  -7  -7   5    9.67    1.30
  -7   7   5    7.80    1.84
  -7   7   5    8.56    1.90
   7  -7   5    9.58    1.44
  -7  -9   5    2.40    1.48
  -7   9  -5    5.36    1.64
  -7   9   5    5.74    2.02
  -7   9   5    6.25    1.43
  -7 -11   5   17.29    1.98
  -7  11  -5   26.60    2.90
  -7  11   5   26.86    3.83
  -8   0  -5    1.87    1.00
   8   0   5    1.42    0.80
  -8   0   5    2.42    0.98
  -8   2  -5  126.31    4.59
   8   2   5  125.68    4.32
  -8  -2   5  128.45    4.40
   8  -2   5  124.95    4.27
  -8  -2  -5  128.00    4.16
  -8   4  -5   49.64    2.96
   8   4   5   49.76    1.99
  -8  -4   5   46.47    2.38
  -8   4   5   48.47    2.81
  -8  -4  -5   47.11    2.08
  -8   4   5   48.32    3.02
   8  -4   5   44.98    2.42
  -8  -6   5    5.23    1.20
  -8   6  -5    2.97    1.42
  -8   6   5    3.42    1.33
   8  -6   5    3.90    1.27
  -8   6   5    5.30    3.05
  -8   8  -5   53.30    3.36
  -8  -8   5   51.88    3.06
  -8   8   5   61.97    3.94
  -8 -10   5   -0.97    1.39
  -8  10  -5    5.31    1.85
  -8  10   5    2.95    2.33
   9   1   5   10.72    1.43
  -9   1  -5   11.97    1.54
  -9  -1   5    8.47    1.25
  -9  -1  -5    9.89    1.27
   9  -1   5    9.30    1.43
  -9   3  -5    3.89    1.62
  -9  -3   5    3.53    1.15
   9   3   5    4.52    0.94
  -9  -3  -5    4.00    0.91
   9  -3   5    4.63    1.11
  -9   3   5    5.09    1.34
  -9   5  -5   17.91    2.67
  -9  -5   5   19.71    1.92
   9  -5   5   18.40    2.07
  -9   5   5   21.40    2.27
  -9   5   5   22.16    2.66
  -9   7  -5   10.58    1.91
  -9   7   5    8.13    1.93
  -9  -9   5    1.75    1.31
  -9   9  -5    2.55    1.80
  -9   9   5    3.26    2.16
 -10   0   5    2.45    1.22
  10   0   5    1.83    1.00
 -10   0  -5    2.60    1.33
  10   2   5    5.62    1.06
 -10  -2   5    3.97    2.02
 -10   2  -5    4.57    1.64
 -10   2   5    4.29    1.33
  10  -2   5    5.67    1.19
 -10  -2  -5    4.27    1.17
 -10   2   5    5.69    1.35
 -10  -4   5   18.71    2.15
  10   4   5   17.28    1.77
 -10   4  -5   15.71    2.03
 -10  -4  -5   20.36    1.56
  10  -4   5   18.58    2.17
 -10   4   5   21.68    2.56
 -10   4   5   17.25    2.56
 -10   6  -5    2.27    1.93
 -10  -6   5    5.09    1.23
 -10   6   5    4.20    1.93
 -10   8  -5    3.87    2.04
 -10  -8   5    5.86    1.40
 -10   8   5    5.56    2.08
 -11  -1   5    1.40    1.36
 -11   1  -5    2.13    1.68
  11   1   5    1.35    1.06
 -11  -1   5    2.27    1.22
 -11  -1  -5    1.49    1.30
 -11   1   5    3.85    1.73
 -11   1   5    2.49    1.31
  11  -1   5    1.22    1.38
 -11  -3   5    4.19    1.25
 -11   3  -5    2.76    1.67
  11   3   5    3.74    1.11
 -11  -3  -5    2.55    1.07
 -11   3   5    2.82    1.57
  11  -3   5    2.31    1.27
 -11   5  -5    6.59    2.11
 -11  -5   5   12.46    2.01
 -11   5   5   11.95    2.08
 -11   7  -5    3.17    2.15
 -11   7   5    4.03    2.11
 -12   0  -5   -0.04    1.80
  12   0   5    1.91    2.16
 -12   0   5    0.43    1.33
 -12  -2   5   45.78    2.93
 -12   2  -5   38.17    3.57
  12   2   5   43.10    2.71
 -12  -2  -5   43.57    2.77
 -12   2   5   40.26    3.15
 -12   4  -5    7.10    2.28
 -12   4   5   10.71    2.08
 -12  -4  -5    9.92    1.66
 -12   6  -5    1.07    2.37
 -12   6   5    2.42    1.85
 -13   1  -5   22.83    3.48
  13   1   5   32.96    2.72
 -13  -1   5   30.04    2.87
 -13  -1  -5   24.85    3.81
 -13   1   5   30.41    2.98
 -13   3  -5    0.49    2.49
 -13  -3   5    2.49    1.49
 -13   3   5    0.76    1.78
 -13  -3  -5    1.24    1.32
 -13   5  -5   27.22    4.43
 -13  -5   5   34.43    2.67
 -13   5   5   31.54    4.51
 -14   0  -5   -1.61    2.50
 -14   0   5    0.93    1.60
 -14  -2   5    2.45    1.54
 -14   2  -5    0.29    2.23
 -14  -2  -5    3.45    1.71
 -14   2   5    2.08    1.86
   0   0  -6  135.90    4.42
   0   0   6  146.65    4.45
   0  -2  -6  331.68    9.72
   0   2  -6  325.48    9.71
   0  -2   6  336.38    9.76
   0   4  -6  166.17    5.31
   0   4   6  175.71    5.21
   0  -4   6  173.08    5.40
   0  -6   6   44.03    2.18
   0   6   6   42.71    1.73
   0   6  -6   42.35    1.97
   0   8   6   19.26    1.18
   0   8  -6   16.88    2.52
   0  -8   6   17.38    1.95
   0   8   6   18.16    2.04
   0  10  -6   23.45    1.86
  -1  -1   6  224.23    6.56
  -1   1  -6  209.68    6.50
   1  -1  -6  209.94    6.52
   1   1   6  222.73    6.66
  -1  -1  -6  212.28    6.49
   1  -1   6  217.57    6.53
   1   1  -6  216.54    6.52
  -1   1   6  216.21    6.51
  -1   3  -6   45.60    1.98
  -1  -3   6   46.78    2.07
   1   3   6   47.53    1.85
  -1   3   6   44.58    1.91
   1  -3   6   47.48    2.05
  -1  -3  -6   48.17    2.00
   1   3  -6   44.46    1.97
  -1   5  -6   50.51    2.16
   1   5   6   51.39    1.91
  -1  -5   6   52.39    2.26
   1  -5   6   51.49    2.26
   1   5  -6   48.92    2.11
  -1   5   6   54.44    2.20
  -1   7  -6   52.51    2.32
  -1  -7   6   55.32    2.59
   1   7   6   54.80    1.96
   1   7  -6   51.67    2.26
  -1   7   6   54.18    2.85
  -1   7   6   53.24    2.09
   1  -7   6   54.58    2.61
  -1   9  -6   12.98    1.60
  -1  -9   6   11.45    1.67
  -1   9   6   14.03    1.23
   1  -9   6   10.03    1.72
  -1   9   6    9.76    1.57
   1   9  -6   13.59    1.53
  -1  11  -6    3.90    1.11
   1  11  -6    2.93    1.05
   2   0   6  129.10    4.03
  -2   0  -6  125.09    4.03
  -2   0   6  126.86    4.09
   2   0  -6  125.66    4.09
  -2  -2   6   36.27    1.86
   2  -2  -6   38.79    1.92
   2   2   6   39.54    1.67
  -2   2  -6   39.17    1.81
   2  -2   6   39.45    1.80
   2   2  -6   35.74    1.74
  -2  -2  -6   37.10    1.70
  -2   2   6   37.90    1.79
   2   4   6   32.73    1.44
  -2  -4   6   29.93    1.76
  -2   4  -6   31.84    1.68
  -2   4   6   31.67    1.63
  -2  -4  -6   30.30    1.62
   2   4  -6   29.81    1.64
  -2   6  -6   26.04    1.65
  -2  -6   6   27.12    1.82
   2   6   6   26.60    1.28
   2  -6   6   25.95    1.87
   2   6  -6   27.18    1.62
  -2   6   6   26.73    1.56
  -2   8  -6    2.00    0.86
  -2  -8   6    2.62    1.49
   2   8  -6    3.17    0.86
  -2   8   6    3.09    1.41
  -2   8   6    3.30    0.82
   2  -8   6    3.45    1.39
  -2  10  -6    5.62    1.13
   2  10  -6    7.06    1.09
  -2  10   6    6.42    1.62
  -2  10   6    7.82    1.29
  -3   1  -6   37.60    1.77
   3  -1  -6   35.56    1.88
  -3  -1   6   35.29    1.83
  -3   1   6   36.36    1.82
   3  -1   6   40.44    1.78
   3   1  -6   37.75    1.80
  -3  -1  -6   35.47    1.70
  -3   3  -6   54.16    2.25
  -3  -3   6   54.14    2.31
   3   3   6   56.64    2.03
   3   3  -6   54.54    2.19
   3  -3   6   56.05    2.29
  -3  -3  -6   54.32    2.12
  -3   3   6   55.01    2.30
   3   5   6    3.49    0.61
  -3  -5   6    4.29    1.00
  -3   5  -6    5.36    1.01
  -3   5   6    4.38    0.85
   3   5  -6    2.87    0.68
  -3  -7   6   17.34    1.85
   3   7  -6   18.00    1.42
  -3   7   6   17.66    1.52
   3  -7   6   18.44    1.90
  -3   7   6   18.85    2.23
  -3  -9   6    0.14    1.23
  -3   9  -6    0.79    0.91
  -3   9   6    1.23    0.86
  -3   9   6    0.19    1.58
   3   9  -6    2.03    0.83
  -3  11  -6    2.58    1.22
  -3  11   6    0.79    1.68
   3  11  -6    3.36    1.05
  -3  11   6    3.33    1.02
  -4   0  -6   14.07    1.31
   4   0  -6   14.34    1.43
   4   0   6   16.88    1.27
  -4   0   6   15.28    1.46
  -4   2  -6   72.39    2.78
  -4  -2   6   72.26    2.77
   4   2   6   74.07    2.53
  -4  -2  -6   69.97    2.57
  -4   2   6   72.98    2.82
   4  -2   6   75.29    2.73
   4   2  -6   72.57    2.71
  -4  -4   6   90.62    3.26
  -4   4  -6   87.55    3.30
   4   4   6   89.23    2.91
  -4   4   6   91.31    3.27
   4   4  -6   89.14    3.14
  -4  -4  -6   89.70    3.00
  -4  -6   6   13.84    1.67
  -4   6  -6   15.10    1.75
  -4   6   6   12.57    1.53
  -4   6   6   15.19    2.31
   4   6  -6   13.95    1.36
  -4   8  -6   12.18    1.92
  -4  -8   6   10.32    1.52
   4   8  -6   10.65    1.94
  -4   8   6   10.78    1.83
  -4   8   6    9.28    1.33
  -4  10  -6    8.79    1.46
  -4  10   6    7.72    1.93
  -4  10   6   11.57    1.90
   4  10  -6   10.55    1.66
  -5   1  -6  194.42    6.11
   5   1   6  198.64    5.97
   5  -1   6  197.00    6.04
  -5   1   6  202.24    6.21
  -5  -1  -6  190.29    5.98
   5   3   6   64.85    2.31
  -5  -3   6   65.00    2.63
  -5   3  -6   66.08    2.72
   5  -3   6   65.34    2.60
   5   3  -6   63.79    2.54
  -5  -3  -6   65.25    2.36
  -5   3   6   64.87    2.69
  -5  -5   6   56.17    2.53
   5   5   6   56.64    2.05
  -5   5  -6   59.15    2.68
  -5   5   6   55.25    2.62
   5   5  -6   56.11    2.39
  -5   7  -6   59.93    2.93
   5   7  -6   63.11    2.58
   5  -7   6   59.78    2.99
  -5   7   6   59.60    3.37
  -5   9  -6   23.42    2.37
  -5  -9   6   20.02    2.33
  -5   9   6   23.73    3.08
   5   9  -6   24.91    1.91
  -5  11  -6    2.19    1.42
   5  11  -6    4.05    1.22
  -5  11   6   -1.71    1.86
  -6   0  -6   15.74    1.53
   6   0   6   14.46    1.29
  -6   2  -6   94.86    3.50
  -6  -2   6   91.75    3.43
   6   2   6   95.46    3.17
  -6  -2  -6   92.94    3.19
  -6   2   6   95.37    3.57
   6  -2   6   92.40    3.34
  -6   4  -6   80.89    3.26
   6   4   6   80.85    2.74
  -6  -4   6   81.40    3.13
   6   4  -6   82.57    3.03
   6  -4   6   72.00    3.32
  -6  -4  -6   82.21    2.75
  -6  -6   6   12.80    1.89
  -6   6  -6   13.95    1.97
   6  -6   6   13.80    1.89
   6   6  -6   15.20    1.54
  -6   6   6   15.12    2.34
  -6   6   6   15.24    1.90
  -6  -8   6   12.91    2.07
  -6   8  -6   17.64    2.24
  -6   8   6   12.43    2.09
   6   8  -6   18.92    1.74
  -6   8   6   14.30    1.97
  -6  10  -6    8.11    1.76
  -6  10   6    5.19    2.13
   6  10  -6   12.24    1.82
   7   1   6   33.30    1.73
  -7   1  -6   34.27    2.11
   7  -1   6   34.25    1.86
  -7  -1  -6   35.23    1.94
   7   3   6   32.16    1.85
  -7  -3   6   34.18    2.09
  -7   3  -6   32.80    2.22
  -7   3   6   26.70    2.12
  -7  -3  -6   34.41    1.68
  -7  -5   6    8.43    2.00
   7   5   6   11.54    1.24
  -7   5  -6   10.67    1.47
  -7   5   6   10.03    1.94
   7  -5   6    9.33    1.43
  -7   5   6   10.76    1.64
  -7  -7   6   11.32    1.47
  -7   7  -6    8.90    1.50
  -7   7   6   13.83    2.02
  -7   7   6   10.62    1.92
  -7   9  -6    1.12    1.36
  -7   9   6    1.30    1.95
  -8   0  -6   51.88    2.55
   8   0   6   52.27    2.32
   8   2   6   20.49    1.51
  -8  -2   6   17.12    2.52
  -8   2  -6   20.22    2.13
  -8   2   6   23.38    2.46
  -8  -2  -6   19.59    1.66
  -8  -4   6   13.40    1.80
  -8   4  -6   11.75    1.58
   8   4   6   10.07    1.36
  -8  -4  -6   14.19    1.25
   8  -4   6   14.45    1.81
  -8   4   6   11.81    1.71
  -8   4   6   12.73    1.99
  -8  -6   6   13.41    1.92
  -8   6  -6   11.88    1.71
  -8   6   6   14.21    2.06
  -8   8  -6    1.68    1.54
  -8   8   6    2.75    1.91
   9   1   6   46.06    2.29
  -9  -1   6   49.79    2.62
  -9   1  -6   49.35    2.79
  -9  -1  -6   50.36    2.52
  -9   1   6   46.26    2.65
  -9   3  -6   12.33    1.69
  -9  -3   6   11.94    1.89
   9   3   6   10.08    1.50
   9  -3   6   10.95    1.83
  -9  -3  -6   14.03    1.50
  -9   3   6   10.40    1.69
  -9   3   6   12.74    2.06
  -9  -5   6   15.85    1.94
  -9   5  -6   12.45    1.85
  -9   5   6   12.40    1.87
  -9   7  -6   12.34    2.07
  -9   7   6   16.38    2.36
 -10   0  -6   42.01    2.68
 -10   2  -6   70.73    3.67
  10   2   6   72.98    2.95
 -10  -2  -6   72.04    3.03
 -10   2   6   72.70    3.57
  10  -2   6   68.18    3.18
 -10   4  -6   42.26    3.34
  10   4   6   44.75    2.46
 -10  -4  -6   44.29    2.02
 -10   4   6   43.17    3.11
 -10   6  -6   11.00    2.18
 -10   6   6   14.83    2.31
 -10   8  -6    4.71    2.01
 -10   8   6    3.84    2.07
 -11   1  -6   39.28    3.14
  11   1   6   37.29    2.81
 -11  -1  -6   40.89    2.69
  11  -1   6   38.69    2.55
 -11   1   6   42.74    2.96
  11   3   6    8.66    1.37
 -11   3  -6    5.55    1.84
 -11  -3  -6    7.88    1.26
 -11   3   6    8.67    1.73
 -11   5  -6   13.36    2.35
 -11   5   6   20.20    3.05
 -11   7  -6    7.81    2.25
 -11   7   6   11.70    3.07
 -12   0   6   23.12    2.68
  12   0   6   19.59    2.37
 -12   0  -6   21.88    2.88
 -12   2  -6    8.33    2.05
  12   2   6   14.95    2.00
 -12  -2  -6    8.71    1.55
 -12   2   6   12.08    2.04
 -12   4  -6    4.82    2.14
 -12  -4  -6   10.95    1.68
 -12   4   6    6.87    1.90
 -13   1  -6    2.65    2.02
 -13  -1   6    6.20    1.74
 -13   1   6    4.76    1.71
 -13  -1  -6    4.70    1.71
 -13  -3   6   15.61    2.55
 -13   3  -6   12.06    2.44
 -13  -3  -6   16.85    2.27
   0   0  -7   -0.28    0.60
   0   0   7   -0.27    0.70
   0  -2  -7   12.60    1.36
   0   2  -7   11.68    1.30
   0   2   7   11.38    1.22
   0  -2   7   11.01    1.34
   0   4   7    8.01    0.92
   0   4  -7    7.39    1.24
   0   6  -7   39.27    2.04
   0   6   7   39.14    1.76
   0  -6   7   38.13    2.23
   0   8  -7   13.38    1.57
   0   8   7   14.51    2.01
   0   8   7   13.20    1.22
   0  10  -7    6.13    1.12
  -1  -1   7   19.09    1.45
  -1   1  -7   17.77    1.39
   1   1   7   18.66    1.35
   1  -1  -7   19.67    1.50
   1  -1   7   18.94    1.42
  -1  -1  -7   19.57    1.37
  -1   1   7   18.05    1.40
   1   1  -7   18.91    1.36
   1   3   7   13.17    1.17
  -1   3  -7   11.79    1.32
  -1  -3  -7   11.47    1.38
  -1   3   7   12.38    1.25
   1   3  -7   12.92    1.37
   1   5   7    4.34    0.75
  -1   5  -7    5.14    0.94
  -1  -5   7    4.25    1.66
  -1   5   7    5.63    0.82
   1   5  -7    3.65    0.90
  -1   7  -7   33.11    1.97
  -1  -7   7   32.43    2.26
   1   7   7   32.18    1.66
  -1   7   7   34.46    1.68
   1   7  -7   33.19    1.94
   1  -7   7   33.95    2.71
  -1   9  -7   29.19    2.07
  -1   9   7   29.49    1.58
  -1   9   7   27.51    2.55
   1   9  -7   30.74    2.03
   2   0  -7    0.30    0.73
  -2   0   7    1.82    0.82
   2   0   7    0.05    0.64
  -2   0  -7    0.84    0.72
   2  -2  -7   81.55    3.06
   2   2   7   82.84    2.84
  -2   2  -7   78.19    2.94
  -2   2   7   83.29    2.95
   2   2  -7   80.18    2.93
   2  -2   7   82.33    2.96
  -2  -2  -7   80.31    2.89
  -2   4  -7  115.13    4.01
   2   4   7  121.00    3.80
  -2   4   7  121.25    3.95
  -2  -4  -7  122.00    3.97
   2   4  -7  113.79    3.96
  -2   6  -7   24.55    1.80
  -2  -6   7   25.08    1.98
  -2   6   7   26.18    1.59
   2   6  -7   26.78    1.79
   2  -6   7   24.05    1.99
  -2   8  -7    7.72    1.17
  -2   8   7    8.96    1.31
  -2   8   7    6.51    1.57
   2   8  -7    5.78    1.04
  -2  10  -7   29.30    2.18
  -2  10   7   28.54    1.68
  -2  10   7   26.08    2.78
   2  10  -7   31.20    2.17
   3   1   7  111.50    3.66
   3  -1  -7  111.70    3.84
  -3   1  -7  106.68    3.73
   3  -1   7  112.10    3.75
   3   1  -7  114.25    3.81
  -3  -1  -7  107.12    3.68
  -3   1   7  114.31    3.81
  -3   3  -7    9.04    1.36
   3   3   7    9.23    1.11
  -3   3   7    8.70    1.33
  -3  -3  -7    9.63    1.26
   3   3  -7    8.70    1.05
  -3  -5   7   29.68    2.17
  -3   5  -7   33.38    2.79
   3   5  -7   27.80    1.95
  -3   5   7   28.54    1.78
  -3  -7   7   78.22    3.43
  -3   7  -7   76.00    3.13
   3   7   7   82.73    2.70
  -3   7   7   79.73    3.73
   3   7  -7   77.51    2.99
  -3   9  -7   19.44    1.96
   3   9  -7   20.31    1.77
  -3   9   7   21.37    2.78
   4   0  -7    2.55    0.95
   4   0   7    2.50    0.75
  -4   0  -7    1.68    0.75
   4   2   7    1.92    0.69
  -4   2  -7    2.26    0.85
   4   2  -7    0.85    0.76
  -4  -2  -7    2.00    0.75
  -4   4  -7   19.68    1.70
   4   4   7   20.50    1.30
   4   4  -7   18.42    1.57
  -4  -4  -7   20.24    1.49
   4  -4   7   19.72    2.89
  -4   6  -7   22.70    1.85
   4   6   7   21.64    1.37
  -4  -6   7   22.75    2.02
   4   6  -7   23.35    1.69
  -4   8  -7    3.58    1.14
   4   8  -7    3.98    1.00
  -4   8   7    3.56    1.72
  -4  10  -7   16.20    2.00
  -4  10   7   19.87    1.74
  -4  10   7   13.17    2.19
   4  10  -7   20.79    1.96
  -5   1  -7    8.96    1.41
   5   1   7    9.08    1.20
  -5  -1  -7    8.49    1.33
  -5   1   7    5.52    1.58
   5  -1   7   11.65    1.38
   5   3   7   13.79    1.24
  -5   3  -7   13.31    1.59
  -5  -3  -7   14.26    1.37
   5  -3   7   13.89    1.70
   5   3  -7   14.70    1.53
  -5   3   7   10.33    1.68
  -5  -5   7   18.81    1.83
  -5   5  -7   18.88    1.95
   5   5   7   16.92    1.29
  -5   5   7   19.29    2.29
   5  -5   7   14.25    1.83
   5   5  -7   18.97    1.67
  -5  -5  -7   19.32    1.44
  -5   7  -7    9.60    1.41
   5   7  -7   10.11    1.63
  -5   7   7   10.50    1.86
  -5   7   7   10.39    1.73
  -5   9  -7   18.96    2.39
   5   9  -7   20.70    1.97
  -5   9   7   21.02    3.20
   6   0   7    2.20    0.88
  -6   0  -7    2.91    0.95
   6   2   7    0.88    0.77
  -6  -2   7    1.39    0.94
  -6   2  -7    1.72    0.98
   6  -2   7    0.66    0.96
  -6  -2  -7    1.59    0.82
  -6   4  -7   15.44    1.98
  -6  -4   7   14.41    1.79
   6   4   7   11.57    1.25
  -6  -4  -7   14.61    1.35
   6  -4   7   10.41    1.71
   6   4  -7   15.21    1.65
  -6   4   7   11.63    1.79
  -6   6  -7   27.87    2.40
  -6   6   7   22.04    2.70
  -6   6   7   24.51    2.08
   6   6  -7   25.00    1.89
  -6   8  -7    3.75    1.42
   6   8  -7    3.86    1.11
  -6   8   7    4.17    1.80
  -7  -1   7   75.69    3.15
   7   1   7   73.53    2.82
  -7   1  -7   76.22    3.13
  -7   1   7   71.87    3.16
  -7  -1  -7   73.82    2.89
   7  -1   7   69.63    3.19
   7   3   7    7.77    1.02
  -7  -3   7    8.04    1.25
  -7   3  -7   10.21    1.42
  -7   3   7    8.58    1.27
  -7  -3  -7    9.75    1.34
   7  -3   7    9.11    1.40
  -7   5  -7   14.98    2.21
   7   5   7   13.56    1.40
  -7   5   7   16.47    2.63
  -7  -5  -7   17.00    1.34
  -7   7  -7   50.33    3.15
  -7   7   7   50.57    3.55
  -7   9  -7   14.05    1.90
  -7   9   7   15.28    2.53
  -8   0  -7    5.58    1.23
  -8   0   7    3.30    1.95
   8   2   7   45.73    2.26
  -8   2  -7   49.74    2.77
   8  -2   7   48.95    2.49
  -8  -2  -7   49.65    2.30
  -8   4  -7   69.27    3.48
   8   4   7   69.59    2.77
  -8  -4  -7   65.96    2.60
  -8   4   7   73.68    3.69
  -8   6  -7   12.73    1.84
  -8   6   7   12.66    2.04
  -8   8  -7    5.58    3.34
  -8   8   7    4.24    1.94
  -9   1  -7    9.98    1.54
   9  -1   7    9.63    1.43
  -9  -1  -7    9.40    1.33
   9   3   7    6.32    1.18
  -9   3  -7    7.35    1.68
  -9  -3  -7   10.21    1.51
  -9   5  -7    2.43    1.61
   9   5   7    1.35    1.79
  -9   5   7    1.80    1.52
  -9   7  -7    8.67    3.29
  -9   7   7   13.90    2.30
 -10   0  -7    3.98    1.38
  10   0   7    2.37    1.19
 -10   2  -7    5.93    1.66
 -10  -2  -7    5.61    1.22
  10   4   7    0.78    1.17
 -10   4  -7    0.90    1.60
 -10  -4  -7    2.65    0.91
 -10   4   7    1.34    1.57
 -10   6  -7   11.23    2.71
 -10   6   7   10.19    2.11
  11   1   7   -2.07    1.21
 -11   1  -7    0.62    1.49
 -11  -1  -7    1.49    1.36
 -11   1   7    1.56    1.63
 -11   3  -7    5.35    2.00
 -11   3   7    4.87    1.84
 -11  -3  -7    6.70    1.20
 -11   5  -7    0.05    3.03
 -12   0   7    1.86    1.76
 -12   0  -7    0.91    2.37
 -12   2  -7    9.52    2.05
  12   2   7    8.76    1.65
 -12  -2  -7    9.87    1.57
   0   0  -8  226.16    6.73
   0   0   8  205.95    7.14
   0  -2   8   15.85    1.76
   0   2  -8   16.00    1.84
   0  -2  -8   16.81    1.60
   0  -4   8   10.11    1.65
   0   4   8   10.92    1.33
   0   4  -8   13.28    1.51
   0   6   8  103.97    3.57
   0   6  -8  107.99    3.85
   0   8  -8    2.61    1.09
   0   8   8    1.90    0.80
   0   8   8    2.76    1.46
  -1   1  -8   13.92    1.50
  -1  -1   8   11.24    1.79
   1  -1  -8   12.82    1.55
  -1  -1  -8   13.43    1.42
   1  -1   8   12.36    1.41
   1   1  -8   12.86    1.44
   1   3   8  130.37    4.24
  -1  -3   8  127.81    4.47
  -1   3  -8  130.47    4.39
   1  -3   8  131.87    4.45
  -1  -3  -8  131.47    4.40
   1   3  -8  126.59    4.34
   1   5   8   10.24    1.26
  -1   5  -8   12.11    1.49
   1   5  -8   11.77    1.62
   1   7   8    4.45    0.84
  -1   7  -8    5.58    1.12
   1   7  -8    4.97    1.06
  -1   9  -8   20.32    1.90
   1   9   8   15.23    2.05
  -1   9   8   14.58    2.40
   1   9  -8   18.71    1.91
   2   0  -8   10.09    1.23
  -2   0   8    7.18    1.76
  -2   0  -8    9.02    1.41
  -2  -2   8   37.09    2.07
   2   2   8   37.47    1.95
  -2   2  -8   38.07    2.40
  -2   2   8   36.49    1.97
   2   2  -8   37.70    2.13
  -2  -2  -8   38.65    1.99
   2  -2   8   38.93    2.07
  -2   4  -8   19.85    1.65
   2   4   8   16.88    1.36
  -2  -4   8   17.92    1.93
  -2  -4  -8   18.82    1.67
   2   4  -8   17.39    1.55
  -2   4   8   17.88    1.76
   2  -4   8   18.24    1.81
   2   6   8    6.17    0.89
  -2   6  -8    6.38    1.15
   2   6  -8    9.03    1.43
  -2   6   8    6.88    1.06
  -2   8  -8    3.93    1.13
   2   8   8    1.88    0.83
   2   8   8    4.39    1.29
   2   8  -8    3.26    0.92
  -2   8   8    4.34    1.00
  -2   8   8    3.95    1.49
  -3  -1   8   26.56    1.92
  -3   1  -8   28.28    1.78
  -3   1   8   32.61    2.41
   3   1  -8   31.23    2.08
   3  -1   8   29.05    2.10
  -3  -1  -8   30.42    1.81
  -3  -3   8   10.64    1.65
  -3   3  -8   13.80    1.56
   3   3   8   11.05    1.28
   3  -3   8   10.89    1.58
   3   3  -8   11.45    1.51
  -3  -3  -8   11.97    1.50
   3   5   8   20.56    1.45
  -3   5  -8   22.54    1.83
  -3   5   8   23.10    2.25
   3   5  -8   22.75    1.71
  -3   7  -8    2.54    1.01
   3   7   8    1.98    0.83
  -3   7   8    3.04    0.95
   3   7  -8    3.37    0.93
  -3   7   8    4.35    1.71
   3   9  -8    1.79    0.99
  -3   9   8    0.00    1.56
  -3   9   8    3.07    0.96
  -4   0   8   86.60    3.35
  -4   0  -8   82.41    3.16
   4   0   8   88.03    3.27
  -4  -2   8   10.66    1.32
   4   2   8   10.40    1.42
  -4   2  -8   11.30    1.52
  -4   2   8   10.21    1.57
   4   2  -8   11.57    1.53
  -4  -2  -8   12.31    1.52
   4  -2   8    9.40    1.54
  -4   4  -8   13.67    1.70
   4   4   8    9.83    1.28
  -4   4   8   13.51    1.63
   4   4  -8   12.66    1.62
  -4  -4  -8   12.65    1.56
   4   6   8   27.39    1.68
  -4   6  -8   30.49    2.17
  -4   6   8   29.67    2.04
   4   6  -8   30.29    2.00
  -4   8  -8    1.65    1.17
  -4   8   8    1.00    1.61
   4   8  -8    1.95    1.05
  -5  -1   8   15.05    1.80
   5  -1   8   13.44    1.59
  -5   1   8   14.06    1.73
  -5  -1  -8   16.88    1.55
   5   3   8  180.64    5.64
  -5   3  -8  175.59    5.89
   5   3  -8  181.20    5.86
  -5   3   8  180.28    5.96
  -5  -3  -8  179.96    5.70
  -5   5  -8    3.15    1.06
   5   5   8    2.85    0.91
   5   5  -8    5.04    1.06
  -5  -5  -8    5.07    0.93
  -5   7  -8    5.86    1.24
  -5   7   8    7.24    1.78
   5   7  -8    6.50    1.20
   6   0   8   90.92    3.96
  -6   0  -8   97.34    3.84
  -6   2  -8   11.29    1.73
   6  -2   8   10.22    1.72
  -6  -2  -8   13.25    1.53
   6   4   8    5.52    1.02
  -6   4  -8    6.72    1.30
  -6  -4  -8    9.42    1.42
   6   4  -8    6.13    1.13
  -6   6  -8   36.17    2.48
  -6   6   8   39.69    3.23
   6   6  -8   38.24    2.32
  -6   8  -8    1.88    1.15
   6   8  -8    2.56    1.11
  -6   8   8    1.62    1.77
  -7   1  -8   20.05    1.89
  -7  -1  -8   18.30    1.76
   7  -1   8   13.30    1.76
  -7   3  -8   14.42    1.98
   7   3   8   15.02    1.56
  -7  -3  -8   15.94    1.60
   7   5   8   11.76    1.28
  -7   5  -8   16.64    2.41
  -7  -5  -8   17.54    1.58
  -7   7   8    1.02    1.77
  -8   0  -8    5.72    1.22
   8   0   8    2.75    1.22
  -8   2  -8   20.92    2.18
   8   2   8   18.05    1.97
  -8  -2  -8   23.89    1.86
   8   4   8    6.33    1.22
  -8   4  -8    9.99    1.84
  -8  -4  -8   10.22    1.53
  -8   6  -8    1.61    2.81
  -8   6   8    1.23    1.58
  -9   1  -8    5.40    1.36
   9   1   8    2.95    1.23
  -9  -1  -8    5.00    1.24
  -9   3  -8   32.14    2.99
   9   3   8   26.54    2.60
  -9  -3  -8   35.22    2.03
   9   5   8    0.95    1.17
  -9   5  -8    2.77    1.86
  -9  -5  -8    4.25    0.84
  -9   5   8    4.69    1.81
 -10   0  -8   65.53    3.53
  10   2   8    3.19    1.34
 -10   2  -8    6.61    1.84
 -10  -2  -8    5.66    1.27
 -10   4  -8    3.46    2.17
 -10   4   8    7.12    2.40
 -10  -4  -8    5.71    1.01
 -11   1  -8    4.73    1.76
 -11  -1  -8    4.46    1.41
   0   0  -9    0.50    0.87
   0   0   9   -0.77    0.84
   0  -2  -9    0.97    0.94
   0   2   9   -0.12    0.91
   0   2  -9    0.77    0.80
   0   4   9   23.24    1.65
   0   6  -9    6.41    1.21
   0   6   9    4.52    0.96
   1   1   9   -0.40    0.89
   1  -1  -9    0.77    0.91
  -1   1  -9    0.37    0.86
   1   1  -9    0.44    0.84
  -1   1   9    0.57    0.89
  -1  -1  -9    0.50    0.97
   1   3   9    1.32    0.83
  -1   3  -9    2.37    0.96
   1   3  -9    2.62    1.03
  -1  -3  -9    2.32    1.14
  -1   3   9    1.62    0.91
  -1   5  -9   31.47    2.10
  -1   5   9   31.75    1.91
   1   5  -9   29.58    1.96
   1   7   9    4.22    1.09
  -1   7  -9    6.26    1.29
   1   7  -9    5.27    1.21
  -1   7   9    5.05    0.98
   2   0  -9    0.82    0.89
   2   0   9   -0.75    0.94
  -2   0  -9    0.82    0.79
   2   2   9   66.45    2.75
  -2   2  -9   66.33    2.90
   2   2  -9   69.39    2.93
  -2  -2  -9   75.40    2.96
  -2   4  -9    9.24    1.25
  -2   4   9    9.67    1.86
   2   4  -9   10.65    1.59
  -2  -4  -9   11.71    1.74
  -2   6  -9    4.73    1.08
   2   6  -9    5.69    1.19
  -3   1  -9   47.53    2.37
   3   1   9   43.93    2.23
   3   1  -9   47.83    2.40
  -3  -1  -9   47.71    2.32
   3   3   9    3.45    1.14
  -3   3  -9    4.28    1.06
  -3  -3  -9    4.80    1.73
   3   3  -9    4.07    1.04
  -3   5  -9   69.72    3.07
   3   5  -9   69.23    3.01
  -3   7  -9    5.04    2.07
   3   7  -9    2.34    1.17
   4   0   9   -0.82    1.68
  -4   0  -9    1.30    0.92
  -4   2  -9   14.68    1.72
   4   2   9   10.98    1.56
   4   2  -9   14.93    1.78
  -4  -2  -9   16.00    1.66
   4   4   9    1.89    1.01
  -4   4  -9    4.62    1.19
   4   4  -9    4.58    1.21
  -4  -4  -9    4.52    1.08
  -4   6  -9    5.27    1.18
   4   6   9    2.68    1.14
   4   6  -9    5.16    1.14
  -5   1  -9    5.37    1.18
   5   1   9    2.51    1.10
  -5  -1  -9    6.33    1.16
  -5   3  -9    4.13    1.19
   5   3   9    1.15    1.19
   5   3  -9    5.20    1.32
  -5   5  -9    6.99    1.30
  -5  -5  -9   11.94    1.64
   5   5  -9    7.33    1.23
  -6   0  -9    1.23    0.98
   6   2   9    7.08    1.26
  -6   2  -9   11.47    1.88
  -6  -2  -9   13.86    1.80
  -6   4  -9    4.73    1.35
   6   4   9   -0.43    1.18
  -7   1  -9   23.00    2.13
  -7  -1  -9   19.95    2.37
  -7   3  -9    3.18    1.36
   7   3   9   -1.51    1.08
  -7  -3  -9    3.06    1.07
  -7   5  -9   47.65    3.22
  -7  -5  -9   47.98    2.27
  -8   0  -9    0.12    1.10
  -8   2  -9   37.60    2.67
  -8  -2  -9   37.16    2.30
  -9   1  -9    3.72    1.36
  -9  -1  -9    1.52    1.15
   0   0 -10   32.79    2.20
   0   2 -10   36.84    2.26
   0  -2 -10   37.39    2.42
   0   4 -10   30.74    2.09
   1  -1 -10   30.95    2.23
  -1   1 -10   31.43    2.10
  -1  -1 -10   30.67    2.19
   1   1 -10   31.16    2.20
  -1   3 -10   12.59    1.67
   1   3 -10   12.32    1.80
  -1   5 -10   12.36    2.03
   1   5 -10   11.97    1.77
   2   0 -10   21.16    2.06
  -2   0 -10   21.79    1.91
  -2   2 -10    7.77    1.17
   2   2 -10    9.28    1.35
  -2  -2 -10    8.78    1.35
  -2   4 -10    7.90    1.46
   2   4 -10    8.84    2.27
  -3   1 -10   11.28    1.72
   3   1 -10   12.66    1.93
  -3  -1 -10   15.11    1.81
  -3   3 -10   14.85    1.90
  -3  -3 -10   15.04    1.90
   3   3 -10   13.16    1.90
  -4   0 -10   20.23    1.93
  -4   2 -10   18.69    2.01
   4   2 -10   20.26    2.09
  -4  -2 -10   18.71    1.93
  -4   4 -10   22.46    2.31
   4   4 -10   21.73    2.02
  -4  -4 -10   22.00    2.00
  -5   1 -10   37.62    2.42
  -5  -1 -10   39.69    2.37
  -5  -3 -10   33.56    2.28
  -6   0 -10   17.64    2.01
   0   0   0    0.00    0.00
;
_shelx_hkl_checksum              45153
loop_
_space_group_symop_operation_xyz
'x, y, z'
'-x, -y, z+1/2'
'-x, y, z'
'x, -y, z+1/2'
'x+1/2, y+1/2, z'
'-x+1/2, -y+1/2, z+1/2'
'-x+1/2, y+1/2, z'
'x+1/2, -y+1/2, z+1/2'
loop_
_atom_site_label
_atom_site_type_symbol
_atom_site_fract_x
_atom_site_fract_y
_atom_site_fract_z
_atom_site_U_iso_or_equiv
_atom_site_adp_type
_atom_site_occupancy
_atom_site_site_symmetry_order
_atom_site_calc_flag
_atom_site_refinement_flags_posn
_atom_site_refinement_flags_adp
_atom_site_refinement_flags_occupancy
_atom_site_disorder_assembly
_atom_site_disorder_group
I1A I 0.000000 -0.4748(4) 0.0237(3) 0.0204(5) Uani 0.8 2 d S T P . .
I1B I 0.000000 -0.5222(15) 0.0546(17) 0.022(3) Uani 0.2 2 d S TU P . .
Mo1 Mo 0.000000 -0.1573(3) 0.2947(5) 0.0240(6) Uani 1 2 d S T P . .
F1 F -0.1674(14) -0.481(2) 0.021(5) 0.071(5) Uani 1 1 d . U . . .
F2 F -0.1109(19) -0.215(3) 0.462(2) 0.083(9) Uani 1 1 d . . . . .
O1 O 0.000000 -0.378(2) 0.224(3) 0.034(7) Uani 1 2 d S T P . .
O2 O 0.000000 -0.345(4) -0.141(4) 0.053(9) Uani 1 2 d S T P . .
O3 O 0.118(3) -0.152(3) 0.145(4) 0.085(12) Uani 1 1 d . . . . .
F3 F 0.000000 -0.006(3) 0.359(4) 0.069(9) Uani 1 2 d S T P . .
Rb1 Rb 0.30275(19) -0.3325(3) 0.2923(5) 0.0396(7) Uani 1 1 d . . . . .
loop_
_atom_site_aniso_label
_atom_site_aniso_U_11
_atom_site_aniso_U_22
_atom_site_aniso_U_33
_atom_site_aniso_U_23
_atom_site_aniso_U_13
_atom_site_aniso_U_12
I1A 0.0284(13) 0.0192(13) 0.0136(10) -0.0014(13) 0.000 0.000
I1B 0.023(3) 0.022(3) 0.022(3) -0.0012(14) 0.000 0.000
Mo1 0.0324(12) 0.0204(12) 0.0192(11) -0.0007(12) 0.000 0.000
F1 0.039(7) 0.102(11) 0.070(9) -0.014(11) 0.012(11) -0.018(9)
F2 0.023(10) 0.19(3) 0.035(9) -0.015(14) 0.003(7) -0.014(14)
O1 0.07(2) 0.010(10) 0.023(11) -0.001(9) 0.000 0.000
O2 0.09(3) 0.050(19) 0.017(11) -0.009(13) 0.000 0.000
O3 0.09(3) 0.11(3) 0.055(14) 0.044(17) 0.052(17) 0.028(19)
F3 0.10(2) 0.046(17) 0.065(19) 0.010(14) 0.000 0.000
Rb1 0.0261(9) 0.0669(17) 0.0259(10) 0.0014(14) -0.0039(13) 0.0031(11)
loop_
_atom_type_symbol
_atom_type_description
_atom_type_scat_dispersion_real
_atom_type_scat_dispersion_imag
_atom_type_scat_source
F F 0.0171 0.0103 'International Tables Vol C Tables 4.2.6.8 and 6.1.1.4'
I I -0.4742 1.8119 'International Tables Vol C Tables 4.2.6.8 and 6.1.1.4'
Mo Mo -1.6832 0.6857 'International Tables Vol C Tables 4.2.6.8 and 6.1.1.4'
O O 0.0106 0.0060 'International Tables Vol C Tables 4.2.6.8 and 6.1.1.4'
Rb Rb -0.9393 2.9676 'International Tables Vol C Tables 4.2.6.8 and 6.1.1.4'
loop_
_geom_angle_atom_site_label_1
_geom_angle_atom_site_label_2
_geom_angle_atom_site_label_3
_geom_angle
_geom_angle_site_symmetry_1
_geom_angle_site_symmetry_3
_geom_angle_publ_flag
I1B I1A O1 96.3(15) . . ?
I1B I1A O2 162.5(17) . . ?
O1 I1A O2 101.2(13) . . ?
I1B I1A F1 88.5(9) . 3 ?
O1 I1A F1 91.5(11) . 3 ?
O2 I1A F1 91.0(10) . 3 ?
I1B I1A F1 88.5(9) . . ?
O1 I1A F1 91.5(11) . . ?
O2 I1A F1 91.0(10) . . ?
F1 I1A F1 176.1(16) 3 . ?
I1B I1A Rb1 146.82(13) . 6_544 ?
O1 I1A Rb1 87.6(7) . 6_544 ?
O2 I1A Rb1 35.6(3) . 6_544 ?
F1 I1A Rb1 58.4(9) 3 6_544 ?
F1 I1A Rb1 124.4(9) . 6_544 ?
I1B I1A Rb1 146.82(14) . 8_444 ?
O1 I1A Rb1 87.6(7) . 8_444 ?
O2 I1A Rb1 35.6(3) . 8_444 ?
F1 I1A Rb1 124.4(9) 3 8_444 ?
F1 I1A Rb1 58.4(9) . 8_444 ?
Rb1 I1A Rb1 66.06(9) 6_544 8_444 ?
I1A I1B O1 67.9(14) . . ?
I1A I1B F1 76.2(10) . 3 ?
O1 I1B F1 86.0(11) . 3 ?
I1A I1B F1 76.2(10) . . ?
O1 I1B F1 86.0(11) . . ?
F1 I1B F1 152(2) 3 . ?
I1A I1B O2 13.6(13) . . ?
O1 I1B O2 81.5(12) . . ?
F1 I1B O2 76.3(11) 3 . ?
F1 I1B O2 76.3(11) . . ?
F3 Mo1 O3 99.5(14) . 3 ?
F3 Mo1 O3 99.5(14) . . ?
O3 Mo1 O3 101(3) 3 . ?
F3 Mo1 F2 95.1(13) . . ?
O3 Mo1 F2 84.8(11) 3 . ?
O3 Mo1 F2 163.3(14) . . ?
F3 Mo1 F2 95.1(13) . 3 ?
O3 Mo1 F2 163.3(14) 3 3 ?
O3 Mo1 F2 84.8(11) . 3 ?
F2 Mo1 F2 85.9(15) . 3 ?
F3 Mo1 O1 176.0(14) . . ?
O3 Mo1 O1 83.0(12) 3 . ?
O3 Mo1 O1 83.0(12) . . ?
F2 Mo1 O1 82.0(11) . . ?
F2 Mo1 O1 82.0(11) 3 . ?
F3 Mo1 Rb1 115.14(18) . . ?
O3 Mo1 Rb1 134.4(14) 3 . ?
O3 Mo1 Rb1 47.2(10) . . ?
F2 Mo1 Rb1 118.5(9) . . ?
F2 Mo1 Rb1 42.0(6) 3 . ?
O1 Mo1 Rb1 64.34(9) . . ?
F3 Mo1 Rb1 115.14(18) . 3 ?
O3 Mo1 Rb1 47.2(10) 3 3 ?
O3 Mo1 Rb1 134.4(14) . 3 ?
F2 Mo1 Rb1 42.0(6) . 3 ?
F2 Mo1 Rb1 118.5(9) 3 3 ?
O1 Mo1 Rb1 64.34(9) . 3 ?
Rb1 Mo1 Rb1 127.21(11) . 3 ?
F3 Mo1 Rb1 39.1(5) . 7 ?
O3 Mo1 Rb1 114.7(9) 3 7 ?
O3 Mo1 Rb1 61.9(13) . 7 ?
F2 Mo1 Rb1 130.2(9) . 7 ?
F2 Mo1 Rb1 81.9(10) 3 7 ?
O1 Mo1 Rb1 142.4(2) . 7 ?
Rb1 Mo1 Rb1 81.10(2) . 7 ?
Rb1 Mo1 Rb1 151.68(9) 3 7 ?
F3 Mo1 Rb1 39.1(5) . 5_455 ?
O3 Mo1 Rb1 61.9(13) 3 5_455 ?
O3 Mo1 Rb1 114.7(9) . 5_455 ?
F2 Mo1 Rb1 81.9(10) . 5_455 ?
F2 Mo1 Rb1 130.2(9) 3 5_455 ?
O1 Mo1 Rb1 142.4(2) . 5_455 ?
Rb1 Mo1 Rb1 151.68(9) . 5_455 ?
Rb1 Mo1 Rb1 81.10(2) 3 5_455 ?
Rb1 Mo1 Rb1 70.58(8) 7 5_455 ?
I1A F1 I1B 15.2(4) . . ?
I1A F1 Rb1 120.4(15) . 3 ?
I1B F1 Rb1 121.9(16) . 3 ?
I1A F1 Rb1 123.5(14) . 2_544 ?
I1B F1 Rb1 117.2(13) . 2_544 ?
Rb1 F1 Rb1 115.4(5) 3 2_544 ?
Mo1 F2 Rb1 143.7(13) . 8_445 ?
Mo1 F2 Rb1 111.3(8) . 3 ?
Rb1 F2 Rb1 101.2(7) 8_445 3 ?
I1A O1 I1B 15.8(4) . . ?
I1A O1 Mo1 136.2(13) . . ?
I1B O1 Mo1 152.0(14) . . ?
I1A O2 I1B 4.0(4) . . ?
I1A O2 Rb1 123.6(6) . 6_544 ?
I1B O2 Rb1 124.9(6) . 6_544 ?
I1A O2 Rb1 123.6(6) . 8_444 ?
I1B O2 Rb1 124.9(6) . 8_444 ?
Rb1 O2 Rb1 102.5(12) 6_544 8_444 ?
Mo1 O3 Rb1 148(2) . 6_544 ?
Mo1 O3 Rb1 107.2(11) . . ?
Rb1 O3 Rb1 94.7(9) 6_544 . ?
Mo1 O3 Rb1 91.6(13) . 7 ?
Rb1 O3 Rb1 105.3(8) 6_544 7 ?
Rb1 O3 Rb1 103.7(13) . 7 ?
Mo1 F3 Rb1 120.9(9) . 7 ?
Mo1 F3 Rb1 120.9(9) . 5_455 ?
Rb1 F3 Rb1 103.7(10) 7 5_455 ?
F2 Rb1 O3 138.6(8) 8_544 6_545 ?
F2 Rb1 F2 129.2(5) 8_544 3 ?
O3 Rb1 F2 81.7(8) 6_545 3 ?
F2 Rb1 F3 88.3(8) 8_544 5_545 ?
O3 Rb1 F3 63.1(9) 6_545 5_545 ?
F2 Rb1 F3 142.1(8) 3 5_545 ?
F2 Rb1 O2 76.4(8) 8_544 6_545 ?
O3 Rb1 O2 67.4(10) 6_545 6_545 ?
F2 Rb1 O2 106.8(8) 3 6_545 ?
F3 Rb1 O2 73.4(7) 5_545 6_545 ?
F2 Rb1 F1 69.7(9) 8_544 3 ?
O3 Rb1 F1 142.6(10) 6_545 3 ?
F2 Rb1 F1 95.7(7) 3 3 ?
F3 Rb1 F1 103.8(7) 5_545 3 ?
O2 Rb1 F1 146.1(8) 6_545 3 ?
F2 Rb1 F1 146.2(10) 8_544 2_545 ?
O3 Rb1 F1 66.0(11) 6_545 2_545 ?
F2 Rb1 F1 65.2(8) 3 2_545 ?
F3 Rb1 F1 86.9(6) 5_545 2_545 ?
O2 Rb1 F1 133.3(8) 6_545 2_545 ?
F1 Rb1 F1 79.0(3) 3 2_545 ?
F2 Rb1 O3 79.7(6) 8_544 . ?
O3 Rb1 O3 128.0(9) 6_545 . ?
F2 Rb1 O3 50.0(6) 3 . ?
F3 Rb1 O3 167.9(8) 5_545 . ?
O2 Rb1 O3 105.1(9) 6_545 . ?
F1 Rb1 O3 70.5(9) 3 . ?
F1 Rb1 O3 102.1(7) 2_545 . ?
F2 Rb1 O3 76.7(9) 8_544 7_545 ?
O3 Rb1 O3 99.4(7) 6_545 7_545 ?
F2 Rb1 O3 136.9(10) 3 7_545 ?
F3 Rb1 O3 46.1(8) 5_545 7_545 ?
O2 Rb1 O3 113.3(8) 6_545 7_545 ?
F1 Rb1 O3 57.8(6) 3 7_545 ?
F1 Rb1 O3 76.0(8) 2_545 7_545 ?
O3 Rb1 O3 127.8(9) . 7_545 ?
F2 Rb1 Mo1 104.8(5) 8_544 . ?
O3 Rb1 Mo1 108.3(8) 6_545 . ?
F2 Rb1 Mo1 26.7(4) 3 . ?
F3 Rb1 Mo1 165.4(5) 5_545 . ?
O2 Rb1 Mo1 115.5(6) 6_545 . ?
F1 Rb1 Mo1 75.6(4) 3 . ?
F1 Rb1 Mo1 78.6(4) 2_545 . ?
O3 Rb1 Mo1 25.6(4) . . ?
O3 Rb1 Mo1 130.0(6) 7_545 . ?
F2 Rb1 Mo1 86.2(6) 8_544 5_545 ?
O3 Rb1 Mo1 76.2(6) 6_545 5_545 ?
F2 Rb1 Mo1 142.4(6) 3 5_545 ?
F3 Rb1 Mo1 20.0(6) 5_545 5_545 ?
O2 Rb1 Mo1 92.3(6) 6_545 5_545 ?
F1 Rb1 Mo1 84.4(4) 3 5_545 ?
F1 Rb1 Mo1 78.1(4) 2_545 5_545 ?
O3 Rb1 Mo1 154.2(7) . 5_545 ?
O3 Rb1 Mo1 26.6(4) 7_545 5_545 ?
Mo1 Rb1 Mo1 151.68(9) . 5_545 ?
F2 Rb1 I1A 93.0(7) 8_544 6_545 ?
O3 Rb1 I1A 58.0(8) 6_545 6_545 ?
F2 Rb1 I1A 86.6(6) 3 6_545 ?
F3 Rb1 I1A 86.1(6) 5_545 6_545 ?
O2 Rb1 I1A 20.8(5) 6_545 6_545 ?
F1 Rb1 I1A 159.5(6) 3 6_545 ?
F1 Rb1 I1A 120.0(6) 2_545 6_545 ?
O3 Rb1 I1A 96.2(8) . 6_545 ?
O3 Rb1 I1A 130.6(6) 7_545 6_545 ?
Mo1 Rb1 I1A 99.36(8) . 6_545 ?
Mo1 Rb1 I1A 106.12(7) 5_545 6_545 ?
loop_
_geom_bond_atom_site_label_1
_geom_bond_atom_site_label_2
_geom_bond_distance
_geom_bond_site_symmetry_2
_geom_bond_publ_flag
I1A I1B 0.535(13) . ?
I1A O1 1.82(2) . ?
I1A O2 1.82(4) . ?
I1A F1 1.978(16) 3 ?
I1A F1 1.978(16) . ?
I1A Rb1 4.272(4) 6_544 ?
I1A Rb1 4.272(4) 8_444 ?
I1B O1 1.95(3) . ?
I1B F1 2.036(19) 3 ?
I1B F1 2.036(19) . ?
I1B O2 2.34(4) . ?
Mo1 F3 1.61(3) . ?
Mo1 O3 1.80(3) 3 ?
Mo1 O3 1.80(3) . ?
Mo1 F2 1.92(2) . ?
Mo1 F2 1.92(2) 3 ?
Mo1 O1 2.30(2) . ?
Mo1 Rb1 3.990(3) . ?
Mo1 Rb1 3.990(3) 3 ?
Mo1 Rb1 4.031(3) 7 ?
Mo1 Rb1 4.031(3) 5_455 ?
F1 Rb1 3.02(3) 3 ?
F1 Rb1 3.03(3) 2_544 ?
F2 Rb1 2.78(2) 8_445 ?
F2 Rb1 2.87(2) 3 ?
O2 Rb1 2.99(2) 6_544 ?
O2 Rb1 2.99(2) 8_444 ?
O3 Rb1 2.86(3) 6_544 ?
O3 Rb1 3.07(3) . ?
O3 Rb1 3.56(4) 7 ?
F3 Rb1 2.96(2) 7 ?
F3 Rb1 2.96(2) 5_455 ?
