#------------------------------------------------------------------------------
#$Date: 2020-06-24 01:22:36 +0300 (Wed, 24 Jun 2020) $
#$Revision: 253374 $
#$URL: file:///home/coder/svn-repositories/cod/cif/4/00/35/4003588.cif $
#------------------------------------------------------------------------------
#
# This file is available in the Crystallography Open Database (COD),
# http://www.crystallography.net/
#
# All data on this site have been placed in the public domain by the
# contributors.
#
data_4003588
loop_
_publ_author_name
'Gai, Minqiang'
'Tong, Tinghao'
'Wang, Ying'
'Yang, Zhihua'
'Pan, Shilie'
_publ_section_title
;
 New Alkaline-Earth Metal Fluoroiodates Exhibiting Large Birefringence and
 Short Ultraviolet Cutoff Edge with Highly Polarizable (IO3F)2-- Units
;
_journal_name_full               'Chemistry of Materials'
_journal_paper_doi               10.1021/acs.chemmater.0c01452
_journal_year                    2020
_chemical_formula_moiety         'Ba F4 I2 O4'
_chemical_formula_sum            'Ba F4 I2 O4'
_chemical_formula_weight         531.14
_chemical_name_systematic        Ba(IO2F2)2
_space_group_crystal_system      monoclinic
_space_group_IT_number           14
_space_group_name_Hall           '-P 2ybc'
_space_group_name_H-M_alt        'P 1 21/c 1'
_atom_sites_solution_primary     direct
_audit_creation_date             2020-01-15
_audit_creation_method
;
Olex2 1.2
(compiled 2018.05.29 svn.r3508 for OlexSys, GUI svn.r5506)
;
_cell_angle_alpha                90
_cell_angle_beta                 93.748(4)
_cell_angle_gamma                90
_cell_formula_units_Z            4
_cell_length_a                   10.747(4)
_cell_length_b                   7.161(3)
_cell_length_c                   9.086(3)
_cell_measurement_reflns_used    1642
_cell_measurement_temperature    296(2)
_cell_measurement_theta_max      27.46
_cell_measurement_theta_min      2.84
_cell_volume                     697.8(5)
_computing_cell_refinement       'SAINT v8.34A (Bruker, 2013)'
_computing_data_reduction        'SAINT v8.34A (Bruker, 2013)'
_computing_molecular_graphics    'Olex2 (Dolomanov et al., 2009)'
_computing_publication_material  'Olex2 (Dolomanov et al., 2009)'
_computing_structure_refinement  'ShelXL (Sheldrick, 2015)'
_computing_structure_solution    'ShelXS-1997 (Sheldrick, 2008)'
_diffrn_ambient_temperature      296
_diffrn_measured_fraction_theta_full 0.995
_diffrn_measured_fraction_theta_max 0.993
_diffrn_measurement_device_type  'Bruker APEX-II CCD'
_diffrn_measurement_method       '\f and \w scans'
_diffrn_radiation_type           MoK\a
_diffrn_radiation_wavelength     0.71073
_diffrn_reflns_av_R_equivalents  0.0339
_diffrn_reflns_av_unetI/netI     0.0419
_diffrn_reflns_Laue_measured_fraction_full 0.995
_diffrn_reflns_Laue_measured_fraction_max 0.993
_diffrn_reflns_limit_h_max       9
_diffrn_reflns_limit_h_min       -14
_diffrn_reflns_limit_k_max       9
_diffrn_reflns_limit_k_min       -8
_diffrn_reflns_limit_l_max       11
_diffrn_reflns_limit_l_min       -11
_diffrn_reflns_number            4192
_diffrn_reflns_point_group_measured_fraction_full 0.995
_diffrn_reflns_point_group_measured_fraction_max 0.993
_diffrn_reflns_theta_full        25.242
_diffrn_reflns_theta_max         27.578
_diffrn_reflns_theta_min         1.899
_diffrn_standards_number         0
_exptl_absorpt_coefficient_mu    14.588
_exptl_absorpt_correction_T_max  0.7456
_exptl_absorpt_correction_T_min  0.4073
_exptl_absorpt_correction_type   multi-scan
_exptl_absorpt_process_details
'SADABS-2014/5 (Bruker,2014/5) was used for absorption correction. wR2(int) was 0.1204 before and 0.0447 after correction. The Ratio of minimum to maximum transmission is 0.5463. The \l/2 correction factor is 0.00150.'
_exptl_crystal_colour            'clear colourless'
_exptl_crystal_colour_lustre     clear
_exptl_crystal_colour_primary    colourless
_exptl_crystal_density_diffrn    5.056
_exptl_crystal_description       block
_exptl_crystal_F_000             920
_exptl_crystal_size_max          0.18
_exptl_crystal_size_mid          0.122
_exptl_crystal_size_min          0.105
_refine_diff_density_max         1.130
_refine_diff_density_min         -1.703
_refine_diff_density_rms         0.306
_refine_ls_extinction_method     none
_refine_ls_goodness_of_fit_ref   1.085
_refine_ls_hydrogen_treatment    undef
_refine_ls_matrix_type           full
_refine_ls_number_parameters     100
_refine_ls_number_reflns         1595
_refine_ls_number_restraints     0
_refine_ls_restrained_S_all      1.085
_refine_ls_R_factor_all          0.0335
_refine_ls_R_factor_gt           0.0280
_refine_ls_shift/su_max          0.000
_refine_ls_shift/su_mean         0.000
_refine_ls_structure_factor_coef Fsqd
_refine_ls_weighting_details
'w=1/[\s^2^(Fo^2^)+(0.0201P)^2^+0.6298P] where P=(Fo^2^+2Fc^2^)/3'
_refine_ls_weighting_scheme      calc
_refine_ls_wR_factor_gt          0.0590
_refine_ls_wR_factor_ref         0.0611
_reflns_Friedel_coverage         0.000
_reflns_number_gt                1385
_reflns_number_total             1595
_reflns_threshold_expression     'I > 2\s(I)'
_cod_data_source_file            cm0c01452_si_007.cif
_cod_data_source_block           111111
_cod_original_cell_volume        697.7(4)
_cod_database_code               4003588
_shelx_shelxl_version_number     2014/7
_shelx_space_group_comment
;
The symmetry employed for this shelxl refinement is uniquely defined
by the following loop, which should always be used as a source of
symmetry information in preference to the above space-group names.
They are only intended as comments.
;
_olex2_refinement_description
;
;
_shelx_res_file
;
    111111.res created by SHELXL-2014/7

TITL 111111_a.res in P2(1)/c
REM Old TITL 111111 in P21/c #14
REM SHELXT solution in P2(1)/c: R1 0.049, Rweak 0.002, Alpha 0.019
REM <I/s> 0.765 for 121 systematic absences, Orientation as input
REM Formula found by SHELXT: O F7 I3
CELL 0.71073 10.7471 7.161 9.0858 90 93.748 90
ZERR 4 0.0038 0.0025 0.0032 0 0.004 0
LATT 1
SYMM -X,0.5+Y,0.5-Z
SFAC Ba F I O
UNIT 4 16 8 16

L.S. 10 0 0
PLAN  10
TEMP 23
list 4
fmap 2 53
acta
REM <olex2.extras>
REM <HklSrc "%.\\111111.hkl">
REM </olex2.extras>

WGHT    0.020100    0.629800
FVAR       0.20051
I1    3    0.548331    0.813605    0.363548    11.00000    0.00787    0.01088 =
         0.01118    0.00068    0.00062    0.00023
BA1   1    0.235578    0.689265    0.542168    11.00000    0.00875    0.01571 =
         0.01249   -0.00077    0.00045   -0.00049
I2    3    0.917752    0.750515    0.715992    11.00000    0.00941    0.01019 =
         0.01128   -0.00158    0.00088   -0.00094
F1    2    1.096119    0.855213    0.773980    11.00000    0.01053    0.01410 =
         0.02283   -0.00011    0.00093   -0.00317
F4    2    0.369079    0.714347    0.298969    11.00000    0.00504    0.02639 =
         0.01266    0.00288    0.00035   -0.00328
F2    2    0.756562    0.650122    0.641978    11.00000    0.00953    0.02111 =
         0.02656    0.00055   -0.00575   -0.00210
F3    2    0.709744    0.927032    0.431156    11.00000    0.01309    0.02181 =
         0.02082    0.00091   -0.00415   -0.00309
O4    4    0.494797    0.810410    0.544993    11.00000    0.01188    0.02053 =
         0.01488    0.00274    0.00780   -0.00323
O2    4    0.863061    0.985170    0.714208    11.00000    0.01510    0.01272 =
         0.02703   -0.00632    0.00110    0.00132
O1    4    0.973530    0.717223    0.537889    11.00000    0.01823    0.03292 =
         0.01281   -0.00560    0.00820    0.00267
O3    4    0.612222    0.586462    0.351410    11.00000    0.01772    0.01144 =
         0.02264   -0.00082   -0.00241    0.00467
HKLF 4

REM  111111_a.res in P2(1)/c
REM R1 =  0.0280 for    1385 Fo > 4sig(Fo)  and  0.0335 for all    1595 data
REM    100 parameters refined using      0 restraints

END

WGHT      0.0201      0.6298

REM Highest difference peak  1.130,  deepest hole -1.703,  1-sigma level  0.306
Q1    1   0.5000  0.5000  0.5000  10.50000  0.05    1.13
Q2    1   0.5502  0.8799  0.5748  11.00000  0.05    1.10
Q3    1   0.4073  0.8161  0.3059  11.00000  0.05    1.00
Q4    1   0.4198  0.7002  0.4792  11.00000  0.05    0.93
Q5    1   0.7942  0.9048  0.5577  11.00000  0.05    0.92
Q6    1   0.9148  0.6782  0.3979  11.00000  0.05    0.92
Q7    1   1.0925  0.7027  0.5145  11.00000  0.05    0.87
Q8    1   0.5234  0.6261  0.5220  11.00000  0.05    0.86
Q9    1   0.2578  0.8322  0.2341  11.00000  0.05    0.86
Q10   1   1.1044  0.7621  0.8653  11.00000  0.05    0.86
;
_shelx_res_checksum              66504
_shelx_hkl_file
;
   0   0   1    0.20    0.20
   0   0   1    0.90    0.50
   0   0   2  123.49    6.80
   0   0   3    1.00    1.00
   0   0   4  121.09    8.70
   0   0   5    0.50    1.10
   0   0   6    8.60    3.70
   0   0   7    1.90    2.60
   0   0   8   -0.20    1.80
   0   0   9   -0.10    2.50
   0   0  10  310.17   24.00
   0   0 -11    3.20    4.10
   0   1  -1   13.80    2.40
   0   1   1   19.10    3.00
   0  -1  -1   15.80    1.20
   0   1   2    0.80    1.10
   0   1  -2    1.80    1.40
   0   1   2    0.70    0.50
   0  -1  -2    1.50    0.50
   0   1   3  161.08    6.90
   0   1   3  164.88   10.00
   0   1  -3  158.18    9.40
   0  -1  -3  150.18    6.40
   0   1  -4  495.15   22.00
   0   1   4  467.15   22.20
   0  -1  -4  480.85   17.10
   0   1   5   71.79    9.20
   0   1  -5   69.49    8.60
   0  -1  -5   65.59    4.10
   0   1   6 4403.96  146.89
   0   1  -6 4244.68  145.59
   0  -1  -6 4336.67  136.79
   0   1  -7   17.50    5.40
   0   1   7   26.80    6.50
   0   1   8   49.90    9.80
   0   1  -8   75.09   12.00
   0   1  -9   27.90    7.70
   0   1   9   38.80    9.50
   0   1 -10   93.79   14.60
   0   1  10  107.79   16.50
   0   1  11    2.60    4.30
   0   1 -11   -1.20    3.80
   0   2   0 7537.85  251.67
   0  -2   0 8289.67  246.88
   0   2   1  310.77   12.60
   0   2  -1  353.36   17.00
   0   2   1  359.36   17.30
   0  -2  -1  355.76   12.90
   0   2   2   73.09    3.40
   0   2   2   76.49    8.80
   0   2  -2   84.99    7.50
   0  -2  -2   71.69    4.10
   0   2  -3 1411.36   53.29
   0   2   3 1477.15   46.70
   0   2   3 1398.06   53.99
   0  -2  -3 1480.75   47.30
   0   2  -4  183.18   13.30
   0   2   4  204.78    8.70
   0   2   4  206.18   14.00
   0  -2  -4  193.78    8.50
   0   2   5    4.10    3.10
   0   2  -5   -1.00    1.80
   0  -2  -5    1.60    0.80
   0   2   6    5.30    3.40
   0   2  -6    5.20    3.70
   0  -2  -6    6.40    1.60
   0   2   7   99.99   13.30
   0   2  -7   93.29   12.50
   0   2   8    0.70    3.10
   0   2  -8   -1.40    2.90
   0   2   9  407.06   28.30
   0   2  -9  412.86   28.00
   0   2 -10   96.79   16.20
   0   2  10   80.29   15.10
   0   2 -11   -2.40    4.90
   0   2  11   -1.40    4.50
   0   3   0    1.30    1.90
   0   3   0    0.20    0.40
   0   3   1  208.78    9.40
   0   3   1  205.68   14.30
   0   3  -1  225.88   14.80
   0  -3  -1  231.28   10.20
   0   3   2  223.18   15.20
   0   3  -2  188.08   13.80
   0   3   2  201.58    7.80
   0  -3  -2  211.58    9.50
   0   3  -3 1006.00   43.60
   0   3   3 1050.59   44.60
   0   3   3 1058.99   34.50
   0  -3  -3 1109.69   36.70
   0   3  -4    2.00    3.00
   0   3   4    1.20    2.10
   0   3   4    7.60    1.50
   0  -3  -4    4.40    1.40
   0   3   5  386.26   15.00
   0   3   5  384.26   23.80
   0   3  -5  368.56   23.10
   0  -3  -5  381.26   15.50
   0   3  -6 1552.84   64.19
   0   3   6 1537.15   64.59
   0  -3  -6 1579.44   52.39
   0   3   7  655.13   35.90
   0   3  -7  615.14   35.10
   0   3   8  142.69   18.90
   0   3  -8  182.28   21.80
   0   3  -9  109.89   17.60
   0   3   9  109.39   18.00
   0   3  10  116.59   19.30
   0   3 -10  131.39   20.00
   0   3  11   14.50    8.30
   0   3 -11    5.90    8.90
   0   4   0  706.33   24.60
   0   4   0  703.63   34.50
   0   4   1  666.13   34.10
   0   4  -1  683.43   34.50
   0   4   1  766.62   26.30
   0  -4  -1  712.33   27.20
   0   4  -2  491.15   27.30
   0   4   2  504.25   28.40
   0   4   2  510.85   18.00
   0  -4  -2  507.05   20.50
   0   4   3 1063.29   48.60
   0   4  -3 1135.59   48.30
   0  -4  -3 1059.09   38.40
   0   4   4  457.85   27.60
   0   4  -4  451.25   26.90
   0  -4  -4  460.05   18.80
   0   4   5   21.60    7.10
   0   4  -5    6.50    4.30
   0  -4  -5   26.80    4.10
   0   4  -6   26.60    7.90
   0   4   6   31.00    9.00
   0   4  -7  126.69   17.00
   0   4   7  150.18   19.60
   0   4  -8   25.40    9.40
   0   4   8   27.90    9.30
   0   4  -9  818.12   47.40
   0   4   9  866.41   48.70
   0   4  10   87.39   17.80
   0   4 -10   86.09   17.80
   0   5   0   -0.10    2.30
   0   5   0   -1.00    0.80
   0   5  -1   62.69   11.40
   0   5  -1   60.79    4.50
   0   5   1   56.69   10.70
   0   5  -2  119.59   15.40
   0   5   2  118.69   15.90
   0  -5  -2  126.79    8.60
   0   5  -3 1261.57   54.09
   0   5   3 1150.08   54.19
   0  -5  -3 1103.29   42.10
   0   5   4  717.93   39.40
   0   5  -4  715.83   38.50
   0  -5  -4  710.43   28.40
   0   5  -5  132.19   18.20
   0   5   5  119.49   17.40
   0  -5  -5  132.19    8.80
   0   5  -6   40.00   10.30
   0   5   6   41.70   10.90
   0   5  -7  457.25   31.50
   0   5   7  405.86   31.30
   0   5  -8  366.66   29.40
   0   5   8  344.47   29.20
   0   5   9  123.39   20.90
   0   5  -9  135.99   21.40
   0   6   0   68.89   12.80
   0   6   1  173.68   21.00
   0   6  -1  160.28   20.20
   0   6  -2  633.14   36.90
   0   6  -2  608.14   24.30
   0   6   2  624.94   37.40
   0   6   3  346.27   26.80
   0   6  -3  370.76   26.90
   0   6   4  339.87   26.70
   0   6  -4  331.97   26.00
   0  -6  -4  329.67   17.10
   0   6  -5   37.30   10.40
   0   6   5   17.50    7.20
   0  -6  -5   11.40    3.30
   0   6   6   94.09   17.50
   0   6  -6   93.79   16.60
   0   6  -7   48.80   12.00
   0   6   7   38.50   11.60
   0   6   8   38.00   12.20
   0   6  -8   50.99   13.00
   0   6  -9  257.97   30.40
   0   6   9  235.68   31.00
   0   7   0    4.30    4.20
   0   7   1    3.20    5.00
   0   7  -1    9.10    6.40
   0   7  -2  209.48   25.00
   0   7   2  209.08   26.50
   0   7  -3  111.49   18.00
   0   7   3   89.59   16.70
   0   7  -4  818.42   47.40
   0   7   4  821.72   48.50
   0   7  -5   30.50   10.10
   0   7   5   25.30    9.90
   0   7   6  169.48   26.10
   0   7  -6  130.99   20.50
   0   7   7   27.20   10.60
   0   7  -7   42.30   12.50
   0   8   0  230.78   26.70
   0   8  -1   -1.30    4.60
   0   8   1    3.00    5.50
   0   8   2  686.43   45.00
   0   8  -2  672.43   43.90
   0   8   3    5.00    7.20
   0   8  -3   -4.90    5.30
   0   8   4  272.97   32.00
   0   8  -4  280.27   31.10
   0   8   5   26.10   11.00
   0   8  -5   18.90   10.00
   0   8  -6   89.29   18.50
   0   8   6   56.69   15.60
   0   9   0    0.80    6.00
   0   9   1   -0.30    5.80
   0   9  -1   -0.30    5.10
   0   9   2  165.88   25.10
   0   9  -2  159.48   24.10
   0   9  -3   26.20   11.00
   0   9   3   23.00   11.50
   1   0 -11    3.10    4.50
  -1   0  10  278.17   22.90
  -1   0   9    1.00    2.90
  -1   0   8  221.88   17.50
  -1   0   7   -1.40    1.80
  -1   0   6  224.58   15.30
  -1   0   5   -0.70    1.00
  -1   0   5    0.60    0.70
  -1   0   4 8851.21  279.77
  -1   0   4 9038.79  283.87
  -1   0   3    1.40    1.00
  -1   0   3    0.10    0.50
  -1   0   2   42.50    3.70
  -1   0   2   44.30    2.90
  -1   0   1   -8.30    0.60
  -1   0   1   -8.20    0.50
  -1   0   0    0.20    0.40
   1   0   1    1.20    0.50
   1   0   2 1899.91   62.19
   1   0   3    0.20    0.80
   1   0   4   39.00    5.70
   1   0   5    2.10    2.00
   1   0   6  547.75   26.60
   1   0   7   -0.40    1.40
   1   0   9    1.40    2.60
   1   0  10  172.38   20.00
  -1   0 -11   11.60    5.50
   1   1 -11   11.40    6.40
  -1   1  11   14.10    7.10
   1   1 -10 1157.68   55.19
  -1   1  10 1185.88   57.09
   1   1  -9   16.50    5.80
  -1   1   9   10.60    5.10
  -1   1   8   93.79   13.60
   1   1  -8  105.39   14.00
  -1   1   7  254.07   18.10
   1   1  -7  247.38   17.70
  -1   1   6   19.70    3.60
  -1   1   6   20.20    5.40
   1   1  -6   18.40    5.30
  -1   1   5   40.00    4.50
   1   1  -5   30.20    5.70
  -1   1   5   36.70    6.70
   1  -1  -5   31.00    2.20
   1   1  -4 2120.79   74.69
  -1   1   4 2197.28   75.29
  -1   1   4 2184.18   70.29
   1  -1  -4 2120.49   67.79
  -1   1   3    4.50    1.20
   1   1  -3    3.10    1.60
  -1   1   3    2.00    1.50
   1  -1  -3    3.90    0.70
  -1  -1   3    2.30    1.00
  -1   1   2   80.49    5.90
   1   1  -2   84.19    6.00
   1  -1  -2   75.79    3.20
  -1  -1   2   74.89    4.30
  -1   1   1  123.09    6.90
   1   1  -1  129.89    7.50
  -1  -1   1  119.19    5.40
  -1  -1   1  130.59    5.40
   1   1   0   15.40    2.70
  -1   1   0   18.90    2.60
  -1   1   0   19.90    1.70
  -1  -1   0   18.50    1.50
  -1   1  -1  185.18    8.90
   1   1   1  192.28    9.80
  -1  -1  -1  197.18    7.60
  -1   1  -2 7189.48  225.58
   1   1   2 7067.49  226.58
  -1  -1  -2 7248.77  223.18
   1   1   3   18.20    3.60
  -1   1  -3   28.80    4.40
  -1  -1  -3   33.90    3.30
  -1   1  -4   62.99    7.50
   1   1   4   64.99    7.90
   1   1   5  259.17   15.80
  -1   1  -5  255.07   15.20
  -1   1  -6    6.10    3.40
   1   1   6   10.60    4.10
  -1  -1  -6   10.60    2.30
  -1   1  -7    8.20    3.80
   1   1   7    8.00    3.80
  -1  -1  -7   13.60    2.70
  -1   1  -8  347.57   22.70
   1   1   8  370.96   23.70
   1   1   9   14.10    5.80
  -1   1  -9    7.70    4.10
  -1   1 -10  106.29   15.80
   1   1  10   96.89   15.70
   1   1  11   57.89   12.40
  -1   1 -11   78.79   14.40
  -1   2  11  202.98   25.60
   1   2 -11  153.18   22.20
  -1   2  10  183.58   22.70
   1   2 -10  154.78   20.20
   1   2  -9   -2.50    3.30
  -1   2   9    6.40    4.90
  -1   2   8  157.88   19.00
   1   2  -8  129.39   16.80
   1   2  -7  223.48   17.60
  -1   2   7  210.58   17.40
   1   2  -6  124.99   14.40
  -1   2   6  104.79    7.00
  -1   2   6  108.89   13.00
  -1   2   5  162.48    8.40
   1   2  -5  158.98   12.80
  -1   2   5  139.59   12.00
   1  -2  -5  154.38    6.80
  -1   2   4 3662.93  116.39
   1   2  -4 3585.34  124.29
  -1   2   4 3742.73  124.19
   1  -2  -4 3661.83  115.19
   1   2  -3  302.47   17.20
  -1   2   3  348.07   17.70
  -1   2   3  331.27   12.60
   1  -2  -3  315.07   12.00
  -1   2   2  101.09    5.10
   1   2  -2   90.49    9.80
  -1   2   2  101.49    8.00
   1  -2  -2   91.59    4.70
   1   2  -1 2156.28   73.89
  -1   2   1 1928.91   69.49
  -1   2   1 2307.17   73.39
  -1  -2   1 2126.49   68.49
  -1   2   0   72.19    6.20
   1   2   0   68.99    8.20
  -1  -2   0   68.99    4.20
  -1   2  -1  128.59    8.80
   1   2   1  150.68   10.20
  -1  -2  -1  142.49    6.60
   1   2   2  522.45   24.10
  -1   2  -2  519.85   22.60
  -1  -2  -2  506.35   18.60
  -1   2  -3  109.99    9.00
   1   2   3  116.39    9.80
  -1  -2  -3  115.59    6.00
   1   2   4   39.50    7.10
  -1   2  -4   34.50    6.30
  -1  -2  -4   43.80    3.50
  -1   2  -5  432.36   22.90
   1   2   5  428.76   23.60
  -1  -2  -5  439.56   17.10
   1   2   6  178.98   15.00
  -1   2  -6  181.38   14.60
  -1  -2  -6  198.18    9.60
   1   2   7    4.40    3.40
  -1   2  -7    2.60    3.40
   1   2   8 1112.99   52.69
  -1   2  -8 1203.58   52.59
  -1   2  -9  269.97   21.90
   1   2   9  259.47   21.80
   1   2  10   75.99   14.40
  -1   2 -10   91.09   15.80
   1   2  11  129.19   20.70
  -1   2 -11  179.88   22.70
  -1   3  11  171.68   23.90
   1   3 -11  172.38   25.20
   1   3 -10  578.34   38.70
  -1   3  10  548.65   37.20
   1   3  -9   45.60   11.80
  -1   3   9   57.69   12.90
  -1   3   8   54.39   11.40
   1   3  -8   58.59   12.70
  -1   3   7 1241.68   54.79
   1   3  -7 1145.39   54.39
   1   3  -6  177.58   16.50
  -1   3   6  171.78    9.50
  -1   3   6  183.78   15.80
  -1   3   5  522.85   28.50
  -1   3   5  521.05   20.00
   1   3  -5  474.65   28.00
   1  -3  -5  545.25   19.60
   1   3  -4  282.87   19.10
  -1   3   4  303.67   12.40
  -1   3   4  324.97   19.80
   1  -3  -4  304.57   12.50
  -1   3   3    0.80    0.80
  -1   3   3    4.80    3.00
   1   3  -3    1.80    2.90
   1  -3  -3    0.10    0.60
   1   3  -2   14.90    4.80
  -1   3   2   17.70    5.00
  -1   3   2   27.40    3.40
   1  -3  -2   15.60    2.60
  -1   3   1  310.27   17.60
   1   3  -1  312.17   18.70
  -1   3   1  307.27   13.90
  -1  -3   1  315.57   13.50
  -1   3   0   31.70    6.10
   1   3   0   39.00    7.00
  -1   3   0   34.90    2.90
  -1  -3   0   34.30    4.00
  -1   3  -1 1314.87   50.09
   1   3   1 1296.77   41.90
  -1  -3  -1 1293.37   44.20
   1   3   2 1994.20   74.89
  -1   3  -2 2019.00   72.49
  -1  -3  -2 1994.50   65.89
  -1   3  -3 1249.28   49.90
   1   3   3 1284.77   52.29
  -1  -3  -3 1267.97   43.20
  -1   3  -4  538.85   27.10
   1   3   4  536.55   28.80
  -1  -3  -4  517.25   20.40
   1   3   5 1237.98   53.89
  -1   3  -5 1274.47   52.19
  -1  -3  -5 1233.98   43.10
   1   3   6  284.77   21.10
  -1   3  -6  325.67   21.60
  -1  -3  -6  289.47   13.40
  -1   3  -7   41.40    9.50
   1   3   7   28.10    8.20
   1   3   8  309.97   23.90
  -1   3  -8  313.77   24.20
   1   3   9   12.30    6.10
  -1   3  -9   19.70    8.50
   1   3  10   42.20   11.30
  -1   3 -10   49.70   13.60
  -1   3 -11  289.17   31.60
   1   3  11  296.27   32.70
   1   4 -10    7.30    7.80
  -1   4  10   -3.50    3.90
   1   4  -9   18.30    8.50
  -1   4   9    8.80    5.70
   1   4  -8   75.79   14.40
  -1   4   8   66.19   14.10
   1   4  -7   64.29   12.60
  -1   4   7  107.89   16.50
  -1   4   6  199.28   18.30
   1   4  -6  201.08   18.80
  -1   4   5  397.06   26.20
   1   4  -5  458.65   27.90
   1  -4  -5  413.46   17.40
  -1   4   4  545.15   29.90
   1   4  -4  463.75   28.50
   1  -4  -4  528.85   20.50
  -1   4   3  322.47   12.90
  -1   4   3  331.97   21.60
   1   4  -3  324.77   21.90
   1  -4  -3  335.67   14.50
  -1   4   2  589.94   22.50
   1   4  -2  553.34   30.20
  -1   4   2  552.64   29.60
  -1   4   1 2343.67   74.29
  -1   4   1 2175.38   81.49
   1   4  -1 2074.19   82.89
  -1   4   0  742.63   26.00
   1   4   0  697.73   35.30
  -1   4   0  715.53   34.00
  -1  -4   0  690.03   27.30
  -1   4  -1  140.79   12.40
   1   4   1  143.59    6.30
   1   4   1  103.89   13.90
  -1  -4  -1  125.29    8.00
  -1   4  -2  131.09   12.40
   1   4   2  167.18   18.60
  -1  -4  -2  159.98    9.00
  -1   4  -3    5.10    3.20
   1   4   3    3.70    3.40
  -1  -4  -3    1.70    1.40
  -1   4  -4    6.10    4.20
   1   4   4    5.80    3.70
  -1  -4  -4    2.00    1.30
  -1   4  -5  967.70   45.60
   1   4   5  974.80   48.20
  -1  -4  -5 1009.90   36.30
   1   4   6   56.39   11.80
  -1   4  -6   60.79   11.20
  -1  -4  -6   46.40    5.70
  -1   4  -7   74.59   13.20
   1   4   7   74.59   14.30
  -1   4  -8  142.79   19.50
   1   4   8  139.19   19.50
  -1   4  -9  466.75   33.20
   1   4   9  454.65   33.40
   1   4  10   99.99   18.90
  -1   4 -10  108.59   18.80
  -1   5   9    6.50    6.50
   1   5  -9   17.70    9.10
  -1   5   8  560.14   38.10
   1   5  -8  637.44   40.60
   1   5  -7 1118.79   56.59
  -1   5   7 1088.99   55.79
   1   5  -6  326.87   25.90
  -1   5   6  342.67   26.50
   1   5  -5  285.07   23.40
  -1   5   5  323.87   24.50
   1  -5  -5  311.57   14.90
  -1   5   4    9.00    5.00
   1   5  -4    6.20    4.50
   1   5  -3    1.10    3.20
  -1   5   3    0.60    2.40
  -1   5   2   -0.20    2.30
   1   5  -2   -0.40    2.20
   1   5  -1  419.06   27.00
  -1   5   1  376.76   24.50
  -1   5   1  412.26   18.90
  -1   5   0  341.17   15.10
   1   5   0  329.17   24.00
  -1   5   0  364.66   23.40
  -1   5  -1  340.27   22.60
   1   5   1  327.07   23.60
  -1   5  -1  320.97   14.20
  -1  -5  -1  318.47   15.90
   1   5   2   35.70    9.60
  -1   5  -2   34.00    4.40
  -1   5  -2   36.80    8.50
  -1  -5  -2   28.70    4.70
   1   5   3  640.74   36.00
  -1   5  -3  548.55   31.70
  -1  -5  -3  558.64   24.00
   1   5   4  829.52   43.90
  -1   5  -4  738.83   39.70
  -1  -5  -4  832.52   31.60
  -1   5  -5 1200.18   55.09
   1   5   5 1170.48   58.09
  -1  -5  -5 1175.28   43.70
  -1   5  -6  989.20   48.80
   1   5   6  977.60   52.09
  -1  -5  -6  951.10   37.10
  -1   5  -7   -1.10    3.90
   1   5   7   -2.30    4.10
   1   5   8  119.79   20.50
  -1   5  -8  110.49   17.90
   1   5   9   43.70   13.30
  -1   5  -9   34.30   11.70
   1   6  -9   12.50    7.90
  -1   6   9    1.10    5.60
  -1   6   8   15.10    7.90
   1   6  -8   17.20    8.30
  -1   6   7   40.40   11.80
   1   6  -7   30.50   10.30
  -1   6   6  176.88   23.50
   1   6  -6  195.28   23.80
   1   6  -5  136.89   19.40
  -1   6   5  177.08   23.00
   1   6  -4   29.50    9.50
  -1   6   4   38.40   10.60
  -1   6   3  109.89   16.50
   1   6  -2  758.72   42.50
  -1   6   2  729.53   40.70
  -1   6   1  696.73   38.80
   1   6  -1  756.92   42.00
   1   6   0  881.71   46.60
  -1   6   0  832.42   43.90
  -1   6  -1  124.09    9.60
   1   6   1  136.29   19.20
  -1   6  -1  123.39   16.70
   1   6   2   25.40    8.80
  -1   6  -2   28.10    8.50
  -1  -6  -2   28.70    5.40
  -1   6  -3    2.30    1.60
  -1   6  -3    6.00    4.20
   1   6   3   -0.60    2.80
  -1  -6  -3    3.00    1.70
  -1   6  -4    0.10    2.90
   1   6   4    4.90    4.60
  -1  -6  -4    1.30    1.90
  -1   6  -5  296.47   24.40
   1   6   5  285.07   26.10
  -1  -6  -5  319.57   16.80
   1   6   6  261.97   30.50
  -1   6  -6  229.18   25.60
   1   6   7   31.70   11.70
  -1   6  -7   20.80    7.80
   1   6   8   97.59   19.60
  -1   6  -8  100.49   17.80
  -1   7   7  119.09   21.10
  -1   7   6  356.46   30.80
   1   7  -6  367.66   31.00
  -1   7   5    7.30    6.20
   1   7  -5   10.70    6.80
  -1   7   4   68.79   14.10
   1   7  -4   45.00   11.60
  -1   7   3   12.10    7.20
   1   7  -3   11.90    7.20
   1   7  -2   16.70    8.50
  -1   7   2    4.10    5.10
  -1   7   1   54.19   12.30
   1   7  -1   39.10   12.10
  -1   7   0  358.26   27.30
   1   7   0  370.96   30.00
   1   7   1   19.70    8.40
  -1   7  -1   27.20    9.20
  -1   7  -2  269.67   23.40
   1   7   2  287.67   31.60
  -1   7  -3   28.80    9.00
   1   7   3   14.80    8.00
  -1  -7  -3   26.00    5.50
  -1   7  -4  528.15   24.50
  -1   7  -4  536.85   35.90
   1   7   4  561.04   39.50
  -1  -7  -4  583.64   26.60
  -1   7  -5   71.09   14.80
   1   7   5   79.09   17.40
  -1  -7  -5   76.59    9.60
  -1   7  -6  763.12   45.30
   1   7   6  650.13   46.10
   1   7   7    1.60    6.60
  -1   7  -7    1.70    5.10
   1   8  -6  151.68   24.30
  -1   8   6  182.68   26.30
  -1   8   5    3.30    5.40
   1   8  -5    0.50    5.50
  -1   8   4  106.29   19.60
   1   8  -4   84.29   17.40
   1   8  -3    4.00    6.30
  -1   8   3   -0.80    4.80
   1   8  -2 1133.79   62.29
  -1   8   2 1154.08   60.39
   1   8  -1   -3.30    4.80
  -1   8   1   -1.60    4.70
  -1   8   0  812.12   47.90
   1   8   0  951.50   53.49
  -1   8  -1   34.70   10.60
   1   8   1   16.50    9.50
  -1   8  -2   -1.00    3.50
   1   8   2    3.50    6.70
   1   8   3   -1.10    6.00
  -1   8  -3    0.60    5.10
   1   8   4    5.00    7.00
  -1   8  -4    1.20    6.50
  -1   8  -5    6.40    6.70
   1   8   5    2.50    5.90
  -1   9   3   22.70   11.60
   1   9  -2   24.70   11.40
  -1   9   2   17.80    9.10
  -1   9   1   12.80    8.60
   1   9  -1   16.40    8.70
  -1   9   0  218.68   28.60
   1   9   0  206.78   28.70
   1   9   1   31.50   13.10
  -1   9  -1   37.40   12.00
   1   9   2  114.19   22.20
  -1   9  -2  179.78   26.10
   2   0 -11    1.10    3.80
  -2   0  10   97.39   15.70
   2   0 -10   79.89   13.30
  -2   0   9    2.90    3.00
  -2   0   8 1312.97   56.29
  -2   0   7    0.00    1.90
  -2   0   7    1.40    1.30
  -2   0   6    1.50    1.40
  -2   0   6    3.20    2.30
  -2   0   5   -0.90    1.40
  -2   0   5   -3.80    1.50
  -2   0   4   88.79    5.80
  -2   0   4   79.89    7.10
  -2   0   3    0.80    1.00
  -2   0   3    0.70    0.60
  -2   0   2 6525.55  206.88
  -2   0   2 6628.34  205.58
  -2   0   1    0.80    0.60
  -2   0   1    0.90    0.70
  -2   0   0  150.58    7.70
  -2   0  -1  -12.20    0.80
   2   0   2   88.29    5.20
   2   0   3   -0.50    0.40
   2   0   4 2335.57   78.99
   2   0   5    1.20    1.20
   2   0   6   83.59    9.90
   2   0   7    3.40    2.70
   2   0   8   60.89   10.00
   2   0   9    0.90    2.50
  -2   0 -10  671.03   36.70
   2   0  10  683.23   37.40
  -2   0 -11   10.10    5.40
   2   1 -11   96.39   16.50
  -2   1  11  142.89   20.30
   2   1 -10   67.79   12.40
  -2   1  10   86.89   15.20
   2   1  -9   30.70    7.70
  -2   1   9   42.20    9.80
   2   1  -8 1842.82   72.39
  -2   1   8 1776.62   72.29
  -2   1   7   49.60    6.40
  -2   1   7   49.70    9.30
   2   1  -7   33.50    7.20
  -2   1   6   13.30    4.70
   2   1  -6   13.20    4.30
  -2   1   5    0.50    2.10
  -2   1   5   -2.50    0.70
   2   1  -5    1.20    2.30
  -2  -1   5   -1.30    1.00
  -2   1   4  116.59    6.80
  -2   1   4  110.49    8.80
   2   1  -4  123.89    9.20
  -2  -1   4  104.29    6.90
  -2   1   3   38.70    3.40
   2   1  -3   47.30    6.00
  -2   1   3   48.90    6.20
  -2  -1   3   46.50    3.80
  -2   1   2 3907.61  122.09
  -2   1   2 3900.61  123.99
   2   1  -2 3736.13  124.39
  -2  -1   2 3856.91  120.59
  -2  -1   2 3857.01  121.79
  -2   1   1  155.08    7.70
  -2   1   1  146.19    8.00
   2   1  -1  159.98    8.70
  -2  -1   1  129.29    6.00
  -2  -1   1  158.28    6.60
   2   1   0   25.40    3.90
  -2   1   0   45.90    3.20
  -2   1   0   46.10    3.60
  -2  -1   0   40.90    2.80
  -2  -1   0   42.20    2.60
   2   1   1  708.53   27.40
  -2   1  -1  707.63   25.00
  -2   1  -1  741.03   25.60
  -2  -1  -1  713.23   25.10
  -2  -1  -1  749.03   24.80
  -2   1  -2   27.20    3.80
  -2  -1  -2   30.80    3.20
  -2  -1  -2   30.70    2.00
   2   1   3    8.40    2.60
  -2   1  -3    8.70    2.50
  -2   1  -4 2431.86   80.69
   2   1   4 2321.57   81.79
  -2   1  -5    1.30    1.60
   2   1   5    1.90    1.50
   2   1   6  445.76   23.40
  -2   1  -6  404.96   22.00
   2   1   7   77.19   11.30
  -2   1  -7   64.99    9.70
  -2   1  -8  430.16   25.10
   2   1   8  418.66   25.50
   2   1   9    3.80    3.60
  -2   1  -9    4.50    3.40
  -2   1 -10  625.24   36.10
   2   1  10  649.83   37.30
   2   1  11   86.19   14.60
  -2   1 -11   50.89   11.50
  -2   2  11   18.70    8.80
   2   2 -11   30.20   10.20
  -2   2  10   58.99   12.90
   2   2 -10   51.89   12.60
  -2   2   9    1.70    3.60
   2   2  -9    1.30    4.70
  -2   2   8  653.43   27.30
   2   2  -8  587.14   34.20
  -2   2   8  661.33   35.40
  -2   2   7   88.69   12.50
  -2   2   7   94.39    7.40
   2   2  -7  112.59   14.60
  -2   2   6   12.10    4.60
  -2   2   6   18.70    3.50
   2   2  -6   13.00    5.10
  -2   2   5 1494.85   50.29
  -2   2   5 1525.35   57.39
   2   2  -5 1449.95   57.39
   2  -2  -5 1410.16   47.00
  -2   2   4   43.40    6.90
   2   2  -4   39.30    7.00
  -2  -2   4   52.89    5.70
  -2   2   3  361.76   18.90
   2   2  -3  407.76   20.40
  -2  -2   3  384.06   15.90
   2   2  -2 2026.70   73.49
  -2   2   2 2090.09   72.19
  -2  -2   2 2085.79   68.09
  -2  -2   2 2193.18   68.39
  -2   2   1   30.40    4.80
   2   2  -1   31.80    5.90
  -2   2   1   27.30    4.30
  -2  -2   1   27.10    3.10
  -2  -2   1   33.30    2.60
   2   2   0  430.86   21.50
  -2   2   0  480.35   19.90
  -2   2   0  476.25   17.80
  -2  -2   0  448.36   17.00
  -2  -2   0  456.35   15.60
  -2   2  -1   16.20    2.30
   2   2   1   17.80    4.20
  -2   2  -1   20.30    3.80
  -2  -2  -1   19.50    2.60
  -2   2  -2  258.77   13.30
   2   2   2  232.98   14.60
  -2  -2  -2  242.18   10.70
   2   2   3    3.80    2.60
  -2   2  -3   11.60    3.30
  -2  -2  -3    5.20    1.60
   2   2   4  948.11   40.40
  -2   2  -4  956.10   38.80
  -2  -2  -4  975.80   34.00
  -2   2  -5  578.64   27.80
   2   2   5  577.74   28.80
  -2  -2  -5  587.24   22.50
   2   2   6   27.20    6.70
  -2   2  -6   45.90    8.40
  -2  -2  -6   28.60    4.10
   2   2   7  662.03   34.80
  -2   2  -7  755.52   35.20
  -2  -2  -7  664.63   26.60
   2   2   8    4.70    4.60
  -2   2  -8    2.70    4.00
   2   2   9   -0.20    2.70
  -2   2  -9    0.30    4.20
  -2   2 -10  468.75   31.50
   2   2  10  471.75   31.70
  -2   2 -11    9.00    7.30
   2   2  11    0.50    4.50
   2   3 -11  532.65   39.70
  -2   3  11  594.54   39.40
  -2   3  10  185.58   24.40
   2   3 -10  117.39   20.10
  -2   3   9  409.96   29.20
   2   3  -9  386.46   29.90
  -2   3   8  566.14   32.90
   2   3  -8  480.25   32.60
   2   3  -7   85.49   14.10
  -2   3   7   79.69   12.90
  -2   3   6    6.70    2.10
  -2   3   6    5.60    3.30
   2   3  -6    5.60    5.30
  -2   3   5   58.69    4.70
   2   3  -5   55.69   10.20
  -2   3   5   46.20    8.60
   2   3  -4    1.80    3.00
  -2   3   4    0.50    1.00
  -2   3   4    3.70    3.10
  -2   3   3  249.48   16.30
   2   3  -3  276.97   18.10
  -2   3   3  275.77   12.10
  -2   3   2 1178.28   41.70
  -2   3   2 1154.48   45.80
   2   3  -2 1185.28   48.10
  -2  -3   2 1119.39   40.20
  -2   3   1 1553.44   55.29
  -2   3   1 1601.74   58.39
   2   3  -1 1583.04   60.89
  -2  -3   1 1569.34   53.09
  -2   3   0  865.61   35.00
  -2   3   0  880.71   30.60
   2   3   0  791.82   37.20
  -2  -3   0  838.12   30.50
   2   3   1 2872.71  105.59
  -2   3  -1 2995.60   96.19
  -2   3  -1 3018.50  101.99
  -2  -3  -1 3057.79   96.79
  -2   3  -2  376.66   19.20
  -2   3  -2  364.26   15.00
   2   3   2  337.67   21.30
  -2  -3  -2  349.67   15.10
  -2   3  -3  139.19   11.10
  -2  -3  -3  136.69    7.80
  -2   3  -4 1346.67   51.79
   2   3   4 1217.38   54.19
  -2  -3  -4 1329.67   45.30
   2   3   5  160.28   15.10
  -2   3  -5  193.68   15.20
  -2  -3  -5  194.78   10.20
   2   3   6  216.88   18.00
  -2   3  -6  217.58   17.30
  -2  -3  -6  229.28   11.70
   2   3   7  111.89   15.80
  -2   3  -7  140.39   16.50
  -2  -3  -7  155.28    9.20
   2   3   8  140.29   18.70
  -2   3  -8  120.59   16.80
  -2   3  -9   -1.20    4.90
   2   3   9    7.60    5.70
  -2   3 -10   81.09   16.00
   2   3  10   47.80   12.70
  -2   4  10   45.20   12.20
   2   4 -10   23.10   10.20
  -2   4   9   17.20    7.30
   2   4  -9   19.30    8.70
   2   4  -8  156.38   21.70
  -2   4   8  198.88   23.70
   2   4  -7  107.19   16.50
  -2   4   7  103.99   15.80
  -2   4   6  339.87   23.80
   2   4  -6  338.37   25.10
  -2   4   5 1773.72   69.09
   2   4  -5 1556.74   68.59
  -2   4   4  372.86   23.20
   2   4  -4  364.86   24.20
  -2   4   4  350.36   15.00
   2   4  -3  556.34   31.60
  -2   4   3  571.54   29.80
  -2   4   3  618.44   23.20
  -2   4   2  287.97   18.50
  -2   4   2  254.07   14.00
   2   4  -2  278.37   19.80
  -2   4   1  225.68   12.80
  -2   4   1  242.48   16.30
   2   4  -1  233.38   18.00
  -2  -4   1  221.78   11.80
   2   4   0  251.37   19.00
  -2   4   0  252.37   16.80
  -2  -4   0  254.17   12.70
  -2   4  -1    5.70    1.80
  -2   4  -1    4.70    3.00
   2   4   1   12.00    5.10
  -2  -4  -1    3.30    1.80
  -2   4  -2   21.90    5.60
  -2   4  -2   20.80    3.30
   2   4   2   23.40    7.50
  -2  -4  -2   20.50    3.60
   2   4   3  186.08   16.90
  -2   4  -3  179.18   14.10
  -2  -4  -3  162.88    9.70
  -2   4  -4   36.70    7.80
   2   4   4   60.79   11.30
  -2  -4  -4   59.99    6.30
  -2   4  -5 1011.50   44.40
   2   4   5  895.21   46.70
  -2  -4  -5  938.11   35.40
   2   4   6  212.98   19.70
  -2   4  -6  186.98   17.10
  -2  -4  -6  206.88   11.60
   2   4   7 1054.79   55.59
  -2   4  -7 1290.87   55.69
   2   4   8  208.18   24.50
  -2   4  -8  243.58   21.50
   2   4   9    9.40    6.10
  -2   4  -9    6.10    5.90
  -2   4 -10  140.89   21.20
   2   4  10  146.09   23.20
  -2   5   9  352.76   29.20
   2   5  -9  297.37   32.70
   2   5  -8   -5.00    4.70
  -2   5   8    5.90    4.80
  -2   5   7   39.30   10.30
   2   5  -7   18.00    8.00
  -2   5   6   34.60    9.30
   2   5  -6   40.90   10.90
  -2   5   5   73.19   12.80
   2   5  -5   24.10    8.70
   2   5  -4   43.40   10.10
  -2   5   4   51.29   10.20
   2   5  -3   24.60    7.60
  -2   5   3   16.60    5.90
   2   5  -2    5.60    4.20
  -2   5   2    4.60    3.80
  -2   5   1  377.16   18.30
  -2   5   1  328.17   21.90
   2   5  -1  358.06   25.10
  -2  -5   1  310.17   16.50
   2   5   0  936.71   47.50
  -2   5   0  953.70   35.80
  -2   5   0  942.01   43.90
  -2  -5   0  993.00   37.10
   2   5   1 2540.85  100.29
  -2   5  -1 2495.85   84.99
  -2   5  -1 2622.94   95.59
  -2  -5  -1 2636.54   87.09
  -2   5  -2 1783.52   60.69
  -2   5  -2 1776.12   70.39
  -2  -5  -2 1753.42   61.79
  -2   5  -3   45.00    5.70
  -2   5  -3   41.70    8.80
   2   5   3   44.40   10.90
  -2  -5  -3   45.40    6.20
  -2   5  -4  230.08   18.40
   2   5   4  210.08   24.60
  -2  -5  -4  227.98   13.00
   2   5   5   95.49   16.90
  -2   5  -5   85.09   13.50
  -2  -5  -5   85.99    8.70
   2   5   6  146.09   21.30
  -2   5  -6  167.88   19.80
  -2  -5  -6  179.08   11.20
  -2   5  -7   75.09   13.50
   2   5   7   46.00   13.00
   2   5   8    3.60    5.40
  -2   5  -8    4.60    5.80
  -2   5  -9    4.20    6.20
   2   5   9   -2.00    4.80
  -2   6   8    4.60    5.20
   2   6  -8   -2.00    5.20
  -2   6   7   70.99   15.80
   2   6  -7   66.29   14.90
  -2   6   6  590.44   37.70
   2   6  -6  605.04   39.80
  -2   6   5  625.14   37.70
   2   6  -5  588.34   38.20
   2   6  -4  813.62   44.90
  -2   6   4  711.23   40.20
   2   6  -3  206.88   24.50
  -2   6   3  196.48   22.50
  -2   6   2   -0.10    2.40
   2   6  -2    0.30    3.60
  -2   6   1  103.39   14.60
   2   6  -1   85.99   14.90
  -2   6   0  132.09   16.80
   2   6   0  104.89   17.10
  -2  -6   0  111.99    9.30
   2   6   1    5.00    4.20
  -2   6  -1    6.30    2.30
  -2   6  -1    3.60    3.30
  -2  -6  -1    5.80    2.60
  -2   6  -2    9.20    2.80
   2   6   2    6.20    5.70
  -2   6  -2    5.00    4.00
  -2  -6  -2   13.70    3.90
   2   6   3   11.30    6.40
  -2   6  -3   12.70    3.30
  -2   6  -3   13.30    6.00
  -2  -6  -3   15.10    4.00
   2   6   4  219.08   26.90
  -2   6  -4  220.28   13.40
  -2   6  -4  251.57   21.10
  -2  -6  -4  247.38   14.40
   2   6   5  343.77   29.60
  -2   6  -5  366.26   26.70
  -2  -6  -5  407.96   19.80
  -2   6  -6  201.18   22.80
   2   6   6  254.07   31.00
  -2  -6  -6  231.28   14.30
   2   6   7  321.37   29.90
   2   6   8  431.16   36.40
  -2   6  -8  568.04   37.10
   2   7  -7    5.20    6.60
  -2   7   7    4.10    5.80
   2   7  -6   58.49   14.50
  -2   7   6   73.59   14.90
   2   7  -5   -0.70    5.30
  -2   7   5    3.50    4.90
   2   7  -4    9.50    6.60
  -2   7   4   11.80    6.40
   2   7  -3    0.70    3.30
  -2   7   3    0.70    3.50
   2   7  -2  147.19   21.20
  -2   7   2  164.98   21.30
  -2   7   1   13.70    6.10
   2   7  -1   16.70    8.50
  -2   7   0  668.93   37.50
   2   7   0  578.14   40.30
   2   7   1  175.78   24.00
  -2   7  -1  151.98   19.80
   2   7   2 1190.58   64.79
  -2   7  -2 1293.27   60.89
  -2  -7  -2 1386.06   51.39
  -2   7  -3    3.00    4.50
  -2   7  -3   10.20    3.40
   2   7   3   13.50    7.70
  -2  -7  -3    9.00    3.40
  -2   7  -4    1.60    2.00
   2   7   4    7.70    7.20
  -2   7  -4   -2.50    3.40
  -2  -7  -4    2.00    2.00
   2   7   5   13.80    8.00
  -2   7  -5    5.20    3.10
  -2   7  -5    8.10    5.90
  -2  -7  -5    3.00    2.90
  -2   7  -6   98.99   11.20
   2   7   6   63.59   16.90
  -2   7  -6   71.19   14.70
   2   7   7    7.10    6.90
  -2   7  -7   10.20    4.20
  -2   7  -7    0.50    5.90
  -2   8   5   10.00    7.10
   2   8  -5   -2.70    5.70
   2   8  -4  730.33   49.90
  -2   8   4  921.91   50.09
  -2   8   3    5.30    5.90
   2   8  -3   -0.80    5.70
  -2   8   2   71.09   14.70
   2   8  -2   67.59   16.30
   2   8  -1    4.90    6.80
  -2   8   1    0.60    4.50
  -2   8   0   84.79   15.50
   2   8   0   94.59   18.60
   2   8   1   -6.90    4.30
  -2   8  -1    2.20    4.70
   2   8   2   16.60    9.80
  -2   8  -2   22.40    8.50
   2   8   3    4.20    7.30
  -2   8  -3    6.30    5.70
  -2   8  -4  264.67   29.50
   2   8   4  219.58   30.90
  -2  -8  -4  277.47   18.00
   2   8   5    9.60    7.90
  -2   8  -5    7.10    6.40
  -2  -8  -5    6.70    3.60
   2   9  -2   49.40   14.40
  -2   9   2   49.00   13.60
  -2   9   1   46.60   14.00
   2   9  -1   37.00   12.50
  -2   9   0  485.85   35.60
   2   9   0  444.06   38.00
  -2   9  -1   50.89   13.20
   2   9   1   57.99   17.00
  -2   9  -2  649.83   42.70
   2   9   2  621.74   47.10
   3   0 -11    1.90    3.60
  -3   0  10    6.10    4.30
  -3   0   9    0.30    2.80
  -3   0   8   62.29    7.90
  -3   0   8   51.79   10.00
  -3   0   7    1.40    1.60
  -3   0   7    2.60    1.90
  -3   0   6 6076.49  200.88
  -3   0   6 6110.99  195.48
  -3   0   5   -0.40    1.20
  -3   0   5    2.20    1.30
  -3   0   4    1.50    1.50
  -3   0   4    6.80    2.10
  -3   0   3   -0.60    0.80
  -3   0   3   -1.50    0.60
  -3   0   2   58.69    2.90
  -3   0   2   57.09    4.50
  -3   0   2   60.69    4.50
  -3   0   1    0.80    0.60
  -3   0   1    1.50    1.00
  -3   0   0  732.33   27.90
  -3   0  -1    0.80    1.10
  -3   0  -2    2.10    1.10
   3   0   2    0.00    0.70
  -3   0  -3    1.30    1.00
   3   0   3    0.00    0.90
   3   0   4  488.45   20.90
   3   0   5    1.10    1.20
   3   0   6 4565.84  151.68
   3   0   7    0.80    1.80
   3   0   8  553.04   29.00
   3   0   9    1.60    2.70
  -3   0 -10  459.85   28.70
  -3   0 -11    1.00    4.20
  -3   1  11   29.70    9.20
   3   1 -11   21.90    8.60
   3   1 -10   50.19   11.80
  -3   1  10   48.70   11.00
   3   1  -9   55.39   11.30
  -3   1   9   57.99   11.80
  -3   1   8    8.70    4.60
  -3   1   8    5.60    2.70
   3   1  -8   12.00    4.90
  -3   1   7    2.00    1.70
   3   1  -7    2.10    2.60
  -3   1   7    2.00    2.30
  -3  -1   7    0.60    1.40
   3   1  -6  349.67   21.10
  -3   1   6  359.66   17.50
  -3   1   6  356.76   21.30
  -3  -1   6  462.55   19.30
  -3   1   5   25.10    4.00
  -3   1   5   36.20    6.40
   3   1  -5   25.30    5.50
  -3  -1   5   27.30    4.20
  -3   1   4    2.30    1.70
  -3   1   4    1.10    1.00
   3   1  -4    2.60    1.80
  -3  -1   4    2.90    1.40
  -3   1   3  375.86   16.00
  -3   1   3  398.46   17.70
   3   1  -3  371.96   17.90
  -3  -1   3  364.76   15.70
  -3  -1   3  379.46   13.80
  -3   1   2   94.49    6.40
  -3   1   2   96.69    6.50
   3   1  -2   91.09    6.90
  -3  -1   2   92.79    5.60
  -3  -1   2   93.59    4.70
  -3   1   1    9.90    1.90
   3   1  -1   11.00    2.70
  -3   1   1    7.80    2.40
  -3  -1   1    7.80    1.40
  -3  -1   1    9.90    1.90
   3   1   0 5885.01  198.08
  -3   1   0 6315.77  198.48
  -3   1   0 6198.88  195.18
  -3  -1   0 6383.16  195.78
  -3  -1   0 6481.15  196.48
  -3   1  -1   89.59    4.90
  -3   1  -1   92.79    5.60
   3   1   1   95.79    6.60
  -3  -1  -1   84.19    5.70
  -3  -1  -1   99.69    5.60
   3   1   2   61.69    5.40
  -3   1  -2   73.39    5.00
  -3   1  -2   71.09    4.70
  -3  -1  -2   66.39    4.90
  -3  -1  -2   62.99    4.00
   3   1   3   18.80    3.60
  -3   1  -3   14.60    3.00
  -3  -1  -3   19.10    2.50
  -3   1  -5   22.40    4.60
   3   1   5   37.20    6.30
  -3   1  -6  424.76   22.00
   3   1   6  442.96   23.10
   3   1   7   82.69   11.30
  -3   1  -7  115.99   12.80
  -3   1  -8    6.20    3.70
   3   1   8   10.00    4.20
  -3  -1  -8    3.20    2.10
   3   1   9  125.39   16.00
  -3   1  -9  146.09   17.00
  -3   1 -10  303.47   23.10
   3   1  10  303.07   23.10
   3   1  11   -0.90    3.00
  -3   1 -11   -2.90    4.80
   3   2 -11    6.30    6.40
  -3   2  11    2.90    4.80
   3   2 -10    5.90    6.20
  -3   2  10   17.80    7.30
  -3   2   9  490.75   23.40
   3   2  -9  467.15   30.90
  -3   2   9  453.35   29.70
  -3   2   8   51.69   10.30
  -3   2   8   59.39    7.60
   3   2  -8   35.80    9.10
  -3   2   7  217.68   17.30
   3   2  -7  211.68   17.70
  -3   2   7  252.87   13.50
  -3   2   6 2858.61   94.89
  -3   2   6 2946.01  102.39
   3   2  -6 2842.92  103.09
  -3  -2   6 2784.92   96.29
  -3   2   5  311.07   18.80
  -3   2   5  334.97   15.20
   3   2  -5  322.17   19.90
  -3  -2   5  329.17   16.00
   3   2  -4  189.28   14.00
  -3   2   4  184.88   12.70
  -3   2   4  199.18   10.30
  -3  -2   4  180.98   10.30
   3   2  -3  718.13   31.00
  -3   2   3  752.12   27.00
  -3   2   3  671.93   29.00
  -3  -2   3  677.13   26.00
  -3  -2   3  666.93   24.80
  -3   2   2  322.67   15.80
   3   2  -2  323.77   17.60
  -3   2   2  336.27   16.10
  -3  -2   2  324.77   13.20
  -3  -2   2  323.37   13.60
   3   2  -1    6.00    2.70
  -3   2   1    0.70    1.00
  -3   2   1    3.80    2.10
  -3  -2   1    1.10    0.80
  -3  -2   1    1.30    0.80
  -3   2   0  267.67   12.70
   3   2   0  237.88   14.80
  -3   2   0  280.87   12.80
  -3  -2   0  252.37   11.20
  -3  -2   0  263.27   10.20
  -3   2  -1  521.65   21.70
  -3   2  -1  536.15   20.60
  -3  -2  -1  558.74   18.70
  -3  -2  -1  536.25   20.50
  -3   2  -2    9.00    2.60
  -3   2  -2    9.10    2.10
   3   2   2    7.10    3.00
  -3  -2  -2    6.00    1.80
  -3  -2  -2   10.70    2.00
  -3   2  -3 1745.03   56.89
  -3   2  -3 1698.33   59.29
   3   2   3 1608.34   61.99
  -3  -2  -3 1688.93   56.89
  -3  -2  -3 1686.43   54.19
   3   2   4  107.39   10.00
  -3   2  -4  126.79    9.90
  -3  -2  -4  124.79    7.70
  -3  -2  -4  121.99    5.90
  -3   2  -5   27.90    5.90
   3   2   5   26.50    6.40
  -3  -2  -5   30.90    4.60
  -3   2  -6 2277.17   81.69
   3   2   6 2185.38   82.79
  -3  -2  -6 2216.98   75.29
  -3   2  -7  207.68   16.30
   3   2   7  194.98   16.30
  -3  -2  -7  214.48   12.00
   3   2   8  290.17   21.30
  -3   2  -8  294.67   21.00
   3   2   9   11.50    5.50
  -3   2  -9    2.60    4.30
   3   2  10  428.46   29.80
  -3   2 -10  481.45   31.30
   3   2  11    1.00    3.80
  -3   2 -11    2.80    6.70
   3   3 -11   42.00   13.60
  -3   3  11   70.79   14.80
  -3   3  10    0.50    4.20
   3   3 -10   -2.10    6.10
  -3   3   9  362.26   27.00
   3   3  -9  395.16   29.90
  -3   3   8    3.80    3.80
   3   3  -8   -4.90    3.80
   3   3  -7    2.00    4.60
  -3   3   7   -0.30    1.10
  -3   3   7    6.10    4.10
   3   3  -6  185.68   19.90
  -3   3   6  166.88   14.60
  -3   3   5  335.47   20.40
   3   3  -5  313.97   21.80
   3   3  -4  212.78   16.70
  -3   3   4  250.87   16.30
  -3   3   3 1410.16   52.79
   3   3  -3 1342.07   54.79
  -3  -3   3 1316.77   46.80
  -3  -3   3 1355.56   47.20
   3   3  -2   41.90    8.00
  -3   3   2   41.70    6.80
  -3   3   2   22.20    4.50
  -3  -3   2   36.30    4.50
  -3  -3   2   21.20    3.20
   3   3  -1  366.76   21.50
  -3   3   1  360.36   18.40
  -3   3   1  342.37   18.40
  -3  -3   1  385.86   14.50
  -3  -3   1  362.66   15.70
   3   3   0 2489.55   94.09
  -3   3   0 2621.44   87.09
  -3   3   0 2735.83   90.09
  -3  -3   0 2670.83   86.09
  -3  -3   0 2621.24   83.29
  -3   3  -1 1273.17   48.60
   3   3   1 1257.17   53.39
  -3   3  -1 1298.47   45.30
  -3  -3  -1 1352.26   45.60
  -3  -3  -1 1340.67   41.60
  -3   3  -2  438.46   17.80
  -3   3  -2  436.06   20.80
   3   3   2  382.66   23.50
  -3  -3  -2  417.06   17.70
  -3   3  -3   80.39    6.10
   3   3   3   93.19   12.70
  -3   3  -3   71.39    8.90
  -3  -3  -3   76.69    5.90
   3   3   4  271.87   19.60
  -3   3  -4  311.37   17.90
  -3  -3  -4  289.47   14.00
  -3   3  -5   16.70    5.40
   3   3   5   16.10    5.90
  -3  -3  -5   20.80    3.90
   3   3   6    0.40    2.60
  -3   3  -6    0.60    3.20
  -3  -3  -6    2.80    1.90
   3   3   7  562.64   33.10
  -3   3  -7  620.84   32.50
  -3  -3  -7  567.74   24.60
  -3   3  -8    9.30    6.20
   3   3   8   10.30    5.70
   3   3   9  486.35   32.30
  -3   3  -9  485.55   31.70
  -3   3 -10    3.80    7.30
   3   3  10   11.80    6.80
  -3   4  10  139.89   21.20
   3   4 -10  174.68   24.80
  -3   4   9  467.75   32.40
   3   4  -9  452.85   34.10
   3   4  -8  195.58   23.60
  -3   4   8  216.48   24.30
  -3   4   7  357.26   24.90
   3   4  -7  321.57   25.70
   3   4  -6  316.77   24.30
  -3   4   6  352.06   23.40
  -3   4   5  347.27   15.80
  -3   4   5  351.16   22.70
   3   4  -5  317.17   23.90
  -3   4   4  391.66   17.60
   3   4  -4  392.76   25.60
  -3   4   4  398.36   23.70
   3   4  -3  751.42   38.60
  -3   4   3  767.42   30.70
  -3   4   3  781.52   35.50
  -3   4   2  231.68   14.50
   3   4  -2  232.28   18.30
  -3   4   2  246.08   16.50
  -3  -4   2  258.77   13.00
  -3   4   1   64.59    9.20
   3   4  -1   57.09   10.10
  -3  -4   1   62.29    6.60
   3   4   0    4.80    3.70
  -3   4   0    0.80    1.40
  -3   4   0    4.30    2.60
  -3  -4   0    2.30    1.50
  -3   4  -1  464.95   24.50
   3   4   1  521.65   30.00
  -3   4  -1  492.15   20.50
  -3  -4  -1  497.75   21.00
   3   4   2  232.08   19.10
  -3   4  -2  246.58   12.60
  -3   4  -2  257.47   16.50
  -3  -4  -2  253.87   13.00
  -3   4  -3 2274.47   74.19
  -3   4  -3 2296.17   80.39
   3   4   3 1946.31   84.49
  -3  -4  -3 2179.58   73.99
  -3   4  -4  303.07   19.60
  -3   4  -4  335.07   15.90
   3   4   4  291.77   22.30
  -3  -4  -4  315.37   15.60
   3   4   5   21.60    7.30
  -3   4  -5   20.10    6.00
  -3  -4  -5   22.90    4.20
  -3   4  -6  341.37   22.60
   3   4   6  296.87   24.00
  -3  -4  -6  316.47   16.20
   3   4   7  275.67   23.70
  -3   4  -7  309.87   22.90
  -3  -4  -7  326.37   16.40
   3   4   8  171.68   22.80
  -3   4  -8  172.98   20.30
  -3   4  -9    4.20    6.40
   3   4   9    9.10    7.10
   3   4  10  148.29   23.30
  -3   4 -10  149.59   24.90
   3   5  -9  261.17   29.90
  -3   5   9  280.97   25.40
   3   5  -8   -0.40    5.60
  -3   5   8    2.20    4.00
  -3   5   7   35.70    9.80
   3   5  -7   39.90   11.40
   3   5  -6   -0.30    4.60
  -3   5   6    2.60    3.50
  -3   5   5   61.09   11.20
   3   5  -5   77.49   14.00
  -3   5   4  446.96   27.20
   3   5  -4  424.96   29.40
   3   5  -3 1459.45   65.59
  -3   5   3 1520.95   61.69
   3   5  -2 1100.59   53.99
  -3   5   2 1217.28   50.49
  -3   5   2 1126.99   45.40
  -3  -5   2 1145.59   43.40
  -3   5   1  167.78   12.40
   3   5  -1  173.18   20.90
  -3   5   1  163.98   14.30
  -3  -5   1  170.38   11.00
   3   5   0  162.78   20.00
  -3   5   0  205.08   15.40
  -3   5   0  183.98   11.40
  -3  -5   0  162.58   10.90
   3   5   1  652.83   38.10
  -3   5  -1  688.13   33.80
  -3   5  -1  697.03   27.60
  -3  -5  -1  660.73   28.00
  -3   5  -2  591.54   29.70
  -3   5  -2  527.05   22.50
   3   5   2  462.55   31.80
  -3  -5  -2  512.15   23.20
  -3   5  -3  129.19    9.00
   3   5   3   89.09   15.50
  -3   5  -3  165.98   14.20
  -3  -5  -3  132.19    9.50
  -3   5  -4  174.28   11.00
  -3   5  -4  130.29   15.90
   3   5   4  134.29   18.90
  -3  -5  -4  174.88   11.10
  -3   5  -5    7.10    4.10
  -3   5  -5    2.20    2.10
   3   5   5    6.30    5.10
  -3  -5  -5   -0.20    1.40
  -3   5  -6  142.79   17.40
   3   5   6  142.89   21.10
  -3  -5  -6  122.49    9.60
  -3   5  -7  362.46   26.00
  -3  -5  -7  338.87   18.50
  -3   5  -8    1.70    4.70
   3   5   8    2.60    5.60
   3   5   9  518.25   38.30
   3   6  -8  346.37   31.20
  -3   6   8  387.46   30.20
  -3   6   7  103.29   17.90
   3   6  -7  122.49   19.90
   3   6  -6   31.50    9.80
  -3   6   6   50.79   11.90
  -3   6   5  116.99   17.20
   3   6  -5   82.39   15.10
  -3   6   4  405.56   27.00
   3   6  -4  369.96   29.00
  -3   6   3  186.68   17.50
   3   6  -3  222.18   25.40
   3   6  -2  156.28   21.30
  -3   6   2  167.88   19.00
   3   6  -1   -1.20    3.90
  -3   6   1    0.40    2.80
  -3  -6   1    1.50    1.70
  -3   6   0  362.66   23.60
   3   6   0  334.37   27.50
  -3   6   0  349.37   18.70
  -3  -6   0  373.16   19.20
  -3   6  -1  246.78   14.10
   3   6   1  234.98   27.00
  -3   6  -1  221.38   18.50
  -3  -6  -1  271.57   15.40
  -3   6  -2  218.98   13.10
  -3   6  -2  255.77   19.60
   3   6   2  244.18   28.30
  -3   6  -3  539.15   24.10
  -3   6  -3  571.34   32.10
   3   6   3  467.75   34.90
  -3  -6  -3  544.45   25.00
  -3   6  -4  874.41   35.40
  -3   6  -4  923.61   44.60
   3   6   4  773.62   48.20
  -3  -6  -4  885.91   36.30
  -3   6  -5   -0.20    2.00
  -3   6  -5   -0.60    3.30
   3   6   5    2.20    4.90
  -3  -6  -5    0.30    2.00
  -3   6  -6    6.80    3.40
  -3   6  -6    4.30    4.80
   3   6   6    9.90    7.50
  -3  -6  -6    5.50    2.70
  -3   6  -7  100.99   11.60
  -3   6  -7   94.99   15.70
   3   6   7   83.29   17.20
  -3   6  -8  195.38   24.30
   3   6   8  198.08   28.60
  -3   6  -8  189.08   14.70
   3   7  -7    2.30    5.50
  -3   7   7    1.20    5.50
   3   7  -6   37.00   12.40
  -3   7   6   31.40   10.10
  -3   7   5    6.80    5.80
   3   7  -5    6.20    6.50
   3   7  -4  393.66   32.40
  -3   7   4  402.16   28.50
   3   7  -3  153.58   23.50
  -3   7   3  159.28   20.30
   3   7  -2 1115.69   58.99
  -3   7   2 1018.30   51.39
   3   7  -1   13.70    7.20
  -3   7   1    5.60    4.90
   3   7   0   67.89   15.10
  -3   7   0   89.59   14.10
  -3  -7   0   75.49    9.90
   3   7   1   32.90   10.20
  -3   7  -1   34.00    9.10
  -3  -7  -1   24.10    5.20
  -3   7  -2  373.26   26.50
   3   7   2  383.86   31.40
  -3   7  -2  332.37   22.90
  -3  -7  -2  335.57   19.70
  -3   7  -3    5.30    2.90
  -3   7  -3    3.20    5.20
   3   7   3    9.90    7.00
  -3  -7  -3   10.10    3.70
  -3   7  -4   92.09   15.50
  -3   7  -4   58.19    8.10
   3   7   4   44.60   13.00
  -3  -7  -4   57.89    8.50
  -3   7  -5    2.90    4.80
   3   7   5    1.50    5.50
  -3   7  -5    0.80    2.30
  -3  -7  -5   -1.20    1.90
  -3   7  -6  391.96   21.80
   3   7   6  381.36   34.30
  -3  -7  -6  393.16   21.80
  -3   7  -7   68.39   14.50
  -3   7  -7   80.09   10.60
   3   7   7   79.39   18.60
  -3   8   5    2.70    5.00
   3   8  -5   -1.20    6.50
  -3   8   4  309.87   26.30
   3   8  -4  326.57   36.40
  -3   8   3    3.10    4.90
   3   8  -3    5.60    6.80
   3   8  -2   77.39   16.60
  -3   8   2   73.89   14.70
   3   8  -1    3.70    5.10
  -3   8   1    1.50    4.40
  -3   8   0  112.09   17.30
   3   8   0  161.18   24.50
  -3   8  -1   16.60    7.20
   3   8   1   25.00   11.40
   3   8   2  193.68   28.80
  -3   8  -2  203.98   24.40
  -3  -8  -2  167.38   14.00
   3   8   3   10.20    7.40
  -3   8  -3    7.20    6.30
  -3  -8  -3    5.90    3.80
  -3   8  -4  967.20   52.79
   3   8   4  921.91   59.19
  -3  -8  -4 1082.59   44.50
  -3   8  -5    3.20    3.50
  -3   8  -5   -1.70    5.50
   3   8   5    0.70    5.90
  -3  -8  -5    3.80    3.10
  -3   9   1   13.40    8.00
   3   9  -1   26.50   11.50
   3   9   0   73.99   17.30
  -3   9   0   45.10   12.20
   3   9   1   40.10   14.20
   4   0 -11    1.30    3.90
   4   0 -10 2659.63  103.19
   4   0  -9    2.70    2.70
  -4   0   9   -2.10    2.20
  -4   0   9    2.70    2.40
  -4   0   8   10.40    3.70
  -4   0   8   10.30    4.30
  -4   0   7   -0.30    1.70
  -4   0   7    1.00    1.50
  -4   0   6   19.40    4.00
  -4   0   6   15.50    4.60
  -4   0   5    1.50    1.60
  -4   0   5    1.10    1.20
  -4   0   4  132.59    9.70
  -4   0   4  129.39    8.60
  -4   0   3   -0.10    0.60
  -4   0   3   -0.50    0.80
  -4   0   3    2.00    0.70
  -4   0   2  160.08    9.30
  -4   0   2  159.78    8.50
  -4   0   2  163.78    7.10
  -4   0   1    1.80    1.50
   4   0  -1    0.40    0.60
  -4   0   0  790.12   30.80
  -4   0  -1   -1.40    1.00
  -4   0  -2 9255.97  300.97
   4   0   2 9999.00  299.17
   4   0   3    1.00    0.90
  -4   0  -3    0.90    0.90
   4   0   4  794.72   30.20
  -4   0  -4  793.32   28.90
   4   0   5    2.90    1.90
   4   0   6  118.59    9.70
   4   0   7    1.00    1.70
   4   0   8    9.10    4.00
  -4   0  -9    6.40    3.60
   4   1 -11    5.90    5.70
  -4   1  11    2.90    4.20
  -4   1  10   98.49   15.60
   4   1 -10   94.89   15.80
   4   1  -9    1.80    3.40
  -4   1   9    1.10    2.30
  -4   1   9    3.60    3.90
   4   1  -8    4.30    3.10
  -4   1   8    7.10    4.30
  -4   1   8   -0.30    1.50
  -4  -1   8   10.80    3.70
  -4   1   7   93.19   12.40
   4   1  -7   76.69   11.10
  -4   1   7   90.59    9.20
  -4  -1   7   80.79    9.00
   4   1  -6   48.10    8.10
  -4   1   6   43.00    6.00
  -4   1   6   55.39    8.80
  -4  -1   6   58.29    7.30
  -4   1   5  107.09    9.60
   4   1  -5  110.99    9.80
  -4   1   5   99.99    7.70
  -4  -1   5  117.49    8.30
  -4   1   4 5648.23  180.08
  -4   1   4 5441.76  177.58
   4   1  -4 5674.23  180.68
  -4  -1   4 5414.36  177.38
  -4   1   3  144.69    9.30
   4   1  -3  149.88    9.90
  -4   1   3  149.39    9.20
  -4  -1   3  131.49    8.20
  -4  -1   3  134.09    6.40
  -4   1   2   39.30    4.60
  -4   1   2   38.00    5.30
  -4  -1   2   39.20    3.00
  -4  -1   2   36.60    4.30
  -4   1   1   55.29    4.00
   4   1  -1   60.19    5.40
  -4   1   1   67.79    7.90
  -4  -1   1   63.19    4.90
  -4  -1   1   57.89    4.10
  -4   1   0  149.88    9.80
  -4   1   0  142.29    6.20
   4   1   0  146.59    8.80
  -4  -1   0  151.58    7.70
  -4  -1   0  143.29    8.50
   4   1   1   14.60    3.10
  -4   1  -1   12.50    2.20
  -4   1  -1   11.70    2.80
  -4  -1  -1   12.10    2.70
  -4  -1  -1   16.50    3.30
   4   1   2  190.48   10.40
  -4   1  -2  201.58    9.10
  -4   1  -2  201.98   10.10
  -4  -1  -2  211.88   10.00
   4   1   3   73.99    6.00
  -4   1  -3   66.29    5.10
  -4   1  -3   61.79    5.10
  -4  -1  -3   57.19    4.30
  -4   1  -4  143.59    9.20
  -4   1  -4  130.49    8.10
   4   1   4  140.59    9.60
  -4  -1  -4  154.78    7.70
   4   1   5  344.87   18.50
  -4   1  -5  355.66   17.90
  -4  -1  -5  367.16   15.10
   4   1   6 1175.98   48.10
  -4   1  -6 1265.27   47.80
  -4   1  -7    1.70    2.60
   4   1   7   -1.30    1.50
  -4   1  -8 1659.03   65.99
   4   1   8 1688.23   66.49
  -4  -1  -8 1708.83   61.59
  -4   1  -9   52.99    9.90
   4   1   9   64.19   10.80
   4   2 -11   73.89   16.00
  -4   2  11   90.79   17.00
   4   2 -10 1582.54   70.39
  -4   2  10 1518.75   67.99
  -4   2  10 1433.96   57.49
   4   2  -9   83.39   14.80
  -4   2   9  121.69   16.80
  -4   2   9  116.59   10.00
  -4   2   8   21.60    6.70
  -4   2   8   30.00    5.60
   4   2  -8   13.50    6.60
   4   2  -7  627.74   33.70
  -4   2   7  637.14   32.50
  -4   2   7  621.14   26.90
  -4  -2   7  606.74   28.00
   4   2  -6   82.39   12.00
  -4   2   6   64.79    7.40
  -4   2   6   81.39   11.40
  -4  -2   6   80.19    8.80
   4   2  -5    5.30    3.50
  -4   2   5   11.00    3.90
  -4   2   5    4.60    1.90
  -4  -2   5    7.80    2.60
  -4   2   4   79.89    6.70
  -4   2   4  108.19    9.00
   4   2  -4   83.29   10.70
  -4  -2   4   80.49    6.60
  -4   2   3   54.09    6.60
  -4   2   3   49.80    6.50
   4   2  -3   49.90    7.70
  -4  -2   3   64.59    5.20
  -4  -2   3   55.69    4.20
  -4   2   2    8.30    2.90
   4   2  -2    9.90    3.80
  -4   2   2   12.70    3.10
  -4  -2   2    9.20    2.10
  -4  -2   2    9.70    2.30
  -4   2   1 1695.33   56.39
   4   2  -1 1448.06   59.29
  -4   2   1 1719.53   60.19
  -4  -2   1 1670.73   54.79
  -4  -2   1 1696.33   55.19
   4   2   0  462.05   22.10
  -4   2   0  418.06   17.80
  -4   2   0  445.66   20.00
  -4  -2   0  423.06   17.60
  -4  -2   0  449.95   16.90
   4   2   1   47.30    7.00
  -4   2  -1   45.90    5.20
  -4   2  -1   53.69    4.50
  -4  -2  -1   44.30    3.70
  -4  -2  -1   46.20    5.00
  -4   2  -2 4475.95  145.49
  -4   2  -2 4650.94  145.89
   4   2   2 4540.65  150.58
  -4  -2  -2 4592.34  145.79
  -4  -2  -2 4478.95  144.49
   4   2   3  624.54   27.90
  -4   2  -3  601.84   24.70
  -4   2  -3  589.04   23.60
  -4  -2  -3  589.74   23.90
  -4  -2  -3  589.14   21.90
  -4   2  -4  337.77   17.60
  -4   2  -4  364.36   16.40
  -4  -2  -4  353.66   14.10
  -4  -2  -4  372.56   16.90
  -4   2  -5  159.28   12.20
   4   2   5  169.98   13.10
  -4  -2  -5  188.78    8.70
  -4  -2  -5  169.58   10.60
   4   2   6  409.66   23.60
  -4   2  -6  435.66   23.50
  -4  -2  -6  429.86   20.00
   4   2   7    3.20    3.10
  -4   2  -7    9.90    4.80
  -4  -2  -7    3.30    2.40
  -4   2  -8   33.30    8.80
   4   2   8   38.90    8.50
  -4  -2  -8   37.80    6.00
   4   2   9  203.98   18.00
   4   2  10   21.60   12.30
  -4   3  10    9.40    5.80
   4   3 -10    8.80    8.20
   4   3  -9   12.80    7.80
  -4   3   9   10.70    5.70
   4   3  -8   33.40   10.00
  -4   3   8   26.70    5.20
  -4   3   8   26.10    8.20
  -4   3   7  277.57   15.00
  -4   3   7  257.17   19.50
   4   3  -7  275.57   22.20
  -4   3   6   -1.10    1.20
   4   3  -6   -2.80    3.90
  -4   3   6    4.30    3.20
   4   3  -5  616.84   32.30
  -4   3   5  562.64   28.90
  -4   3   5  600.94   24.80
  -4  -3   5  556.24   25.00
  -4   3   4 2092.39   76.29
  -4   3   4 2071.39   72.29
   4   3  -4 2133.79   79.49
  -4  -3   4 2087.09   71.39
  -4   3   3  993.20   40.30
  -4   3   3 1058.69   39.60
   4   3  -3  977.30   43.50
  -4  -3   3  963.00   36.30
  -4  -3   3  989.70   36.00
  -4   3   2  440.06   21.30
   4   3  -2  464.85   25.10
  -4   3   2  406.46   21.70
  -4  -3   2  437.16   18.60
  -4  -3   2  472.15   18.40
  -4   3   1 1109.39   42.50
  -4   3   1 1070.09   40.50
   4   3  -1 1043.50   44.90
  -4  -3   1 1033.40   37.60
  -4  -3   1 1009.60   36.00
  -4   3   0  407.66   19.50
  -4   3   0  419.96   19.60
   4   3   0  421.66   23.90
  -4  -3   0  426.16   15.80
  -4  -3   0  418.46   17.90
  -4   3  -1    3.00    1.90
  -4   3  -1    7.00    2.40
   4   3   1    5.50    3.40
  -4  -3  -1    6.30    2.10
  -4  -3  -1    7.60    1.40
  -4   3  -2  243.18   12.50
   4   3   2  232.68   17.20
  -4   3  -2  238.98   13.80
  -4  -3  -2  253.17    9.30
  -4  -3  -2  246.98   12.60
  -4   3  -3  223.38   12.20
  -4   3  -3  251.37   14.40
   4   3   3  231.48   17.00
  -4  -3  -3  226.98   12.30
  -4   3  -4   14.50    3.30
  -4   3  -4   12.00    3.90
   4   3   4   18.30    5.90
  -4  -3  -4   15.60    3.60
  -4   3  -5  854.41   34.40
   4   3   5  916.71   42.30
  -4   3  -5  919.31   38.70
  -4  -3  -5  880.71   34.70
  -4   3  -6  161.38   13.90
   4   3   6  192.78   16.20
  -4  -3  -6  153.38   10.60
  -4   3  -7   22.80    6.40
   4   3   7   20.70    6.80
  -4  -3  -7   22.60    4.80
   4   3   8  363.86   25.00
  -4   3  -8  324.57   23.50
  -4  -3  -8  319.37   17.60
   4   3   9  473.35   31.20
   4   3  10  144.59   20.00
  -4   4  10  205.38   24.40
   4   4 -10  196.18   26.50
  -4   4   9  147.99   21.00
   4   4  -9  140.69   21.10
  -4   4   8  199.08   18.90
   4   4  -8  262.57   24.10
   4   4  -7  853.51   45.10
  -4   4   7  765.62   40.60
   4   4  -6  227.38   20.50
  -4   4   6  210.68   17.40
  -4   4   5    6.00    3.50
  -4   4   5    9.70    2.90
   4   4  -5   14.90    6.60
   4   4  -4   45.60    9.60
  -4   4   4   58.69    9.60
  -4   4   3   35.50    7.20
   4   4  -3   34.00    8.20
  -4   4   3   14.60    4.30
  -4  -4   3   27.10    4.40
   4   4  -2   27.80    7.20
  -4   4   2   26.10    6.00
  -4   4   2   39.30    7.20
  -4  -4   2   34.10    5.10
  -4   4   1 1768.82   65.09
   4   4  -1 1770.32   71.09
  -4   4   1 1717.03   64.69
  -4  -4   1 1750.82   58.09
  -4  -4   1 1747.53   60.99
   4   4   0  188.08   16.70
  -4   4   0  187.98   13.10
  -4   4   0  208.48   12.50
  -4  -4   0  181.48   10.90
  -4   4  -1  154.28    9.90
  -4   4  -1  143.69   11.40
   4   4   1  136.19   17.00
  -4  -4  -1  143.49    9.40
  -4   4  -2  499.35   21.80
   4   4   2  487.25   29.70
  -4   4  -2  503.95   25.00
  -4  -4  -2  522.85   22.30
  -4   4  -3  757.72   34.10
   4   4   3  773.12   39.90
  -4   4  -3  786.12   30.50
  -4  -4  -3  712.53   30.10
  -4   4  -4  266.57   14.90
  -4   4  -4  296.37   18.50
   4   4   4  290.77   21.80
  -4  -4  -4  306.67   15.50
  -4   4  -5  368.66   22.40
  -4   4  -5  383.16   18.80
   4   4   5  376.96   26.30
  -4  -4  -5  364.46   18.30
  -4   4  -6  332.67   17.50
   4   4   6  319.27   24.40
  -4   4  -6  317.17   21.20
  -4  -4  -6  305.77   16.70
   4   4   7    2.80    4.20
  -4   4  -7    3.50    4.60
  -4  -4  -7    0.20    1.60
   4   4   8  146.49   20.40
   4   4   9  310.57   26.10
   4   5  -9   -1.60    6.80
  -4   5   9    3.50    5.80
  -4   5   8   82.59   15.30
   4   5  -7  337.07   28.10
  -4   5   7  341.07   25.20
   4   5  -6  413.16   30.10
  -4   5   6  394.46   26.50
  -4   5   5  234.38   19.00
   4   5  -5  234.08   21.60
  -4   5   4   34.80    8.20
   4   5  -4   55.29   11.30
  -4   5   3  517.15   25.70
   4   5  -3  508.75   32.40
  -4   5   3  561.24   29.10
   4   5  -2  790.02   42.20
  -4   5   2  789.62   37.10
  -4  -5   2  754.52   31.80
   4   5  -1  815.52   43.20
  -4   5   1  837.12   36.20
  -4   5   1  787.02   37.30
  -4  -5   1  790.62   32.70
   4   5   0  765.52   42.70
  -4   5   0  840.22   34.30
  -4   5   0  835.92   37.30
  -4  -5   0  783.62   32.70
   4   5   1   10.90    5.60
  -4   5  -1    9.00    3.10
  -4   5  -1    6.00    3.50
  -4  -5  -1    6.00    2.70
  -4   5  -2  188.88   11.50
   4   5   2  166.18   20.30
  -4   5  -2  165.68   14.00
  -4  -5  -2  165.78   11.30
  -4   5  -3  130.79    9.60
  -4   5  -3  138.09   12.90
   4   5   3  107.89   17.50
  -4  -5  -3  132.39    9.90
  -4   5  -4   11.50    4.60
  -4   5  -4    8.00    3.00
   4   5   4    4.50    4.50
  -4  -5  -4    7.30    2.70
  -4   5  -5  662.73   35.70
  -4   5  -5  763.42   31.70
   4   5   5  707.03   42.30
  -4  -5  -5  759.82   31.30
  -4   5  -6  161.28   11.90
   4   5   6  162.88   22.10
  -4   5  -6  179.88   16.40
  -4  -5  -6  138.19   10.90
  -4   5  -7    0.90    2.10
   4   5   7    0.00    4.90
  -4  -5  -7    1.90    2.30
  -4   5  -8    5.90    3.50
   4   5   9  306.47   27.60
  -4   5  -9  266.17   18.40
   4   6  -8  457.65   35.90
  -4   6   8  401.96   30.50
  -4   6   7  362.46   27.20
   4   6  -7  340.17   30.10
  -4   6   6  455.25   31.00
   4   6  -6  521.05   36.50
  -4   6   5   33.90    9.30
   4   6  -5   34.90   10.90
  -4   6   4  113.79   15.70
   4   6  -4  110.09   18.10
   4   6  -3    9.80    6.40
  -4   6   3   13.70    5.90
   4   6  -2   45.90   11.60
  -4   6   2   42.30    9.20
  -4  -6   2   41.80    6.70
  -4   6   1  396.16   25.70
   4   6  -1  437.76   31.60
  -4   6   1  430.36   24.30
  -4  -6   1  455.45   22.30
   4   6   0  714.93   43.20
  -4   6   0  708.33   36.60
  -4   6   0  752.82   33.10
  -4  -6   0  766.92   32.40
  -4   6  -1   39.70    8.90
   4   6   1   43.20   11.00
  -4   6  -1   26.80    5.40
  -4  -6  -1   19.00    4.50
   4   6   2   95.49   16.60
  -4   6  -2  115.39    9.40
  -4   6  -2  112.59   14.50
  -4  -6  -2  111.59   11.50
   4   6   3  271.97   25.10
  -4   6  -3  253.57   19.90
  -4   6  -3  269.77   15.70
  -4  -6  -3  289.57   16.80
   4   6   4  292.07   31.80
  -4   6  -4  270.37   15.90
  -4   6  -4  264.17   20.70
  -4  -6  -4  221.88   15.10
   4   6   5  142.79   22.60
  -4   6  -5  109.39   15.60
  -4   6  -5  121.39   12.20
  -4  -6  -5  110.29   11.70
  -4   6  -6  300.57   18.10
  -4   6  -6  285.97   24.20
   4   6   6  296.27   33.70
  -4  -6  -6  294.67   17.70
   4   6   7    3.60    5.90
  -4   6  -7    3.70    3.30
  -4  -6  -7    2.80    2.50
   4   6   8  322.17   35.20
  -4   6  -8  283.57   19.00
   4   7  -7   55.89   15.40
  -4   7   7   59.89   13.00
  -4   7   6  445.96   32.20
   4   7  -6  480.75   37.10
   4   7  -5   23.30   10.00
  -4   7   5   29.90    9.10
   4   7  -4  175.38   24.30
  -4   7   4  226.78   20.30
  -4   7   3   53.49   11.20
   4   7  -3   42.10   11.90
  -4   7   2  636.34   36.30
   4   7  -2  619.04   41.80
  -4   7   1   34.50    9.50
   4   7  -1   63.39   14.90
  -4  -7   1   43.90    7.80
   4   7   0  690.53   44.30
  -4   7   0  631.64   35.80
  -4  -7   0  629.34   30.40
   4   7   1    2.30    5.50
  -4   7  -1   11.00    5.00
  -4  -7  -1    4.90    3.00
  -4   7  -2  214.68   14.70
  -4   7  -2  274.37   21.40
   4   7   2  240.18   29.50
  -4  -7  -2  215.08   15.30
  -4   7  -3  120.09   10.40
   4   7   3  130.29   22.60
  -4   7  -3   97.49   14.70
  -4  -7  -3  112.69   12.30
  -4   7  -4    3.80    4.80
   4   7   4    3.30    6.70
  -4   7  -4    6.00    3.30
  -4  -7  -4    9.20    3.50
  -4   7  -5   87.49   10.80
   4   7   5   58.39   15.30
  -4   7  -5  110.59   16.90
  -4  -7  -5   95.69   11.30
  -4   7  -6  565.84   28.40
   4   7   6  552.84   41.50
  -4  -7  -6  534.85   27.80
  -4   8   5    1.30    5.00
   4   8  -5    9.60    8.10
   4   8  -4    9.20    7.90
  -4   8   4    9.50    6.00
  -4   8   3   10.10    6.60
   4   8  -3    1.90    6.90
  -4   8   2   41.40   11.40
   4   8  -2   53.89   14.60
   4   8  -1    2.00    6.20
  -4   8   1   -0.10    4.40
  -4   8   0  733.53   41.80
   4   8   0  766.62   49.70
  -4   8  -1    2.70    4.70
   4   8   1    5.60    7.00
  -4  -8  -1    0.80    2.50
  -4   8  -2  202.28   23.40
   4   8   2  169.98   26.50
  -4  -8  -2  199.18   15.60
   4   8   3    4.40    8.00
  -4   8  -3   -0.50    4.20
  -4  -8  -3   -1.00    2.40
  -4   8  -4  256.97   23.60
   4   8   4  235.48   31.20
  -4  -8  -4  270.87   18.70
   5   0 -11    2.30    3.70
  -5   0  10    3.20    3.00
   5   0 -10    4.50    3.70
   5   0  -9    0.80    2.90
  -5   0   9    2.30    2.60
  -5   0   8  830.72   39.90
   5   0  -8  824.62   39.20
  -5   0   8  770.22   34.70
  -5   0   7    1.00    2.10
  -5   0   7   -0.50    1.50
  -5   0   6   18.30    4.90
  -5   0   6   21.20    4.60
  -5   0   5    1.90    1.80
  -5   0   5    4.70    2.40
  -5   0   4   88.09    7.20
  -5   0   4   73.39    7.00
  -5   0   3    0.10    1.00
  -5   0   3    1.30    0.90
  -5   0   3    2.00    1.40
  -5   0   2 4752.52  156.88
   5   0  -2 4874.11  153.88
  -5   0   2 4858.71  152.28
  -5   0   1    1.50    1.20
   5   0  -1    3.20    1.30
  -5   0   0  344.87   17.50
  -5   0  -1    4.60    2.30
  -5   0  -2    1.10    1.20
   5   0   3    1.30    0.90
  -5   0  -3    0.50    0.80
  -5   0  -4 1142.59   40.50
   5   0   4 1129.19   40.30
   5   0   5    1.40    1.30
  -5   0  -5   -0.30    1.00
  -5   0  -6  243.18   12.70
  -5   0  -7    5.70    2.40
  -5   0  -8  932.91   36.30
  -5   0  -9   -0.60    1.60
   5   1 -11   10.20    7.00
  -5   1  11    6.70    6.00
  -5   1  10   -0.20    2.50
   5   1 -10   -1.30    3.30
  -5   1  10    6.10    5.20
  -5   1   9   54.99    8.30
  -5   1   9   52.39   10.80
   5   1  -9   45.00   10.30
  -5  -1   9   62.59    9.30
  -5   1   8 1792.52   71.09
   5   1  -8 1775.72   71.29
  -5   1   8 1745.23   64.79
  -5  -1   8 1708.33   64.99
   5   1  -7   65.99   10.90
  -5   1   7   69.39    8.60
  -5   1   7   65.19   10.20
  -5  -1   7   82.19    9.50
  -5   1   6    7.80    3.40
  -5   1   6    3.20    2.20
   5   1  -6    5.60    3.20
  -5  -1   6   10.90    3.60
  -5   1   5  285.77   16.60
  -5   1   5  249.68   14.60
   5   1  -5  276.77   17.00
  -5  -1   5  282.87   15.10
   5   1  -4    4.00    2.60
  -5   1   4    5.70    2.80
  -5   1   4    2.90    1.90
  -5  -1   4    4.90    1.30
  -5  -1   4    5.10    2.20
  -5   1   3    2.80    1.70
   5   1  -3    7.20    2.80
  -5   1   3    5.20    2.30
  -5  -1   3    5.00    2.10
  -5  -1   3    6.30    1.60
   5   1  -2 1923.61   66.59
  -5   1   2 1882.21   68.59
  -5   1   2 1909.81   64.59
  -5  -1   2 2050.19   63.69
  -5  -1   2 1877.21   65.79
  -5   1   1    1.30    1.60
   5   1  -1    1.50    1.70
  -5   1   1    0.30    0.80
  -5  -1   1    0.60    0.90
  -5  -1   1    0.40    0.90
  -5   1   0  677.53   29.30
   5   1   0  727.53   26.90
  -5   1   0  673.03   22.50
  -5  -1   0  674.53   27.50
  -5  -1   0  660.23   25.70
   5   1   1  691.93   25.30
  -5   1  -1  620.24   26.50
  -5  -1  -1  632.14   25.40
  -5  -1  -1  656.83   26.60
  -5   1  -2 1355.26   45.00
  -5   1  -2 1347.77   48.60
   5   1   2 1435.86   47.60
  -5  -1  -2 1403.06   48.90
  -5   1  -3   -0.60    0.90
  -5   1  -3    0.00    1.50
   5   1   3    1.60    1.50
  -5  -1  -3    3.40    1.70
  -5   1  -4 2677.73   88.49
   5   1   4 2659.73   89.09
  -5   1  -4 2652.23   88.19
  -5  -1  -4 2667.23   87.19
   5   1   5  279.27   15.50
  -5   1  -5  291.17   15.30
  -5   1  -5  293.27   14.40
  -5  -1  -5  280.47   13.30
  -5   1  -6  229.88   16.80
  -5   1  -6  264.87   13.70
   5   1   6  270.27   15.90
  -5  -1  -6  255.27   12.70
  -5   1  -7   99.39    7.90
  -5  -1  -7   95.19    7.20
  -5   1  -8    5.40    2.50
  -5  -1  -8    4.50    3.00
  -5   1  -9    2.90    2.10
  -5  -1  -9    1.20    2.30
  -5   1 -10  168.18   12.50
   5   2 -11  323.87   28.70
  -5   2  11  351.66   27.80
   5   2 -10   18.40    8.60
  -5   2  10   13.20    6.40
  -5   2  10   20.00    5.70
  -5   2   9  106.39   11.70
  -5   2   9  104.39   15.00
   5   2  -9   94.49   15.60
   5   2  -8  554.44   32.60
  -5   2   8  500.35   29.90
  -5   2   8  572.44   26.30
  -5  -2   8  523.45   26.70
  -5   2   7   16.50    5.80
  -5   2   7    8.90    3.50
  -5  -2   7    5.80    2.80
   5   2  -6   50.29    9.70
  -5   2   6   34.60    7.20
  -5   2   6   48.80    7.10
  -5  -2   6   55.29    7.70
  -5   2   5  247.28   14.50
   5   2  -5  273.47   18.50
  -5   2   5  261.17   16.40
  -5  -2   5  232.68   13.90
  -5   2   4   91.69    8.40
  -5   2   4  105.19    8.70
   5   2  -4  120.69   13.20
  -5  -2   4   86.99    7.30
  -5  -2   4   93.39    6.00
  -5   2   3    7.40    2.50
  -5   2   3   16.70    4.30
   5   2  -3   11.60    4.10
  -5  -2   3   12.20    2.50
  -5  -2   3   13.70    3.20
   5   2  -2 2555.14   87.89
  -5   2   2 2530.15   83.89
  -5   2   2 2330.47   87.69
  -5  -2   2 2656.93   82.59
  -5  -2   2 2467.35   83.19
  -5   2   1  711.73   26.50
   5   2  -1  733.53   30.80
  -5   2   1  649.43   30.40
  -5  -2   1  713.73   26.50
  -5  -2   1  680.83   26.40
  -5   2   0  147.99   10.90
  -5   2   0  159.88    8.20
   5   2   0  152.18   11.30
  -5  -2   0  164.18    8.90
  -5  -2   0  153.58    9.00
   5   2   1 1001.40   39.50
  -5   2  -1  971.40   34.30
  -5   2  -1  996.80   37.60
  -5  -2  -1 1002.60   35.80
  -5  -2  -1  976.30   36.30
   5   2   2   64.99    8.50
  -5   2  -2   64.99    6.90
  -5   2  -2   65.69    5.10
  -5  -2  -2   67.89    7.20
  -5  -2  -2   60.29    5.30
  -5   2  -3    0.50    1.10
  -5   2  -3    1.90    1.60
   5   2   3   -0.10    1.40
  -5  -2  -3    0.20    1.20
  -5  -2  -3    1.20    1.10
   5   2   4  675.63   29.20
  -5   2  -4  635.04   26.00
  -5   2  -4  602.04   26.20
  -5  -2  -4  626.24   24.10
  -5  -2  -4  640.84   26.70
   5   2   5   52.89    8.00
  -5   2  -5   42.40    5.80
  -5   2  -5   49.70    7.40
  -5  -2  -5   35.90    5.60
  -5   2  -6  180.68   11.40
  -5  -2  -6  195.98   12.40
   5   2   7  211.48   16.00
  -5   2  -7  206.48   12.70
  -5  -2  -7  194.68   13.10
  -5   2  -8  714.53   31.10
  -5  -2  -8  757.02   32.40
  -5   2  -9    2.00    2.20
  -5   2 -10  220.38   15.10
  -5   3  10    1.70    3.90
   5   3 -10    5.00    7.50
   5   3  -9  234.18   27.30
  -5   3   9  210.68   23.20
  -5   3   8  636.04   28.80
  -5   3   8  611.74   34.60
   5   3  -8  640.34   38.20
  -5   3   7  352.36   23.70
  -5   3   7  380.36   19.80
   5   3  -7  398.66   27.20
  -5  -3   7  395.76   21.10
  -5   3   6  223.38   13.60
   5   3  -6  229.58   19.20
  -5   3   6  203.48   16.00
  -5  -3   6  204.58   13.50
  -5   3   5 1570.74   61.29
  -5   3   5 1632.64   58.29
   5   3  -5 1512.55   64.19
  -5  -3   5 1600.34   57.49
  -5   3   4  224.88   14.00
  -5   3   4  213.68   14.40
   5   3  -4  202.58   16.50
  -5  -3   4  212.18   11.30
  -5  -3   4  205.28   12.20
  -5   3   3   48.40    7.30
   5   3  -3   43.60    8.50
  -5   3   3   34.40    6.70
  -5  -3   3   52.39    5.60
  -5  -3   3   42.70    5.50
  -5   3   2 1029.60   39.30
  -5   3   2  924.01   41.10
   5   3  -2  978.50   43.30
  -5  -3   2 1025.30   36.30
  -5  -3   2 1013.20   36.80
  -5   3   1    6.40    2.40
   5   3  -1    6.90    3.70
  -5   3   1    3.50    2.40
  -5  -3   1    9.30    2.10
  -5  -3   1   10.70    2.70
  -5   3   0  327.67   15.50
  -5   3   0  287.57   16.40
   5   3   0  215.78   17.00
  -5  -3   0  307.57   12.70
  -5  -3   0  300.57   14.60
  -5   3  -1  645.74   28.50
  -5   3  -1  685.13   28.30
  -5  -3  -1  753.52   25.20
  -5  -3  -1  706.63   28.00
  -5   3  -2  299.07   15.10
  -5   3  -2  289.97   15.00
  -5  -3  -2  269.77   14.40
  -5   3  -3   78.39    8.60
  -5   3  -3   77.19    6.80
  -5  -3  -3   77.79    8.10
  -5   3  -4  360.06   19.10
  -5   3  -4  352.16   17.80
  -5  -3  -4  390.86   18.60
  -5   3  -5 1323.27   48.30
   5   3   5 1282.97   54.19
  -5  -3  -5 1274.97   48.40
   5   3   6  306.37   20.60
  -5   3  -6  272.77   15.70
  -5  -3  -6  298.37   16.50
   5   3   7  388.06   24.70
  -5   3  -7  347.97   19.00
  -5  -3  -7  393.56   20.10
  -5   3  -8  161.68   11.90
  -5  -3  -8  151.78   11.90
  -5   3  -9    4.10    2.50
  -5   3 -10  164.48   13.40
  -5   4  10  117.09   18.30
   5   4 -10  135.99   22.30
  -5   4   9  174.58   21.80
   5   4  -9  134.19   20.80
  -5   4   8   70.79   12.60
   5   4  -8  109.39   17.70
   5   4  -7   14.10    7.90
  -5   4   7    9.20    4.70
  -5   4   6   32.60    5.80
  -5   4   6   25.00    6.80
   5   4  -6   25.00    8.60
  -5   4   5  298.37   19.60
  -5   4   5  300.67   16.80
   5   4  -5  269.47   22.00
  -5   4   4   22.50    5.20
   5   4  -4   18.40    6.80
  -5   4   4   17.90    5.20
  -5  -4   4   14.10    3.70
  -5  -4   4   13.00    3.30
   5   4  -3  223.48   18.40
  -5   4   3  199.28   14.80
  -5   4   3  215.18   15.00
  -5  -4   3  200.58   11.60
  -5  -4   3  220.08   12.50
   5   4  -2  280.97   20.40
  -5   4   2  274.47   17.60
  -5   4   2  271.87   16.40
  -5  -4   2  256.37   12.80
  -5  -4   2  262.17   14.10
  -5   4   1  763.42   33.40
  -5   4   1  788.72   35.10
   5   4  -1  783.92   39.20
  -5  -4   1  772.62   28.40
  -5  -4   1  780.12   31.20
  -5   4   0  311.97   17.60
  -5   4   0  303.87   17.30
   5   4   0  315.27   22.10
  -5  -4   0  321.07   16.20
  -5   4  -1 1421.26   54.69
   5   4   1 1512.65   62.59
  -5   4  -1 1426.16   53.59
  -5  -4  -1 1484.85   52.89
   5   4   2  410.06   25.80
  -5   4  -2  367.56   20.10
  -5   4  -2  386.36   19.00
  -5  -4  -2  387.86   19.00
  -5   4  -3   58.29    7.20
   5   4   3   67.89   12.00
  -5   4  -3   70.69    9.10
  -5  -4  -3   42.00    6.10
   5   4   4  177.68   16.30
  -5   4  -4  157.78   12.80
  -5   4  -4  173.88   11.60
  -5  -4  -4  183.48   11.80
  -5   4  -5   63.29    7.90
   5   4   5   62.79   11.60
  -5  -4  -5   66.49    8.20
  -5   4  -6  122.29   10.00
   5   4   6  112.09   16.00
  -5   4  -7  407.36   21.80
   5   4   7  466.45   29.50
  -5  -4  -7  409.36   21.60
   5   4   8   34.30   12.30
  -5   4  -8   54.19    8.60
  -5  -4  -8   46.60    7.50
  -5   4  -9    7.80    3.70
  -5   5   9   91.39   16.00
   5   5  -9  100.39   19.00
   5   5  -8   34.30   11.10
  -5   5   7  199.88   21.90
   5   5  -7  189.08   24.10
  -5   5   6  482.45   28.90
   5   5  -6  446.46   31.70
  -5   5   5 1221.48   52.89
   5   5  -5 1131.29   56.79
  -5   5   4 1120.59   48.70
   5   5  -4 1084.59   53.59
  -5   5   3   68.09    9.90
   5   5  -3   84.39   14.50
  -5   5   3   68.49   10.50
  -5  -5   3   76.39    9.00
  -5   5   2  151.38   12.90
   5   5  -2  127.59   18.00
  -5   5   2  152.98   13.10
  -5  -5   2  144.39   10.60
   5   5  -1    2.50    3.80
  -5   5   1    1.60    2.40
  -5   5   1   -1.80    2.10
  -5  -5   1   -0.50    1.20
  -5   5   0   65.69    9.60
  -5   5   0   77.19    9.70
   5   5   0   64.59   12.20
  -5  -5   0   68.29    8.60
  -5   5  -1  394.26   20.10
  -5   5  -1  369.46   21.50
   5   5   1  369.36   26.60
  -5  -5  -1  368.06   19.20
  -5   5  -2   67.09    9.80
  -5   5  -2   46.60    6.90
   5   5   2   63.39   13.00
  -5  -5  -2   59.39    8.00
  -5   5  -3   16.20    4.30
   5   5   3   17.80    7.20
  -5   5  -3   12.00    4.90
  -5  -5  -3   20.50    5.00
   5   5   4   22.80    8.00
  -5   5  -4   20.40    4.90
  -5  -5  -4   25.10    5.40
  -5   5  -5  582.44   27.20
   5   5   5  595.44   36.60
  -5  -5  -5  554.54   26.80
   5   5   6   78.59   14.50
  -5   5  -6  102.59   11.30
  -5  -5  -6   70.49    9.10
   5   5   7  382.96   29.40
  -5   5  -7  384.16   21.70
  -5  -5  -7  407.46   21.80
  -5   5  -8  436.06   24.40
   5   5   8  473.85   33.80
   5   6  -8    0.20    6.00
  -5   6   8   -1.60    4.10
   5   6  -7   15.60    7.20
  -5   6   7    5.10    5.90
  -5   6   6    9.00    6.10
   5   6  -6   10.40    6.00
  -5   6   5   82.89   13.30
   5   6  -5   85.09   15.70
   5   6  -4   96.39   16.40
  -5   6   4   91.39   14.00
   5   6  -3   52.29   12.20
  -5   6   3   49.10    9.70
   5   6  -2  225.18   26.50
  -5   6   2  231.08   18.10
  -5  -6   2  214.98   14.70
  -5   6   1  430.96   24.40
  -5   6   1  359.96   23.90
   5   6  -1  469.35   32.30
  -5  -6   1  407.96   21.60
  -5   6   0  295.37   20.50
   5   6   0  297.07   25.50
  -5   6   0  288.77   18.70
  -5  -6   0  340.87   18.50
   5   6   1  374.56   28.40
  -5   6  -1  370.36   20.30
  -5   6  -1  352.16   22.40
  -5  -6  -1  350.16   19.90
  -5   6  -2  876.31   36.80
   5   6   2  846.62   48.00
  -5   6  -2  862.01   41.00
  -5  -6  -2  865.21   37.20
  -5   6  -3   19.30    7.00
   5   6   3   11.20    6.10
  -5   6  -3   15.20    4.30
  -5  -6  -3   16.60    4.80
   5   6   4  163.58   22.10
  -5   6  -4  160.68   12.30
  -5  -6  -4  147.19   12.00
  -5   6  -5   15.80    4.70
   5   6   5    5.70    4.90
  -5  -6  -5    8.20    3.70
  -5   6  -6  147.39   12.50
   5   6   6  158.58   22.50
  -5  -6  -6  145.39   14.50
   5   6   7  244.98   29.80
  -5   6  -7  197.48   15.50
  -5  -6  -7  228.18   15.80
  -5   7   6  534.05   35.00
   5   7  -6  588.34   41.40
  -5   7   5  143.09   19.10
   5   7  -5  148.29   23.10
   5   7  -4 1127.09   59.69
  -5   7   4  997.50   50.69
   5   7  -3    2.50    4.80
  -5   7   3    3.70    3.90
  -5   7   2   17.20    6.30
   5   7  -2   10.50    7.20
  -5   7   1   45.60   10.10
   5   7  -1   65.79   15.20
  -5  -7   1   38.10    7.10
  -5   7   0   35.40    8.90
   5   7   0   56.99   14.80
  -5  -7   0   46.80    7.90
   5   7   1   60.49   13.90
  -5   7  -1   50.89    9.00
  -5   7  -1   64.19   11.50
  -5  -7  -1   38.60    7.40
  -5   7  -2  202.58   15.00
   5   7   2  223.58   28.70
  -5   7  -2  211.48   18.60
  -5  -7  -2  207.48   15.10
  -5   7  -3    2.80    3.10
   5   7   3    4.00    5.90
  -5  -7  -3    1.20    2.60
   5   7   4  383.26   32.30
  -5   7  -4  415.36   22.70
  -5  -7  -4  375.36   22.40
  -5   7  -5   31.10    6.90
   5   7   5   41.20   12.80
  -5  -7  -5   68.79   10.70
  -5   7  -6   31.80    7.20
   5   7   6   52.89   14.70
  -5  -7  -6   27.00    6.70
   5   8  -4  147.29   24.10
  -5   8   4  171.68   21.80
  -5   8   3    1.60    4.40
   5   8  -3    1.80    6.90
   5   8  -2  206.18   27.60
  -5   8   2  215.88   23.80
  -5   8   1    4.60    4.60
   5   8  -1   10.80    8.50
   5   8   0  278.77   32.10
  -5   8   0  298.67   23.90
  -5  -8   0  286.97   19.70
   5   8   1    2.20    6.30
  -5   8  -1    3.70    5.20
   5   8   2 1063.09   61.29
  -5  -8  -2  987.00   45.00
   5   8   3    8.70    7.70
  -5  -8  -3    2.00    2.90
  -5   8  -4  103.99   13.00
   5   8   4  108.49   21.20
  -5  -8  -4   78.49   12.00
   6   0 -11    4.50    4.30
  -6   0  10    0.80    2.60
   6   0 -10    2.80    4.30
  -6   0   9    0.70    2.60
   6   0  -9    2.50    3.50
  -6   0   8    9.30    3.60
   6   0  -8    7.20    4.20
  -6   0   7    2.00    2.20
   6   0  -7    2.30    2.60
  -6   0   6  930.51   38.60
  -6   0   6  906.31   39.90
   6   0  -6  951.30   40.20
  -6   0   5   -0.20    1.30
   6   0  -5    1.50    1.70
  -6   0   5    0.20    1.70
   6   0  -4   13.30    3.50
  -6   0   4   11.30    3.30
  -6   0   3    1.00    2.00
   6   0  -3    3.90    2.10
  -6   0   3    3.60    1.60
   6   0  -2  140.99    8.20
  -6   0   2  125.99   10.20
  -6   0   2  138.29    7.70
  -6   0   1   -0.60    1.40
   6   0  -1    1.10    1.30
  -6   0   0 4088.59  135.89
  -6   0  -1    2.80    1.90
  -6   0  -2 1043.50   39.70
  -6   0  -3    3.50    1.80
  -6   0  -4  899.31   34.30
  -6   0  -5   -0.40    1.00
  -6   0  -6  482.85   21.50
  -6   0  -7    6.70    2.60
  -6   0  -8   32.10    5.80
   6   1 -10    2.50    4.10
  -6   1  10    5.60    4.60
  -6   1  10    2.90    3.10
  -6  -1  10    3.90    3.40
   6   1  -9  145.69   18.60
  -6   1   9  163.98   19.40
  -6   1   9  143.39   14.80
  -6  -1   9  154.68   13.30
  -6   1   8   -0.10    2.60
  -6   1   8    1.80    2.40
   6   1  -8   -0.50    2.50
  -6  -1   8    0.10    2.00
  -6   1   7   23.20    6.40
   6   1  -7   20.10    6.20
  -6   1   7   38.50    7.00
  -6  -1   7   29.80    6.20
   6   1  -6 2074.49   78.29
  -6   1   6 2130.29   77.39
  -6   1   6 2104.79   75.49
  -6  -1   6 2065.69   74.99
  -6   1   5   50.29    7.70
   6   1  -5   59.29    8.80
  -6   1   5   59.29    8.40
  -6  -1   5   50.79    7.20
  -6   1   4  344.57   18.60
   6   1  -4  306.47   17.70
  -6   1   4  317.57   16.90
  -6  -1   4  344.07   17.50
   6   1  -3   77.79    9.20
  -6   1   3   91.69   10.40
  -6   1   3   92.19    7.10
  -6  -1   3   76.89    8.60
  -6  -1   3   82.99    5.60
  -6   1   2  514.15   20.50
   6   1  -2  502.65   22.40
  -6   1   2  476.95   24.80
  -6  -1   2  545.05   20.80
  -6  -1   2  527.75   23.30
  -6   1   1    2.60    1.10
   6   1  -1    2.60    2.00
  -6   1   1    0.80    1.90
  -6  -1   1    3.50    2.00
  -6  -1   1    1.10    1.00
   6   1   0 1450.25   48.30
  -6   1   0 1355.96   52.09
  -6  -1   0 1343.47   48.20
  -6  -1   0 1326.97   50.39
   6   1   1  434.56   16.90
  -6   1  -1  411.16   20.30
  -6  -1  -1  381.06   18.30
  -6  -1  -1  416.66   19.80
  -6   1  -2   78.29    8.40
  -6  -1  -2   83.79    7.40
  -6   1  -3  328.77   16.30
  -6  -1  -3  329.57   16.10
  -6   1  -4  170.98   10.60
  -6  -1  -4  165.38   10.00
  -6   1  -5    1.10    1.40
  -6  -1  -5    3.50    1.80
  -6   1  -6  808.82   33.60
  -6  -1  -6  891.41   33.00
  -6   1  -7    6.60    3.00
  -6   1  -8  174.48   11.90
  -6  -1  -8  175.28   13.30
  -6   1  -9   25.60    5.60
  -6  -1  -9   20.90    5.40
  -6   1 -10  618.34   29.10
  -6   2  10   35.40    7.30
   6   2 -10   34.30   10.70
  -6   2  10   30.30    9.40
  -6   2   9   28.10    8.60
   6   2  -9   13.10    6.90
  -6   2   9   16.50    4.90
  -6  -2   9   31.20    7.20
  -6   2   8   18.20    6.30
   6   2  -8   20.30    8.20
  -6   2   8    8.40    3.50
  -6  -2   8   13.30    4.60
  -6   2   7    7.00    3.50
  -6   2   7   10.10    4.50
   6   2  -7    9.70    5.40
  -6  -2   7   15.70    4.70
   6   2  -6  467.85   27.70
  -6   2   6  449.16   23.40
  -6   2   6  499.35   26.00
  -6  -2   6  471.15   23.40
   6   2  -5  335.67   21.10
  -6   2   5  318.17   18.40
  -6   2   5  306.27   18.30
  -6  -2   5  300.07   17.00
   6   2  -4   -0.30    3.10
  -6   2   4    2.50    2.50
  -6   2   4    6.80    3.00
  -6  -2   4    2.80    2.00
  -6  -2   4    2.90    1.30
  -6   2   3 1561.64   60.49
   6   2  -3 1622.04   59.89
  -6   2   3 1564.74   56.29
  -6  -2   3 1567.54   56.49
  -6  -2   3 1588.44   54.19
   6   2  -2   13.10    4.10
  -6   2   2   10.90    2.80
  -6   2   2   12.90    4.40
  -6  -2   2    8.30    2.20
  -6  -2   2   14.10    3.40
  -6   2   1    2.30    1.10
   6   2  -1    0.80    1.70
  -6   2   1    1.20    1.90
  -6  -2   1    0.30    1.10
  -6  -2   1    0.70    1.10
  -6   2   0 2134.59   70.89
  -6   2   0 2078.59   77.99
   6   2   0 2358.56   77.79
  -6  -2   0 2183.58   74.19
  -6  -2   0 2174.48   74.19
   6   2   1  230.58   13.60
  -6   2  -1  212.28   13.30
  -6  -2  -1  201.68   11.70
  -6  -2  -1  197.58   11.70
   6   2   2  870.31   34.40
  -6   2  -2  851.81   33.80
  -6  -2  -2  823.02   32.90
  -6  -2  -2  811.12   32.30
   6   2   3   25.80    5.10
  -6   2  -3   19.40    4.10
  -6  -2  -3   28.20    4.80
  -6  -2  -3   28.30    4.90
  -6   2  -4 1176.68   42.60
  -6  -2  -4 1167.08   43.30
  -6  -2  -4  991.20   44.90
  -6   2  -5    1.60    1.70
  -6  -2  -5    3.40    2.50
  -6   2  -6  140.89   10.20
  -6  -2  -6  113.19   11.60
  -6   2  -7  579.04   26.30
  -6  -2  -7  593.84   27.80
  -6   2  -8   19.40    4.60
  -6  -2  -8   11.60    4.40
  -6   2  -9  194.68   13.80
  -6  -2  -9  201.08   14.60
  -6   2 -10   58.79    9.00
   6   3 -10   89.89   17.80
  -6   3  10   35.40    9.60
   6   3  -9  746.43   44.70
  -6   3   9  754.82   35.20
  -6   3   9  819.52   42.00
   6   3  -8   71.39   14.50
  -6   3   8  109.09   12.10
  -6   3   8   80.99   13.80
  -6  -3   8  102.59   12.20
   6   3  -7  100.49   15.10
  -6   3   7  114.79   14.70
  -6   3   7   86.89   10.60
  -6  -3   7   84.69   10.40
  -6   3   6 1061.69   43.50
  -6   3   6 1037.50   45.80
   6   3  -6 1111.49   50.29
  -6  -3   6 1049.49   42.90
   6   3  -5  168.58   15.50
  -6   3   5  163.38   13.00
  -6   3   5  154.28   12.30
  -6  -3   5  145.49   11.10
  -6   3   4  363.96   20.90
   6   3  -4  342.77   22.30
  -6   3   4  361.66   19.70
  -6  -3   4  334.87   16.40
  -6  -3   4  374.36   18.30
  -6   3   3   13.70    3.70
   6   3  -3   -0.50    2.50
  -6   3   3    1.30    2.40
  -6  -3   3    1.40    1.50
  -6  -3   3    0.30    1.40
  -6   3   2  134.69    9.60
   6   3  -2  112.39   13.40
  -6   3   2  122.59   13.40
  -6  -3   2  133.99    8.70
  -6  -3   2  126.79    8.80
  -6   3   1    1.40    2.20
   6   3  -1   -0.50    1.50
  -6   3   1    5.70    2.50
  -6  -3   1    9.90    2.80
  -6  -3   1    3.50    1.70
   6   3   0  192.88   14.70
  -6   3   0  179.28   10.50
  -6   3   0  169.98   13.00
  -6  -3   0  175.48   10.90
  -6  -3   0  185.38    9.80
   6   3   1 1599.84   61.09
  -6   3  -1 1450.65   57.19
  -6  -3  -1 1579.94   56.09
  -6  -3  -1 1610.34   53.19
  -6   3  -2  167.08   11.50
   6   3   2  180.98   14.10
  -6  -3  -2  169.98   11.30
  -6   3  -3 1100.29   42.40
   6   3   3 1121.49   46.00
  -6  -3  -3 1069.09   42.30
   6   3   4   28.40    6.70
  -6   3  -4   25.00    4.90
  -6  -3  -4   18.00    4.20
  -6   3  -5    1.20    1.50
  -6  -3  -5    1.00    1.70
  -6   3  -6  408.76   20.90
  -6  -3  -6  405.96   21.40
  -6   3  -7   12.90    4.00
  -6  -3  -7   20.10    5.00
  -6   3  -8  232.18   15.50
  -6  -3  -8  266.17   16.90
  -6   3  -9   80.59   10.90
   6   4  -9   53.29   14.10
  -6   4   9   25.70    8.00
   6   4  -8   12.90    8.10
  -6   4   8    7.20    4.40
  -6   4   7   28.00    5.90
  -6   4   7   45.20    9.90
   6   4  -7   32.80   10.00
  -6   4   6   18.20    5.10
   6   4  -6   15.80    6.80
  -6   4   6   26.40    7.00
  -6  -4   6   18.50    4.70
   6   4  -5  452.95   29.30
  -6   4   5  498.85   25.10
  -6   4   5  467.65   25.90
  -6  -4   5  442.16   22.50
  -6   4   4  128.89   13.90
   6   4  -4  136.59   17.60
  -6   4   4  153.98   12.60
  -6  -4   4  151.48   10.30
  -6  -4   4  123.29    9.70
   6   4  -3 1837.22   71.19
  -6   4   3 1735.23   64.39
  -6   4   3 1548.35   65.69
  -6  -4   3 1721.73   60.39
  -6  -4   3 1714.23   61.09
  -6   4   2  294.57   19.00
  -6   4   2  288.77   16.90
   6   4  -2  266.17   20.20
  -6  -4   2  272.77   15.30
  -6  -4   2  265.57   13.70
  -6   4   1  109.49   12.40
   6   4  -1   94.19   13.50
  -6   4   1  105.19    9.00
  -6  -4   1   97.69    6.80
  -6  -4   1  103.29    8.40
  -6   4   0  260.47   17.20
  -6   4   0  279.37   15.90
   6   4   0  314.27   21.40
  -6  -4   0  266.07   15.20
   6   4   1  125.99   16.00
  -6   4  -1  120.69   10.20
  -6  -4  -1  111.79    9.20
  -6   4  -2  289.17   16.60
  -6  -4  -2  287.47   16.20
  -6   4  -3   18.00    4.40
   6   4   3    1.30    2.50
  -6  -4  -3   13.40    3.90
   6   4   4  126.99   17.00
  -6   4  -4  215.38   13.70
  -6  -4  -4  235.18   14.20
   6   4   5    3.40    4.30
  -6   4  -5    4.60    2.70
  -6  -4  -5    0.80    1.80
  -6   4  -6   41.40    7.00
  -6  -4  -6   41.20    7.20
  -6   4  -7 1021.40   43.10
  -6  -4  -7 1069.79   43.80
  -6   4  -8    9.60    4.10
  -6  -4  -8    0.90    2.30
  -6   4  -9  399.96   23.10
   6   5  -8  462.15   35.10
  -6   5   8  511.15   31.80
  -6   5   7   95.09   15.30
   6   5  -7   68.49   14.30
  -6   5   6   76.29   12.20
  -6   5   5  144.59   16.40
   6   5  -5  133.69   19.10
  -6   5   4  164.98   14.60
  -6   5   4  171.78   14.30
   6   5  -4  173.08   20.70
  -6  -5   4  187.48   12.90
  -6   5   3    0.60    3.00
  -6   5   3    1.60    2.40
   6   5  -3   -0.50    3.20
  -6  -5   3    1.50    1.70
  -6   5   2    7.80    4.10
  -6   5   2   10.40    3.70
   6   5  -2   19.00    6.90
  -6  -5   2    9.50    3.50
  -6   5   1    4.70    3.40
   6   5  -1    5.10    4.30
  -6   5   1    9.30    3.70
  -6  -5   1    1.90    2.20
  -6   5   0   86.19   10.80
   6   5   0   98.49   15.70
  -6   5   0   77.99   10.50
  -6  -5   0   90.09   10.20
  -6   5  -1  605.54   29.10
   6   5   1  615.84   35.40
  -6  -5  -1  605.94   28.00
  -6   5  -2   85.69   10.30
   6   5   2   65.69   12.30
  -6  -5  -2   67.39    9.10
  -6   5  -3 1010.40   42.20
   6   5   3 1078.09   51.59
  -6  -5  -3 1018.00   42.10
   6   5   4  663.53   36.80
  -6   5  -4  588.74   28.50
  -6  -5  -4  594.64   28.60
   6   5   5    7.80    5.30
  -6   5  -5    3.30    2.60
  -6  -5  -5    2.80    2.30
  -6   5  -6  221.68   15.70
  -6  -5  -6  257.07   16.70
  -6   5  -7   20.70    5.70
  -6  -5  -7   17.90    5.10
  -6   5  -8  174.48   14.40
  -6  -5  -8  178.18   14.40
   6   6  -7   16.20    8.10
  -6   6   7    7.80    5.60
  -6   6   6  200.18   17.90
   6   6  -6  141.19   20.50
  -6   6   5  253.87   20.50
   6   6  -5  281.07   25.10
  -6   6   4  266.97   20.60
   6   6  -4  348.67   27.70
   6   6  -3  426.86   31.20
  -6   6   3  433.56   26.40
  -6  -6   3  431.86   23.20
  -6   6   2  926.91   44.70
  -6   6   2 1107.89   47.10
   6   6  -2 1044.60   53.99
  -6  -6   2 1055.89   43.50
  -6   6   1   18.40    5.60
  -6   6   1   16.50    5.40
   6   6  -1   23.60    8.40
  -6  -6   1   23.90    5.70
   6   6   0   18.90    8.20
  -6   6   0   22.50    6.50
  -6  -6   0    5.90    3.20
   6   6   1   78.99   14.60
  -6   6  -1   66.49   10.20
  -6  -6  -1   45.70    7.70
   6   6   2  223.28   25.70
  -6   6  -2  198.48   14.50
  -6  -6  -2  170.48   13.50
   6   6   3   25.10    9.00
  -6   6  -3   24.00    5.90
  -6  -6  -3   13.30    4.80
   6   6   4   -1.60    4.00
  -6   6  -4    1.80    2.40
  -6  -6  -4    0.90    2.30
  -6   6  -5   12.60    4.80
   6   6   5   19.80    8.90
  -6  -6  -5    5.80    3.60
  -6   6  -6  479.85   26.30
  -6  -6  -6  490.85   26.40
  -6   6  -7  299.37   19.70
  -6  -6  -7  268.57   18.70
   6   7  -6    4.80    7.00
  -6   7   6   25.60    8.60
   6   7  -5   10.70    7.70
  -6   7   5    9.30    5.90
  -6   7   4  134.59   18.40
   6   7  -4  160.18   23.40
  -6   7   3    3.50    3.80
   6   7  -3    2.30    6.00
   6   7  -2   10.10    6.70
  -6   7   2    4.40    4.30
  -6  -7   2    3.20    3.30
   6   7  -1    3.70    5.70
  -6  -7   1   -1.50    2.30
   6   7   0  551.74   38.90
  -6  -7   0  595.14   29.90
   6   7   1   67.49   14.80
  -6   7  -1   96.59   12.70
  -6  -7  -1   85.49   11.50
  -6   7  -2   42.40    8.20
   6   7   2   63.69   15.80
  -6  -7  -2   47.70    8.70
   6   7   3  201.08   26.60
  -6   7  -3  175.58   14.80
  -6  -7  -3  220.98   16.30
  -6   7  -4  908.81   41.10
   6   7   4  908.41   52.09
  -6  -7  -4  900.31   41.30
  -6   7  -5    4.20    3.50
   6   7   5    3.10    5.80
  -6  -7  -5   -0.40    3.20
  -6   8   3    4.20    5.10
   6   8  -3    3.50    7.50
   6   8  -2 1086.49   61.99
   6   8  -1   -1.30    5.90
  -6  -8   1    0.30    2.40
  -6  -8   0    0.00    3.00
   6   8   1    4.00    7.20
  -6  -8  -1    5.80    3.70
   6   8   2   96.59   19.70
  -6  -8  -2  129.89   15.60
  -6   8  -3    4.60    3.90
  -6  -8  -3    1.20    3.20
  -7   0  10   27.60    7.20
   7   0 -10   30.40    8.80
  -7   0   9   -2.40    2.50
   7   0  -9    6.60    4.10
   7   0  -8    0.30    2.60
  -7   0   8    1.80    2.60
  -7   0   7   -0.30    1.90
   7   0  -7    2.00    2.50
  -7   0   6  207.78   15.10
   7   0  -6  226.58   15.80
   7   0  -5    0.50    1.80
  -7   0   5    0.80    1.70
   7   0  -4 4618.84  149.29
  -7   0   4 4463.95  152.08
  -7   0   3    2.50    2.20
  -7   0   3    4.80    1.70
   7   0  -3    0.60    1.40
  -7   0   2  685.33   25.60
   7   0  -2  677.83   25.70
  -7   0   2  595.94   29.70
  -7   0   1    1.20    1.80
  -7   0   0  807.12   34.60
  -7   0  -1    1.90    1.80
  -7   0  -2  106.29    9.20
  -7   0  -3    6.10    2.60
  -7   0  -4    5.50    2.50
  -7   0  -5    0.10    1.70
  -7   0  -6  838.02   34.10
  -7   0  -7    1.00    1.60
  -7   0  -8  750.02   33.90
  -7   1  10 1463.35   64.39
   7   1 -10 1428.26   66.09
  -7   1  10 1356.56   58.69
  -7  -1  10 1407.76   59.69
   7  -1 -10 1460.05   64.09
  -7   1   9   49.40    9.00
  -7   1   9   40.20    9.00
  -7  -1   9   45.40    8.70
   7   1  -8   10.50    5.40
  -7   1   8   13.80    4.70
  -7   1   8   19.30    6.10
  -7   1   7   41.80    7.80
  -7   1   7   18.90    5.60
   7   1  -7   23.00    6.60
  -7  -1   7   36.50    7.00
  -7   1   6  143.19   12.20
   7   1  -6  125.79   14.20
  -7   1   6  125.89   11.50
  -7  -1   6  133.09   11.50
  -7   1   5   -0.10    1.80
  -7   1   5   -1.40    1.50
   7   1  -5    3.90    3.50
  -7  -1   5    0.20    2.00
  -7   1   4   65.49    8.20
  -7   1   4   65.39    9.60
  -7  -1   4   73.99    9.10
   7   1  -3   86.49    9.60
  -7   1   3   68.09    6.20
  -7   1   3   86.19   10.90
  -7  -1   3   84.79    6.20
  -7  -1   3   84.49    9.80
  -7   1   2   26.20    6.20
   7   1  -2   35.10    5.70
  -7   1   2   35.80    4.40
  -7  -1   2   21.60    4.80
  -7  -1   2   30.00    4.50
  -7   1   1  429.56   22.50
  -7  -1   1  409.86   18.10
  -7  -1   1  369.56   20.00
  -7   1   0  947.91   39.90
  -7  -1   0  937.41   38.60
  -7  -1   0  981.90   36.40
  -7   1  -1   23.40    5.30
  -7  -1  -1   13.50    3.90
  -7  -1  -1   16.90    3.80
  -7   1  -2 2538.85   89.79
  -7  -1  -2 2584.74   88.59
  -7  -1  -2 2673.93   89.79
  -7   1  -3  198.88   12.70
  -7  -1  -3  191.88   12.40
  -7   1  -4  133.09    9.90
  -7  -1  -4  128.49    9.50
  -7   1  -5   -0.20    1.40
  -7  -1  -5    2.00    1.60
  -7   1  -6  588.84   26.40
  -7   1  -7   33.10    6.10
  -7  -1  -7   30.00    6.20
  -7   1  -8   14.80    4.40
  -7  -1  -8   24.70    6.10
  -7   1  -9   95.19   10.80
  -7  -1  -9   96.89   12.00
  -7   2  10    8.30    5.30
  -7   2  10    2.40    3.70
   7   2 -10    2.40    7.20
  -7  -2  10   12.20    5.10
  -7   2   9   43.80   10.00
  -7   2   9   37.90    7.90
   7   2  -9   23.50    9.20
  -7  -2   9   39.20    8.50
  -7   2   8    1.00    2.80
   7   2  -8    3.90    5.10
  -7   2   8   -1.40    2.60
  -7  -2   8    7.10    4.00
   7   2  -7  619.64   35.30
  -7   2   7  677.93   32.10
  -7   2   7  655.53   32.80
  -7  -2   7  606.74   30.70
  -7   2   6   41.50    7.90
   7   2  -6   25.50    7.30
  -7   2   6   33.80    7.10
  -7  -2   6   29.00    6.20
  -7   2   5    4.60    3.00
  -7   2   5    1.00    1.80
   7   2  -5    9.30    5.10
  -7  -2   5    1.20    1.90
   7   2  -4 2847.11  100.59
  -7   2   4 2696.33  100.99
  -7   2   4 2870.91   97.29
  -7  -2   4 2926.21   98.19
   7   2  -3  568.74   27.30
  -7   2   3  497.65   27.90
  -7   2   3  574.24   24.40
  -7  -2   3  589.34   23.50
  -7  -2   3  548.05   25.40
   7   2  -2  578.74   27.50
  -7   2   2  590.24   24.20
  -7   2   2  612.14   30.30
  -7  -2   2  640.84   25.20
  -7  -2   2  561.24   25.90
  -7   2   1  138.59   14.30
   7   2  -1  102.79    9.30
  -7  -2   1   92.99    8.10
  -7  -2   1  116.39    8.40
  -7   2   0 1014.30   41.20
  -7  -2   0  896.41   36.90
  -7  -2   0  953.00   36.80
  -7   2  -1   30.00    6.20
  -7  -2  -1   23.10    4.60
  -7  -2  -1   29.00    5.00
  -7   2  -2    3.90    2.10
  -7  -2  -2    7.30    2.60
  -7  -2  -2    5.60    2.50
  -7   2  -3  576.84   26.30
  -7  -2  -3  560.14   25.80
  -7  -2  -3  580.94   25.10
  -7  -2  -4   13.50    4.20
  -7   2  -5  523.85   24.90
  -7  -2  -5  543.15   25.80
  -7   2  -6  523.35   24.50
  -7  -2  -6  483.85   24.90
  -7   2  -7   72.59    9.10
  -7  -2  -7   83.29   10.90
  -7   2  -8  504.55   25.00
  -7  -2  -8  485.95   26.00
  -7   2  -9   33.40    6.70
  -7  -2  -9   48.40    8.50
   7   3  -9  218.18   26.00
  -7   3   9  223.68   19.70
  -7   3   9  238.98   17.30
  -7   3   8  112.79   13.20
  -7   3   8  119.49   15.40
   7   3  -8   91.49   15.90
  -7   3   7  273.17   18.50
   7   3  -7  263.97   22.30
  -7   3   7  253.07   19.10
  -7  -3   7  293.17   18.40
  -7   3   6   92.49   11.80
   7   3  -6   74.89   12.90
  -7   3   6   77.39   11.00
  -7  -3   6   96.19   11.40
  -7   3   5    2.10    2.70
  -7   3   5   -0.60    1.50
   7   3  -5   -2.70    2.90
  -7  -3   5    0.90    1.90
  -7   3   4    0.40    2.70
   7   3  -4    1.70    3.60
  -7   3   4    1.90    2.20
  -7  -3   4    1.90    1.80
  -7  -3   4    3.00    2.10
  -7   3   3  380.56   23.90
   7   3  -3  439.66   25.00
  -7   3   3  427.76   20.90
  -7  -3   3  457.15   20.40
  -7  -3   3  422.36   20.60
  -7   3   2    0.80    2.40
   7   3  -2    4.40    3.20
  -7  -3   2    5.50    2.50
  -7  -3   2    5.40    2.40
   7   3  -1 1037.50   44.70
  -7   3   1 1041.20   44.80
  -7  -3   1 1056.09   39.40
  -7  -3   1 1060.49   40.60
  -7   3   0   73.49   10.40
   7   3   0   96.89   11.80
  -7  -3   0   68.69    7.20
  -7  -3   0   87.69    9.10
  -7   3  -1   11.30    3.80
  -7  -3  -1   15.90    4.10
  -7   3  -2  738.93   32.80
  -7  -3  -2  762.22   32.10
  -7   3  -3  669.33   29.50
  -7  -3  -3  612.84   28.60
  -7   3  -4  473.35   23.40
  -7  -3  -4  451.55   23.10
  -7   3  -5   11.30    3.90
  -7  -3  -5    6.60    3.10
  -7   3  -6  503.55   24.10
  -7  -3  -6  414.76   23.40
  -7   3  -7   21.20    5.30
  -7  -3  -7    7.20    3.80
  -7   3  -8   29.00    6.40
  -7  -3  -8   22.50    5.70
  -7   3  -9  427.86   23.80
  -7  -3  -9  414.76   24.30
   7   4  -9  102.49   19.00
  -7   4   9   66.49   13.30
  -7   4   8   34.00    9.20
   7   4  -8   23.70    9.40
  -7   4   7  775.12   39.10
  -7   4   7  734.73   35.80
   7   4  -7  807.02   44.00
  -7  -4   7  772.72   36.00
  -7   4   6  108.69   13.30
   7   4  -6  115.09   16.70
  -7   4   6  142.19   15.80
  -7  -4   6  114.99   12.60
  -7   4   5   47.10    9.30
   7   4  -5   53.69   10.70
  -7   4   5   33.80    7.20
  -7  -4   5   40.30    6.90
   7   4  -4  341.57   23.80
  -7   4   4  304.27   21.20
  -7   4   4  345.17   20.00
  -7  -4   4  350.16   18.40
  -7  -4   4  329.27   17.90
  -7   4   3  421.26   22.40
  -7   4   3  432.36   25.80
   7   4  -3  488.15   28.10
  -7  -4   3  430.86   20.70
  -7  -4   3  430.66   21.50
   7   4  -2  283.17   20.80
  -7   4   2  313.17   20.30
  -7  -4   2  287.77   16.40
  -7  -4   2  271.57   14.70
   7   4  -1  185.88   16.40
  -7   4   1  240.08   16.70
  -7  -4   1  198.78   13.30
  -7   4   0  328.47   20.50
  -7  -4   0  313.37   17.70
   7   4   1    1.40    2.70
  -7   4  -1    1.20    2.10
  -7  -4  -1    3.60    2.60
  -7   4  -2  138.69   11.70
  -7  -4  -2  157.68   11.70
  -7   4  -3  953.60   39.40
  -7  -4  -3  878.91   38.20
  -7   4  -4   15.40    4.80
  -7  -4  -4   14.00    4.60
  -7   4  -5  857.41   37.10
  -7  -4  -5  825.82   36.90
  -7   4  -6   14.40    4.60
  -7  -4  -6    6.30    3.00
  -7   4  -7   46.50    8.10
  -7  -4  -7   56.89    9.40
  -7   4  -8   89.79   11.40
  -7  -4  -8   74.49   10.80
   7   5  -8  232.28   27.60
  -7   5   8  202.78   19.10
  -7   5   7  161.38   19.10
   7   5  -7  163.58   22.00
  -7   5   6  160.58   17.90
   7   5  -6  128.99   18.90
  -7   5   5    9.30    4.60
  -7   5   5   12.10    4.90
   7   5  -5    9.60    6.10
  -7   5   4   79.49   11.60
  -7   5   4  115.99   14.30
   7   5  -4   93.59   15.70
  -7  -5   4   96.99   10.20
  -7  -5   4   70.49    9.40
  -7   5   3  199.78   23.90
  -7   5   3  241.58   18.70
   7   5  -3  251.97   21.30
  -7  -5   3  254.97   16.10
  -7   5   2   36.30    8.00
   7   5  -2   48.00   11.10
  -7  -5   2   33.70    6.30
   7   5  -1  788.92   42.70
  -7   5   1  857.31   39.60
  -7  -5   1  855.81   36.50
   7   5   0  413.16   27.90
  -7   5   0  432.16   25.20
  -7  -5   0  435.36   22.80
   7   5   1    4.90    4.50
  -7   5  -1    3.50    2.80
  -7  -5  -1    3.60    2.80
   7   5   2   39.80    9.80
  -7   5  -2   49.00    8.30
  -7  -5  -2   47.30    7.80
  -7   5  -3  385.46   22.00
  -7  -5  -3  376.76   21.50
  -7   5  -4  242.78   16.80
  -7  -5  -4  240.68   16.50
  -7   5  -5    3.20    3.00
  -7  -5  -5    5.70    3.20
  -7   5  -6  191.28   15.00
  -7  -5  -6  192.58   15.00
  -7   5  -7   16.60    5.70
  -7  -5  -7   11.40    4.30
   7   6  -7  165.98   23.30
  -7   6   7  225.08   19.70
  -7   6   6  491.75   30.10
   7   6  -6  483.55   35.10
  -7   6   5   20.70    7.20
   7   6  -5   12.90    7.00
  -7   6   4   29.50    9.60
   7   6  -4   33.80   10.20
   7   6  -3  206.48   24.20
  -7   6   3  207.38   22.50
  -7  -6   3  185.48   14.70
   7   6  -2  288.87   25.00
  -7   6   2  295.77   20.90
  -7  -6   2  291.27   18.80
  -7   6   1   76.99   11.70
   7   6  -1   72.69   13.70
  -7  -6   1   67.49    9.70
  -7   6   0  184.38   16.20
   7   6   0  200.68   24.10
  -7  -6   0  216.28   15.60
   7   6   1    1.70    4.10
  -7   6  -1    3.40    2.80
  -7  -6  -1    4.40    3.30
   7   6   2  841.42   45.00
  -7   6  -2  700.23   35.40
  -7  -6  -2  765.42   35.60
  -7   6  -3  223.98   16.70
  -7  -6  -3  225.28   16.40
  -7   6  -4   35.10    7.70
  -7  -6  -4   48.20    8.80
  -7   6  -5  306.47   20.40
  -7  -6  -5  299.07   19.90
  -7   6  -6  429.76   25.30
  -7  -6  -6  420.16   24.80
   7   7  -5    1.90    5.60
   7   7  -4  281.07   30.80
   7   7  -3   45.30   12.20
  -7  -7   3   42.30    8.40
   7   7  -2   47.50   13.20
  -7  -7   2   38.30    8.00
   7   7  -1  132.19   21.00
  -7  -7   1  130.49   14.40
  -7   7   0  885.91   42.90
   7   7   0  907.41   50.59
  -7  -7   0  849.12   40.40
   7   7   1   -2.00    4.70
  -7   7  -1    8.70    5.40
  -7  -7  -1    4.50    3.20
  -7   7  -2   47.50    9.50
   7   7   2   24.20    9.60
  -7  -7  -2   46.60    9.40
  -7   7  -3   16.80    6.00
  -7  -7  -3   30.20    7.70
  -7   7  -4  141.09   15.60
   7   8  -1   11.50    8.60
  -7  -8   1   14.50    5.50
   7   8   0  144.29   22.60
  -7  -8   0  127.49   15.70
  -7  -8  -1    3.60    3.40
   8   0 -10  104.29   16.40
  -8   0  10   67.29   11.60
  -8   0   9    2.60    3.60
   8   0  -9    5.10    4.60
   8   0  -8 2192.38   85.59
  -8   0   8 2225.78   84.49
  -8   0   7   -0.40    2.50
   8   0  -7    4.70    3.30
   8   0  -6  136.89   12.10
  -8   0   6  136.59   15.10
  -8   0   5    0.60    2.60
   8   0  -5    1.00    2.10
  -8   0   4   77.19   10.90
  -8   0   3   -0.20    2.00
  -8   0   2  187.98   10.70
  -8   0   2  186.98   14.30
  -8   0   1    1.40    2.10
  -8   0   0    2.20    2.30
  -8   0  -1    2.00    2.20
  -8   0  -2 1422.16   54.99
  -8   0  -3    2.90    2.00
  -8   0  -4 1546.15   57.99
  -8   0  -5    0.80    2.10
  -8   0  -6  139.49   11.10
  -8   0  -7   -0.90    2.30
   8   1 -10    8.00    6.50
  -8   1  10    5.50    4.50
   8  -1 -10   20.40    7.60
  -8  -1  10    5.80    4.60
   8   1  -9   -0.10    5.20
  -8   1   9    2.40    3.60
   8  -1  -9    5.60    3.90
  -8  -1   9    1.10    2.90
  -8   1   8  201.08   16.70
   8   1  -8  214.48   18.90
  -8   1   8  168.78   15.90
  -8  -1   8  204.98   16.60
   8   1  -7    3.00    4.40
  -8   1   7    0.50    2.70
  -8   1   7    0.50    3.00
  -8  -1   7    2.40    2.80
   8   1  -6  115.79   14.00
  -8   1   6   93.49   12.30
  -8   1   6  109.79   12.70
  -8  -1   6   96.39   12.10
  -8   1   5  169.58   14.60
  -8   1   5  182.88   12.80
   8   1  -5  161.98   13.60
  -8  -1   5  164.28   13.60
   8   1  -4 1051.49   43.20
  -8   1   4 1004.50   45.80
  -8  -1   4 1104.09   44.80
  -8   1   3   63.29   10.20
  -8  -1   3   62.89    6.80
  -8  -1   3   88.99   11.10
  -8   1   2 2815.52   98.89
  -8  -1   2 2661.83   96.19
  -8   1   1  403.66   22.40
  -8  -1   1  367.36   17.90
  -8  -1   1  374.16   20.70
  -8   1   0  149.09   12.30
  -8  -1   0  153.28   11.80
  -8  -1   0  142.29   10.00
  -8   1  -1   78.19   10.40
  -8  -1  -1   53.69    7.10
  -8  -1  -1   62.09    8.50
  -8   1  -2  124.69   11.10
  -8  -1  -2  165.38   11.70
  -8  -1  -2  137.89   10.40
  -8   1  -3    5.90    3.40
  -8  -1  -3    7.70    3.30
  -8  -1  -3    2.20    2.00
  -8   1  -4  120.39   10.20
  -8  -1  -4  115.59    9.80
  -8   1  -5   68.79    9.10
  -8  -1  -5   58.89    8.30
  -8   1  -6   55.09    8.40
  -8  -1  -6   53.19    8.70
  -8   1  -7  102.59   11.30
  -8  -1  -7  136.79   14.50
  -8   1  -8 1262.67   50.39
  -8  -1  -8 1272.87   52.29
  -8   1  -9   36.00    7.30
  -8  -1  -9   18.30    5.80
  -8   2   9   12.40    5.10
   8   2  -9   25.60   10.00
  -8   2   9   15.40    6.30
  -8  -2   9   23.40    6.80
   8   2  -8 1535.35   66.89
  -8   2   8 1491.05   61.59
  -8   2   8 1421.86   61.59
  -8  -2   8 1446.76   60.69
  -8   2   7  235.48   18.10
  -8   2   7  219.98   17.00
   8   2  -7  218.48   19.60
  -8  -2   7  211.78   16.50
   8   2  -6  127.09   15.80
  -8   2   6  121.79   14.80
  -8   2   6  125.69   11.60
  -8  -2   6  126.19   13.70
  -8   2   5  337.97   19.50
   8   2  -5  361.86   22.60
  -8   2   5  365.16   23.20
  -8  -2   5  366.36   21.10
  -8   2   4  178.98   15.40
  -8  -2   4  187.58   13.70
   8   2  -3    4.90    4.30
  -8   2   3    6.00    3.70
  -8  -2   3    3.70    2.40
  -8  -2   3   17.10    4.10
  -8   2   2  266.47   18.50
  -8  -2   2  254.67   15.70
  -8  -2   2  236.68   13.90
  -8   2   1   93.09   11.90
  -8  -2   1   82.99    9.80
  -8  -2   1   84.99    9.10
  -8   2   0   60.19    9.10
  -8  -2   0   63.69    7.70
  -8  -2   0   59.19    7.90
  -8   2  -1  546.05   28.30
  -8  -2  -1  559.94   25.70
  -8  -2  -1  596.74   26.00
  -8   2  -2 1031.00   44.50
  -8  -2  -2 1116.69   42.60
  -8  -2  -2 1117.49   43.10
  -8   2  -3   34.60    6.60
  -8  -2  -3   21.60    5.40
  -8   2  -4  997.60   41.20
  -8  -2  -4  970.80   40.60
  -8   2  -5  262.67   16.40
  -8  -2  -5  229.98   15.70
  -8   2  -6  152.48   12.30
  -8  -2  -6  165.78   13.10
  -8   2  -7   31.80    6.60
  -8  -2  -7   33.90    7.30
  -8   2  -8  144.99   12.30
  -8  -2  -8  166.78   16.60
  -8   3   9   -1.40    3.70
   8   3  -9    4.10    7.60
  -8   3   9    0.40    3.70
  -8  -3   9    2.20    3.40
  -8   3   8  175.88   17.90
  -8   3   8  164.38   18.80
   8   3  -8  184.98   22.40
  -8  -3   8  183.68   18.40
  -8   3   7   44.00    8.80
  -8   3   7   35.10    8.00
   8   3  -7   19.00    8.10
  -8  -3   7   34.70    7.90
  -8   3   6   16.30    5.10
   8   3  -6   23.50    8.00
  -8  -3   6   23.80    6.00
  -8   3   5  482.05   28.30
   8   3  -5  468.15   28.40
  -8  -3   5  496.75   25.40
   8   3  -4  119.09   14.30
  -8  -3   4  114.69   12.10
  -8   3   3  124.29   14.70
   8   3  -3  115.09   13.60
  -8  -3   3   87.39   10.40
  -8  -3   3  111.19   10.70
  -8   3   2  752.02   36.70
  -8  -3   2  758.62   32.10
  -8  -3   2  759.52   32.20
  -8   3   1 1106.09   47.80
  -8  -3   1 1088.19   42.60
  -8  -3   1 1141.09   43.80
  -8   3   0  338.87   21.10
  -8  -3   0  355.56   17.70
  -8  -3   0  345.77   18.70
  -8   3  -1  270.47   18.30
  -8  -3  -1  276.67   16.40
  -8   3  -2  359.76   20.90
  -8  -3  -2  342.67   19.30
  -8   3  -3   14.20    4.40
  -8  -3  -3    5.40    2.80
  -8   3  -4  217.38   15.30
  -8  -3  -4  225.98   15.40
  -8   3  -5  387.36   22.00
  -8  -3  -5  399.36   22.30
  -8   3  -6  154.48   12.70
  -8  -3  -6  163.18   13.40
  -8   3  -7  418.86   23.30
  -8  -3  -7  405.56   23.70
  -8   3  -8  300.37   19.40
  -8  -3  -8  309.77   20.50
   8   4  -8  182.58   23.70
  -8   4   8  122.79   16.80
  -8   4   8  133.59   15.90
  -8  -4   8  148.39   16.40
   8   4  -7  289.97   24.70
  -8   4   7  270.77   20.20
  -8   4   7  302.97   21.60
  -8  -4   7  310.07   20.30
  -8   4   6  174.78   18.00
   8   4  -6  147.99   18.80
  -8  -4   6  139.79   14.70
   8   4  -5  532.85   31.50
  -8   4   5  483.05   29.00
  -8  -4   5  473.75   25.20
   8   4  -4  249.78   20.00
  -8   4   4  224.38   18.60
  -8  -4   4  256.77   15.80
   8   4  -3   10.20    5.20
  -8   4   3   11.60    4.90
  -8  -4   3    8.40    3.20
  -8   4   2  217.58   16.80
  -8  -4   2  170.78   20.40
  -8  -4   2  179.38   13.20
  -8   4   1  285.77   19.60
  -8  -4   1  282.27   17.10
  -8   4   0   76.29   11.10
  -8  -4   0   74.39    9.50
  -8   4  -1  837.42   39.40
  -8  -4  -1  870.01   37.10
  -8   4  -2   21.70    6.20
  -8  -4  -2   24.70    5.70
  -8   4  -3   20.50    5.50
  -8  -4  -3   18.30    4.70
  -8   4  -4   44.90    8.00
  -8  -4  -4   40.90    7.40
  -8   4  -5  477.65   26.30
  -8  -4  -5  512.85   26.70
  -8   4  -6   71.19   10.60
  -8  -4  -6   73.89   11.40
  -8   4  -7   75.69   10.70
  -8  -4  -7   52.79    9.80
   8   5  -7   16.80    7.40
  -8   5   6    0.10    6.00
   8   5  -6    3.80    4.90
  -8   5   5  357.16   24.30
   8   5  -5  329.07   25.80
  -8  -5   5  334.77   20.10
  -8   5   4  111.69   15.00
   8   5  -4  157.08   20.00
  -8  -5   4  115.99   12.90
   8   5  -3   21.30    7.20
  -8   5   3   15.40    5.90
  -8  -5   3   16.90    5.10
   8   5  -2    1.80    3.80
  -8   5   2    7.20    4.50
  -8  -5   2    4.50    3.30
  -8   5   1  577.04   31.40
  -8  -5   1  599.84   29.20
  -8   5   0  155.58   17.00
  -8  -5   0  155.98   12.90
  -8   5  -1  171.78   15.10
  -8  -5  -1  192.38   14.40
  -8   5  -2  568.94   30.10
  -8  -5  -2  566.64   28.80
  -8   5  -3    2.30    2.90
  -8  -5  -3   -0.50    2.00
  -8   5  -4  470.85   26.50
  -8  -5  -4  467.15   25.90
  -8   5  -5  276.27   19.30
  -8  -5  -5  275.77   19.00
  -8   5  -6   93.59   12.80
  -8  -5  -6  156.18   16.70
   8   6  -6  292.47   26.50
   8   6  -5  189.58   23.60
   8   6  -4  556.34   36.40
  -8  -6   4  515.75   28.40
  -8   6   3    5.50    4.70
   8   6  -3    0.10    5.10
  -8  -6   3    8.20    3.70
  -8   6   2  353.76   23.70
   8   6  -2  347.77   27.20
  -8  -6   2  323.57   21.20
   8   6  -1   48.00   11.30
  -8   6   1   54.09   10.30
  -8  -6   1   42.10    8.40
  -8   6   0  112.29   14.50
  -8  -6   0  126.29   14.70
  -8   6  -1  329.67   23.10
  -8  -6  -1  378.36   22.60
  -8   6  -2  312.37   21.40
  -8  -6  -2  301.77   20.20
  -8   6  -3   11.60    5.30
  -8  -6  -3    5.40    3.70
  -8   6  -4  167.28   17.50
  -8  -6  -4  140.89   15.50
  -8   6  -5  160.28   17.40
  -8  -6  -5  162.58   16.80
   8   7  -4  381.96   31.60
   8   7  -3    0.40    5.30
  -8  -7   3    4.70    4.30
   8   7  -2  315.87   27.30
  -8  -7   2  289.37   20.90
  -8   7   1   37.80   10.20
   8   7  -1   56.29   13.30
  -8  -7   1   51.59   10.00
  -8   7   0  123.99   15.90
  -8  -7   0  117.79   15.00
  -8   7  -1   70.69   12.60
  -8  -7  -1   41.30    8.60
  -8   7  -2  457.75   28.20
  -8  -7  -2  459.65   27.60
  -8   7  -3    1.60    4.30
  -8  -7  -3   -0.20    3.40
   9   0  -9    3.60    4.40
  -9   0   9    2.00    4.00
  -9   0   8   18.60    7.20
   9   0  -8   39.90   13.70
  -9   0   7   -1.90    2.60
  -9   0   6  788.92   39.30
  -9   0   5   -1.80    1.70
  -9   0   4  202.98   16.40
  -9   0   3    0.50    2.40
  -9   0   2  901.01   34.90
  -9   0   2  917.01   41.30
  -9   0   1    1.00    1.50
  -9   0   1    1.90    2.50
  -9   0   0 1135.19   47.00
  -9   0  -1    2.50    2.70
  -9   0  -2  100.89   11.90
  -9   0  -3    1.40    2.10
  -9   0  -4   45.30    7.80
  -9   0  -5    0.50    2.50
  -9   0  -6  212.28   15.20
  -9   1   9   30.60    8.30
   9   1  -9   15.80    7.40
  -9  -1   9   24.20    7.40
   9   1  -8  296.97   22.90
  -9   1   8  257.17   20.90
  -9  -1   8  256.17   20.30
  -9   1   7   25.50    7.40
  -9  -1   7   21.30    6.80
  -9   1   6 1036.10   48.00
  -9  -1   6 1020.10   46.70
  -9   1   5  192.08   19.60
  -9  -1   5  189.68   15.70
  -9   1   4   77.09   11.80
  -9  -1   4  102.79   12.90
  -9   1   3  144.69   15.90
  -9  -1   3  139.89   14.90
  -9   1   2   12.80    5.00
  -9  -1   2    0.10    1.40
  -9  -1   2    7.00    3.60
  -9   1   1    7.30    3.70
  -9  -1   1   18.30    5.20
  -9  -1   1   11.60    3.50
  -9   1   0  701.93   33.80
  -9  -1   0  768.12   33.50
  -9  -1   0  699.93   30.30
  -9   1  -1   -0.20    1.60
  -9  -1  -1    2.30    2.00
  -9  -1  -1    3.10    2.60
  -9   1  -2  244.58   17.00
  -9  -1  -2  247.98   15.20
  -9  -1  -2  230.78   15.50
  -9   1  -3  127.69   14.10
  -9  -1  -3  121.39   12.70
  -9  -1  -3  134.39   10.90
  -9   1  -4 1734.93   65.69
  -9  -1  -4 1758.82   64.49
  -9  -1  -4 1644.84   64.39
  -9   1  -5   38.20    7.30
  -9  -1  -5   39.70    7.40
  -9   1  -6  211.78   15.60
  -9  -1  -6  241.08   16.50
  -9   1  -7  129.79   14.10
  -9  -1  -7  117.69   13.00
  -9   1  -8   88.29   11.60
  -9  -1  -8   98.39   12.80
  -9   2   9  334.47   24.50
   9   2  -9  346.57   28.40
  -9  -2   9  340.17   24.40
  -9   2   8    5.60    4.70
   9   2  -8    2.50    5.90
  -9  -2   8   -2.90    3.00
  -9   2   7   25.30    7.40
   9   2  -7   32.60   10.00
  -9  -2   7   15.20    5.80
  -9   2   6  584.54   33.70
  -9  -2   6  627.74   32.20
  -9   2   5    8.40    4.30
  -9  -2   5   26.90    6.70
  -9   2   4  250.67   19.50
  -9  -2   4  249.58   17.40
  -9   2   3  185.08   16.20
  -9  -2   3  192.98   14.60
  -9   2   2  866.51   39.70
  -9  -2   2  765.62   35.50
  -9  -2   2  799.42   33.60
  -9   2   1   11.90    4.70
  -9  -2   1    9.70    3.80
  -9  -2   1   11.40    4.10
  -9   2   0  614.84   30.50
  -9  -2   0  579.64   26.70
  -9  -2   0  559.04   27.40
  -9   2  -1  582.44   30.40
  -9  -2  -1  612.74   27.90
  -9  -2  -1  622.74   28.10
  -9   2  -2   68.09   10.30
  -9  -2  -2   81.49    9.80
  -9  -2  -2  109.49   11.40
  -9   2  -3  324.97   20.50
  -9  -2  -3  362.46   19.90
  -9   2  -4    7.70    3.70
  -9  -2  -4    0.30    2.20
  -9   2  -5   20.40    5.70
  -9  -2  -5   16.60    5.50
  -9   2  -6  229.58   16.40
  -9  -2  -6  222.68   16.30
  -9   2  -7   48.80    8.70
  -9  -2  -7   45.90    8.50
  -9   2  -8  119.79   13.90
  -9  -2  -8   92.69   12.60
  -9   3   8   23.70    7.90
   9   3  -8   32.50    9.70
  -9  -3   8   41.20    9.10
   9   3  -7   35.70   10.20
  -9   3   7   34.90    8.90
  -9  -3   7   34.50    7.80
   9   3  -6  227.88   30.80
  -9   3   6  228.08   19.40
  -9  -3   6  225.48   17.30
  -9   3   5  637.74   36.50
  -9  -3   5  740.23   34.30
  -9   3   4  125.69   16.20
  -9  -3   4  111.49   12.70
  -9   3   3  797.52   38.80
  -9  -3   3  743.03   34.00
  -9  -3   3  732.13   32.80
  -9   3   2  110.49   14.10
  -9  -3   2   97.79   11.00
  -9  -3   2   86.29   10.10
  -9   3   1    7.00    3.70
  -9  -3   1    4.10    2.80
  -9  -3   1   10.10    3.60
  -9   3   0  553.54   29.00
  -9  -3   0  505.25   25.50
  -9   3  -1   50.19    9.10
  -9  -3  -1   76.09    9.70
  -9   3  -2  504.55   27.10
  -9  -3  -2  425.96   23.70
  -9   3  -3  319.47   20.60
  -9  -3  -3  311.67   19.10
  -9   3  -4  516.75   27.50
  -9  -3  -4  490.65   26.20
  -9   3  -5   52.79    9.40
  -9  -3  -5   59.49    9.80
  -9   3  -6   23.80    6.20
  -9  -3  -6   31.80    7.00
  -9   3  -7  490.95   27.50
  -9  -3  -7  523.75   28.40
   9   4  -7   29.20    9.20
  -9   4   7   33.70    8.70
  -9  -4   7   46.80    9.40
  -9   4   6  135.29   17.50
   9   4  -6  127.09   17.10
  -9  -4   6  156.78   16.30
  -9   4   5    1.80    4.00
  -9  -4   5    2.30    3.10
  -9   4   4  150.68   18.00
  -9  -4   4  131.79   13.50
  -9   4   3  344.67   23.30
  -9  -4   3  315.27   18.70
  -9  -4   3  330.17   19.80
  -9   4   2  116.29   14.80
  -9  -4   2  113.09   12.70
  -9   4   1    1.70    2.80
  -9  -4   1   -0.80    1.70
  -9   4   0    8.80    3.90
  -9  -4   0    4.70    3.30
  -9   4  -1 1082.09   48.00
  -9  -4  -1 1029.40   44.30
  -9   4  -2   23.80    6.60
  -9  -4  -2   17.90    5.00
  -9   4  -3  571.44   30.10
  -9  -4  -3  501.25   27.40
  -9   4  -4   96.89   13.20
  -9  -4  -4   90.79   12.10
  -9   4  -5   -2.80    2.10
  -9  -4  -5    0.40    2.80
  -9   4  -6   90.29   12.70
  -9  -4  -6   77.09   11.40
  -9   4  -7   74.59   11.60
  -9  -4  -7   53.09    9.80
  -9   5   6   20.50    7.30
   9   5  -6   30.70    9.80
  -9  -5   6   19.30    6.10
  -9   5   5  393.96   27.00
  -9   5   4   70.19   12.60
  -9   5   3  561.24   32.60
  -9  -5   3  580.54   29.50
  -9   5   2  665.63   35.00
  -9  -5   2  625.84   32.00
  -9   5   1    0.20    3.70
  -9  -5   1    0.60    2.30
  -9   5   0  353.86   22.80
  -9  -5   0  290.77   19.80
  -9   5  -1   53.89   10.20
  -9  -5  -1   29.20    6.90
  -9   5  -2  210.98   17.50
  -9  -5  -2  219.18   16.60
  -9   5  -3  268.87   19.90
  -9  -5  -3  256.37   18.50
  -9   5  -4    2.10    3.20
  -9  -5  -4    0.30    2.70
  -9   5  -5   32.80    8.40
  -9  -5  -5   33.40    7.60
   9   6  -5    4.80    6.20
  -9   6   4   81.19   14.20
  -9   6   3  127.99   16.40
  -9  -6   3  120.49   14.70
  -9   6   2   13.90    5.50
  -9  -6   2   19.50    6.00
  -9   6   1    4.00    4.50
  -9  -6   1    1.90    3.70
  -9   6   0  438.96   27.40
  -9  -6   0  453.15   26.60
  -9   6  -1  385.76   25.80
  -9  -6  -1  375.26   23.90
  -9   6  -2    1.60    3.90
  -9  -6  -2    6.90    4.50
  -9   6  -3  104.49   14.80
  -9  -6  -3   90.99   12.80
  -9   6  -4  459.35   29.10
  -9  -6  -4  526.15   29.40
  -9  -7   2  879.71   43.70
  -9   7   1    4.50    4.80
  -9  -7   1   -0.20    3.30
  -9   7   0  100.09   14.60
  -9  -7   0  130.99   15.80
  -9   7  -1   22.70    8.20
  -9  -7  -1   17.10    6.50
 -10   0   8  182.68   20.60
 -10   0   7    2.40    3.50
 -10   0   6  295.67   22.50
 -10   0   5   -0.10    2.90
 -10   0   4  273.17   20.50
 -10   0   3    2.10    3.20
 -10   0   2   17.30    5.40
 -10   0   1    1.30    1.80
 -10   0   1   -1.30    2.00
 -10   0   0  493.55   23.60
 -10   0   0  517.75   27.20
 -10   0  -1   -1.60    1.60
 -10   0  -2  600.54   30.00
 -10   0  -3    0.80    2.20
 -10   0  -4  349.96   21.90
 -10   0  -5    1.50    2.40
 -10   1   8    1.10    3.80
 -10  -1   8   -0.40    3.30
 -10   1   7   97.49   15.20
 -10  -1   7  108.99   15.30
 -10   1   6  105.89   15.30
 -10  -1   6  134.09   17.10
 -10   1   5   23.70    6.90
 -10  -1   5   17.80    5.70
 -10   1   4 1004.00   48.30
 -10  -1   4 1049.99   47.30
 -10   1   3   42.10    9.00
 -10  -1   3   48.60    9.30
 -10   1   2  283.57   19.50
 -10  -1   2  228.18   17.50
 -10   1   1    1.00    2.80
 -10  -1   1    7.20    3.20
 -10  -1   1    4.70    3.20
 -10   1   0 1005.90   44.20
 -10  -1   0 1017.60   43.10
 -10  -1   0  990.60   40.30
 -10   1  -1   16.10    5.30
 -10  -1  -1   21.70    5.50
 -10  -1  -1   20.50    4.90
 -10   1  -2  133.09   14.60
 -10  -1  -2  128.99   10.70
 -10  -1  -2  119.69   13.00
 -10   1  -3  216.48   16.70
 -10  -1  -3  197.38   14.60
 -10  -1  -3  191.58   14.10
 -10   1  -4   30.00    7.40
 -10  -1  -4   32.90    6.80
 -10   1  -5   73.99   11.30
 -10  -1  -5   73.69   10.50
 -10   1  -6  353.36   22.00
 -10  -1  -6  314.37   20.50
 -10   1  -7    4.50    3.80
 -10  -1  -7    2.60    3.20
 -10   2   8  214.08   23.60
 -10  -2   8  196.78   21.40
 -10   2   7   -0.70    3.30
 -10  -2   7    2.50    3.30
 -10   2   6  378.46   26.40
 -10  -2   6  296.97   22.20
 -10   2   5    6.70    5.30
 -10  -2   5    2.70    3.50
 -10   2   4   70.89   11.80
 -10  -2   4  101.09   13.40
 -10   2   3  513.75   28.90
 -10  -2   3  395.56   24.40
 -10   2   2    5.10    3.80
 -10  -2   2    2.60    3.00
 -10  -2   2    0.40    2.00
 -10   2   1  665.13   32.90
 -10  -2   1  612.14   28.60
 -10  -2   1  575.54   29.70
 -10   2   0  230.98   17.10
 -10  -2   0  198.58   14.70
 -10  -2   0  217.58   14.60
 -10   2  -1   46.50    9.20
 -10  -2  -1   80.19   10.20
 -10  -2  -1   56.19    8.60
 -10   2  -2  640.54   33.40
 -10  -2  -2  650.03   30.20
 -10   2  -3   16.10    6.40
 -10  -2  -3   14.30    4.20
 -10   2  -4  342.27   22.00
 -10  -2  -4  317.37   19.80
 -10   2  -5   62.09   10.50
 -10  -2  -5   41.60    8.40
 -10   2  -6  894.71   41.80
 -10  -2  -6  910.41   41.10
 -10   2  -7   27.20    7.10
 -10  -2  -7   34.40    7.90
 -10   3   7  620.24   36.90
 -10  -3   7  613.84   34.30
 -10   3   6    4.90    4.80
 -10  -3   6   11.00    4.70
 -10   3   5    2.40    4.90
 -10  -3   5    1.70    3.30
 -10   3   4  587.34   33.80
 -10  -3   4  545.85   29.60
 -10   3   3  108.09   14.30
 -10  -3   3  113.89   13.40
 -10   3   2  384.06   25.00
 -10  -3   2  375.96   21.80
 -10  -3   2  425.96   23.00
 -10   3   1    9.80    4.70
 -10  -3   1   14.40    4.70
 -10   3   0  391.86   24.30
 -10  -3   0  393.46   22.00
 -10   3  -1   49.30   10.00
 -10  -3  -1   37.70    7.60
 -10   3  -2    7.20    4.30
 -10  -3  -2    2.60    2.90
 -10   3  -3  704.33   37.00
 -10  -3  -3  795.12   35.90
 -10   3  -4    2.60    2.80
 -10  -3  -4    6.10    3.90
 -10   3  -5  346.37   23.00
 -10  -3  -5  361.06   22.40
 -10   3  -6   23.20    6.80
 -10  -3  -6   26.60    6.50
 -10   4   7    4.20    5.60
 -10  -4   7    1.10    4.20
 -10   4   6  102.29   16.30
 -10  -4   6  124.09   15.20
 -10   4   5    4.80    5.10
 -10  -4   5    2.40    3.20
 -10   4   4   79.69   13.70
 -10  -4   4   85.69   11.50
 -10   4   3  935.01   45.50
 -10   4   2    6.60    4.60
 -10  -4   2    8.10    4.50
 -10   4   1  947.91   43.70
 -10  -4   1  867.51   40.20
 -10   4   0   54.59   10.40
 -10  -4   0   23.40    6.10
 -10   4  -1   23.80    7.10
 -10  -4  -1   34.90    7.50
 -10   4  -2  150.38   18.00
 -10  -4  -2  148.29   15.90
 -10   4  -3   28.90    7.90
 -10  -4  -3   27.40    6.60
 -10   4  -4  138.59   17.20
 -10  -4  -4  142.79   15.80
 -10   4  -5   16.90    6.10
 -10  -4  -5   13.30    5.50
 -10   5   5   -1.40    4.50
 -10   5   4   80.49   13.40
 -10   5   3  118.09   15.80
 -10  -5   3  102.29   13.80
 -10   5   2  237.68   19.40
 -10  -5   2  211.68   17.20
 -10   5   1   23.50    7.10
 -10  -5   1   21.70    6.20
 -10   5   0  104.09   14.30
 -10  -5   0   75.69   11.50
 -10   5  -1   37.00    9.10
 -10  -5  -1   42.30    8.90
 -10   5  -2  245.98   20.50
 -10  -5  -2  281.07   19.90
 -10   5  -3  552.64   32.20
 -10  -5  -3  522.15   29.80
 -10   5  -4    8.20    5.30
 -10  -5  -4   23.60    7.40
 -10   6   3  383.66   26.10
 -10  -6   3  323.07   23.50
 -10   6   2   -0.80    3.80
 -10  -6   2    4.40    4.20
 -10   6   1  224.28   19.00
 -10  -6   1  221.68   21.90
 -10   6   0  522.05   31.30
 -10  -6   0  539.05   30.70
 -10   6  -1   -0.10    4.10
 -10  -6  -1    6.50    4.20
 -10   6  -2   24.20    8.00
 -10  -6  -2    9.70    5.40
 -11   0   7   -2.40    4.40
 -11   0   6   12.60    5.70
 -11   0   5    0.00    3.20
 -11   0   4  765.12   40.10
 -11   0   3   -1.90    2.40
 -11   0   2 1394.66   58.99
 -11   0   1    4.60    3.30
 -11   0   1    2.00    2.10
 -11   0   0  311.17   17.80
 -11   0   0  324.07   20.80
 -11   0  -1   -1.20    1.80
 -11   0  -1   -1.70    1.80
 -11   0  -2  884.61   40.30
 -11   0  -3   -0.70    2.30
 -11   0  -4   -1.40    2.20
 -11   0  -5    1.90    3.50
 -11   1   7   78.99   14.60
 -11  -1   7   77.79   14.00
 -11   1   6   87.79   14.80
 -11  -1   6   82.49   13.70
 -11   1   5   23.20    7.30
 -11  -1   5   14.30    6.50
 -11   1   4  253.17   20.90
 -11  -1   4  238.38   19.60
 -11   1   3    1.90    3.80
 -11  -1   3    1.60    3.10
 -11   1   2    7.20    4.70
 -11  -1   2   -0.30    2.20
 -11   1   1   99.29   13.40
 -11  -1   1  109.49   13.30
 -11  -1   1   99.89   10.60
 -11   1   0   17.50    5.90
 -11  -1   0   13.40    4.10
 -11  -1   0   17.40    5.40
 -11   1  -1  122.69   14.40
 -11  -1  -1  112.89   11.90
 -11  -1  -1  114.09   13.20
 -11   1  -2 1564.54   63.39
 -11  -1  -2 1541.05   61.19
 -11  -1  -2 1606.14   60.39
 -11   1  -3   17.90    5.70
 -11  -1  -3   16.70    5.00
 -11   1  -4  347.27   23.30
 -11  -1  -4  342.47   20.80
 -11   1  -5   95.79   13.90
 -11  -1  -5   88.89   11.40
 -11   1  -6   67.19   11.30
 -11  -1  -6   80.79   11.10
 -11   2   7   69.69   14.20
 -11  -2   7   83.09   13.90
 -11   2   6    6.20    5.60
 -11  -2   6   21.90    7.20
 -11   2   5  294.27   23.70
 -11  -2   5  285.77   21.80
 -11   2   4  343.77   24.90
 -11  -2   4  318.97   22.40
 -11   2   3   29.70    8.00
 -11  -2   3   25.30    7.20
 -11   2   2 1012.10   46.40
 -11  -2   2  960.70   44.10
 -11   2   1  140.29   15.80
 -11  -2   1  148.09   12.30
 -11  -2   1  170.08   14.20
 -11   2   0  302.97   20.80
 -11  -2   0  290.97   19.00
 -11  -2   0  301.37   18.40
 -11   2  -1   13.50    5.30
 -11  -2  -1    8.10    3.80
 -11   2  -2  554.84   30.80
 -11  -2  -2  562.84   28.10
 -11   2  -3    4.20    3.60
 -11  -2  -3    6.60    3.50
 -11   2  -4   41.20    9.60
 -11  -2  -4   36.10    7.70
 -11   2  -5  354.96   23.80
 -11  -2  -5  336.47   21.50
 -11   2  -6    1.00    3.40
 -11  -2  -6   -0.60    2.50
 -11   3   6  142.19   19.50
 -11  -3   6  154.88   18.00
 -11   3   5   62.49   12.40
 -11  -3   5   70.39   12.00
 -11   3   4  239.18   23.60
 -11  -3   4  192.78   16.70
 -11   3   3    2.30    4.10
 -11  -3   3    1.40    2.80
 -11   3   2   77.09   12.40
 -11  -3   2   63.29    9.80
 -11  -3   2   73.69   11.00
 -11   3   1  498.95   28.80
 -11  -3   1  478.05   25.90
 -11   3   0   84.49   12.50
 -11  -3   0   49.90    8.50
 -11   3  -1  518.45   29.40
 -11  -3  -1  466.85   26.20
 -11   3  -2  178.68   19.10
 -11  -3  -2  245.88   17.20
 -11   3  -3   51.39   10.70
 -11  -3  -3   45.20    8.70
 -11   3  -4  106.89   15.70
 -11  -3  -4   92.79   12.40
 -11   3  -5  204.98   18.00
 -11  -3  -5  209.28   16.90
 -11   4   5  590.94   36.10
 -11  -4   5  556.54   31.50
 -11   4   4   -1.30    4.10
 -11   4   3   56.19   11.20
 -11   4   2   76.29   12.50
 -11  -4   2   94.79   12.80
 -11   4   1  296.27   21.90
 -11  -4   1  331.07   21.30
 -11   4   0  120.19   15.40
 -11  -4   0   81.69   12.10
 -11   4  -1   41.20    9.40
 -11  -4  -1   53.79    9.80
 -11   4  -2  144.39   17.50
 -11  -4  -2  149.49   15.90
 -11   4  -3   20.70    7.20
 -11  -4  -3   44.90    9.20
 -11   4  -4  145.79   17.90
 -11  -4  -4  107.49   13.70
 -11   5   4  205.08   22.10
 -11   5   3   18.70    7.40
 -11   5   2  342.27   24.40
 -11  -5   2  319.27   22.50
 -11   5   1  328.47   23.60
 -11  -5   1  339.97   23.00
 -11   5   0   31.50    8.30
 -11  -5   0   39.20    8.40
 -11   5  -1  297.07   22.70
 -11  -5  -1  332.27   22.50
 -11   5  -2   68.79   12.70
 -11  -5  -2   51.89   10.40
 -11   5  -3   36.60    9.90
 -11  -5  -3   30.20    7.60
 -12   0   6  831.42   45.70
 -12   0   5   -0.60    3.70
 -12   0   4  119.09   16.60
 -12   0   3    2.30    3.90
 -12   0   2   32.50    8.40
 -12   0   1    0.90    2.90
 -12   0   0   86.99   12.30
 -12   0   0   86.89   10.30
 -12   0  -1    3.40    3.50
 -12   0  -1   -1.90    2.10
 -12   0  -2   16.30    5.60
 -12   0  -2   25.80    6.00
 -12   0  -3    2.00    3.80
 -12   0  -3    8.80    3.90
 -12   0  -4 1593.34   64.79
 -12   0  -4 1569.14   62.59
 -12   0  -5   -0.30    2.60
 -12  -1   6  106.09   16.20
 -12   1   5   30.20    9.20
 -12  -1   5   19.40    7.20
 -12   1   4   94.59   14.70
 -12  -1   4   88.59   13.40
 -12   1   3   44.80    9.70
 -12  -1   3   38.80    8.90
 -12   1   2 1796.82   71.59
 -12  -1   2 1695.73   70.29
 -12   1   1    3.80    3.70
 -12  -1   1   13.50    5.50
 -12  -1   1    5.90    3.40
 -12   1   0  385.16   24.30
 -12  -1   0  366.86   22.90
 -12  -1   0  399.36   21.40
 -12   1  -1  175.88   15.50
 -12  -1  -1  174.98   13.70
 -12  -1  -1  196.28   15.50
 -12   1  -2   81.59   12.00
 -12  -1  -2  115.59   13.40
 -12  -1  -2  130.49   13.50
 -12   1  -3    1.20    2.90
 -12  -1  -3    4.80    3.60
 -12   1  -4   67.39   11.70
 -12  -1  -4   77.59   10.70
 -12   1  -5    3.80    4.40
 -12  -1  -5    6.20    3.70
 -12   2   6  499.05   34.40
 -12  -2   6  536.65   33.70
 -12   2   5  192.78   22.10
 -12  -2   5  184.78   21.00
 -12   2   4   95.49   14.80
 -12  -2   4   73.79   12.70
 -12   2   3   92.99   14.20
 -12  -2   3   99.39   13.70
 -12   2   2   43.30    9.50
 -12  -2   2   84.29   12.50
 -12   2   1    8.50    4.80
 -12  -2   1   -0.10    3.30
 -12  -2   1    0.40    2.90
 -12   2   0  127.59   15.70
 -12  -2   0  177.68   13.90
 -12   2  -1  112.09   14.90
 -12  -2  -1  103.09   12.30
 -12   2  -2   45.10    9.60
 -12  -2  -2   37.40    7.60
 -12   2  -3  228.68   19.10
 -12  -2  -3  224.48   16.70
 -12   2  -4  827.92   43.20
 -12  -2  -4  863.81   39.60
 -12   3   5  109.19   16.80
 -12  -3   5  112.59   15.90
 -12   3   4  113.89   16.70
 -12  -3   4  115.59   15.50
 -12   3   3  386.86   25.80
 -12  -3   3  309.47   22.20
 -12   3   2  311.57   22.80
 -12   3   1   44.80    9.60
 -12  -3   1   25.80    6.40
 -12   3   0   78.79   12.50
 -12  -3   0   86.79   11.50
 -12   3  -1  482.75   29.40
 -12  -3  -1  477.55   26.80
 -12   3  -2   46.40   10.20
 -12  -3  -2   36.20    7.90
 -12   3  -3   35.30    9.30
 -12  -3  -3   23.60    6.40
 -12   3  -4  107.79   16.10
 -12  -3  -4   86.29   12.30
 -12   4   4   22.10    8.00
 -12   4   3  161.18   18.90
 -12   4   2   96.19   14.10
 -12   4   1    5.20    5.00
 -12  -4   1    0.70    3.30
 -12   4   0  145.69   17.40
 -12  -4   0  139.59   16.20
 -12   4  -1  197.48   21.40
 -12  -4  -1  238.58   18.30
 -12   4  -2   82.09   13.60
 -12  -4  -2   90.49   13.30
 -13   0   5    2.20    5.10
 -13   0   4  179.78   20.40
 -13   0   3   -3.20    3.30
 -13   0   2  181.88   19.20
 -13   0   1    0.10    3.20
 -13   0   0 1503.65   62.59
 -13   0   0 1547.85   58.99
 -13   0  -1   -0.50    2.30
 -13   0  -1    1.90    3.60
 -13   0  -2   63.99    9.50
 -13   0  -2   60.19   10.60
 -13   0  -3    0.30    3.30
 -13   0  -3    1.90    3.20
 -13   1   4  140.49   18.10
 -13  -1   4  185.98   21.10
 -13   1   3  146.29   17.80
 -13  -1   3  134.89   17.30
 -13   1   2   52.09   10.40
 -13  -1   2   56.39   10.80
 -13   1   1   45.50    9.20
 -13  -1   1   43.50    9.10
 -13   1   0   80.59   13.00
 -13  -1   0   91.29   12.60
 -13  -1   0   78.19   10.50
 -13   1  -1    0.90    3.70
 -13  -1  -1    4.70    3.20
 -13  -1  -1    2.10    3.70
 -13   1  -2  105.69   14.70
 -13  -1  -2  128.99   14.00
 -13   1  -3    1.00    4.00
 -13  -1  -3    2.30    3.80
 -13   2   4  248.98   21.70
 -13  -2   4  264.07   21.60
 -13   2   3    0.70    3.50
 -13  -2   3    5.60    5.00
 -13   2   2  153.08   17.50
 -13  -2   2  166.08   18.40
 -13   2   1  105.69   14.70
 -13   2   0  845.42   42.30
 -13  -2   0  861.91   39.30
 -13   2  -1   25.10    7.50
 -13  -2  -1   16.80    5.70
 -13   2  -2    9.30    5.40
 -13  -2  -2   10.30    4.90
 -13   3   2   -1.70    2.90
 -13   3   1  245.78   20.20
 -13   3   0    8.70    5.10
 -13  -3   0    7.10    4.20
 -13   3  -1    3.30    4.30
 -13  -3  -1    6.50    4.40
 -14   0   1   11.90    5.30
   0   0   0    0.00    0.00

_computing_structure_solution     'SHELXT 2018/2 (Sheldrick, 2018)'
;
_shelx_hkl_checksum              22623
_olex2_submission_special_instructions 'No special instructions were received'
loop_
_space_group_symop_operation_xyz
'x, y, z'
'-x, y+1/2, -z+1/2'
'-x, -y, -z'
'x, -y-1/2, z-1/2'
loop_
_atom_site_label
_atom_site_type_symbol
_atom_site_fract_x
_atom_site_fract_y
_atom_site_fract_z
_atom_site_U_iso_or_equiv
_atom_site_adp_type
_atom_site_occupancy
_atom_site_site_symmetry_order
_atom_site_calc_flag
_atom_site_refinement_flags_posn
_atom_site_refinement_flags_adp
_atom_site_refinement_flags_occupancy
_atom_site_disorder_assembly
_atom_site_disorder_group
I1 I 0.54833(4) 0.81360(6) 0.36355(4) 0.00998(12) Uani 1 1 d . . . . .
Ba1 Ba 0.23558(3) 0.68926(6) 0.54217(4) 0.01233(11) Uani 1 1 d . . . . .
I2 I 0.91775(4) 0.75051(6) 0.71599(5) 0.01028(12) Uani 1 1 d . . . . .
F1 F 1.0961(3) 0.8552(5) 0.7740(4) 0.0158(9) Uani 1 1 d . . . . .
F4 F 0.3691(3) 0.7143(6) 0.2990(4) 0.0147(9) Uani 1 1 d . . . . .
F2 F 0.7566(3) 0.6501(5) 0.6420(4) 0.0194(9) Uani 1 1 d . . . . .
F3 F 0.7097(3) 0.9270(6) 0.4312(4) 0.0188(9) Uani 1 1 d . . . . .
O4 O 0.4948(4) 0.8104(7) 0.5450(5) 0.0155(10) Uani 1 1 d . . . . .
O2 O 0.8631(4) 0.9852(7) 0.7142(5) 0.0183(11) Uani 1 1 d . . . . .
O1 O 0.9735(4) 0.7172(7) 0.5379(5) 0.0210(12) Uani 1 1 d . . . . .
O3 O 0.6122(4) 0.5865(6) 0.3514(5) 0.0174(11) Uani 1 1 d . . . . .
loop_
_atom_site_aniso_label
_atom_site_aniso_U_11
_atom_site_aniso_U_22
_atom_site_aniso_U_33
_atom_site_aniso_U_23
_atom_site_aniso_U_13
_atom_site_aniso_U_12
I1 0.0079(2) 0.0109(2) 0.0112(2) 0.00068(16) 0.00062(15) 0.00023(15)
Ba1 0.0087(2) 0.0157(2) 0.0125(2) -0.00077(16) 0.00045(14) -0.00049(14)
I2 0.0094(2) 0.0102(2) 0.0113(2) -0.00158(17) 0.00088(14) -0.00094(15)
F1 0.0105(19) 0.014(2) 0.023(2) -0.0001(17) 0.0009(15) -0.0032(15)
F4 0.0050(18) 0.026(2) 0.013(2) 0.0029(17) 0.0003(14) -0.0033(15)
F2 0.010(2) 0.021(2) 0.027(2) 0.0006(18) -0.0057(16) -0.0021(15)
F3 0.013(2) 0.022(2) 0.021(2) 0.0009(18) -0.0042(15) -0.0031(16)
O4 0.012(2) 0.021(3) 0.015(3) 0.003(2) 0.0078(18) -0.0032(18)
O2 0.015(2) 0.013(3) 0.027(3) -0.006(2) 0.001(2) 0.0013(19)
O1 0.018(3) 0.033(3) 0.013(3) -0.006(2) 0.008(2) 0.003(2)
O3 0.018(3) 0.011(3) 0.023(3) -0.001(2) -0.0024(19) 0.0047(19)
loop_
_atom_type_symbol
_atom_type_description
_atom_type_scat_dispersion_real
_atom_type_scat_dispersion_imag
_atom_type_scat_source
Ba Ba -0.3244 2.2819 'International Tables Vol C Tables 4.2.6.8 and 6.1.1.4'
F F 0.0171 0.0103 'International Tables Vol C Tables 4.2.6.8 and 6.1.1.4'
I I -0.4742 1.8119 'International Tables Vol C Tables 4.2.6.8 and 6.1.1.4'
O O 0.0106 0.0060 'International Tables Vol C Tables 4.2.6.8 and 6.1.1.4'
loop_
_geom_angle_atom_site_label_1
_geom_angle_atom_site_label_2
_geom_angle_atom_site_label_3
_geom_angle
_geom_angle_site_symmetry_1
_geom_angle_site_symmetry_3
_geom_angle_publ_flag
F4 I1 Ba1 40.98(10) . . ?
F3 I1 Ba1 136.21(11) . . ?
F3 I1 F4 174.88(15) . . ?
O4 I1 Ba1 43.79(14) . . ?
O4 I1 F4 84.74(18) . . ?
O4 I1 F3 92.73(18) . . ?
O3 I1 Ba1 99.39(15) . . ?
O3 I1 F4 91.38(19) . . ?
O3 I1 F3 93.48(19) . . ?
O3 I1 O4 101.3(2) . . ?
I2 Ba1 I1 160.391(18) 1_455 . ?
F1 Ba1 I1 134.41(7) 1_455 . ?
F1 Ba1 I1 95.17(8) 4_475 . ?
F1 Ba1 I2 86.08(8) 4_475 1_455 ?
F1 Ba1 I2 32.07(7) 1_455 1_455 ?
F1 Ba1 F1 113.86(12) 4_475 1_455 ?
F1 Ba1 F2 141.17(10) 1_455 3_666 ?
F1 Ba1 F2 56.36(11) 4_475 3_666 ?
F1 Ba1 F3 106.45(11) 4_475 3_676 ?
F1 Ba1 O4 119.95(12) 4_475 . ?
F1 Ba1 O2 113.88(12) 4_475 2_646 ?
F1 Ba1 O1 61.18(12) 4_475 1_455 ?
F4 Ba1 I1 30.45(8) . . ?
F4 Ba1 I1 83.13(8) 4_576 . ?
F4 Ba1 I2 92.91(7) 4_576 1_455 ?
F4 Ba1 I2 148.08(8) . 1_455 ?
F4 Ba1 F1 63.17(10) 4_576 1_455 ?
F4 Ba1 F1 171.99(11) 4_576 4_475 ?
F4 Ba1 F1 152.08(11) . 1_455 ?
F4 Ba1 F1 65.17(11) . 4_475 ?
F4 Ba1 F4 113.57(11) . 4_576 ?
F4 Ba1 F2 130.93(11) 4_576 3_666 ?
F4 Ba1 F2 63.76(11) . 3_666 ?
F4 Ba1 F3 83.53(11) . 3_676 ?
F4 Ba1 F3 65.62(11) 4_576 3_676 ?
F4 Ba1 O4 55.44(12) . . ?
F4 Ba1 O4 58.13(11) 4_576 . ?
F4 Ba1 O2 71.09(12) 4_576 2_646 ?
F4 Ba1 O2 152.82(13) . 2_646 ?
F4 Ba1 O1 124.31(12) . 1_455 ?
F4 Ba1 O1 117.36(12) 4_576 1_455 ?
F2 Ba1 I1 84.01(7) 3_666 . ?
F2 Ba1 I2 112.45(7) 3_666 1_455 ?
F3 Ba1 I1 68.61(7) 3_676 . ?
F3 Ba1 I2 92.23(8) 3_676 1_455 ?
F3 Ba1 F1 69.79(11) 3_676 1_455 ?
F3 Ba1 F2 146.87(11) 3_676 3_666 ?
F3 Ba1 O4 61.01(12) 3_676 . ?
F3 Ba1 O2 120.59(12) 3_676 2_646 ?
F3 Ba1 O1 97.73(13) 3_676 1_455 ?
O4 Ba1 I1 25.00(9) . . ?
O4 Ba1 I2 145.95(9) . 1_455 ?
O4 Ba1 F1 114.09(12) . 1_455 ?
O4 Ba1 F2 100.78(12) . 3_666 ?
O2 Ba1 I1 142.38(9) 2_646 . ?
O2 Ba1 I2 51.17(9) 2_646 1_455 ?
O2 Ba1 F1 54.92(12) 2_646 1_455 ?
O2 Ba1 F2 92.46(12) 2_646 3_666 ?
O2 Ba1 O4 122.55(13) 2_646 . ?
O1 Ba1 I1 149.14(10) 1_455 . ?
O1 Ba1 I2 24.92(10) 1_455 1_455 ?
O1 Ba1 F1 54.65(12) 1_455 1_455 ?
O1 Ba1 F2 96.66(12) 1_455 3_666 ?
O1 Ba1 O4 158.62(14) 1_455 . ?
O1 Ba1 O2 68.48(13) 1_455 2_646 ?
O3 Ba1 I1 78.42(10) 3_666 . ?
O3 Ba1 I2 117.73(10) 3_666 1_455 ?
O3 Ba1 F1 120.42(13) 3_666 4_475 ?
O3 Ba1 F1 111.52(13) 3_666 1_455 ?
O3 Ba1 F4 89.99(13) 3_666 . ?
O3 Ba1 F4 67.00(13) 3_666 4_576 ?
O3 Ba1 F2 64.06(13) 3_666 3_666 ?
O3 Ba1 F3 124.33(13) 3_666 3_676 ?
O3 Ba1 O4 70.04(13) 3_666 . ?
O3 Ba1 O2 66.60(14) 3_666 2_646 ?
O3 Ba1 O1 129.58(14) 3_666 1_455 ?
F1 I2 Ba1 47.70(10) . 1_655 ?
F2 I2 Ba1 127.05(12) . 1_655 ?
F2 I2 F1 174.31(16) . . ?
O2 I2 Ba1 113.70(14) . 1_655 ?
O2 I2 F1 87.74(18) . . ?
O2 I2 F2 93.41(18) . . ?
O1 I2 Ba1 41.96(15) . 1_655 ?
O1 I2 F1 85.38(19) . . ?
O1 I2 F2 88.9(2) . . ?
O1 I2 O2 104.4(2) . . ?
Ba1 F1 Ba1 108.16(12) 4_676 1_655 ?
I2 F1 Ba1 100.23(14) . 1_655 ?
I2 F1 Ba1 127.50(16) . 4_676 ?
I1 F4 Ba1 108.57(15) . . ?
I1 F4 Ba1 124.81(15) . 4_575 ?
Ba1 F4 Ba1 115.66(12) . 4_575 ?
I2 F2 Ba1 116.10(15) . 3_666 ?
I1 F3 Ba1 126.98(17) . 3_676 ?
I1 O4 Ba1 111.2(2) . . ?
I2 O2 Ba1 127.1(2) . 2_656 ?
I2 O1 Ba1 113.1(2) . 1_655 ?
I1 O3 Ba1 151.2(2) . 3_666 ?
loop_
_geom_bond_atom_site_label_1
_geom_bond_atom_site_label_2
_geom_bond_distance
_geom_bond_site_symmetry_2
_geom_bond_publ_flag
I1 Ba1 3.9290(12) . ?
I1 F4 2.101(4) . ?
I1 F3 1.977(4) . ?
I1 O4 1.781(4) . ?
I1 O3 1.772(5) . ?
Ba1 I2 3.8806(12) 1_455 ?
Ba1 F1 2.794(4) 4_475 ?
Ba1 F1 2.917(4) 1_455 ?
Ba1 F4 2.746(4) 4_576 ?
Ba1 F4 2.718(4) . ?
Ba1 F2 2.955(4) 3_666 ?
Ba1 F3 2.817(4) 3_676 ?
Ba1 O4 2.916(4) . ?
Ba1 O2 2.910(5) 2_646 ?
Ba1 O1 2.821(5) 1_455 ?
Ba1 O3 2.702(5) 3_666 ?
I2 Ba1 3.8806(13) 1_655 ?
I2 F1 2.093(4) . ?
I2 F2 1.954(4) . ?
I2 O2 1.780(5) . ?
I2 O1 1.778(5) . ?
F1 Ba1 2.794(4) 4_676 ?
F1 Ba1 2.917(4) 1_655 ?
F4 Ba1 2.746(4) 4_575 ?
F2 Ba1 2.955(4) 3_666 ?
F3 Ba1 2.817(4) 3_676 ?
O2 Ba1 2.910(4) 2_656 ?
O1 Ba1 2.821(5) 1_655 ?
O3 Ba1 2.702(5) 3_666 ?
