#------------------------------------------------------------------------------
#$Date: 2019-11-11 02:59:39 +0200 (Mon, 11 Nov 2019) $
#$Revision: 226205 $
#$URL: file:///home/coder/svn-repositories/cod/cif/4/00/30/4003099.cif $
#------------------------------------------------------------------------------
#
# This file is available in the Crystallography Open Database (COD),
# http://www.crystallography.net/
#
# All data on this site have been placed in the public domain by the
# contributors.
#
data_4003099
loop_
_publ_author_name
'Dolyniuk, Juli-Anna'
'Wang, Jian'
'Marple, Maxwell A. T.'
'Sen, Sabyasachi'
'Cheng, Yongqiang'
'Ramirez-Cuesta, Anibal J.'
'Kovnir, Kirill'
_publ_section_title
;
 Chemical Bonding and Transport Properties in Clathrates-I with Cu--Zn--P
 Frameworks
;
_journal_issue                   10
_journal_name_full               'Chemistry of Materials'
_journal_page_first              3419
_journal_paper_doi               10.1021/acs.chemmater.8b00966
_journal_volume                  30
_journal_year                    2018
_chemical_formula_sum            'Ba8 Cu13.7 P29.9 Zn2.4'
_chemical_formula_weight         3052.11
_space_group_crystal_system      cubic
_space_group_IT_number           223
_space_group_name_Hall           '-P 4n 2 3'
_space_group_name_H-M_alt        'P m -3 n'
_audit_creation_method           SHELXL-2016/6
_cell_angle_alpha                90
_cell_angle_beta                 90
_cell_angle_gamma                90
_cell_formula_units_Z            1
_cell_length_a                   10.0077(9)
_cell_length_b                   10.0077(9)
_cell_length_c                   10.0077(9)
_cell_measurement_reflns_used    10476
_cell_measurement_temperature    10(2)
_cell_measurement_theta_max      29.97
_cell_measurement_theta_min      2.88
_cell_volume                     1002.31(16)
_computing_structure_refinement  'SHELXL-2016/6 (Sheldrick, 2016)'
_computing_structure_solution    'SHELXT 2014/5 (Sheldrick, 2014)'
_diffrn_ambient_temperature      10(2)
_diffrn_measured_fraction_theta_full 1.000
_diffrn_measured_fraction_theta_max 1.000
_diffrn_measurement_device_type  'Bruker APEX II CCD area-detector'
_diffrn_measurement_method       'profile data from \w scans'
_diffrn_radiation_type           MoK\a
_diffrn_radiation_wavelength     0.71073
_diffrn_reflns_av_R_equivalents  0.0721
_diffrn_reflns_av_unetI/netI     0.0215
_diffrn_reflns_Laue_measured_fraction_full 1.000
_diffrn_reflns_Laue_measured_fraction_max 1.000
_diffrn_reflns_limit_h_max       14
_diffrn_reflns_limit_h_min       -14
_diffrn_reflns_limit_k_max       14
_diffrn_reflns_limit_k_min       -14
_diffrn_reflns_limit_l_max       14
_diffrn_reflns_limit_l_min       -14
_diffrn_reflns_number            10476
_diffrn_reflns_point_group_measured_fraction_full 1.000
_diffrn_reflns_point_group_measured_fraction_max 1.000
_diffrn_reflns_theta_full        25.242
_diffrn_reflns_theta_max         29.977
_diffrn_reflns_theta_min         2.878
_diffrn_source                   'fine-focus sealed tube'
_exptl_absorpt_coefficient_mu    17.409
_exptl_absorpt_correction_T_max  0.75
_exptl_absorpt_correction_T_min  0.59
_exptl_absorpt_correction_type   multi-scan
_exptl_absorpt_process_details   'SADABS v2.03 (Bruker, 2003)'
_exptl_crystal_colour            black
_exptl_crystal_density_diffrn    5.056
_exptl_crystal_description       block
_exptl_crystal_F_000             1366
_exptl_crystal_size_max          0.040
_exptl_crystal_size_mid          0.030
_exptl_crystal_size_min          0.030
_refine_diff_density_max         0.854
_refine_diff_density_min         -1.151
_refine_diff_density_rms         0.201
_refine_ls_extinction_method     none
_refine_ls_goodness_of_fit_ref   1.279
_refine_ls_hydrogen_treatment    undef
_refine_ls_matrix_type           full
_refine_ls_number_parameters     16
_refine_ls_number_reflns         291
_refine_ls_number_restraints     0
_refine_ls_restrained_S_all      1.279
_refine_ls_R_factor_all          0.0346
_refine_ls_R_factor_gt           0.0299
_refine_ls_shift/su_max          0.000
_refine_ls_shift/su_mean         0.000
_refine_ls_structure_factor_coef Fsqd
_refine_ls_weighting_details
'w=1/[\s^2^(Fo^2^)+12.7193P] where P=(Fo^2^+2Fc^2^)/3'
_refine_ls_weighting_scheme      calc
_refine_ls_wR_factor_gt          0.0566
_refine_ls_wR_factor_ref         0.0575
_reflns_Friedel_coverage         0.000
_reflns_number_gt                254
_reflns_number_total             291
_reflns_threshold_expression     'I > 2\s(I)'
_cod_data_source_file            cm8b00966_si_002.cif
_cod_data_source_block           shelx
_cod_original_cell_volume        1002.3(3)
_cod_original_formula_sum        'Ba8 Cu13.70 P29.90 Zn2.40'
_cod_database_code               4003099
_shelx_shelxl_version_number     2016/6
_shelx_space_group_comment
;
The symmetry employed for this shelxl refinement is uniquely defined
by the following loop, which should always be used as a source of
symmetry information in preference to the above space-group names.
They are only intended as comments.
;
_shelx_estimated_absorpt_t_min   0.543
_shelx_estimated_absorpt_t_max   0.623
_shelx_res_file
;

TITL JD_BaCuZnP_cub_10K_0m_a.res in Pm-3n
    shelx.res
    created by SHELXL-2016/6 at 15:20:37 on 24-Jan-2018
REM Old TITL JD_BaCuZnP_cub_10K_0m in Pm-3n

REM SHELXT solution in Pm-3n
REM R1 0.260,  Rweak 0.002,  Alpha 0.009,  Orientation as input
REM Formula found by SHELXT:  P8 Cu15 Ba4

CELL  0.71073  10.0077  10.0077  10.0077   90.000   90.000   90.000
ZERR    1.000   0.0009   0.0009   0.0009    0.000    0.000    0.000
LATT  1
SYMM -X, -Y, Z
SYMM -X, Y, -Z
SYMM X, -Y, -Z
SYMM Z, X, Y
SYMM Z, -X, -Y
SYMM -Z, -X, Y
SYMM -Z, X, -Y
SYMM Y, Z, X
SYMM -Y, Z, -X
SYMM Y, -Z, -X
SYMM -Y, -Z, X
SYMM 1/2+Y, 1/2+X, 1/2-Z
SYMM 1/2-Y, 1/2-X, 1/2-Z
SYMM 1/2+Y, 1/2-X, 1/2+Z
SYMM 1/2-Y, 1/2+X, 1/2+Z
SYMM 1/2+X, 1/2+Z, 1/2-Y
SYMM 1/2-X, 1/2+Z, 1/2+Y
SYMM 1/2-X, 1/2-Z, 1/2-Y
SYMM 1/2+X, 1/2-Z, 1/2+Y
SYMM 1/2+Z, 1/2+Y, 1/2-X
SYMM 1/2+Z, 1/2-Y, 1/2+X
SYMM 1/2-Z, 1/2+Y, 1/2+X
SYMM 1/2-Z, 1/2-Y, 1/2-X
SFAC P CU BA Zn
UNIT 29.9 13.7 8 2.4
TEMP -263.000
size 0.04 0.03 0.03

L.S. 17
LIST 4
BOND
Omit -2 60
FMAP 2
PLAN -20
eadp P1 Cu1 Zn1
Eadp Cu2 P2 Zn2
exyz Cu2 P2 Zn2
Eadp Cu3 P3
exyz Cu3 P3
acta

WGHT    0.000000   12.719300
FVAR       0.23332   0.44826
BA1   3    0.000000    0.000000    0.000000    10.04167    0.00950    0.00950 =
         0.00950    0.00000    0.00000    0.00000
BA2   3    0.250000    0.500000    0.000000    10.12500    0.01162    0.02016 =
         0.02016    0.00000    0.00000    0.00000
CU1   2    0.250000    0.000000    0.500000    10.02042    0.01030    0.00912 =
         0.00912    0.00000    0.00000    0.00000
ZN1   4    0.250000    0.000000    0.500000    10.01646    0.01030    0.00912 =
         0.00912    0.00000    0.00000    0.00000
P1    1    0.250000    0.000000    0.500000    10.08815    0.01030    0.00912 =
         0.00912    0.00000    0.00000    0.00000
CU2   2    0.185465    0.185465    0.185465    10.04187    0.01122    0.01122 =
         0.01122   -0.00021   -0.00021   -0.00021
ZN2   4    0.185465    0.185465    0.185465    10.03354    0.01122    0.01122 =
         0.01122   -0.00021   -0.00021   -0.00021
P2    1    0.185465    0.185465    0.185465    10.25786    0.01122    0.01122 =
         0.01122   -0.00021   -0.00021   -0.00021
CU3   2    0.000000    0.308530    0.120222    20.50000    0.01265    0.01221 =
         0.01184   -0.00090    0.00000    0.00000
P3    1    0.000000    0.308530    0.120222   -20.50000    0.01265    0.01221 =
         0.01184   -0.00090    0.00000    0.00000
HKLF 4




REM  JD_BaCuZnP_cub_10K_0m_a.res in Pm-3n
REM R1 =  0.0299 for     254 Fo > 4sig(Fo)  and  0.0346 for all     291 data
REM     16 parameters refined using      0 restraints

END

WGHT      0.0000     12.5761

REM Highest difference peak  0.854,  deepest hole -1.151,  1-sigma level  0.201
Q1    1   0.2500  0.2500  0.2500  10.16667  0.05    0.84
Q2    1   0.1406  0.1331  0.0000  10.50000  0.05    0.79
Q3    1   0.1224  0.1251  0.1010  11.00000  0.05    0.73
Q4    1   0.1251  0.5000  0.0000  10.25000  0.05    0.65
Q5    1   0.1900  0.4007  0.0000  10.50000  0.05    0.62
Q6    1   0.2941  0.5000  0.1282  10.50000  0.05    0.61
Q7    1   0.0000  0.3932  0.2483  10.50000  0.05    0.61
Q8    1   0.3468  0.2699  0.0467  11.00000  0.05    0.61
Q9    1  -0.2388  0.0000  0.2466  10.50000  0.05    0.57
Q10   1   0.0000  0.2468  0.0000  10.25000  0.05    0.56
Q11   1   0.5000  0.2851  0.1066  10.50000  0.05    0.56
Q12   1   0.2979  0.1397  0.1252  11.00000  0.05    0.56
Q13   1   0.0000  0.0000  0.1370  10.25000  0.05    0.55
Q14   1   0.2625  0.5000  0.1380  10.50000  0.05    0.54
Q15   1   0.0000  0.4488  0.1473  10.50000  0.05    0.52
Q16   1   0.0715  0.4385  0.0000  10.50000  0.05    0.51
Q17   1   0.0000  0.0000  0.3741  10.25000  0.05    0.51
Q18   1   0.2090  0.4259  0.0848  11.00000  0.05    0.51
Q19   1   0.0000  0.5000  0.1439  10.25000  0.05    0.50
Q20   1   0.2631  0.1254  0.1053  11.00000  0.05    0.49
;
_shelx_res_checksum              90927
_shelx_hkl_file
;
  -1  -1   0   26.80    6.80
  -1  -1   0   41.50    6.90
  -1   0  -1   36.00    6.40
  -1   0   1   50.09    8.00
  -1   1   0   50.69    7.00
   0  -1  -1   67.89    9.20
   0  -1   1   57.79    8.80
   0   1  -1   47.70    7.40
   0   1   1   50.19    7.60
   1  -1   0   32.80    7.30
   1   0  -1   54.79    7.10
   1   0   1   46.70    7.40
  -1  -1  -1   -4.90    3.90
  -1  -1  -1   -8.50    2.90
  -1  -1  -1   -2.80    4.10
  -1  -1   1   -6.80    3.80
  -1  -1   1   -5.80    3.20
  -1   1  -1   -8.00    2.00
  -1   1  -1   -6.10    3.60
  -1   1   1   -9.90    3.40
   1  -1  -1   -9.20    3.10
   1  -1  -1   -3.40    3.80
   1  -1   1   -9.10    3.80
   1   1  -1   -7.30    3.00
  -2   0   0  583.44   39.70
   0  -2   0  517.55   40.80
   0  -2   0  565.74   39.80
   0   0  -2  593.14   40.10
   0   0   2  610.24   40.30
   2   0   0  604.34   41.60
  -2   0  -1  209.48   18.50
  -2   0   1  205.68   19.30
  -1  -2   0  252.67   21.30
  -1  -2   0  255.37   16.80
  -1  -2   0  249.08   19.30
  -1   2   0  256.37   17.80
   0  -1  -2  250.67   20.70
   0  -1   2  240.18   19.40
   0  -1   2  242.08   18.70
   0   1  -2  208.88   19.20
   0   1   2  267.17   20.60
   1  -2   0  237.48   22.20
   1  -2   0  236.78   19.10
   2   0  -1  237.08   20.60
   2   0  -1  225.38   16.90
   2   0   1  235.18   20.60
  -2  -1   0  232.98   21.00
  -2  -1   0  231.98   18.60
  -2   1   0  252.17   19.30
  -1   0  -2  223.68   19.10
  -1   0  -2  246.48   19.40
  -1   0   2  232.48   17.40
  -1   0   2  202.78   20.00
   0  -2  -1  241.48   19.80
   0  -2  -1  207.78   19.50
   0  -2   1  250.57   21.70
   0   2  -1  219.28   19.40
   0   2   1  238.48   18.60
   1   0  -2  205.68   18.70
   1   0   2  235.28   18.50
   2  -1   0  247.38   21.30
   2   1   0  246.18   16.90
  -2  -1  -1  334.87   26.90
  -2  -1  -1  318.97   25.10
  -2  -1  -1  334.47   23.90
  -2  -1   1  332.77   27.30
  -2  -1   1  339.97   25.40
  -2   1  -1  342.87   25.10
  -2   1  -1  349.77   23.40
  -2   1   1  324.57   26.50
  -1  -2  -1  346.87   26.60
  -1  -2  -1  345.27   24.50
  -1  -2  -1  348.67   26.40
  -1  -2   1  329.87   27.70
  -1  -1  -2  325.17   25.70
  -1  -1  -2  308.57   25.90
  -1  -1   2  337.77   25.90
  -1  -1   2  350.26   26.40
  -1   1  -2  354.26   25.00
  -1   1  -2  344.87   25.60
  -1   1   2  332.47   27.90
  -1   2  -1  342.57   22.70
  -1   2  -1  372.16   26.10
  -1   2   1  356.26   26.50
   1  -2  -1  338.37   27.50
   1  -2  -1  302.17   25.50
   1  -2   1  330.97   29.20
   1  -1  -2  336.07   26.50
   1  -1   2  384.16   28.10
   1   1  -2  314.17   25.40
   1   2  -1  352.26   26.20
   2  -1  -1  350.86   26.80
   2  -1  -1  319.37   23.90
   2  -1   1  334.27   28.20
   2   1  -1  351.36   24.00
  -2  -2   0   44.80   12.30
  -2  -2   0   52.49    9.50
  -2   0  -2   47.10   10.70
  -2   0  -2   50.19   10.10
  -2   0   2   38.40    9.50
  -2   0   2   37.30   11.20
  -2   2   0   64.09   11.20
   0  -2  -2   40.00    8.60
   0  -2  -2   54.09   11.70
   0  -2   2   57.29   13.70
   0  -2   2   37.50    8.20
   0   2  -2   29.70    9.70
   0   2   2   40.70   11.00
   2  -2   0   73.59   17.30
   2  -2   0   49.30    9.50
   2   0  -2   36.50    9.30
   2   0   2   52.99   11.50
   2   2   0   62.29   10.60
  -2  -2  -1   10.80    7.70
  -2  -2  -1   17.60    6.80
  -2  -2  -1   13.50    7.00
  -2  -2   1   11.60    8.50
  -2  -2   1    3.10    4.90
  -2  -1  -2    9.40    6.30
  -2  -1  -2    9.60    6.60
  -2  -1   2    7.20    6.60
  -2  -1   2    6.00    7.10
  -2   1  -2   -1.00    5.00
  -2   1  -2   10.20    6.10
  -2   1   2    1.00    7.30
  -2   2  -1    2.40    5.10
  -2   2  -1    8.30    5.60
  -2   2   1   16.00    7.90
  -1  -2  -2   14.50    6.90
  -1  -2  -2   17.60    7.20
  -1  -2  -2   17.70    8.60
  -1  -2   2   12.90    7.40
  -1  -2   2    6.60    5.60
  -1   2  -2   -6.20    2.90
  -1   2  -2   -0.20    6.30
  -1   2   2    0.20    7.10
   1  -2  -2   15.80    7.40
   1  -2  -2   11.10    7.50
   1  -2   2    0.50    8.00
   1   2  -2    8.70    7.50
   2  -2  -1   10.00    7.70
   2  -2  -1    1.10    5.30
   2  -2   1   10.20    8.00
   2  -1  -2   10.20    6.50
   2  -1  -2   -1.10    5.30
   2  -1   2   18.00    9.20
   2   1  -2    7.70    5.90
   2   1   2   26.30    8.70
   2   2  -1   10.20    6.00
  -2  -2  -2 6710.43  406.06
  -2  -2  -2 7095.59  405.96
  -2  -2  -2 6815.72  405.56
  -2  -2   2 6585.04  408.06
  -2  -2   2 6947.11  404.16
  -2   2  -2 6944.21  403.76
  -2   2  -2 6827.12  404.56
  -2   2   2 6865.01  408.16
   2  -2  -2 6967.60  406.26
   2  -2  -2 6821.42  405.76
   2  -2   2 6629.94  410.36
   2   2  -2 6624.54  404.86
  -3   0   0    5.30    7.40
   0  -3   0    6.00    8.80
   0  -3   0  -11.00    5.40
   0   0  -3    4.80    8.40
   0   0   3   -9.70    6.80
   3   0   0    2.60    8.30
  -3   0  -1   11.40    7.10
  -3   0   1    4.40    6.10
  -1  -3   0   15.60    8.40
  -1  -3   0    5.80    3.90
  -1  -3   0   10.70    6.50
  -1   3   0    5.80    4.40
   0  -1  -3   22.30    9.40
   0  -1   3    8.80    6.70
   0  -1   3    8.10    7.10
   0   1  -3   14.40    7.90
   0   1   3   38.60   11.60
   1  -3   0   16.30    9.90
   1  -3   0   -0.50    4.20
   3   0  -1   12.50    8.40
   3   0  -1   19.50    5.50
   3   0   1   17.00    9.20
   1   0   3    3.10    4.70
   3  -1   0   15.30    8.40
   3   1   0   13.50    4.40
   0  -3   1    1.70    7.40
   0   3  -1    5.40    6.00
   0   3   1    7.30    5.10
   1   0  -3   16.40    8.00
   0  -3  -1    6.80    7.20
   0  -3  -1    9.40    7.80
  -1   0   3   32.00    6.70
  -1   0   3   29.80   10.80
  -3   1   0   18.10    8.20
  -1   0  -3   26.10    8.90
  -1   0  -3   21.80    8.50
  -3  -1   0   12.20    6.30
  -3  -1   0   18.30    8.80
  -1  -1   3    2.00    5.20
  -1  -1  -3   -1.90    5.60
  -1  -1  -3    5.80    6.00
   3  -1   1   -2.80    7.90
   3   1  -1    4.70    4.10
   3   1   1   -6.50    5.00
   3  -1  -1   -5.20    5.70
   3  -1  -1   15.30    4.90
   1   1   3    6.30    3.80
   1   3  -1   10.60    7.40
   1  -3   1   -2.00    6.20
   1  -1  -3    5.60    7.20
   1  -1   3   -0.50    5.10
   1   1  -3    6.20    6.20
  -1   3   1    2.70    5.40
   1  -3  -1   18.20    9.10
   1  -3  -1   -2.80    5.90
  -3  -1  -1   13.50    6.80
  -3  -1  -1    5.50    4.40
  -3  -1   1   13.80    8.40
  -3  -1   1    7.50    5.80
  -3   1  -1    5.30    5.90
  -3   1  -1    2.60    3.80
  -3   1   1    3.00    6.70
  -1  -3  -1   23.20    9.30
  -1  -3  -1   15.00    5.80
  -1  -3  -1    0.00    5.40
  -1  -3   1    3.60    7.80
  -1   3  -1    3.40    5.70
  -1   3  -1    5.00    3.10
  -1   1   3   13.80    7.90
  -1  -1   3    5.50    7.00
  -1   1  -3    6.00    5.70
  -1   1  -3   -7.70    4.10
   3   0   2 4675.43  282.57
   3   0  -2 4704.53  277.67
   3   0  -2 4529.25  281.37
  -3   0  -2 4649.23  280.17
  -3   0  -2 4646.73  276.77
  -3   0   2 4673.93  282.17
  -2  -3   0 4640.04  283.77
  -2  -3   0 4613.64  276.07
  -2   3   0 4784.72  277.87
   0  -2  -3 4619.24  282.27
   0  -2   3 4700.63  282.07
   0  -2   3 4652.93  278.57
   0   2  -3 4670.53  280.87
   0   2   3 4673.73  282.07
   2  -3   0 4758.02  286.27
   2  -3   0 4666.33  279.27
   2   3   0 4602.34  279.67
  -2   0  -3 4681.03  279.97
  -2   0   3 4749.32  278.27
  -2   0   3 4726.53  283.67
   0  -3  -2 4597.24  279.47
   0  -3  -2 4582.04  281.97
   0  -3   2 4842.32  285.37
   0   3  -2 4594.54  281.07
   0   3   2 4733.53  280.27
   2   0  -3 4571.84  279.97
   2   0   3 4632.94  279.77
   3  -2   0 4549.14  284.37
   3   2   0 4741.23  277.07
  -2   0  -3 4559.34  280.57
  -3  -2   0 4571.94  283.77
  -3  -2   0 4762.92  278.77
  -3   2   0 4616.34  279.57
  -2   1  -3 5241.28  314.27
  -1  -2  -3 5323.17  317.37
  -1  -3   2 5221.08  309.47
  -2  -3  -1 5265.77  315.27
   2  -1  -3 5263.57  316.17
  -2   1  -3 5331.47  314.97
  -1   2   3 5083.39  317.77
   1  -3  -2 5201.98  316.77
  -2  -3  -1 5190.08  317.57
   1  -2   3 5304.47  318.87
   1   2  -3 5147.08  315.57
  -3   2  -1 5466.95  314.57
  -3   2  -1 5231.68  311.57
   2  -3   1 5570.64  323.07
   2   3  -1 5226.78  314.87
   3  -2  -1 5194.28  318.67
   3  -2  -1 5310.97  312.67
   3  -1   2 5272.67  319.27
   3   1  -2 5277.27  312.37
  -2  -3  -1 5232.08  312.57
   2   1   3 5143.29  313.37
  -2   3   1 5297.57  314.77
  -1  -2  -3 5225.78  311.27
  -1  -2  -3 5365.96  316.17
  -3  -1  -2 5162.78  315.37
  -3  -1  -2 5427.46  312.57
  -1   3  -2 5445.26  310.07
  -1   3  -2 5234.48  315.87
  -3  -2   1 5187.78  319.17
   1  -3  -2 5251.67  316.07
  -3   1   2 5209.38  317.47
  -1  -3   2 5218.48  319.27
  -3  -2   1 5293.57  313.67
   2  -1  -3 5337.67  312.47
  -2  -1   3 5076.79  316.37
  -2  -1   3 5167.18  314.77
  -3  -2  -1 5491.65  319.27
  -3  -2  -1 5310.07  314.27
  -3  -2  -1 5335.67  312.47
   2  -3  -1 5207.88  319.27
   3   1   2 5200.08  317.07
  -3   1  -2 5261.77  314.67
   2  -3  -1 5364.26  315.07
  -3   2   1 5222.88  316.17
  -2  -1  -3 5228.58  316.07
  -2  -1  -3 5109.79  315.47
  -1   2  -3 5168.08  315.37
  -1   2  -3 5284.87  312.97
  -2  -3   1 5193.78  310.37
  -2   3  -1 5222.48  311.37
  -2   1   3 5202.38  319.37
  -1  -3  -2 5318.87  315.17
  -1  -3  -2 5221.08  314.07
  -1  -3  -2 5264.67  317.17
   1  -2  -3 5232.08  317.27
  -1  -2   3 5226.58  316.47
  -3  -1   2 5164.88  317.57
  -3  -1   2 5246.48  315.87
  -1   3   2 5168.08  315.97
  -3   1  -2 5262.67  311.47
   1  -2  -3 5261.97  310.97
   1  -3   2 5343.56  321.97
   1   3  -2 5268.37  316.17
  -1  -2   3 5174.78  314.17
  -2  -3   1 5227.88  319.57
   2  -1   3 5400.26  317.67
   2   1  -3 5350.56  314.97
  -2   3  -1 5234.48  314.37
   3  -1  -2 5231.68  316.37
   3  -1  -2 5253.07  313.27
   3  -2   1 5154.38  320.07
   3   2  -1 5339.47  312.57
  -3  -2  -2    8.60    7.60
  -3  -2  -2    2.80    5.00
  -3  -2  -2    2.10    6.40
  -3  -2   2    1.00    6.10
  -3  -2   2   -2.50    5.60
  -3   2  -2    2.00    5.00
  -3   2  -2   -1.10    5.10
  -3   2   2    1.90    6.90
  -2  -3  -2    3.70    6.90
  -2  -3  -2   -3.30    4.20
  -2  -3  -2   -5.30    4.90
  -2  -3   2   16.10    9.90
  -2  -3   2    3.40    4.40
  -2  -2  -3   11.20    6.60
  -2  -2  -3    4.00    5.70
  -2  -2  -3    3.10    5.60
  -2  -2   3    2.90    7.10
  -2  -2   3    2.90    6.30
  -2   2  -3    1.30    4.70
  -2   2  -3   -0.60    5.40
  -2   2   3   -5.00    6.50
  -2   3  -2    2.40    4.70
  -2   3  -2    7.80    6.40
  -2   3   2   -1.40    7.20
   2  -3  -2    2.20    6.70
   2  -3  -2   12.60    8.00
   2  -3   2   -6.10    6.60
   2  -2  -3    0.00    5.00
   2  -2  -3    6.90    8.00
   2  -2   3   11.50    8.60
   2   2  -3   -5.10    4.50
   2   3  -2    0.10    5.10
   3  -2  -2   -0.90    7.80
   3  -2  -2    2.00    5.80
   3  -2   2   -8.50    5.00
   3   2  -2   -0.90    5.00
  -3  -3   0  710.03   54.59
  -3  -3   0  737.93   48.10
  -3   0  -3  710.43   50.99
  -3   0  -3  691.23   49.20
  -3   0   3  709.93   53.59
  -3   3   0  694.33   49.40
   0  -3  -3  689.33   47.70
   0  -3  -3  692.73   52.39
   0  -3   3  678.83   54.09
   0  -3   3  729.63   47.50
   0   3  -3  677.33   51.39
   0   3   3  758.22   52.69
   3  -3   0  661.93   55.09
   3   0  -3  676.03   49.60
   3   0   3  691.83   51.59
   3   3   0  697.23   49.10
  -3  -3  -1   -4.30    7.10
  -3  -3  -1   -0.50    4.90
  -3  -3  -1    6.30    6.30
  -3  -3   1   14.50   11.60
  -3  -3   1   17.50    7.50
  -3  -1  -3   -1.20    6.00
  -3  -1  -3    3.60    6.10
  -3  -1   3   10.50    9.10
  -3  -1   3   -8.30    6.90
  -3   1  -3    0.50    5.00
  -3   1  -3    4.30    7.00
  -3   1   3   -1.10    7.90
  -3   3  -1    4.10    5.30
  -3   3  -1    1.80    6.20
  -3   3   1   -9.40    4.90
  -1  -3  -3    7.80    6.80
  -1  -3  -3    9.40    8.80
  -1  -3   3   12.60   10.30
  -1  -3   3    2.20    5.50
  -1   3  -3    1.20    4.50
  -1   3  -3    2.10    6.30
  -1   3   3   16.80   11.00
   1  -3  -3   10.30    7.10
   1  -3  -3    8.50    8.40
   1  -3   3   12.60   11.10
   1   3  -3    2.80    7.50
   1   3   3   15.60    8.80
   3  -3  -1   18.40   10.40
   3  -3  -1    2.00    5.40
   3  -3   1    7.40   11.10
   3  -1  -3    3.50    7.60
   3  -1  -3    9.90    8.50
   3  -1   3    8.00    8.30
   3   1  -3    0.00    6.00
   3   1   3   12.50    9.30
   3   3  -1    7.10    6.50
  -3  -3  -2  215.18   24.00
  -3  -3  -2  234.58   22.10
  -3  -3  -2  209.58   21.80
  -3  -3   2  210.88   25.60
  -3  -3   2  201.98   19.70
  -3  -2  -3  213.08   22.50
  -3  -2  -3  188.28   21.30
  -3  -2   3  246.98   25.20
  -3  -2   3  264.67   23.80
  -3   2  -3  227.98   21.50
  -3   2  -3  228.68   21.60
  -3   2   3  214.78   25.00
  -3   3  -2  237.18   20.70
  -3   3  -2  228.18   21.60
  -3   3   2  264.57   25.30
  -2  -3  -3  239.28   22.20
  -2  -3  -3  189.78   21.50
  -2  -3  -3  227.78   23.60
  -2  -3   3  218.28   24.80
  -2  -3   3  224.88   20.40
  -2   3  -3  194.88   19.30
  -2   3  -3  182.98   21.20
  -2   3   3  182.78   23.80
   2  -3  -3  183.18   21.30
   2  -3  -3  210.38   22.70
   2  -3   3  223.38   27.00
   2   3  -3  221.68   22.80
   3  -3  -2  224.88   24.90
   3  -3  -2  213.78   22.10
   3  -3   2  241.48   28.30
   3  -2  -3  204.58   22.30
   3  -2  -3  194.08   21.80
   3  -2   3  198.68   24.80
   3   2  -3  261.97   23.00
   3   2   3  225.98   23.40
   3   3  -2  243.88   22.40
  -3  -3  -3    6.00    8.30
  -3  -3  -3   -3.60    6.10
  -3  -3  -3   -4.20    6.20
  -3  -3   3    1.70    8.30
  -3  -3   3   -3.90    6.30
  -3   3  -3    1.70    5.50
  -3   3  -3    4.00    7.70
  -3   3   3   -1.90    8.30
   3  -3  -3   -0.10    7.30
   3  -3  -3   -2.10    6.20
   3  -3   3   -6.10    8.50
   3   3  -3    1.10    6.10
  -4   0   0 9602.94  564.04
   0  -4   0 9357.06  568.04
   0  -4   0 9413.16  564.24
   0   0  -4 9611.84  565.24
   0   0   4 9458.55  556.94
   0   0   4 9709.23  565.54
   0   4   0 9516.55  556.84
   4   0   0 9343.57  567.24
  -4   0  -1 1392.06   87.09
  -4   0   1 1333.57   87.29
  -1  -4   0 1305.47   90.49
  -1  -4   0 1277.97   79.79
  -1   4   0 1298.67   80.99
   0  -1  -4 1348.07   89.29
   0  -1   4 1341.57   84.09
   0  -1   4 1264.77   86.89
   0   1  -4 1229.88   86.59
   0   1   4 1267.47   88.39
   1  -4   0 1263.47   91.19
   1  -4   0 1308.07   86.89
   1   4   0 1262.77   86.89
   4   0  -1 1381.96   90.49
   4   0  -1 1316.47   79.69
   4   0   1 1293.07   89.99
  -1   0   4 1322.17   89.29
   0  -4  -1 1268.37   89.09
   0  -4  -1 1320.97   87.69
   0  -4   1 1238.88   91.09
   0   4  -1 1276.67   87.09
   0   4   1 1226.28   82.59
   1   0  -4 1333.17   87.99
   1   0   4 1332.17   83.09
   4  -1   0 1364.56   91.09
   4   1   0 1334.57   90.69
   4   1   0 1324.97   78.99
  -1   0  -4 1245.78   87.29
  -4  -1   0 1361.76   86.49
  -4   1   0 1386.96   87.39
  -1   0  -4 1212.08   86.19
  -1   0   4 1329.27   80.69
   4  -1   1   42.60   14.60
  -1  -4  -1   13.00    9.20
  -1  -4  -1   -5.20    5.10
  -1  -4   1   10.30    9.00
  -1  -1  -4   19.70    9.90
  -1  -1   4   13.80    7.50
  -1  -1   4   22.20   10.20
  -1   1  -4   14.10    8.90
  -1   1  -4   24.20    9.90
  -1   1   4    5.90    8.70
  -1   4  -1   16.40    4.70
   4  -1  -1   14.70    5.60
  -4  -1  -1    8.40    7.60
  -4  -1  -1   17.30    5.00
  -4  -1   1   14.30    9.30
  -4  -1   1   22.60   10.00
  -4   1  -1   27.80    9.80
  -4   1   1   12.70    8.20
   1   4  -1   24.30   10.00
   4   1  -1    7.50    4.20
   4   1   1   24.20   12.50
  -1   4  -1   12.20    9.70
  -1   4   1    6.60    6.50
   1  -4  -1   10.10   10.00
   1  -4  -1    2.80    5.70
   1  -4   1    0.20    7.30
   1  -1  -4    5.80    8.30
   1  -1   4   13.60    8.60
   1   1  -4   19.20    9.70
   1   1   4   23.50    6.20
   1   1   4   15.90    9.20
   4  -1  -1   34.00   12.60
   1   4   1   22.10    7.20
  -4  -2   0 1227.88   83.79
   0   2   4 1149.58   80.99
   2  -4   0 1246.88   86.19
   2  -4   0 1107.29   78.09
   2   4   0 1124.29   78.69
  -2  -4   0 1203.58   72.99
  -4  -2   0 1182.48   77.59
  -4   2   0 1051.09   77.79
  -4   0  -2 1133.99   78.59
  -4   0  -2 1182.18   72.99
  -4   0   2 1213.18   80.79
  -2  -4   0 1161.68   82.99
  -2   0   4 1124.79   81.79
  -2   4   0 1165.78   74.79
   0  -2  -4 1100.99   80.69
   0  -2   4 1171.28   79.19
   0  -2   4 1198.58   78.49
   0   2  -4 1116.89   79.19
   4   0  -2 1142.99   80.79
   4   0  -2 1175.88   74.29
   4   0   2 1157.98   81.89
   4   2   0 1177.48   73.29
   0  -4   2 1146.59   84.29
   0   4  -2 1128.19   79.59
   0   4   2 1173.48   77.49
   2   0  -4 1181.48   79.79
   2   0   4 1206.28   77.29
   4  -2   0 1079.89   82.89
  -2   0   4 1184.98   74.99
  -2   0  -4 1176.88   79.39
   0  -4  -2 1135.29   79.39
   0  -4  -2 1045.60   79.39
  -4   2   0 1113.69   72.69
  -2   0  -4 1219.28   79.59
   1  -4  -2  136.39   18.90
  -4  -1  -2  164.28   24.30
  -1  -4   2  200.88   30.20
  -1   4  -2  125.89   11.60
  -2   1  -4  152.58   17.80
  -1  -2  -4  218.28   29.80
  -2  -1   4  124.79   16.10
   4  -1   2  152.58   27.10
   1  -4  -2  196.38   27.20
  -2  -1   4  155.48   24.60
  -2   1  -4  137.39   20.90
  -4  -2   1  143.39   25.60
  -4  -2   1  128.69   16.50
  -4   2  -1  135.59   16.90
  -4   2  -1  128.09   13.10
  -2  -4  -1  138.29   14.70
  -2  -4  -1  162.78   23.30
   4  -2  -1  164.48   27.00
  -1   4  -2  144.59   18.40
  -4  -1  -2  143.09   13.90
   1   4   2  123.39   15.90
  -1   2   4  174.18   28.40
   2  -1  -4  136.69   14.10
   1  -2   4  144.09   24.60
   1   2  -4  124.99   21.00
  -2  -4  -1  160.48   26.70
   2   1   4   92.39   13.80
  -4   1   2  174.28   25.50
   4  -2  -1  144.09   14.30
   2  -4   1  150.08   28.30
   2   4  -1  168.18   24.50
   4   1  -2  135.39   14.00
  -2   4   1  145.49   16.70
   2  -1  -4  141.49   23.50
  -4  -2  -1  129.69   13.70
  -2  -1  -4  174.58   25.50
  -4  -2  -1  120.49   16.00
   4  -1  -2  155.48   25.60
  -1   4   2  145.39   22.70
   4   1   2  146.29   20.10
  -1  -2   4  200.08   26.20
   1  -4   2  233.68   35.00
   1   4  -2  169.68   19.20
  -1   2  -4  175.78   24.30
   1  -2  -4  152.08   19.50
  -1  -2   4  150.98   22.90
   2  -1   4  144.39   23.30
   2   1  -4  181.48   25.60
   1   2   4  159.28   19.10
   2  -4  -1  208.58   31.60
   2  -4  -1  167.48   18.30
   4  -2   1  117.89   24.60
   4   2  -1  112.59   13.50
  -2   4  -1  139.79   13.60
  -2   4  -1  135.19   21.90
   4  -1  -2  118.59   14.40
  -2   1   4  158.68   27.30
  -1  -4  -2  158.78   24.60
  -4  -2  -1  169.38   27.40
  -2  -4   1  140.99   12.50
  -4  -1   2  144.49   19.70
   1   2   4  131.29   12.40
  -4   2   1  147.29   18.20
  -2  -1  -4  156.38   23.90
  -2  -4   1  195.38   31.40
  -4   1  -2  119.49   12.90
  -4  -1   2  173.58   24.50
  -4   1  -2  156.18   22.90
  -1   2  -4  143.99   16.70
  -1  -4  -2  173.08   25.40
  -2  -4  -2  162.98   18.00
  -2  -4  -2  142.99   20.50
   4   2  -2  144.89   16.80
  -4   2   2  227.48   32.10
   2   4  -2  163.68   20.20
   4  -2  -2  163.48   27.90
   2   2   4  146.59   16.40
   4  -2   2  172.68   29.60
  -2  -2  -4  169.68   20.80
  -2  -2  -4  172.58   21.40
   2  -2   4  132.89   25.60
   2   2  -4  142.19   19.20
  -4   2  -2  156.48   16.40
  -4  -2  -2  189.48   29.80
  -4  -2  -2  155.28   19.60
  -4  -2  -2  160.98   17.20
  -4  -2   2  208.28   32.40
  -4  -2   2  144.69   18.80
  -4   2  -2  160.58   18.80
   4  -2  -2  153.48   16.90
  -2  -2   4  169.18   20.60
  -2  -2   4  198.18   21.90
  -2   2  -4  148.29   18.30
  -2   2  -4  168.08   25.50
  -2   2   4  192.88   30.80
  -2   4  -2  157.98   15.00
  -2   4  -2  155.58   19.80
  -2   4   2  150.98   25.00
   2  -4  -2  150.78   21.50
   2  -4  -2  159.38   20.40
   2  -4   2  223.38   39.10
   2  -2  -4  161.08   16.50
   2  -2  -4  154.28   21.10
  -2  -4  -2  181.58   21.30
  -2  -4   2  193.38   31.60
  -2  -4   2  151.08   14.30
  -3   0  -4  218.58   24.50
  -3   0   4  265.47   24.30
  -4   0  -3  228.18   25.10
  -4   0  -3  246.48   22.90
  -4   0   3  223.78   27.00
   4   0   3  309.77   29.60
  -4   3   0  290.87   23.40
  -3   0  -4  290.17   27.30
   4   0  -3  244.68   26.30
   4   0  -3  239.88   23.40
  -3   0   4  213.88   27.20
   0  -4  -3  277.37   25.30
   0  -4  -3  282.37   28.50
   0  -4   3  276.97   30.80
   0  -4   3  274.07   20.60
   0   4  -3  267.57   27.30
   0   4   3  197.98   24.40
   3   0  -4  236.98   25.20
   3   0   4  337.47   28.60
   4  -3   0  288.37   31.00
   4   3   0  275.97   23.30
   0   3  -4  252.27   26.80
   0   3   4  330.37   29.90
   3  -4   0  244.88   30.50
   3   4   0  285.17   25.90
  -4  -3   0  285.97   30.60
  -4  -3   0  254.47   23.80
  -4   3   0  235.18   24.70
   0  -3   4  282.87   28.90
   0  -3   4  244.88   24.20
  -3   4   0  244.78   24.70
   0  -3  -4  269.27   20.60
   0  -3  -4  193.98   25.90
  -3   4   0  263.97   24.30
  -3  -4   0  280.67   22.50
  -3  -4   0  246.68   29.00
  -3   1  -4    2.60    6.90
   4   1  -3    1.10    6.70
  -3   4   1   -3.80    5.80
  -3  -1   4   -0.40    6.60
   4  -1   3   -6.50    7.40
   3  -4   1    6.60    9.80
   3   4  -1   -2.70    5.20
   3  -1  -4   -6.00    5.00
  -1  -3  -4    6.70    6.00
   1  -3   4    1.20    7.30
   1   3  -4   11.90    8.80
  -4  -3   1    0.80    6.00
  -4   3  -1    2.80    6.30
  -4   3  -1    1.50    6.30
  -4  -1  -3    5.30    7.20
  -4  -1  -3    2.70    6.30
  -4   1   3    5.30    9.90
  -1   3   4   -3.60    8.80
  -1  -4   3   11.80   10.30
  -1  -4   3    0.50    5.40
  -1   4  -3   -0.90    3.70
  -1   4  -3    0.20    7.90
  -3  -4  -1   -1.70    5.50
   1  -4  -3   -2.40    7.20
   1  -4  -3   14.50    9.50
  -3  -4  -1   12.90    8.90
  -1  -3  -4    9.80    9.70
   1   4   3   -4.90    5.60
   3  -1  -4   -5.60    5.50
  -3  -1   4    9.10    9.00
  -3   1  -4   -3.00    6.20
   3   1   4    0.70    7.20
   4  -3  -1   15.60   11.00
  -4  -3   1  -10.60    6.50
   4  -3  -1    9.50    5.80
  -3  -4  -1    0.70    8.80
  -1   4   3   -3.20    6.60
   3  -4  -1   16.00    8.40
  -4   3   1   -1.40    7.60
  -3  -1  -4   -1.70    6.50
   1  -3  -4    2.30    7.30
   4  -1  -3   -1.50    6.20
   1  -3  -4   -1.90    5.60
   3  -1   4   -5.10    7.10
  -4   1  -3   -4.40    5.10
  -3   1   4   -1.40    8.00
  -1  -4  -3    1.60    6.10
  -1  -4  -3   12.00    8.70
  -4  -3  -1   28.80   14.40
  -4  -3  -1    7.90    6.50
  -4  -3  -1   -0.20    5.40
   4   1   3    2.40    8.00
   1   3   4   -7.50    5.90
  -4  -1   3   -2.40    7.20
   3   1  -4   10.10    7.50
  -4   1  -3  -11.10    5.00
  -4  -1   3    1.60    7.60
  -3  -1  -4    9.50    7.60
   4  -3   1    5.20   11.00
   4   3  -1    7.10    7.20
  -3  -4   1   10.50   10.30
  -3  -4   1   -1.00    5.40
  -3   4  -1    4.10    5.90
  -3   4  -1    3.60    6.80
   4  -1  -3    1.80    9.10
   1  -4   3   -4.50    9.40
   1   4  -3    6.20    8.80
  -1  -3   4    4.10    7.60
  -1  -3   4   -5.70    7.20
  -1   3  -4   15.60    9.70
   3  -4  -1    3.90    9.30
  -3  -2   4   82.59   19.60
  -2  -3  -4   72.49   15.20
   4  -2   3   83.39   22.60
   4   2  -3   89.59   16.40
  -2   4  -3   74.29   13.50
   3   4  -2   59.39   15.20
   4  -3  -2   70.89   15.40
   2  -4  -3   90.19   20.10
  -2   3   4   51.89   17.70
  -4  -3   2  113.49   26.50
  -4  -3   2   69.69   15.20
   2  -3   4   97.59   24.50
   2   3  -4   73.49   16.90
  -3   2  -4   96.99   18.50
  -3   2  -4   98.99   19.10
   3  -4   2   49.70   19.70
  -4  -2  -3   63.79   16.50
  -4  -2  -3  114.49   18.70
   4  -3  -2   55.79   18.30
  -2  -3  -4   86.99   19.20
  -4   3  -2  118.29   18.80
   3  -2  -4  120.29   22.60
  -4   2   3   84.19   21.60
  -3  -4  -2   74.69   19.20
  -3  -4  -2   74.39   16.30
  -3  -4  -2   78.09   17.70
   2  -4  -3   77.29   18.10
   3   2   4   92.69   18.80
  -4   3  -2   71.09   15.60
  -3  -2   4  109.29   21.00
  -3   4   2  102.09   20.50
  -2  -4   3  108.49   23.60
   3  -2  -4   92.59   17.50
  -2  -3  -4  110.69   22.00
  -2  -4   3   74.59   12.60
  -2   4  -3   80.69   19.10
  -4  -3  -2   81.29   20.60
   3  -4  -2   94.99   22.40
  -4   2  -3  102.19   16.70
   2  -3  -4   88.89   16.00
  -2   3  -4  106.69   17.70
  -3   4  -2   81.29   14.00
  -4   2  -3   93.39   19.40
  -4   3   2   59.69   18.20
  -3  -2  -4   89.89   18.80
  -3  -2  -4   71.59   17.20
  -3   4  -2   87.09   17.90
   4  -2  -3   77.49   19.30
  -3  -4   2   61.19   19.60
  -3  -4   2   82.29   13.50
  -3   2   4   94.79   22.60
  -2  -4  -3  113.99   21.00
  -2  -4  -3   58.59   14.90
  -2  -4  -3  105.29   21.90
   4  -2  -3   84.69   17.10
  -4  -3  -2  107.49   18.40
  -2  -3   4  117.19   22.90
  -2  -3   4   66.29   15.50
  -2   4   3   91.89   20.80
  -2   3  -4   98.29   18.90
  -4  -3  -2   74.79   16.40
   2  -4   3   70.89   22.30
   2   4  -3   41.70   15.00
   2  -3  -4   67.39   18.00
   4   2   3  108.09   21.50
   3  -2   4   99.59   22.70
   3   2  -4  119.69   20.00
   3  -4  -2   63.49   16.70
  -4  -2   3   65.49   18.30
  -4  -2   3   84.39   18.00
   4  -3   2   71.39   20.20
   4   3  -2   59.19   14.00
  -4  -3  -3 1871.11  123.29
  -4  -3  -3 1786.92  119.79
  -4  -3  -3 1877.91  119.39
  -4  -3   3 1763.72  124.69
  -4  -3   3 1962.80  119.29
  -4   3  -3 1821.62  118.09
  -4   3  -3 1886.31  117.49
  -4   3   3 1889.61  124.39
  -3  -4  -3 1808.02  121.49
  -3  -4  -3 1849.42  119.19
  -3  -4  -3 1744.33  120.69
  -3  -4   3 1763.22  125.29
  -3  -4   3 1828.82  114.89
  -3  -3  -4 1792.42  118.39
  -3  -3  -4 1808.72  120.49
  -3  -3  -4 1942.01  121.59
  -3  -3   4 1858.91  124.09
  -3  -3   4 1835.12  118.59
  -3   3  -4 1743.63  117.29
  -3   3  -4 1744.83  119.19
  -3   3   4 1839.92  124.99
  -3   4  -3 1872.71  115.79
  -3   4  -3 1785.12  119.19
  -3   4   3 1770.02  122.39
   3  -4  -3 1764.52  121.79
   3  -4  -3 1792.72  121.29
   3  -4   3 1740.43  128.29
   3  -3  -4 1796.12  118.19
   3  -3  -4 1924.71  122.69
   3  -3   4 1702.33  125.89
   3   3  -4 1926.41  120.79
   3   4  -3 1748.93  119.49
   4  -3  -3 1878.11  122.49
   4  -3  -3 1837.02  119.19
   4  -3   3 1834.02  127.79
   4   3  -3 1850.51  118.09
  -4  -4   0 3376.36  216.68
  -4  -4   0 3374.36  206.48
  -4   0  -4 3471.75  211.58
  -4   0  -4 3429.06  208.58
  -4   0   4 3111.09  213.48
  -4   4   0 3449.55  208.78
  -4   4   0 3381.46  207.88
   0  -4  -4 3333.07  205.68
   0  -4  -4 3315.07  213.58
   0  -4   4 3283.47  215.98
   0  -4   4 3491.35  205.48
   0   4  -4 3423.66  212.38
   0   4   4 3459.85  213.18
   4  -4   0 3173.88  217.48
   4   0  -4 3414.06  210.28
   4   0  -4 3381.36  209.28
   4   0   4 3281.47  211.78
   4   4   0 3446.26  208.28
  -4  -4  -1   11.50   12.30
  -4  -4  -1   -1.20    6.10
  -4  -4  -1    6.30    8.20
  -4  -4   1   -2.70    9.00
  -4  -4   1    1.00    6.10
  -4  -1  -4    1.80    8.30
  -4  -1  -4   16.50    8.30
  -4  -1   4    2.60    8.60
  -4  -1   4    5.00    9.50
  -4   1  -4    7.30    8.10
  -4   1  -4    8.80    8.30
  -4   1   4    2.80    9.70
  -4   4  -1    9.30    7.40
  -4   4  -1   -4.50    6.00
  -4   4   1   -1.60    7.40
  -1  -4  -4   11.00    8.70
  -1  -4  -4   -6.40    6.90
  -1  -4   4   -2.00    8.60
  -1  -4   4    9.00    7.70
  -1   4  -4   -3.40    7.40
  -1   4   4   23.50   12.60
   1  -4  -4    5.90    8.10
   1  -4  -4    9.10    9.00
   1  -4   4    9.70   10.60
   1  -4   4   12.80    7.90
   1   4  -4    2.30    7.40
   1   4   4   -0.90    6.90
   4  -4  -1    4.50    9.40
   4  -4  -1    1.90    6.10
   4  -4   1    7.50   11.30
   4  -1  -4    5.50    8.50
   4  -1  -4   -4.00    7.40
   4  -1   4   14.30   10.80
   4   1  -4   -2.80    6.80
   4   1   4    2.70    8.80
   4   4  -1    0.20    7.40
  -4  -4  -2 2796.72  181.68
  -4  -4  -2 2792.22  174.48
  -4  -4  -2 2780.42  175.08
  -4  -4   2 2676.93  182.58
  -4  -4   2 2822.52  171.98
  -4  -2  -4 2720.33  177.78
  -4  -2  -4 2838.92  175.48
  -4  -2   4 2763.42  179.48
  -4  -2   4 2764.72  177.88
  -4   2  -4 2754.62  175.38
  -4   2  -4 2856.21  174.08
  -4   2   4 2579.94  180.78
  -4   4  -2 2778.42  172.88
  -4   4  -2 2886.01  174.38
  -4   4   2 2796.02  178.88
  -2  -4  -4 2749.02  173.88
  -2  -4  -4 2791.52  176.78
  -2  -4  -4 2877.31  179.98
  -2  -4   4 2842.42  181.68
  -2  -4   4 2836.92  171.58
  -2   4  -4 2751.22  170.98
  -2   4  -4 2548.34  176.48
  -2   4   4 2862.91  180.98
   2  -4  -4 2849.42  174.78
   2  -4  -4 2909.01  180.08
   2  -4   4 2784.62  185.58
   2   4  -4 2738.43  177.68
   4  -4  -2 2818.22  181.88
   4  -4  -2 2772.92  174.98
   4  -4   2 2786.72  185.98
   4  -2  -4 2771.72  175.18
   4  -2  -4 2695.93  175.98
   4  -2   4 2693.43  181.98
   4   2  -4 2847.32  174.98
   4   2   4 2786.22  176.98
   4   4  -2 2678.83  174.48
  -4  -4  -3   10.70   12.20
  -4  -4  -3   12.70   10.20
  -4  -4  -3   10.40    8.90
  -4  -4   3    2.50   10.10
  -4  -4   3   -0.20    7.10
  -4  -3  -4    7.70    9.20
  -4  -3  -4   16.40   10.60
  -4  -3   4  -10.00    6.40
  -4  -3   4   -7.00    8.00
  -4   3  -4   -2.00    6.50
  -4   3  -4    7.90    9.00
  -4   3   4   -5.50    9.70
  -4   4  -3   11.00    8.20
  -4   4  -3    7.60    9.60
  -4   4   3    0.40   12.90
  -3  -4  -4   -5.20    7.90
  -3  -4  -4   13.20   10.50
  -3  -4  -4   13.60   12.40
  -3  -4   4   -2.70   10.50
  -3  -4   4    8.50    8.80
  -3   4  -4    5.50    8.00
  -3   4  -4  -10.40    7.50
  -3   4   4    1.70   10.00
   3  -4  -4    3.70   11.20
   3  -4  -4   -5.60    7.20
   3  -4   4    0.80   11.40
   3   4  -4    0.90    9.30
   4  -4  -3   -1.30    9.50
   4  -4  -3   11.90   10.20
   4  -4   3   -7.20    8.80
   4  -3  -4   12.20   10.50
   4  -3  -4   -4.40    8.50
   4  -3   4    9.20   13.90
   4   3  -4   15.50   11.00
   4   3   4   -0.80    7.70
   4   4  -3    3.80    8.80
  -4  -4  -4 4510.85  276.07
  -4  -4  -4 4467.35  274.27
  -4  -4  -4 4430.76  274.87
  -4  -4   4 4438.16  280.47
  -4  -4   4 4529.95  270.67
  -4   4  -4 4337.57  269.77
  -4   4  -4 4469.25  272.67
  -4   4   4 4321.97  278.57
   4  -4  -4 4255.47  274.27
   4  -4  -4 4434.16  275.07
   4  -4   4 4298.37  283.87
   4   4  -4 4443.16  273.27
  -5   0   0   -7.30    6.20
   0  -5   0   -4.50    9.10
   0   0  -5    7.10    9.40
   0   0   5   -5.20    4.50
   0   0   5   -4.20    8.40
   0   5   0   -9.60    3.90
   0   5   0    5.30    9.00
   5   0   0    0.10   10.00
  -5   0  -1  155.48   20.30
  -5   0   1  191.78   27.40
  -1  -5   0  212.08   33.40
  -1   5   0  172.98   15.40
  -1   5   0  168.58   21.50
   0  -1  -5  208.18   31.00
   0  -1   5  150.58   17.10
   0  -1   5  189.18   23.00
   0   1  -5  171.98   21.30
   0   1   5  205.58   32.10
   1  -5   0  227.18   36.00
   1   5   0  166.78   14.70
   1   5   0  197.98   28.50
   5   0  -1  238.68   26.80
   5   0  -1  150.18   16.60
   5   0   1  232.98   35.40
  -5   1   0  169.78   21.50
  -1   0  -5  192.18   23.00
  -1   0   5  169.68   15.20
  -1   0   5  257.67   34.70
   0  -5  -1  198.58   24.80
   0  -5  -1  174.78   21.50
   0  -5   1  168.78   32.10
   0   5  -1  175.08   21.80
   0   5   1  159.68   17.20
   1   0  -5  179.78   22.40
   1   0   5  169.98   17.10
   1   0   5  204.88   23.10
   5  -1   0  234.78   35.60
   5   1   0  172.88   30.30
  -5  -1   0  159.48   20.50
   1  -1  -5  -13.60    7.30
   1  -1   5   -3.10    7.40
   1  -1   5   11.10    9.00
   1   1  -5   -0.40    6.10
   1   1   5    4.80    5.10
   1   1   5  -10.40    6.00
   1   5  -1   -0.70    7.30
   1  -5   1    1.40   11.20
  -1  -1   5   17.60   10.90
  -1   1  -5   10.50    8.00
   1  -5  -1   -3.10    7.70
   1  -5  -1   -3.10    5.80
  -5  -1  -1    8.10    8.50
  -5  -1   1    2.40    6.80
  -5   1  -1    2.50    6.90
  -5   1   1    6.60    7.80
  -1  -5  -1    2.30    8.80
  -1  -5  -1   -1.20    6.20
  -1  -5   1   -7.40    6.90
  -1  -1  -5    2.60    8.20
   5   1  -1   -1.20    3.80
   5   1   1   -1.10    7.80
   5   1   1    1.10    3.20
  -1   1   5   20.10   13.80
  -1   5  -1   -0.20    3.10
  -1   5  -1   -2.10    6.90
  -1   5   1   -0.10    6.80
   5  -1  -1   -2.00    4.00
   5  -1   1   11.00   10.40
   5   1  -1    1.80    8.80
   1   5   1    9.40    6.60
   5  -1  -1   -7.00    7.90
  -1  -1   5    0.50    6.30
  -2   0  -5 1451.05   98.29
  -5  -2   0 1451.35   95.99
  -5   2   0 1474.55   97.59
  -5   2   0 1449.95   87.89
  -5  -2   0 1542.25  103.39
  -2   5   0 1418.76   97.09
  -2   0  -5 1414.96   97.29
   2  -5   0 1408.46  104.39
   2   5   0 1461.75   98.09
  -2   5   0 1487.25   91.09
  -5   0  -2 1377.86   96.39
  -5   0  -2 1446.56   87.89
  -5   0   2 1386.46   98.19
   0  -2   5 1396.66   95.29
   0  -2   5 1423.16   97.09
   0   2  -5 1399.46   97.59
   0   2   5 1350.86   99.19
  -2  -5   0 1385.56  101.29
  -2  -5   0 1476.45   89.29
   0   5   2 1437.76   94.29
   2   0  -5 1417.66   98.29
   0  -2  -5 1385.26   99.59
   5   2   0 1430.26   88.79
   5   0  -2 1376.36   99.99
   5   0  -2 1488.35   90.49
   5   0   2 1431.06  101.19
   5  -2   0 1478.85  102.89
   2   0   5 1464.65   93.89
   0  -5   2 1361.56  103.19
   0   5  -2 1378.96   97.99
  -2   0   5 1488.15   91.09
  -2   0   5 1398.66  100.49
   0  -5  -2 1391.86   98.69
   0  -5  -2 1401.96   98.19
   1  -5  -2  592.84   48.70
   1  -5  -2  545.75   46.80
  -1  -2  -5  701.73   51.39
   2   1   5  592.84   41.60
   2   5  -1  621.24   47.50
  -1   5  -2  540.85   47.10
  -5  -1  -2  644.64   47.90
  -5  -2   1  564.44   50.99
  -5  -2   1  575.64   45.80
  -5   2  -1  568.04   46.40
  -5   2  -1  587.64   38.50
  -2   5   1  534.75   42.80
  -5  -1  -2  581.84   39.30
   2  -5   1  551.64   53.49
  -2  -1   5  594.04   43.30
  -2  -1   5  637.54   50.39
  -2   1  -5  617.14   47.00
  -2   1  -5  671.43   48.60
   1   2  -5  637.54   48.40
   5  -1   2  582.94   50.79
   1  -2   5  593.64   47.20
   1  -2   5  556.04   45.60
  -1   2   5  513.75   48.70
  -5   1   2  516.75   47.30
  -2  -5  -1  630.84   51.29
  -2  -5  -1  585.34   41.50
  -2  -5  -1  515.35   45.90
   5   1  -2  533.85   39.70
   2  -1  -5  606.94   39.40
   2  -1  -5  532.95   47.60
   1   5   2  546.55   42.70
   5   2   1  593.14   39.40
   5  -2  -1  552.44   39.30
  -1  -5   2  627.14   53.09
   5  -2  -1  653.83   51.99
   5   1  -2  539.35   49.60
  -1  -5  -2  536.85   47.50
   2   1  -5  603.04   47.20
  -2   5  -1  503.05   45.60
  -2  -5   1  554.44   37.20
  -2   5  -1  567.54   39.10
  -5   2   1  508.85   46.20
  -2  -1  -5  551.44   46.70
  -1  -5  -2  589.04   47.90
  -1  -2   5  613.04   45.70
  -5   1  -2  546.35   38.40
  -5  -2  -1  544.45   45.00
   5  -1  -2  606.04   40.70
   1  -5   2  570.24   52.49
   1   5  -2  541.25   47.10
  -2  -5   1  563.64   50.99
   5   1   2  589.74   50.39
   5  -2   1  600.64   52.79
   5   2  -1  583.74   39.70
   2  -1   5  583.24   46.40
   5  -1  -2  595.54   49.90
  -1  -2   5  559.14   47.10
  -1   2  -5  640.94   48.30
  -5  -2  -1  494.85   48.40
   1  -2  -5  609.04   49.99
  -5  -1   2  572.24   47.10
  -5   1  -2  619.64   46.80
  -2   1   5  550.34   49.99
   1   2   5  487.25   46.20
   2  -5  -1  524.25   50.39
   2  -5  -1  591.14   46.90
  -2  -1  -5  554.84   47.90
  -1   5   2  652.13   46.20
  -5  -2   2   24.10   13.60
  -2   2  -5    2.70    7.70
  -2   2  -5    3.40    7.90
  -2   2   5    4.30   12.40
  -2   5  -2    3.20    4.60
  -2   5  -2    9.50    9.70
  -2   5   2   -3.80    6.60
   2  -5  -2    5.40   12.10
   2  -5  -2    1.70    6.90
   2  -5   2   11.90   12.90
   2  -2  -5    3.40    5.10
   2  -2  -5   -2.10    7.80
   2  -2   5   13.20   11.80
  -2  -5   2    2.60    4.20
  -2  -2  -5    2.00    8.20
  -2  -2  -5   -3.90    7.30
  -2  -2   5   -1.00    7.60
  -2  -2   5    6.30    9.00
   2   2  -5    6.90    9.60
   2   2   5    5.10    6.20
   2   5  -2    4.20    8.10
   5  -2  -2    3.30    9.90
   5  -2  -2    7.30    7.20
  -2  -5  -2    1.00    6.20
  -2  -5  -2   -2.40    5.40
   5   2   2    5.10    9.90
  -5  -2  -2   -3.50    5.90
  -5  -2  -2    6.80    7.40
  -5  -2   2   25.70    9.90
  -5   2  -2   11.40    8.60
  -5   2  -2   12.30    6.70
  -5   2   2    3.50   10.00
  -2  -5  -2   -3.20    8.80
   5  -2   2   -2.30    8.30
   5   2  -2   17.10    6.90
  -2  -5   2   13.50   12.20
   0  -3  -5 3127.29  207.78
   5   0  -3 3270.77  199.48
   5   0   3 3284.27  208.78
  -5   3   0 3366.36  204.58
  -5   3   0 3160.08  197.18
  -5   0  -3 3300.47  205.08
  -5   0  -3 3250.37  197.68
  -5   0   3 3226.58  207.48
  -3  -5   0 3368.46  211.08
  -3  -5   0 3099.89  196.58
  -3   5   0 3280.87  199.58
  -3   5   0 3286.67  204.08
   5   3   0 3286.97  197.98
   0  -5   3 3266.17  212.68
   0   5  -3 3321.17  206.78
   0   5   3 3287.97  203.68
  -3   0   5 3282.77  209.38
   0  -5  -3 3332.77  204.68
  -5  -3   0 3134.89  210.68
  -5  -3   0 3225.08  202.18
   0  -3   5 3269.67  206.18
   0  -3   5 3315.47  203.28
   0   3  -5 3097.19  204.78
   0   3   5 3215.88  207.58
   3  -5   0 3211.38  212.48
   3   5   0 3240.78  204.48
   5   0  -3 3263.87  207.18
   3   0   5 3300.27  202.98
   5  -3   0 3104.99  210.58
   3   0  -5 3323.77  205.58
  -3   0  -5 3213.98  204.88
  -3   0  -5 3412.56  205.28
  -3   0   5 3328.67  199.88
   0  -5  -3 3280.37  207.38
  -5   3  -1 1095.29   70.19
   3  -1  -5 1062.29   77.79
  -3   5   1 1061.89   73.99
   3   1   5 1063.79   73.29
  -1  -5   3 1037.50   82.29
   1   3  -5 1124.19   78.19
  -3  -5  -1 1133.49   71.99
  -5  -1  -3 1016.60   70.29
  -5  -1  -3 1065.59   76.99
   3  -1  -5 1079.69   71.49
  -1  -3  -5  929.01   77.89
  -3  -1   5 1166.48   80.99
  -3   1  -5 1053.79   76.29
  -3   1  -5 1005.10   75.29
  -1   3   5 1042.70   79.99
   1  -5  -3 1088.59   79.09
   1  -3   5 1114.59   79.39
   1  -3   5  988.50   73.89
   5   1  -3 1028.50   71.09
  -3  -5  -1 1065.19   76.19
  -5  -3   1 1097.89   83.19
  -5  -3   1 1075.49   74.39
  -5   3  -1 1135.29   76.19
  -5   1   3 1088.29   80.39
  -3  -5  -1 1113.79   81.99
   3  -5   1 1007.40   84.09
   3   5  -1 1030.30   75.79
  -3  -1   5 1032.00   74.09
   5  -3  -1 1071.19   70.59
   5  -1   3 1167.38   82.59
   1   5   3 1057.39   74.69
   5  -3  -1 1140.49   83.09
  -1   5  -3 1017.20   77.49
   1  -5  -3 1016.80   76.49
   5   3   1 1105.29   71.09
  -1  -5  -3 1065.89   76.59
  -5  -1   3 1078.29   79.29
  -5   1  -3 1063.29   76.29
   1   3   5  916.21   75.79
   1   5  -3 1133.79   79.19
  -1  -3   5 1036.30   75.39
  -5   3   1 1194.88   78.99
  -5  -3  -1 1101.49   75.49
  -1   3  -5 1152.78   78.49
  -3   1   5 1103.39   82.39
  -1  -3   5 1049.89   77.39
  -3   5  -1 1028.20   70.29
  -3   5  -1  988.50   74.89
  -3  -5   1 1073.39   68.49
   5  -3   1 1005.90   82.49
   5   3  -1 1006.70   70.59
   3  -5  -1 1050.49   82.49
   3  -5  -1 1038.80   75.49
  -3  -1  -5 1007.50   76.79
  -3  -1  -5 1070.69   77.29
   5  -1  -3 1079.19   78.89
   5  -1  -3 1039.00   71.99
   3  -1   5 1058.59   77.29
  -5  -3  -1 1159.58   83.39
   5   1   3 1097.59   80.29
   3   1  -5  991.90   75.49
  -5   1  -3 1109.69   70.49
  -3  -5   1 1158.68   84.09
   1  -5   3  991.60   82.19
   1  -5   3 1100.69   66.99
   1  -3  -5 1107.59   80.49
  -1   5   3 1047.10   76.09
  -5  -1   3 1032.50   77.49
  -1  -5  -3 1101.99   79.39
   5   2  -3 4864.71  296.57
   2  -5  -3 4709.13  303.27
   3  -2  -5 5137.79  296.27
  -2   3   5 4901.01  306.97
  -2   5  -3 5025.10  292.97
  -2   5  -3 4980.80  303.27
   2  -5  -3 4880.51  303.57
   5  -3  -2 4976.80  297.07
  -5   2   3 5064.29  307.07
  -5  -3   2 5064.99  309.47
  -5  -3   2 4776.42  299.17
   3  -2  -5 4962.40  303.87
  -5   3  -2 4974.70  295.17
  -5  -2  -3 4910.71  296.37
   3  -5   2 5020.20  313.37
   3   5  -2 4959.90  301.87
  -3  -2   5 4949.50  301.17
  -3  -2   5 4796.82  302.77
  -3   2  -5 4962.90  300.97
  -3   2  -5 4790.42  300.57
   2   5   3 4947.41  299.17
  -3  -5  -2 4855.21  297.37
   3   2   5 5042.20  297.47
  -2  -5   3 4974.40  309.57
  -2  -5   3 5028.70  290.87
   2  -3   5 4956.30  307.07
   2   3  -5 4837.42  302.27
  -3  -5  -2 4838.02  305.17
  -3  -5  -2 4902.01  301.97
   5  -3  -2 5021.20  307.27
  -5  -2  -3 4999.20  301.97
  -5   3  -2 4996.50  300.37
  -3   5   2 4603.64  300.17
  -2  -3  -5 4834.32  304.47
   5  -2   3 5002.70  309.17
   5  -2  -3 4824.22  297.37
   2  -3  -5 4977.90  305.57
   5   2   3 4826.62  305.37
   3   2  -5 4874.11  301.37
  -3   5  -2 4924.11  294.17
  -3   5  -2 4936.41  301.37
  -2   3  -5 4790.42  302.07
  -3  -2  -5 4985.30  303.47
  -3  -2  -5 5022.10  303.47
  -2   3  -5 4949.40  298.67
  -2   5   3 4888.71  302.67
   5  -2  -3 4902.61  303.67
   2  -3  -5 4790.42  293.57
   2  -5   3 4985.80  313.07
   2   3   5 5011.70  294.57
   2   3   5 4898.61  303.17
   3  -5  -2 5144.89  307.87
   3  -5  -2 4919.71  301.67
  -3  -5   2 4957.00  292.27
  -5  -2   3 4903.31  306.77
  -5  -2   3 4835.32  301.87
  -5  -3  -2 4683.33  306.27
  -5  -3  -2 4922.21  300.97
  -5  -3  -2 4917.31  296.27
   3  -2   5 4937.81  305.47
  -3   2   5 4933.31  308.27
   5  -3   2 5000.40  311.37
   5   3  -2 4810.92  296.17
  -3  -5   2 4885.21  309.37
  -5   3   2 4810.12  303.77
  -2  -3   5 4817.42  302.97
   2   5  -3 4962.20  303.57
  -2  -5  -3 4923.01  303.97
  -5   2  -3 4787.32  300.77
  -5   2  -3 4788.62  294.77
  -2  -3   5 4873.51  300.97
  -2  -5  -3 4952.50  302.67
   3   5  -3   -3.10    7.50
   5  -3  -3    5.50   10.20
   3   3   5    2.50    7.70
   3  -3  -5    3.60    8.10
   3  -3  -5   -1.30    9.10
   3  -3   5   -8.80   10.70
  -3   5  -3   10.10    7.10
  -3   5  -3  -11.60    7.30
  -3   5   3   10.50   12.60
   3  -5  -3   11.90   11.20
   3  -5  -3   -2.50    7.50
   3   3  -5   -3.90    8.20
  -5  -3  -3    2.40    8.20
  -5  -3  -3    8.00    8.70
  -5  -3   3  -10.10    9.90
  -5  -3   3    0.80    7.90
  -5   3  -3   -4.60    6.70
   3  -5   3    6.70   16.60
   5  -3  -3   -4.60    6.90
   5  -3   3   -7.30    6.70
   5   3  -3    1.90    6.80
   5   3   3   -4.10    9.70
  -3   3  -5   -1.90    9.10
  -3   3   5    3.40   13.00
  -5   3  -3   -7.40    7.40
  -5   3   3  -12.20    7.50
  -3  -5  -3   17.00   11.50
  -3  -5  -3    7.50    7.90
  -3  -3  -5    7.00   10.00
  -3  -3   5   -0.90    9.90
  -3  -3   5    2.90   10.20
  -3   3  -5   -0.80    7.50
  -3  -3  -5    0.30    8.30
  -3  -5   3    6.30    6.20
  -3  -5   3   10.60   13.90
  -3  -5  -3   -1.20    8.00
   5   0   4  707.63   57.49
   5   0  -4  698.83   51.59
   5   0  -4  724.33   55.89
   4   5   0  652.13   52.29
   4  -5   0  679.33   62.09
   0  -4   5  655.23   57.19
   0  -4   5  608.14   50.09
   0   4  -5  731.73   56.39
   0   4   5  667.23   56.59
  -4  -5   0  658.63   59.19
  -4  -5   0  636.24   48.30
  -4   5   0  646.54   50.39
  -4   5   0  683.13   52.89
   0  -4  -5  648.44   45.80
   0  -4  -5  724.13   58.29
   4   0  -5  668.93   53.59
  -5  -4   0  642.64   59.19
  -5  -4   0  678.43   50.69
  -5   4   0  607.04   51.99
  -5   4   0  658.43   49.40
  -4   0  -5  711.73   55.79
  -4   0  -5  652.93   52.79
  -4   0   5  755.12   59.99
  -5   0  -4  768.82   55.59
  -5   0  -4  660.53   49.80
  -5   0   4  632.44   56.69
   0  -5  -4  672.23   57.39
   0  -5   4  650.33   59.59
   0  -5   4  659.83   45.60
   0   5  -4  608.14   54.69
   0   5   4  676.53   55.09
   4   0  -5  671.93   51.89
   0  -5  -4  674.73   51.39
   4   0   5  654.43   54.39
   5  -4   0  710.63   62.39
   5   4   0  629.34   48.90
  -5  -1  -4   68.39   18.70
  -1  -5   4   31.40    8.90
  -5  -1  -4   68.89   16.70
  -4   5   1   66.59   18.10
  -1  -4  -5   25.50    9.80
  -1  -4  -5   17.30   12.60
   5   4   1   20.80    9.80
  -5   1   4   47.30   19.50
  -4  -5  -1   39.60   16.40
  -4  -5  -1   43.50   12.80
   4  -5   1   85.79   28.00
   4   5  -1   52.09   15.20
  -5   4  -1   64.49   15.80
  -4  -1   5   49.00   16.80
  -4  -1   5   41.90   16.20
  -4   1  -5   34.10   13.40
  -4   1  -5   57.19   16.70
  -1   4   5   21.50   14.10
   4   1   5   41.10   15.60
   5  -4  -1    4.80   13.00
   1  -4   5   52.49   19.00
   1  -4   5   25.40   12.10
  -1  -5   4   48.80   18.70
   4  -1  -5   41.10   14.40
   5  -4  -1   41.80   12.50
  -5  -4   1   32.00   18.60
  -5  -4   1   21.90   10.80
   1  -5  -4   14.90   13.20
  -1   5  -4   75.89   20.80
   4  -1  -5   42.90   16.40
   1  -5  -4   21.40   12.00
   1   5   4   40.30   15.70
  -5   4  -1   32.10   12.50
   5  -1   4   55.09   19.90
   5   1  -4   22.20   12.00
  -4  -5  -1   26.10   11.80
   5   1   4   33.60   14.40
  -1  -5  -4   22.50   12.10
  -1  -5  -4   45.50   18.30
  -5   1  -4   43.20   13.10
   5  -1  -4   60.39   16.10
   4  -5  -1   58.69   15.60
  -5   4   1   45.00   17.00
  -4  -1  -5   54.99   17.00
   4  -5  -1   28.20   16.90
   1  -5   4   34.40   15.70
   1  -5   4   27.70   10.00
  -5  -4  -1   29.60   12.20
  -4  -1  -5   56.09   17.30
  -1  -4   5   59.09   20.80
  -1  -4   5   45.40   15.00
  -1   4  -5   23.10   11.70
   5  -1  -4   38.50   16.60
  -4   5  -1   12.60   10.50
  -5  -1   4   45.50   15.30
  -5  -1   4   27.10   13.50
  -5   1  -4   47.70   15.70
   5  -4   1    8.70   12.10
   5   4  -1   50.09   13.10
  -4   1   5   21.90   15.80
  -4  -5   1   10.80   13.50
  -4  -5   1   49.60   11.80
  -4   5  -1   38.60   12.20
  -5  -4  -1   35.90   16.70
  -1   5   4   77.39   20.50
   4  -1   5   71.79   22.50
   4   1  -5   42.80   15.70
   1  -4  -5   41.00   11.00
   1  -4  -5   19.70   12.90
   1   5  -4   14.10   12.40
   1   4   5   45.20   16.70
  -4   5   2  902.71   67.69
  -5   4  -2  844.82   62.09
   2  -5  -4  924.71   66.29
   2  -5  -4  921.21   70.49
  -4  -5  -2  851.61   63.39
  -5  -4   2  892.31   73.89
  -5  -4   2  827.92   62.19
   5   2  -4  848.32   62.79
   4  -2  -5  952.00   68.69
  -4   2  -5  746.43   64.29
  -4   2  -5  855.61   64.79
   2   4  -5  908.31   68.09
  -2  -4  -5  828.62   68.49
   5  -4  -2  896.61   63.39
  -2  -5   4  855.01   72.49
   4  -5   2 1008.00   79.39
   4   5  -2  885.01   65.69
  -2   4   5  890.21   71.19
  -2  -4  -5  827.02   61.19
   5  -2   4  812.32   70.99
  -4  -2   5  825.72   66.99
  -4  -2   5  947.51   69.49
  -4  -5  -2  853.21   65.49
   4   2   5  781.02   63.89
   5  -4  -2  813.12   71.19
  -5   4  -2  842.62   63.89
  -5  -2  -4  796.32   65.99
  -5  -2  -4  832.72   62.89
  -2  -5   4  967.70   58.99
  -2   5  -4  850.51   59.09
  -2   5  -4  934.21   68.59
   2  -4   5  822.92   71.99
  -5   2   4  891.01   71.59
  -4  -5  -2  888.81   71.69
   4  -2  -5  819.12   62.69
   2   5   4  911.51   66.19
   4   2  -5  909.81   65.79
   2  -5   4  962.30   77.19
  -4   5  -2  854.21   61.39
  -5   2  -4  791.72   61.29
   5   4  -2  932.81   63.79
  -4  -2  -5  887.71   67.99
  -2  -5  -4  917.71   65.79
  -2  -5  -4  983.60   71.39
  -2  -4   5  857.01   62.89
  -2   4  -5  927.31   62.59
  -2   4  -5  828.22   66.79
  -5   2  -4  832.62   65.19
   2  -4  -5  837.12   60.39
   2  -4  -5  915.51   70.69
  -4   5  -2  935.01   65.99
  -4   2   5  817.62   70.79
   2   4   5  786.02   65.79
   4  -5  -2  944.91   73.59
   4  -5  -2  860.11   65.49
  -5  -2   4  958.90   71.79
  -5  -2   4  815.62   67.19
   5  -2  -4  891.01   67.29
   5  -2  -4  844.32   64.59
  -4  -2  -5  839.92   66.29
  -4  -5   2  864.61   59.49
   5   2   4  942.11   69.09
   4  -2   5  944.41   71.99
  -4  -5   2  798.22   72.19
  -2  -4   5  844.62   69.29
   5  -4   2  847.02   74.79
  -5   4   2  886.21   68.69
   2   5  -4  892.81   68.19
  -5  -4  -2  952.70   63.89
  -5  -4  -2  942.61   65.49
  -5  -4  -2  749.53   69.49
  -2   5   4  921.91   70.19
   3   4  -5    7.40   11.70
   5   3  -4   19.90   12.70
   5  -3   4   37.90   18.80
  -5  -4   3   28.40   12.20
  -5  -3  -4   40.30   15.60
   4  -5   3   48.70   21.50
   4   5  -3   -6.10    9.10
   5  -4  -3   20.40   12.10
  -5   3   4   14.10   14.30
  -4  -5  -3   19.40   12.70
  -4  -5  -3    3.60    8.60
  -4  -5  -3   -2.40    9.90
  -3   5  -4    7.10   12.00
  -5   4  -3   34.40   13.80
  -5   4  -3    8.90   11.10
  -3  -5   4   11.60    9.20
  -4   5   3  -16.50    8.80
  -3  -4  -5   12.30    9.60
  -3  -4  -5   45.40   15.10
  -3  -4  -5   42.00   15.90
  -4   3  -5   32.70   13.10
  -4   3  -5   10.70   12.10
  -5  -4   3   31.60   18.00
   4  -3  -5   23.00   11.30
  -3   4   5    9.90   14.30
   3  -5  -4   12.30   12.60
  -3  -5   4   15.50   14.90
   3  -4   5   36.00   19.70
  -4  -3   5   20.30   12.00
  -4  -3   5   12.60   11.30
   3  -5  -4    3.80   11.60
  -5  -3  -4   30.20   13.40
   5  -4  -3   -3.00   12.10
  -3   5  -4   12.50    8.00
   4  -3  -5   69.99   19.90
   4   3   5   19.00   12.50
   5   3   4    4.80   10.30
  -5   3  -4   10.50   11.10
  -5  -4  -3   11.00   11.00
  -3   4  -5   11.30    9.90
  -4  -5   3   -1.60   10.50
  -4  -5   3    8.80    9.00
  -4   5  -3   26.40   10.60
  -5   4   3   16.10   13.90
  -4  -3  -5    2.70    9.60
  -4  -3  -5   24.70   13.30
   5  -3  -4   16.90   11.70
   3  -4  -5   15.80   11.30
  -3  -4   5   20.10   15.30
  -3  -4   5   22.30   12.60
  -4   3   5    4.80   12.50
  -3  -5  -4   36.00   14.40
  -3  -5  -4   17.80   12.40
  -3  -5  -4   42.50   17.40
   3  -4  -5   31.00   13.40
  -4   5  -3   10.40   11.10
   5  -3  -4   32.80   16.60
   4  -5  -3    0.80   12.40
  -3   5   4   30.30   17.30
  -5  -4  -3   10.80   14.20
   4  -5  -3   43.60   15.60
   3  -5   4    8.60   15.30
   3   5  -4   12.40   11.20
  -3   4  -5   18.30   14.50
  -5   3  -4   23.80   12.00
   4  -3   5   30.70   15.70
   4   3  -5   11.70   10.60
  -5  -4  -3   -9.70    6.30
  -5  -3   4   15.30   13.50
  -5  -3   4   21.90   14.40
   5  -4   3   11.10   15.80
   5   4  -3   14.00   11.60
  -5  -4  -4   -7.80    9.80
  -5  -4  -4    3.10    9.60
  -5  -4   4   -7.40   11.50
  -5  -4   4   -9.30    9.70
  -5   4  -4    4.90    9.40
  -5   4  -4   -4.00    9.20
  -5   4   4   23.30   15.40
  -4  -5  -4    0.10   11.50
  -4  -5  -4  -12.40    7.30
  -4  -5  -4   -3.00   10.30
  -4  -5   4   -6.60   10.70
  -4  -5   4    4.70    9.50
  -4  -4  -5   22.90   15.00
  -4  -4  -5   -8.30    7.90
  -4  -4   5   -1.70   13.10
  -4  -4   5    3.10   10.40
  -4   4  -5    4.00   10.50
  -4   4  -5  -10.70    9.00
  -4   4   5   -2.00   11.80
  -4   5  -4    7.80    9.70
  -4   5  -4   12.50   11.60
  -4   5   4  -10.50   10.50
   4  -5  -4   -4.10   11.60
   4  -5  -4    0.80   13.20
   4  -5   4   -6.80   11.10
   4  -4  -5   10.60   14.00
   4  -4  -5    1.90   10.20
   4  -4   5   -0.60   10.90
   4   4  -5   -1.90   10.00
   4   4   5   11.10   12.90
   4   5  -4   15.60   11.40
   5  -4  -4   -4.40   11.00
   5  -4  -4    0.90   10.50
   5  -4   4   -4.40   12.40
   5   4  -4   11.90   11.40
  -5  -5   0   15.80   16.60
  -5  -5   0   22.90   10.50
  -5   0  -5   14.30   11.60
  -5   0  -5   45.30   16.40
  -5   0   5   43.20   19.80
  -5   5   0   39.30   14.80
  -5   5   0   23.40   12.10
   0  -5  -5   34.00   12.00
   0  -5  -5   16.90   13.10
   0  -5   5   29.90   18.00
   0  -5   5   34.70   12.70
   0   5  -5   39.40   17.10
   0   5   5   91.59   24.70
   5  -5   0   19.80   15.70
   5   0  -5   17.90   12.50
   5   0  -5   31.70   15.70
   5   0   5   30.20   16.80
   5   5   0   41.70   13.90
  -5  -5  -1    4.30   10.40
  -5  -5  -1    0.50    7.80
  -5  -5   1  -10.30   10.80
  -5  -5   1    4.20    8.20
  -5  -1  -5   -3.80    7.70
  -5  -1  -5    2.80    9.90
  -5  -1   5   -0.10    8.20
  -5  -1   5    2.20   12.30
  -5   1  -5   -0.70    8.70
  -5   1  -5   -0.10    8.80
  -5   1   5   -0.20   12.50
  -5   5  -1   13.90   11.10
  -5   5  -1    5.70   10.10
  -5   5   1   13.00   11.50
  -1  -5  -5   15.20   10.40
  -1  -5  -5   -9.90    9.60
  -1  -5   5    4.90   13.40
  -1  -5   5    4.50    8.10
  -1   5  -5    0.00    8.90
  -1   5   5   19.00   14.90
   1  -5  -5   13.60   10.70
   1  -5  -5  -10.20    7.10
   1  -5   5   10.30   15.00
   1  -5   5   -1.70    8.50
   1   5  -5   17.40   12.50
   1   5   5   -7.60    9.10
   5  -5  -1   12.00   15.50
   5  -5  -1  -13.90    8.80
   5  -5   1    4.50   12.30
   5  -1  -5   -3.30   10.50
   5  -1  -5    0.70    9.20
   5  -1   5    4.60   10.10
   5   1  -5   -0.10    9.10
   5   1   5    3.90   11.40
   5   5  -1   -8.80    7.10
   5   5   1  -12.00    6.80
  -5  -5  -2 1653.43  119.39
  -5  -5  -2 1716.03  109.99
  -5  -5  -2 1659.23  110.09
  -5  -5   2 1562.14  119.49
  -5  -5   2 1696.73  106.49
  -5  -2  -5 1750.22  115.69
  -5  -2  -5 1669.43  110.69
  -5  -2   5 1626.84  115.09
  -5  -2   5 1674.53  115.59
  -5   2  -5 1458.35  110.29
  -5   2  -5 1513.65  108.09
  -5   2   5 1359.66  115.19
  -5   5  -2 1559.24  107.69
  -5   5  -2 1570.04  108.49
  -5   5   2 1782.92  115.09
  -2  -5  -5 1593.64  107.99
  -2  -5  -5 1676.33  116.79
  -2  -5   5 1695.83  118.99
  -2  -5   5 1613.34  104.79
  -2   5  -5 1605.64  105.09
  -2   5  -5 1635.74  113.69
  -2   5   5 1619.64  116.19
   2  -5  -5 1543.05  106.69
   2  -5  -5 1650.53  116.79
   2  -5   5 1720.33  122.29
   2   5  -5 1626.34  113.79
   2   5   5 1606.44  112.19
   5  -5  -2 1618.04  118.99
   5  -5  -2 1581.14  109.09
   5  -5   2 1451.85  120.69
   5  -2  -5 1614.44  110.59
   5  -2  -5 1619.44  111.79
   5  -2   5 1583.74  117.79
   5   2  -5 1679.03  110.19
   5   2   5 1707.53  113.39
   5   5  -2 1652.73  110.19
  -5  -5  -3   -7.70   11.40
  -5  -5  -3   -0.60    9.90
  -5  -5  -3    0.70    8.80
  -5  -5   3   13.80   18.90
  -5  -5   3    5.30    9.30
  -5  -3  -5    6.50    9.90
  -5  -3  -5   16.70   11.50
  -5  -3   5   23.00   15.20
  -5  -3   5    1.10   11.70
  -5   3  -5    4.90   10.30
  -5   3  -5   -3.40    9.10
  -5   3   5   -5.50   13.60
  -5   5  -3   14.40   10.70
  -5   5  -3  -14.40    8.60
  -5   5   3   -2.50   12.80
  -3  -5  -5    6.10   11.00
  -3  -5  -5   -5.20    9.50
  -3  -5  -5   -0.80   10.40
  -3  -5   5   -5.00   13.20
  -3  -5   5   -7.00    7.80
  -3   5  -5   -4.10    8.60
  -3   5  -5   15.80   14.30
  -3   5   5    7.40   12.60
   3  -5  -5    4.20   11.50
   3  -5  -5    0.10   11.10
   3  -5   5   10.40   17.10
   3   5  -5   -9.90   10.20
   5  -5  -3   36.10   21.40
   5  -5  -3   -2.70   10.80
   5  -5   3   11.00   14.10
   5  -3  -5   -0.30   11.40
   5  -3  -5   -0.30   10.60
   5  -3   5    0.50   13.70
   5   3  -5    8.40   11.30
   5   3   5    9.20   12.70
   5   5  -3    3.80   10.80
  -5  -5  -4  721.03   64.49
  -5  -5  -4  601.34   57.19
  -5  -5  -4  658.73   58.99
  -5  -5   4  748.93   67.49
  -5  -5   4  787.72   56.89
  -5  -4  -5  741.73   61.39
  -5  -4  -5  782.82   61.89
  -5  -4   5  719.03   66.09
  -5  -4   5  653.03   57.69
  -5   4  -5  787.62   59.49
  -5   4  -5  695.93   58.29
  -5   4   5  646.84   64.09
  -5   5  -4  698.13   56.29
  -5   5  -4  754.12   58.59
  -5   5   4  713.73   64.09
  -4  -5  -5  789.02   61.69
  -4  -5  -5  727.63   60.99
  -4  -5  -5  842.82   65.19
  -4  -5   5  712.63   66.39
  -4  -5   5  681.63   55.09
  -4   5  -5  638.64   55.29
  -4   5  -5  695.73   59.89
  -4   5   5  856.31   67.59
   4  -5  -5  736.33   60.19
   4  -5  -5  741.93   63.49
   4  -5   5  733.33   69.79
   4   5  -5  735.33   61.09
   5  -5  -4  735.23   63.29
   5  -5  -4  728.53   61.19
   5  -5   4  606.44   67.09
   5  -4  -5  665.63   59.29
   5  -4  -5  701.13   60.49
   5  -4   5  686.33   67.69
   5   4  -5  640.04   57.39
   5   4   5  730.93   61.79
   5   5  -4  806.62   60.19
  -5  -5  -5   -2.60   11.00
  -5  -5  -5   -2.30   11.70
  -5  -5   5   -5.60   12.60
  -5  -5   5  -12.00   11.00
  -5   5  -5   -2.40   10.00
  -5   5  -5  -11.40    9.90
  -5   5   5    2.20   15.40
   5  -5  -5   -5.40   12.80
   5  -5  -5    0.40   13.10
   5  -5   5    0.70   14.70
   5   5  -5  -14.80   10.20
  -6   0   0 9589.24  589.24
   0  -6   0 9965.20  597.04
   0   0  -6 9999.00  592.64
   0   0   6 9866.31  577.94
   0   0   6 9742.03  592.54
   0   6   0 9806.12  577.64
   6   0   0 9990.90  595.84
  -6   0  -1   24.60   12.30
  -6   0   1    0.80    9.00
  -1  -6   0    2.30   11.80
  -1   6   0   11.30    6.20
  -1   6   0    5.20    8.90
   0  -1  -6   40.50   17.60
   0  -1   6   10.80    7.90
   0  -1   6    8.70   11.00
   0   1  -6    5.50   10.50
   0   1   6   25.20   15.30
   1  -6   0   31.60   17.10
   1   6   0    4.50    6.30
   1   6   0    8.00   10.70
   6   0  -1   14.30   13.20
   6   0   1   15.80   13.30
  -1   0   6   -0.10   11.30
   0  -6  -1   -0.10   10.20
   0  -6  -1   26.50   13.20
   0  -6   1   39.50   19.80
   0   6  -1   21.30   12.00
   0   6   1    6.80    7.90
   1   0  -6    0.30    9.40
   1   0   6    8.80    6.50
   1   0   6   11.80   11.30
   6  -1   0    9.40   13.10
   6   1   0    8.60   12.40
  -1   0  -6   17.80   10.00
  -1   0   6   14.30    6.60
  -6  -1   0   29.90   13.70
  -6   1   0   11.90   10.30
   1   6  -1 2438.56  151.28
   1   6   1 2229.88  140.99
   6   1   1 2366.26  155.88
  -1  -1  -6 2231.58  151.68
  -1  -1   6 2289.27  141.99
  -1  -1   6 2305.17  151.98
  -1   1  -6 2242.68  149.69
   1  -6   1 2198.68  156.08
   1  -1  -6 2137.39  151.18
   1  -1   6 2383.46  143.69
   1  -1   6 2236.28  149.09
   1   1  -6 2403.46  150.68
   1   1   6 2347.97  151.08
  -6  -1  -1 2348.47  149.19
  -6  -1   1 2281.07  149.29
  -6   1  -1 2310.07  149.09
  -6   1   1 2223.48  149.49
  -1  -6  -1 2361.86  154.68
  -1  -6  -1 2248.97  150.08
  -1  -6   1 2302.27  156.78
   1  -6  -1 2214.58  154.08
   6  -1  -1 2240.28  153.68
   6  -1   1 2212.68  154.18
   6   1  -1 2242.58  154.08
   6   1  -1 2258.77  136.49
  -1   1   6 2248.38  153.28
  -1   6  -1 2230.08  149.79
  -1   6   1 2237.08  141.89
   1  -6  -1 2360.76  150.58
   6   0  -2  625.04   43.30
  -2   0  -6  654.33   54.29
  -2   0   6  626.84   44.30
  -2   0   6  648.74   56.49
   0  -6  -2  588.14   54.09
   0  -6  -2  644.24   53.59
   0  -6   2  553.64   57.19
   0   6  -2  644.14   53.99
   0   6   2  563.24   47.20
   2   0  -6  653.93   54.19
   2   0   6  581.54   46.90
   6  -2   0  645.24   57.49
   6   2   0  667.53   58.29
   6   2   0  608.74   41.50
   0  -2   6  612.74   49.00
   0  -2   6  603.94   52.49
   0   2  -6  640.94   53.49
   0   2   6  731.13   57.59
   2  -6   0  604.04   58.49
   2   6   0  686.93   54.39
   6   0  -2  628.94   55.69
  -6   0   2  634.34   53.29
   6   0   2  641.64   56.79
  -2  -6   0  622.74   57.29
  -2   6   0  647.04   44.70
  -2   6   0  651.23   53.09
   0  -2  -6  680.33   56.39
  -6  -2   0  694.73   52.29
  -6   2   0  656.93   53.09
  -6   2   0  602.34   40.30
  -2   0  -6  664.23   53.69
  -6   0  -2  712.33   53.19
  -2  -1   6  140.69   17.20
   1  -2   6  172.18   27.40
   1  -2   6  153.68   26.40
   1   2  -6  144.19   27.30
  -6  -1  -2  262.97   34.90
  -6  -1  -2  139.39   12.90
  -6  -2   1  213.18   36.40
  -6  -2   1  164.48   26.90
  -6   2  -1  199.88   30.90
  -6   2  -1  114.49   12.00
  -2  -6  -1  146.89   30.70
  -2  -6  -1  142.89   27.40
   2  -1  -6  130.89   13.60
   2  -1  -6  135.39   26.90
   6  -1   2  126.89   31.00
   6   1  -2  167.08   33.20
   2   1   6  127.99   16.10
   2   1   6  201.58   31.90
   6  -2  -1  212.88   36.80
   6  -2  -1  103.19   12.60
   1   6   2  168.48   18.70
  -1  -6   2  107.29   27.90
   6   2   1  120.59   28.20
   6   2   1  117.19   12.60
  -2   6   1  168.28   23.20
  -1  -2  -6  145.49   28.70
   1  -6  -2  159.08   27.00
  -2  -1   6  182.68   32.40
  -1   6  -2  157.28   27.40
  -1   2   6  148.79   31.80
   1  -6  -2  200.58   35.40
   2  -6   1  152.78   35.20
   2   6  -1  157.98   29.40
  -6   1   2  133.39   27.90
   6   1  -2  116.19   14.50
  -2   1  -6  158.38   27.00
  -2   1  -6  207.38   31.50
   1   2   6  160.48   29.00
  -1  -2   6  205.88   32.00
   6  -2   1  153.68   32.80
  -6   2   1  192.68   32.30
  -2  -1  -6  225.48   34.50
  -2  -6   1  155.68   34.10
  -6   1  -2  213.08   30.70
   6   2  -1  173.88   15.10
  -1   2  -6  187.48   29.70
  -6  -1   2  183.68   29.70
  -2   1   6  170.68   31.70
  -1  -6  -2  186.58   33.00
  -1  -6  -2  187.28   30.90
  -2   6  -1  123.69   13.80
  -2   6  -1  151.18   26.30
  -1   6   2  155.88   24.30
   1  -2  -6  202.68   33.80
  -1  -2   6  142.89   19.00
  -2  -6   1  126.99   12.20
   6   1   2  175.48   32.00
   2  -6  -1  177.88   34.60
   2  -6  -1  150.48   28.20
   1  -6   2  125.19   31.90
   1   6  -2  182.18   30.40
   2   6   1  129.19   15.80
   6  -1  -2  147.09   29.10
   6  -1  -2  116.69   14.00
   2  -1   6  159.18   21.20
   2   1  -6  134.99   26.90
  -6   1  -2  107.39   13.40
  -6  -2  -1  163.98   26.70
   6  -2  -2  717.73   52.29
   6  -2   2  755.32   67.49
   6   2  -2  750.62   52.39
   6   2   2  705.13   64.19
  -2   2  -6  774.82   61.29
  -2   2   6  765.62   65.59
  -2  -6   2  719.23   66.89
  -2  -2  -6  773.32   63.09
  -6  -2  -2  743.43   59.89
  -6  -2  -2  741.13   50.99
  -6  -2   2  740.33   65.19
  -6  -2   2  774.52   60.29
  -6   2  -2  757.22   59.89
  -6   2  -2  754.32   49.99
  -6   2   2  821.72   63.99
  -2  -6  -2  794.22   64.59
  -2  -6  -2  826.62   62.39
   2  -6  -2  713.93   63.79
   2  -6  -2  811.02   61.99
   2  -6   2  861.11   71.89
   2  -2  -6  683.93   61.59
   2  -2   6  710.63   60.39
   2   2  -6  858.61   63.09
   2   2   6  756.92   51.19
   2   2   6  753.22   61.89
   2   6  -2  781.12   62.29
   2   6   2  744.83   54.99
   6  -2  -2  728.13   63.59
  -2   6  -2  762.92   49.50
  -2   6  -2  781.12   62.19
  -2   6   2  793.82   58.09
  -2  -2   6  819.72   58.59
  -2  -2   6  704.73   61.69
  -2   2  -6  799.02   60.09
   3  -6   0  578.94   59.49
   3   6   0  625.44   53.89
   0  -6  -3  579.14   52.89
   0  -6  -3  619.04   54.99
   0  -6   3  620.94   60.19
  -6   0  -3  606.24   52.69
  -6   0  -3  633.94   44.30
  -6   0   3  599.74   54.69
  -3  -6   0  562.74   56.99
  -6  -3   0  620.04   58.69
  -6  -3   0  648.64   51.59
  -6   3   0  639.64   53.59
  -6   3   0  625.24   44.10
  -3   0  -6  733.13   55.99
  -3   0  -6  651.33   54.49
  -3  -6   0  641.34   45.30
  -3   6   0  617.84   46.80
  -3   6   0  654.93   53.79
   0  -3  -6  647.64   56.99
   0  -3   6  650.73   53.69
   0  -3   6  691.43   53.79
   0   3  -6  583.94   53.69
   0   3   6  630.74   56.29
   6  -3   0  660.03   60.89
   0   6  -3  678.53   56.09
   6   0  -3  635.94   56.59
   6   0  -3  728.83   48.10
   6   0   3  589.94   56.49
   0   6   3  655.93   51.79
   3   0  -6  630.54   54.09
   3   0   6  614.44   50.19
   6   3   0  693.93   45.80
  -3   0   6  719.73   60.29
   6  -3  -1 1185.48   76.99
  -6  -3   1 1144.59   83.89
  -6  -3   1 1116.39   91.89
   6   3   1 1177.38   77.29
  -6   1   3 1164.58   88.99
  -6   3  -1 1226.58   76.39
  -3  -6  -1 1252.07   92.19
  -3  -6  -1 1244.78   79.29
  -1  -6   3 1175.48   93.69
  -1   3   6 1144.39   89.79
  -3  -1   6 1184.58   90.09
   1  -6  -3 1160.88   87.29
   1  -6  -3 1113.99   86.89
  -6  -1  -3 1112.99   85.59
  -6  -1  -3 1201.08   76.89
   1   6   3 1241.28   83.79
   1  -3   6 1141.79   83.89
   1   3  -6 1232.48   87.99
   3  -1  -6 1151.78   87.49
  -3  -1   6 1196.18   81.99
   1  -3   6 1309.27   88.59
   3  -6   1 1241.88   96.59
   3   6  -1 1210.38   86.19
  -3   6   1 1126.19   81.29
  -1  -3  -6 1189.18   89.49
   6  -1   3 1106.09   90.19
   6   1  -3 1142.99   89.79
   6   1  -3 1183.28   78.89
  -3   1  -6 1101.79   85.09
   6  -3  -1 1133.59   91.99
   3   1   6 1206.38   80.89
  -3  -6  -1 1312.57   87.59
  -6   3  -1 1144.69   85.09
   3  -1  -6 1173.58   77.69
  -3   1  -6 1237.08   87.09
  -1   6  -3 1315.97   89.29
   1  -3  -6 1103.69   88.59
   6  -1  -3 1229.68   79.49
  -1   3  -6 1196.08   87.59
   1   3   6 1162.18   87.69
  -6  -3  -1 1254.77   93.39
  -6  -3  -1 1077.89   83.19
   6   3  -1 1252.97   78.09
  -6   1  -3 1142.19   76.39
   6  -1  -3 1123.29   88.49
  -3   1   6 1263.27   93.49
  -6   3   1 1185.38   86.59
  -3  -1  -6 1120.09   86.09
  -3  -1  -6 1205.28   87.49
   3  -6  -1 1168.28   93.09
  -1   6   3 1154.98   83.99
   6   1   3 1175.58   90.49
  -1  -3   6 1088.79   84.89
   1  -6   3 1231.08   95.79
   1   6  -3 1108.99   86.59
  -6  -1   3 1262.37   88.79
  -6   1  -3 1207.78   86.19
  -1  -3   6 1163.18   85.19
   3  -1   6 1239.48   85.89
  -1  -6  -3 1115.09   85.99
  -1  -6  -3 1172.28   87.79
   6  -3   1 1247.08   94.69
  -3  -6   1 1115.69   92.19
  -3  -6   1 1197.88   75.09
  -3   6  -1 1161.58   77.29
  -3   6  -1 1174.08   85.69
   3  -6  -1 1243.38   86.39
   3   1  -6 1284.67   87.29
   6   3   2   34.00   17.70
  -6  -2  -3   57.99   13.30
   6   2  -3   49.20   13.50
  -2  -3  -6   18.70   13.40
  -3  -2   6   35.40   13.10
   6  -2   3    2.20   13.50
  -3  -2   6   37.20   16.70
  -6   2   3   35.90   17.90
  -3  -6  -2   36.90   18.00
  -3  -6  -2   21.80   11.30
  -3  -6  -2   41.80   15.50
  -6  -2  -3   26.90   12.70
  -2  -6   3   65.99   24.40
  -2   6  -3   25.50   14.70
   2  -6  -3   12.00   13.30
  -3   6   2   47.40   14.70
   3   2   6    9.50    9.40
  -2   3   6   79.79   24.60
   6  -3  -2   14.80    9.60
   2  -3   6   33.00   17.00
  -6  -3   2   20.70   17.10
  -6  -3   2   35.00   16.20
  -6   3  -2   19.80   10.50
  -6   3  -2   22.00   10.00
   3  -6   2   24.80   18.10
   3   6  -2   31.20   13.90
   3  -2  -6   15.70   14.80
   2  -6  -3   19.00   13.60
   2   6   3   22.30   11.50
  -3   2  -6   25.00   13.00
  -3   2  -6   22.00   13.30
   3  -2  -6   21.50   10.00
   6  -3  -2   46.30   20.40
   2   3  -6   20.80   12.90
  -2  -6  -3   53.29   19.60
   3  -6  -2    6.80   13.30
  -2   6   3   11.00   11.40
  -3   6  -2   52.49   17.90
  -6   2  -3   39.80   10.90
   2  -6   3   29.80   19.80
   2   6  -3   16.00   11.60
  -6  -3  -2   11.20   10.90
  -3   2   6    9.20   13.40
  -3  -2  -6   24.70   16.40
   3  -2   6   19.40   13.10
   3   2  -6   52.49   19.20
   6   2   3   14.10   14.70
  -3  -6   2   31.10    7.70
  -3   6  -2   25.20    9.80
   6  -3   2   44.00   20.40
   6   3  -2   28.70   11.40
  -3  -6   2   31.80   16.80
  -2   3  -6   36.60   15.20
  -6  -2   3   -1.00   10.70
  -6  -2   3    4.60   10.90
  -6   2  -3   24.30   14.30
   6  -2  -3   16.30   13.40
   6  -2  -3   32.90   11.20
   2  -3  -6    2.10   10.90
   3  -6  -2   27.50   12.80
  -6   3   2   38.30   16.20
  -3  -2  -6    3.50   11.30
  -2  -6  -3   16.60   12.50
   2   3   6    7.70   12.60
  -6  -3  -2   40.70   11.60
  -2  -3   6   10.50   12.40
  -2  -3   6   49.99   17.40
   6  -3   3 1020.00   88.89
   6  -3  -3 1067.09   86.39
  -6  -3  -3 1020.00   80.29
   6  -3  -3 1049.49   76.89
   3  -6  -3 1109.39   83.09
   3   6  -3 1203.68   84.49
   3   3  -6 1108.39   82.49
   3   3   6 1079.99   75.19
  -3  -3   6 1128.29   82.69
   3  -6   3 1082.59   93.29
   3  -3  -6 1083.29   84.59
   3  -3   6 1102.39   86.39
  -3  -3  -6 1167.08   85.69
   3  -6  -3 1149.48   86.89
  -3  -6  -3 1073.09   82.69
  -3  -6   3 1072.59   89.69
  -3  -3  -6 1021.20   82.09
  -6   3  -3 1052.69   80.69
  -6   3  -3 1096.69   74.49
  -6   3   3 1206.38   87.69
  -3  -6  -3 1094.59   84.89
  -3  -6  -3 1127.99   78.79
  -6  -3   3  988.30   79.89
  -3   3   6 1209.28   90.69
  -3   6  -3 1154.18   72.79
  -3   6  -3 1058.29   82.09
  -3   6   3 1221.98   83.69
  -6  -3  -3 1147.09   76.19
  -6  -3   3 1196.18   90.39
   6   3  -3 1144.79   76.49
   6   3   3 1021.70   85.59
  -3   3  -6 1131.59   83.09
  -3   3  -6  991.40   78.89
  -3  -3   6 1162.68   83.19
   0   4   6  449.95   44.40
  -4   0  -6  384.76   38.90
   4   0  -6  435.36   41.20
   4   0   6  410.76   39.10
   6  -4   0  373.46   45.30
   6   4   0  395.06   33.90
  -6   0  -4  409.36   39.60
  -6   0  -4  361.26   32.70
  -6   0   4  427.06   43.60
  -4  -6   0  359.66   43.70
  -4  -6   0  387.46   32.40
  -4   6   0  379.96   35.10
  -4   6   0  398.46   38.70
   0  -4  -6  390.76   43.10
   0  -4   6  434.06   43.00
   6   0  -4  411.56   36.50
   0  -4   6  410.26   38.90
   0   4  -6  428.06   41.40
   4   0  -6  352.96   34.80
   0   6  -4  422.86   42.10
   0   6   4  367.76   38.90
  -4   0   6  416.66   44.70
   4  -6   0  410.06   47.40
   4   6   0  412.66   39.60
   6   0  -4  374.56   41.40
  -4   0  -6  385.86   39.70
   6   0   4  330.57   41.00
   0  -6  -4  368.76   40.80
   0  -6   4  384.76   45.70
  -6   4   0  398.66   33.40
  -6   4   0  437.36   40.30
   0  -6  -4  445.06   39.70
  -6  -4   0  417.36   46.30
  -6  -4   0  477.65   38.60
  -1  -6   4  897.51   81.99
   6  -4  -1 1016.90   69.49
   1  -4   6  927.41   72.89
   4  -6   1 1032.10   86.39
   6   1  -4  956.50   71.09
  -1   6  -4 1019.10   78.39
   4   1   6 1004.30   74.09
  -6  -4   1  993.60   73.09
  -6  -1  -4 1051.99   69.99
   6   1  -4 1066.39   81.29
  -6  -1  -4  917.41   74.89
  -1   4   6 1001.20   80.69
  -4  -6  -1  920.71   80.39
  -4  -6  -1  992.00   70.09
   1  -6  -4 1064.99   76.29
   6  -1   4  958.90   81.69
   6   4   1 1033.90   70.49
   4   6  -1 1082.79   76.49
   1   6   4 1036.80   75.69
   4  -1  -6 1059.69   71.59
   1  -6  -4  991.90   79.19
  -6   1   4 1028.20   81.39
   1   4  -6  955.00   76.69
  -6  -4   1  899.61   82.19
  -1  -4  -6  999.60   80.39
  -6   4  -1 1017.50   75.39
  -6   4  -1  942.21   68.29
   4  -1  -6 1060.59   78.29
  -4   6   1 1027.20   73.39
   1  -4   6  985.30   80.09
  -4  -1   6  966.90   73.29
  -4  -1   6 1018.80   80.39
  -4   1  -6  983.60   75.99
  -4   1  -6 1148.49   78.19
   6  -4  -1 1035.80   84.29
  -6   4   1 1069.29   77.49
  -4  -1  -6  967.20   76.89
   4  -6  -1  999.50   74.89
   6  -1  -4 1042.60   78.79
  -6  -1   4 1078.49   80.09
  -6   1  -4  997.10   76.79
   1   6  -4 1046.20   78.79
  -4   1   6 1009.50   81.69
  -6  -4  -1  926.11   73.19
  -1  -4   6  905.81   72.79
  -1   4  -6  935.51   76.59
  -4   6  -1 1014.90   69.89
   6  -1  -4  963.90   71.29
  -4   6  -1 1097.19   76.29
   6  -4   1  969.70   85.09
   6   4  -1  949.11   69.59
   6   1   4  985.00   79.69
   1   4   6 1078.89   80.19
   4  -6  -1  966.20   82.59
  -4  -6   1  928.41   82.69
  -4  -6   1  993.00   67.19
   4  -1   6 1092.59   78.79
   4   6   1 1005.10   76.29
  -6   1  -4 1033.20   69.79
  -4  -1  -6  981.20   76.29
  -1  -4   6  961.10   77.69
  -1   6   4 1096.69   77.99
   1  -4  -6  985.70   80.29
  -6  -4  -1 1032.40   84.09
   1  -6   4  946.81   84.49
  -1  -6  -4  969.30   78.69
   4   1  -6 1101.29   77.69
  -1  -6  -4 1068.69   76.39
  -2   6  -4    9.80   13.00
   4   2   6   19.50   12.00
  -4   6   2    0.10   10.60
   6  -4  -2  -12.80    8.90
  -6  -4   2   20.10   17.30
  -6  -4   2   14.90   11.20
  -6   4  -2   17.90   11.50
  -4  -6  -2    1.60   13.20
  -4  -6  -2    2.40    8.70
  -4  -6  -2    4.10   10.40
  -6  -2  -4   -8.90    7.70
  -4  -2   6    0.90   10.70
  -4  -2   6    8.90   14.60
  -4   2  -6    3.90   10.80
  -4   2  -6    6.70   12.70
   4   6  -2   11.90   13.80
   6  -2   4   37.10   19.50
   2  -4   6   -5.00   13.80
  -2  -6   4   -4.50   13.60
   2  -4   6    5.30   10.50
  -6   4  -2    0.10    8.60
   2  -6  -4    1.90   12.20
   2  -6  -4   -5.00   10.50
   6   2  -4   -0.80   10.00
  -6  -2  -4   -3.40    9.00
   2   6   4   -0.50    9.80
   4  -2  -6   -1.90   10.40
   4  -2  -6    5.90   11.90
  -2   4   6    8.30   15.50
   2   4  -6    2.80   11.70
   6  -4  -2    3.90    8.40
   4  -6   2  -15.40   11.00
  -2  -4  -6    1.90   11.70
  -6   2   4   -8.40   11.20
   6   2   4    7.50   14.20
  -4   2   6   24.30   17.70
  -6  -2   4    4.40   10.40
  -4   6  -2   18.20   10.50
  -4   6  -2   15.70   12.90
  -2  -6  -4   -6.10    7.70
   4  -6  -2   -0.40   12.30
   4  -6  -2   -3.90    9.40
  -6  -4  -2   12.90    9.80
   4   2  -6   14.40   12.80
   6  -4   2   18.70   15.70
   6   4  -2   20.90   12.80
  -2  -6  -4  -15.20    9.60
   2  -6   4    4.00   15.00
  -6   4   2   13.90   13.30
  -4  -2  -6   -4.20   11.40
  -2   6   4    3.40   11.50
  -4  -6   2    6.40    7.60
  -6  -2   4   -2.30   12.40
  -2  -4   6   29.90   16.50
  -6  -4  -2   11.10   14.30
  -6  -4  -2  -11.00    9.10
   2   4   6   14.60   15.20
   2  -4  -6    1.40   11.40
   4  -2   6    0.30   11.70
  -4  -6   2   20.30   18.80
  -2   4  -6   10.30   13.80
   6  -2  -4   12.30   11.70
  -6   2  -4    0.30    9.70
  -4  -2  -6    6.80   14.60
   2   6  -4    8.40   12.90
  -2  -4   6    6.70   12.70
  -6   2  -4   -2.70    9.50
   6  -2  -4    0.50   13.10
  -6  -4   3  156.18   35.40
   3   4  -6  199.58   33.20
   4  -6   3  202.48   43.50
   4  -3  -6  145.09   30.60
  -4  -6  -3  203.58   39.90
  -4  -3   6  151.58   30.90
  -4  -3   6  256.67   38.10
  -4   3  -6  231.98   33.50
  -4   3  -6  183.38   32.10
  -3   6  -4  237.98   37.70
  -3   4   6   88.49   26.60
  -4  -6  -3  139.59   27.40
  -4  -6  -3  119.79   26.20
   4   6  -3  210.58   34.70
   3  -4   6   66.09   27.10
  -6   3   4  225.28   40.80
  -6  -3  -4  226.58   35.50
   6  -3   4  182.78   40.90
   6   3  -4  193.78   29.90
  -6   4  -3  170.68   30.10
  -3  -4  -6  201.38   35.90
   6  -4  -3  192.28   29.00
  -6  -4   3  148.99   26.70
   4   3   6  202.98   31.10
   6  -4  -3  155.28   35.00
   3  -6  -4  224.98   36.70
   3  -6  -4  248.08   39.60
   3   6   4  188.48   31.30
  -3  -6   4  251.87   45.90
  -4   6   3  146.99   30.20
  -6  -3  -4  185.58   28.20
  -6   4  -3  191.58   23.90
  -6  -4  -3  208.08   33.30
  -4   6  -3  184.08   21.50
  -3   4  -6  181.58   34.20
  -4   3   6  198.68   38.60
  -3  -4   6  119.79   26.10
  -4  -6   3  208.08   41.40
  -6  -3   4  187.38   33.20
   3  -6   4  143.49   36.50
  -3   4  -6  200.38   31.30
  -6  -4  -3  145.49   25.50
   4  -6  -3  154.08   35.00
  -6   3  -4  214.38   33.20
   6   3   4  273.17   41.90
  -6   4   3  156.08   33.00
   6   4  -3  207.58   30.20
   6  -3  -4  187.48   37.30
   6  -3  -4  184.58   23.50
  -3  -6  -4  194.78   35.10
  -3  -6  -4  202.78   36.80
  -4   6  -3  140.29   28.50
   3   4   6  167.48   32.20
  -3   6   4  171.28   33.10
   3   6  -4  170.18   31.00
   3  -4  -6  156.08   31.90
  -4  -3  -6  200.68   34.20
  -4  -3  -6  175.08   32.90
  -3  -4   6  199.38   35.00
  -6  -3   4  133.99   33.30
   4  -6  -3  194.48   32.70
  -6   3  -4  171.58   27.10
   6  -4   3  186.88   41.30
   4   3  -6  155.58   29.90
  -6  -4  -3  246.78   41.70
   4  -3   6  181.98   35.80
  -6  -4  -4  271.17   31.00
  -4  -4  -6  277.57   35.50
  -4   4  -6  282.67   32.00
   4   4   6  250.67   30.40
   4   6  -4  265.97   33.30
   6  -4  -4  294.37   36.60
   6  -4  -4  280.97   41.30
   6  -4   4  329.87   53.99
   6   4  -4  294.97   31.60
   6   4   4  276.07   36.90
   4  -6   4  352.66   58.79
  -4   4   6  285.97   47.90
  -4   6  -4  265.97   27.80
   4  -4  -6  245.68   40.20
  -4   4  -6  260.67   33.90
  -6  -4  -4  307.17   34.40
  -6   4  -4  235.58   30.90
  -4  -4   6  313.97   47.90
  -4  -4   6  237.18   31.10
  -4  -6  -4  271.77   43.70
  -4  -6  -4  268.77   31.70
  -4  -6   4  291.17   50.39
  -4  -4  -6  326.77   36.50
  -4   6  -4  323.57   35.70
   4  -4   6  293.47   49.90
   4   4  -6  223.88   36.70
  -4  -6  -4  227.58   38.70
   4  -6  -4  308.27   37.00
  -6  -4   4  333.47   41.90
  -6  -4   4  322.77   33.60
  -6   4  -4  309.47   31.10
   4  -6  -4  283.47   42.80
  -6   4   4  314.97   39.00
  -4   6   4  297.17   36.90
   0   5   6   12.20   13.00
   5   6   0    3.40   10.90
  -5  -6   0    4.20    7.60
   6   0  -5    3.00   11.20
   0  -5   6    8.90   14.90
   5  -6   0   -5.90   12.90
   5   0   6   -0.60   12.20
  -5   6   0    0.40   11.20
  -5   6   0   12.60   12.10
   0  -5  -6   12.60   14.60
  -6   0   5    8.60   14.50
  -5  -6   0   21.30   15.80
   0   6  -5    0.10   13.10
   6   0  -5   13.20   13.50
   6   0   5   10.20   14.00
  -6  -5   0   -2.40   15.40
  -6  -5   0    3.20    9.00
  -6   5   0   12.60   12.60
  -6   5   0   12.20   10.50
  -5   0  -6    0.30   10.10
  -5   0  -6   -1.30   11.20
  -5   0   6  -12.50   12.80
   0  -6  -5   -9.70   10.40
   0  -6  -5   -3.70   12.20
   0  -6   5   23.90   16.20
   0  -5   6  -16.30   11.00
   0   6   5   -4.60   13.00
   5   0  -6   10.10   12.80
   5   0  -6    5.00   11.90
  -6   0  -5   24.10   13.00
   6  -5   0   -5.00   14.40
   6   5   0   -2.90    9.10
  -6   0  -5   40.10   14.50
   0   5  -6    1.50   11.90
   1  -6  -5 1499.25  101.89
  -6  -5   1 1436.36   99.89
   5  -6   1 1594.94  118.79
   5   6  -1 1394.96  103.09
   5  -1  -6 1518.45  105.89
  -6  -1  -5 1531.85  107.49
  -6   5  -1 1423.96  102.79
  -1   5   6 1521.25  110.79
   1   6   5 1371.66  104.89
   1  -5   6 1546.95  113.59
   1  -6  -5 1322.07  108.19
  -5  -1   6 1441.06  103.69
   1   5  -6 1471.35  107.59
  -5   1  -6 1503.95  104.29
  -5  -6  -1 1470.25  113.59
   6  -1   5 1458.65  110.39
   6   1  -5 1512.85  108.69
   6   1  -5 1517.35  102.59
  -5   1  -6 1536.55  107.39
  -6  -1  -5 1525.75  101.29
  -1  -5  -6 1379.76  108.79
   1  -5   6 1370.46   99.79
  -6   1   5 1591.64  113.39
   5   1   6 1476.15  105.39
   6  -5  -1 1303.07  111.49
  -5  -1   6 1579.94  111.09
   5  -1  -6 1500.85  102.39
   6   5   1 1470.65  100.69
  -5   6   1 1544.75  104.19
  -6   5  -1 1476.25   99.39
  -6  -5   1 1395.86  113.49
  -1  -6   5 1458.85  113.69
  -1   6  -5 1507.75  108.19
  -5  -6  -1 1408.76   99.09
  -5   1   6 1612.64  114.19
   5  -1   6 1527.45  109.79
   6  -1  -5 1470.35  102.89
  -6   1  -5 1535.35  106.19
  -1   6   5 1516.55  108.19
   6   5  -1 1512.25  101.09
  -5   6  -1 1517.45  100.79
  -5   6  -1 1423.46  102.19
   1  -6   5 1432.06  114.59
  -6  -1   5 1519.65  110.49
  -1  -5   6 1528.55  111.49
  -1  -5   6 1317.17   99.09
   5   1  -6 1559.24  105.89
  -6   5   1 1432.66  104.39
   1  -5  -6 1538.95  111.09
  -6   1  -5 1474.25  100.49
  -6  -5  -1 1586.94  116.09
  -6  -5  -1 1627.24  103.69
   1   6  -5 1314.77  105.89
  -1  -6  -5 1515.75  110.49
   6   1   5 1514.55  107.99
   6  -1  -5 1403.66  104.99
  -5  -1  -6 1452.75  103.99
   5   6   1 1349.47  102.79
   6  -5   1 1519.15  117.09
  -5  -1  -6 1490.85  107.29
   1   5   6 1366.86  106.39
   5  -6  -1 1348.17  112.89
  -1   5  -6 1629.64  109.49
  -6   5   1 1440.66   99.89
  -5  -6   1 1583.54   98.19
  -1  -6  -5 1559.24  102.49
  -5  -6   1 1350.26  111.89
   6   2  -5  126.49   25.20
   5  -2  -6  124.09   24.40
   5  -2  -6   72.39   22.80
   5   6  -2  135.69   26.60
   6  -2   5   94.99   30.20
  -5  -6  -2  160.88   27.00
  -6   5  -2  115.09   23.70
  -6   2   5  122.39   32.80
  -5  -6  -2  110.49   29.30
  -5   2  -6   60.79   21.30
  -5   2  -6   88.89   22.50
  -2   5   6  114.69   30.00
   6  -5  -2  121.79   23.00
   2  -5   6   94.89   28.50
   2  -5   6  117.29   22.90
   2   5  -6  149.59   30.30
  -5  -2   6   96.09   27.50
   2   6   5  167.48   29.40
  -5  -6  -2  183.68   31.20
  -5   6   2  150.18   30.30
  -6   5  -2   67.69   18.80
  -6  -2  -5  108.19   26.40
   6  -5  -2  101.09   29.00
   2  -6  -5  154.38   27.90
   2  -6  -5   84.39   25.70
   5  -6   2  140.69   38.20
  -6  -2  -5  106.19   23.50
  -2   6  -5  136.49   29.30
   5   2   6  140.09   26.70
  -6  -5   2  134.59   34.10
  -6  -5   2   84.99   19.90
  -2  -5  -6  121.59   29.40
  -5  -2   6   93.09   24.70
  -2  -6   5  191.68   37.50
  -5  -2  -6  183.28   31.70
  -5   6  -2   99.29   23.00
  -6  -2   5  145.39   30.90
  -6  -5  -2   93.79   21.80
  -6  -5  -2   50.89   17.80
  -5  -2  -6  138.39   28.00
   2  -5  -6  148.69   31.80
   6  -5   2  149.19   38.80
   6   5  -2  105.19   22.50
  -6   5   2  161.98   31.00
   5   2  -6   84.59   23.00
  -5  -6   2  144.99   22.10
  -6   2  -5   95.39   24.20
  -6  -5  -2   77.89   28.40
  -5  -6   2  165.98   36.40
  -5   6  -2  125.09   22.80
  -2  -5   6  109.59   27.00
  -2  -5   6  106.09   22.60
  -2   5  -6  179.98   34.60
  -5   2   6  120.49   32.00
  -2  -6  -5  140.49   26.90
  -2  -6  -5   99.09   28.10
   2   5   6  147.79   30.80
  -6  -2   5   98.09   26.30
  -2   6   5   46.60   18.00
   5  -6  -2   70.69   28.10
   5  -6  -2   99.29   23.70
   2  -6   5   57.19   24.00
   2   6  -5  130.59   29.10
   6  -2  -5  129.29   29.20
   6  -2  -5  111.09   24.70
   6   2   5  112.49   27.50
   5  -2   6  107.89   27.90
  -6   2  -5  118.09   23.20
   5   3   6   -1.90   12.00
   6  -5  -3   -0.80   10.50
  -3   5   6    5.10   15.40
  -6  -5   3   -1.10   13.90
   6  -5  -3   29.20   19.20
  -5  -3   6   15.00   15.10
  -5  -6  -3    2.50   14.90
   3  -6  -5   -0.10   13.50
   3  -6  -5   -6.90   10.50
   6   3  -5    4.70   11.10
  -6   5  -3   11.80   12.20
   3  -5   6  -16.50   15.80
  -5   3  -6    4.80   12.90
  -5   3  -6   -6.70   11.10
  -3  -5  -6   -1.10   13.00
  -5  -6  -3    8.10   13.10
   5  -6   3   16.60   18.20
  -3  -6   5   15.00   16.50
  -3   6  -5   12.50   13.80
  -6  -3  -5   -8.60   10.20
   6  -3   5   51.19   20.90
  -6  -5   3   18.80   12.40
  -6   5  -3  -12.90   10.80
   3   6   5   -9.90   10.20
   5  -3  -6    2.80   13.40
   5  -3  -6    4.30   12.00
  -5   6   3    4.10   12.90
  -5  -3   6   -7.40   13.20
   3   5  -6    1.50   12.80
  -6  -3  -5   15.50   15.20
   5   6  -3   -7.30   10.90
  -5  -6  -3    3.80   11.40
  -6   3   5   -2.60   13.00
  -6   3  -5   -4.90    9.80
  -6  -5  -3   -4.90   10.00
  -6  -3   5   34.80   19.30
  -3   6   5   -0.10   14.70
  -6  -3   5    6.80   14.70
  -3  -6  -5   12.80   13.50
   5   3  -6   14.20   13.30
  -5  -6   3   22.50   16.10
  -5   6  -3    5.00    8.60
  -5   6  -3    1.20   11.90
  -5  -3  -6    8.40   14.40
  -5   3   6   -4.30   15.30
  -3  -5   6   -2.90   13.00
  -3  -5   6    1.40   12.50
  -3   5  -6   23.00   13.40
  -3   5  -6   16.60   15.70
   6  -5   3   24.20   21.20
   3  -5  -6    8.80   12.80
  -6  -5  -3   -3.90    9.80
  -5  -6   3   -5.80   15.10
   3   5   6   17.60   13.50
   5  -6  -3  -12.50   14.60
   5  -6  -3   -6.20    8.70
  -3  -6  -5    9.00   13.60
  -6   3  -5    3.90   10.70
   6  -3  -5   10.50   16.00
   6  -3  -5   -4.00   10.40
   6   5  -3    5.40   11.70
   3  -6   5   16.70   20.60
   6   3   5   12.40   15.20
   3   6  -5   -4.70   11.20
  -6   5   3   25.60   15.40
  -5  -3  -6    0.60   12.70
   5  -3   6   11.60   15.60
  -6  -5  -3    0.50   15.20
  -6  -5   4  575.84   58.99
  -6  -4  -5  569.04   53.19
  -6  -4  -5  609.64   51.49
  -6   5  -4  623.84   49.70
  -5  -4   6  559.74   51.39
  -5   4  -6  525.75   49.70
  -5   4  -6  543.25   50.69
  -6   4   5  549.25   57.79
  -5  -6  -4  465.35   53.19
  -5  -6  -4  512.25   49.20
  -5  -6  -4  455.95   48.80
  -4  -6   5  509.45   57.19
  -4   6  -5  500.95   50.39
  -5  -4   6  518.85   55.39
  -5   6   4  563.44   54.89
  -4  -5  -6  526.75   50.99
  -4  -5  -6  470.95   51.99
   5   6  -4  577.84   51.39
   4  -6  -5  525.35   51.29
   4  -6  -5  544.95   54.29
  -6  -5   4  533.25   47.50
  -4   5   6  601.74   57.69
   5  -4  -6  485.05   51.59
   4  -5   6  601.74   60.59
   4   5  -6  579.34   52.89
   5   4   6  595.64   51.39
   6  -5  -4  521.45   55.09
   5  -6   4  599.04   63.59
   6   4  -5  634.44   51.09
   6  -5  -4  558.14   50.69
  -6   5  -4  537.05   48.60
   6  -4   5  515.35   58.09
  -4  -5   6  620.94   57.89
   6  -4  -5  485.25   51.39
  -6  -5  -4  512.15   50.59
  -6  -5  -4  531.45   48.70
   6   4   5  601.54   55.09
  -4   5  -6  613.74   53.79
   6  -4  -5  473.35   48.90
  -6  -4   5  512.65   57.29
  -6   5   4  499.75   53.99
  -5  -4  -6  587.14   54.09
  -5  -4  -6  539.85   52.49
  -5   6  -4  583.24   51.29
  -6  -4   5  521.05   50.29
  -6   4  -5  474.95   48.00
  -6   4  -5  511.15   48.00
  -5   4   6  597.54   59.29
  -4  -6  -5  580.74   53.69
  -4  -6  -5  589.54   51.69
  -4  -6  -5  506.25   52.29
  -5  -6   4  509.65   57.49
  -5   6  -4  618.24   47.20
  -4   6   5  564.84   54.99
  -4  -5   6  512.45   47.00
  -4   5  -6  438.06   45.20
   4  -6   5  648.24   64.79
   4   6  -5  513.45   51.09
   4  -5  -6  508.85   52.89
   5  -4   6  521.55   57.59
   5   4  -6  493.85   49.50
   5  -6  -4  525.75   54.59
   5  -6  -4  608.14   53.29
  -6  -5  -4  550.44   56.39
   6  -5   4  644.14   63.99
   6   5  -4  587.64   50.59
  -6  -5  -5 2686.03  183.78
  -6  -5  -5 2681.73  181.68
  -6  -5   5 2985.10  194.88
  -6  -5   5 2670.03  178.68
  -6   5  -5 2856.71  180.58
  -6   5  -5 2717.83  179.98
  -6   5   5 2729.33  190.38
  -5  -6  -5 2764.42  187.18
  -5  -6  -5 2701.43  182.98
  -5  -6  -5 2665.63  184.08
  -5  -6   5 2675.43  192.58
  -5  -5  -6 2689.73  184.48
  -5  -5  -6 2820.62  186.58
  -5  -5   6 2755.52  190.18
  -5  -5   6 2517.25  178.08
  -5   5  -6 2865.01  180.98
  -5   5  -6 2769.72  183.38
  -5   5   6 2641.34  189.58
  -5   6  -5 2592.24  181.78
  -5   6   5 2740.43  188.08
   5  -6  -5 2983.00  186.98
   5  -6  -5 2778.32  186.08
   5  -6   5 2653.93  196.58
   5  -5  -6 3021.90  188.78
   5  -5   6 2698.83  194.28
   5   5  -6 2890.01  184.68
   5   6  -5 2793.22  184.08
   6  -5  -5 2881.01  187.28
   6  -5  -5 2720.43  183.58
   6  -5   5 2782.62  197.68
   6   5  -5 2776.72  181.58
   6   5   5 2763.12  187.48
  -6  -6   0  391.16   48.70
  -6  -6   0  400.96   36.00
  -6   0  -6  352.86   40.30
  -6   0  -6  364.76   37.90
  -6   0   6  345.97   44.00
  -6   6   0  339.07   37.80
  -6   6   0  355.26   36.60
   0  -6  -6  312.77   42.00
   0  -6   6  342.97   44.80
   0   6  -6  330.87   41.50
   0   6   6  394.16   53.99
   6  -6   0  416.86   63.29
   6   0  -6  350.16   39.20
   6   0  -6  349.37   38.90
   6   0   6  410.36   44.80
   6   6   0  351.26   36.80
  -6  -6  -1    7.40   19.50
  -6  -6  -1   -2.90    8.90
  -6  -6   1   11.70   16.60
  -6  -6   1  -14.60    9.60
  -6  -1  -6   -5.60   10.30
  -6  -1  -6   -5.00   13.90
  -6  -1   6   21.90   18.40
  -6   1  -6   -5.50    9.00
  -6   1  -6   -0.30   11.20
  -6   1   6  -29.40    9.30
  -6   6  -1    3.70   10.90
  -6   6  -1   -0.50   11.30
  -6   6   1   -5.60   12.30
  -6   6   1    7.40   11.50
  -1  -6  -6    2.20   14.70
  -1  -6   6    6.00   16.00
  -1   6  -6  -10.10   13.90
  -1   6   6  -13.50   15.00
   1  -6  -6    6.20   14.10
   1  -6   6   15.40   18.20
   1   6  -6  -16.10   12.40
   1   6   6    8.90   12.90
   6  -6  -1   -0.10   16.40
   6  -6   1    3.00   15.00
   6  -1  -6    9.30   12.90
   6  -1  -6    1.70   12.10
   6  -1   6   17.10   15.80
   6   1  -6    3.70   12.40
   6   1  -6    9.20   12.30
   6   1   6   15.30   14.80
   6   6  -1   -2.90   10.70
   6   6   1   -2.80   10.70
  -6  -6  -2 2124.29  150.78
  -6  -6  -2 2045.00  136.19
  -6  -6   2 2200.88  153.48
  -6  -6   2 2019.20  132.09
  -6  -2  -6 1908.91  141.39
  -6  -2  -6 1964.50  136.89
  -6  -2   6 2118.79  143.19
  -6  -2   6 1839.72  141.99
  -6   2  -6 1995.10  140.19
  -6   2  -6 1908.11  135.69
  -6   2   6 1944.11  146.29
  -6   6  -2 2228.48  136.59
  -6   6  -2 2014.60  135.49
  -6   6   2 2162.88  142.19
  -2  -6  -6 1908.91  144.39
  -2  -6   6 1911.81  145.89
  -2   6  -6 2052.19  142.99
  -2   6   6 2061.59  145.29
   2  -6  -6 2134.39  146.99
   2  -6   6 2063.19  149.79
   2   6  -6 1977.70  142.39
   2   6   6 1933.31  140.09
   6  -6  -2 2097.89  149.88
   6  -6  -2 2062.39  136.89
   6  -6   2 1878.61  151.38
   6  -2  -6 1848.12  136.19
   6  -2  -6 2118.59  139.99
   6  -2   6 2107.19  147.49
   6   2  -6 2105.89  137.89
   6   2   6 2162.98  141.39
   6   6  -2 2000.70  136.69
   6   6   2 2052.39  137.19
  -6  -6  -3  -14.10   12.00
  -6  -6  -3    5.90   12.30
  -6  -6  -3   -0.80   11.60
  -6  -6   3   -7.40   16.00
  -6  -6   3    6.40   12.10
  -6  -3  -6    9.30   13.90
  -6  -3  -6   17.90   14.20
  -6  -3   6    2.60   13.80
  -6  -3   6   23.30   17.20
  -6   3  -6   -1.30   10.00
  -6   3  -6  -11.10   12.00
  -6   3   6    3.30   16.10
  -6   6  -3  -12.30   11.60
  -6   6  -3   -6.70   11.70
  -6   6   3    0.50   14.80
  -3  -6  -6  -19.00   11.30
  -3  -6   6    1.20   13.80
  -3   6  -6   10.90   12.70
  -3   6   6   21.50   17.30
   3  -6  -6   -6.20   14.50
   3  -6   6   -2.80   17.00
   3   6  -6   10.30   15.10
   3   6   6   -7.60   11.00
   6  -6  -3   31.70   20.10
   6  -6  -3   -3.80   11.50
   6  -6   3  -11.10   14.20
   6  -3  -6   -4.30   15.00
   6  -3  -6   12.10   14.90
   6  -3   6    3.50   16.70
   6   3  -6   -4.60   12.30
   6   3   6    4.90   14.30
   6   6  -3  -11.70   11.80
  -6  -6  -4  184.58   40.90
  -6  -6  -4  278.47   41.10
  -6  -6  -4  225.78   38.10
  -6  -6   4  212.18   48.70
  -6  -4  -6  224.28   38.50
  -6  -4  -6  228.78   38.70
  -6  -4   6  236.08   45.60
  -6  -4   6  222.78   38.70
  -6   4  -6  232.88   37.20
  -6   4  -6  215.68   35.40
  -6   4   6  219.28   45.50
  -6   6  -4  263.47   37.20
  -6   6  -4  194.78   34.30
  -6   6   4  243.48   43.20
  -4  -6  -6  259.57   44.10
  -4  -6   6  188.28   42.80
  -4   6  -6  228.78   38.50
  -4   6   6  185.28   39.00
   4  -6  -6  197.88   40.60
   4  -6   6  228.78   49.99
   4   6  -6  237.08   39.50
   4   6   6  292.77   43.30
   6  -6  -4  233.18   43.10
   6  -6  -4  260.97   39.40
   6  -6   4  192.48   46.60
   6  -4  -6  144.79   32.90
   6  -4   6  210.88   46.40
   6   4  -6  253.17   31.90
   6   4   6  215.28   37.80
   6   6  -4  221.28   35.60
  -6  -6  -5   10.40   20.10
  -6  -6  -5   14.50   15.90
  -6  -6  -5    5.60   15.70
  -6  -6   5   -4.00   18.50
  -6  -5  -6    4.50   16.30
  -6  -5  -6    4.80   14.50
  -6  -5   6    0.40   14.60
  -6  -5   6   -8.10   15.30
  -6   5  -6   -3.40   11.70
  -6   5  -6    9.10   16.20
  -6   5   6   -9.30   13.40
  -6   6  -5    5.70   10.80
  -6   6  -5  -10.70   13.10
  -6   6   5    5.90   16.40
  -5  -6  -6   28.70   20.10
  -5  -6  -6   -3.40   16.30
  -5  -6   6    4.70   18.30
  -5   6  -6   -3.70   14.20
  -5   6   6   -0.20   16.60
   5  -6  -6   15.00   18.20
   5  -6   6    3.90   18.10
   5   6  -6  -12.60   12.70
   6  -6  -5    3.40   19.70
   6  -6  -5   16.10   18.30
   6  -6   5   11.40   20.80
   6  -5  -6    4.50   14.40
   6  -5   6   22.00   22.30
   6   5  -6   -9.20   11.70
   6   5   6    9.50   14.70
   6   6  -5   12.10   14.30
  -6  -6  -6  480.85   51.19
  -6  -6  -6  448.96   50.29
  -6  -6   6  398.56   55.39
  -6   6  -6  409.16   47.30
  -6   6   6  495.75   54.99
   6  -6  -6  519.65   53.19
   6  -6   6  443.96   58.79
   6   6  -6  411.26   47.30
  -7   0   0   -4.10    9.00
   0  -7   0   -3.20   10.10
   0   0  -7   -9.20    9.50
   0   0   7    4.60   12.10
   0   7   0   -2.60    9.10
   7   0   0    0.60   14.00
  -7   0  -1   97.39   24.20
  -7   0   1   77.69   21.20
  -1  -7   0  116.39   31.20
  -1   7   0  147.19   28.80
   0  -1  -7   52.59   20.70
   0  -1   7  107.59   18.10
   0  -1   7   68.09   20.80
   0   1  -7   87.29   24.00
   0   1   7   80.19   22.20
   1  -7   0   80.59   28.30
   1   7   0  103.59   25.20
   7   0  -1  155.68   34.00
   7   0   1  112.29   29.30
   1   0  -7   72.59   21.10
   1   0   7  120.29   26.40
   7  -1   0  107.39   29.00
   7   1   0  163.38   34.20
  -7  -1   0   79.59   19.90
  -7   1   0  164.48   29.30
  -1   0  -7  136.79   29.30
  -1   0   7  102.19   27.20
   0  -7  -1  126.59   29.80
   0  -7  -1  140.49   27.50
   0  -7   1   98.29   29.10
   0   7  -1  129.39   27.80
   0   7   1  120.89   18.00
  -1  -7  -1    7.70   11.50
  -1  -7   1   28.30   18.70
  -1  -1  -7   11.30   15.30
  -1  -1   7    1.60    8.20
   1   7  -1   -2.40   11.70
   1   7   1    5.60    8.50
   7  -1  -1   14.50   14.00
   7  -1   1   15.30   16.00
   7   1  -1    6.10   11.30
   7   1   1  -14.70    8.10
  -1   1   7    6.70   17.50
  -1   7  -1  -15.80   10.70
  -1   7   1    1.40    8.60
   1  -7  -1    0.50   12.60
   1  -7  -1  -10.90    9.50
   1  -7   1   -2.30   12.90
   1  -1  -7   17.80   15.70
   1  -1   7   -8.60    7.70
   1  -1   7   -5.30   12.80
   1   1  -7    2.70   11.30
   1   1   7  -12.60   10.20
  -7  -1  -1    8.50   10.80
  -7  -1   1   12.50   12.40
  -7   1  -1    7.50   11.50
  -7   1   1   -9.50    9.70
  -1  -7  -1    3.00   14.40
  -1   1  -7    5.60   11.10
  -1  -1   7   26.70   17.60
   0  -2   7  422.76   37.70
   0  -2   7  358.46   41.70
   0   2  -7  368.66   40.90
   0  -2  -7  450.65   45.60
  -7   0  -2  400.26   40.60
   2   7   0  374.16   41.40
   7   0  -2  432.86   45.50
   7   0   2  347.47   43.80
  -2   7   0  418.16   42.00
   2   0  -7  380.16   42.60
   0   2   7  436.36   45.70
   2  -7   0  361.86   45.40
  -7   0   2  408.76   42.50
  -2  -7   0  480.35   49.70
  -2   7   0  392.76   32.20
   2   0   7  390.26   42.20
   7  -2   0  495.45   49.40
  -7  -2   0  448.36   41.30
  -7   2   0  439.36   42.20
  -2   0  -7  413.76   43.10
  -2   0   7  531.65   48.80
   0  -7  -2  434.46   45.90
   0  -7  -2  428.56   42.50
   0  -7   2  451.05   49.99
   0   7  -2  454.05   44.10
   0   7   2  495.25   38.20
   7   2   0  475.65   48.70
   2   0   7  392.56   35.00
  -2   1  -7  806.22   65.69
  -2  -7  -1  889.11   70.69
  -2  -7  -1  739.23   63.19
  -1  -2  -7  768.62   66.19
  -7  -2   1  831.42   63.59
   7  -2  -1  796.82   69.09
   1  -2   7  709.23   62.59
  -7  -1  -2  890.31   65.29
  -2  -1   7  741.43   55.09
  -2  -1   7  632.44   63.89
   7   1  -2  780.42   68.49
   1   2  -7  890.71   66.09
   1  -7  -2  839.62   69.19
   7  -1   2  837.82   70.69
  -1  -7   2  822.92   72.69
   2  -7   1  772.42   71.39
   2   7  -1  843.02   64.89
   2  -1  -7  798.82   66.39
  -7   2  -1  775.22   62.99
  -2   7   1  706.43   54.99
  -1   2   7  863.41   69.99
   7   2   1  647.64   66.09
   1  -2   7  807.42   60.49
   2   1   7  598.14   61.59
  -1   7  -2  790.42   64.69
   1   7   2  716.53   56.09
   1  -7  -2  733.83   63.19
  -7   1   2  732.03   63.49
   2  -1   7  730.73   62.89
   1   2   7  800.02   66.59
   2   7   1  761.52   53.69
   7  -1  -2  791.02   67.69
  -1  -7  -2  777.82   64.29
  -7  -2  -1  731.53   61.29
   2  -1   7  798.72   59.49
  -2  -7   1  685.13   68.29
   7  -2   1  703.33   68.29
  -2  -1  -7  716.03   64.39
   2   1  -7  841.42   65.89
  -1  -2   7  761.12   57.39
  -1  -2   7  783.42   65.99
  -2   1   7  700.93   66.39
  -1  -7  -2  772.22   67.19
   2  -7  -1  730.33   67.79
   2  -7  -1  830.72   64.49
  -1   2  -7  783.42   63.89
  -1   7   2  789.72   57.79
  -7  -1   2  792.52   63.99
  -7   1  -2  760.32   62.69
   1  -7   2  749.73   72.19
   1   7  -2  716.93   63.29
   7   1   2  774.02   68.49
   1  -2  -7  846.02   67.89
  -2   7  -1  727.43   62.79
  -7   2   1  772.42   63.99
   7   2  -1  664.43   66.69
   2  -2  -7   28.60   16.90
   2  -2   7   -7.00   10.50
   2  -2   7   -2.80   10.50
   2  -7   2    9.90   17.10
  -2   7   2   13.80   12.30
  -7  -2  -2    0.70   10.10
  -7  -2   2   -2.40   11.00
  -7   2  -2   -4.30   10.10
  -7   2   2   -1.50   11.20
  -2  -7  -2   22.10   17.30
   2  -7  -2    3.80   13.80
   2  -7  -2   24.70   14.40
  -2  -2  -7    5.00   13.30
  -2  -2   7   11.50   11.00
  -2  -2   7   18.20   13.60
  -2   2  -7   10.60   16.30
  -2   2   7   27.70   19.40
  -2   7  -2   18.70   15.10
   2   2   7   14.20   14.70
   2   7  -2    1.90   12.70
   2   7   2    9.40    9.90
   7  -2  -2   -5.80   11.20
   7  -2   2   -7.50   11.30
   7   2  -2  -19.40   10.10
   7   2   2   -7.60   10.80
  -2  -7  -2   -1.50    9.30
  -2  -7   2    8.40   15.20
   2   2  -7    5.80   12.00
   3   0  -7  477.25   45.80
   7  -3   0  450.15   50.49
  -3   0  -7  440.16   44.50
  -3   0   7  447.36   48.70
   0  -7  -3  443.66   46.10
   0   7  -3  389.66   43.30
   0   7   3  388.66   39.50
  -7   0  -3  432.06   43.10
  -7   0   3  435.56   45.50
  -3  -7   0  451.75   49.99
  -3   7   0  432.46   34.70
  -3   7   0  337.77   40.40
   0  -3  -7  377.56   45.30
   0  -3   7  448.86   41.80
   0  -3   7  485.95   45.20
   0   3  -7  410.86   42.80
   0   3   7  452.05   47.10
   3   0   7  420.06   38.20
   3   7   0  447.36   44.50
   7   0  -3  456.75   46.60
   7   0   3  393.06   46.00
  -7  -3   0  473.55   42.30
   0  -7  -3  387.16   43.00
   0  -7   3  439.26   51.09
  -7   3   0  431.76   43.00
  -3   0  -7  453.35   43.70
   3  -7   0  375.56   48.70
  -7  -3   0  410.96   47.80
  -7  -1  -3   43.90   16.10
   1  -7  -3   82.29   25.10
  -3  -1   7  159.18   32.60
   1   7   3  132.19   25.70
   1  -3   7  131.69   27.50
  -1   3   7  107.09   28.20
  -1   7  -3  114.29   26.10
   1  -7  -3   72.19   22.30
  -3  -7  -1   86.69   17.60
   1  -3   7   95.99   25.00
  -3   7   1  126.59   22.50
  -1  -3  -7  105.59   29.10
  -3   1  -7   84.39   21.00
  -3   1  -7   73.29   22.30
   7  -1   3  150.88   34.00
  -7  -3   1   85.59   27.40
  -7  -3   1   66.99   20.60
  -7   3  -1   87.49   23.20
  -1  -7   3   77.59   27.50
  -7   1   3  118.39   30.50
   3  -7   1   47.60   23.90
  -3  -1   7  137.29   23.10
   3  -1  -7   78.09   23.20
   3   7  -1   87.09   24.00
   7  -3  -1  117.49   33.80
   7   1  -3  125.69   31.00
  -3  -7  -1   82.29   26.30
   1   3  -7  100.29   25.90
   7   3   1  135.29   34.80
  -1  -3   7   97.19   26.60
  -1   7   3   58.59   19.20
   1   7  -3   93.99   24.20
  -3  -1  -7  135.69   27.40
  -3  -1  -7  153.18   33.20
  -1  -3   7  167.08   27.90
   3   7   1   88.09   24.70
   7  -1  -3  102.09   27.10
  -7  -3  -1  143.59   27.60
  -1   3  -7  126.69   27.20
  -1  -7  -3  156.58   31.80
   1  -7   3  177.98   39.60
  -7   3   1   75.89   22.10
   1  -3  -7  102.89   26.70
  -7  -1   3  118.39   27.70
  -1  -7  -3   94.79   23.70
  -3   7  -1  134.79   29.10
   3  -1   7   89.39   21.30
   1   3   7   89.99   25.90
   3  -7  -1  106.09   30.90
   3  -7  -1  105.59   26.00
   3   1  -7  123.19   30.10
  -3   1   7   28.80   17.10
   7  -3   1  138.59   32.90
   7   1   3  113.39   29.50
  -7   1  -3  130.59   27.30
  -3  -7   1  104.59   29.10
   3   7  -2  742.13   63.69
  -2  -3  -7  834.82   67.89
   2  -7  -3  764.22   64.59
   2  -3   7  653.93   61.79
   2  -3   7  729.63   61.59
  -3  -2   7  774.02   66.19
  -3   2  -7  716.93   61.29
  -7  -3   2  746.93   69.39
  -7  -3   2  860.71   63.39
  -7   3  -2  700.13   60.99
   7   3   2  799.32   70.39
  -2   3   7  694.23   66.69
  -2   7  -3  714.93   63.69
   3  -7   2  788.32   74.69
   2  -7  -3  799.72   66.49
   2   3  -7  765.02   63.69
   7  -2   3  816.22   72.19
   7   2  -3  738.93   68.89
   2   7   3  832.02   59.49
   3  -2  -7  806.22   66.59
  -3  -7  -2  775.92   68.69
  -2  -7   3  689.03   69.79
  -3  -2   7  724.23   58.89
  -3   7   2  815.52   60.59
  -3  -7  -2  679.43   62.29
  -3   2  -7  864.61   65.39
   7  -3  -2  688.13   67.39
   7   2  -3  681.13   53.69
  -7   2   3  755.62   66.39
  -7  -2  -3  761.02   63.39
   3  -7  -2  763.12   68.79
  -2   3  -7  806.32   64.99
  -3  -2  -7  746.83   65.49
  -2  -7  -3  741.53   63.99
  -7  -2   3  706.63   62.29
  -7   2  -3  672.03   61.39
   2   7  -3  829.52   66.19
  -7   3   2  816.22   66.19
   7  -2  -3  723.53   65.79
  -3  -7   2  686.53   69.39
  -3   7  -2  785.32   64.79
   2  -3  -7  671.43   64.69
   2  -7   3  727.93   71.19
  -2  -3   7  681.93   62.89
   7  -3   2  729.73   70.09
   2   3   7  749.92   64.49
  -7  -3  -2  857.91   64.19
  -2  -3   7  703.03   60.19
  -3   2   7  847.82   71.49
  -2  -7  -3  699.43   64.29
   7   3  -2  779.52   56.29
   7   2   3  697.63   65.79
   3  -7  -2  781.42   63.29
  -2   7   3  740.53   60.09
   3  -2   7  703.83   62.29
   3   2  -7  690.93   62.69
  -3  -7  -3   17.90   16.30
  -3  -7  -3   -8.20   10.50
   3   7   3    3.90   11.30
   7  -3  -3   -6.80   14.80
  -7  -3  -3    3.70   11.40
  -3  -7   3    2.90   14.70
  -3  -3  -7   -1.30   11.60
  -3  -3   7   -8.30   11.60
   7   3   3   -2.20   11.60
   7  -3   3  -10.60   13.30
   7   3  -3   -3.00    9.10
   3  -7   3    8.30   19.60
   3  -3  -7   -3.30   14.30
  -7  -3   3   -5.20   12.10
  -7  -3   3    6.60   11.60
  -7   3  -3    8.90   13.60
  -7   3   3    7.30   14.80
   3  -3   7    4.50   14.90
   3   3  -7  -10.10    9.80
   3   3   7   -9.10   11.80
  -3  -3   7   12.60   18.50
  -3   3  -7    5.80   10.90
  -3   3  -7   -1.50   12.70
  -3   3   7   -9.80   11.90
  -3   7  -3   -3.40   12.20
  -3   7   3   -4.60   12.30
   3  -7  -3   -0.90   14.20
   3  -7  -3    3.80    9.90
   3   7  -3    9.40   12.80
  -7   0  -4    7.30   13.00
   0   7  -4   46.60   20.60
   0   7   4   14.60   14.90
   4   0  -7   24.80   15.60
  -7   0   4   28.50   19.40
   4   0  -7   41.00   17.20
   4   0   7   47.40   17.30
   7  -4   0   18.20   14.80
  -7   4   0   37.60   18.20
  -4   0  -7   33.00   16.70
  -4   0  -7   48.60   21.40
  -4   0   7   69.49   26.90
  -4  -7   0    4.20   15.20
  -4   7   0   36.90   12.40
  -4   7   0   -1.90   11.40
   0  -4  -7   29.60   17.90
   0  -4   7   42.00   18.40
   0  -4   7   22.90   19.20
   0   4  -7   41.20   17.30
   0   4   7   17.50   16.80
   4  -7   0   50.09   23.90
   4   7   0   14.30   13.10
   7   0  -4   31.80   18.50
   7   0  -4   42.00   14.60
   7   0   4    9.80   16.00
   0  -7  -4   17.00   15.60
   0  -7   4   31.90   21.70
   0  -7  -4   22.50   15.60
  -7  -4   0   46.30   16.60
  -7  -4   0   45.20   22.40
   1   4  -7   11.30   13.40
  -7   1   4   21.00   18.70
  -4  -7  -1    6.70   17.40
  -4  -7  -1   -6.00    7.60
  -4   1  -7   -2.60   10.10
   7   1  -4   19.30   15.40
  -1  -7   4  -11.80   14.40
   7  -1   4    6.90   18.10
  -1   7  -4    3.20   14.20
  -7  -4   1    0.90   10.30
   1  -7  -4   -7.10   11.30
   1  -7  -4   13.50   15.10
  -4   7   1   12.00   11.90
  -4  -1   7    3.90    9.80
   1   7   4   14.20   15.10
   4  -1  -7   -2.70   11.30
  -4   1  -7  -20.40    8.90
  -7  -4   1  -10.70   12.80
   4   1   7    4.70   10.60
   7  -4  -1   22.10   18.40
  -1  -4  -7   -1.80   13.50
  -4   7   1   14.30   14.80
   7   1  -4    9.70   10.90
   4  -7   1   10.80   18.50
  -1   4   7   25.20   18.20
  -7  -1  -4   20.60   12.50
   1  -4   7   19.80   16.10
   1  -4   7   13.80   13.20
  -7   4  -1    0.40   11.70
  -4  -1   7    5.50   14.40
   4   7  -1   18.40   12.20
  -1   4  -7    4.90   12.60
   4   1  -7    5.10   11.20
   4   7   1   -0.10   11.00
   7  -1  -4   19.90   17.10
   7   4  -1    1.90   10.50
   4  -1   7   24.60   14.40
   1   4   7   11.60   16.50
  -1   7   4    0.60   12.90
  -4  -7   1    7.40   17.10
  -4   7  -1   -4.60    7.10
  -4   7  -1   15.00   13.30
   1  -7   4  -13.80   13.50
  -1  -4   7   -9.70   11.30
  -1  -4   7    5.70   13.50
   7   1   4   -0.90   13.80
  -7  -4  -1   -4.20   10.40
   4  -7  -1   14.40   16.50
   7  -4   1   -6.60    9.20
   1   7  -4  -11.80   11.30
  -7   4   1   -9.00   11.20
  -4  -1  -7   -6.90   11.00
  -4  -1  -7    4.70   13.10
  -7  -1   4   -1.20   12.30
  -4   1   7    1.20   16.70
  -1  -7  -4   -2.40   11.70
  -1  -7  -4   -6.40   13.30
   7  -1  -4    9.20   12.00
  -7  -4  -1   12.20   15.50
  -7   1  -4   16.80   15.60
   1  -4  -7    2.40   11.50
   2  -4   7    0.10   14.90
   2   4  -7    3.10   11.20
  -4  -2   7   -2.00   13.60
  -2  -7   4   11.70   16.60
  -7  -4   2   -4.50   10.20
   4  -7   2  -11.50   14.20
  -4   2  -7   -5.30    9.20
  -2   4   7   34.90   20.50
   2  -7  -4   -5.20   14.00
   7  -2   4  -12.40   13.80
   7   2  -4    5.70   17.10
   7   2  -4    3.70   10.50
   2   7   4  -13.10   11.70
  -4  -2   7   18.20   12.50
  -7  -2  -4    0.50   12.30
  -2  -4  -7   -6.30   13.10
   4   7  -2    7.30   12.60
  -7   2   4    9.80   13.20
  -4  -7  -2  -16.50   13.90
  -7  -4   2   -7.20   12.70
  -4  -7  -2    1.40    9.20
  -4   2  -7    8.10   15.40
   7  -4  -2    4.30   15.30
   4  -2  -7    5.30   11.20
  -4   7   2   15.20   13.70
  -7   4  -2    2.60   11.60
   2  -7  -4   20.40   16.60
   2  -4   7   -2.00   13.50
  -4  -7  -2   -3.40   12.10
  -2   7  -4  -16.10   10.40
   4  -7  -2   10.30   14.70
  -2   4  -7    6.10   13.70
   2  -7   4    7.10   17.10
   2   7  -4   34.30   16.70
  -4  -2  -7    7.60   17.90
   7   2   4   -2.50   14.70
   2   4   7   -2.90   12.00
   7  -2  -4   -1.40   12.40
  -7  -2   4  -12.20   12.60
  -4   2   7   -0.80   14.40
   2  -4  -7    8.70   14.10
   7   4  -2   -3.80    8.10
  -2  -4   7    9.20   15.30
   7  -4   2  -10.30   12.00
  -4  -7   2    1.90   14.60
  -7  -4  -2  -13.40    9.00
  -7   2  -4    2.30   12.30
  -2   7   4   -0.70   12.70
   7  -2  -4   -9.70    8.70
   4  -7  -2   10.80   12.10
  -7   4   2   -7.40   11.60
  -4  -2  -7   15.60   13.90
  -4   7  -2   12.40   14.20
  -2  -7  -4   10.20   16.80
  -2  -7  -4  -11.20   10.30
  -2  -4   7    4.60   13.70
   4   2  -7   10.80   12.90
   4  -2   7   15.10   14.10
  -4  -7  -3  189.38   37.70
  -7   3   4  187.58   37.60
  -7  -4   3  278.67   51.99
   7  -3   4  282.27   52.89
   3  -7  -4  271.87   43.40
  -4   3  -7  286.97   42.30
   4  -7   3  250.37   54.29
  -4  -7  -3  224.38   32.60
  -4   3  -7  202.08   34.20
  -7   4  -3  159.58   32.30
  -4   7   3  293.77   41.60
  -3  -4  -7  192.98   38.70
   3  -4   7  144.19   35.90
  -3  -7   4  469.85   67.69
  -3   7  -4  245.18   39.90
   7   3  -4  172.48   28.20
  -7  -4   3  222.48   36.60
   4   7  -3  225.68   37.40
   4  -3  -7  158.68   35.30
  -4  -7  -3  229.58   38.10
   7   4   3  160.18   37.40
  -3   4   7  206.58   41.20
  -7  -3  -4  221.18   36.20
  -4  -3   7  253.87   40.70
  -4  -3   7  260.07   40.30
   3  -7  -4  223.98   38.80
   3   7   4  170.88   30.10
   3   4  -7  172.58   33.90
   7  -4  -3  185.78   39.40
   4  -7  -3  245.38   38.10
  -4  -7   3  241.18   48.80
  -3   7   4  226.08   37.50
  -3   4  -7  197.38   36.00
  -7   4   3  280.57   42.90
   3  -4  -7  237.58   41.20
  -7  -4  -3  196.88   34.70
  -3  -7  -4  245.48   39.90
   7  -3  -4  247.58   43.70
  -7   3  -4  205.28   36.60
  -4   3   7  273.97   46.70
  -7  -3   4  263.17   48.50
  -3  -7  -4  258.37   41.80
   7  -3  -4  258.07   34.70
  -4   7  -3  242.28   38.90
  -3  -4   7  218.68   38.20
   3  -7   4  288.17   54.59
   3   7  -4  210.68   38.80
  -3  -4   7  176.18   33.10
  -3   4  -7  258.87   36.20
   4  -3   7  172.18   36.10
   4   3  -7  243.58   39.00
  -4  -3  -7  220.98   36.50
   7  -4   3  229.48   46.00
   7   4  -3  171.08   27.90
  -7  -3   4  212.18   38.20
   7   3   4  188.98   39.10
  -4  -3  -7  173.08   35.20
   4  -7  -3  176.58   39.00
   3   4   7  280.87   43.80
  -7   4  -4    2.10   12.50
  -4  -4   7    8.40   16.10
  -7  -4   4    4.60   15.60
   7   4  -4   -2.40   12.20
   4   4  -7    7.50   12.50
   4   7  -4    7.90   13.40
  -7   4   4    7.50   17.00
  -4  -7  -4   23.90   19.10
  -4   7  -4   -5.80   11.60
  -4   4   7   -0.40   19.00
   7   4   4  -10.60   13.50
  -4  -4  -7  -15.40   11.70
  -4  -4  -7  -15.60   12.70
  -7  -4  -4   -2.20   12.40
  -7  -4   4   -3.80   11.90
  -4   7   4   25.10   20.10
   4  -7  -4   19.70   17.50
   4  -7  -4    7.20   12.40
   4  -7   4   17.60   20.50
   4  -4  -7    5.60   14.30
   4  -4   7   11.00   16.80
  -4  -7  -4    0.60   11.10
  -4  -7  -4   -1.60   12.80
   7  -4  -4    8.60   17.60
   7  -4  -4   28.70   14.00
   7  -4   4   33.50   23.20
  -4   4  -7   -5.20   11.00
  -4  -7   4    6.50   17.80
  -4   4  -7   28.10   16.90
  -4  -4   7   -9.70   13.30
   0   5  -7  675.03   59.69
   7   0  -5  641.84   58.09
  -7   5   0  631.34   56.19
  -5   0  -7  659.43   58.59
  -5   0  -7  497.55   53.19
  -5   0   7  601.44   61.79
  -5  -7   0  680.43   60.99
   0   5   7  528.85   58.39
  -7   0   5  533.05   57.69
  -5  -7   0  513.25   60.69
   5   7   0  566.94   53.39
  -7  -5   0  633.84   64.79
   0  -5   7  580.34   53.39
   0  -7   5  749.62   69.29
  -5   7   0  582.04   50.09
  -5   7   0  634.24   55.19
   7   0  -5  541.85   49.99
   7   0   5  604.34   59.99
  -7  -5   0  698.03   54.69
  -7   0  -5  549.15   54.79
   0  -7  -5  589.24   55.19
   0  -7  -5  591.64   58.79
   5   0  -7  581.24   55.59
   5   0   7  679.93   58.09
   7  -5   0  641.14   65.29
   7   5   0  663.73   49.99
   5  -7   0  600.74   64.49
   5   0  -7  575.24   52.49
   0  -5   7  597.04   59.09
   0   7  -5  599.24   57.89
   0   7   5  697.93   58.39
   0  -5  -7  673.93   61.89
  -1   7  -5  200.68   38.70
  -1  -7   5  182.98   44.20
   7   1  -5  263.77   44.90
  -5   7   1  217.68   36.40
  -1  -5  -7  158.88   34.70
   5  -1  -7  175.58   33.60
  -5   7   1  178.28   31.00
  -7  -1  -5  157.68   33.30
  -1   5   7  221.78   40.10
  -7  -5   1  168.48   38.50
   7   1  -5  137.19   26.80
  -7   5  -1  147.99   31.30
   7  -1   5  176.68   39.00
   5  -7   1  202.48   45.80
   5   7  -1  178.48   32.20
   5   1   7  152.58   30.70
  -7   1   5  165.58   37.10
  -5  -7  -1  159.38   40.70
  -5  -7  -1  176.18   28.10
  -5  -1   7  171.88   39.00
  -7  -5   1  173.18   29.80
   1   7   5  176.28   33.30
   7  -5  -1  150.38   38.20
   1  -7  -5  168.08   38.00
   1  -5   7  126.09   33.70
   1  -5   7  153.78   29.60
   1   5  -7  171.18   33.40
  -5   1  -7  210.18   35.00
   1  -7  -5  282.37   53.49
   7   5   1  214.88   29.60
  -5   1  -7  238.18   37.90
   1   5   7  223.98   39.60
  -1  -5   7  156.88   37.40
   7  -1  -5  112.29   28.30
  -7  -1   5  190.38   37.40
  -5   7  -1  194.08   33.20
   5  -1   7  145.09   33.30
   5   1  -7  148.39   31.20
   5   7   1  203.28   35.70
  -7   1  -5  255.97   39.90
   7  -5   1  133.39   36.70
   7   5  -1  160.58   26.80
  -1   7   5  207.28   38.10
  -5  -7   1  182.88   43.70
  -5   7  -1  191.78   28.40
  -5   1   7  182.48   39.50
   5  -7  -1  154.18   38.80
  -7  -5  -1  206.58   44.40
  -7  -5  -1  206.78   35.30
   1  -5  -7  178.38   38.30
   7   1   5  251.67   42.90
  -1  -7  -5  200.98   38.20
  -7   5   1  157.18   31.60
  -5  -1  -7  176.18   35.90
  -5  -1  -7  114.19   28.60
   1  -7   5  175.68   42.30
   1   7  -5  187.08   37.40
  -1  -5   7  106.39   29.70
  -1  -7  -5  225.98   37.00
   7  -1  -5  152.18   29.00
  -1   5  -7  186.48   37.20
  -2   5   7  762.62   68.89
  -5   2  -7  736.83   61.49
  -7  -5   2  646.44   69.09
   5  -2  -7  740.63   62.69
  -2  -7   5  652.63   68.89
  -2   7  -5  654.43   62.09
  -7   2   5  672.53   66.49
  -7  -5   2  628.44   55.49
  -7   5  -2  541.05   55.59
  -2  -5  -7  639.24   63.39
   2  -5   7  693.43   65.79
   7   2  -5  682.43   55.79
  -5  -2   7  682.43   59.79
  -5  -2   7  694.53   64.49
   2  -7  -5  726.43   65.19
  -5   2  -7  692.43   60.89
   7  -5  -2  654.13   66.79
   5   7  -2  655.63   59.49
   7   5   2  605.44   60.09
  -7  -2  -5  706.23   62.19
   7  -2   5  722.73   67.59
  -5   7   2  611.54   57.79
   7   2  -5  756.22   67.09
  -5  -7  -2  706.23   68.09
  -5  -7  -2  601.54   53.39
   2   5  -7  667.03   61.99
   5  -7   2  736.83   72.89
   2   7   5  657.13   58.79
   2  -5   7  608.54   54.99
   5  -2   7  620.74   61.89
   7  -2  -5  667.13   56.29
  -2  -7  -5  732.13   60.39
   5   2  -7  703.73   60.49
  -5  -2  -7  626.54   59.69
  -7   5   2  695.33   62.69
  -7  -5  -2  700.13   58.09
   2   5   7  701.53   62.99
   5  -7  -2  682.13   67.79
   5  -7  -2  723.33   60.49
   2  -5  -7  824.72   68.29
   7  -5   2  610.94   69.19
   7  -2  -5  718.03   62.89
  -5   2   7  634.04   65.29
  -2  -5   7  705.43   63.79
   7   2   5  736.43   65.09
  -5   7  -2  691.13   59.39
  -5  -2  -7  713.33   63.09
  -7  -5  -2  668.83   67.79
  -7  -2   5  664.53   62.09
   2  -7   5  607.14   68.09
   2   7  -5  657.03   61.89
   7   5  -2  589.84   53.09
  -2   7   5  675.73   62.09
  -5  -7   2  760.02   71.79
  -2   5  -7  794.72   65.39
  -2  -7  -5  782.32   66.49
  -7   2  -5  694.33   60.19
  -7  -3  -5  358.36   41.10
  -5  -7  -3  398.86   46.80
   3  -7  -5  392.56   44.60
  -5  -3   7  331.17   40.80
  -5  -7  -3  324.37   39.70
   3  -5   7  325.47   44.40
   3  -5   7  469.15   41.00
  -3   5   7  333.67   56.69
   5   7  -3  318.67   39.00
   7   3  -5  332.07   36.50
  -3  -5  -7  354.86   43.20
   5  -7   3  237.98   51.99
  -5  -7  -3  318.77   35.80
   3   5  -7  319.47   40.40
  -5   3  -7  347.87   40.70
  -7   3   5  395.56   47.60
  -7  -5   3  275.47   34.80
  -7   5  -3  339.67   47.10
   7  -3   5  370.66   59.79
  -3  -7   5  299.27   52.49
  -3   7  -5  298.67   39.50
   3   7   5  332.77   38.10
  -5   7   3  314.57   39.10
   5  -3  -7  486.95   46.70
  -5   3  -7  375.76   40.90
  -7  -5   3  349.17   47.80
   7  -5  -3  345.87   45.20
  -5  -3   7  395.86   43.70
  -7   3  -5  304.17   37.00
  -5   7  -3  325.27   39.30
  -7  -3   5  327.07   40.90
   3   5   7  402.56   43.60
  -7  -5  -3  400.46   48.70
   5  -7  -3  388.36   40.60
   3   7  -5  354.96   41.90
   3  -5  -7  374.46   43.90
   7   3   5  313.27   49.60
   7  -3  -5  327.47   36.50
  -3   5  -7  443.76   45.00
  -5   3   7  243.38   47.20
  -3  -7  -5  284.77   39.50
  -7  -5  -3  342.37   38.80
  -7  -5  -3  344.77   42.70
  -5  -3  -7  317.27   40.00
  -3   7   5  400.06   42.90
  -7   5   3  355.06   42.80
   3  -7   5  414.36   53.79
  -3  -5   7  358.96   43.10
  -5  -7   3  412.26   65.79
   5  -7  -3  497.35   50.69
   7   5  -3  321.27   35.30
  -3  -7  -5  375.76   43.70
  -5  -3  -7  390.36   43.30
   7  -3  -5  321.57   42.30
   5  -3   7  372.86   45.70
   5   3  -7  330.47   39.30
  -7  -3   5  261.57   49.10
   7  -5   3  344.97   60.19
   7   4  -5   12.10   13.20
   5  -4  -7   30.10   20.20
  -7  -5   4    6.40   19.70
  -7  -5   4    2.30   15.50
  -7   4   5   23.40   20.90
  -5  -7  -4   50.39   21.50
   4  -5   7   21.70   22.00
   4   5  -7   19.10   15.80
  -5  -4   7   -0.10   16.20
  -5  -4   7   33.40   17.50
  -5  -7  -4   23.00   20.60
  -5  -7  -4   25.60   17.30
   7  -5  -4   52.99   24.60
  -4   5   7    9.70   20.00
  -7   5  -4   46.70   19.90
  -5   7   4   27.80   19.50
  -4   7  -5   20.30   19.10
   7   5   4   38.00   22.00
  -7  -4  -5   15.20   16.20
  -5   4  -7   53.19   21.70
   5   7  -4   60.19   22.10
   7  -4   5   41.30   26.80
  -4  -5  -7   80.59   26.70
  -4  -7   5   39.80   24.40
   5  -7   4   21.50   21.80
   4  -7  -5   37.30   20.90
   7  -5  -4   26.60   16.70
   4   7   5   85.69   23.30
  -5   4  -7   49.50   21.60
  -7   4  -5   12.10   12.60
   7   5  -4   46.70   18.70
  -5   4   7   -4.70   17.00
   5  -7  -4   29.20   17.40
   4   5   7   66.09   26.20
   5  -7  -4   46.60   21.00
  -7   5   4   55.19   24.40
  -5  -7   4   10.80   20.40
  -5   7  -4   36.20   18.50
  -7  -4   5   46.70   26.60
  -4  -7  -5    6.50   16.50
  -4  -5   7   15.00   19.40
  -4   5  -7   52.99   18.80
  -4   5  -7   13.90   18.10
  -7  -4   5   14.60   16.90
   4  -5  -7   34.60   20.10
  -4   7   5   -1.70   13.50
   7  -5   4   32.50   27.60
  -7  -5  -4   49.50   17.60
  -4  -7  -5   46.20   23.60
   4  -7   5   27.00   26.30
   7  -4  -5   45.40   18.10
  -5  -4  -7   23.80   19.90
  -5  -4  -7   59.19   22.20
   7   4   5   31.90   22.10
   5   4  -7   30.20   15.50
   5  -4   7    5.20   18.50
   4   7  -5  -12.90   12.10
   7  -4  -5   60.19   25.50
  -5  -7  -5    4.90   20.50
  -7  -5  -5   13.30   16.20
   5   7  -5   -3.10   13.80
  -5  -7  -5   24.90   15.60
  -5  -7  -5   12.60   18.70
  -5  -7   5  -11.20   16.40
  -5  -5  -7   10.60   13.30
   7  -5   5   14.50   19.90
   7   5  -5   11.70   14.80
  -5   5  -7   -2.40   13.70
   7  -5  -5   11.60   17.50
   7  -5  -5    7.20   14.60
  -5   7   5    7.30   18.60
   5  -7  -5    9.80   13.30
   5  -7   5    0.20   18.90
   5  -5  -7   -4.80   14.90
   5  -5   7   12.80   19.30
   5   5  -7   -9.80   13.40
  -5   7  -5    9.90   15.70
   7   5   5   -1.70   16.20
  -5  -5  -7    2.70   18.10
  -5  -5   7    7.00   20.70
  -5   5  -7   -7.50   12.90
  -5   5   7   -6.10   15.00
  -7   5  -5   24.50   15.10
  -7   5   5   13.30   19.60
  -7  -5   5  -19.10   11.60
  -7  -5   5   -5.00   17.00
  -6   7   0   91.99   25.10
  -6   7   0  142.09   27.90
  -6  -7   0  124.19   35.60
  -6  -7   0   98.49   26.20
  -7   0  -6  114.69   29.10
  -7  -6   0  116.79   35.00
  -7  -6   0   87.49   22.20
   0   6   7  125.69   34.50
   6  -7   0  223.58   49.80
   0   7  -6  168.58   37.00
   0   7   6   80.39   27.40
   0  -6  -7  145.99   35.20
  -7   0   6  123.29   34.40
   7   6   0  135.59   26.90
   0  -7   6   91.89   32.20
   7   0  -6  117.69   27.10
   7  -6   0  134.29   37.40
   6   0  -7  237.68   29.20
   6   0   7   93.19   27.10
   6   7   0   97.09   25.10
   7   0  -6  141.49   32.80
   0   6  -7  137.19   34.00
   7   0   6  106.79   30.70
   0  -7  -6  115.19   33.60
  -7   6   0  151.28   30.10
  -6   0  -7  119.89   27.50
  -6   0  -7   78.29   25.30
  -6   0   7  145.59   33.00
   0  -6   7   91.49   28.80
  -7  -6   1 1087.49   95.59
   7   1  -6 1039.20   80.59
   7  -1   6 1071.19   89.89
   6  -1  -7 1081.29   84.99
  -6  -7  -1  978.70   91.19
  -6  -7  -1 1092.19   77.89
  -7  -6   1 1087.59   79.19
  -7   6  -1 1122.69   82.79
   7  -6  -1 1090.69   94.89
  -7  -1  -6 1065.29   86.39
  -1   7  -6 1074.79   86.79
  -6  -1   7  990.40   87.89
  -6   1  -7 1111.59   86.09
  -6   1  -7 1078.69   82.69
   1   6  -7 1003.60   86.69
   7   1  -6 1123.19   87.39
  -6   7   1 1108.99   82.79
  -1  -6  -7 1134.39   91.49
  -6   7   1  980.80   80.19
  -1  -7   6  983.90   91.79
   6  -7   1 1104.29   96.99
   6   7  -1  943.61   79.89
   1  -7  -6 1045.50   89.69
   1  -6   7 1096.19   91.99
   7   6   1 1027.30   77.69
   1   7   6  979.70   83.69
   6   1   7 1001.10   83.69
  -1   6   7 1136.39   91.19
  -7   1   6 1039.40   90.59
  -7   1  -6 1070.39   85.39
   7  -1  -6 1000.00   83.09
   6  -1   7 1176.68   89.49
   6  -7  -1 1120.19   95.49
  -6  -1  -7 1005.90   82.39
  -1   7   6 1141.99   88.19
   6   7   1 1028.90   81.39
   1  -7   6 1187.98   97.69
   1   7  -6 1067.39   86.79
  -7  -1   6 1055.99   89.09
   1  -6  -7  914.61   86.89
  -6   1   7 1026.10   90.09
   6   1  -7 1079.09   83.19
   6   1  -7 1138.09   85.09
  -6  -1  -7 1023.90   85.59
  -7   6   1 1013.20   82.99
   7  -6   1  866.51   90.59
   7   6  -1 1002.20   77.89
   7  -1  -6 1007.30   80.09
   1   6   7 1034.20   86.49
  -7  -6  -1 1184.58   97.09
  -6   7  -1  944.51   77.19
  -1  -7  -6  985.90   88.29
  -1   6  -7  986.80   86.39
  -6   7  -1 1030.30   80.79
  -6  -7   1 1079.19   95.29
  -1  -6   7 1093.29   90.79
  -7  -6  -1  981.50   78.39
   7   1   6 1091.49   87.69
   7  -2   6   70.99   25.50
   7   2  -6  102.59   30.60
   2  -6   7   55.09   26.80
  -7  -2  -6   68.79   26.10
   6   7  -2   37.80   16.70
  -2   6   7   63.39   24.50
   2   6  -7   72.29   23.60
   2   7   6   67.39   22.60
   6  -2  -7   52.99   22.60
  -6   2  -7   49.90   18.90
  -7   2   6  126.59   35.00
  -6  -7  -2   46.80   25.80
  -6  -7  -2   35.90   17.60
  -2   7  -6  103.39   28.00
   7   2  -6   53.59   18.30
   2  -7  -6   70.29   25.10
  -6   7   2   48.60   21.70
  -2  -6  -7   63.19   23.70
   7  -6  -2   57.49   26.30
  -7  -6   2   63.39   29.80
  -2  -7   6   66.09   28.30
   7   6   2   97.09   22.40
   6  -7   2   69.39   30.40
  -7  -6   2   49.80   17.20
  -7   6  -2   35.80   16.30
  -6  -2   7   63.59   23.40
  -6   2  -7   46.50   19.20
   6   2   7   41.70   25.10
  -6  -2   7   89.59   24.80
   2   7  -6   53.89   24.20
  -2   6  -7   81.59   26.60
  -7  -6  -2   71.59   31.10
   7  -6   2   65.09   29.30
   7   6  -2   38.50   17.50
  -2  -6   7   67.49   27.10
   2   6   7   15.10   16.10
   6  -7  -2   58.99   24.80
  -6   7  -2   28.50   15.40
  -6  -7   2   99.39   33.20
  -7   2  -6   62.19   23.70
  -6   2   7   32.70   24.30
  -7  -6  -2   35.50   17.10
  -2  -7  -6   46.00   20.60
   2  -6  -7   24.90   18.30
  -6  -2  -7   53.89   21.30
   6  -2   7   51.89   26.50
   6   2  -7   67.49   22.60
   6  -7  -2   59.09   22.60
  -7  -2   6   86.29   29.30
   6   7   2   95.09   26.00
   7  -2  -6   60.39   24.60
   7   2   6   51.79   22.40
  -2   7   6   67.39   23.80
  -6   7  -2   34.10   17.10
   2  -7   6   22.40   25.00
  -7   6   2   63.89   20.80
  -6  -2  -7   87.99   28.80
   7  -2  -6   58.59   21.00
  -6   3  -7  825.92   74.79
  -6   3  -7  942.41   75.89
   3  -7  -6  971.50   83.09
  -7   3   6  836.12   82.39
  -6  -7  -3  900.01   72.79
  -6  -7  -3  952.70   75.29
  -3  -6  -7  782.52   78.89
   7  -3   6 1014.50   88.19
  -6  -3   7  832.82   77.89
   3   7   6  976.70   76.89
   3  -6   7  959.20   85.29
   3   6  -7  906.81   78.89
  -3   6   7  940.11   83.19
   6  -3  -7  798.42   74.69
   7   3  -6  967.30   74.39
   6  -7   3  778.92   85.39
   6   7  -3 1061.89   77.89
   7  -6  -3  785.92   80.29
  -6   7   3  909.21   77.59
  -3  -7   6  921.71   86.49
  -6  -7  -3  975.40   86.69
  -6  -3   7  947.91   79.99
  -7  -6   3 1036.30   91.39
  -7  -6   3  846.92   73.49
  -7   6  -3  939.91   74.29
   7  -6  -3 1095.39   88.09
  -7  -3  -6  931.61   79.79
  -3   7  -6  824.62   77.49
  -7  -6  -3  899.11   84.99
  -7  -6  -3  886.71   71.59
   7   3   6 1021.20   80.99
  -7   6   3  970.80   80.59
  -6   3   7  997.30   86.19
  -6  -7   3  995.90   89.09
  -6   7  -3  947.51   74.59
   7  -3  -6  902.11   74.69
  -3   7   6  955.90   80.89
  -6  -3  -7  889.21   75.39
   3  -7   6  927.01   87.19
   6  -7  -3  953.30   75.49
   7  -3  -6  826.72   76.39
   7  -6   3  819.32   86.29
   7   6  -3  973.40   73.39
  -7  -6  -3  733.53   71.19
  -7  -3   6  938.11   81.99
  -6  -3  -7  959.00   79.79
  -7   3  -6  995.20   78.09
  -7  -3   6  970.70   79.59
   3   7  -6  786.02   76.89
   3  -6  -7  862.71   80.39
  -3  -6   7  977.40   83.59
  -3   6  -7  996.10   80.29
   3   6   7  894.01   77.19
   6  -7  -3 1089.99   88.29
   6  -3   7  914.11   82.79
   6   3  -7  924.91   75.49
  -3  -7  -6  923.71   81.29
   6   7  -4  292.77   44.30
  -7   6  -4  283.87   42.20
  -7  -6   4  204.98   45.50
   6  -7   4  242.48   54.69
  -7  -4  -6  245.48   43.40
   7  -4   6  227.78   50.69
  -6   4  -7  292.37   43.80
   7  -6  -4  286.57   50.49
   7  -6  -4  174.38   34.10
  -6  -7  -4  221.98   47.20
  -6  -7  -4  238.88   40.30
  -6  -7  -4  261.27   41.40
   4  -7  -6  191.18   42.50
   4   7   6  281.07   44.70
  -6   7   4  312.07   50.29
  -4  -6  -7  373.76   57.19
  -4  -7   6  249.48   52.49
  -4   7  -6  291.27   48.20
  -4   6   7  252.27   47.30
  -7   4   6  222.48   46.80
   4  -6   7  296.97   53.89
   4   6  -7  178.78   37.30
  -6   4  -7  205.88   38.20
  -6  -4   7  326.27   47.50
   6  -4  -7  265.87   44.10
  -6  -4   7  199.48   43.00
   7   4  -6  271.17   33.50
   4  -6  -7  328.77   54.29
  -7  -6  -4  233.28   39.20
  -6   7  -4  250.57   40.50
   6  -7  -4  215.78   38.50
  -6  -4  -7  164.48   35.90
  -6  -4  -7  234.38   41.80
  -7  -6  -4  262.37   49.00
   6  -7  -4  228.28   46.40
   4   6   7  198.68   41.70
  -7  -4   6  204.48   39.00
  -6   4   7  270.97   51.59
   7   4   6  273.57   46.20
  -4  -6   7  355.96   57.99
  -4   6  -7  251.67   44.10
  -4   7   6  179.38   39.00
  -6  -7   4  163.88   43.70
  -7  -6  -4  336.47   48.20
   7  -4  -6  261.17   41.60
  -7  -4   6  236.08   49.99
   6   4  -7  270.07   42.00
  -7   4  -6  169.78   35.50
  -7   6   4  268.27   49.90
   7  -6   4  303.67   58.09
   7   6  -4  330.17   45.00
  -4  -7  -6  277.57   46.60
   6  -4   7  150.58   40.50
   4  -7   6  356.46   61.09
   4   7  -6  292.07   48.10
  -6   5  -7  134.99   30.10
  -6  -7  -5   60.49   21.90
  -5  -6  -7  121.79   32.30
  -5   7  -6   90.79   29.80
   5   7   6  127.29   32.00
  -5   6   7  125.69   35.70
  -6  -7  -5  145.39   37.90
   5  -6   7  133.79   41.50
   5   6  -7  169.48   36.90
   6  -5  -7  119.39   32.00
  -6  -5   7  101.59   32.30
   6  -7   5  188.08   52.49
   6   7  -5   84.39   29.40
   7  -6  -5  120.59   28.70
   7  -5   6   60.89   29.70
   7   5  -6  105.19   26.90
   7   6   5  111.59   35.00
  -7   6  -5  147.79   30.20
  -6   7   5  103.79   31.10
  -5  -7   6  167.48   42.60
  -6  -7  -5  118.79   30.60
  -7  -5  -6  108.09   29.70
  -7  -6   5  204.08   48.70
   7  -6  -5  127.89   37.00
  -6   5  -7  123.19   30.20
  -7   5   6  111.09   35.40
   5  -7  -6  112.79   32.60
   5  -6  -7  196.88   41.50
  -7  -6  -5  164.48   35.50
  -7  -5   6   70.19   26.10
  -7   6   5  105.59   32.60
  -6   7  -5  139.49   34.50
  -6  -5  -7   92.49   31.80
   6  -7  -5  129.49   33.40
  -7   5  -6  142.29   33.30
  -6  -7   5   95.69   36.40
  -6   5   7  205.28   47.10
  -5  -7  -6   63.29   26.20
  -7  -6  -5   55.49   32.60
  -5  -6   7  113.19   32.80
  -5   7   6  104.99   34.60
  -7  -5   6  139.19   38.80
   5  -7   6  156.18   44.40
   5   7  -6  145.19   33.40
  -5   6  -7  152.48   37.20
   5   6   7  105.79   29.40
   6  -5   7   89.59   34.20
   6   5  -7   78.89   26.90
  -6  -5  -7   40.50   22.20
   7  -5  -6  128.99   32.60
   7  -6   5   62.79   29.30
   7   6  -5   78.89   25.80
   7   5   6  135.29   34.60
  -7  -6  -6   -5.30   15.30
  -7  -6   6   18.10   20.60
  -7   6   6    3.10   18.30
  -6  -7  -6    9.00   15.90
  -6  -7  -6    0.00   18.50
  -6  -7   6   -5.00   19.70
  -6  -6  -7   17.40   20.00
  -6  -6  -7  -10.10   16.00
  -6  -6   7    0.40   21.40
  -6   6  -7    2.90   20.70
  -6   6   7  -25.20   17.30
  -6   7  -6  -30.20   16.40
  -6   7   6    5.30   20.20
   6  -7  -6   -7.40   15.30
   6  -7   6   -4.20   20.70
   6  -6  -7   -1.60   16.70
   6  -6   7   35.40   29.30
   6   6  -7  -13.20   16.10
   6   7  -6  -10.20   17.10
   7  -6  -6    2.80   19.20
   7  -6   6  -21.30   18.00
   7   6  -6  -10.00   15.60
  -7  -7   0  464.55   59.49
  -7  -7   0  523.35   54.19
  -7   0  -7  546.85   54.89
  -7   0   7  514.75   57.99
  -7   7   0  439.46   46.70
   0  -7  -7  521.95   58.09
   0  -7   7  424.96   55.59
   0   7  -7  445.36   51.79
   0   7   7  518.25   54.79
   7  -7   0  502.35   61.99
   7   0  -7  470.95   50.69
   7   0  -7  433.66   48.30
   7   0   7  504.05   54.69
   7   7   0  450.25   46.40
  -7  -7  -1   13.00   18.40
  -7  -7  -1   -5.30   11.60
  -7  -7   1    5.70   17.20
  -7  -1  -7    8.90   14.00
  -7  -1   7   -1.40   16.80
  -7   1  -7    4.90   14.80
  -7   1   7   -1.50   14.90
  -7   7  -1   -4.70   13.10
  -7   7   1   11.90   14.80
  -1  -7  -7    5.40   17.00
  -1  -7   7   -0.50   17.50
  -1   7  -7    9.30   16.10
  -1   7   7    1.60   16.70
   1  -7  -7    3.00   16.20
   1  -7   7   23.10   20.20
   1   7  -7   23.40   20.40
   1   7   7    2.90   13.90
   7  -7  -1   -0.60   18.20
   7  -7   1  -14.10   17.00
   7  -1  -7   -2.60   15.00
   7  -1   7   -8.20   17.50
   7   1  -7   -0.70   15.10
   7   1  -7   12.90   15.50
   7   1   7    0.70   17.20
   7   7  -1   -2.60   13.10
   7   7   1   -3.10   11.50
  -7  -7  -2  401.36   67.29
  -7  -7  -2  511.85   47.90
  -7  -7   2  472.05   60.09
  -7  -2  -7  491.25   52.59
  -7  -2   7  439.36   52.99
  -7   2  -7  575.84   54.79
  -7   2   7  452.85   57.09
  -7   7  -2  445.76   45.20
  -7   7   2  436.06   50.39
  -2  -7  -7  465.25   54.39
  -2  -7   7  386.96   54.09
  -2   7  -7  474.05   52.39
  -2   7   7  371.16   58.59
   2  -7  -7  518.35   57.89
   2  -7   7  498.15   61.79
   2   7  -7  451.35   52.19
   2   7   7  517.35   53.09
   7  -7  -2  379.86   63.99
   7  -7   2  470.15   61.39
   7  -2  -7  458.65   49.20
   7  -2   7  537.55   58.99
   7   2  -7  454.95   53.49
   7   2  -7  447.56   48.20
   7   2   7  517.05   52.19
   7   7  -2  470.95   47.30
   7   7   2  518.35   49.40
  -7  -7  -3    9.60   21.20
  -7  -7  -3  -17.90   12.10
  -7  -7   3   -2.00   19.30
  -7  -3  -7   10.80   15.40
  -7  -3   7    9.10   20.20
  -7  -3   7  -20.60   16.80
  -7   3  -7    7.00   16.80
  -7   3   7   -2.30   15.20
  -7   7   3    9.50   19.60
  -3  -7  -7    8.60   17.90
  -3  -7   7    3.70   21.00
  -3   7  -7    5.20   20.20
  -3   7   7   -3.40   13.70
   3  -7  -7  -13.70   16.10
   3  -7   7   13.70   21.80
   3   7  -7   -5.20   14.90
   3   7   7   -8.30   16.20
   7  -7  -3    0.00   19.30
   7  -7  -3   16.60   26.60
   7  -7   3    1.60   18.30
   7  -3  -7   -6.80   15.20
   7  -3   7   -3.10   17.90
   7   3  -7   -9.60   15.10
   7   7  -3   12.70   15.70
   7   7   3   -8.60   14.60
  -7  -7  -4   47.80   28.00
  -7  -7  -4   19.60   17.50
  -7  -7  -4   12.10   16.40
  -7  -7   4   84.39   33.70
  -7  -4  -7   44.40   22.50
  -7  -4   7   18.50   24.60
  -7  -4   7   18.50   20.50
  -7   4  -7   -1.20   14.80
  -7   4   7   14.60   19.60
  -7   7   4   35.30   23.70
  -4  -7  -7   22.00   21.00
  -4  -7   7    7.70   21.20
  -4   7  -7   51.09   23.40
  -4   7   7   -7.30   16.90
   4  -7  -7   47.20   24.30
   4  -7   7   12.70   25.90
   4   7  -7   -3.30   16.50
   4   7   7    1.00   17.20
   7  -7  -4    7.70   21.00
   7  -7  -4   35.30   21.60
   7  -7   4  -17.10   16.70
   7  -4  -7    3.70   18.60
   7  -4   7    8.00   20.70
   7   4  -7   18.60   16.90
   7   7  -4   32.80   18.80
  -7  -7  -5  -10.20   14.80
  -7  -7  -5   10.00   20.30
  -7  -7   5   -4.60   19.20
  -7  -5  -7    7.70   18.60
  -7  -5   7    3.70   19.70
  -7   5  -7  -17.00   14.30
  -7   5   7   -3.80   18.70
  -7   7   5   -2.00   17.50
  -5  -7  -7   -3.90   14.80
  -5  -7   7   13.90   22.20
  -5   7  -7    7.20   17.10
  -5   7   7   21.40   21.00
   5  -7  -7   -7.70   18.40
   5  -7   7  -11.60   22.20
   5   7  -7   12.40   19.40
   5   7   7   16.10   17.10
   7  -7  -5   -7.30   15.80
   7  -7   5   24.50   24.70
   7  -5  -7    9.90   20.50
   7  -5   7    1.90   17.90
   7   5  -7   10.30   16.50
   7   7  -5   -8.10   14.80
  -7  -7  -6  781.02   75.89
  -7  -7   6  849.22   87.69
  -7  -6  -7  984.40   82.39
  -7  -6   7  831.22   85.79
  -7   6   7  817.52   82.79
  -7   7   6  665.43   77.09
  -6  -7  -7  968.20   82.89
  -6  -7   7 1000.70   92.79
  -6   7  -7  846.62   79.19
  -6   7   7  934.81   84.29
   6  -7  -7  832.82   80.09
   6  -7   7  785.52   88.09
   6   7  -7  859.21   78.09
   7  -7  -6  855.11   78.49
   7  -7   6  946.41   94.59
   7  -6  -7  843.42   79.69
   7  -6   7  751.62   85.99
   7   6  -7  789.62   74.69
   7   7  -6  882.21   76.79
  -7  -7  -7    1.60   18.80
  -7  -7   7    0.50   22.70
  -7   7   7   -9.70   17.20
   7  -7  -7  -16.20   16.40
   7  -7   7   22.00   30.00
   7   7  -7  -23.90   16.80
  -8   0   0 2667.83  182.18
   0  -8   0 2782.02  191.68
   0   0  -8 2786.12  185.78
   0   0   8 2817.42  187.08
   0   8   0 2818.12  185.08
   8   0   0 2615.34  188.78
  -8   0  -1   -0.90   10.80
  -8   0   1    4.00   11.70
  -1  -8   0  -14.50   15.10
  -1   8   0   26.90   17.60
   0  -1  -8    6.90   12.70
   0  -1   8   26.20   18.40
   0   1  -8   34.30   18.10
   0   1   8   18.60   17.20
   1  -8   0    7.50   16.30
   1   8   0   14.90   15.00
   8   0  -1   30.30   20.50
   8   0   1   13.00   15.90
   8  -1   0   65.79   27.40
   8   1   0   17.00   18.10
   0   8   1   19.80   16.40
  -8  -1   0    9.20   13.00
  -8   1   0    2.50   12.00
  -1   0  -8   -1.60   13.90
  -1   0   8   31.10   19.90
   0  -8  -1    2.70   15.90
   0  -8   1   15.40   20.30
   0   8  -1   21.00   15.40
   1   0   8   17.30   14.50
   1   0  -8   -4.50   11.00
  -1   1   8 1121.39   93.69
  -1  -1   8 1173.88   93.79
  -1   1  -8 1216.08   92.89
   8   1  -1 1071.59   94.19
   8   1   1 1068.79   94.39
  -8   1  -1 1217.98   90.09
  -8   1   1 1025.30   88.29
  -1  -8  -1 1113.59   94.99
  -1  -8   1 1082.49   96.99
  -1  -1  -8 1200.18   93.49
   1  -8  -1 1260.47   98.69
   1  -8   1 1119.29   98.19
   1  -1  -8 1145.19   92.59
   1  -1   8 1080.99   90.29
   1   1  -8 1171.98   92.09
   1   1   8 1161.98   92.79
   1   8  -1 1183.78   90.89
   1   8   1 1260.07   92.59
   8  -1  -1 1090.59   94.59
   8  -1   1 1170.68   96.09
  -8  -1  -1 1301.47   90.89
  -8  -1   1 1214.48   89.69
  -1   8   1 1184.18   91.19
  -1   8  -1 1267.97   92.29
  -8   0   2 1437.06  108.59
  -2  -8   0 1482.85  116.39
  -2   8   0 1514.95  110.19
   0  -2  -8 1507.45  112.69
   0  -2   8 1429.16  109.89
   0   2  -8 1524.55  109.99
   0   2   8 1387.16  111.29
  -8   0  -2 1404.56  106.89
   2   8   0 1383.46  108.89
   8   0  -2 1505.75  114.59
   8   0   2 1463.85  115.69
   2   0  -8 1398.56  109.79
   2   0   8 1546.25  110.69
   8  -2   0 1460.15  115.09
   2  -8   0 1424.76  115.89
   0   8  -2 1493.25  110.29
  -8  -2   0 1354.56  105.99
  -8   2   0 1480.95  108.19
  -2   0  -8 1595.64  112.79
  -2   0   8 1583.14  114.89
   0  -8  -2 1557.94  114.69
   0  -8  -2 1560.24  110.69
   0  -8   2 1614.74  121.29
   8   2   0 1388.86  114.99
  -1  -2  -8  439.66   48.40
   1   2  -8  413.26   46.20
   8   1  -2  459.35   52.29
  -1  -8   2  416.06   53.49
  -8  -1  -2  538.55   48.40
  -8  -2   1  481.55   46.70
  -8   2  -1  437.96   45.10
   8  -1   2  385.96   49.99
   2   1   8  389.46   45.40
  -2  -1   8  456.05   50.89
  -2   1  -8  459.85   48.20
   2  -1  -8  517.75   50.99
  -1   2   8  546.65   54.19
  -8   1   2  444.06   47.50
   2  -8   1  477.15   54.89
   2   8  -1  433.96   46.70
   1  -8  -2  514.65   52.49
   1  -8  -2  493.75   48.80
   8   2   1  442.66   52.79
   8  -2  -1  441.96   51.49
  -1   8  -2  458.35   47.50
  -2   8   1  480.95   47.90
   1  -2   8  451.75   46.70
  -2  -8  -1  503.35   53.79
  -8   2   1  399.36   45.60
  -1  -8  -2  389.66   48.30
   8   2  -1  464.85   52.79
  -2  -8   1  406.66   51.29
   8   1   2  429.16   51.59
   2  -1   8  436.86   46.20
   2  -8  -1  489.85   53.59
  -2  -1  -8  449.06   49.10
   1   2   8  396.86   46.70
   8  -2   1  472.45   53.69
  -8   1  -2  380.76   43.50
   2   1  -8  415.76   46.90
  -1  -2   8  405.66   48.00
  -1   2  -8  514.05   49.70
  -2   8  -1  437.66   46.40
   1  -2  -8  413.66   47.90
  -8  -2  -1  510.75   47.00
   1   8  -2  468.75   48.10
  -8  -1   2  454.95   47.60
   8  -1  -2  404.96   48.80
  -1  -8  -2  396.56   45.70
  -2   1   8  506.85   53.59
   2   8   1  479.65   48.60
   1  -8   2  474.95   56.09
  -8   2  -2  938.81   75.89
   8   2  -2  991.00   84.99
   8   2   2  936.11   82.49
   2  -2  -8  839.82   77.69
   2  -2   8  990.20   77.49
   2   2  -8  915.51   76.89
   2   2   8  910.71   77.49
   2   8  -2  885.81   77.19
   8  -2  -2  973.00   82.19
   8  -2   2 1074.59   88.79
  -8  -2  -2  933.61   76.09
  -8  -2   2  864.81   74.49
   2  -8  -2  833.22   74.89
  -8   2   2 1069.19   80.99
  -2  -8  -2  797.62   78.59
  -2  -8  -2  916.61   76.69
  -2  -8   2  922.51   85.69
  -2  -2  -8  984.10   80.39
  -2  -2   8 1005.50   81.19
  -2   2  -8  973.80   78.59
  -2   2   8  993.80   83.29
  -2   8  -2  913.51   77.39
   2  -8  -2  968.60   82.69
   2  -8   2  929.21   86.69
  -3  -8   0  672.63   71.69
   8   0  -3  760.62   70.49
  -3   8   0  650.73   64.29
  -8  -3   0  654.93   61.99
  -8   3   0  862.51   67.79
  -3   0  -8  752.52   67.49
  -3   0   8  723.73   70.69
   0  -8  -3  801.02   70.29
   0  -8  -3  807.72   67.79
   0  -8   3  719.43   74.59
   0   8  -3  689.63   65.99
   0   8   3  724.03   59.99
   3   0  -8  796.22   68.89
   3   0   8  782.32   67.59
   8  -3   0  798.82   75.69
   8   3   0  849.02   75.79
   0   3  -8  788.22   67.49
   0   3   8  757.82   69.99
   3  -8   0  667.63   71.79
   3   8   0  762.32   66.79
   0  -3   8  779.32   62.39
   0  -3   8  768.72   67.79
   0  -3  -8  729.83   69.39
  -8   0   3  831.62   68.69
  -8   0  -3  822.22   67.69
   8   0   3  733.53   70.39
   8  -1   3  387.76   47.70
  -1   3   8  283.27   52.19
   3  -1  -8  379.96   44.50
   1  -8  -3  382.76   44.60
   8   1  -3  324.57   54.59
   3  -8   1  417.36   66.99
   3   8  -1  335.77   41.10
   1  -3   8  350.46   41.20
   1   3  -8  413.36   44.00
  -8   3  -1  354.46   40.30
  -1  -3  -8  440.96   48.00
  -8  -1  -3  316.07   39.40
  -3  -1   8  362.06   45.20
  -3   1  -8  340.17   41.40
   8  -3  -1  330.17   57.39
  -1   8  -3  292.87   39.90
   1  -3   8  390.16   40.00
   3   1   8  396.26   44.00
  -8   1   3  346.37   51.99
  -3  -8  -1  340.37   47.20
  -8  -3   1  349.96   39.80
   8   3   1  346.87   46.40
  -3   8   1  385.06   42.50
  -1  -8   3  380.56   51.09
   1   8   3  393.56   37.50
   1  -8  -3  372.56   41.90
  -1   3  -8  381.36   42.80
  -1  -3   8  425.06   46.50
   8  -3   1  384.56   49.40
   8   3  -1  372.26   59.89
  -8  -3  -1  387.06   40.70
  -3  -8   1  359.16   48.40
   1   3   8  332.37   50.49
  -8   3   1  332.67   40.80
  -3  -1  -8  357.96   42.70
  -8  -1   3  347.67   42.20
  -8   1  -3  341.27   40.90
  -3   1   8  294.07   51.59
  -1  -8  -3  414.86   45.60
  -1  -8  -3  361.66   42.00
   3  -8  -1  353.46   46.70
   1  -3  -8  431.86   47.80
  -1   8   3  355.06   36.90
   3  -1   8  403.16   43.80
   8  -1  -3  315.67   43.10
   1  -8   3  308.07   57.39
   1   8  -3  315.77   40.70
  -1  -3   8  361.96   37.30
  -3   8  -1  367.66   41.50
   3   8   1  329.27   41.00
   3   1  -8  329.27   41.70
   8   1   3  399.56   47.70
  -3   2  -8  775.92   67.29
  -8   3  -2  745.73   63.99
  -8  -2  -3  810.12   66.39
  -8   2   3  664.03   65.39
  -2  -8   3  663.63   72.09
  -3  -2   8  762.82   68.79
   2  -3   8  810.22   64.59
   2  -8  -3  719.53   68.09
   2  -8  -3  706.63   64.39
  -3  -8  -2  694.53   63.99
   8  -2   3  679.23   71.19
   8   2  -3  676.23   69.39
   3  -2  -8  698.73   66.69
   3   8  -2  682.03   64.09
  -2   3   8  710.53   69.39
   3  -8   2  703.23   73.49
   3   2   8  827.62   68.59
  -8  -3   2  656.83   61.29
   8   3   2  791.72   72.99
  -3  -8  -2  702.73   68.79
   2  -3   8  791.42   64.79
   2   3  -8  845.92   67.49
  -3   8   2  684.63   57.99
  -2  -3  -8  760.42   69.29
   8  -3  -2  759.72   72.29
  -2   8  -3  790.82   68.09
   2   8   3  770.22   59.09
  -3   2   8  801.52   72.79
  -8   3   2  765.12   67.19
   3  -2   8  740.93   63.69
   3  -2   8  757.92   64.99
   2  -8   3  720.23   75.19
   2   8  -3  697.53   65.29
   3   2  -8  671.83   63.79
   8   2   3  700.93   69.79
   2  -3  -8  727.23   68.59
  -2   8   3  689.33   59.19
  -2   3  -8  709.43   64.89
   8  -3   2  778.62   74.49
   2   3   8  800.32   68.29
   3  -8  -2  683.03   68.69
  -8  -2   3  712.73   63.99
  -8   2  -3  828.12   67.29
  -2  -8  -3  649.24   63.29
  -2  -3   8  734.43   66.79
  -3  -8   2  701.43   72.59
  -8  -3  -2  731.93   63.99
   3  -8  -2  710.13   63.89
  -2  -8  -3  742.13   69.29
   8  -2  -3  633.64   66.19
  -3  -2  -8  800.32   68.19
  -3   8  -2  798.62   67.19
   8   3  -2  675.73   70.69
  -2  -3   8  664.53   59.19
  -3   8  -3  150.78   32.20
  -3  -8   3   87.29   33.00
  -3   3  -8  217.68   38.60
  -3   3   8   75.29   28.40
   3   3   8  147.49   36.20
   3   8  -3  157.48   33.40
   3   8   3  169.68   28.50
   8  -3  -3  244.18   47.30
   8  -3   3  123.59   37.50
   8   3   3  165.18   40.50
  -3  -3   8  200.48   33.60
  -3  -3   8  132.49   32.50
  -3  -8  -3  120.49   29.50
  -8   3  -3  182.88   35.80
  -8  -3   3  212.18   37.40
   3  -8  -3   82.89   25.40
   3  -8   3  104.09   37.60
  -8   3   3  154.88   34.60
  -3  -8  -3  111.89   33.90
   3  -3   8  145.09   32.20
   3   3  -8  195.28   36.10
   3  -8  -3  152.48   35.70
  -3  -3  -8  167.18   38.30
  -8  -3  -3  165.18   35.90
  -8  -3   3  109.69   34.10
   3  -3   8  118.09   30.40
   3  -3  -8  247.08   43.50
  -3   8   3  137.09   27.90
  -8  -4   0 3870.71  245.28
  -8   0   4 3644.84  251.37
  -4   0  -8 3971.50  251.47
  -4   0   8 4012.70  256.27
   0   8  -4 3831.02  251.87
   0   8   4 3886.41  244.78
   4   0  -8 3744.53  250.07
   8  -4   0 3703.53  258.67
   8   0  -4 3868.31  253.47
   8   0   4 3916.81  255.97
  -4   8   0 3959.80  249.18
  -8  -4   0 4002.60  259.97
   0  -4   8 3739.83  247.18
   0  -4   8 3709.13  247.18
   0   4  -8 3857.21  250.57
   0   4   8 3894.11  254.37
   4  -8   0 3747.32  260.47
  -8   4   0 3765.12  247.58
   0  -8  -4 3926.01  250.57
   0  -8  -4 3941.31  252.07
   0  -8   4 3948.41  263.37
  -4   0  -8 3821.72  249.48
  -8   0  -4 3719.13  249.08
  -4  -8   0 3900.01  259.47
   4   8   0 3800.42  248.68
   0  -4  -8 3879.61  254.47
   8   4   1  136.39   37.30
  -8  -4   1   85.49   31.40
  -4   8   1   77.29   24.60
   1  -8  -4   60.59   23.80
   4   8  -1   64.49   22.80
  -4  -1   8   39.10   22.00
  -1  -4  -8   79.69   25.20
  -8   4  -1  165.78   32.50
  -8   1   4   84.49   26.00
  -1   4   8   33.00   22.70
   1   8   4   69.39   24.30
   1  -4   8  101.49   27.60
   1  -4   8  131.39   29.30
  -1   8  -4   87.79   29.40
  -8  -4   1   68.79   20.80
   8   1  -4   47.80   25.80
  -1  -8   4   69.49   33.10
   8  -1   4  110.79   34.10
   1   4  -8   56.99   20.30
  -4   1  -8  137.59   30.40
  -4   1  -8   54.19   20.90
   4  -8   1   57.79   28.10
  -8  -1  -4  129.69   30.10
  -4  -8  -1  108.99   35.20
   4  -1  -8   84.69   25.40
   1  -8  -4   46.30   22.10
   8  -4  -1  135.89   38.60
   1  -8   4   49.20   25.80
  -4  -1  -8  116.69   29.70
   4   1  -8   75.49   21.80
  -4  -8   1  112.79   33.30
   1   8  -4   76.79   24.40
   1   4   8   77.29   28.70
   4   8   1  147.39   31.40
  -8  -1   4   69.99   26.60
  -8   1  -4   32.80   17.70
  -1   4  -8   76.79   24.10
  -1  -8  -4   92.29   27.90
  -1  -8  -4   73.69   24.00
  -4  -1  -8   49.50   20.00
   8  -1  -4   49.40   21.50
   4  -8  -1   73.19   28.40
  -1  -4   8   84.99   25.60
   8   1   4  134.29   37.90
  -4   8  -1   59.09   21.70
  -8  -4  -1  118.29   28.20
   1  -4  -8   41.90   19.90
   8  -4   1  101.09   31.30
  -4   1   8   90.29   28.40
  -8   4   1   91.89   27.60
  -1   8   4   75.59   23.40
  -1  -4   8   56.79   21.20
  -8  -4   2 1156.98  105.49
  -8  -4   2 1321.97   96.79
  -8   2   4 1229.88  102.69
  -2   8  -4 1332.77  102.09
   4  -2  -8 1371.66  102.39
  -2   4   8 1356.56  106.49
   2   8   4 1333.37   95.09
  -4  -8  -2 1394.36  107.69
   8   4   2 1273.77  106.49
  -4   8   2 1226.68   92.59
  -4  -2   8 1330.97  102.89
   2  -4   8 1288.07  100.19
   2  -8  -4 1168.48   99.09
  -8  -2  -4 1260.67   98.29
  -8   4  -2 1295.27   97.39
   2  -4   8 1330.67   96.99
   8  -4  -2 1324.37  107.19
   2  -8  -4 1400.06  102.39
  -4   2  -8 1235.08   99.39
   8  -2   4 1327.07  108.19
  -2  -4  -8 1265.87  102.69
   8   2  -4 1418.56  107.59
   4   8  -2 1247.78   98.09
   4  -8   2 1124.99  107.79
  -4   2  -8 1283.47   97.99
   2   4  -8 1494.15  103.19
  -2  -8   4 1137.29  106.99
   4   2  -8 1241.78   98.69
  -4  -2  -8 1177.08   98.69
  -2  -8  -4 1247.58  100.39
  -4   2   8 1244.88  104.99
  -4  -8   2 1366.26  110.49
  -8   4   2 1461.45  103.29
  -8  -2   4 1397.06  101.29
   8   2   4 1226.88  103.59
  -2  -4   8 1177.98   97.29
   2  -4  -8 1180.68  101.09
  -2   8   4 1273.97   95.59
  -8   2  -4 1089.79   95.89
  -2  -8  -4 1362.06  101.99
   2  -8   4 1322.57  112.49
   4  -8  -2 1248.88  105.69
   4  -8  -2 1288.57   98.09
   2   8  -4 1229.48  100.19
   4  -2   8 1281.37   97.79
   8  -2  -4 1279.57  101.59
  -8  -4  -2 1285.87   97.39
   8  -4   2 1414.66  113.39
  -4   8  -2 1385.56  100.49
   2   4   8 1253.77  101.19
  -2   4  -8 1311.57  100.59
  -2  -4   8 1349.77   98.09
  -4  -2  -8 1246.68  100.49
  -8   4  -3  358.36   39.50
   3  -8  -4  303.97   49.20
   8  -3   4  281.57   53.79
   3  -4   8  310.07   37.40
   8   4   3  292.37   52.39
  -8  -4   3  299.97   55.29
   4   3   8  317.17   49.40
   4   8  -3  222.68   39.50
  -4  -3   8  300.27   36.10
  -4  -3   8  331.77   40.80
  -4   3  -8  307.47   36.70
  -4   3  -8  251.07   44.00
  -3  -4  -8  298.97   50.09
  -8   3   4  211.58   44.60
  -4  -8  -3  336.27   55.09
  -3  -8   4  224.98   50.39
  -8  -4   3  260.07   42.20
   8  -4  -3  228.38   48.70
   3  -4   8  320.67   49.99
   3  -8  -4  332.17   49.20
   3   4  -8  305.77   48.30
  -4  -8  -3  157.18   34.60
   3   8   4  282.77   40.90
   4  -3  -8  255.67   45.40
  -3   4   8  202.78   44.00
   4  -8   3  319.67   62.69
  -3   8  -4  254.67   44.20
  -8  -3  -4  282.57   44.10
  -4   8   3  277.17   35.00
  -8  -4  -3  287.27   45.40
  -4  -3  -8  277.97   47.50
   4   3  -8  324.67   48.70
   4  -3   8  242.38   44.50
  -8  -3   4  333.07   44.60
  -8  -3   4  257.57   43.40
  -8   3  -4  268.67   43.90
  -3  -8  -4  367.26   56.39
  -3  -8  -4  296.77   47.80
   3   4   8  244.98   43.00
  -4  -8   3  253.97   50.79
  -4   8  -3  348.37   39.80
   4  -8  -3  283.47   45.20
  -4   3   8  225.28   45.30
  -3  -4   8  263.17   36.40
  -3  -4   8  255.67   43.00
  -3   4  -8  353.06   42.20
  -8   4   3  281.07   48.50
   8   3   4  318.37   52.49
   8  -3  -4  293.47   50.79
   3  -8   4  365.36   62.39
  -3   8   4  284.67   42.70
   4  -8  -3  353.86   55.09
   4   8   3  268.27   31.70
   3   8  -4  334.77   51.09
   3  -4  -8  279.07   47.90
   8  -4   3  210.38   48.50
  -4   4  -8 4940.31  304.27
  -4  -4   8 4846.72  301.87
  -8  -4  -4 4725.43  302.17
  -8  -4   4 4650.94  312.97
  -4   4  -8 4743.23  299.07
  -8   4  -4 4713.43  301.17
  -8   4   4 4429.26  306.57
  -4  -8  -4 4667.43  307.17
  -4  -8  -4 4570.74  302.67
   8  -4  -4 4898.21  309.27
   8  -4   4 4862.61  317.57
   4   4  -8 4584.44  302.07
   4   4   8 4513.95  303.87
   4   8  -4 4582.04  302.47
  -8  -4   4 4753.92  300.87
  -4  -8   4 4829.62  316.47
  -4  -4  -8 4868.01  306.67
  -4  -4   8 4870.71  302.07
   4   8   4 4764.52  296.07
   4  -8  -4 4588.04  305.07
   4  -4   8 4498.65  305.97
  -4   4   8 4640.04  310.37
  -4   8  -4 4869.11  303.47
  -4   8   4 5025.60  301.77
   4  -4  -8 5091.59  308.17
   4  -8   4 4775.02  318.57
   4  -8  -4 4638.14  303.07
   8   4   4 4676.43  310.77
   8  -5   0  763.02   76.99
  -5   8   0  776.92   66.09
   0  -5  -8  700.43   69.69
   0   8  -5  745.53   68.79
   8   0   5  717.53   70.79
  -8   0   5  669.73   68.39
  -5  -8   0  793.92   76.19
  -5   0   8  742.13   71.59
   0  -8  -5  632.44   66.49
   0  -8   5  731.03   76.99
  -8  -5   0  690.83   62.39
  -8   5   0  778.62   65.69
  -5   0  -8  603.34   63.79
  -5   0  -8  784.42   67.39
   8   0  -5  805.32   71.29
   0   8   5  623.64   62.99
   0  -5   8  720.23   68.49
   0   5  -8  752.62   68.89
   0   5   8  749.82   71.59
   5  -8   0  756.32   76.49
   5   8   0  715.73   64.49
  -8   0  -5  834.92   68.49
  -8  -5   0  749.82   76.09
   5   0  -8  853.01   69.89
  -8   1   5  604.24   65.09
  -8  -5   1  610.24   68.69
  -8  -5   1  684.23   57.09
   1   5  -8  620.64   61.79
  -5  -8  -1  648.74   67.59
  -1  -8   5  539.25   67.49
   8   1  -5  712.03   66.79
   5   8  -1  639.34   59.89
  -1   5   8  634.64   66.59
  -5   8   1  567.44   57.69
  -1  -5  -8  641.94   64.99
   8  -1   5  760.22   70.99
   8  -5  -1  735.63   73.09
  -1   8  -5  669.43   63.29
  -8   5  -1  656.43   59.39
   1  -8  -5  686.93   65.19
   5  -1  -8  723.63   63.59
   1  -5   8  790.02   67.49
   1   8   5  661.73   60.19
  -5   1  -8  654.63   61.19
  -8  -1  -5  661.93   61.09
  -5  -1   8  615.54   65.09
  -5   1  -8  560.44   58.49
   5  -8   1  742.63   74.69
  -5   1   8  643.84   66.79
  -8  -5  -1  631.24   68.09
   1  -5  -8  601.34   63.59
  -5  -1  -8  656.33   61.89
  -1  -8  -5  626.24   63.09
  -5  -1  -8  635.54   60.39
   8  -5   1  663.93   70.69
  -8  -1   5  541.65   60.59
   8  -1  -5  605.94   61.29
  -5  -8   1  479.05   63.69
   1   5   8  591.74   61.99
   5  -8  -1  674.23   69.69
   1   8  -5  558.14   60.89
  -1   5  -8  692.43   63.89
  -8   5   1  594.14   59.29
   1  -8   5  700.53   73.09
   5   8   1  692.23   61.29
  -5   8  -1  616.64   58.69
  -8   1  -5  490.25   55.79
   8   1   5  583.34   62.89
  -1   8   5  636.64   60.09
   5   1  -8  728.63   63.39
  -1  -5   8  702.73   63.89
  -8  -5  -1  639.74   57.49
   5  -8   2  168.58   44.00
  -2   8  -5  104.89   30.30
   8  -2   5  128.89   34.90
  -2  -8   5   64.59   28.90
  -8  -2  -5   49.80   20.50
   5   8  -2  161.38   34.30
   2  -5   8   53.99   26.60
   2   5  -8  115.29   29.60
   8   2  -5  130.49   37.10
  -8  -5   2   93.89   36.10
  -5   8   2   82.19   24.40
  -2  -5  -8  141.49   35.50
  -5  -2   8  122.29   33.90
  -8  -5   2   85.59   24.10
  -8   5  -2   86.09   24.10
  -5  -8  -2  107.59   33.50
  -8   2   5   45.30   24.40
   8  -5  -2  120.39   38.60
   5  -2  -8   50.59   23.20
  -5   2  -8  114.89   29.60
   2  -8  -5  129.09   33.80
  -2   5   8   56.39   26.50
   2   8   5   87.79   26.90
  -5   2  -8   62.49   24.60
  -5  -2  -8  105.39   29.90
  -8  -5  -2  145.59   30.30
  -8   5   2   93.19   30.40
   2  -8   5  192.68   46.30
  -8  -2   5  118.29   32.40
   2   8  -5  111.49   31.80
   2  -5  -8  115.79   35.20
   2   5   8  104.49   30.30
   5  -2   8   72.19   28.60
   5  -8  -2   72.69   24.10
  -5  -2  -8  154.18   34.20
   8  -5   2  190.28   47.00
   5  -8  -2  111.99   34.80
  -5   8  -2  153.18   31.80
  -5   2   8  120.59   34.60
  -2  -8  -5  177.28   37.70
   5   8   2  106.79   29.20
   8  -2  -5   98.59   31.20
  -2  -5   8  102.29   29.60
  -2   5  -8  120.39   29.50
   5   2  -8   96.59   27.70
  -2   8   5  124.29   28.60
  -8   2  -5  111.49   29.00
  -5  -8   2  168.18   44.50
   8   2   5   98.09   31.40
  -8   5  -3  744.33   68.39
  -8  -5   3  719.73   66.89
  -3   5   8  836.62   79.49
  -5   8   3  849.61   70.79
  -5  -3   8  756.12   69.69
  -5  -3   8  908.31   76.19
  -5  -8  -3  839.82   72.29
   8   5   3  805.82   78.99
  -8  -3  -5  733.73   70.89
   3  -5   8  770.92   74.49
   3  -5   8  925.01   74.29
  -3  -8   5  746.73   80.39
  -3   8  -5 1078.29   79.49
  -5  -8  -3  769.12   65.69
   3  -8  -5  860.91   75.99
   5  -8   3  840.92   85.49
   5   8  -3  806.12   71.79
  -3  -5  -8  801.32   75.39
   8  -3   5  896.71   84.89
   5  -3  -8  904.21   75.79
  -8  -5   3  730.63   79.49
   8  -5  -3  769.82   78.69
  -5   3  -8  898.61   73.89
  -5   3  -8  863.91   72.19
   3   5  -8  826.72   73.79
  -5  -8  -3  888.01   81.09
   3   8   5  812.62   69.29
  -8   3   5  804.82   77.99
  -5  -3  -8  779.42   72.59
   8   3   5  717.83   74.59
  -3   8   5  982.30   74.99
   5  -8  -3  807.62   71.39
   3  -8   5  789.72   82.39
   3   8  -5  865.41   75.59
  -8  -3   5  806.72   72.99
  -8   3  -5  830.12   71.39
  -8  -5  -3  939.81   72.79
   5   3  -8  824.22   71.59
  -5   3   8  838.02   78.69
   8  -5   3  897.21   86.79
  -3  -8  -5  746.83   72.59
  -8   5   3  932.01   78.89
   3   5   8  927.11   76.29
   5  -8  -3  767.82   76.99
   8  -3  -5  680.13   72.69
  -3  -5   8  796.82   73.29
  -5  -8   3  912.61   85.29
  -3   5  -8  833.22   74.09
   3  -5  -8  687.13   72.89
  -3  -8  -5  757.72   93.29
  -5  -3  -8  801.22   73.09
   5  -3   8  786.22   74.19
  -8  -3   5  738.03   75.29
  -5   8  -3  893.41   73.49
   8  -5  -4  162.68   41.30
  -8  -4  -5  123.89   31.70
   8   5   4  124.49   36.60
  -8   4   5  129.99   37.10
  -8  -5   4  217.48   49.20
   5  -4  -8  116.69   32.80
  -5  -8  -4  116.29   31.70
   8  -4   5  123.29   39.60
   5   8  -4  249.18   42.40
  -5   8   4  144.69   32.50
  -4  -5  -8  107.19   30.50
  -5  -8  -4  142.09   30.90
   4  -5   8  165.08   41.90
  -4   5   8  139.99   36.10
  -5  -8  -4  125.59   35.30
  -4   8  -5  218.08   40.80
  -5   4  -8  174.98   37.90
  -5  -4   8  217.28   41.30
  -5  -4   8   84.09   27.70
   4   8   5  153.88   33.60
  -8  -5   4  138.39   30.60
  -8   5  -4  131.79   29.50
   5  -8   4  178.48   47.90
   4  -8  -5  224.48   44.80
  -4  -8   5   78.09   31.90
  -5   4  -8  174.48   34.10
   4   5  -8  141.49   34.00
  -8  -5  -4  122.39   31.90
  -4   5  -8  184.48   37.60
   5  -8  -4  190.18   37.80
   4  -8   5  162.68   46.50
   8  -5   4  163.48   45.30
   5  -8  -4  231.58   46.90
   5   4  -8  140.89   33.70
  -5   4   8  201.38   46.10
  -4  -8  -5  173.58   41.10
  -4  -8  -5  188.08   40.60
  -5  -4  -8  117.79   31.90
   5  -4   8  198.38   43.00
  -5  -4  -8  141.09   35.70
  -8  -4   5  193.18   46.40
  -8  -4   5  155.18   34.10
  -8   4  -5  144.49   32.60
   4   5   8   94.39   29.80
   4  -5  -8  100.69   31.20
  -8   5   4  151.78   38.20
  -4   8   5  185.68   39.60
  -5  -8   4  194.28   44.00
  -5   8  -4  147.79   35.30
   8  -4  -5  188.68   43.00
   8   4   5  150.08   36.10
  -4  -5   8  128.79   34.70
   4   8  -5  174.18   36.30
   5  -8  -5  164.78   34.90
   5  -8   5   98.99   39.70
   8   5   5   67.29   32.70
   5   8   5  135.99   32.20
   5   5  -8   77.39   25.90
  -5  -8   5  199.08   49.30
  -5  -5  -8  101.39   31.80
  -5   8   5   71.69   28.70
   5  -5   8   71.49   31.40
  -5  -8  -5  136.19   31.70
  -8   5  -5   85.99   24.70
  -5   5   8  177.28   45.00
  -5  -5   8  182.08   44.00
  -5   5  -8  175.58   36.20
  -5   5  -8  107.09   32.70
   5  -5  -8  118.89   31.80
  -5   8  -5   90.49   29.30
  -5  -8  -5  149.39   39.00
   5   5   8  110.99   31.70
   5   8  -5  183.28   39.60
  -8  -5  -5  140.19   34.70
  -8  -5   5  129.09   42.20
  -8  -5   5  196.68   38.60
   8  -5   5  108.49   40.00
  -8   5   5  142.09   37.10
   8  -5  -5  161.88   40.10
  -8   0   6  227.28   46.50
  -6  -8   0  142.69   43.00
  -6   8   0  166.18   33.90
  -8   0  -6  189.58   38.50
  -8   6   0  287.27   42.00
   0   6   8  194.58   43.30
   6  -8   0  229.28   49.10
   6   8   0  234.28   40.10
  -8  -6   0  214.68   48.30
  -8  -6   0  203.58   35.50
  -6   0  -8  215.68   40.60
  -6   0  -8  150.48   34.40
   8  -6   0  242.28   52.59
   0  -8  -6  167.78   39.00
   0  -8   6  128.59   40.80
   0   8  -6  227.98   47.00
   0   8   6  229.28   44.90
   0  -6   8  224.18   45.30
  -6   0   8  280.47   50.59
   8   0   6  177.98   43.80
   8   0  -6  253.77   45.60
   0   6  -8  218.88   43.20
   0  -6  -8  216.88   45.10
   6   0  -8  160.28   36.60
  -6  -1   8  394.56   60.59
  -6   1  -8  261.47   43.70
   6   8  -1  245.98   41.40
   1  -6   8  286.27   52.69
   6  -8   1  213.18   49.20
  -8  -6   1  152.48   33.00
  -8   1   6  248.48   48.00
   1  -8  -6  264.57   46.20
  -1   6   8  204.18   46.20
   8   1  -6  225.78   44.80
   1   6  -8  286.57   52.59
  -8  -6   1  254.37   52.69
  -1  -6  -8  371.96   56.69
  -8   6  -1  281.67   43.00
   6  -1  -8  252.27   43.40
   8  -1   6  307.87   54.09
  -6   1  -8  182.28   38.50
   8  -6  -1  218.28   52.89
  -6  -8  -1  261.87   55.79
  -1   8  -6  216.58   43.20
  -8  -1  -6  271.27   45.60
  -1  -8   6  193.58   48.60
   1   8   6  275.97   47.60
  -6   8   1  182.98   34.20
  -6   8   1  225.98   39.50
  -6  -8   1  282.97   55.69
  -6   8  -1  236.68   41.80
   6  -8  -1  327.97   61.09
  -6  -1  -8  374.36   55.89
   1   6   8  266.47   47.80
  -8   1  -6  230.08   41.40
   6   1  -8  340.27   49.40
  -8  -1   6  297.17   51.39
   1  -6  -8  176.98   40.50
  -6   1   8  374.56   59.99
   8  -6   1  293.37   57.29
  -1  -8  -6  302.57   51.39
   1  -8   6  185.78   48.50
  -1   8   6  333.67   52.09
  -8  -6  -1  281.47   54.59
   8   1   6  289.37   52.39
   6  -1   8  319.57   55.49
   8  -1  -6  252.87   46.10
   1   8  -6  346.77   53.99
  -8  -6  -1  247.48   40.00
   6   8   1  302.97   45.30
  -8   6   1  309.77   47.00
  -1   6  -8  219.58   45.10
  -1  -6   8  239.48   46.30
  -6  -1  -8  236.78   42.60
  -6   8   2  180.18   37.30
   2  -6   8  210.88   47.00
   2  -8  -6  151.58   38.10
  -6   8   2  268.87   42.50
  -2   6   8  133.69   38.10
  -6  -2   8  167.48   39.40
  -6   2  -8  131.99   33.40
   2   6  -8  271.27   47.90
   8  -6  -2  134.19   39.00
  -8  -2  -6  167.58   34.80
   6  -8   2  215.38   50.49
  -8  -6   2  207.78   49.80
  -8   2   6  189.48   42.70
  -6  -8  -2  110.39   36.70
   2   8   6  161.38   34.50
   6  -2  -8  203.08   39.00
  -2  -8   6  116.99   35.60
  -2   8  -6  156.38   35.10
  -2  -6  -8  184.08   41.30
  -6   2  -8  134.39   33.00
   6   8  -2  297.27   45.60
   8  -2   6  102.59   33.00
   8   2  -6  153.28   38.00
  -8   6  -2  225.48   37.90
  -8  -6   2  133.39   28.50
   2   6   8  255.87   48.90
   6  -8  -2  323.67   57.49
  -8  -2   6  143.39   35.90
  -2   6  -8  176.08   37.20
  -8  -6  -2  188.08   47.50
   8  -2  -6  157.28   35.90
  -2   8   6  205.08   42.00
  -2  -8  -6  131.19   36.40
   2  -8   6  136.89   42.10
  -6   8  -2  163.08   34.20
  -8   6   2  173.18   38.00
   8   2   6  181.58   38.60
  -6   2   8   81.69   34.50
  -8   2  -6  146.39   35.40
   6   8   2  285.57   44.60
  -6  -2  -8  190.68   37.50
   8  -6   2  183.58   46.80
   6   2  -8  183.98   36.30
   2   8  -6  197.08   41.10
  -6  -8   2  151.88   44.20
  -6  -2  -8  162.28   37.20
   6  -2   8  143.49   35.80
  -8  -6  -2  183.08   36.00
   2  -6  -8  157.88   38.80
  -2  -6   8  179.48   39.30
  -3   6   8   35.50   23.60
  -6  -3   8   17.30   18.70
  -3   8  -6  123.39   33.20
  -6   3  -8  138.09   31.70
   3  -8  -6  128.09   35.80
  -8  -3  -6   85.39   29.20
   8  -3   6  112.79   36.10
  -6  -3   8  128.39   33.00
  -3  -8   6  134.39   40.60
  -6  -8  -3  124.09   35.70
  -6  -8  -3   45.70   21.40
  -8  -6   3   84.29   33.90
  -8  -6   3  106.69   39.30
  -8   6  -3   59.99   26.00
  -6   8   3   63.89   26.30
  -3  -6  -8  123.09   34.00
  -8   3   6   37.70   24.90
   3   8   6  172.88   36.50
   6  -3  -8  103.69   31.60
   3  -6   8  102.29   36.90
   8  -6  -3  152.78   41.60
   6  -8   3  146.29   39.10
   3   6  -8   62.69   27.20
   6   8  -3   84.79   26.90
  -6   3  -8   90.29   27.30
  -6  -3  -8   77.19   27.70
  -6  -3  -8   86.79   27.90
   3  -8   6   82.19   33.80
  -3  -8  -6   94.19   33.60
  -3  -6   8   72.99   27.60
  -8   3  -6   84.09   27.20
  -8   6   3  106.49   32.10
   6  -8  -3   91.09   31.90
   6  -8  -3   92.19   27.10
   8  -6   3  101.19   37.10
  -3   8   6  108.99   32.40
   8  -3  -6   93.99   33.10
   3   6   8  133.49   37.90
   3   8  -6  113.39   31.80
  -8  -6  -3  114.49   34.80
  -8  -6  -3  117.19   29.50
   6  -3   8   74.19   27.80
   6   3  -8  116.69   29.80
  -3   6  -8   87.89   30.90
  -6   3   8  115.39   33.90
   3  -6  -8   70.89   30.50
  -6  -8   3   86.69   33.40
  -8  -3   6  124.99   35.80
  -6   8  -3  155.78   34.30
   8   3   6   37.20   23.60
   6  -8   4 1159.58  105.19
  -6  -4   8 1025.10   89.39
   4  -6   8 1082.79   95.59
   6   8  -4 1018.20   85.89
  -4   8  -6  987.50   87.49
   8  -4   6  974.80   95.49
  -6  -8  -4 1118.79   83.89
  -6  -8  -4  970.10   84.89
   8  -6  -4  913.11   91.09
   4   8   6 1020.20   84.09
  -8  -6   4 1028.30   99.39
  -8   6  -4 1023.60   83.69
  -4  -8   6  821.22   91.49
   4   6  -8 1038.60   89.39
   8   6   4 1084.49   95.79
   4  -8  -6  942.01   88.99
  -6  -8  -4  907.71   91.89
  -6   4  -8 1084.19   86.59
  -4   6   8 1097.49   95.09
  -6   8   4 1036.80   87.99
  -6  -4   8 1019.20   86.89
  -4  -6  -8 1258.77   96.79
  -6   4  -8 1077.29   86.69
  -8  -4  -6  940.81   86.69
  -8   4   6  915.01   91.09
  -6  -8   4 1145.29  100.79
   6  -8  -4  931.01   84.09
  -8  -4   6 1160.78   88.89
  -8  -4   6 1096.49   95.79
   4  -8   6 1007.40   98.59
   4   8  -6 1175.28   91.09
   6  -8  -4 1016.80   92.19
  -6   8  -4 1050.29   85.59
  -4   8   6  982.50   87.59
   8   4   6  966.80   89.79
   4   6   8 1152.38   91.09
   8  -6   4 1016.80   99.69
  -8  -6  -4 1036.50   86.49
  -4  -6   8 1074.99   92.59
  -4   6  -8 1088.99   89.99
  -6  -4  -8 1001.70   88.39
  -6  -4  -8 1034.10   87.39
   4  -6  -8  852.91   87.89
   6   4  -8 1200.18   88.69
  -8   6   4  786.42   85.29
  -4  -8  -6 1009.50   89.29
  -6   4   8 1037.30   94.99
  -8   4  -6 1079.09   86.79
   6  -4   8 1084.79   94.59
   6  -5  -8   26.20   22.00
  -5   8  -6   59.69   28.10
  -6   5  -8   24.00   20.70
  -6  -5   8   25.90   24.30
  -8  -5  -6   55.99   24.60
   6  -8   5   15.90   26.30
   8  -6  -5   64.69   32.60
  -8   6  -5   52.89   21.60
   5  -8  -6    9.10   22.20
   8   6   5   56.99   30.50
  -8  -6   5   12.60   21.30
  -6  -8  -5   47.60   21.10
  -5   6   8   58.09   27.00
   6   8  -5   73.29   26.70
  -6   5  -8   57.39   26.70
   5   6  -8    4.40   17.20
  -6   8   5   29.50   22.10
   5   8   6   60.69   25.80
   5  -6   8   15.30   25.60
  -5  -8   6    6.10   23.50
   8  -5   6    1.80   21.80
  -8   5   6   50.99   25.00
  -6  -8  -5    7.70   25.10
  -5  -6  -8   43.30   27.30
  -6  -8  -5   44.60   22.10
   6  -5   8   54.09   30.10
   5   8  -6   28.20   22.40
   5   6   8   29.40   23.70
   5  -8   6   67.79   34.80
  -6  -8   5   40.10   25.90
   5  -6  -8   60.89   26.40
  -8  -6  -5    3.40   16.10
  -6   5   8    1.10   22.70
   8  -6   5    4.00   24.40
  -5   6  -8   17.10   22.40
  -8  -5   6   60.09   29.30
  -6   8  -5   33.20   23.60
  -8   5  -6   49.99   25.90
   8   5   6   57.39   26.30
  -5  -8  -6   17.30   22.60
  -5   8   6   28.80   22.50
  -6  -5  -8    4.80   20.40
  -5  -6   8   47.70   24.20
   6   5  -8   71.99   26.70
  -8   6   5   65.59   30.50
  -8  -5   6   53.39   30.90
   6  -8  -5   34.10   22.80
  -6  -5  -8   75.39   28.40
  -8  -6  -6   40.20   25.50
   6  -6   8    4.70   23.40
  -6   8  -6   34.80   24.10
   6  -6  -8    7.60   22.20
   6   6  -8   11.50   18.00
  -6  -8  -6   41.20   21.50
  -8  -6   6   18.10   26.60
  -6  -6   8  -20.30   19.50
   6  -8   6    8.50   23.80
   6   6   8   11.20   23.00
  -6   8   6    7.90   18.50
  -6  -6  -8   27.60   27.40
   6  -8  -6    6.10   20.80
  -6   6  -8   29.40   23.90
  -6   6   8   15.10   21.90
   6   8   6   21.30   21.00
  -6  -8   6   25.80   24.20
  -8   6   6   -0.80   21.80
   8  -6   6   16.70   27.10
   6   8  -6    8.10   18.10
   0   7   8    8.20   19.40
  -7   0   8   18.20   22.50
   8   0  -7   44.90   33.30
  -8   0  -7   22.30   20.70
  -8   0   7   14.80   20.20
  -7  -8   0   45.70   30.80
   0  -7  -8   12.10   20.80
   0  -8   7   17.30   25.00
  -8   7   0   18.50   20.40
   0  -8  -7   16.60   21.90
   7  -8   0   20.70   25.40
   7   8   0   47.10   22.00
   8   0   7   21.40   24.30
  -7   0  -8   10.90   18.00
   0  -7   8   -5.60   20.70
   0   7  -8   27.90   21.40
   8  -7   0    0.20   19.30
  -8  -7   0   24.50   23.00
   7   0  -8   22.20   19.10
   0   8  -7    2.60   18.70
   0   8   7   20.20   19.60
  -7  -1   8   36.10   22.90
   8  -1   7    8.80   21.00
  -1   8  -7   24.00   21.50
  -8   7  -1   53.69   20.60
  -8   1   7   -0.70   19.80
  -7  -8  -1   -8.90   21.00
   1  -8  -7   37.90   23.90
  -7   8   1   45.30   21.10
   7  -1  -8    7.30   16.60
   1   7  -8    5.40   19.10
  -7   1  -8   -4.60   15.30
   8  -7  -1   21.80   25.20
   1   8   7   24.10   23.50
  -8  -7   1  -23.30   11.80
   8   1  -7    6.70   21.90
  -1  -8   7    0.20   24.30
  -8  -1  -7    6.70   16.50
   7   8  -1   44.30   22.40
  -1  -7  -8   71.29   29.80
   1  -7   8   -2.10   21.10
  -1   7   8   19.70   20.70
   7  -8   1   20.00   24.40
   1  -8   7    9.90   25.20
   1   8  -7   22.20   23.70
  -1  -7   8   -1.50   19.90
  -8  -1   7    8.30   20.00
   7  -1   8   21.60   24.20
   1   7   8   14.70   25.00
   7  -8  -1   51.59   29.10
   7   1  -8   30.40   21.40
   1  -7  -8   55.89   28.30
   7   8   1   47.20   22.20
   8  -7   1   24.10   24.00
  -8   1  -7   17.60   19.10
  -1   7  -8   46.20   22.60
  -8   7   1   22.80   23.70
  -7  -1  -8   21.60   22.90
   8   1   7   22.90   23.80
  -7  -8   1   18.50   23.50
  -7   1   8   51.09   28.50
  -1  -8  -7   37.30   22.50
  -8  -7  -1    3.70   14.30
  -8  -7  -1   17.20   26.40
  -1   8   7  -10.70   15.90
   8   2  -7  354.56   50.09
   8  -2   7  542.45   60.09
   7  -2  -8  488.35   52.59
  -8  -2  -7  411.26   49.80
  -2  -8   7  354.06   63.99
   8  -7  -2  361.26   62.89
  -2   8  -7  541.55   57.39
   2  -7   8  425.26   69.79
   2   7  -8  418.36   51.09
  -7   2  -8  429.96   49.70
   7   8  -2  412.66   46.80
   7  -8   2  512.15   82.69
  -7   8   2  374.96   46.50
   2   8   7  399.86   49.70
  -2  -7  -8  330.67   58.89
  -8  -7   2  447.56   60.29
  -8   7  -2  365.76   43.70
  -8   2   7  315.67   58.49
   2  -8  -7  381.86   62.39
  -7  -2   8  460.85   54.89
  -2   7   8  326.27   56.29
  -7  -8  -2  384.66   66.19
  -8   7   2  394.16   48.70
   7   8   2  436.96   47.50
   8   2   7  386.36   50.79
  -8  -7  -2  451.95   47.10
   2   7   8  400.76   50.29
   7  -8  -2  536.55   62.89
  -7  -8   2  458.35   60.39
   8  -7   2  481.25   62.69
  -2   8   7  366.26   58.99
  -7  -2  -8  397.46   49.80
   2  -8   7  481.85   76.59
   7  -2   8  457.45   54.89
   7   2  -8  467.35   50.09
  -8  -7  -2  235.48   54.99
   2  -7  -8  285.67   53.49
   2   8  -7  360.86   61.59
  -2   7  -8  491.15   54.59
  -2  -7   8  426.96   54.79
  -2  -8  -7  463.45   55.79
  -8  -2   7  420.46   62.99
  -8   2  -7  337.87   55.39
  -7   2   8  438.36   68.59
   8  -3   7    9.00   24.00
   3   8   7  -15.20   13.90
  -7  -3   8   32.70   27.80
  -7  -3   8    6.70   19.70
  -7   3  -8  -11.80   14.70
  -7   8   3   10.30   19.60
  -8  -7   3   -2.10   17.80
   7   8  -3   -7.20   15.60
  -8   3   7  -32.00   17.10
  -7  -8  -3   42.90   26.50
   7  -3  -8  -10.70   19.00
  -3   8  -7    3.20   19.20
   3  -7   8    2.30   23.50
   3   7  -8   23.30   21.90
  -8  -3  -7   -5.80   15.90
   7  -8   3   13.70   23.50
   8  -7  -3   21.00   24.10
  -3  -8   7   19.90   24.70
  -3   7   8   31.30   24.30
  -3  -7  -8    7.00   18.30
   8   3  -7   13.70   21.90
   3  -8  -7    9.20   18.40
  -3   8   7   21.50   22.30
  -7   3   8  -21.80   14.00
   3   8  -7  -11.10   15.30
   8  -7   3   -4.50   22.90
  -7  -8   3    2.40   21.50
   7  -3   8    9.30   21.30
  -3  -8  -7   20.30   20.90
   3  -8   7    7.60   26.90
  -8  -7  -3   11.90   26.00
  -8  -7  -3   -2.00   15.00
  -8  -3   7   -0.40   17.30
  -8   7   3   -1.90   15.20
  -3   7  -8   18.90   20.10
   7   8   3   -3.40   17.40
   7   3  -8   10.50   18.80
  -7  -3  -8    4.60   16.10
   3   7   8   13.30   17.20
  -3  -7   8    0.10   21.10
  -8   3  -7   16.70   19.50
   7  -8  -3   19.40   27.70
   3  -7  -8   31.10   22.00
  -7  -8  -4  249.38   55.29
  -8  -7   4  227.28   53.89
  -7  -8  -4  208.08   40.40
  -4   7   8  348.87   59.59
  -7   4  -8  316.67   50.29
  -7  -4   8  283.97   51.49
   4   7  -8  276.67   49.70
  -4  -8   7  248.98   56.99
   8  -4   7  292.97   58.79
  -8   4   7  281.27   54.69
  -4   8  -7  161.98   40.10
  -8  -4  -7  348.27   54.29
   4  -8  -7  273.87   56.29
  -7   8   4  303.77   51.59
  -4  -7  -8  300.17   55.89
   4   8   7  363.96   54.69
  -7  -8  -4  289.87   48.00
   7   8  -4  270.77   46.00
   4  -7   8  248.48   52.09
  -7  -4   8  157.58   42.90
   7  -4  -8  149.69   39.00
   7  -8   4  138.59   45.10
   8  -7  -4  330.07   59.89
   4   8  -7  233.58   46.80
  -4   8   7  250.27   47.20
  -8  -4   7  177.68   44.20
   4   7   8  268.67   49.00
   7  -8  -4  335.77   60.39
   7  -8  -4  280.67   66.39
   4  -8   7  366.26   68.89
  -8  -7  -4  290.47   46.60
  -4  -8  -7  417.06   61.99
  -8   7   4  228.78   46.60
  -7  -4  -8  257.37   48.70
  -4   7  -8  361.76   56.39
  -8   4  -7  334.27   52.09
   4  -7  -8  244.98   50.99
  -7   4   8  197.78   49.40
  -7  -8   4  286.97   57.09
   7  -4   8  188.18   46.00
   7   4  -8  211.18   42.60
  -4  -7   8  265.67   54.59
   8  -7   4  222.58   56.39
  -8  -4   7  415.76   58.49
   5  -8  -7    2.30   19.60
  -7   8   5  -12.40   17.30
  -5   7   8    3.10   20.30
   5   8   7   -5.20   20.40
   7  -5  -8   29.80   23.70
   5  -7   8   24.00   24.70
   5   7  -8   36.60   24.40
  -5  -8   7   11.70   27.20
   8   7   5   12.60   20.40
   7  -8   5   21.80   30.50
   7   8  -5    5.30   23.10
   8  -5   7   10.00   25.50
  -7  -8  -5    6.00   18.80
  -8  -5  -7   18.30   21.30
  -5  -7  -8  -13.80   19.40
  -5   8  -7    9.50   21.60
  -8   5   7  -23.00   16.00
  -8  -7   5    1.30   19.80
  -7  -8  -5   18.30   26.80
  -7  -8  -5   -6.50   24.00
  -7  -5   8   31.60   26.80
  -7   5  -8    9.70   20.40
  -8  -5   7    7.20   26.20
   5  -8   7    6.00   24.60
  -5   7  -8  -18.20   18.80
   5   8  -7   42.60   26.30
   5  -7  -8   -2.70   21.30
   7  -5   8    3.30   24.50
   7   5  -8    7.50   19.20
   5   7   8    2.60   21.80
   7  -8  -5    2.80   19.00
  -7  -5  -8    8.00   21.00
  -7  -8   5   24.40   29.80
  -8   7   5   32.30   26.30
  -5   8   7   34.10   28.00
  -5  -8  -7    1.00   18.80
  -5  -7   8   26.80   25.40
   8  -7   5   -4.50   18.90
  -8   5  -7  -19.30   17.90
  -8  -7  -5  -19.20   15.20
  -7   5   8   48.50   28.40
   8  -6   7  187.48   52.89
   7  -8   6  146.09   49.50
   7   8  -6  156.38   41.80
  -8  -6  -7  209.28   45.00
   6   7  -8  203.98   46.60
  -8   6   7  251.57   54.09
  -7  -8  -6  267.37   49.10
   6   8   7  320.17   54.39
  -7   8   6  213.18   49.20
  -6  -7  -8  251.97   49.99
   6  -7   8  107.49   43.50
   6  -8  -7  312.37   55.59
  -6   7   8  287.37   56.59
  -6   8  -7  249.97   46.50
  -6  -8   7  273.27   58.09
   7  -6  -8  194.68   46.10
  -7  -6   8  210.18   49.20
  -8  -7   6  179.58   51.59
  -7  -8   6  340.07   67.29
  -6  -7   8  291.47   59.79
  -8   7   6  277.87   55.39
  -8  -6   7  236.28   51.99
   6   7   8  235.38   49.30
  -7   6   8  177.68   45.70
  -6  -8  -7  329.87   57.09
   7  -8  -6  209.58   43.80
   6  -7  -8  187.38   45.10
  -6   8   7  129.39   41.90
  -6   7  -8  243.28   44.90
   6  -8   7  188.68   57.19
   6   8  -7  260.07   50.69
  -8  -7  -6  288.97   51.19
  -7  -6  -8  254.07   47.40
   7  -6   8  218.98   54.59
   7   6  -8  242.98   46.10
   8  -7   6  218.78   56.49
  -8  -7  -7   12.60   22.90
  -8  -7   7   25.40   30.50
  -8   7   7  -14.90   21.70
  -7  -8   7   -2.60   27.40
  -7  -7   8   -8.20   22.90
  -7   7   8    7.00   24.60
  -7   8   7    4.00   24.90
   7  -8  -7    5.00   25.00
   7  -8   7  -17.80   24.10
   7  -7  -8   25.90   28.10
   7  -7   8    2.70   32.20
   7   7  -8   -3.10   19.70
   7   7   8   -4.20   24.20
   7   8  -7   -5.30   21.30
   7   8   7    3.60   23.80
   8  -7   7  -20.00   22.60
  -8  -8   0 2728.43  221.68
  -8   0  -8 3118.89  213.38
   0  -8  -8 2901.41  216.98
   0  -8   8 3394.36  226.28
   0   8  -8 3122.19  216.08
   0   8   8 3332.07  216.98
   8  -8   0 2935.91  224.08
  -8  -8  -1  -16.80   16.90
  -8  -8   1    2.00   19.30
  -8  -1  -8   10.20   20.90
  -8  -1   8   14.50   21.40
  -8   1  -8   18.90   18.40
  -8   1   8   37.60   27.90
  -8   8   1   -2.00   20.00
  -1  -8  -8   -5.70   21.50
  -1  -8   8   17.40   26.70
  -1   8  -8   10.10   21.10
  -1   8   8    0.50   21.50
   1  -8  -8  -16.30   17.80
   1  -8   8  -27.30   20.80
   1   8  -8   -3.70   19.80
   1   8   8   -6.90   19.90
   8  -8  -1   26.30   22.70
   8  -8   1   12.60   25.60
   8  -1   8    4.70   22.70
  -8  -8  -2  141.69   44.50
  -8  -8   2  229.28   53.89
  -8  -2  -8  145.29   38.00
  -8  -2   8  184.98   42.00
  -8   2  -8  226.48   43.10
  -8   2   8   73.39   34.00
  -8   8   2  214.28   43.20
  -2  -8  -8  189.08   45.20
  -2  -8   8  185.88   47.50
  -2   8  -8  149.88   37.80
  -2   8   8  237.78   48.80
   2  -8  -8  244.68   50.79
   2  -8   8  205.68   50.29
   2   8  -8  137.39   36.70
   2   8   8  137.39   37.40
   8  -8  -2  197.78   49.99
   8  -8   2   92.29   42.00
   8  -2   8  191.78   45.00
  -8  -8  -3   -9.80   25.10
  -8  -8   3  -14.20   23.20
  -8  -3  -8  -14.00   14.60
  -8  -3   8   13.00   25.30
  -8   3  -8    6.40   16.30
  -8   3   8   22.70   22.60
  -8   8   3   -9.50   19.00
  -3  -8  -8   -2.70   19.50
  -3  -8   8    8.00   22.20
  -3   8  -8   26.00   23.00
  -3   8   8    1.80   22.60
   3  -8  -8   12.20   23.80
   3  -8   8   -2.20   23.60
   3   8  -8   17.20   18.30
   3   8   8   -6.80   19.00
   8  -8  -3   15.90   26.30
   8  -8   3    0.10   24.10
   8  -3   8   15.30   25.30
  -8  -8  -4 1559.04  140.19
  -8  -8  -4 1931.11  131.39
  -8  -8   4 1639.24  146.49
  -8  -4  -8 1707.83  135.49
  -8  -4   8 1712.43  136.39
  -8  -4   8 1662.23  132.39
  -8   4  -8 1912.91  135.19
  -8   4   8 1696.03  142.09
  -8   8   4 1483.85  131.59
  -4  -8  -8 1692.03  137.39
  -4  -8   8 1698.13  142.89
  -4   8  -8 1757.72  135.89
  -4   8   8 1793.92  138.39
   4  -8  -8 2009.40  144.09
   4  -8   8 1694.23  143.79
   4   8  -8 1777.32  136.19
   4   8   8 1833.42  135.39
   8  -8  -4 1747.13  141.79
   8  -8   4 1512.55  144.89
   8  -4   8 1794.12  145.19
  -8  -8  -5   27.50   23.60
  -8  -8   5  -21.10   27.30
  -8  -5  -8   18.00   22.60
  -8  -5   8   -3.80   22.50
  -8   5  -8   22.40   25.50
  -8   5   8    4.40   26.30
  -8   8   5    9.50   23.10
  -5  -8  -8  -22.70   22.20
  -5  -8   8   42.20   31.20
  -5   8  -8   -5.80   22.00
  -5   8   8   29.20   26.50
   5  -8  -8  -17.30   21.00
   5  -8   8   37.90   29.60
   5   8  -8    2.50   20.10
   5   8   8   34.20   27.20
   8  -8   5   -6.70   27.60
   8  -5   8   30.70   30.60
   8   8   5    4.10   28.70
  -8  -8  -6  775.62   79.49
  -8  -8   6 1087.19  103.29
  -8  -6  -8 1000.30   88.39
  -8  -6   8  855.51   92.59
  -8   6   8  860.81   89.39
  -8   8   6  899.71   87.39
  -6  -8  -8  824.42   84.89
  -6  -8   8  824.22   92.49
  -6   8  -8  888.01   86.29
  -6   8   8 1018.70   92.09
   6  -8  -8  855.31   86.59
   6  -8   8  774.52   91.69
   6   8  -8  798.22   82.49
   6   8   8 1009.10   87.99
   8  -8   6  541.15   99.99
   8  -6   8  884.61   95.69
  -8  -8  -7   -7.80   21.20
  -8  -8   7  -19.60   24.80
  -8  -7  -8    7.50   25.90
  -8  -7   8    0.20   26.20
  -8   7   8    9.00   25.80
  -8   8   7  -15.80   20.60
  -7  -8   8   40.00   35.60
  -7   8   8   24.80   25.00
   7  -8  -8    4.60   31.30
   7  -8   8  -15.50   26.90
   7   8  -8   -0.10   23.50
   7   8   8   29.20   28.70
   8  -8   7   21.60   28.20
   8  -7   8   -4.70   24.80
  -8  -8   8   88.99   39.30
  -8   8   8   39.00   34.60
   8  -8   8   61.29   46.80
   8   8   8  113.59   43.30
  -9   0   0    9.30   11.80
   0  -9   0   12.60   17.90
   0   0  -9  -10.10   12.60
   0   0   9   17.10   18.30
   0   9   0   18.40   16.70
   9   0   0   12.50   20.60
  -9   0  -1   29.20   18.90
  -9   0   1   12.60   17.50
  -1  -9   0   14.00   20.30
  -1   9   0   -0.90   12.00
   0  -1  -9    9.90   14.30
   0  -1   9   49.00   24.60
   0   1  -9    2.70   14.50
   0   1   9   -5.00   15.70
   1  -9   0   21.10   20.70
   1   9   0    4.20   16.10
   9   0  -1   -3.30   14.40
   9   0   1    1.70   14.70
   1   0   9   30.50   19.20
   9  -1   0   14.70   18.60
   9   1   0   26.10   21.50
   1   0  -9  -11.40   15.40
   0   9   1   21.00   15.80
   0  -9   1    8.40   17.20
   0   9  -1   29.30   19.10
  -1   0   9   28.00   21.00
  -9  -1   0   22.70   16.40
  -9   1   0    2.80   13.40
  -1   0  -9   -0.60   14.20
   0  -9  -1   18.40   22.20
  -1   1   9   29.40   22.50
  -1  -1   9   -5.40   19.20
  -1   1  -9  -11.00   11.20
  -1  -1  -9   12.70   18.50
  -1  -9   1    1.90   16.80
  -9   1  -1   -3.10   12.50
  -9   1   1   -9.00   12.10
  -1  -9  -1   -4.40   18.10
   9   1  -1    8.70   16.60
   9   1   1    4.80   17.40
   9  -1  -1   46.60   25.70
   9  -1   1   10.40   17.10
  -9  -1  -1   15.10   13.30
  -1   9  -1    0.20   13.80
  -1   9   1   -1.10   12.20
   1  -9  -1    5.00   17.80
   1  -9   1   29.70   22.10
   1  -1  -9    7.40   16.50
   1  -1   9    4.00   18.60
   1   1  -9   -9.90   12.60
   1   1   9    4.50   16.10
   1   9  -1   -2.10   13.40
   1   9   1    6.40   15.30
  -9  -1   1   -5.20   13.00
  -9   0   2   38.60   20.70
  -2  -9   0  147.59   39.80
  -9   0  -2   45.80   23.30
   0  -2  -9   64.59   24.00
   0  -2   9   39.10   25.70
   0   2  -9   91.49   30.90
   0   2   9   91.49   29.20
   2  -9   0   48.50   29.80
   2   9   0  100.79   29.50
   9   0  -2   90.89   34.10
   9   0   2   95.09   34.40
   0   9  -2  108.89   30.80
   2   0  -9   57.59   24.40
   2   0   9   52.39   22.70
   9  -2   0   89.99   33.00
   9   2   0   65.19   27.80
  -2   0  -9   84.89   27.90
  -2   0   9   83.09   31.80
   0  -9  -2  168.28   40.70
  -2   9   0    7.10   15.70
   0  -9   2   75.99   32.20
  -9   2   0   43.80   20.90
  -9  -2   0  100.79   27.90
   0  -9  -2   88.29   27.10
   2  -1  -9  314.77   51.29
   1   2  -9  408.16   47.10
   2   9  -1  394.86   57.79
  -2   1  -9  400.66   46.80
   1  -9  -2  355.16   53.29
   1  -2   9  318.57   51.59
   9  -1   2  397.06   63.69
  -9  -1  -2  329.37   41.90
  -9  -2   1  307.77   49.90
  -1  -2  -9  357.96   55.69
   2   1   9  482.35   51.29
   9  -2  -1  417.36   64.89
  -9   1   2  370.26   55.49
  -2  -9  -1  377.36   62.29
  -1  -9   2  367.56   63.29
  -2  -1   9  440.66   51.09
   9   1  -2  456.95   52.39
  -1   9  -2  353.96   44.20
  -1   2   9  444.16   51.39
   2  -9   1  405.86   67.49
   9   2   1  339.27   47.70
  -9   2  -1  324.07   41.70
   1  -9  -2  336.37   46.40
  -2   9   1  343.77   43.70
  -9   1  -2  413.76   45.00
  -1   2  -9  321.87   51.19
   1   2   9  350.86   54.29
   2  -1   9  351.56   53.79
  -1  -9  -2  328.97   42.80
  -2  -9   1  370.36   63.69
   2  -9  -1  429.16   66.29
  -1  -2   9  455.75   63.19
  -9  -1   2  381.16   44.10
  -2   9  -1  279.97   49.10
  -2   1   9  442.36   52.59
   9  -1  -2  449.36   52.69
   1  -2  -9  446.26   49.60
   9   2  -1  392.16   51.29
   9   1   2  491.15   54.29
  -9   2   1  350.26   43.50
  -1  -9  -2  347.57   48.50
   1  -9   2  387.66   66.49
   1   9  -2  378.86   57.19
   2   9   1  442.46   47.70
   2   1  -9  362.36   45.60
  -2  -1  -9  364.76   46.20
  -9  -2  -1  338.87   42.10
   9  -2   1  366.96   50.59
   2   9  -2   -7.20   12.60
  -9   2   2    8.40   16.60
   9   2   2  -23.10   14.00
   9   2  -2   32.10   21.90
   2   2   9    5.80   15.50
  -9   2  -2   15.70   14.40
   2  -2   9   13.10   18.80
   2   2  -9   -6.70   14.60
  -2  -9  -2    5.80   15.60
  -2  -9   2   13.70   21.30
  -2  -2  -9   -0.50   16.50
  -2  -2   9   -5.40   17.10
  -2   2  -9   15.70   19.50
  -2   2   9   18.30   16.20
  -2   9  -2   10.00   17.40
   2  -9  -2   -7.20   16.60
   2  -9  -2   16.20   17.60
   2  -9   2  -10.40   14.90
   2  -2  -9   26.50   18.60
  -9  -2  -2    0.90   13.60
  -9  -2   2    5.50   14.80
  -2  -9  -2    0.30   17.60
   9  -2   2    9.50   21.20
   9  -2  -2    4.10   16.80
  -3   9   0  602.94   62.59
  -9   0  -3  740.03   66.39
  -9   0   3  719.13   66.99
   3   0  -9  687.23   66.19
   3   0   9  589.14   64.39
  -3  -9   0  647.24   72.09
   9   0  -3  724.23   71.39
   9   0   3  680.73   70.29
   9   3   0  700.83   72.89
   0   3  -9  661.23   66.09
   0   3   9  650.53   67.79
   3  -9   0  718.33   73.39
  -9  -3   0  742.03   63.59
  -9   3   0  629.44   63.19
  -3   0  -9  613.94   65.69
  -3   0   9  748.23   72.09
   0  -9  -3  778.32   71.49
   0  -9  -3  751.92   66.79
   0  -9   3  703.73   75.89
   0   9  -3  720.43   66.79
   0  -3   9  664.43   66.39
   3   9   0  710.53   66.49
   9  -3   0  676.83   72.49
   0  -3  -9  752.42   70.19
   9   3   1   40.30   24.00
   3  -1  -9   58.49   24.00
   3  -9   1   17.10   21.50
   9  -1   3   13.30   23.00
   9   1  -3  125.69   38.80
   1  -9  -3   26.50   18.60
  -3   9   1   73.39   24.70
   1   3  -9   84.59   27.50
  -9   1   3   45.50   21.50
  -3  -9  -1   61.59   30.00
  -9   3  -1   81.29   26.10
   3   9  -1   37.90   22.00
  -9  -1  -3   83.79   25.40
  -1  -3  -9   48.90   27.70
  -3  -1   9   46.40   21.80
   3   1   9   59.09   24.00
  -9  -3   1   17.60   18.40
  -1  -9   3   75.59   32.40
   1  -3   9   99.09   28.70
   1  -9  -3   18.20   20.70
  -1   9  -3   63.39   24.10
  -3   1  -9   24.70   21.20
   9  -3  -1   14.90   20.60
  -1   3   9   46.50   22.70
  -1  -9  -3   61.09   24.40
  -3  -9   1   40.90   22.60
  -9   1  -3   42.90   19.40
  -3  -1  -9   66.49   27.30
  -9  -3  -1   74.99   24.20
   1  -9   3   31.70   23.40
   1   9  -3   22.60   17.80
  -3   9  -1    2.30   15.70
   3  -1   9   47.20   22.40
   3   1  -9   58.09   21.90
   3  -9  -1   96.69   32.00
  -3   1   9   24.40   20.20
   9  -3   1   54.89   29.20
   9   3  -1   52.39   29.50
   9  -1  -3   43.80   25.50
   1   3   9   92.59   29.70
  -1   3  -9   73.69   27.20
   3   9   1   49.99   25.90
  -9   3   1   58.79   25.70
  -9  -1   3   74.89   26.50
  -1  -3   9   33.10   23.60
   9   1   3   74.29   28.90
  -1  -9  -3   45.50   25.30
   1  -3  -9    6.80   18.50
   2  -3   9  531.05   52.49
   3  -2  -9  419.06   50.79
  -9   3  -2  472.55   50.19
   9  -2   3  541.45   61.69
   2  -9  -3  538.95   57.59
  -2   3   9  472.35   55.29
  -2  -3  -9  461.95   53.69
  -9   2   3  444.56   52.19
  -9  -2  -3  401.86   47.80
   9  -3  -2  425.76   56.19
  -3  -2   9  448.46   54.39
  -3   2  -9  423.96   51.49
   2   3  -9  394.76   49.20
   9   3   2  435.56   55.99
  -3  -9  -2  513.95   57.69
  -2  -9   3  480.35   60.19
   3  -9   2  420.66   56.29
   3   9  -2  488.85   51.89
   2  -9  -3  506.05   52.29
  -2   9  -3  504.25   52.89
  -9  -3   2  531.95   51.99
   9   2  -3  430.36   54.99
   3   2   9  456.15   51.59
  -9   2  -3  438.16   49.90
   2   3   9  481.15   53.69
   3  -9  -2  451.15   55.09
  -2  -9  -3  395.06   51.69
   3   2  -9  415.46   50.59
   3  -2   9  412.16   48.70
   9  -2  -3  421.36   53.09
   9   2   3  394.76   54.79
  -2  -9  -3  434.06   49.60
   3  -9  -2  502.95   51.09
  -3  -2  -9  428.16   50.89
  -3  -9   2  486.25   59.89
   3   9   2  435.46   50.59
   2  -9   3  553.24   64.99
   2   9  -3  404.76   49.99
  -9   3   2  528.45   54.79
  -9  -2   3  386.46   48.70
   9  -3   2  388.36   66.19
   9   3  -2  483.25   59.19
  -3   2   9  465.25   55.89
  -9  -3  -2  457.15   49.00
  -2   3  -9  508.05   53.59
  -3   9  -2  457.75   51.19
   2  -3  -9  343.87   56.79
  -2  -3   9  389.26   50.19
  -3  -3  -9   -0.20   15.80
   3   3  -9   -6.10   13.90
  -3  -9   3   -4.20   20.30
  -9  -3   3   18.30   16.70
   3  -9  -3   18.20   19.40
   3  -9   3   -8.10   17.70
   3  -3  -9   -8.70   15.90
   9  -3  -3  -18.30   16.30
   9  -3   3  -13.40   16.10
   9   3  -3   -5.80   16.40
   9   3   3    1.40   18.40
  -3   9  -3   24.50   20.30
   3  -9  -3   -0.90   18.00
  -3  -9  -3   -4.20   11.00
  -3  -3   9   -2.30   17.00
  -3   3  -9  -19.40   14.80
  -3   3   9   -7.10   14.40
   3  -3   9   11.90   15.50
  -9   3   3  -15.40   16.00
   3   3   9   16.90   18.80
   3   9  -3   -2.90   13.30
  -9   3  -3    5.10   17.30
  -9  -3  -3    6.50   16.10
  -3  -9  -3   11.60   19.90
   4  -9   0  199.38   46.10
  -9   0  -4   74.59   28.20
  -9   0   4  195.58   39.80
  -4  -9   0  141.99   40.40
  -4   9   0  118.89   33.20
   0  -4  -9  132.19   36.20
   0  -4   9  148.99   37.00
   4   9   0  224.38   40.70
   0   4   9  131.09   39.90
   0  -9   4  205.58   49.50
   9   0  -4   61.09   28.10
   9   0   4  177.68   42.90
  -9  -4   0  111.89   31.30
  -9   4   0  121.99   30.40
  -4   0  -9  117.89   32.80
  -4   0   9  118.89   35.80
   0  -9  -4  155.18   37.20
   9   4   0  150.68   39.90
   0   4  -9  186.18   40.10
   0   9  -4  119.59   32.60
   4   0  -9  212.58   39.90
   0  -9  -4  125.79   32.70
   9  -4   0  187.48   45.10
   4   0   9  232.38   43.20
  -9  -4   1    6.00   14.00
  -4  -9  -1   20.10   24.00
  -4   1  -9    4.00   15.70
  -1  -4  -9   45.70   22.30
   4  -9   1    3.70   20.00
   4   9  -1   18.30   16.00
  -9   4  -1   23.00   15.70
   1  -9  -4   11.70   18.80
   1  -4   9   24.80   20.40
   1   4  -9  -12.40   14.40
   9  -4  -1   14.50   20.00
   4  -1  -9    1.90   16.00
  -9  -1  -4   12.10   14.70
  -1   4   9   -5.80   20.50
  -4  -1   9  -28.50   15.80
  -9   1   4    3.50   15.20
   9  -1   4   23.40   23.90
   9   1  -4   -0.30   16.90
   1  -9  -4   25.20   17.50
   9   4   1   -5.40   19.00
   4   1   9   -3.20   16.10
  -4   9   1   -0.80   14.80
  -1  -9   4   -5.00   19.70
  -1   9  -4   11.50   18.50
  -9  -1   4   14.10   18.40
  -4   9  -1   -2.10   14.20
  -4   1   9   -5.90   15.90
   1   4   9   -8.30   14.40
   9  -4   1   15.60   21.80
   9   4  -1   13.70   25.50
  -1  -9  -4    2.40   12.60
   4   9   1   -2.30   14.70
   1  -9   4   24.80   22.00
  -4  -9   1   17.90   26.00
   9  -1  -4    6.10   18.30
  -4  -1  -9    9.00   17.10
   4   1  -9  -12.70   14.40
  -1  -9  -4    7.60   18.30
   4  -9  -1    0.70   20.90
   4  -1   9  -13.50   15.00
   9   1   4  -25.50   12.70
  -9   4   1   -8.30   14.60
   1   9  -4    7.60   16.20
  -1  -4   9   -2.90   18.30
  -1   4  -9    7.50   16.20
  -9  -4  -1   17.10   17.10
   1  -4  -9   -3.80   14.60
  -9   1  -4    6.40   14.10
   2   4  -9   11.60   16.50
  -9  -4   2   -4.80   12.70
  -2   9  -4  -24.00   11.60
   9   4   2  -17.60   15.80
   2  -4   9  -12.90   15.80
  -4  -2   9   -1.00   17.60
  -4  -9  -2  -12.40   14.60
  -9  -2  -4   -7.40   11.80
  -4   2  -9   -9.10   15.70
  -2  -4  -9    6.60   19.40
   2  -9  -4   13.00   16.40
   2  -9  -4   -1.20   18.60
   4   2   9    5.90   16.40
   4  -2  -9   40.60   22.50
   4  -9   2   23.60   23.80
  -9   4  -2   -1.80   14.00
  -2  -9   4   -0.90   19.90
   9  -2   4   -2.20   18.90
   4   9  -2   12.00   18.40
  -2   4   9   -5.70   19.00
   9   2  -4    0.10   19.60
   9  -4  -2  -27.70   15.90
  -9   2   4   18.20   20.90
  -9  -4  -2   -9.40   12.70
  -2  -9  -4   -1.90   17.50
  -9  -2   4   25.60   21.60
   4  -2   9   -9.50   14.80
  -4  -2  -9    5.40   17.70
   2   9  -4    5.70   16.30
   2  -4  -9   10.50   16.70
  -4   2   9    7.90   16.20
   9  -2  -4   21.10   23.40
  -9   2  -4   -4.00   13.30
  -2  -9  -4   16.50   18.00
   2   4   9   20.50   18.70
   9  -4   2   32.60   22.60
   9   4  -2   10.70   18.60
   4  -9  -2    3.20   21.60
   4   2  -9    2.90   16.40
   4   9   2    2.80   16.40
  -4  -9   2   -3.60   19.00
   2  -9   4   -9.80   19.30
  -9   4   2   -9.90   15.50
  -2  -4   9   -8.80   17.60
  -2   4  -9   17.60   18.00
  -4   9  -2    4.70   15.80
   9   2   4    3.80   20.00
   4   3   9   22.80   21.70
  -3   9  -4   38.60   19.90
  -9  -4   3   10.60   20.90
  -9   4  -3   10.20   19.70
  -4  -9  -3    2.60   19.60
  -4  -9  -3    2.40   18.90
  -4  -3   9   14.60   20.70
  -4   3  -9   18.00   19.40
  -3   4   9   -4.10   17.60
   3  -9  -4    2.00   15.60
   9  -3   4   22.30   17.40
  -3  -4  -9   16.10   21.20
   4  -3  -9   42.00   22.30
  -3  -9   4   26.20   24.60
   4  -9   3   35.30   29.60
   3  -9  -4   14.50   22.80
  -9  -4   3   43.10   23.50
   9   4   3   23.10   23.60
   9   3  -4   31.60   23.40
  -9  -3  -4   56.99   23.50
   3  -4   9   30.40   20.10
   3   4  -9   49.10   22.40
  -9   3   4  -12.30   17.50
   4   9  -3   26.10   18.90
   9  -4  -3   27.20   24.60
  -9   4   3   65.89   30.70
  -4   9  -3   27.40   20.20
   3   9  -4   49.30   23.80
  -4  -9   3   -7.40   18.70
  -3   4  -9   22.10   19.20
   4   3  -9   18.20   22.10
   3  -4  -9    9.80   17.90
  -4  -3  -9   10.20   18.00
   9  -4   3   39.80   26.30
   3  -9   4   56.79   33.70
   4  -3   9   35.40   20.40
   9   3   4   25.10   22.80
  -9  -3   4   34.60   21.80
  -9   3  -4   39.50   22.20
   3   4   9   19.00   20.20
   4  -9  -3   11.70   20.00
   4  -9  -3   11.30   16.30
  -9  -4  -3   16.10   15.70
  -3  -9  -4   -4.80   11.90
   9  -3  -4   27.30   22.40
  -3  -4   9    9.00   21.20
  -3  -9  -4   25.10   23.70
  -4   3   9   47.30   25.40
   4  -9  -4    1.00   16.80
  -4   4   9   -5.40   14.90
   4   4  -9   26.30   19.20
   4   4   9   -6.20   16.80
   4   9  -4   -0.50   17.50
   9  -4  -4   10.70   19.40
   9  -4   4   -8.00   16.70
   9   4   4   21.80   21.90
  -4  -4   9    7.90   19.50
  -4   4  -9    9.10   21.70
  -9  -4  -4    2.90   14.10
  -9  -4   4  -10.50   18.80
   4  -9   4   18.20   28.00
   4  -4  -9    9.80   19.40
  -4   9  -4   -7.30   18.00
  -4  -9  -4    9.30   22.80
   4  -4   9   -4.70   17.60
  -9  -4   4   -9.10   14.10
  -4  -9  -4    5.40   17.10
  -4  -9   4   16.00   23.70
   4  -9  -4   -4.20   18.40
  -9   4  -4    7.10   14.60
  -9   4   4   35.60   24.10
  -4  -4  -9    4.90   17.50
  -5   0   9  565.14   64.59
   0  -9  -5  605.24   62.89
  -5   0  -9  596.74   61.89
  -9   0   5  556.24   64.09
  -5  -9   0  580.24   68.79
  -5   9   0  616.84   60.59
   0  -5  -9  642.54   66.29
   0  -5   9  553.74   66.99
   0   5  -9  652.23   63.29
   0   5   9  578.94   65.19
   5  -9   0  713.03   74.39
   5   0  -9  497.85   59.99
   9   0  -5  637.74   65.89
  -9   0  -5  637.14   61.49
   0  -9   5  575.74   71.19
   0   9  -5  583.14   62.69
   0   9   5  735.83   83.49
   9   0   5  558.54   66.19
   9  -5   0  447.76   78.39
  -9  -5   0  725.73   73.29
   5   9   0  560.24   59.59
  -9   5   0  661.23   62.49
  -9  -5   0  556.44   56.79
  -5   0  -9  685.43   63.49
   5  -1  -9   31.30   22.70
  -1   5   9   41.80   29.90
  -5  -1   9   61.89   30.00
  -5   1  -9   29.50   19.10
  -5   1  -9   28.30   18.70
  -9  -1  -5   34.00   17.90
  -1   9  -5    4.10   19.60
   1  -5   9   27.20   22.10
   9   5   1   21.50   24.40
  -1  -5  -9   11.40   21.90
   1  -9  -5    1.00   17.00
   9   1  -5   55.79   27.70
   9  -5  -1   31.00   27.80
   1   5  -9   35.60   19.50
   5   9  -1    4.00   17.10
  -5  -9  -1    5.40   22.50
   5  -9   1   36.60   29.00
  -9  -5   1   14.40   17.50
  -9   5  -1   80.89   27.00
  -9  -5   1   43.30   26.40
  -9   1   5   24.20   23.30
  -5   9   1   15.90   18.30
  -1  -9   5   31.30   28.20
   9  -1   5   -8.00   19.00
   1   9  -5    3.40   19.70
   1   5   9   14.10   20.70
   1  -9   5   -0.10   22.90
   9  -1  -5   -4.40   19.50
   5   1  -9   20.00   20.50
   1  -5  -9   27.90   21.10
  -5   9  -1   40.80   21.60
   5   9   1   12.00   18.40
  -9   5   1   10.40   17.40
  -1   5  -9   35.40   19.30
  -1   9   5    9.50   15.20
   9   1   5   17.80   20.90
  -5  -1  -9   59.29   24.70
  -5  -1  -9   56.79   22.40
  -5  -9   1   47.90   30.40
   5  -9  -1   38.80   28.00
  -5   1   9   40.90   25.20
   9  -5   1    7.20   23.90
  -9  -1   5   28.20   21.50
  -9   1  -5   17.20   19.00
  -1  -9  -5    9.30   17.50
  -9  -5  -1   28.60   15.90
  -9  -5   2  524.85   65.49
  -9   2   5  488.45   59.49
  -5   9   2  641.14   57.79
   2  -5   9  502.05   56.99
  -9   5  -2  415.16   50.29
   9   2  -5  588.84   64.09
   9  -5  -2  497.95   63.19
   5  -9   2  527.05   67.29
   9   5   2  470.55   61.09
  -2  -5  -9  467.95   57.59
  -5  -2   9  460.65   56.29
  -5   2  -9  466.85   52.89
  -5  -9  -2  373.26   67.79
  -9  -2  -5  427.66   51.69
   2   5  -9  584.14   58.59
   9  -2   5  566.24   64.39
  -9  -5   2  522.45   51.99
  -5   2  -9  403.96   53.09
   5   9  -2  533.35   55.59
   5  -2  -9  562.04   57.89
   2  -9  -5  501.05   56.19
  -2   9  -5  548.45   58.09
  -2  -9   5  508.85   65.09
  -2   5   9  597.74   63.69
   9  -5   2  515.75   65.89
  -2  -9  -5  416.06   52.29
  -9   5   2  517.65   56.69
  -5  -2  -9  446.26   53.99
  -9  -2   5  525.25   57.49
  -5  -9   2  592.64   68.49
  -5   9  -2  525.55   54.69
   9   2   5  504.65   60.79
   2   5   9  470.35   57.39
   9  -2  -5  352.86   52.99
   2  -9   5  504.85   66.39
   2   9  -5  562.84   58.79
  -9  -5  -2  495.55   52.59
  -9   2  -5  612.14   57.89
  -5  -2  -9  501.25   57.59
   5   9   2  561.54   57.89
  -2   5  -9  621.64   59.99
  -5   2   9  503.55   60.79
   2  -5  -9  617.34   62.49
   5  -9  -2  601.14   64.99
  -2   9   5  485.95   52.09
   5   2  -9  380.26   51.59
   9   5   3  419.36   55.39
  -9  -3  -5  349.57   54.79
   9  -5  -3  266.17   57.79
  -5   3  -9  409.46   50.79
  -3  -9   5  401.06   71.59
   5  -3  -9  416.96   50.89
   9  -3   5  364.46   68.09
  -9  -5   3  466.25   48.10
   9   3  -5  383.56   64.59
  -9   5  -3  426.66   48.70
  -3   5   9  366.86   62.09
  -5  -9  -3  374.06   65.99
   3  -5   9  320.47   57.19
   3   5  -9  367.06   48.30
  -3  -5  -9  418.06   52.49
  -3   9  -5  408.26   49.99
  -9  -5   3  518.85   63.29
   5  -9   3  459.35   61.59
   5   9  -3  479.45   51.39
   3  -9  -5  389.56   60.09
  -5   3  -9  438.06   48.20
  -9   3   5  392.46   65.49
   5   3   9  400.16   61.69
  -5  -3   9  382.36   61.69
   9   3   5  408.26   65.49
  -9  -5  -3  373.86   46.00
  -9   3  -5  426.36   48.80
  -9   5   3  345.27   56.89
  -5   3   9  374.76   62.19
  -5  -9   3  293.07   62.39
  -5  -3  -9  513.35   54.29
   3   5   9  465.35   65.59
  -3   5  -9  365.06   47.80
   5   3  -9  418.26   50.59
   3  -5  -9  336.87   56.09
  -3  -9  -5  386.36   48.50
   9  -5   3  384.06   70.49
  -5   9  -3  387.96   47.60
   5  -9  -3  343.17   60.19
   5  -9  -3  339.67   44.90
   3  -9   5  332.07   66.29
  -9  -3   5  426.06   63.59
   9  -3  -5  396.86   53.29
   3   9  -5  332.87   56.39
  -3   9   5  496.55   50.39
   9  -4   5   13.00   21.80
  -5  -4   9    4.50   21.70
  -9  -4  -5    4.40   15.90
   4  -9  -5   12.30   17.00
  -4  -9   5   -7.60   22.20
  -9  -5   4   19.70   20.20
   5  -4  -9    0.60   17.40
  -5  -9  -4   20.40   19.20
   5   4   9   12.20   20.50
   9  -5  -4  -14.40   20.80
  -5   4  -9   53.69   26.80
  -5   4  -9   32.40   23.20
  -4   5   9    6.90   20.40
   5  -9   4    6.60   22.80
   4  -5   9   -1.30   20.00
   4   5  -9   12.30   19.40
   9   5   4    1.80   19.80
  -9  -5   4   -7.10   16.60
  -9   4   5   20.80   22.60
  -9   5  -4    4.40   15.50
  -5  -9  -4    9.20   21.00
  -4  -5  -9   -6.30   18.70
  -4   9  -5   49.30   28.00
   5   9  -4   10.60   20.80
  -9  -4   5  -13.30   17.00
  -9  -4   5   15.40   24.20
   9  -5   4  -22.90   21.50
   4   5   9   15.80   23.40
  -4  -9  -5    1.10   16.70
   9   4   5   16.50   25.90
  -5  -9   4   32.30   28.00
   5  -9  -4   -4.20   15.40
   4  -9   5   12.60   25.60
  -9  -5  -4   -1.50   15.50
   5  -9  -4   12.10   24.20
   4   9  -5    1.70   18.10
   4  -5  -9   -1.00   18.50
   5   4  -9    2.40   19.20
  -5  -4  -9   11.30   17.60
  -4   5  -9  -10.70   17.40
   9  -4  -5   28.60   29.10
  -4   9   5   18.50   21.60
  -5   4   9   -2.20   17.50
  -9   4  -5   26.10   19.90
  -9   5   4   -8.10   19.90
  -5   9  -4   -9.00   19.30
   9  -5   5   20.20   25.40
  -9   5  -5   10.30   16.00
   9  -5  -5   -2.90   23.10
  -9  -5   5   -2.30   20.00
  -5   9   5   17.50   20.30
  -9  -5  -5  -15.90   13.60
  -9  -5   5   -7.80   19.10
   9   5   5    9.00   22.60
  -9   5   5   36.20   26.40
  -5  -9  -5   -3.80   17.20
  -5  -9   5    0.20   22.30
  -5  -5  -9   18.10   22.10
   5  -9  -5   -2.10   17.10
   5  -9   5  -10.60   21.80
   5  -5  -9    0.50   17.40
   5  -5   9   22.90   29.20
   5   5   9  -10.10   17.80
   5   9  -5   14.70   17.00
  -5   9  -5   -3.90   17.20
  -5   5  -9    3.10   17.90
  -5   5   9   -3.10   19.40
   5   5  -9  -23.30   17.10
  -9   6   0   20.20   19.10
  -9  -6   0    4.60   21.50
  -6   0  -9   25.60   21.90
   0   6  -9    2.20   16.90
   6   9   0   21.70   18.00
   0   6   9   31.40   25.70
   6  -9   0   45.90   27.50
   0  -6  -9   16.30   18.70
   0  -6   9   -2.00   19.80
  -9  -6   0   35.40   19.30
  -6   9   0   13.90   21.10
  -9   0  -6   -5.20   14.70
   9   0  -6   -9.80   20.10
  -6   0   9   -4.20   21.90
  -6   0  -9   25.90   20.00
   0  -9  -6   28.90   21.50
   0  -9   6   57.89   35.00
   0   9   6   -1.60   19.10
   6   0  -9    6.40   18.80
   0   9  -6  -11.50   16.30
  -6  -9   0   27.30   25.00
   9   0   6   27.60   24.30
   9  -6   0   21.20   25.90
  -9   0   6   25.70   22.90
   9  -1   6  575.14   66.49
   9   1  -6  664.23   67.59
  -1  -9   6  552.14   71.09
   1  -9  -6  638.14   65.49
   6  -9   1  541.55   69.59
   1   6  -9  453.75   58.79
   1  -6   9  533.55   62.99
   1   9   6  720.53   64.29
  -9  -6   1  364.56   70.99
  -9  -6   1  561.24   58.19
   9  -6  -1  505.95   67.69
  -9  -1  -6  638.44   63.89
  -9   6  -1  473.85   55.89
  -1   6   9  643.54   68.49
  -9   1   6  606.54   66.59
  -6  -9  -1  571.24   71.09
  -6   1  -9  419.56   57.89
  -1  -6  -9  686.33   68.49
  -6   1  -9  604.04   61.79
   6   9  -1  680.03   62.79
   6  -1  -9  600.24   62.89
  -6   9   1  552.34   59.19
  -1   9  -6  585.44   63.49
  -6  -1   9  658.93   68.59
   6   9   1  592.74   60.79
  -6  -1  -9  679.83   65.49
   9  -6   1  642.04   74.19
   1   6   9  581.94   64.49
  -1  -6   9  661.23   66.39
  -1   6  -9  586.34   63.69
  -9  -1   6  622.54   67.89
   1   9  -6  802.12   70.39
  -9   1  -6  598.94   61.69
   9   1   6  582.54   65.89
   9  -1  -6  596.94   64.29
   1  -9   6  393.96   75.99
  -9  -6  -1  625.04   71.89
  -9  -6  -1  551.74   57.19
  -6   9  -1  590.34   60.79
   6   1  -9  644.74   63.79
  -6   1   9  714.03   72.29
  -6  -9   1  641.44   72.79
  -1   9   6  599.44   61.19
  -9   6   1  664.23   64.09
  -1  -9  -6  582.84   63.79
  -6  -1  -9  801.22   68.59
   1  -6  -9  641.34   67.29
   6  -9  -1  692.33   73.49
   6  -2  -9   47.60   25.30
   6  -9   2   52.19   32.40
   6   9  -2  124.29   32.40
  -6   2  -9   79.19   31.00
  -6   9   2   47.20   23.90
   2   9   6   81.49   29.40
  -2  -9   6   86.39   38.60
  -9  -2  -6   64.39   25.60
   9  -6  -2   59.49   30.80
   9   6   2   18.00   23.60
  -6  -2   9   80.79   35.50
  -6   2  -9   64.99   23.20
   2   6  -9    8.80   19.10
   9   2  -6   22.90   22.60
  -2   6   9   28.90   25.30
  -2  -6  -9   90.69   30.80
   2  -9  -6   65.49   30.10
  -9  -6   2   37.50   30.90
  -9  -6   2  114.19   29.50
   9  -2   6   34.10   24.60
  -2   9  -6  127.99   37.30
   2  -6   9   64.79   30.20
  -9   2   6  114.79   35.50
  -6  -9  -2   31.90   25.00
  -9   6  -2  103.19   28.50
  -6  -9   2   63.49   30.50
   2   9  -6   75.89   30.10
  -2   9   6   74.19   28.50
   2   6   9   73.39   27.80
   6   2  -9   95.79   28.50
   6  -9  -2   79.89   35.50
   2  -6  -9   69.19   29.10
   9  -6   2  109.29   40.50
  -9  -6  -2   51.29   21.30
   6   9   2   31.80   20.30
   2  -9   6   71.19   36.20
  -6   9  -2   46.90   22.10
  -9   6   2  132.29   35.10
  -6  -2  -9  103.19   31.80
  -6  -2  -9   16.40   18.80
  -2   6  -9  117.09   35.80
   9  -2  -6  121.19   34.50
  -9  -2   6   49.50   25.90
  -6   2   9   48.20   30.00
   9   2   6  137.19   38.20
  -9   2  -6   33.40   21.00
  -2  -6   9   52.19   27.00
  -2  -9  -6  103.09   33.90
  -9   3   6 1296.17  106.39
  -3   9  -6 1102.39   96.09
  -3  -9   6 1090.69  105.69
   6  -3  -9 1139.79   95.69
  -6   3  -9 1067.39   92.09
  -9  -6   3 1058.89  105.39
   3   9   6 1138.89   92.09
   6   9  -3 1110.49   92.49
  -3  -6  -9 1101.29   98.59
   9   6   3 1162.08  104.49
   3  -9  -6 1126.09   96.99
  -6  -9  -3 1231.98  105.99
   9   3  -6 1075.09  100.09
   3  -6   9 1059.59   98.99
   3   6  -9  995.90   93.69
   6  -9   3 1010.30  106.29
   9  -3   6 1125.49  103.89
  -9   6  -3 1158.08   92.59
   9  -6  -3 1178.38  104.79
  -6  -3   9 1138.69   97.69
  -9  -3  -6 1072.59   95.19
  -3   6   9  965.00   97.39
  -6   3  -9  970.60   91.49
   6   9   3 1022.80   91.69
   3  -6  -9 1328.37  103.39
   9  -6   3 1105.19  107.39
  -3   9   6 1113.29   93.19
  -3  -6   9 1104.19   96.09
  -6  -3  -9 1183.78   96.09
   3   9  -6 1150.78   97.39
   9   3   6 1096.49   98.79
  -3   6  -9 1178.78   97.69
   3   6   9 1019.40   94.39
   6  -9  -3 1117.49  102.29
  -9  -3   6 1101.79   94.79
   3  -9   6  992.50  104.69
  -6   3   9 1209.08  104.29
  -6   9  -3  954.10   89.49
  -9  -6  -3 1002.20   89.09
  -9   3  -6 1045.40   91.79
   6   3  -9 1007.90   91.99
  -6  -9   3 1199.88  108.79
  -9   6   3 1156.48   97.19
  -6  -3  -9 1377.06  100.89
   6  -9  -3 1127.69   92.59
  -3  -9  -6 1049.40   94.89
   9  -4   6  200.78   51.89
  -9   4   6  291.97   56.89
   4   9   6  182.08   41.10
   9   6   4  200.78   46.60
   4  -6   9  327.97   59.79
  -9  -6   4  301.27   63.19
  -9   6  -4  267.17   46.80
  -4   6   9  142.59   44.80
   4  -9  -6  347.57   57.69
   6  -9   4  157.18   49.10
   6   9  -4  369.06   53.99
  -9  -4  -6  130.99   36.40
   9  -6  -4  187.48   49.40
  -6   9   4  198.38   54.19
  -4   9  -6  163.08   39.30
   4   6  -9  199.88   45.30
  -6  -9  -4  271.67   49.90
  -6   4  -9  240.28   46.60
  -4  -6  -9   98.59   35.70
  -6  -9  -4   94.89   35.70
  -6   4  -9  300.37   50.19
   6  -4  -9  279.47   50.89
  -6  -4   9  222.78   44.40
  -4  -9   6  205.88   52.59
  -9   4  -6  175.88   40.00
  -4   6  -9  174.98   40.80
   4  -9   6  172.98   48.80
  -6   9  -4  178.88   41.10
   9   4   6  102.09   38.70
  -6  -4  -9  179.08   44.80
  -6   4   9  378.36   64.59
  -4  -9  -6  309.07   54.79
   4   6   9  240.88   46.40
  -4  -6   9  210.38   45.80
  -4   9   6  201.88   45.50
   6  -9  -4  215.98   44.70
  -6  -4  -9  270.67   50.79
   6  -9  -4  361.26   62.39
  -9  -4   6  271.97   46.80
   9  -6   4  262.37   60.69
  -9  -6  -4  259.47   45.50
   6   4  -9  240.98   47.00
   4  -6  -9  247.58   51.29
   4   9  -6  325.37   56.69
  -9   6   4  244.38   51.79
  -6  -9   4  242.38   55.49
   5  -9  -6   55.39   27.70
  -5  -9   6   11.00   26.00
  -9   6  -5   77.89   24.80
  -9   5   6   34.60   28.20
   9   6   5   19.50   24.10
   6  -5  -9   47.50   28.70
   5   6  -9   44.10   27.80
   6  -9   5   57.59   35.40
   6   9  -5   91.89   32.20
  -5   9  -6  103.29   36.10
   9  -5   6   95.89   38.50
  -9  -5  -6   42.20   23.20
  -6   9   5  111.99   33.60
   5  -6   9   52.49   34.40
  -9  -6   5   52.29   32.70
  -6   5  -9  161.68   42.20
  -5   6   9   50.19   28.90
   6   5   9  139.39   39.80
  -5  -6  -9   35.30   26.80
  -6  -9  -5   91.29   31.20
  -9  -6  -5   20.10   22.00
  -6  -5  -9   49.50   28.60
   5   6   9   79.09   33.50
   6  -5   9   69.19   35.30
  -9  -5   6   54.79   30.70
  -5  -9  -6   81.79   30.80
  -9   6   5   41.20   27.30
  -5   9   6   83.39   29.50
   6   5  -9  101.89   30.10
  -6   5   9   56.99   28.30
   9   5   6   76.09   36.30
  -9   5  -6   64.99   27.70
   5   9  -6   58.49   30.10
  -6  -9   5   97.39   40.90
  -6   9  -5  105.99   34.40
   5  -9   6   69.09   38.80
   9  -6   5   79.19   38.90
  -5  -6   9   21.30   30.10
  -5   6  -9   21.20   26.40
   6  -9  -5   66.99   30.00
   5  -6  -9  151.48   41.90
   6  -6  -9  -10.40   22.00
  -6   9   6    9.20   21.30
  -6   6   9   -1.20   25.70
   6   6  -9   -3.80   20.40
  -6   9  -6   -8.70   23.80
   6  -9   6  -11.50   26.00
  -9  -6  -6   -9.30   19.50
   6  -6   9   -3.00   27.60
   9  -6   6    0.90   26.10
  -6  -6  -9    2.00   25.00
   6   6   9    9.10   22.60
   6   9  -6  -14.00   21.20
  -6  -9  -6   15.50   20.30
  -6   6  -9   37.40   27.80
  -9  -6   6  -30.00   23.40
  -9   6   6    6.90   24.60
   6  -9  -6    7.50   19.30
  -6  -9   6   -8.10   22.10
  -9   0  -7  259.17   50.09
   0  -9  -7  351.76   62.89
   7   0  -9  358.06   56.49
   0  -9   7  374.16   71.09
  -9   7   0  413.96   58.39
   0   9  -7  325.77   56.99
  -7   0   9  318.07   54.89
   0  -7   9  368.16   61.29
   0   7  -9  278.97   53.29
   0   9   7  267.67   50.89
   0   7   9  379.76   61.79
   7  -9   0  382.66   70.49
  -9  -7   0  340.27   68.29
   9   0   7  343.47   60.49
   7   9   0  429.36   50.09
   9  -7   0  424.26   75.49
  -7   0  -9  437.36   63.49
  -9   0   7  388.26   65.29
  -7  -9   0  316.57   65.49
   0  -7  -9  353.16   63.79
   9  -7  -1    8.50   26.40
   7   9  -1    8.10   18.50
   1  -9  -7    3.70   19.40
  -1   7   9   -5.80   19.60
  -7  -1   9   -0.60   17.90
   1   7  -9   -6.80   16.50
  -9   1   7   27.40   26.70
   9  -1   7    0.70   18.40
   7  -9   1   -2.50   21.80
  -1  -9   7    1.90   26.80
  -1  -7  -9   15.30   21.90
  -7  -9  -1   13.50   24.50
   1  -7   9   23.70   25.70
  -9  -1  -7  -24.00   14.50
   7  -1  -9   26.50   20.20
   1   9   7   -7.50   18.00
  -7   1  -9   16.90   19.70
  -9  -7   1   -1.90   21.60
  -9   7  -1   14.10   19.10
   9   1  -7    4.70   22.10
  -1   9  -7   -8.60   19.60
  -9   7   1   17.70   19.50
  -9  -7  -1   -9.30   14.20
  -1  -9  -7  -10.60   19.00
   1   9  -7    0.20   19.50
   1   7   9   10.80   22.30
   1  -9   7   -1.60   22.70
   9  -7   1   22.90   26.70
  -9   1  -7   22.30   18.80
   7   9   1  -18.70   18.10
  -9  -1   7   -6.30   19.40
  -7  -9   1  -10.80   20.50
   9   1   7   -5.80   20.20
  -1  -7   9   -1.80   22.10
  -9  -7  -1  -16.70   19.30
   7   1  -9   -8.80   19.70
  -1   7  -9   24.10   24.40
  -7   1   9  -13.50   21.80
  -1   9   7   -0.30   16.30
   7  -9  -1    8.40   24.40
   1  -7  -9   12.30   22.30
  -7  -1  -9   11.80   18.20
   2   7  -9  308.97   55.99
  -7  -9  -2  113.59   40.30
   9   2  -7  210.98   47.40
   2  -7   9  165.98   43.30
   9  -2   7  139.59   40.70
  -2   7   9  258.07   53.09
  -9  -7   2  221.28   56.79
  -9   7  -2  272.57   43.90
  -2  -9   7  158.38   48.80
  -2   9  -7  191.58   47.60
  -7  -2   9  177.98   44.80
  -7   2  -9  262.97   51.29
  -9   2   7  247.98   50.79
  -9  -2  -7  118.99   35.70
   9  -7  -2  228.18   55.79
  -2  -7  -9  220.88   50.89
   2  -9  -7  238.18   51.19
   7  -9   2  224.78   54.99
   7   9  -2  218.38   43.40
   2   9   7  209.88   47.90
   7  -2  -9  210.08   45.50
  -7  -2  -9  144.69   38.70
   7  -9  -2  170.48   47.20
  -2   7  -9  183.38   44.50
  -9  -7  -2  305.57   46.50
  -2  -9  -7  239.08   53.29
   7   2  -9  263.67   46.10
  -7  -9   2  166.38   45.70
   9  -7   2  295.67   63.89
  -2  -7   9  248.18   53.19
   2  -9   7  237.18   53.99
  -7   2   9  309.67   57.69
  -9  -7  -2  184.18   48.00
  -9  -2   7  251.77   48.50
  -9   2  -7  267.97   46.60
   2   7   9  188.08   42.80
   7   9   2  273.47   48.60
   9   2   7  229.18   51.89
   2   9  -7  318.07   57.29
  -9   7   2  235.48   47.20
   2  -7  -9  287.27   56.09
  -2   9   7  252.47   48.20
  -9  -3  -7   26.50   21.00
  -9   3   7   -2.10   21.30
   3   9   7    1.90   19.70
   7  -3  -9    8.30   20.40
  -7  -9  -3   20.50   23.10
  -7  -3   9   21.30   22.70
   3  -7   9  -12.30   23.30
   3   7  -9  -15.40   16.10
   9   3  -7   -6.30   21.30
  -3   7   9   -9.70   18.50
   7  -9   3   -8.00   21.40
   7   9  -3   18.40   25.00
  -3  -9   7  -20.80   20.00
  -3   9  -7  -24.30   16.50
   9   7   3   16.60   28.20
   3  -9  -7   10.80   20.80
  -3  -7  -9    0.80   21.40
  -7   3  -9   19.30   22.10
  -9  -7   3   -5.90   24.50
   9  -3   7   18.00   28.90
   9  -7  -3   13.80   25.70
   3   9  -7  -14.70   18.90
  -7  -9   3   17.80   29.50
   7  -9  -3   13.10   24.70
  -7   3   9   -7.70   21.20
   3   7   9   16.30   21.80
  -3   7  -9  -15.10   17.50
   7   3  -9    8.40   20.60
   3  -9   7   14.60   28.40
   9  -7   3    7.20   25.60
   3  -7  -9  -12.50   20.60
  -9  -7  -3    6.20   17.60
  -3  -7   9   -7.50   24.30
  -3  -9  -7   13.60   20.90
   7   9   3   17.50   19.90
  -3   9   7   13.90   23.40
  -9   7   3  -31.70   14.80
  -7  -3  -9   -3.90   15.60
  -9   3  -7   18.00   20.60
  -9  -3   7    7.30   22.60
   4   7  -9    9.30   19.60
  -4  -7  -9   -5.00   21.70
   9   7   4    6.90   26.50
   4   9   7   13.90   21.10
   9  -4   7   -0.30   25.00
   9  -7  -4   23.40   27.80
  -4  -9   7  -22.60   23.70
  -7  -9  -4   11.60   33.80
  -7  -4   9  -12.10   23.60
  -7   9   4    5.60   25.70
  -4   9  -7    0.60   18.80
   4  -9  -7    3.40   21.90
  -9  -7   4  -21.60   21.50
   7   9  -4  -20.20   17.40
   9   4  -7   -4.70   24.80
   7  -4  -9  -11.80   20.70
  -7   4  -9   30.70   22.50
   7  -9   4   23.40   28.90
  -9   4   7    1.20   23.90
  -9  -4  -7    9.00   21.40
   4  -7   9    4.50   24.30
  -4   7   9  -17.10   18.20
  -9   4  -7  -13.20   13.30
  -4   7  -9    1.80   22.50
  -4  -9  -7   11.30   21.20
  -7  -9   4   -1.70   24.20
   7   9   4   25.20   23.80
  -4   9   7    9.10   21.90
  -4  -7   9   -5.20   24.90
   7  -9  -4   26.20   26.90
  -9   7   4    7.20   24.80
  -7  -4  -9   12.30   20.70
   4  -7  -9    9.50   23.20
   7   4  -9  -14.60   19.60
   4  -9   7  -32.90   21.00
   9  -7   4    0.40   22.80
  -7   4   9   -5.80   21.10
  -9  -4   7    3.00   22.60
   4   7   9    8.70   22.90
  -9  -7  -4   -7.60   17.60
   4   9  -7  -20.00   18.90
  -9  -7   5    0.40   30.80
  -5  -7  -9    6.80   24.50
   5  -9  -7    6.70   23.00
   7  -5  -9   35.10   25.20
  -5   7   9   14.80   24.10
  -5  -9   7   38.70   36.00
   5  -7   9   45.80   32.30
  -7   9   5   23.80   26.30
  -9   5   7   43.30   30.20
   7  -9   5   65.39   39.50
   7   9  -5   19.80   23.00
   5   9   7   36.70   26.30
   9   7   5   -0.20   23.80
  -9  -5  -7   -0.80   19.90
   9  -5   7    4.20   29.20
  -5   9  -7   16.00   22.30
   5   7  -9   34.20   25.70
  -9  -5   7   33.70   30.10
  -5   9   7   26.10   26.10
   5  -7  -9   -5.80   21.90
  -9   5  -7   32.70   23.00
  -7  -5  -9   20.10   21.20
  -5  -7   9   26.80   25.00
   5   9  -7    9.10   21.80
  -5   7  -9   10.30   21.90
  -5  -9  -7  -11.80   21.30
   5  -9   7    3.40   27.10
   7   5  -9   37.50   29.50
  -7   5   9   12.20   25.50
  -9   7   5   12.20   26.90
  -7  -9   5   28.40   32.50
   5   7   9   28.10   23.60
  -9  -7  -5   51.99   24.70
   9  -7   5   -0.10   22.80
   7  -5   9   21.90   27.00
  -6  -7  -9  741.73   77.59
  -7   9   6  690.33   74.19
   7  -9   6  656.33   85.69
  -6   7   9  725.83   79.19
  -9  -7   6  713.23   86.99
   9  -6   7  670.43   82.59
   6   7  -9  691.93   72.69
   6  -7   9  524.45   75.49
  -6  -9   7  670.03   82.49
  -6   9  -7  648.84   72.09
   6   9   7  691.13   71.39
   6  -9  -7  657.63   73.79
   7   6   9  557.24   71.59
  -9   6   7  610.54   75.99
   7  -6  -9  785.72   78.19
   7   9  -6  676.93   71.49
  -9  -6  -7  605.24   71.29
  -6  -7   9  799.02   81.29
  -6   9   7  701.13   75.09
  -6  -9  -7  833.52   76.89
  -7  -9   6  587.64   82.09
   7   6  -9  617.84   69.89
   6  -9   7  673.13   83.59
   6   7   9  770.52   77.49
  -6   7  -9  641.64   74.69
  -9   7   6  705.03   77.09
   6  -7  -9  787.02   80.49
   7  -6   9  751.12   85.59
  -9  -7  -6  690.93   71.39
   6   9  -7  652.93   72.49
   9  -7   6  611.14   81.39
  -7   6   9  669.83   77.89
  -9  -6   7  595.54   77.59
   7   9   7   11.00   31.70
   9  -7   7  -10.00   30.20
  -7  -9   7    2.40   30.60
  -7  -7   9   -6.60   32.30
  -9  -7   7   -2.60   29.40
   7  -7  -9    9.00   30.20
   7   7  -9    2.20   23.10
  -7   7   9    2.70   23.30
  -9   7   7   -4.40   23.20
   7   7   9   21.50   30.70
   7   9  -7   16.80   23.30
  -7   9   7   -0.10   25.20
   7  -9   7   42.10   36.30
  -9  -7  -7   22.20   24.60
   7  -7   9   -1.50   31.90
   0   9   8    7.30   22.30
   9  -8   0   -5.70   25.90
  -8  -9   0    0.00   21.00
  -9   0   8  -12.00   21.50
   0  -8  -9    9.00   24.10
   0  -8   9    3.10   25.70
  -9   0  -8   -5.90   17.20
   0  -9  -8   -6.20   17.10
   0  -9   8   33.00   31.40
   0   9  -8    9.20   18.80
  -9  -8   0   18.20   27.40
  -8   0  -9    5.90   23.60
   8  -9   0   -9.10   22.00
   0   8   9   20.10   25.30
  -8   0   9   -2.40   23.50
   0   8  -9   -4.40   18.20
   1  -9  -8   69.19   31.00
  -8  -1   9   14.90   24.00
  -1  -8  -9   81.49   34.10
   8  -9   1   99.19   41.00
  -9  -8   1   41.20   31.80
  -1   8   9   91.29   32.60
  -1  -9   8   35.20   34.00
  -9   1   8   88.09   36.20
  -8   1  -9   22.60   24.00
  -9  -1  -8   75.49   27.20
  -1   9  -8   41.10   23.90
   1  -8   9   48.90   33.30
   9  -1   8   70.89   33.40
  -8  -9  -1   37.10   32.50
   1   8  -9   40.90   29.40
   1   9   8   87.29   33.60
   9  -8  -1   11.90   27.10
  -1  -8   9   72.59   37.00
   8  -9  -1   51.59   34.60
   1  -8  -9   92.09   35.60
  -9  -1   8   41.90   30.70
  -8   1   9   66.19   34.60
  -9   8   1   77.89   27.40
  -1  -9  -8   89.79   35.50
  -1   9   8   96.79   37.60
  -8  -9   1   44.00   34.70
   1   8   9   62.69   28.10
  -9  -8  -1   41.50   31.70
   1   9  -8   77.19   34.60
  -9   1  -8   64.39   29.20
  -8  -1  -9  125.89   37.20
   9  -8   1   21.60   29.90
   1  -9   8   24.90   28.00
  -1   8  -9   33.00   25.40
  -9  -2  -8  142.19   39.90
   8  -9   2  217.48   59.59
  -9   2   8  275.97   57.29
  -8  -9  -2  125.89   43.60
  -2   8   9  147.69   38.90
  -8  -2   9  327.07   59.19
   2   8  -9  157.98   44.60
  -2  -8  -9  333.27   62.39
   2   9   8  295.57   56.79
  -2  -9   8  136.19   48.50
  -2   9  -8  148.59   42.70
   2  -8   9  171.48   49.30
   9  -2   8  217.58   52.09
   9  -8  -2  118.79   45.80
  -9  -8   2  176.08   49.40
   2  -9  -8  287.67   57.19
  -8   2  -9  218.88   46.10
  -8  -2  -9  195.68   44.90
  -8   2   9  178.18   49.40
  -9   2  -8  243.48   48.00
   2   8   9  220.98   48.70
  -2   9   8  197.48   48.50
  -9   8   2  170.28   40.10
  -2   8  -9  219.48   48.80
   2   9  -8  127.39   40.40
  -2  -8   9  239.38   55.19
  -9  -2   8  284.57   56.09
   9  -8   2  230.18   59.39
   2  -8  -9  216.78   52.49
  -9  -8  -2  242.48   57.99
   2  -9   8  105.79   43.30
  -8  -9   2  232.48   56.59
   8  -9  -2  267.17   59.39
  -2  -9  -8  308.27   57.49
  -8   3  -9  -13.70   18.70
  -8  -9  -3   -5.40   28.80
   3   9   8   -8.40   23.60
  -3  -8  -9   13.10   22.90
  -9   3   8  -17.20   17.70
  -9  -3  -8    4.70   20.20
  -8  -3   9    2.60   22.30
   3   8  -9  -27.40   17.40
   9  -8  -3   -4.80   24.80
   3  -9  -8  -25.70   19.70
   8  -9   3   21.40   30.10
   9  -3   8   11.30   29.60
  -9  -8   3   -7.50   20.50
   3  -8   9   25.50   28.70
  -3   9  -8  -10.30   21.40
  -3  -9   8   41.10   33.30
  -3   8   9   10.30   22.40
  -9  -8  -3  -10.30   27.90
   3   8   9    8.40   23.10
  -9   8   3    3.80   21.80
  -8  -3  -9   -4.60   17.30
  -9   3  -8   16.70   23.50
   8  -9  -3   29.90   26.10
   3   9  -8   -8.60   22.00
  -8  -9   3   32.70   28.90
  -8   3   9   32.90   27.60
  -9  -3   8   11.10   26.40
  -3  -9  -8   10.50   25.40
  -3   8  -9    9.10   23.40
   3  -8  -9    2.90   24.70
   9  -8   3    2.20   21.70
  -3   9   8    0.40   22.70
   3  -9   8    0.70   27.60
  -3  -8   9    6.80   30.10
  -4  -8  -9  155.58   43.80
   4  -9  -8  263.37   54.09
  -9  -4  -8   60.49   31.30
  -9  -8   4   59.89   33.70
   4   9   8  161.18   43.90
   4   8  -9  130.09   43.20
   9  -8  -4  105.29   39.20
   9   8   4  107.39   44.70
  -4   9  -8  181.18   45.50
  -9   4   8  106.49   39.80
   9  -4   8  135.59   44.80
  -8   9   4  195.58   60.09
  -8   4  -9  131.59   38.20
   8  -9   4  118.79   43.30
  -4  -9   8  151.48   53.49
  -4   8   9  129.39   41.90
   9   4  -8   57.49   34.80
   4  -8   9  127.69   45.30
  -8  -9  -4  135.89   45.30
  -9   4  -8   94.69   34.20
  -4   8  -9   89.69   36.20
   4   8   9  119.69   40.20
  -8  -9   4  160.28   48.50
  -9   8   4  105.89   39.00
   4  -8  -9  174.88   47.90
  -9  -8  -4   91.69   41.60
   4   9  -8  134.09   42.40
  -4  -9  -8  149.69   44.00
  -9  -4   8  128.19   36.50
   9  -8   4   86.39   41.00
  -4   9   8  150.28   42.60
   4  -9   8  149.39   48.80
  -8   4   9   95.39   36.70
  -4  -8   9   83.39   37.00
  -8  -4  -9  101.19   36.80
  -5   9  -8   27.80   28.10
  -5  -8  -9   23.90   26.70
   5  -8   9   24.60   30.80
   5   9   8   -6.70   22.30
  -9  -8   5    1.60   24.10
   8  -9   5   29.80   31.80
   9   8   5   17.10   33.10
  -8   9   5  -12.30   24.30
  -9  -5  -8   16.20   26.30
   5   8  -9   -9.90   22.80
  -5  -9   8   -4.60   26.70
  -9   5   8    7.30   26.60
   9  -5   8   14.90   29.70
   5  -9  -8    0.50   24.80
  -5   8   9   -5.10   22.90
   5   9  -8   17.10   23.10
  -5   8  -9   17.00   24.50
   5  -9   8    3.50   27.70
   5  -8  -9   32.00   29.20
  -8  -9   5    6.40   29.60
  -9  -5   8   26.60   30.00
   5   8   9   58.09   35.60
  -9   8   5   19.30   32.30
   9  -8   5  -16.60   24.00
  -8  -5  -9   26.80   26.50
  -8   5   9    8.50   25.30
  -5  -9  -8  -20.30   20.80
  -9   5  -8   17.20   21.20
  -5  -8   9    3.60   25.80
  -5   9   8   24.70   30.80
   8  -5   9   13.80   30.30
  -9  -8  -5    2.70   22.70
   9  -6   8  185.48   59.89
   8  -9   6  116.39   52.39
  -6  -9   8  221.78   62.79
   6   8  -9  181.58   45.60
  -8   9   6  226.58   51.79
  -6  -8  -9  155.28   45.00
   6   9   8  144.79   42.80
  -6   8   9  125.79   44.60
  -9   6   8  146.29   45.80
   6  -8   9  199.08   56.99
  -9  -6  -8  167.68   44.40
  -9  -8   6  179.98   53.79
   6  -9  -8  141.09   45.70
   6  -8  -9  283.47   60.89
   6   9  -8  323.77   60.19
  -6  -8   9  225.28   59.69
   8  -6   9  110.99   44.20
   9  -8   6  195.38   58.69
  -8  -9   6   88.79   46.00
   6  -9   8  121.39   45.10
  -9  -6   8  166.88   46.30
  -6   9   8   82.09   37.90
  -8  -6  -9  147.49   43.50
  -8   6   9  165.28   47.30
  -6  -9  -8  122.19   43.80
  -9   8   6  133.59   44.40
   6   8   9  148.49   43.50
  -9  -8  -6  148.09   39.40
   9  -7   8  -21.10   29.70
   8  -9   7  -13.50   29.40
   7  -8   9   21.40   35.70
   7   8  -9    9.70   24.00
  -9  -7  -8    5.60   26.20
  -7   8   9   25.30   32.70
   7   9   8    9.90   32.00
  -8   9   7   26.50   30.40
  -9  -8   7    6.80   32.80
  -7  -9   8   84.59   43.00
   8   7   9    6.90   30.10
  -9   7   8   15.50   29.30
   7   8   9   30.60   31.00
  -9  -8  -7  -10.70   25.50
  -7  -8   9    4.50   30.80
  -9   8   7   -9.50   28.60
  -8   7   9    2.70   22.90
  -8  -9   7  -10.10   32.20
  -7   9   8   22.30   28.30
   7  -9   8   -3.00   36.70
   7   9  -8  -14.40   25.70
   7  -8  -9   15.20   47.20
   8  -7   9   29.80   36.20
  -9  -7   8   -3.70   31.20
   9  -8   7   49.60   43.00
  -9  -8  -8    6.20   26.90
  -9  -8   8  -30.00   38.00
  -9   8   8    6.00   31.60
  -8  -9   8   -1.40   35.20
  -8  -8   9   -3.10   31.30
  -8   8   9   37.70   33.40
  -8   9   8    2.60   29.90
   8  -9   8  -16.40   28.80
   8  -8   9  -13.60   33.90
   8   8   9   15.30   34.60
   8   9   8  -22.40   32.30
   9  -8   8   44.30   44.40
  -9  -9   0  267.47   68.09
  -9   0  -9  317.87   57.69
  -9   0   9  192.78   51.49
   0  -9  -9  277.57   57.89
   0  -9   9  222.88   60.09
   0   9  -9  153.28   42.60
   0   9   9  274.87   55.29
   9  -9   0  228.98   57.39
  -9  -9  -1  -14.60   24.00
  -9  -9   1   -8.80   23.30
  -9  -1  -9    2.90   25.50
  -9  -1   9   -1.90   28.10
  -9   1  -9    1.00   21.50
  -9   1   9  -23.30   19.00
  -1  -9  -9    3.00   25.80
  -1  -9   9    2.50   29.00
  -1   9  -9    0.30   23.20
  -1   9   9   13.90   28.00
   1  -9  -9  -16.50   19.30
   1  -9   9    7.50   30.70
   1   9  -9    9.50   19.80
   1   9   9    5.70   29.00
   9  -9  -1  -15.40   25.40
   9  -9   1   -1.00   25.70
  -9  -9  -2   42.60   36.70
  -9  -9   2   20.00   28.00
  -9  -2  -9  104.29   35.10
  -9  -2   9   89.69   36.10
  -9   2  -9   66.39   29.70
  -9   2   9   84.19   36.40
  -2  -9  -9   39.50   32.80
  -2  -9   9   65.79   38.90
  -2   9  -9  133.89   43.50
  -2   9   9   37.70   29.40
   2  -9  -9  150.08   44.20
   2  -9   9    4.20   28.20
   2   9  -9   92.99   34.50
   2   9   9  106.09   41.50
   9  -9  -2   13.80   29.80
   9  -9   2   80.49   36.30
  -9  -9  -3   -7.40   27.70
  -9  -9   3  -10.30   24.50
  -9  -3  -9    1.20   22.70
  -9  -3   9   -8.90   25.20
  -9   3  -9   -8.20   22.40
  -9   3   9    0.00   24.90
  -3  -9  -9   11.60   23.20
  -3  -9   9  -18.00   29.90
  -3   9  -9   -9.70   27.20
  -3   9   9   -5.50   29.70
   3  -9  -9   -9.70   20.90
   3  -9   9   24.30   32.10
   3   9  -9   23.30   27.60
   3   9   9   13.60   27.50
   9  -9  -3  -24.40   24.10
   9  -9   3   -2.40   26.70
  -9  -9   4   21.50   34.10
  -9  -4  -9   -4.60   18.90
  -9   4  -9   -1.20   25.80
  -9   4   9  -43.60   19.70
  -4  -9  -9   11.00   27.40
  -4  -9   9   22.30   37.30
  -4   9  -9  -15.70   24.30
  -4   9   9  -22.60   27.20
   4  -9  -9  -29.00   23.40
   4  -9   9   -7.40   28.90
   4   9  -9   10.60   27.70
   4   9   9    7.70   24.90
   9  -9   4    4.30   31.50
  -9  -9   5  -28.50   25.70
  -9  -5  -9  -16.70   22.30
  -9   5   9    8.60   26.50
  -9   9   5   11.30   31.20
  -5  -9  -9  -13.80   28.20
  -5  -9   9   -1.70   32.30
  -5   9  -9   24.50   30.50
  -5   9   9   16.20   29.70
   5  -9  -9   16.40   27.80
   5  -9   9  -22.30   30.60
   5   9  -9   -4.40   28.10
   5   9   9    6.50   26.10
   9  -9   5   31.10   33.40
   9  -5   9   -4.90   28.60
  -9  -9   6  506.65   91.99
  -9  -6  -9  400.56   70.89
  -9   6   9  645.74   78.79
  -9   9   6  490.85   81.29
  -6  -9  -9  625.04   88.39
  -6  -9   9  477.05   91.99
  -6   9   9  659.63   76.19
   6  -9  -9  474.25   81.09
   6  -9   9  528.65   87.49
   6   9  -9  563.24   70.69
   6   9   9  716.73   93.89
   9  -9   6  487.75   91.09
   9  -6   9  422.96   85.59
  -9  -9   7   30.70   37.80
  -9  -7  -9   19.00   31.40
  -9   7   9   -2.20   29.40
  -9   9   7   -2.50   27.90
  -7  -9   9   30.30   42.60
  -7   9   9   10.00   31.50
   7  -9   9   -9.80   35.40
   7   9  -9   62.39   32.10
   7   9   9    2.60   33.10
   9  -9   7   -9.40   29.40
   9  -7   9  -16.10   31.50
  -9  -9   8   25.30   38.60
  -9   8   9   16.70   35.80
  -9   9   8   95.59   43.30
  -8  -9   9   -4.90   34.10
  -8   9   9  -15.60   30.00
   8  -9   9   28.00   43.10
   8   9   9  -12.10   35.90
   9  -9   8   13.60   40.60
   9  -8   9  -24.30   39.40
   9   8   9   51.49   38.30
 -10   0   0 4942.11  328.17
   0 -10   0 5185.58  342.67
   0   0  10 5524.55  338.07
   0  10   0 5140.49  331.17
  10   0   0 4977.10  338.97
 -10   0  -1  100.59   27.10
 -10   0   1   32.80   20.60
  -1 -10   0   38.40   25.20
  -1  10   0   22.10   19.80
   0  -1 -10   13.50   17.80
   0  -1  10   -3.30   18.30
   0   1 -10   45.20   23.70
   0   1  10   19.10   24.10
   1 -10   0   63.99   31.90
   1  10   0   26.40   21.10
  10   0  -1   21.60   21.10
  10   0   1   87.29   32.00
  10  -1   0   34.20   23.50
  10   1   0   16.20   22.60
   0  10   1   48.90   22.10
   1   0 -10   93.59   31.60
   1   0  10   45.00   22.70
   0  10  -1   55.89   26.20
   0 -10   1   48.90   28.60
  -1   0  10   48.70   31.30
   0 -10  -1   35.20   24.80
 -10   1   0   29.60   19.60
  -1   0 -10   58.99   30.50
 -10  -1   0   81.99   28.70
  -1   1  10  832.32   89.29
  -1  -1  10  970.70   92.09
  -1   1 -10 1011.70   90.99
  -1 -10   1 1066.49   99.09
  -1  -1 -10  991.30   91.19
  -1 -10  -1 1207.28  100.29
 -10   1   1 1144.49   90.19
 -10  -1  -1 1068.39   87.59
 -10  -1   1  979.60   86.39
 -10   1  -1 1045.70   87.89
  10  -1  -1 1018.50   93.59
  10  -1   1 1166.18   99.29
  10   1  -1  960.20   94.19
  10   1   1  926.11   92.99
   1  10  -1  881.11   85.89
   1  10   1 1014.10   89.39
   1   1  10 1137.99   94.69
  -1  10  -1 1112.99   91.09
  -1  10   1 1113.99   90.99
   1 -10  -1 1117.39   98.29
   1 -10   1  990.50   97.19
   1  -1 -10 1169.08   94.19
   1  -1  10  905.31   88.59
   1   1 -10 1016.70   90.79
  10  -2   0   94.49   34.40
   2   0 -10   65.09   28.60
   2   0  10  139.89   34.00
 -10   0  -2  176.68   38.30
 -10  -2   0   90.79   30.10
 -10   2   0  179.58   40.70
  -2   0 -10  101.19   33.80
  -2   0  10   72.49   33.10
   0 -10  -2  115.49   40.70
   0 -10   2  136.69   40.40
   0  10  -2   80.79   29.20
   0  10   2  142.39   35.80
   2  10   0   84.49   28.40
  10   0  -2   79.99   30.00
  10   0   2  107.99   37.80
   0   2  10   60.89   32.30
  10   2   0  154.48   40.10
 -10   0   2  137.49   34.00
  -2 -10   0  124.59   38.80
  -2  10   0  126.59   33.70
   0  -2 -10   78.99   30.50
   0  -2  10  134.59   36.90
   0   2 -10  125.29   34.30
   2 -10   0   65.49   30.50
 -10   1   2  111.09   31.60
  10   1  -2  120.39   38.00
   2   1  10   44.60   25.10
  10  -2  -1  114.79   37.80
  10  -1   2  167.08   41.80
 -10  -1  -2  102.29   31.90
  -2   1 -10   73.99   27.30
  -1  10  -2   81.29   28.00
   2  10  -1   54.99   24.40
   1 -10  -2   12.70   22.50
  10   2   1   81.89   34.20
 -10  -2   1   71.49   25.20
 -10   2  -1   66.19   22.10
  -2  10   1   73.29   26.00
   1   2 -10   69.99   27.80
  -2  -1  10   91.29   32.30
  -1  -2 -10   39.80   23.70
   2 -10   1   35.80   25.70
   2  -1 -10   95.79   31.40
  -1   2  10  158.08   42.50
   1  -2  10   39.30   21.20
   1  10   2   72.09   29.50
  -1 -10   2  114.69   38.20
  -2 -10  -1   77.19   34.40
  -1  -2  10  159.08   41.60
  10  -2   1   69.89   32.90
  -1 -10  -2   32.60   22.90
   2 -10  -1   73.29   31.00
   1   2  10  104.09   35.20
 -10  -1   2  108.39   32.50
   2  10   1  124.79   34.00
  10  -1  -2   14.60   18.00
  10   2  -1  123.29   39.10
   2   1 -10   81.69   29.50
  -2  10  -1   66.19   28.20
 -10   2   1   68.79   27.20
  -2  -1 -10  149.99   39.30
 -10   1  -2   41.50   22.00
  -1   2 -10   61.39   26.00
   2  -1  10   89.49   31.50
   1  -2 -10   50.09   24.70
  10   1   2   50.49   26.10
  -2   1  10   36.20   26.20
   1 -10   2   -3.70   18.70
   1  10  -2   41.20   22.40
 -10  -2  -1   32.70   21.00
  -2 -10   1  106.69   39.20
  -1  10   2   51.09   25.10
  -2  -2  10  459.45   58.69
   2 -10  -2  534.95   62.89
   2 -10   2  580.84   69.79
  10   2   2  574.54   65.69
   2  10  -2  535.55   58.29
   2  10   2  473.15   55.79
  10  -2  -2  537.75   63.89
  -2   2 -10  495.35   58.19
  -2   2  10  547.35   63.39
  -2  10  -2  541.65   58.99
  -2  10   2  575.04   58.69
  -2  -2 -10  500.45   58.69
  -2 -10  -2  601.74   65.99
   2  -2 -10  376.46   63.59
  10  -2   2  492.25   64.59
  10   2  -2  530.35   64.69
 -10  -2  -2  569.54   57.49
 -10  -2   2  463.65   54.49
 -10   2  -2  463.05   54.19
 -10   2   2  462.05   56.89
   2   2 -10  337.57   59.99
  -2 -10   2  488.05   64.99
   2   2  10  566.34   60.99
   2  -2  10  644.64   61.79
   0   3 -10  234.68   46.90
 -10   0   3  172.58   38.20
  -3 -10   0  191.88   49.30
  -3  10   0  216.58   42.30
   0  -3 -10  244.28   50.29
   0  -3  10  158.68   40.50
   0   3  10  182.18   44.40
  -3   0  10  176.68   42.20
 -10   0  -3  172.68   38.90
   0 -10  -3  261.77   51.89
  10  -3   0  178.28   45.70
   3 -10   0  135.39   41.40
   3  10   0  206.88   42.30
 -10  -3   0  124.29   33.10
 -10   3   0  125.09   35.40
  -3   0 -10  155.58   41.20
  10   3   0  168.88   49.40
  10   0  -3  224.38   48.70
   0 -10  -3  156.08   36.70
   0 -10   3  237.08   55.79
   0  10  -3  179.08   40.80
   3   0 -10  190.78   44.30
   3   0  10  238.38   45.40
  10   0   3  226.48   52.09
   1 -10  -3  681.43   68.59
  10   3   1  751.52   79.09
  -1   3  10  751.62   77.09
   3 -10   1  738.33   80.29
   3  10  -1  726.23   70.49
   1  -3  10  795.32   73.39
  -3  -1  10  679.93   74.29
  10  -1   3  803.02   79.89
  10   1  -3  809.62   79.69
 -10   3  -1  675.33   68.39
  -1  10  -3  693.53   70.89
   1 -10  -3  642.64   72.39
 -10  -1  -3  883.21   73.79
 -10  -3   1  725.43   68.49
  -1 -10   3  742.73   81.19
  -3 -10  -1  808.62   81.49
  -3  10   1  622.44   66.99
   3  -1 -10  717.73   72.49
  -3   1 -10  680.53   72.09
   1   3 -10  790.12   73.29
   3   1  10  496.45   64.59
  10  -3  -1  718.33   78.09
  -1  -3 -10  640.84   72.29
 -10   1   3  869.81   75.79
   3  -1  10  805.42   73.39
  10   3  -1  854.61   82.59
  -1 -10  -3  721.33   74.79
  -3 -10   1  757.12   80.59
  -3  10  -1  798.92   72.49
   1  10  -3  651.93   70.09
  10  -3   1  711.93   78.79
  -3   1  10  743.63   77.59
   1   3  10  810.12   77.39
   1 -10   3  747.63   81.89
   1  -3 -10  790.52   76.69
   3  10   1  752.72   72.39
   3   1 -10  670.23   70.89
 -10  -3  -1  689.53   68.19
   3 -10  -1  716.93   78.89
  10   1   3  725.43   77.39
 -10  -1   3  772.32   73.09
 -10   1  -3  670.53   68.59
  10  -1  -3  677.63   74.09
  -1   3 -10  670.33   70.29
  -1  -3  10  746.63   73.09
 -10   3   1  759.22   70.59
  -3  -1 -10  708.53   72.29
  -1 -10  -3  679.73   68.69
   3   2  10   69.09   27.50
   3 -10   2  133.79   43.00
   3  10  -2   45.30   24.00
  -2  -3 -10   55.99   28.40
  -3  10   2   25.20   24.40
  10  -2   3   74.89   32.20
  10   2  -3   57.89   31.10
 -10   3  -2   27.80   19.10
   2  -3  10   64.89   27.40
   3  -2 -10   70.39   27.90
  -2  10  -3   47.30   23.00
   2 -10  -3   78.59   30.90
   2 -10  -3   43.50   22.20
 -10  -2  -3   43.20   20.90
  -2   3  10   99.99   36.00
   2   3 -10   51.99   25.90
  -3 -10  -2   88.89   35.00
 -10  -3   2   60.69   25.80
  -3  -2  10   50.49   27.70
  -3   2 -10   50.09   22.90
  10  -3  -2   98.99   35.90
  -2 -10   3  106.89   40.30
  10   3   2   94.29   35.10
 -10   2   3   40.10   23.80
   3  10   2   27.20   24.90
 -10   3   2  113.09   35.10
  -3  10  -2   88.69   29.20
  10  -2  -3   56.19   30.20
   3   2 -10   86.69   33.30
   2   3  10   71.09   29.00
  -2   3 -10   74.69   29.20
   2  10  -3   63.89   26.70
  -3  -2 -10   29.50   22.80
  -2 -10  -3   37.00   23.20
 -10  -2   3   66.19   26.70
  10  -3   2   57.59   31.20
  10   2   3   54.49   28.80
  -2 -10  -3   19.10   24.30
 -10  -3  -2   85.39   27.50
  -2  -3  10   60.79   31.80
   3 -10  -2   85.79   34.00
   3  -2  10   55.29   27.10
  -3   2  10   50.19   27.50
  10   3  -2   51.79   30.00
 -10   2  -3   51.49   25.80
   2 -10   3   55.29   29.20
   2  -3 -10   86.99   33.10
  -3 -10   2  105.49   37.90
   3 -10   3  574.64   74.49
   3  -3 -10  813.62   73.49
 -10   3  -3  534.75   60.79
  -3  -3 -10  584.74   65.39
  -3  -3  10  589.14   64.99
  -3 -10   3  639.44   74.79
  10  -3  -3  563.44   67.89
  10  -3   3  635.04   72.59
  10   3  -3  676.53   72.99
 -10   3   3  532.25   62.59
  -3 -10  -3  481.55   65.69
  -3 -10  -3  631.34   64.59
   3 -10  -3  564.74   65.89
 -10  -3  -3  555.84   60.89
 -10  -3   3  628.34   61.39
  10   3   3  632.84   71.49
   3   3 -10  511.35   61.49
   3   3  10  608.14   65.79
   3  10  -3  623.24   64.79
  -3   3 -10  517.35   63.09
  -3   3  10  599.84   68.79
  -3  10  -3  649.83   65.39
   3 -10  -3  619.44   62.99
   3  -3  10  536.05   60.39
 -10   4   0  229.28   45.20
  -4   0  10  330.97   58.49
  10  -4   0  133.49   41.80
  10   4   0  205.78   50.69
   0 -10   4  157.78   48.40
  10   0   4  209.18   49.00
   4  10   0  224.08   44.60
  10   0  -4  199.58   46.50
  -4   0 -10  189.18   43.40
   0  10  -4  188.88   44.10
   4   0 -10  260.27   50.19
   4   0  10  277.37   51.89
   0 -10  -4  362.76   59.29
   0 -10  -4  211.28   43.90
 -10   0  -4  292.17   49.10
 -10   0   4  277.77   50.09
  -4 -10   0  326.37   62.49
  -4  10   0  309.87   50.89
   0  -4 -10  237.48   48.20
   0  -4  10  295.77   51.59
   0   4 -10  171.48   38.90
   0   4  10  224.88   47.80
   4 -10   0  283.57   59.29
 -10  -4   0  261.57   47.00
   1  -4  10  414.96   66.09
   4  10  -1  535.85   61.49
  -1  10  -4  621.94   66.89
  -4 -10  -1  566.14   70.89
   4  -1 -10  763.32   70.59
 -10  -1  -4  582.24   63.29
  10  -1   4  592.64   73.39
  10   4   1  595.34   71.79
  -1 -10   4  649.04   76.29
   4 -10   1  656.63   73.09
   1 -10  -4  524.75   64.49
   1 -10  -4  544.45   62.29
  -4  10   1  555.94   62.59
  -1  -4 -10  623.24   67.89
 -10  -4   1  630.84   61.59
 -10   4  -1  552.44   60.89
   4   1  10  741.83   70.39
  10  -4  -1  572.44   69.29
  -4   1 -10  689.23   68.09
  -4  -1  10  660.73   71.29
  -1   4  10  633.44   70.19
   1   4 -10  669.93   67.39
 -10   1   4  610.24   67.29
  10   1  -4  565.54   67.49
  -1  -4  10  577.14   64.89
  -4   1  10  595.14   68.09
 -10  -4  -1  648.14   62.49
 -10   1  -4  545.65   61.39
  -4  10  -1  570.54   61.79
  -1 -10  -4  632.14   66.69
  -1 -10  -4  564.34   62.89
  10   1   4  675.63   72.19
   4   1 -10  682.53   67.19
   1 -10   4  521.05   71.99
   1  -4 -10  620.64   67.89
  10  -4   1  581.84   70.89
 -10  -1   4  685.93   67.39
   1   4  10  658.23   69.29
  -4 -10   1  550.34   72.29
  -1   4 -10  748.53   70.29
 -10   4   1  741.83   67.39
   4  10   1  834.12   71.99
  -4  -1 -10  619.44   66.09
   4  -1  10  577.74   63.19
   1  10  -4  614.04   66.19
   4 -10  -1  700.33   73.39
  10  -1  -4  658.13   69.49
  10   4  -1  650.23   74.39
   2  -4  10   36.20   23.00
   4 -10   2    4.70   21.20
   4  10  -2  -12.00   14.80
 -10  -2  -4   17.70   17.90
   4  -2 -10   35.60   22.70
  -4  10   2    1.90   15.80
  -2   4  10   18.20   22.90
  -2 -10   4    4.70   19.60
  -2  10  -4    8.00   20.40
  -4   2 -10   29.10   21.10
   2 -10  -4   -6.00   19.50
  10   4   2    6.30   23.40
  10   2  -4   -4.10   21.90
 -10   2   4   14.70   19.40
 -10  -4   2   28.80   22.50
 -10   4  -2   24.00   20.90
   4   2  10   -2.00   18.80
  10  -4  -2   -3.10   21.10
  -4  -2  10   16.50   21.70
   2 -10  -4   20.90   24.10
   2   4 -10   -9.70   19.40
  -2  -4 -10   11.90   17.60
  -4 -10  -2    6.10   22.20
  10  -2   4   13.40   21.80
   2  -4 -10   24.80   19.60
  -4 -10   2    4.30   24.10
  -2 -10  -4    8.40   16.50
   2 -10   4    2.10   23.60
   4  10   2   21.70   19.60
   2   4  10  -11.00   13.80
  -4  10  -2   31.10   19.90
 -10  -4  -2    8.10   16.30
 -10   2  -4    5.70   16.80
   2  10  -4   37.80   24.90
  10  -2  -4   28.50   25.90
  -2  -4  10  -24.30   18.30
  -2   4 -10    6.60   21.80
  -4  -2 -10    4.40   21.60
 -10  -2   4  -10.70   20.90
   4  -2  10   32.70   24.90
   4   2 -10   -2.10   16.90
   4 -10  -2   30.60   24.60
  -2 -10  -4   23.30   25.40
  10   2   4    3.50   20.90
 -10   4   2  -12.80   15.90
  -4   2  10   15.20   22.00
  10  -4   2    2.50   18.70
  10   4  -2    3.70   20.60
  10   4   3   63.49   30.50
   3 -10  -4   22.50   18.80
  10  -3   4   84.29   38.50
  -3  -4 -10    3.10   17.80
  10  -4  -3   12.10   26.10
   4  -3 -10   33.00   25.50
  -4  -3  10   67.09   32.00
  -4   3 -10   40.30   25.40
   3  -4  10   20.90   27.50
  10   3  -4    3.70   21.20
 -10   4  -3   38.60   26.60
  -3 -10   4   27.00   27.40
  -3  10  -4   42.40   26.20
   3 -10  -4   34.70   32.00
  -3   4  10   67.59   30.20
 -10  -4   3   10.20   19.50
 -10   3   4   45.00   28.10
  -4 -10  -3   22.30   29.20
   4  10  -3   46.00   22.00
   3   4 -10   42.90   25.90
   4   3  10   32.00   22.00
   4 -10   3   17.00   26.90
 -10  -3  -4   78.09   25.10
  10  -4   3   38.20   29.50
 -10  -3   4   21.80   21.60
   4 -10  -3   22.10   24.90
   4  10   3   57.29   27.10
 -10  -4  -3   33.80   19.00
   3  -4 -10   12.50   20.40
  -4  10  -3   18.50   22.10
  -4   3  10   47.60   25.20
   3   4  10   49.90   27.60
   3 -10   4   10.80   27.00
  -3 -10  -4   78.29   30.20
  -3  -4  10   44.20   29.90
  -4 -10   3   -9.60   18.40
  10   4  -3   33.90   26.20
  10  -3  -4   23.90   25.50
 -10   3  -4   12.70   18.10
  -3 -10  -4   71.59   32.40
  10   3   4   31.30   26.30
  -4  -3 -10   58.09   28.00
   4  -3  10   28.10   23.80
   4 -10  -3   24.60   21.40
   3  10  -4   19.30   21.70
  -3   4 -10   63.79   30.10
 -10   4   3   54.89   27.40
   4   3 -10   36.30   24.40
 -10  -4  -4   53.79   23.60
 -10  -4   4   93.69   33.10
   4 -10  -4   38.90   22.40
  -4   4  10   52.09   26.50
 -10   4   4   46.50   27.20
   4  -4  10   50.79   24.10
   4   4 -10   41.40   26.90
   4   4  10   37.40   25.20
   4  10  -4   35.40   24.10
  10  -4  -4   37.10   30.90
  10  -4   4   42.80   29.80
  10   4  -4   80.99   35.20
  10   4   4   59.19   36.00
   4 -10   4   98.29   36.60
   4  -4 -10   79.29   30.40
 -10   4  -4   67.29   26.80
  -4  10  -4    8.00   23.60
  -4 -10  -4   59.39   30.40
  -4 -10  -4   61.39   28.40
  -4 -10   4   68.39   33.50
  -4  -4 -10   62.19   30.00
  -4   4 -10   96.79   32.80
   0  10  -5   20.00   22.50
   5   0 -10   40.10   26.90
  -5   0  10   -1.50   20.60
   0 -10   5   13.70   25.10
  10  -5   0    7.20   23.80
  10   5   0   19.50   26.00
  10   0  -5    5.60   20.80
  10   0   5   27.90   30.00
 -10  -5   0  -15.80   14.50
 -10   5   0    4.20   19.10
  -5   0 -10   29.50   23.20
   5  10   0    5.40   17.90
   5   0  10   12.40   22.50
   0   5  10   39.70   23.10
   5 -10   0   -8.40   22.10
  -5  10   0    9.50   17.30
   0  -5 -10  -10.10   17.60
   0   5 -10   26.70   22.50
  -5 -10   0   36.10   31.50
   0 -10  -5   28.00   20.80
 -10   0  -5   14.20   21.80
 -10   0   5   20.40   22.20
  -1  10  -5  431.26   55.49
   5 -10   1  514.05   67.89
   5  10  -1  378.36   51.49
  -1 -10   5  440.36   77.69
  -5  -1  10  537.85   63.19
  -5   1 -10  443.96   56.49
  -5  10   1  497.85   55.39
 -10  -5   1  452.45   51.49
 -10   1   5  482.75   73.39
 -10  -1  -5  419.86   52.19
   1 -10  -5  444.86   54.69
 -10   5  -1  559.04   56.39
   1   5 -10  491.75   56.99
   5  -1 -10  496.65   57.89
  10  -1   5  336.17   65.59
  10   1  -5  487.15   61.49
   5   1  10  482.25   56.99
  10  -5  -1  358.56   68.39
  -5 -10  -1  531.65   65.79
  10   5   1  503.05   65.79
  -1  -5 -10  524.15   60.99
  -1   5  10  495.05   60.79
 -10  -5  -1  423.56   50.69
   1  10  -5  476.35   57.49
 -10   1  -5  521.75   56.59
   5   1 -10  452.45   55.19
  10  -5   1  363.46   71.69
  -5 -10   1  406.76   71.49
  -5  10  -1  300.87   54.69
  10   5  -1  472.65   64.79
   1   5  10  470.75   58.69
  -1   5 -10  432.76   64.59
  -5  -1 -10  577.04   59.49
   1  -5 -10  496.45   61.09
  -5   1  10  558.24   64.09
   5  10   1  415.86   53.59
  10  -1  -5  378.76   64.29
 -10   5   1  509.85   55.79
   1 -10   5  567.24   71.59
  10   1   5  629.74   67.79
 -10  -1   5  572.94   61.29
   5  -1  10  439.96   54.59
   5 -10  -1  443.96   74.19
  -1 -10  -5  395.76   52.99
  -5  10   2   36.50   21.40
  -2  -5 -10   37.50   25.90
   5  10  -2   36.90   24.90
   5  -2 -10   49.20   27.40
  -5 -10  -2   55.99   32.80
   5 -10   2   34.90   34.20
   2 -10  -5   23.20   22.40
 -10   5  -2   55.69   24.40
 -10  -2  -5   33.40   23.40
   2   5 -10   34.00   25.50
 -10   2   5   59.59   31.70
  -5   2 -10   51.09   27.20
   5   2  10   90.39   31.70
  10  -5  -2   25.70   23.00
  -5  -2  10   15.70   23.50
  10   5   2   33.50   29.10
  -2 -10   5   29.70   33.10
  10   2  -5   69.89   33.40
 -10  -5   2   35.10   20.80
  10  -2   5   30.20   25.20
  -2   5  10   15.20   23.30
  -2  10  -5   72.29   32.60
  -5   2  10   76.59   36.30
  -2 -10  -5   21.50   21.70
   2 -10   5   61.29   33.20
   5   2 -10   29.80   21.60
   2  10  -5   58.19   27.60
   2  -5 -10   16.70   21.10
  10  -2  -5   64.29   30.30
  -2   5 -10   61.79   26.30
 -10  -5  -2   25.80   22.20
  10   2   5   32.30   29.90
 -10  -2   5   68.09   29.90
 -10   2  -5   57.39   23.50
   5 -10  -2   54.89   31.50
  10   5  -2   32.80   26.60
  -5  -2 -10   88.59   35.20
  10  -5   2   53.29   31.90
  -5 -10   2   48.60   32.20
  -5  10  -2   52.79   26.00
 -10   5   2   29.30   25.40
   2   5  10   36.60   27.50
   5  10   2   47.90   29.00
   5  -2  10   -2.20   22.00
   5   3  10  -14.40   19.70
  -5   3 -10  -19.10   15.60
   5  10  -3  -19.80   13.20
  10  -3   5   -5.10   22.40
 -10   3   5   11.20   21.70
  -3   5  10   -8.10   19.90
 -10   5  -3   42.20   27.50
  -5 -10  -3    2.80   24.80
 -10  -3  -5   27.10   23.10
   3 -10  -5   -6.80   16.00
 -10  -5   3   -9.40   17.80
   3   5 -10   -1.30   16.20
  10   3  -5    9.10   22.40
  10  -5  -3   22.40   24.70
  -3  10  -5   -3.40   18.30
  -3 -10   5   -1.60   24.90
  10   5   3   17.60   24.20
   5 -10   3   33.20   29.70
   5  -3 -10  -11.90   17.40
  -5  -3  10   14.70   27.10
  -3  -5 -10   19.60   20.80
  -3 -10  -5   11.30   18.00
 -10   5   3    4.30   18.10
  -5  10  -3   32.00   21.40
   3  10  -5    7.90   20.00
 -10   3  -5   -3.90   14.60
  10   5  -3    8.00   26.00
   5   3 -10    4.80   19.40
  -5 -10   3   -3.50   20.80
   3   5  10   10.20   23.60
   5 -10  -3    8.80   21.90
  -3   5 -10   61.39   26.90
  -5   3  10   19.20   21.40
   5  10   3   -2.30   18.90
  10  -3  -5    1.70   24.50
   5  -3  10   10.80   24.00
  -5  -3 -10   -4.60   18.20
  10   3   5   21.90   22.40
   3  -5 -10   -6.30   19.30
 -10  -3   5    8.00   21.30
  10  -5   3   20.30   23.10
 -10  -5  -3    0.70   17.00
   3 -10   5   -8.20   27.50
   5 -10   4  378.26   75.89
   5  -4 -10  426.36   66.39
  -4  -5 -10  403.66   65.09
  10  -4   5  346.47   68.69
  10   5   4  447.16   77.79
 -10  -5   4  413.96   60.69
  -4  10  -5  440.56   53.69
   4 -10  -5  465.05   52.89
  -5   4 -10  390.76   63.69
   5  10  -4  337.57   56.89
  -4   5  10  225.98   53.69
  -4 -10   5  439.26   77.09
   4   5 -10  316.37   55.99
  -5 -10  -4  448.56   57.99
  -5 -10  -4  360.06   59.09
   5   4  10  281.97   56.19
 -10   5  -4  309.77   53.19
 -10  -4  -5  457.85   52.79
  10  -5  -4  218.58   53.19
  10   4  -5  363.56   68.39
 -10   4   5  440.36   68.19
 -10  -4   5  325.77   58.29
 -10  -5  -4  338.77   56.69
 -10   4  -5  322.07   54.79
 -10   5   4  376.36   63.29
   4 -10   5  391.36   76.09
   4  10  -5  369.46   61.49
  -4 -10  -5  371.96   60.39
   4  -5 -10  384.56   63.49
  -4   5 -10  281.87   54.99
  10   4   5  357.66   65.59
   5 -10  -4  225.78   46.40
  -5 -10   4  377.66   75.99
  -5   4  10  376.06   65.89
   5   4 -10  292.57   51.19
  10   5  -4  456.35   78.89
  -5  10  -4  363.96   58.99
  -5  -4 -10  300.37   56.09
  10  -5   4  243.48   61.89
   4   5  10  325.77   60.29
  10  -4  -5  431.56   57.59
   5  -4  10  406.76   60.59
  -5   5  10  625.24   76.59
 -10   5  -5  824.62   74.69
 -10  -5  -5  711.63   73.59
 -10   5   5  724.93   80.39
  -5 -10  -5  827.22   77.89
  -5 -10   5  663.43   85.69
  -5  -5 -10  727.33   76.69
   5  10  -5  810.72   76.69
  10  -5  -5  663.83   80.19
   5   5  10  664.63   76.09
  10   5  -5  668.73   82.99
 -10  -5   5  783.22   73.99
   5 -10   5  776.92   87.99
   5  -5 -10  847.22   80.19
   5   5 -10  894.61   80.39
  -5   5 -10  620.54   72.99
  10   5   5  722.93   82.29
  -5  10  -5  753.22   75.29
   5 -10  -5  799.52   75.99
  10  -5   5  435.26   85.89
   6   0 -10  315.67   52.89
 -10   0   6  236.78   51.69
  -6   0 -10  215.78   47.60
  -6  10   0  326.97   54.39
   0  -6 -10  345.87   59.39
   0  10  -6  243.48   47.70
  -6 -10   0  298.87   58.69
 -10  -6   0  331.27   50.99
 -10   0  -6  171.58   41.40
  10   0  -6  206.58   49.80
  10   0   6  321.67   62.89
  -6   0 -10  226.88   46.80
   0   6  10  214.28   47.50
  10  -6   0  351.96   70.19
  10   6   0  236.58   55.29
   0 -10   6  406.66   75.99
   0 -10  -6  308.57   55.69
   6 -10   0  271.77   57.79
   0   6 -10  353.76   58.39
  -6   0  10  402.06   68.69
 -10   6   0  329.27   54.19
   6  10   0  374.26   57.99
   6  -1 -10   -5.50   20.60
  -6 -10  -1   31.90   29.70
   1 -10  -6   22.70   22.80
 -10   1   6  -11.80   19.30
  10   6   1   14.40   27.00
   6 -10   1   29.70   32.40
 -10  -1  -6   16.50   20.10
  -1  10  -6   45.20   29.60
  -6   1 -10   23.50   20.20
  -1  -6 -10   31.20   23.10
 -10  -6   1   43.70   26.30
 -10   6  -1   32.30   22.50
  10   1  -6    9.80   27.70
  -6  10   1   22.70   24.00
  -6   1 -10   55.09   28.90
   1   6 -10    1.60   17.80
  -1   6  10   89.99   37.80
  -1 -10   6    6.10   28.50
  -6  -1  10    9.80   25.80
  10  -1   6   21.30   27.80
   6  10  -1   27.30   24.20
  10  -6  -1   53.19   30.60
 -10  -6   1   43.30   29.60
   1 -10   6   41.00   30.00
  -1   6 -10   -3.60   17.10
   1   6  10   18.30   27.30
   6 -10  -1   19.50   29.00
   6   1 -10   45.90   28.60
  -6 -10   1   37.70   29.50
  10  -1  -6   17.60   25.30
 -10   1  -6    8.50   18.10
   6  10   1   24.70   22.90
  -6   1  10    4.60   22.10
 -10  -6  -1   25.70   21.10
  -6  -1 -10   26.10   26.90
  -1 -10  -6    5.70   18.90
  -6  10  -1   31.50   24.60
 -10   6   1   52.49   23.50
  10  -6   1   69.69   40.10
  -6  -1 -10    6.80   21.60
   1  -6 -10   40.20   28.50
   1  10  -6   36.50   24.60
  10   1   6   33.20   28.50
 -10  -1   6   50.09   27.60
 -10  -2  -6  829.32   80.59
   6  10  -2  863.71   79.69
   6   2  10  743.13   79.49
  -6 -10  -2  739.13   86.99
  -2  -6 -10  853.21   83.59
  -2   6  10  750.02   82.39
  -6   2 -10 1021.10   83.69
 -10  -6   2  853.81   75.19
 -10   6  -2  934.71   78.89
  -6   2 -10  921.01   82.69
  -2 -10   6  939.91   95.89
  -2  10  -6  973.60   85.09
   2 -10  -6  961.70   85.39
  10  -6  -2  940.61   91.99
   2   6 -10  845.82   81.29
  10   2  -6  660.43   79.99
 -10   2   6  818.62   85.39
   6 -10   2  927.01   95.19
 -10  -6   2  900.61   92.99
  10  -2   6  755.62   85.79
  -6  10   2  971.00   82.89
  -6  -2  10  800.42   83.29
   6  -2 -10  795.82   80.49
  10   6   2  899.01   92.09
  -6   2  10  830.32   87.29
   2 -10   6  584.54   83.09
 -10   6   2  820.52   81.09
  -6  10  -2  779.02   77.29
 -10   2  -6  776.82   77.69
   6   2 -10  716.23   76.29
  10  -2  -6  698.63   78.19
  10  -6   2  894.21   95.29
  -6  -2 -10  811.62   79.59
  -6 -10   2  824.22   90.59
   2  10  -6  725.13   78.09
  -2 -10  -6  816.92   80.59
   2  -6 -10  784.12   82.19
 -10  -2   6  862.11   82.79
   2   6  10  780.32   81.99
   6 -10  -2  748.13   85.09
 -10  -6  -2  867.61   76.19
  -2   6 -10  767.02   79.49
   6  10   2  750.42   77.39
  10   2   6  937.61   88.19
  -6 -10  -3   12.10   27.20
  -6   3 -10  -23.20   19.70
  -6  10   3  -30.70   18.80
  -3  -6 -10   -7.40   15.50
   3 -10  -6    4.00   17.50
  -3   6  10  -13.30   20.80
 -10  -3  -6   18.80   20.40
 -10  -6   3   20.00   26.40
  -6   3 -10    0.10   25.80
   3   6 -10    7.00   21.00
   6  -3 -10   -3.60   20.60
  -3 -10   6   20.40   29.30
   6 -10   3  -14.00   23.30
 -10   6  -3  -16.70   20.60
  10  -6  -3   12.10   23.60
  10  -3   6    1.50   24.30
  10   3  -6   38.20   30.90
   6  10  -3   13.30   21.90
  -6  -3  10  -26.30   19.00
   6   3  10  -16.00   19.00
 -10   3   6    5.10   24.60
  10   6   3   11.80   25.90
  -3  10  -6   -5.50   19.70
   6 -10  -3   14.00   25.80
   6  10   3    1.20   22.20
 -10   3  -6    9.00   20.00
 -10   6   3   10.80   25.10
 -10  -3   6   -1.10   21.20
  10  -6   3    5.40   24.70
 -10  -6  -3   16.50   19.40
  -6 -10   3    2.20   27.00
  -6  -3 -10   12.60   24.20
   3  10  -6   -0.90   17.00
   3   6  10   -1.40   22.00
  -3   6 -10   -9.40   22.40
   3 -10   6   -7.90   25.00
   6   3 -10   16.10   22.50
  -6  10  -3  -10.70   22.00
  -3 -10  -6   43.00   25.50
  -6   3  10  -15.00   20.20
  10   3   6    3.60   26.00
   3  -6 -10  -16.20   19.90
   4   6 -10   84.79   36.90
  -4  10  -6   73.89   31.50
  10  -6  -4  153.38   47.10
   6   4  10   55.39   31.50
  10  -4   6  100.69   43.50
  10   4  -6   81.69   36.80
  10   6   4    9.60   25.40
  -4  -6 -10   63.49   33.30
   6  10  -4   80.29   33.30
   6  -4 -10  136.69   43.00
 -10   4   6  118.29   41.60
 -10  -4  -6   74.99   30.90
   4 -10  -6   45.60   25.20
  -4 -10   6   62.49   36.90
  -4   6  10  104.99   41.90
 -10  -6   4   86.69   40.70
  -6   4 -10   71.19   33.40
 -10   6  -4  100.59   30.70
   6 -10   4  103.89   43.10
  -6 -10  -4   38.20   34.60
   6 -10  -4   22.70   25.80
   4   6  10   61.09   30.40
 -10  -4   6  102.09   34.90
  -4 -10  -6  115.19   36.90
  -6   4  10   87.29   35.50
  -4   6 -10   42.30   27.80
  10   4   6  148.49   41.40
 -10  -6  -4   33.50   24.50
  -6  -4 -10   88.69   34.00
  -6 -10   4  100.89   40.70
   4  10  -6   68.59   32.50
   6  10   4  114.39   39.10
 -10   4  -6   75.89   29.40
  10  -6   4  115.49   44.40
   6   4 -10   79.59   32.60
   4  -6 -10   73.89   31.30
  -6  10  -4   22.30   27.60
   4 -10   6   94.89   39.70
 -10   6   4   86.29   34.90
  -6 -10  -5    2.20   28.20
   5 -10  -6   14.20   23.90
  -5   6  10   13.40   24.20
   5   6 -10   13.60   25.40
   6  -5 -10    9.10   26.50
   6 -10   5    4.20   29.20
  -5 -10   6   14.20   29.70
  -5  10  -6    3.90   24.50
  10  -5   6   16.90   29.10
  10   5  -6   50.69   32.70
 -10  -5  -6   -7.30   21.80
   6  10  -5   41.60   30.40
 -10   5   6  -21.20   25.90
   6   5  10   11.40   26.60
 -10  -6   5    2.00   25.80
  10   6   5   14.40   30.30
  -5  -6 -10   -5.70   22.40
 -10   6  -5   22.50   22.40
  -6   5 -10    1.70   27.20
   5  -6 -10   -6.70   22.60
 -10  -6  -5    3.70   23.20
  -6  10  -5   15.10   23.60
   6 -10  -5    4.20   23.40
  -6  -5 -10   -4.50   24.30
 -10   5  -6   44.10   28.10
   5   6  10    1.70   25.90
  10   5   6   13.30   29.90
  -6 -10   5   37.60   33.00
  10  -6   5   41.30   33.80
   6   5 -10  -13.80   22.90
   5  10  -6    5.90   22.50
   5 -10   6   30.90   30.10
  -6   5  10   19.80   26.70
 -10   6   5    8.20   27.50
  -5   6 -10   26.50   25.80
  -5 -10  -6   36.20   25.10
   6  -6 -10  164.28   45.20
   6 -10   6  181.78   55.59
  -6  10  -6  108.19   40.70
   6 -10  -6  202.68   49.30
 -10  -6   6  126.49   45.60
 -10   6   6   93.49   39.20
  -6 -10  -6  123.19   39.00
  -6  -6 -10  102.39   39.10
   6  10  -6  131.39   43.20
  10  -6   6  198.08   59.79
  -6   6  10  108.19   42.70
   6   6  10  154.28   48.60
  -6   6 -10  103.29   59.09
   6   6 -10  146.19   41.00
 -10  -6  -6  142.09   41.10
  -6 -10   6  221.18   64.99
   7 -10   0   16.40   32.90
   0   7 -10   82.69   31.60
  10   0   7   47.80   33.50
   0  10  -7   71.39   30.70
   7  10   0    1.00   21.90
   0  -7 -10   25.80   24.10
  -7   0 -10  102.59   34.40
  -7   0  10   20.70   26.90
   0 -10  -7   53.59   29.30
 -10  -7   0    1.30   23.90
 -10   7   0  194.28   43.20
   7   0 -10  164.88   45.70
  10  -7   0  121.89   46.60
   0   7  10   17.40   27.00
 -10   0  -7   35.30   25.60
 -10   0   7   69.99   34.60
  -7 -10   0   33.30   29.20
   0 -10   7   56.39   40.10
   7 -10   1  666.93   83.39
  10  -1   7  620.24   74.69
 -10  -1  -7  582.54   69.89
   7  -1 -10  673.33   70.09
  -1 -10   7  682.03   85.59
  -1   7  10  700.53   78.49
 -10  -7   1  564.74   77.89
 -10   7  -1  693.23   68.29
  10  -7  -1  724.13   83.99
   7  10  -1  632.64   68.79
  -7  -1  10  539.65   71.39
   1 -10  -7  803.72   78.99
  -7 -10  -1  785.82   87.09
  10   7   1  606.94   80.39
  -1  10  -7  772.72   77.59
  -1  -7 -10  625.64   77.09
 -10   1   7  768.02   80.29
  10   1  -7  659.83   74.89
   1   7 -10  813.22   78.99
  -7   1 -10  635.44   70.39
 -10  -7  -1  638.54   73.19
   7  10   1  653.53   69.19
   1  10  -7  810.52   78.09
 -10   1  -7  705.33   73.29
  -7   1  10  770.62   82.09
  -7  -1 -10  637.64   70.99
 -10  -1   7  678.43   75.69
  -1 -10  -7  756.12   78.49
  -7 -10   1  640.74   82.19
 -10   7   1  676.33   70.49
   7 -10  -1  782.12   86.59
  -1   7 -10  505.95   67.89
   7   1 -10  660.03   71.49
  10  -7   1  774.12   88.19
  10   1   7  759.12   79.79
   1   7  10  783.02   79.39
   1  -7 -10  635.54   75.69
   1 -10   7  799.92   90.09
 -10   2   7   13.60   25.70
  -2   7  10   19.30   24.30
  -2  10  -7   26.80   27.50
 -10  -7   2   29.60   28.70
 -10   7  -2    9.40   22.40
  10  -2   7    5.00   26.10
   7 -10   2   26.60   29.00
   7  -2 -10   13.20   24.70
  -2 -10   7   11.60   31.10
   7  10  -2   11.50   20.10
  -7 -10  -2   16.70   30.00
   2 -10  -7   -5.10   21.90
  -2  -7 -10   19.40   25.40
  10   2  -7   -6.80   23.50
  -7   2 -10   13.10   22.30
  -7  -2  10   58.79   30.70
 -10  -2  -7   -0.90   24.50
   2   7 -10    5.50   22.00
  10   7   2  -27.00   24.20
  10  -7  -2   -7.80   25.00
  -7  -2 -10   35.80   24.40
   2   7  10   52.29   31.20
 -10  -2   7   32.30   27.30
  10   2   7   -8.80   27.30
  -2 -10  -7   -5.70   18.00
 -10  -7  -2   -3.10   17.50
  -2   7 -10   -6.80   19.60
 -10   7   2   29.10   30.20
   2 -10   7   43.10   34.00
   2  10  -7   23.40   27.20
  -7   2  10   37.50   29.70
   7   2 -10    8.90   22.70
 -10   2  -7   13.90   21.70
  10  -7   2   78.69   43.20
  -7 -10   2   49.20   33.50
   7 -10  -2   75.99   38.30
   7  10   2   41.70   27.70
   2  -7 -10    5.30   24.50
   3 -10  -7  637.14   72.79
  -7 -10  -3  685.43   80.79
  -3   7  10  639.84   73.59
  -3  -7 -10  701.03   75.99
 -10   3   7  588.14   71.89
  -7  -3  10  604.74   70.19
   7 -10   3  740.53   86.79
   7  10  -3  586.14   66.09
  10  -7  -3  575.84   75.19
  10  -3   7  570.44   75.99
  10   3  -7  499.45   68.59
  10   7   3  447.96   80.19
  -3 -10   7  654.63   81.59
   7  -3 -10  542.35   65.69
 -10  -3  -7  599.24   68.29
 -10  -7   3  361.86   77.49
  -7   3 -10  680.73   69.89
  -3  10  -7  610.04   71.09
   3   7 -10  593.74   67.59
   7  10   3  581.24   65.99
  -7  -3 -10  713.23   72.39
   3   7  10  636.24   71.09
   7 -10  -3  689.43   78.49
 -10   3  -7  510.15   64.69
   3 -10   7  611.74   80.19
  -3 -10  -7  502.35   64.89
  -7 -10   3  522.55   89.99
 -10  -7  -3  661.93   65.79
   7   3 -10  672.73   68.79
  10  -7   3  641.34   81.89
  -3   7 -10  488.05   63.99
  -7   3  10  631.74   74.69
 -10  -3   7  553.44   67.39
 -10   7   3  537.25   66.09
   3  -7 -10  478.65   79.29
   3  10  -7  562.24   69.59
   4 -10  -7  160.38   45.00
  10  -4   7   92.19   42.10
  10  -7  -4  166.28   48.80
   7 -10   4  161.58   54.69
   7  10  -4  116.29   36.90
   7  -4 -10  168.88   41.50
  -4   7  10   94.09   40.40
   7   4  10  126.99   40.00
  -4  -7 -10  113.09   42.00
  10   4  -7  104.29   43.70
  -4 -10   7   68.69   38.80
 -10   4   7   47.30   30.10
  -7 -10  -4   68.49   34.70
  -7   4 -10  131.59   38.00
   4   7 -10   84.09   33.00
 -10  -7   4  128.69   46.20
  -4  10  -7  132.79   41.30
  10   7   4  153.38   49.20
 -10  -4  -7  172.88   43.20
  -7   4  10  118.89   42.70
 -10  -4   7  172.28   43.90
   4 -10   7  169.18   54.69
   4  10  -7   71.89   34.30
 -10   7   4  146.19   41.70
   7   4 -10   93.09   34.80
 -10  -7  -4  113.69   37.90
  -4 -10  -7  152.88   42.70
  10  -7   4   72.79   40.80
   7  10   4  101.79   35.90
 -10   4  -7   61.79   33.00
  -7 -10   4  103.19   47.70
   4  -7 -10   52.49   32.80
   4   7  10  124.99   35.90
  -4   7 -10   41.50   30.20
 -10   5   7   29.60   30.10
   7   5  10   54.19   32.60
  -5   7  10   99.59   39.20
  -5  -7 -10  114.19   37.00
 -10  -5  -7   71.69   34.10
   7 -10   5  117.39   53.49
   5   7 -10   74.19   33.30
   5 -10  -7   40.30   27.30
 -10  -7   5   64.19   38.90
  10   7   5   56.39   39.10
  -5 -10   7   66.29   42.70
  10   5  -7  124.99   46.50
   7  -5 -10   23.10   26.40
   7  10  -5   41.00   29.30
  10  -5   7   30.30   31.40
  -5  10  -7   50.69   29.40
   7   5 -10   41.00   31.50
  10  -7   5   42.70   36.20
   5 -10   7   19.90   36.20
  -5 -10  -7   44.60   28.90
   5  10  -7  114.19   40.20
 -10   7   5  121.09   41.00
  -7   5  10  154.48   49.80
 -10  -7  -5   75.19   28.20
  -5   7 -10   42.40   34.20
 -10   5  -7   89.29   36.40
   5  -7 -10   93.69   38.50
  -7 -10   5   64.99   44.40
   5   7  10   63.69   35.20
   7 -10   6  -12.30   34.10
 -10  -7   6   16.20   33.90
  -6  -7 -10   39.70   33.20
  -6   7  10   10.50   32.40
  -6 -10   7   48.50   35.20
   6   7 -10  -16.60   22.80
   7   6  10  -18.00   26.20
   7  -6 -10  -18.60   26.80
   7  10  -6    4.70   26.00
 -10   6   7   -7.90   29.60
  10  -6   7  -24.20   26.70
 -10  -6  -7   20.60   25.60
   6 -10  -7  -19.10   23.60
  -7 -10   6   24.90   38.10
 -10  -7  -6   16.60   29.70
   6 -10   7   -6.40   29.50
   6  10  -7   17.00   24.60
 -10   7   6   20.30   31.80
  -6 -10  -7   44.30   26.60
   6   7  10    6.10   28.70
  10  -7   6   15.90   31.00
 -10  -6   7   25.80   34.20
  -7   6  10   16.90   30.30
   6  -7 -10  -17.70   24.30
   7   6 -10   16.50   31.00
 -10  -7  -7  579.04   70.09
   7   7 -10  569.74   69.09
   7  10  -7  609.94   70.69
  10  -7   7  491.05   92.99
 -10  -7   7  351.66   75.99
   7 -10   7  668.53   87.99
 -10   7   7  575.44   87.39
   7  -7 -10  648.74   77.39
  -7   7  10  576.94   91.69
  -7 -10   7  647.04   87.29
   7   7  10  615.34   88.59
   0  -8 -10  120.19   39.00
  -8   0 -10  251.87   51.99
 -10   0  -8  147.89   42.50
  -8   0  10  182.68   48.90
   0   8 -10  206.78   47.70
   0 -10   8  181.68   56.39
   0  10  -8  163.88   43.90
  10  -8   0   96.19   46.00
   0 -10  -8  143.99   42.70
 -10   0   8  225.78   55.59
  -8 -10   0  334.07   74.19
   0   8  10  206.98   50.69
   8 -10   0  165.98   51.89
 -10  -8   0  118.29   44.50
  -8 -10  -1   15.10   26.30
   8 -10   1   76.89   43.90
  -8   1 -10  103.89   35.10
  10  -1   8   43.40   39.10
  -1   8  10   87.99   35.40
  -1 -10   8  151.58   50.19
  -1  -8 -10   65.49   35.60
  10  -8  -1  102.59   43.30
   1   8 -10   82.29   32.70
 -10  -1  -8   90.29   32.90
   1 -10  -8  101.69   40.60
  -8  -1  10   80.59   34.70
 -10  -8   1   49.70   30.50
  -1  10  -8   35.50   23.50
 -10   1   8   80.49   33.50
 -10  -8  -1   79.19   40.00
  -8  -1 -10   59.79   32.50
   1  -8 -10   52.49   33.40
 -10  -1   8   85.79   41.60
  -1   8 -10   89.19   36.20
   8 -10  -1   46.60   36.90
  -1 -10  -8   78.09   37.10
  -8   1  10   63.49   32.70
   1 -10   8  131.49   51.09
   1  10  -8   28.10   24.10
 -10   1  -8   56.69   29.30
 -10   8   1   42.40   32.20
  -8 -10   1    8.80   26.60
   1   8  10  132.29   40.50
  10  -8   1   40.30   33.90
  10  -8  -2   42.90   38.10
 -10   2   8    8.60   28.80
   2 -10  -8    2.20   26.60
   2   8 -10   45.90   28.70
  10  -2   8   25.60   31.30
  -8  -2  10   -6.60   22.20
  -8   2 -10   21.90   23.00
  -2  -8 -10   12.70   25.90
  -2 -10   8   28.70   36.80
  -2  10  -8   18.40   27.90
 -10  -2  -8    9.50   20.20
  -8 -10  -2   -3.30   28.40
  -2   8  10   23.20   24.70
   8 -10   2    6.70   23.10
 -10  -8   2   10.40   28.40
  10  -8   2   16.40   35.40
  -2   8 -10   29.50   29.10
 -10   8   2   50.69   33.80
   2  10  -8   18.80   25.40
   2 -10   8  -17.10   25.30
  -2 -10  -8    7.50   25.90
 -10   2  -8    8.80   26.20
 -10  -2   8   45.10   33.20
   2   8  10    7.80   31.90
  -8  -2 -10    0.20   22.70
   2  -8 -10    4.80   23.70
  -8   2  10   39.50   28.40
   8 -10  -2   37.40   31.90
  -8 -10   2   49.80   35.40
 -10  -3  -8   33.80   26.40
  -8 -10  -3   18.40   36.80
 -10  -8   3  -29.70   23.20
  -3  -8 -10   26.60   29.30
  10  -3   8  -12.60   27.80
  -3  10  -8  -24.80   23.40
  -3 -10   8   -5.30   28.10
  -3   8  10  -28.50   21.00
  10  -8  -3  -14.80   27.40
   3   8 -10   17.60   20.90
  -8  -3  10   37.90   33.20
  -8   3 -10   10.90   24.80
   3 -10  -8   -6.60   22.10
 -10   3   8    4.30   26.90
   8 -10   3  -19.30   26.30
  10   8   3    7.00   30.20
 -10   8   3   36.90   30.50
  -8 -10   3    4.60   31.40
  -3   8 -10   -0.30   24.00
   3 -10   8   17.10   29.40
   3  10  -8  -17.00   20.70
  -8   3  10    5.30   25.30
   3  -8 -10   -0.40   26.70
  -3 -10  -8   12.30   23.80
   3   8  10   -8.70   23.70
   8 -10  -3   -0.90   29.40
  10  -8   3  -10.00   26.40
  -8  -3 -10   36.00   25.00
 -10  -3   8   25.60   27.70
 -10   3  -8    8.80   23.70
   8 -10   4  469.55   85.09
  -8   4 -10  231.68   48.40
 -10  -4  -8  385.66   61.69
  -4 -10   8  395.56   81.19
 -10  -8   4  121.09   47.60
  -8 -10  -4  299.87   67.79
  -4  10  -8  404.26   67.09
  -4  -8 -10  424.36   72.39
   4 -10  -8  522.25   77.59
  -4   8  10  336.57   65.39
  10   8   4  330.97   71.99
   4   8 -10  444.36   71.09
 -10   4   8  443.26   77.09
  10  -4   8  345.47   67.79
  10  -8  -4  306.97   72.99
  -4 -10  -8  387.76   70.39
  -4   8 -10  249.78   54.49
   4  -8 -10  213.48   53.29
  10  -8   4  278.67   72.09
  -8   4  10  283.47   64.49
   4  10  -8  323.67   63.59
   4 -10   8  308.77   64.49
 -10   8   4  393.26   68.69
 -10  -4   8  329.77   84.79
  -8 -10   4  297.67   70.39
   4   8  10  272.17   56.59
  -8  -4 -10  467.55   69.99
 -10   4  -8  350.26   62.59
  10  -5   8   62.49   38.40
 -10   5   8   45.60   35.40
  -5   8  10   36.50   30.90
  10   8   5   59.99   45.70
   5   8 -10   43.30   29.70
   8 -10   5    0.70   36.30
 -10  -5  -8  105.19   43.60
   8   5  10   -3.10   26.90
   5 -10  -8   14.30   31.00
  -5  10  -8   60.19   35.20
  -5  -8 -10   16.00   31.30
  -5 -10   8   14.00   34.30
 -10  -8   5  -31.50   24.50
  10   5  -8  -13.60   30.60
  -8 -10   5   61.49   46.60
   5 -10   8   23.00   38.30
  10  -8   5   26.60   38.40
   5  10  -8   37.40   30.00
   5   8  10   19.50   31.40
  -5   8 -10    4.50   27.60
   5  -8 -10   61.69   37.20
 -10  -8  -5   19.30   31.10
  -5 -10  -8   63.19   29.70
  -8   5  10   67.59   33.40
 -10   5  -8   31.80   28.60
 -10   8   5   22.60   32.20
 -10   6   8    0.60   29.00
  10  -6   8  -44.40   28.30
   8   6  10   -2.00   31.10
   6 -10  -8  -14.60   27.30
 -10  -6  -8   13.00   28.90
 -10  -8   6  -52.09   27.50
   8 -10   6   21.80   37.40
  -6   8  10  -13.60   29.40
   6   8 -10  -17.10   22.60
  -6  -8 -10   -9.10   28.30
  -6 -10   8    9.30   30.00
   6  10  -8    0.00   28.90
  -8   6  10   12.80   25.70
 -10  -8  -6   -1.10   26.40
   6   8  10   21.50   33.40
  -8 -10   6   20.90   37.20
 -10   8   6   16.80   33.30
   6 -10   8   -1.00   31.80
  -6 -10  -8   -9.10   23.40
  10  -8   6    6.50   36.90
   6  -8 -10   10.50   30.30
 -10  -8   7   22.60   36.50
   8   7  10   14.30   31.80
   7   8 -10   37.20   36.80
  -7   8  10   -2.40   28.60
 -10  -7  -8   96.39   38.60
  -7 -10   8   63.29   46.50
  10  -7   8   26.90   37.60
 -10   7   8   91.39   47.10
   8 -10   7   59.29   44.00
 -10  -7   8   82.29   43.30
  10  -8   7   23.80   41.50
  -8 -10   7   26.90   32.20
 -10   8   7   33.20   40.00
   7  10  -8   96.29   42.80
  -8   7  10  104.39   40.80
   7   8  10    6.00   32.90
 -10  -8  -7   41.00   34.90
   7 -10   8   86.59   46.70
  10  -8   8  373.16   81.89
  -8 -10   8  218.68   65.49
 -10  -8  -8  310.87   60.99
 -10  -8   8  275.77   68.39
   8 -10   8  176.58   59.39
  -8   8  10  267.17   60.59
   8   8  10  341.07   70.69
 -10   8   8  260.27   61.49
   9 -10   0   27.90   35.20
   0 -10   9   10.90   36.40
 -10  -9   0   -1.60   28.80
  -9   0 -10   43.30   29.30
  -9   0  10  -16.10   23.00
   0   9 -10   22.80   27.20
   0   9  10    7.30   28.90
   0  10   9   36.70   36.50
  10  -9   0   34.80   37.20
 -10   0  -9    4.20   26.60
   0 -10  -9  -15.10   26.00
   0  10  -9   -0.10   25.90
   0  -9 -10    8.30   28.80
   0  -9  10   38.10   39.10
  -9 -10   0   18.40   30.70
 -10   0   9  104.29   44.60
   1   9 -10  349.87   66.59
  -1  10  -9  350.36   67.29
 -10   1   9  364.36   68.89
  -1  -9 -10  396.96   74.59
 -10  -1  -9  455.55   72.89
  -9 -10  -1  446.76   85.19
  -9  -1  10  408.86   71.49
  -9   1 -10  321.97   64.09
  -1 -10   9  380.56   75.19
 -10  -9   1  364.06   77.19
   1  -9  10  289.77   65.89
   9 -10   1  467.95   86.89
  10  -9  -1  269.57   67.19
  -1   9  10  272.27   56.99
   1 -10  -9  542.35   82.89
 -10  -9  -1  419.66   83.29
  -9  -1 -10  470.95   73.79
  -1  -9  10  451.35   98.89
 -10  -1   9  402.26   73.69
  -9 -10   1  457.65   84.99
  -1  10   9  326.97   63.49
   1   9  10  558.04   82.39
  -1 -10  -9  364.46   73.39
 -10   1  -9  452.95   69.59
   9 -10  -1  261.77   64.19
   1  -9 -10  401.26   72.29
  -9   1  10  502.35   81.19
   1 -10   9  298.97   68.59
   1  10  -9  367.36   67.39
  -1   9 -10  366.66   65.89
  10  -9   1  399.26   83.69
 -10   2   9   53.59   35.90
  -9 -10  -2   -1.80   31.40
  -2 -10   9  -14.70   30.60
  -2  10  -9   21.70   28.70
   9 -10   2   18.00   34.50
  -2   9  10   24.10   31.70
  -9  -2  10   43.10   33.10
   2  -9  10   19.20   32.90
   2   9 -10   32.50   33.70
  -2  -9 -10    6.10   28.70
  10  -9  -2   15.60   31.00
 -10  -2  -9    7.40   27.50
 -10  -9   2    3.90   34.10
   2 -10  -9   29.80   30.70
  -9   2 -10   35.70   27.70
 -10   2  -9   17.40   29.70
  -9  -2 -10    8.60   24.60
  -9   2  10   32.80   32.20
  -2 -10  -9  -11.10   23.50
  -2  10   9   59.19   32.40
   9 -10  -2   51.69   38.40
  -2   9 -10   54.39   37.10
   2  -9 -10   36.60   32.20
 -10  -2   9   42.80   35.20
  10  -9   2   52.09   43.30
   2  10  -9   16.80   27.80
   2   9  10   34.90   30.60
  -9 -10   2   20.80   36.10
   2 -10   9   35.90   38.50
 -10  -9  -2   41.80   40.60
  -3 -10   9  623.94   87.29
  -9 -10  -3  450.75   88.59
  -3  -9 -10  744.73   85.19
   3  -9  10  623.44   84.59
 -10   3   9  696.93   84.79
 -10  -3  -9  850.91   85.09
  -3   9  10  601.84   95.29
  -3  10  -9  767.52   83.99
   3   9 -10  717.03   82.49
   9 -10   3  681.13  113.39
  -9   3 -10  699.63   77.99
 -10  -9   3  670.53   92.59
   3 -10  -9  787.32   86.59
  -9  -3  10  740.83   81.69
  10   9   3  654.33   87.69
  10  -9  -3  737.73   89.39
  -9 -10   3  678.53   91.39
 -10  -3   9  578.54   89.59
   3  -9 -10  741.63   84.39
  10  -9   3  531.75   97.79
  -3   9 -10  700.03   80.09
  -9   3  10  650.33   81.99
  -3 -10  -9  678.63   80.69
  -3  10   9  594.44   76.19
   3   9  10  703.63   82.39
  -9  -3 -10  822.42   82.99
   3 -10   9  795.62   92.89
   9 -10  -3  864.71   92.09
   3  10  -9  853.81   86.19
 -10   3  -9  723.63   80.19
 -10  -9   4  235.08   63.29
   4   9 -10   91.49   37.80
  -4  -9 -10  101.99   42.90
  10   9   4  126.39   49.10
 -10   4   9  135.19   45.80
   4  -9  10  172.38   55.59
  -9   4 -10   94.99   37.70
  -4  10  -9  165.38   50.99
  -9 -10  -4  164.28   58.19
  -4 -10   9   91.19   54.59
   9 -10   4  156.28   56.89
  -4   9  10  130.19   44.60
   4 -10  -9  137.79   47.90
 -10  -4  -9  243.28   56.19
 -10   4  -9  204.48   53.59
   4   9  10  158.58   46.90
  -4 -10  -9  162.68   46.40
  -9 -10   4   82.69   44.70
   4 -10   9  167.18   53.39
  10  -9   4  105.49   50.79
  -9   4  10  141.89   50.09
  -4  10   9  150.98   46.80
  -9  -4 -10   70.49   36.60
   4  -9 -10   97.79   45.30
   4  10  -9  126.09   39.30
  -4   9 -10   95.49   39.70
  -5  10  -9   20.30   37.10
   9 -10   5    9.00   32.70
  -5   9  10   16.30   31.90
   5 -10  -9   31.50   36.40
   5  -9  10   53.29   42.60
   5   9 -10   37.70   30.30
  -5 -10   9  103.69   50.79
 -10  -9   5   15.90   34.40
 -10   5   9   28.60   27.90
  -5  -9 -10    6.60   33.40
 -10  -5  -9   15.80   29.20
  10  -5   9   40.50   42.30
  -5  10   9   55.39   38.40
  -9   5  10    6.70   29.70
   5 -10   9   53.59   40.60
  10  -9   5   19.50   37.80
  -9 -10   5   11.80   31.70
   5  -9 -10   40.60   34.50
  -5   9 -10   15.50   31.90
 -10   9   5   34.20   36.60
  -9  -5 -10   50.79   30.90
   5  10  -9   62.59   35.10
  -5 -10  -9   81.89   40.50
   5   9  10   26.30   30.20
 -10  -9   6  -29.10   32.30
   9 -10   6  -25.80   34.40
   6 -10  -9    5.40   32.00
   6  -9  10  -15.20   39.80
  -6 -10   9    1.00   41.80
 -10  -6  -9    7.60   30.00
 -10   6   9   17.70   31.10
   9   6  10   20.10   37.10
  -6  -9 -10   40.30   37.00
  -6   9  10   17.70   32.30
   6   9 -10   -0.70   23.50
  10  -6   9    8.10   38.10
   6  -9 -10   27.70   34.90
   6   9  10    1.90   30.50
  -6  10   9    0.10   34.80
 -10   9   6   44.90   38.60
   6 -10   9   19.90   38.90
   6  10  -9   26.30   34.70
  -9 -10   6   -3.20   35.40
  10  -9   6   34.30   39.70
  -6 -10  -9   -7.00   27.80
  -9   6  10   -2.40   32.10
  10  -7   9  626.64  104.29
 -10  -7  -9  616.64   72.19
 -10   7   9  353.56   94.09
   9   7  10  532.95   90.59
  -7   9  10  411.86   74.99
   7  -9  10  405.16   98.39
   7   9 -10  258.77   62.89
  -7 -10   9  413.96   80.69
 -10  -9   7  421.96   93.79
 -10   9   7  379.26   74.69
   7   9  10  512.15   82.09
  -7  10   9  572.04  103.19
   7 -10   9  389.16   80.69
   7  10  -9  383.76   69.29
  -9 -10   7  255.07   72.39
  10  -9   7  561.34  142.49
 -10 -10   0  132.29   49.20
 -10   0 -10  370.56   67.19
 -10   0  10  185.48   52.09
   0 -10 -10  225.58   56.19
   0 -10  10  322.17   73.79
   0  10 -10  164.18   44.80
   0  10  10  227.88   58.99
  10 -10   0  325.67   75.59
 -10 -10  -1   21.80   34.00
 -10 -10   1  -24.20   30.80
 -10  -1 -10    7.30   23.60
 -10  -1  10   18.60   33.60
 -10   1 -10  -11.90   28.80
 -10   1  10   10.70   28.80
  -1 -10 -10  -16.10   25.00
  -1 -10  10    8.60   37.60
  -1  10 -10  -16.50   24.90
  -1  10  10    0.90   25.80
   1 -10 -10   -7.40   29.60
   1 -10  10   35.10   37.70
   1  10 -10   -2.60   26.00
   1  10  10    4.40   35.00
  10 -10  -1   13.40   34.40
  10 -10   1   19.90   33.50
 -10 -10  -2  389.46   77.29
 -10 -10   2  194.38   60.99
 -10  -2 -10  149.69   44.40
 -10  -2  10  370.16   70.09
 -10   2 -10  356.16   66.39
 -10   2  10  311.87   65.19
  -2 -10 -10  390.26   73.39
  -2 -10  10  307.87   72.29
  -2  10 -10  306.47   65.39
  -2  10  10  400.36   71.89
   2 -10 -10  300.57   64.59
   2 -10  10  219.08   70.19
   2  10 -10  250.57   61.89
   2  10  10  126.59   51.19
  10 -10  -2  236.18   65.59
  10 -10   2  407.36   85.29
 -10 -10  -3    9.80   41.30
 -10 -10   3  -50.79   33.40
 -10  -3 -10  -11.20   22.70
 -10  -3  10    0.90   37.50
 -10   3 -10    7.30   31.70
 -10   3  10    9.70   27.90
  -3 -10 -10  -49.70   23.80
  -3 -10  10  -24.40   43.60
  -3  10 -10  -32.00   25.30
  -3  10  10    5.40   28.40
   3 -10 -10    5.60   29.50
   3 -10  10  -28.30   29.30
   3  10 -10    4.70   32.20
  10 -10  -3    8.40   34.00
  10 -10   3   33.20   35.10
 -10 -10   4  -15.60   38.50
 -10  -4 -10   12.10   31.30
 -10   4 -10   23.80   35.30
 -10   4  10   38.10   38.20
  -4 -10 -10   40.60   34.90
  -4  10 -10   77.99   40.40
  -4  10  10   15.80   37.10
   4 -10 -10  -11.50   30.30
   4 -10  10   45.60   38.40
   4  10 -10   57.99   37.90
  10 -10   4   60.09   41.70
  10  10   4    2.70   49.20
 -10 -10   5  -38.70   34.30
 -10  -5 -10    0.40   31.80
 -10   5  10  -20.30   42.70
  -5 -10 -10  -35.50   25.90
  -5  10 -10  -21.10   24.60
  -5  10  10   21.20   39.40
   5 -10 -10  -22.60   31.80
   5 -10  10  -31.40   31.00
   5  10 -10    7.00   29.70
  10 -10   5    9.30   45.30
  -6 -10 -10    4.10   32.20
  -6  10  10   74.59   43.10
   6 -10 -10   61.09   46.20
   6 -10  10   40.30   44.20
 -11   0   0    4.40   16.80
   0 -11   0    0.80   21.80
   0   0 -11   -8.70   17.50
   0   0  11  -14.50   18.60
   0  11   0    0.80   15.00
  11   0   0  -10.00   21.80
 -11   0  -1    8.10   16.90
 -11   0   1   33.20   22.10
  -1 -11   0   -6.00   19.40
  -1  11   0   -3.40   17.00
   0  -1 -11    3.70   18.80
   0  -1  11   24.60   24.70
   0   1 -11    2.80   18.20
   0   1  11   17.30   26.70
   1 -11   0    5.20   23.20
   1  11   0   22.80   19.10
  11   0  -1  -10.40   22.00
  11   0   1   -8.80   21.20
   0 -11   1   -8.60   22.90
   0  11  -1   -7.80   16.30
   0  11   1   -3.40   16.10
   1   0 -11   -6.90   19.10
   1   0  11   29.00   25.50
  11  -1   0   -0.10   23.50
  11   1   0   18.00   23.40
  -1   0  11    2.10   24.70
   0 -11  -1    6.10   20.90
 -11  -1   0   -2.70   16.80
 -11   1   0    1.30   16.90
  -1   0 -11  -16.40   17.20
  -1 -11   1    6.30   23.30
  -1  -1 -11   -7.80   18.40
  -1  -1  11    3.60   20.50
  -1   1 -11   -8.70   20.00
  -1   1  11  -19.50   18.40
 -11   1  -1    3.00   16.60
 -11   1   1   -9.10   17.10
  -1 -11  -1    9.20   24.00
 -11  -1  -1  -17.60   15.50
 -11  -1   1    5.20   14.00
   1  -1  11    8.90   23.40
   1   1 -11   18.80   22.90
   1   1  11    7.10   22.80
   1  11  -1   -1.40   16.40
   1  11   1    2.90   18.20
  11  -1  -1  -12.20   20.10
  11   1   1   16.10   23.80
  11   1  -1   -7.00   20.00
   1  -1 -11   -7.80   18.00
  11  -1   1  -13.80   20.50
   1 -11  -1    7.20   20.60
   1 -11   1  -20.90   17.60
  -1  11  -1   43.80   26.40
  -1  11   1   -5.70   18.30
 -11  -2   0  185.48   41.30
 -11   2   0  180.28   41.70
  -2 -11   0  273.07   59.59
   2  11   0  282.07   50.49
 -11   0   2  214.38   44.40
 -11   0  -2  187.48   41.00
  11  -2   0  209.58   52.99
  11   2   0  172.58   46.70
   0  -2  11  209.78   49.00
   0   2 -11  180.08   44.10
   0   2  11  323.27   57.99
   2 -11   0  292.97   60.89
  -2   0  11  223.78   49.40
  11   0  -2  111.39   39.40
  11   0   2  239.28   53.79
   0  11  -2  183.58   42.50
   0  11   2  182.38   44.60
   2   0 -11  160.98   42.20
   2   0  11  178.98   42.80
  -2  11   0  144.39   37.00
   0  -2 -11  177.18   43.30
  -2   0 -11  191.78   47.90
   0 -11   2  157.98   48.90
   0 -11  -2  329.97   61.39
 -11  -2   1   79.39   29.10
  -1  -2 -11  122.19   36.70
  -2  -1  11  141.79   43.60
   2   1  11  145.29   38.80
  11  -2  -1   45.60   32.10
   1  -2  11  105.99   37.60
  -1   2  11   76.69   37.90
  11   2   1  127.79   42.80
   1 -11  -2   41.60   30.20
   1   2 -11  102.59   32.90
  11   1  -2   78.09   36.30
  -1  11  -2   68.49   29.10
   2 -11   1   84.49   37.20
 -11   1   2   77.39   33.00
  -2 -11  -1   56.19   36.80
 -11  -1  -2  124.79   36.60
  11  -1   2  113.89   41.90
  -2  11   1   95.29   34.20
   1  11   2   97.99   30.80
   2  -1 -11   87.19   29.90
  -2   1 -11   52.39   28.40
  -1 -11   2   69.39   37.60
 -11   2  -1   74.69   28.00
   2  11  -1  138.99   37.30
   2  11   1  113.39   33.90
   2 -11  -1  133.69   42.20
  -2  11  -1  113.19   35.60
   1 -11   2  104.59   40.20
  -2 -11   1   81.49   39.20
   2  -1  11  101.19   35.70
  -1  11   2   60.49   29.20
  -2   1  11  123.79   42.60
  -1 -11  -2  145.49   44.60
  11  -1  -2  107.99   40.70
 -11  -1   2   53.49   25.80
  11  -2   1  187.98   51.89
   2   1 -11   46.80   29.00
 -11  -2  -1   95.89   32.20
   1  11  -2  154.38   39.60
 -11   1  -2  121.19   34.90
   1   2  11   73.39   32.60
  -2  -1 -11   79.89   34.70
  11   2  -1  225.58   51.29
 -11   2   1   41.70   27.60
  -1  -2  11   60.19   31.00
  -1   2 -11   81.69   29.90
  11   1   2  118.19   40.70
   1  -2 -11  138.29   36.70
 -11  -2  -2    9.20   18.90
   2 -11  -2   -6.10   20.80
  -2  11   2   -7.10   15.60
   2 -11   2   51.59   36.10
   2  -2 -11   12.30   20.20
   2  -2  11    3.00   20.90
   2   2 -11   27.40   21.90
   2   2  11    5.70   17.60
   2  11  -2   22.10   21.70
 -11  -2   2   -7.40   14.90
 -11   2  -2   -1.80   18.90
  -2   2  11   -3.80   21.80
  -2  11  -2  -11.40   19.10
   2  11   2   13.50   17.50
  11  -2  -2  -11.80   21.10
  11  -2   2   13.60   24.50
 -11   2   2   26.50   18.60
  -2 -11  -2    2.50   20.90
  -2 -11   2  -12.00   22.80
  -2  -2 -11   16.00   22.80
  -2  -2  11   -1.00   23.10
  -2   2 -11  -25.30   15.10
  11   2   2  -12.40   19.20
  11   2  -2   -7.30   23.60
 -11   0  -3  599.74   65.49
 -11   0   3  544.55   64.99
  -3 -11   0  813.62   84.29
   0 -11  -3  736.13   77.79
  -3   0  11  568.64   72.09
   0  -3  11  615.54   70.99
   0   3 -11  657.53   70.39
   0   3  11  581.34   70.79
   3 -11   0  659.03   77.89
   3  11   0  659.13   69.39
  11   0  -3  618.14   72.69
  11   0   3  656.83   77.49
   0 -11  -3  604.24   65.99
   0 -11   3  687.93   82.49
   0  11  -3  675.63   70.79
   3   0 -11  657.73   72.29
   3   0  11  508.95   64.99
  11  -3   0  610.34   75.89
  11   3   0  622.04   74.59
 -11   3   0  674.73   67.79
  -3  11   0  710.73   68.99
   0  -3 -11  675.33   73.39
  -3   0 -11  592.24   68.59
 -11  -3   0  714.63   67.39
  -1  -3 -11  196.88   48.20
   3  -1 -11  181.28   47.30
  -1   3  11   90.09   39.60
 -11  -3   1  127.09   32.10
   1  -3  11   88.39   39.20
   1   3 -11  146.09   38.50
   1 -11  -3  127.49   43.80
   1 -11  -3  218.98   45.30
   3 -11   1   71.39   37.40
   3  11  -1  152.18   39.60
 -11   3  -1  218.08   44.00
  -1 -11   3  200.38   55.19
  11  -1   3  136.09   45.40
  -3  -1  11   96.19   34.80
  -1  11  -3   99.29   32.80
  -3  11   1  138.29   37.30
 -11  -1  -3  144.19   36.20
   1  11   3  213.58   47.00
  11   1  -3  159.08   48.40
  11   3   1  216.48   52.39
  -3 -11  -1  234.98   57.79
  -3   1 -11  134.29   38.30
  11  -3  -1  133.29   46.10
   3   1  11  187.38   47.30
 -11   1   3   96.29   34.20
  11  -1  -3  226.18   52.29
  11   3  -1  223.28   55.79
  -1 -11  -3  206.88   52.69
 -11   3   1  195.48   43.10
  -3  -1 -11  108.39   37.20
  -1  -3  11  255.67   55.49
  -3 -11   1  256.77   61.99
  -3   1  11   25.20   24.90
   3   1 -11  122.09   37.40
   1 -11   3  107.39   42.20
   1  11  -3  152.98   41.10
   1   3  11  183.08   46.70
   3 -11  -1  152.88   49.20
   3  11   1  124.49   37.40
  -3  11  -1  121.79   33.30
  11  -3   1  134.59   44.00
  -1   3 -11  106.19   34.60
   3  -1  11  191.08   45.90
   1  -3 -11  190.18   46.50
  11   1   3   72.89   36.80
 -11  -3  -1  191.88   44.20
 -11  -1   3  202.78   44.30
 -11   1  -3  105.39   35.20
  11  -3  -2 1627.04  137.19
   2   3 -11 1492.35  127.99
   3   2  11 1578.04  130.79
  11  -2   3 1518.25  137.29
  -2 -11   3 1684.73  143.19
  -2  11  -3 1699.63  130.39
   2 -11  -3 1672.23  134.09
 -11   2   3 1630.54  130.89
   3 -11   2 1516.05  139.49
   2  11   3 1493.65  126.99
   3  -2 -11 1869.41  134.59
  -3   2 -11 1534.05  129.09
  -2  -3 -11 1599.84  131.69
  11   2  -3 1625.04  135.79
  11   3   2 1525.75  135.79
  -2   3  11 1481.15  131.29
 -11   3  -2 1513.85  123.89
  -3  -2  11 1561.44  131.29
  -3  11   2 1617.44  127.29
 -11  -3   2 1643.04  125.89
 -11  -2  -3 1743.83  128.99
  -3 -11  -2 1639.54  136.79
   3  11  -2 1602.24  128.39
   2  -3  11 1466.45  125.69
   3   2 -11 1449.85  126.39
   2  11  -3 1642.84  129.09
  -3  -2 -11 1635.74  131.39
   3 -11  -2 1484.55  133.39
   2   3  11 1614.14  131.99
   3  -2  11 1719.63  130.69
   3  11   2 1518.85  127.89
 -11  -3  -2 1653.43  126.29
   2  -3 -11 1785.72  135.09
  11   3  -2 1551.04  137.89
 -11   3   2 1556.84  127.59
 -11  -2   3 1714.53  128.29
 -11   2  -3 1560.84  125.49
   2 -11   3 1496.45  138.89
  -3   2  11 1437.76  132.19
  -3 -11   2 1429.36  137.19
  -3  11  -2 1557.04  126.89
  11  -2  -3 1658.63  134.39
  -2 -11  -3 1518.65  132.39
  -2  -3  11 1553.54  129.99
  -2   3 -11 1846.12  134.99
  11  -3   2 1686.73  141.09
  11   2   3 1755.52  140.29
   3  11  -3   23.00   22.60
   3  11   3   -9.80   19.90
  11  -3  -3   -5.20   23.60
  11  -3   3  -12.50   24.00
 -11   3   3   -5.90   17.40
  -3 -11  -3  -26.60   25.40
  -3  -3  11  -10.80   23.80
 -11  -3  -3    2.80   20.70
 -11  -3   3  -16.30   15.90
 -11   3  -3  -10.70   20.50
  11   3   3    4.00   24.60
   3 -11  -3   -9.00   22.60
   3 -11   3    9.10   27.60
   3  -3 -11  -11.30   22.70
   3  -3  11   -7.30   19.20
   3   3 -11  -18.10   16.50
   3   3  11    3.50   21.80
  -3 -11   3   -8.20   24.20
  -3  -3 -11   -4.80   20.20
  -3  11   3   -2.30   19.30
  -3  11  -3    3.90   17.60
  11   3  -3  -16.90   21.90
  -3   3  11   -7.60   16.40
  -3   3 -11   -6.70   16.90
   0   4 -11  139.49   37.50
 -11   0  -4  184.88   45.10
   0  -4 -11  267.17   52.89
  -4  11   0  269.97   50.39
  11   0   4  200.38   53.69
  11  -4   0  114.39   38.40
   0   4  11  191.78   47.50
 -11  -4   0  257.27   48.50
 -11   4   0  177.48   41.60
  -4   0 -11  142.09   42.80
 -11   0   4  190.98   46.60
  -4 -11   0  239.88   58.29
   0 -11   4  193.98   55.49
   0  11  -4  188.38   44.50
   4   0 -11  271.07   53.69
   4   0  11  258.37   51.29
   4 -11   0  195.78   52.29
  11   4   0  205.48   52.09
  11   0  -4  169.38   44.90
   4  11   0  168.68   41.60
  -4   0  11  180.68   48.60
   0 -11  -4  219.68   49.30
 -11   1   4    6.60   18.20
  -1  11  -4   13.80   24.40
  -1 -11   4    0.60   28.60
 -11  -4   1    9.80   17.00
  11   1  -4    1.00   26.50
   4  -1 -11   -6.00   19.80
   4  11  -1   62.89   31.30
  -4  11   1   21.80   21.80
   4   1  11    4.00   20.90
  11  -4  -1   -2.40   25.30
 -11  -1  -4    0.90   20.40
 -11   4  -1   20.80   22.70
  11   4   1   51.89   31.80
  -1  -4 -11   49.70   26.40
  -4 -11  -1  -24.50   22.10
   1 -11  -4   48.10   26.30
  -4   1 -11   26.90   23.70
  -1   4  11   64.19   33.90
  -4  -1  11  -29.20   21.90
  11  -1   4  -19.70   22.50
   4 -11   1    8.70   24.60
   1   4 -11   28.20   24.20
  11  -4   1   29.60   25.80
   4  -1  11   42.50   27.90
  11  -1  -4    0.00   21.10
  -4 -11   1   27.00   30.30
   1   4  11   12.90   26.00
   4 -11  -1   15.70   28.60
  11   4  -1   -4.00   21.40
 -11   1  -4   32.50   23.90
 -11   4   1    4.00   16.60
  -4  -1 -11   11.60   19.60
 -11  -4  -1   32.10   25.10
   1 -11   4   11.20   27.30
  -4   1  11   14.00   25.40
  -1 -11  -4   29.70   20.80
  -4  11  -1   48.60   31.10
   4   1 -11   24.90   24.80
 -11  -1   4   17.70   24.20
  -1   4 -11   27.30   26.00
   1  11  -4   17.70   19.80
   1  -4 -11   16.40   23.50
  11   1   4    8.40   26.60
   4  11   1   44.60   26.30
 -11  -4   2  101.29   31.20
   2 -11  -4  209.98   47.00
  -4   2 -11  105.59   36.50
  -2 -11   4   98.19   42.40
 -11  -2  -4   76.79   29.10
  -4 -11  -2   53.29   34.60
   4 -11   2  126.89   44.60
   4  11  -2   90.69   31.50
  -4  -2  11  144.59   39.90
  -2  -4 -11  130.49   38.40
  11  -2   4  163.58   50.49
  11   2  -4   99.29   38.60
   4   2  11   53.49   30.60
   2   4 -11  127.19   39.60
  11   4   2   71.29   35.40
  11  -4  -2  158.78   47.50
 -11   4  -2  169.78   41.10
 -11   2   4  180.28   46.80
  -4  11   2  115.29   36.90
  -2  11  -4   99.49   37.30
  -2   4  11  110.99   39.70
   4  -2 -11  170.68   44.00
 -11  -4  -2  107.29   35.80
   4 -11  -2   56.99   33.10
 -11   2  -4   59.59   26.50
 -11   4   2   88.79   30.70
  -4  -2 -11  208.48   52.09
  -4   2  11  114.39   41.10
  11   2   4  272.87   64.69
   2  -4 -11  132.99   38.50
  -4 -11   2  145.69   48.80
   4  11   2  154.68   40.00
   2 -11   4  172.48   51.49
   2  11  -4  101.29   35.90
  11  -4   2  107.09   40.40
   4  -2  11  106.09   34.90
   4   2 -11   50.79   27.90
   2   4  11   77.29   32.60
 -11  -2   4  100.89   36.10
  11  -2  -4  160.38   41.60
  -2   4 -11   71.69   32.20
  -2 -11  -4   88.49   33.00
  11   4  -2  113.29   44.90
  -4  11  -2  183.98   43.80
  -4   3 -11   30.90   24.10
   4   3  11    2.80   22.00
   4  -3 -11   29.50   25.30
  -4  -3  11   33.90   30.10
  -3  11  -4  -11.30   20.10
  11   4   3  -11.00   26.40
 -11   4  -3   -7.80   23.20
   3   4 -11  -19.20   17.80
  -3  -4 -11   -7.30   23.80
  11  -4  -3   -9.70   23.30
  -3 -11   4   -5.00   24.00
  -4  11   3  -12.90   21.10
 -11  -4   3   22.00   22.50
  -4 -11  -3  -11.20   23.70
   4 -11   3   18.30   27.80
   4  11  -3   18.70   18.80
   3  -4  11   14.00   37.60
 -11  -3  -4   16.60   20.50
  11  -3   4   25.60   23.90
  11   3  -4  -10.50   19.10
 -11   3   4   -7.00   20.50
  -3   4  11    8.70   21.40
   3 -11  -4   27.90   22.60
  -4  11  -3   17.80   21.70
  -4   3  11   -3.20   19.70
  -4  -3 -11   11.20   21.30
  -3   4 -11    3.60   24.30
   4 -11  -3   -2.50   25.50
   3  -4 -11   23.70   24.70
   4  11   3   -2.40   19.70
   3  11  -4   17.80   25.30
 -11  -3   4   50.99   26.80
   4  -3  11   11.70   23.40
   4   3 -11   -6.20   19.80
 -11  -4  -3   22.00   22.60
   3   4  11    8.90   21.10
   3 -11   4  -14.40   22.10
 -11   4   3   10.90   24.10
 -11   3  -4   32.70   24.60
  11   3   4    2.50   23.00
  11  -3  -4    8.50   24.30
  -4 -11   3   25.50   30.40
  -3 -11  -4    6.70   19.00
  11  -4   3  -10.80   22.10
  11   4  -3   27.50   30.40
  -4  -4 -11   18.20   26.60
 -11  -4  -4   -5.10   19.10
 -11  -4   4  -16.50   16.90
  11   4  -4   -7.90   20.60
 -11   4  -4   11.40   20.90
 -11   4   4   14.90   27.00
   4 -11  -4   22.20   26.30
   4 -11   4    6.00   31.10
  -4 -11   4   -7.40   25.80
  -4  11  -4  -23.70   19.10
  11   4   4   12.90   32.10
  11  -4  -4   -2.40   23.00
  11  -4   4    7.90   29.90
  -4   4  11   -8.20   21.30
  -4   4 -11   16.10   24.80
   4  -4 -11    2.00   21.10
   4   4 -11    7.40   22.50
   4   4  11   -3.60   25.80
   4  11  -4    3.90   21.30
   0 -11   5   21.50   31.60
   0   5  11   -5.70   19.50
   5   0 -11    7.30   22.20
  -5   0  11   -4.70   24.90
 -11  -5   0   18.60   20.00
 -11   5   0   36.90   24.20
  -5   0 -11   71.39   31.60
   5   0  11   54.59   30.40
   0 -11  -5   -2.40   22.20
   5  11   0   36.00   23.60
  11   0  -5   34.60   25.80
   5 -11   0   33.10   32.20
  11  -5   0   43.80   33.00
  11   5   0   26.00   31.30
   0   5 -11   31.00   31.30
  11   0   5  -17.00   25.10
  -5  11   0   40.90   26.20
 -11   0  -5   66.29   28.80
 -11   0   5  101.19   37.00
  -5 -11   0   62.89   40.40
   0  11  -5   12.10   24.50
   0  -5 -11  -39.20   16.20
  11   1  -5   16.60   25.20
  11  -5  -1   12.30   28.00
 -11  -1  -5   12.20   20.80
 -11  -5   1  -16.30   19.50
  -5  -1  11   40.50   30.60
   5  11  -1   -1.40   19.30
   5   1  11   30.00   27.10
   1   5 -11    6.30   25.00
   5 -11   1  -14.40   22.40
  -5  11   1    3.90   20.90
  -1  -5 -11    5.50   24.10
  -1  11  -5   28.10   26.00
  -1   5  11    3.00   24.70
   5  -1 -11    2.00   18.20
  11  -1   5    4.20   26.50
 -11   1   5  -17.20   20.90
  -5 -11  -1   -3.30   25.80
 -11   5  -1    3.50   20.60
  -5   1 -11   -8.40   23.40
  11   5   1   17.60   26.60
   1 -11  -5  -12.40   17.90
  -1 -11   5   -3.40   27.10
  -1   5 -11    4.50   23.00
  -1 -11  -5  -26.30   16.80
  11  -1  -5   25.30   25.50
   1   5  11  -21.70   23.10
   5 -11  -1  -19.60   19.10
  11   1   5   -8.80   24.10
 -11  -5  -1   41.40   23.70
 -11  -1   5  -21.20   18.40
 -11   1  -5   25.40   20.90
   5  -1  11   13.50   24.60
   1  11  -5    3.70   23.50
  -5  -1 -11    9.70   23.50
  11  -5   1   -5.60   24.40
  11   5  -1   -6.20   21.30
  -5   1  11   10.90   21.40
  -5  11  -1   -7.20   21.00
   5   1 -11   -0.80   22.80
  -5 -11   1   -6.80   25.40
   1  -5 -11   57.99   32.70
   1 -11   5   -1.30   23.70
   5  11   1   21.60   22.40
 -11   5   1  -14.80   16.60
  11  -5  -2  394.86   72.09
   5   2  11  271.67   55.09
  11   2  -5  240.08   53.09
 -11   5  -2  157.08   40.50
  -2 -11   5  269.87   63.49
 -11  -5   2  232.78   43.40
 -11  -2  -5  281.57   54.59
  -5   2 -11  169.38   43.30
   5  -2 -11  200.38   49.10
  -5  11   2  294.27   52.89
  -5 -11  -2  303.97   64.69
   2   5 -11  220.78   47.60
  11   5   2  236.68   59.09
   5 -11   2  365.96   71.09
   5  11  -2  239.48   50.29
  11  -2   5  195.58   54.49
  -5  -2  11  242.68   54.09
  -2  11  -5  395.56   66.39
   2 -11  -5  338.07   60.49
 -11   2   5  392.96   65.99
  -2   5  11  215.18   52.69
  -2  -5 -11  347.37   61.89
   5  -2  11  200.18   44.80
   5 -11  -2  372.26   67.69
 -11   5   2  392.06   63.39
  -5  -2 -11  263.87   53.19
   5  11   2  314.17   55.59
  11  -2  -5  294.97   57.39
  -2   5 -11  323.67   58.19
  -5  11  -2  228.98   51.39
   2  11  -5  282.87   56.79
  -5   2  11  244.18   56.39
   2 -11   5  159.88   53.79
  11   2   5  244.48   57.69
  11  -5   2  312.47   67.89
  -2 -11  -5  413.66   64.39
 -11  -5  -2  279.87   49.10
 -11  -2   5  338.57   61.59
 -11   2  -5  300.97   53.89
  -5 -11   2  268.07   64.59
   2  -5 -11  144.59   42.80
  11   5  -2  192.48   50.89
   2   5  11  154.88   44.80
   5   2 -11  347.77   58.09
  -5  -3  11  -28.20   24.90
  -3 -11   5    1.00   30.90
  11   5   3    1.10   29.00
  11  -5  -3    6.20   26.10
   5 -11   3   20.80   30.60
   5  11  -3   -2.20   22.00
  -5  11   3    5.10   20.30
   5   3  11   40.40   24.60
  11  -3   5   -1.30   31.00
  -3  11  -5   -8.10   22.80
   3 -11  -5   -4.60   20.80
  -5   3 -11   18.80   25.60
 -11   3   5    7.90   28.60
  -5 -11  -3    3.40   31.40
  -3  -5 -11  -14.50   22.50
  11   3  -5    9.60   24.80
 -11  -3  -5   26.30   21.30
   3   5 -11   -9.30   20.50
  -3   5  11    2.60   20.00
   5  -3 -11   35.00   27.00
 -11  -5   3   27.50   25.20
 -11   5  -3  -18.60   20.80
  -3   5 -11   -2.90   23.10
   3   5  11  -14.40   22.20
  -5  -3 -11   39.40   29.00
  11   5  -3   17.50   26.90
  11  -5   3   27.80   27.90
   3  -5 -11   28.10   27.20
 -11   3  -5    8.30   20.40
   5  11   3   30.70   28.10
  11  -3  -5   37.20   30.30
  -5 -11   3    7.70   28.60
  -5  11  -3   37.70   27.30
  11   3   5   17.70   30.00
 -11  -3   5   -5.00   24.60
  -3 -11  -5   -1.40   20.40
   5   3 -11    6.30   22.40
   3  11  -5  -11.60   20.50
  -5   3  11   17.90   28.20
   5  -3  11   11.40   26.00
   5 -11  -3   -4.60   24.50
 -11   5   3   -6.90   20.20
 -11  -5  -3   19.60   24.50
   3 -11   5    0.80   29.50
   4   5 -11  102.29   36.10
 -11  -4  -5  210.58   47.30
  -4   5  11  145.89   50.59
 -11  -5   4  113.49   37.10
 -11   5  -4  165.48   42.80
  11  -4   5  194.48   55.09
   5 -11   4  261.77   63.59
 -11   4   5  132.49   44.20
   5   4  11  131.79   38.60
  -4  -5 -11  233.08   50.49
  -4 -11   5  187.08   57.59
  -4  11  -5  136.19   40.90
  11   4  -5  220.38   59.29
   5  11  -4  143.69   43.60
   4 -11  -5  190.68   47.70
   5  -4 -11  176.28   44.00
  11   5   4  146.89   46.60
  -5   4 -11  185.08   47.10
  11  -5  -4  228.88   59.59
 -11  -5  -4  193.18   45.30
  -5   4  11   58.39   32.10
  11  -5   4  261.37   68.89
   4  11  -5  108.49   35.40
   4 -11   5   85.19   44.50
   5  -4  11  110.39   47.80
   5  11   4  197.48   48.90
  11   4   5  208.28   55.39
  11  -4  -5  214.38   57.29
 -11   5   4  176.78   45.30
  -5  -4 -11  154.78   44.00
  -5 -11   4  109.09   47.80
  -5  11  -4  104.19   38.70
  -4 -11  -5   66.19   29.50
  -4   5 -11  173.38   44.90
  11   5  -4  106.39   45.90
 -11   4  -5  224.78   44.30
   5   4 -11  272.97   54.29
 -11  -4   5  205.58   46.70
   5 -11  -4   97.59   38.90
   4   5  11  129.39   39.30
   4  -5 -11  138.49   40.70
  11  -5   5   -6.50   29.60
 -11   5   5  -29.20   26.10
   5 -11  -5   19.10   25.40
   5 -11   5   42.10   36.70
  -5  -5 -11   14.00   27.10
  -5   5  11   37.60   29.00
 -11  -5  -5  -12.20   19.60
 -11   5  -5   49.60   26.30
  11   5   5    2.10   30.90
  -5   5 -11    4.70   26.60
   5  11  -5  -12.70   23.10
  -5  11  -5   -0.50   23.20
   5   5  11  -12.60   23.50
  11   5  -5   21.30   34.30
  11  -5  -5  -22.80   35.70
  -5 -11  -5   -9.70   24.60
  -5 -11   5  -21.70   27.80
   5   5 -11    2.40   23.20
   5  -5 -11  -11.90   22.00
   0   6  11   -8.80   24.20
   0 -11   6   14.20   31.20
 -11   0   6   11.60   25.10
   0   6 -11   23.20   25.50
   6  11   0  -28.50   19.00
   0  -6 -11   -2.50   21.50
  11   6   0    8.50   28.50
 -11  -6   0    8.60   20.50
 -11   0  -6  -31.80   16.30
   0  11  -6   28.50   25.00
   6   0  11   17.30   25.10
  11  -6   0   27.70   30.70
  -6   0  11   12.50   31.40
   0 -11  -6   -6.10   17.80
  11   0  -6   22.90   25.50
  -6  11   0    4.40   23.60
 -11   6   0  -28.70   17.70
  -6   0 -11  -17.80   22.30
   6   0 -11   13.00   25.70
  -6 -11   0   18.60   25.60
   6 -11   0  -40.40   25.50
  11   0   6    4.20   23.90
   1 -11  -6  589.44   66.89
  -1   6  11  542.75   82.49
   6   1  11  607.94   69.29
  11   6   1  550.44   72.99
  11  -1   6  451.95   80.69
  11  -6  -1  654.63   77.39
  -6   1 -11  504.45   75.69
 -11   1   6  451.55   73.79
  -6 -11  -1  510.15   88.39
  -6  -1  11  543.05   83.49
 -11  -1  -6  504.85   63.59
  -6  11   1  592.44   64.99
  -1  11  -6  552.14   65.29
   6 -11   1  591.74   94.19
   6  11  -1  489.45   61.89
 -11   6  -1  551.44   63.19
   6  -1 -11  629.74   68.49
   1   6 -11  467.95   62.49
  -1  -6 -11  511.95   66.39
 -11  -6   1  553.34   60.99
  11   1  -6  482.05   67.59
  -1 -11   6  662.83   84.39
   6 -11  -1  526.45   71.49
  11   6  -1  417.46   78.69
 -11  -6  -1  516.35   60.19
  -6  -1 -11  565.04   68.79
  -6   1  11  453.05   77.69
   6  -1  11  599.34   66.89
 -11  -1   6  414.66   73.29
   1  -6 -11  622.24   70.09
  -6  11  -1  486.95   62.19
  11   1   6  644.94   95.29
  -6 -11   1  534.05   72.79
  11  -1  -6  583.24   68.69
   1  11  -6  520.45   64.79
   1   6  11  479.55   76.89
  -1   6 -11  594.64   67.79
   1 -11   6  471.05   86.79
   6   1 -11  303.07   61.49
 -11   1  -6  618.64   67.09
   6  11   1  527.35   64.39
  11  -6   1  605.34   78.79
  -1 -11  -6  516.35   64.29
 -11   6   1  355.76   65.79
  -6   2 -11    6.00   25.90
   6  -2 -11   21.30   32.10
   2 -11  -6    6.70   22.50
  11   2  -6   54.39   31.30
   6   2  11   43.70   31.90
   2   6 -11  -11.60   18.80
  11  -6  -2   38.20   32.40
 -11   6  -2  -11.30   20.40
   6 -11   2    6.90   24.10
   6  11  -2    0.00   22.80
  -6  11   2   43.80   29.10
  -2  -6 -11   36.80   28.50
 -11   2   6    7.50   23.50
  -6  -2  11  -25.20   24.40
  11  -2   6   10.50   26.00
  -2 -11   6   -7.40   27.90
  -2  11  -6   10.80   24.20
 -11  -2  -6   -4.40   22.80
  -6 -11  -2   44.40   39.30
  11   6   2   12.50   27.80
  -2   6  11   10.10   29.20
   2  -6 -11   26.70   25.20
 -11  -2   6   20.00   29.10
  11   2   6  -24.70   25.10
   6 -11  -2    1.40   26.60
  -6 -11   2   52.59   34.40
 -11   2  -6   -2.60   23.40
  11  -2  -6   -5.10   25.70
 -11  -6  -2   19.90   21.50
   2 -11   6  -16.20   27.70
   2  11  -6   23.40   23.90
  11   6  -2  -22.30   28.00
   6  -2  11   54.99   31.30
   6   2 -11    9.70   25.20
  -2 -11  -6   29.30   21.70
  -2   6 -11   43.30   30.50
   2   6  11   13.20   24.70
  -6  -2 -11   19.20   28.40
   6  11   2   24.70   25.50
  -6   2  11   -1.90   21.90
  11  -6   2   33.70   32.40
  -6  11  -2   30.00   24.20
 -11   6   2   19.80   26.70
   3   6 -11    3.30   20.70
   6  11  -3   27.60   27.80
 -11   3   6    5.30   29.80
  -3  -6 -11   -9.20   24.80
 -11   6  -3    9.50   23.40
  -6  11   3   13.80   24.20
  11   6   3   14.40   30.30
  -3   6  11   14.80   24.60
  -3 -11   6  -10.20   25.20
  -3  11  -6  -17.70   19.00
   6  -3 -11   -6.10   22.90
  -6 -11  -3   20.40   33.70
  11  -6  -3   28.20   27.80
  -6   3 -11  -30.70   25.70
 -11  -3  -6    0.40   19.40
  11   3  -6    4.90   29.40
   3 -11  -6  -29.30   17.30
   6 -11   3   13.80   30.80
  11  -3   6    5.60   28.90
  -6  -3  11   -5.40   22.70
   6   3  11   14.90   24.10
   3  -6 -11   12.20   25.60
 -11  -6  -3    9.80   21.50
  -6  11  -3   14.40   25.60
  -3 -11  -6   -8.40   23.00
 -11  -3   6  -12.60   23.30
   6 -11  -3   12.00   27.00
   6   3 -11   -2.70   23.60
 -11   3  -6   51.19   30.50
  11   3   6   29.20   31.40
   3  11  -6    5.90   22.20
  -3   6 -11   28.50   28.70
   6  -3  11   -6.60   25.10
  -6 -11   3   13.40   32.30
  11   6  -3   17.80   35.30
  -6   3  11   -0.20   27.70
  11  -6   3   38.90   38.00
   6  11   3    2.30   24.00
   3 -11   6  -16.70   27.10
  -6  -3 -11   -3.70   24.10
   3   6  11    7.70   22.00
 -11   6   3   13.70   28.60
 -11   6  -4  116.79   39.40
  11   4  -6  264.77   62.69
   6 -11   4  142.09   48.00
   4 -11  -6   53.49   29.30
  -4  -6 -11  255.87   55.09
  -6  11   4   61.89   34.90
  -4 -11   6   49.40   43.50
  11   6   4  160.58   52.29
  11  -6  -4  161.78   50.29
   6  11  -4  146.39   43.10
  11  -4   6  119.39   49.60
  -6   4 -11  224.08   77.69
   6  -4 -11  213.98   53.19
 -11   4   6  149.79   42.70
   6   4  11   60.69   34.30
  -4   6  11  186.68   53.79
 -11  -4  -6  192.38   44.90
  -4  11  -6  100.29   38.70
   4   6 -11  119.29   39.30
 -11  -6  -4  161.08   44.10
   4 -11   6  127.19   50.39
 -11   4  -6  212.18   47.90
  -6  -4 -11  142.09   40.60
   4   6  11  162.38   47.10
  11   4   6  112.39   43.80
  -4   6 -11  181.28   47.70
   4  -6 -11  118.99   39.50
   6  11   4   91.69   37.10
  11  -6   4   82.69   41.80
  11   6  -4   94.59   42.00
 -11  -4   6  130.49   41.20
   6  -4  11  174.88   60.39
  -6 -11   4  182.98   62.69
  -6  11  -4  190.18   47.90
  -6   4  11  134.19   41.70
  -4 -11  -6  179.78   49.70
   6   4 -11  103.89   37.90
   4  11  -6  133.99   42.10
 -11   6   4  234.68   50.49
   5   6 -11  884.51   92.99
  -5  11  -6  909.21   90.29
 -11   5   6  929.11   96.19
 -11  -5  -6  712.53   85.49
   6 -11   5  930.61  103.99
   6  11  -5 1007.80   92.99
  11   5  -6 1020.50  106.29
   6  -5 -11  960.10   93.29
  -5  -6 -11  965.80   97.09
   6   5  11 1017.90   96.69
  -5   6  11 1023.90  100.29
  -5 -11   6  961.80  109.19
 -11   6  -5  904.61   86.29
   5 -11  -6 1220.48   99.99
  11  -5   6 1046.10  108.49
  11   6   5  790.22   97.69
  -5 -11  -6 1020.30   93.29
   6 -11  -5 1086.69   95.09
  11   5   6  922.51   99.19
   5  11  -6  953.00   91.49
   5 -11   6  960.50  107.49
   5  -6 -11  733.33   88.89
 -11  -6  -5  717.93   85.49
  -6 -11   5 1130.29  114.39
 -11   6   5  842.22   93.19
  -6  -5 -11  783.92   90.39
   6  11   5  761.12   88.49
  -6  11  -5  944.51   95.39
   6   5 -11  987.90   93.29
  11   6  -5 1035.20  108.19
  -5   6 -11  919.01   93.49
   5   6  11  988.60   97.99
  -6   5  11  830.92   95.09
  11  -6   5  720.03  100.09
 -11   5  -6 1089.89   92.79
 -11  -6  -6   26.00   26.40
 -11   6   6   39.30   32.50
   6 -11  -6   10.10   27.00
   6 -11   6   20.40   32.60
   6  -6 -11    3.40   30.20
  -6 -11  -6  -23.50   28.90
  -6 -11   6   13.20   35.60
   6   6  11    5.20   32.50
   6  11  -6  -30.30   25.20
  11  -6   6    9.70   28.60
  11   6  -6   -5.60   35.20
  -6   6  11    1.50   30.10
   6   6 -11  -19.20   28.40
  -6  -6 -11   32.50   33.60
   7 -11   0   91.29   45.70
 -11   7   0   43.40   32.30
  -7   0  11  102.09   43.40
   7  11   0  109.29   34.40
   0   7  11   92.29   38.30
   0 -11  -7   36.00   24.00
   0 -11   7   60.39   39.20
   0  11  -7   67.69   34.40
  11   0   7  101.09   43.20
   7   0 -11   57.79   31.30
   7   0  11   81.99   39.10
 -11   0  -7   67.79   34.90
 -11   0   7   78.09   37.20
  -7 -11   0  220.48   62.69
   0   7 -11   77.99   35.70
  11   7   0   59.69   39.50
   0  -7 -11   33.10   28.10
  11  -7   0   29.40   36.00
  -1 -11   7   16.10   32.90
  -1  11  -7   49.99   31.30
   7  11  -1    4.60   22.50
  -7 -11  -1   29.80   37.50
  11  -1   7   56.79   33.60
   7  -1 -11   34.40   29.00
  11   7   1   16.80   34.40
 -11   7  -1   14.50   23.80
  11  -7  -1   39.40   36.60
 -11  -1  -7   43.30   24.90
  -7  -1  11   35.10   30.70
   7   1  11   13.70   28.10
 -11   1   7   21.50   29.90
   7 -11   1    8.80   27.60
  -1   7  11   48.00   33.40
   1   7 -11   11.30   21.80
   1 -11  -7    4.10   22.60
  -1  -7 -11   35.30   29.30
   1 -11   7   28.60   37.00
   1   7  11   46.60   30.50
  11   7  -1   49.50   35.40
   1  -7 -11    9.60   24.80
  -7 -11   1   27.70   33.30
   7  11   1   14.00   25.60
 -11   1  -7   -0.40   24.70
   1  11  -7   17.00   26.20
   7 -11  -1   26.80   32.90
   7   1 -11    3.60   25.00
  11   1   7   29.00   30.00
  -1   7 -11   10.20   25.30
  11  -7   1   29.60   38.50
 -11   7   1    4.10   24.50
 -11  -1   7  -18.80   23.00
  -1 -11  -7   52.89   31.00
  -7   1  11   45.80   35.10
  -7 -11  -2  261.07   64.29
 -11   7  -2  152.78   41.90
  11   2  -7  220.98   55.19
 -11   2   7  120.49   46.50
   2   7 -11  156.78   45.00
   7  -2 -11  257.57   54.29
  -2  -7 -11  316.57   61.59
  -7  -2  11  302.77   60.49
  -2   7  11  189.08   51.99
   7  11  -2  201.08   47.90
  11   7   2  233.28   60.89
  -2  11  -7  216.08   54.39
   2 -11  -7  195.38   49.70
  11  -7  -2  167.78   54.89
 -11  -2  -7  196.48   49.30
  -2 -11   7  282.77   68.29
   7   2  11  318.97   59.19
   7 -11   2  205.58   55.49
  11  -2   7  143.79   54.69
  11   7  -2  302.67   69.99
  11   2   7  247.98   61.29
  -2 -11  -7  211.38   48.60
   2   7  11  331.67   67.79
 -11  -7  -2  256.07   47.00
  -7 -11   2  274.37   71.99
   2  -7 -11  158.78   46.00
   7 -11  -2  257.37   60.29
   2  11  -7  120.79   39.40
 -11  -2   7  304.27   60.69
  -2   7 -11  179.58   49.20
 -11   7   2  306.27   56.69
  11  -7   2  174.38   54.29
 -11   2  -7  435.66   68.99
   2 -11   7  193.18   60.39
   7  11   2  178.08   42.40
  -7   2  11  361.46   68.29
  -7 -11  -3   62.49   38.90
 -11  -7   3   91.09   42.90
   7  -3 -11   77.29   35.00
   7  11  -3   87.19   41.30
  -3 -11   7   46.30   39.20
  11  -3   7   71.39   39.30
   7   3  11  158.98   47.10
  11  -7  -3   44.50   37.10
  -3   7  11   96.29   36.40
  11   7   3   26.90   39.10
  -3  -7 -11   26.00   33.40
  11   3  -7  100.09   42.30
   7 -11   3   30.90   33.70
   3 -11  -7  104.99   34.70
  -3  11  -7   44.90   36.40
   3   7 -11    6.90   27.30
  -7  -3  11   59.59   36.70
 -11  -3  -7   14.20   24.70
 -11   3   7   40.90   36.50
  11  -7   3   27.00   32.40
  -3   7 -11   62.59   34.00
  -3 -11  -7   27.20   27.80
   3 -11   7   75.79   43.20
   3   7  11   46.30   32.70
   7 -11  -3   34.80   36.80
  -7   3  11  151.88   48.20
   3  11  -7   29.00   31.20
   7   3 -11   42.10   30.00
 -11  -7  -3   67.49   32.40
  -7 -11   3   60.89   43.00
   7  -3  11  116.39   39.80
 -11  -3   7   13.50   28.80
 -11   3  -7   86.49   37.20
   7  11   3   49.50   32.60
   3  -7 -11   26.80   30.10
 -11   7   3   41.80   34.80
   4 -11  -7   26.30   25.90
   4   7 -11   21.50   30.40
  -4 -11   7  -20.30   34.00
  11  -7  -4   14.50   33.50
  11   7   4  -12.00   32.70
   7   4  11  -12.50   24.60
 -11  -7   4   19.70   39.80
  -4   7  11   14.50   30.60
  11   4  -7  -12.20   25.40
  -4  11  -7  -24.30   29.30
  -4  -7 -11   21.00   26.60
   7  11  -4   -0.20   24.10
 -11   4   7  -26.00   27.10
  11  -4   7   -0.90   31.00
 -11  -4  -7   -7.60   20.20
   7  -4 -11   -4.50   25.60
   7 -11   4  -14.50   28.10
   4   7  11   20.70   29.00
  -7 -11   4  -10.30   30.30
  11  -7   4    6.60   32.60
 -11   4  -7  -24.70   20.10
  -4 -11  -7    5.60   26.90
   4 -11   7  -25.30   28.20
   4  -7 -11   32.10   33.60
  -7   4  11   17.50   31.30
   4  11  -7  -13.80   30.80
 -11  -4   7   -1.90   29.90
 -11  -7  -4   18.00   28.00
  -4   7 -11   48.60   30.10
 -11   7   4  -18.10   27.00
   7   4 -11   28.40   27.00
 -11   5   7   17.70   34.60
 -11  -7   5  -24.70   32.20
   5 -11  -7   -8.20   25.90
  -5 -11   7    0.90   36.50
  -5   7  11   38.70   36.80
  11  -5   7   -9.00   27.70
  -5  -7 -11    3.20   31.20
  -5  11  -7   12.10   28.00
   7 -11   5   -7.60   29.70
   7  -5 -11   28.60   29.40
   5   7 -11   18.40   26.70
   7   5  11   28.50   34.10
  11   7   5   15.00   36.00
  11   5  -7   -1.30   32.90
   7  11  -5   32.40   31.20
 -11  -5  -7  -10.50   21.80
  -5   7 -11   18.40   33.10
   5 -11   7   23.60   37.40
  -7 -11   5  -36.10   33.30
 -11   7   5   34.50   33.30
   7   5 -11   -5.50   28.80
   5   7  11   -2.70   23.00
   5  11  -7   -8.30   25.80
 -11  -7  -5   16.30   26.10
  11  -7   5    2.00   37.10
   5  -7 -11   -4.80   28.70
  -7   5  11   11.40   30.60
  -5 -11  -7   -8.90   25.40
 -11   5  -7    3.20   27.10
 -11   6   7  125.39   44.90
   6   7 -11   62.99   37.80
   7 -11   6   89.59   44.70
 -11  -6  -7   18.80   28.70
  -6 -11   7  126.69   48.10
   7  11  -6   61.59   36.90
  -6  -7 -11   41.80   36.10
   7   6  11   58.99   37.20
 -11  -7   6    1.60   33.30
  -6   7  11   50.09   37.40
   6 -11  -7   70.19   37.70
  11   6  -7  107.49   51.79
   7  -6 -11   92.99   43.00
  11  -6   7   12.40   41.00
   6   7  11   37.60   37.10
   7   6 -11  119.89   44.80
   6 -11   7   32.70   37.50
   6  -7 -11   43.70   36.10
  -7 -11   6   97.69   53.59
  -7   6  11   73.19   41.50
  11  -7   6   96.79   42.60
 -11   7   6  104.89   44.40
 -11  -7  -6   63.69   35.20
  -6 -11  -7   54.29   36.10
   6  11  -7  134.69   48.50
  11   7  -7  -49.80   33.90
  -7   7  11   54.09   42.10
   7 -11   7   54.19   45.50
 -11   7   7   -7.00   30.00
 -11  -7  -7    1.10   28.40
  11  -7   7   13.90   36.20
   7  11  -7  -35.60   26.40
   7   7 -11    8.60   30.10
   7   7  11  -31.50   31.40
  -7 -11   7  -17.90   39.80
  11  -8   0  127.29   53.39
   0  11  -8   75.59   35.50
 -11   0  -8  163.08   48.70
  11   8   0   90.49   45.10
   8 -11   0   79.09   45.80
   0 -11  -8   79.99   38.20
   0 -11   8   78.29   46.30
   0  -8 -11  120.19   43.10
   0   8 -11  183.58   44.50
   0   8  11  139.99   43.00
  -8 -11   0  152.28   52.69
  -8   0 -11  108.39   38.30
  -8   0  11  134.99   48.20
 -11   0   8  183.28   51.59
  -8 -11  -1  158.58   55.19
  11   8   1   49.80   48.40
  -1 -11   8  111.19   49.20
   1 -11  -8   84.59   38.20
 -11  -1  -8  195.98   47.10
  -1  -8 -11  162.18   49.50
  11  -8  -1   99.49   43.80
 -11  -8   1  108.39   44.40
 -11   1   8  219.28   55.59
   8 -11   1  131.89   54.79
   1   8 -11  174.28   43.30
  -8  -1  11  119.69   44.60
  -8   1 -11  262.97   54.69
  -1  11  -8  205.48   50.09
  -1   8  11  200.98   52.49
  11  -1   8  165.98   74.79
   8 -11  -1  138.69   51.59
   1  11  -8  176.18   47.30
   1   8  11  156.28   45.50
  -8   1  11  167.38   48.10
   1  -8 -11  114.89   46.40
 -11  -1   8  208.68   52.89
 -11   1  -8  135.99   43.50
  11  -8   1  183.88   57.59
 -11   8   1  106.39   39.40
   1 -11   8  202.68   63.29
  -1   8 -11  181.18   52.39
  -8 -11   1  116.29   47.90
  -1 -11  -8  216.78   50.89
  -8  -1 -11  250.07   54.99
  11  -8  -2    3.10   29.60
  11  -2   8   26.90   35.40
 -11  -8   2   26.70   32.70
  -2   8  11   45.70   34.20
  -2  11  -8   12.00   29.70
 -11   2   8   12.70   31.50
  -2 -11   8   22.70   33.80
   8 -11   2   39.00   36.60
 -11  -2  -8   17.30   27.20
  -2  -8 -11  -12.00   26.50
  11   8   2    7.80   30.20
  -8 -11  -2   22.30   36.10
  -8   2 -11   46.20   31.80
  -8  -2  11   46.40   33.70
   2   8 -11   12.50   30.20
   2 -11  -8    7.40   27.10
   2  11  -8   39.40   32.60
 -11  -2   8   33.50   32.20
  -2   8 -11   28.20   33.20
 -11   8   2   48.30   28.50
   2  -8 -11   18.60   28.70
 -11   2  -8   18.60   27.70
  -8 -11   2   36.50   39.40
   2   8  11   29.70   34.30
   8 -11  -2    6.20   31.10
  -8   2  11   67.89   35.90
  11  -8   2   34.20   39.70
   2 -11   8   19.10   38.00
  -2 -11  -8    9.70   22.60
  -8  -2 -11   43.30   32.30
  -3   8  11  327.17   64.49
  -8   3 -11  286.87   58.89
  11   8   3  335.97   72.29
   8   3  11  317.37   63.89
  11  -8  -3  318.87   67.69
   8 -11   3  243.08   64.29
  -3  -8 -11  254.97   59.99
  -8  -3  11  285.87   67.29
  11  -3   8  270.17   62.99
 -11  -3  -8  216.88   50.19
 -11  -8   3  311.07   70.89
   3   8 -11  279.57   60.79
   3 -11  -8  299.17   60.99
  -8 -11  -3  327.67   77.29
  -3  11  -8  361.06   66.29
  -3 -11   8  280.77   72.59
 -11   3   8  245.58   60.39
   3  11  -8  236.48   54.29
   8 -11  -3  373.56   75.79
 -11   3  -8  364.16   65.89
 -11  -3   8  325.37   62.29
   3 -11   8  283.27   72.89
  -3 -11  -8  326.47   60.99
   3  -8 -11  343.47   71.29
   3   8  11  357.16   71.39
  -3   8 -11  343.77   64.99
  11  -8   3  381.16   84.19
  -8 -11   3  419.06   84.09
 -11   8   3  277.97   59.49
  -8   3  11  391.86   72.29
  -4 -11   8   59.09   45.10
   4   8 -11  -22.30   25.70
 -11  -4  -8   26.50   27.50
  -4  -8 -11   14.70   30.90
   8 -11   4   40.60   37.10
   8   4  11   34.60   33.00
 -11   4   8   31.00   32.90
  -4  11  -8  -16.10   28.10
 -11  -8   4  101.99   48.00
  11   8   4   20.60   34.50
  -4   8  11   57.19   35.30
  11  -4   8   -3.50   32.70
   4 -11  -8   -4.30   23.60
  -4   8 -11    1.30   29.60
 -11   4  -8   37.30   34.30
   4 -11   8   28.50   38.00
   4  11  -8   19.60   29.80
  -8   4  11  -17.10   24.90
   4  -8 -11  -39.60   25.10
  -8 -11   4   39.40   38.30
  -4 -11  -8   -9.60   24.00
  11  -8   4   52.99   39.90
 -11   8   4   29.00   29.90
   4   8  11    5.10   28.20
 -11   5   8   28.60   39.30
  11  -5   8  129.79   55.29
   8   5  11  -11.90   26.60
 -11  -8   5  124.89   55.59
  -5  -8 -11   52.59   34.80
  -5   8  11   33.90   32.00
   5   8 -11   77.09   36.00
  -5 -11   8  111.69   54.99
   8 -11   5  114.59   54.59
  -5  11  -8  154.28   45.30
   5 -11  -8  122.09   41.00
 -11  -5  -8   84.39   42.50
 -11   5  -8   38.30   46.40
   5  11  -8   91.09   39.90
  -8 -11   5   73.69   49.10
  -8   5  11   72.29   41.80
  -5   8 -11  125.29   44.40
   5 -11   8    5.60   32.40
   5   8  11   26.60   30.10
  -5 -11  -8   83.89   34.30
 -11   8   5   66.19   40.30
   5  -8 -11   51.79   35.80
  11  -8   5   41.10   44.00
   8 -11   6  -13.10   34.50
 -11  -6  -8   -5.00   27.10
  11  -6   8  -10.00   38.10
  -6 -11   8   23.70   37.10
   8   6  11   26.00   35.30
   6   8 -11    1.30   27.40
  11   6  -8   16.60   37.10
  -6   8  11   -7.90   32.10
  -6  -8 -11    4.20   33.60
 -11  -8   6   29.20   34.10
 -11   6   8    7.40   39.60
   6 -11  -8   -7.50   25.80
 -11  -8  -6   27.80   35.40
   6  -8 -11  -19.70   31.70
 -11   8   6  -19.40   27.90
  -8 -11   6   28.40   44.60
   6  11  -8   32.70   32.70
   6   8  11   11.80   29.50
  -8   6  11   49.50   36.20
  -6 -11  -8   -2.80   29.80
  11  -8   6  -17.50   37.10
   6 -11   8  -43.00   27.60
  11   7  -8   -7.20   43.20
  11  -7   8   -2.00   39.60
   7   8 -11   19.70   36.20
 -11  -8   7   14.20   47.00
 -11  -7  -8    2.90   30.70
 -11   8   7   22.60   41.90
   7  11  -8   -1.10   29.30
   7   8  11  -33.40   54.79
 -11  -8  -7  -15.70   26.20
   9 -11   0   91.59   44.80
   0   9  11   41.80   33.40
 -11  -9   0   30.00   39.50
  -9   0 -11   79.39   38.20
  -9   0  11  138.39   49.70
   0 -11  -9   74.89   39.70
   0 -11   9   60.49   43.10
 -11   0  -9   70.69   35.60
   0  11  -9   68.09   35.20
  11  -9   0  114.39   49.90
 -11   0   9  163.78   54.79
  -9 -11   0  114.29   51.09
   0  -9 -11  102.69   42.40
   0   9 -11  105.49   41.00
 -11  -9   1    4.80   32.80
  -1 -11   9  -17.40   34.60
  11   9   1  -17.70   36.20
 -11   1   9    6.10   35.70
  -9 -11  -1  -25.80   32.20
 -11  -1  -9  -11.30   25.70
  -1   9  11   -8.50   25.70
   1   9 -11  -11.60   24.50
  -1  11  -9   31.60   30.30
   1 -11  -9  -30.60   24.20
   9 -11   1    5.30   36.50
  11  -9  -1    8.60   31.50
  -1  -9 -11    4.60   28.20
  -9   1 -11   10.60   32.20
  -9  -1  11   19.10   34.30
   9 -11  -1  -16.30   31.10
 -11   1  -9   21.70   28.40
  -9  -1 -11   22.20   26.50
   1 -11   9   -4.10   31.40
   1  11  -9   40.90   31.50
  -9   1  11   12.20   34.10
   1  -9 -11  -20.70   25.00
  -9 -11   1  -12.00   31.10
  -1   9 -11   12.10   28.60
  11  -9   1   13.30   33.10
   1   9  11   27.50   34.70
 -11  -1   9    3.50   30.70
  -1 -11  -9    0.30   27.50
  -2  -9 -11  173.48   47.60
 -11   2   9   89.29   39.80
  11  -9  -2  286.07   69.99
   2 -11  -9  164.48   50.49
   9 -11   2  218.58   63.59
 -11  -2  -9   75.49   36.10
  11   9   2  119.59   55.89
  -9  -2  11  129.99   48.50
  -9   2 -11  139.69   45.00
  -9 -11  -2  268.37   72.99
  -2  11  -9  213.88   54.39
  -2 -11   9  153.18   60.09
  -2   9  11  171.28   52.79
   2   9 -11  115.69   42.10
 -11  -9   2  131.79   50.99
  -2   9 -11  129.49   42.00
   2   9  11  226.88   55.99
 -11  -2   9  216.98   52.29
  -9  -2 -11  277.47   57.19
  -9   2  11  151.28   49.50
  -9 -11   2  224.58   68.09
 -11   2  -9  175.08   49.20
   2 -11   9  194.28   62.29
  -2 -11  -9  191.38   56.59
   2  -9 -11  151.78   53.19
   2  11  -9  134.09   43.50
   9 -11  -2  157.68   54.09
  11  -9   2  123.49   51.09
   3 -11  -9  150.88   49.40
  -3  11  -9  196.68   51.49
 -11  -3  -9   71.79   34.80
  11   9   3   74.99   48.80
  -3 -11   9   97.39   52.09
  -3  -9 -11   70.69   40.50
 -11   3   9  112.69   41.10
  -9 -11  -3   53.39   46.10
  -9   3 -11  102.19   41.20
   9 -11   3  115.69   53.39
 -11  -9   3   31.90   41.70
  11  -9  -3   95.59   53.39
  -3   9  11   33.80   41.80
   3   9 -11   83.39   38.90
   3   9  11   45.20   39.50
  -3 -11  -9   88.89   39.70
 -11  -3   9   82.39   44.60
  -3   9 -11   12.60   28.90
  11  -9   3   51.89   42.60
 -11   3  -9   42.80   36.70
  -9   3  11   93.39   44.00
  -9 -11   3   47.80   35.10
   3 -11   9   23.10   40.50
   3  -9 -11   86.99   41.80
   3  11  -9   67.39   33.60
  -9  -3 -11   97.99   39.50
   4   9 -11    8.00   28.40
   9   4  11   37.30   36.30
  -4 -11   9   37.00   40.20
   9 -11   4   -0.20   34.10
  -4   9  11    7.00   35.90
  -4  11  -9  -23.50   27.00
 -11  -4  -9  -12.20   27.60
 -11   4   9  -27.70   27.80
   4 -11  -9  -35.60   23.70
  11   9   4   -1.00   31.70
 -11  -9   4   -1.90   33.10
  -4  -9 -11   27.50   31.90
   4  11  -9    1.60   30.70
   4  -9 -11  -19.70   29.70
  -9 -11   4  -23.20   32.80
   4   9  11   23.40   30.00
  -9   4  11    8.90   26.20
   4 -11   9   11.50   34.80
  11  -9   4  -14.70   32.80
 -11   4  -9    6.60   31.20
  -4 -11  -9   -9.20   23.70
  -4   9 -11   19.50   32.70
  -5  11  -9  -18.20   32.10
   5 -11  -9   11.00   30.70
  -5 -11   9   18.70   45.40
  -5   9  11   15.90   33.40
 -11  -9   5   42.70   57.79
 -11  -5  -9   33.60   36.00
   5   9 -11   12.90   30.40
  -5  -9 -11    4.40   32.70
   5   9  11   18.70   31.80
  -5   9 -11  -13.20   30.10
  -5 -11  -9   44.80   32.10
   5 -11   9  -28.70   33.80
 -11   9   5   -6.90   44.30
   5  11  -9  -14.00   31.70
   5  -9 -11    8.30   34.80
   6 -11  -9   15.30   34.00
  11  -6   9   56.79   48.20
 -11   9   6   -0.70   36.90
   6   9  11   14.70   44.10
  -6 -11  -9   72.19   38.70
   6  -9 -11   59.29   63.29
  11 -10   0   17.80   34.10
 -10   0  11   14.90   30.00
   0 -10 -11   65.99   34.60
   0 -11 -10    2.20   30.30
   0  10  11   20.80   37.70
  10 -11   0    3.50   32.50
   0 -11  10  -16.50   37.80
   0  11 -10  -29.10   24.90
 -11 -10   0   -5.60   34.20
   0  10 -11   39.00   32.90
 -10 -11   0  -49.80   31.40
 -11   0  10   -7.80   32.60
 -11   0 -10   20.00   31.80
 -10   0 -11  -13.40   30.50
 -10   1 -11  191.88   53.29
 -10 -11  -1  204.28   65.99
   1 -11 -10  245.58   62.99
 -11 -10   1  269.17   73.69
  -1 -11  10  239.48   65.79
  11 -10  -1  192.78   61.99
 -11   1  10   95.39   46.10
  -1  10  11  117.79   46.10
 -10  -1  11  185.28   59.49
   1  10 -11  176.78   51.29
  10 -11   1  106.39   52.09
 -11  -1 -10  202.98   54.79
  -1  11 -10  271.77   62.99
  -1 -10 -11  223.18   58.09
   1  10  11  181.18   59.89
 -11 -10  -1  122.19   53.29
  -1 -11 -10  194.68   55.19
 -10  -1 -11  210.58   54.89
 -10 -11   1  125.19   55.89
 -11   1 -10  111.09   42.70
 -10   1  11  224.88   59.29
  10 -11  -1  183.98   60.09
  -1  10 -11  198.58   51.39
 -11  -1  10  238.78   63.99
   1  11 -10  280.67   66.39
   1 -10 -11  167.28   53.09
   1 -11  10   65.39   52.99
 -10 -11  -2  -46.00   37.30
 -11   2  10   23.20   34.30
 -11 -10   2   56.99   59.89
 -10  -2  11   -3.70   34.80
  -2 -10 -11   -5.50   28.60
  11  10   2   30.10   39.10
  -2  11 -10   43.50   35.40
   2 -11 -10    7.90   34.20
   2  10 -11   -0.40   31.30
  10 -11   2  -12.50   37.30
  11 -10  -2   44.70   38.50
 -10   2 -11    7.20   33.50
  -2  10  11   20.10   35.30
  -2 -11  10  -11.00   38.50
 -10 -11   2  -42.70   40.20
   2  10  11  -13.60   37.00
  10 -11  -2  -21.90   34.60
  -2 -11 -10   -0.80   32.10
 -10  -2 -11    9.10   39.10
  -2  10 -11   -5.00   29.20
 -10   2  11   20.30   33.50
   2 -10 -11    4.30   32.70
 -11  -2  10   20.90   33.70
  11 -10   2   -8.60   39.50
   2  11 -10   27.60   42.80
 -11   2 -10   28.40   35.00
   2 -11  10    3.20   41.30
  -3  11 -10   -0.20   32.90
  11  10   3   -4.30   37.80
  -3 -11  10    0.60   42.50
  -3  10  11  -14.40   33.30
  -3 -10 -11   -2.20   41.50
 -10 -11  -3    2.60   39.80
 -10   3 -11   -6.50   32.90
  -3  10 -11   29.60   34.90
   3 -11  10  -18.10   35.80
 -11   3 -10   11.30   30.90
  -3 -11 -10   -8.40   40.80
   3  10  11   33.40   38.90
  11  10   4   34.00   56.39
  -4  10  11  105.39   51.39
  -4 -11  10  -14.00   51.49
  -4  11 -10   84.89   64.39
 -11   4 -10   83.29   42.10
   4 -11  10  134.59   58.79
  -4  10 -11  226.88   89.49
 -12   0   0 1633.04  133.99
   0 -12   0 1641.74  146.39
   0   0 -12 1773.22  141.79
   0   0  12 1962.40  146.79
   0  12   0 1631.24  134.89
  12   0   0 1700.33  145.29
 -12   0  -1  135.39   39.10
 -12   0   1  114.29   37.00
  -1 -12   0  286.37   62.79
  -1  12   0  263.87   52.59
   0  -1 -12  203.18   48.50
   0  -1  12  234.38   53.09
   0   1 -12  103.59   33.20
   0   1  12  294.27   58.49
   1 -12   0  223.48   58.69
   1  12   0  125.99   40.60
  12   0  -1  208.58   54.89
  12   0   1  225.08   59.39
   0  12   1  216.98   47.70
   1   0 -12  147.29   43.70
   1   0  12  208.08   53.79
  12  -1   0  180.88   50.59
  12   1   0  242.58   59.79
   0  12  -1  257.07   53.19
   0 -12  -1  197.08   51.39
   0 -12   1  233.88   58.29
  -1   0 -12  247.48   51.29
  -1   0  12  256.67   58.39
 -12  -1   0  201.98   46.50
 -12   1   0  113.09   38.00
  -1   1 -12   23.50   25.60
  -1   1  12   -1.40   25.40
  -1  -1 -12   -7.00   18.30
  -1  -1  12   14.80   29.70
  -1 -12   1   29.90   31.20
 -12  -1  -1  -20.80   18.60
 -12  -1   1    4.30   19.70
 -12   1  -1    2.40   15.90
 -12   1   1   18.80   18.00
  -1 -12  -1   -2.20   24.10
  12   1  -1    3.10   21.00
  12   1   1   16.80   29.50
  12  -1  -1   15.70   26.20
  12  -1   1   10.10   28.00
   1   1  12  -32.70   21.90
  -1  12  -1  -16.30   17.70
  -1  12   1   18.00   21.80
   1 -12  -1   20.80   33.40
   1 -12   1   24.60   25.70
   1  -1 -12   21.50   26.00
   1  -1  12  -21.70   23.30
   1   1 -12   24.70   25.40
   1  12   1   24.70   23.40
   1  12  -1   10.00   21.10
   0  -2 -12  127.29   39.70
  -2 -12   0  180.28   53.89
  -2  12   0  113.79   39.90
  12  -2   0   96.49   43.60
  12   2   0   77.69   36.50
   0   2 -12   54.69   27.30
   0   2  12  198.48   53.39
   2 -12   0  113.59   48.40
   2  12   0  220.48   49.30
  12   0  -2  120.89   44.70
  12   0   2   90.39   41.80
   0 -12   2  215.98   60.39
   0  12  -2   95.19   34.30
   0  12   2  203.98   43.50
   2   0 -12   59.09   32.00
   2   0  12  148.89   45.10
 -12   0  -2  110.89   37.10
 -12   0   2   53.59   29.90
  -2   0 -12   73.59   33.70
  -2   0  12  130.39   44.50
   0 -12  -2  235.78   59.09
   0  -2  12  135.19   45.70
 -12  -2   0   85.39   32.70
 -12   2   0  136.89   38.60
   1   2 -12   34.60   22.60
   1  12   2   25.50   24.00
   2  -1 -12   26.90   26.30
 -12  -1  -2   15.40   25.20
   2  12  -1   29.50   24.00
  -2   1 -12   31.60   27.30
  -1  -2 -12   25.20   25.70
  -2 -12  -1   10.00   28.50
  12  -1   2   52.39   35.40
  -1 -12   2    7.20   29.40
 -12  -2   1   35.60   25.70
   1  -2  12   44.90   34.00
   2   1  12   52.89   31.50
  12  -2  -1   58.19   33.80
  12   2   1   -2.80   30.50
   1 -12  -2   12.80   27.80
  -1  12  -2   82.09   34.80
  -2  -1  12   41.00   33.10
  12   1  -2   55.59   33.10
  -2  12   1   12.80   20.60
  -1   2  12   17.40   28.10
   2 -12   1   22.20   30.00
 -12   1   2   51.39   28.60
 -12   2  -1   31.60   25.60
 -12   2   1   73.49   32.50
  -1   2 -12   18.10   23.50
 -12   1  -2   68.39   30.50
  12   1   2   36.10   32.90
  -2  -1 -12   44.30   30.60
   2  -1  12   82.99   34.30
   1 -12   2   53.49   37.40
   1   2  12    2.70   29.10
   2 -12  -1   16.30   26.40
  -1  -2  12  -30.90   24.60
 -12  -1   2   16.90   24.20
  -2  12  -1  122.49   38.90
  -2   1  12   55.79   29.60
  12  -1  -2   21.30   26.80
   1  -2 -12   43.60   26.80
  12   2  -1   82.89   37.50
  -1  12   2   25.10   24.90
   2   1 -12   24.80   25.50
  -1 -12  -2   88.29   41.60
   1  12  -2   38.60   27.50
  -2 -12   1   42.10   31.40
   2  12   1   32.00   26.50
  12  -2   1    0.90   27.50
 -12  -2  -1   52.69   28.90
 -12   2   2   91.59   34.80
   2  12   2   79.99   35.20
  12   2   2   30.90   32.30
 -12   2  -2   71.19   33.10
   2  12  -2  142.49   42.60
  12   2  -2  118.89   47.10
   2  -2 -12   63.09   27.10
   2  -2  12   83.99   36.10
   2   2 -12   69.09   28.90
   2   2  12   52.29   31.60
  -2 -12   2   61.69   37.20
  -2  -2 -12   51.49   31.50
  -2  -2  12   80.49   36.50
  -2   2 -12  114.49   42.10
  -2   2  12   69.09   35.10
  -2  12  -2   44.70   28.10
  -2  12   2  136.69   37.60
   2 -12  -2  166.28   48.20
   2 -12   2   83.39   39.80
 -12  -2  -2  107.29   32.80
  -2 -12  -2  141.09   48.70
  12  -2  -2   52.69   32.80
 -12  -2   2   71.39   30.40
  12  -2   2   43.70   33.10
   0  -3  12   65.29   34.20
  -3 -12   0   92.69   44.80
   0  -3 -12   54.39   31.10
 -12   0  -3   50.69   27.60
  -3  12   0  115.69   38.70
  12  -3   0   65.19   38.30
  12   0  -3   72.59   39.00
 -12   0   3  142.89   40.40
  12   3   0   38.10   35.00
   0   3 -12   54.49   29.30
   0   3  12   43.50   33.80
   3 -12   0  136.99   47.10
 -12  -3   0  100.19   36.70
 -12   3   0   61.59   31.60
  -3   0 -12   62.19   38.00
  -3   0  12   49.80   31.90
   0 -12  -3   10.20   27.00
   0 -12   3   79.59   40.20
   0  12  -3   40.90   27.20
   0  12   3   62.99   28.20
   3   0 -12  133.99   44.90
   3   0  12   28.40   26.60
   3  12   0   19.50   26.00
  12   0   3   76.99   35.40
  12  -3  -1   33.30   32.00
   3 -12   1  -11.40   26.90
   3  12  -1  -18.40   23.00
  -3  -1  12    3.90   30.80
  -3  12   1  -12.50   19.00
  12  -1   3  -25.70   25.80
  12   1  -3   23.40   29.30
   1  12   3   24.70   26.20
  -3   1 -12  -24.50   23.40
 -12  -3   1   -9.20   19.20
 -12   1   3   -0.30   15.80
   1   3 -12    9.30   22.00
  -1  12  -3  -20.50   15.90
 -12   3  -1    0.80   22.20
 -12  -1  -3   -7.40   17.90
  -1  -3 -12    4.80   24.60
   1 -12  -3   19.70   26.40
   3   1  12   42.20   30.20
  -1   3  12    9.70   26.90
   3  -1 -12   -8.60   19.20
   1  -3  12   28.20   30.10
  12   3   1   -8.40   23.40
  -3 -12  -1  -20.40   25.30
  -1 -12   3   19.60   31.60
  -3  -1 -12    6.30   23.90
  -3 -12   1   16.80   28.30
  -1  12   3  -13.90   16.80
 -12   1  -3    1.60   18.40
  -3   1  12  -27.50   19.00
   1  12  -3   20.30   24.20
  -1   3 -12    4.90   20.40
  -1 -12  -3   12.50   26.10
   3  -1  12   25.60   28.30
  -3  12  -1    4.20   23.10
   3 -12  -1   22.30   27.90
   1   3  12   13.60   30.70
  12  -3   1   -1.30   21.10
  12   3  -1   -5.70   21.50
 -12  -1   3   -1.40   23.60
   3   1 -12   -1.60   27.00
   3  12   1   10.50   23.30
   1 -12   3    9.60   31.00
  12  -1  -3  -15.10   23.80
   1  -3 -12   -1.80   25.20
 -12   3   1    2.70   23.30
 -12  -3  -1  -15.30   16.40
  -1  -3  12   -6.10   26.50
  12   1   3   14.40   30.60
   3   2  12    8.70   24.20
 -12  -2  -3   -2.30   19.30
   3  12  -2   27.60   26.20
 -12  -3   2   -5.70   20.10
  -3  12   2    6.80   21.80
  -2  -3 -12    7.10   22.40
  12   3   2   -9.70   22.80
  12  -2   3    7.10   27.60
  -2   3  12   18.20   28.00
  -2  12  -3   42.80   30.50
  -3  -2  12   17.10   26.00
  -3   2 -12    1.40   24.70
 -12   2   3   41.10   28.90
  -3 -12  -2    0.10   30.60
   2  -3  12   23.00   29.90
   2   3 -12   20.80   25.10
  12  -3  -2   44.90   37.90
   2 -12  -3   11.40   26.60
   3 -12   2   -6.20   27.00
  -2 -12   3   66.19   37.60
   2  12   3    5.90   26.20
 -12   3  -2  -21.20   18.80
   3  -2 -12  -20.20   20.10
  12   2  -3  -10.30   29.80
  -2 -12  -3   14.70   33.40
 -12   3   2   -2.00   22.60
  -3  12  -2   44.20   27.80
  -3 -12   2   -4.30   22.40
  12   2   3  -10.50   24.70
  12  -2  -3   20.20   29.60
  -2   3 -12    9.10   24.30
  -3   2  12   -3.10   20.30
   2  -3 -12  -24.70   22.70
  -2  12   3   19.40   21.20
   3 -12  -2   -4.10   23.50
   2 -12   3    1.40   29.60
   2  12  -3  -25.40   19.50
   3  12   2   -7.70   22.40
 -12   2  -3   90.59   33.60
   3  -2  12    1.80   24.80
  -3  -2 -12    2.10   27.90
 -12  -2   3   -8.50   23.30
 -12  -3  -2   23.60   24.40
  12  -3   2  -15.30   23.80
  12   3  -2   13.20   28.20
   2   3  12  -11.80   23.10
  -2  -3  12    5.50   27.60
   3   2 -12   -7.40   20.40
  -3  -3  12  153.18   45.70
  -3   3 -12   66.89   35.30
  -3   3  12   96.49   38.60
   3   3  12   21.70   27.90
   3  12  -3   81.99   31.10
 -12   3   3  112.29   41.20
   3  -3  12  134.99   41.50
  12  -3  -3  151.38   48.70
   3  12   3  136.79   43.50
  12   3  -3  138.59   49.70
  12   3   3  116.69   47.80
  -3  12   3   87.39   35.70
   3 -12  -3  105.49   44.00
   3 -12   3  179.08   53.29
   3  -3 -12  261.57   58.39
 -12  -3   3   92.39   35.10
  -3  12  -3  139.99   41.20
   3   3 -12  119.79   38.60
  -3 -12   3  128.89   50.99
 -12   3  -3  127.99   40.10
  -3 -12  -3  118.09   45.50
  12  -3   3  124.89   44.60
 -12  -3  -3  114.49   36.10
  -3  -3 -12   78.79   36.50
 -12   0  -4  695.63   78.29
  -4 -12   0  787.52   92.89
   4 -12   0  672.93   87.49
 -12   0   4  806.12   83.19
 -12  -4   0  770.22   78.29
 -12   4   0  961.10   84.69
  -4   0 -12  745.83   82.69
  -4   0  12  768.72   84.99
   0 -12  -4  698.53   77.39
   4  12   0  915.41   84.69
  -4  12   0  793.02   80.49
   0  -4 -12  616.74   77.69
   0   4 -12  718.03   81.69
   0   4  12  701.33   83.89
  12  -4   0  764.92   88.89
  12   4   0  700.23   87.09
  12   0  -4  647.84   83.89
  12   0   4  779.52   88.79
   4   0  12  730.43   81.39
   0 -12   4  645.44   88.89
   0  12  -4  870.21   84.99
   4   0 -12  743.13   80.99
 -12   4  -1   25.30   26.10
  -1  -4 -12   50.09   29.90
  -1 -12   4   68.99   41.80
  -1  12  -4   22.10   24.00
   1 -12  -4   34.30   28.90
 -12  -4   1   12.30   26.60
  12   1  -4  -16.60   23.30
  -4 -12  -1   59.79   40.50
   4  12  -1   16.90   26.10
  -1   4  12   44.40   35.20
  -4  12   1    8.60   26.70
  -4  -1  12   12.60   30.10
   1   4 -12    0.40   20.80
  12  -1   4   40.60   33.30
  12  -4  -1   32.80   33.80
   4 -12   1   40.20   34.40
 -12  -1  -4    2.50   20.30
  -4   1 -12  -10.10   24.40
   4  -1 -12   -3.20   24.20
 -12   1   4   27.00   30.50
  12   4   1   18.60   27.70
   4   1  12   -2.70   22.90
  -4  12  -1    8.80   25.10
 -12   1  -4   29.40   28.90
   1 -12   4   50.49   35.60
   4 -12  -1   46.00   32.30
 -12  -1   4   -5.10   22.30
 -12  -4  -1   23.50   22.30
  -1 -12  -4   -8.10   16.40
   1   4  12    0.70   27.50
 -12   4   1   24.50   25.30
  12  -4   1    3.00   23.30
  12   4  -1    6.80   28.30
  -4  -1 -12   19.90   26.10
   1  -4 -12    0.80   22.40
   4  12   1  -25.30   19.00
  -4   1  12   22.60   27.90
  12   1   4   11.60   32.70
  12  -1  -4   53.29   39.40
  -1   4 -12   35.90   30.00
   4  -1  12   -3.10   29.00
   4   1 -12    3.60   23.90
   1  12  -4    6.70   25.70
  -4 -12   1   51.19   41.50
  -4  12   2  738.73   79.59
   4   2  12  723.33   82.99
  12   4   2  911.81   96.89
  12   2  -4  890.31   94.99
  -2 -12   4  703.93   92.09
  -2  12  -4  858.11   85.39
   4  -2 -12  654.43   80.99
 -12   2   4  813.02   87.09
 -12  -4   2  784.02   78.99
 -12   4  -2  626.74   75.29
   2   4 -12  865.01   87.19
  12  -4  -2  805.42   90.39
  -4  -2  12  773.32   84.99
  -4   2 -12  835.82   86.59
  -4 -12  -2  726.63   89.89
 -12  -2  -4  741.63   78.39
   2 -12  -4  788.62   82.19
  12  -2   4  582.74   85.39
   4 -12   2  927.01   99.89
   2  12   4  838.92   85.39
   4  12  -2  823.62   84.19
  -2   4  12  833.82   88.79
  -2  -4 -12  718.13   83.19
  -4  12  -2  806.22   81.59
   2  12  -4  842.02   85.79
  -4  -2 -12  765.82   86.29
   2  -4 -12  780.12   84.79
 -12   4   2  650.23   79.49
   2   4  12  764.32   84.99
 -12  -2   4  861.51   84.19
  -2   4 -12  811.82   86.29
  -4   2  12  754.92   87.99
   2 -12   4  729.63   93.79
  12  -2  -4 1078.89   97.49
  -4 -12   2  778.42   95.29
 -12   2  -4  827.02   83.49
  12   2   4  864.91   93.29
   4  12   2  816.32   84.39
   4 -12  -2  840.52   91.69
   4  -2  12  795.12   82.89
 -12  -4  -2  728.63   78.69
   4   2 -12  766.12   83.59
   4   3  12    3.50   23.10
  -3   4  12  -17.90   21.40
   4  -3 -12    3.10   24.30
   3   4 -12   23.90   26.30
  -4   3 -12   21.10   26.60
  12  -4  -3  -10.10   27.60
 -12  -3  -4   11.00   18.90
 -12  -4   3   11.00   20.10
  12   4   3  -16.60   27.80
  -3  -4 -12   -7.30   22.00
  -3  12  -4   -7.00   25.30
  -4  12   3    8.80   22.60
  -4 -12  -3   12.20   33.80
 -12   4  -3   50.29   29.30
   4 -12   3   13.70   29.40
  12  -3   4    1.00   21.60
  -4  -3  12  -31.40   27.20
   4  12  -3   25.30   25.00
   3  12   4   14.90   29.00
  -3 -12   4   10.60   31.50
 -12   3   4    8.90   28.30
  12   3  -4    3.40   26.90
 -12   4   3   14.50   28.30
   3   4  12    0.50   24.20
  -4   3  12   29.10   31.60
   3  -4 -12   18.40   25.90
  -4  -3 -12  -15.20   22.30
  -3  12   4   12.30   24.60
   4 -12  -3    5.80   26.80
   4  12   3   47.20   31.70
  12  -3  -4   36.20   32.40
 -12  -3   4    5.00   23.40
 -12   3  -4  -16.70   19.40
  -3   4 -12   21.40   28.40
   3  12  -4   -5.30   24.20
  12   4  -3    6.80   32.70
  12  -4   3    3.70   29.40
   4  -3  12    8.70   26.00
   4   3 -12  -11.50   23.20
  -4 -12   3    0.50   33.50
  -4  12  -3  -24.60   14.80
 -12  -4  -3   16.50   23.90
  12   3   4   34.90   37.10
   3 -12   4   15.30   28.60
  12  -4   4 1006.90  118.29
  12   4  -4 1178.38  122.39
   4   4  12 1260.17  115.59
  -4  -4 -12 1342.77  117.59
  -4   4 -12 1065.99  110.29
  -4   4  12 1363.96  121.59
   4  12   4 1204.88  112.19
  12  -4  -4 1248.18  118.39
  -4  12   4 1247.28  110.89
   4 -12   4 1256.47  127.59
  12   4   4 1383.06  125.69
 -12  -4  -4 1347.77  111.49
 -12  -4   4 1235.98  108.29
   4  -4 -12 1266.07  114.49
   4   4 -12 1276.77  114.69
 -12   4   4 1278.17  116.49
  -4  12  -4 1088.09  108.79
  -4 -12   4 1534.45  136.79
   4  12  -4 1115.89  109.79
 -12  -5   0   51.39   27.70
  12   5   0   55.49   40.40
   0  -5 -12   64.79   33.60
  12  -5   0   54.09   39.90
   0   5  12   81.39   39.10
   5   0  12   58.49   33.00
  -5 -12   0   37.10   35.80
  12   0  -5   70.59   43.40
  12   0   5   45.50   37.80
   0 -12   5  118.19   47.70
   5  12   0   53.99   30.80
   5 -12   0  114.79   44.90
  -5   0 -12  157.58   49.80
 -12   5   0   81.39   29.90
 -12   0   5   38.80   32.50
 -12   0  -5   65.49   33.60
   0  12  -5  101.99   41.80
   5   0 -12   27.60   31.00
   0 -12  -5  123.69   36.90
  -5   0  12   57.89   40.30
   0   5 -12   57.49   33.00
  -5  12   0   75.79   32.10
  -1   5  12   10.90   30.30
  -1 -12   5    1.50   31.60
 -12  -5   1   31.40   28.60
  -1  -5 -12   14.20   27.10
   5 -12   1   41.30   35.30
  -1  12  -5   70.99   40.40
   5  -1 -12   73.59   32.60
  12   1  -5   -4.90   26.40
  -5  -1  12    6.50   26.70
  -5   1 -12   -6.40   25.20
  -5 -12  -1   13.90   32.20
 -12  -1  -5   29.20   25.40
  -5  12   1   21.80   25.00
  12  -5  -1   10.20   29.90
   1   5 -12   25.80   27.80
   1 -12  -5    6.90   20.60
 -12   1   5   16.10   26.80
   5  12  -1   24.20   29.80
 -12   5  -1    1.90   24.30
  12  -1   5  -12.20   24.30
  12   5   1   15.70   33.20
   5   1  12   -2.60   25.80
  -5   1  12    8.00   28.70
   1   5  12   26.40   31.30
  12  -5   1  -29.60   20.20
 -12  -1   5    7.20   29.50
   1  -5 -12   -0.50   22.40
   5 -12  -1    0.90   30.30
 -12   1  -5    1.90   22.10
  -1   5 -12   33.10   29.50
   5  12   1  -23.00   21.80
   1  12  -5   14.70   30.10
  12  -1  -5    1.50   31.40
 -12  -5  -1  -14.20   19.20
   5   1 -12   25.30   29.70
  -5 -12   1    4.20   32.10
 -12   5   1    2.40   21.50
  -5  -1 -12    6.40   30.90
  12   5  -1    5.10   25.60
   5  -1  12   21.40   25.80
  -1 -12  -5   40.90   26.20
  -5  12  -1   -3.60   27.60
  12   1   5    5.80   32.20
   1 -12   5   -0.20   34.50
 -12   5  -2   74.19   34.00
   2   5 -12   90.69   39.40
 -12   2   5  201.28   49.30
 -12  -2  -5   41.00   28.60
  -5   2 -12   67.99   35.50
  12  -5  -2   53.49   36.80
  -5  -2  12   46.90   35.20
  -5 -12  -2  116.09   46.40
 -12  -5   2   19.40   27.50
   5 -12   2  185.58   55.89
   5  12  -2   51.29   31.40
  -2  -5 -12   99.59   35.00
   5   2  12   80.69   40.30
  12  -2   5   76.59   39.10
  12   2  -5  112.79   47.30
   2 -12  -5  141.99   41.30
  -5  12   2  144.49   43.10
  -2  12  -5   69.49   35.70
  -2   5  12  146.29   45.70
  12   5   2  114.39   43.70
   5  -2 -12   74.19   36.80
  -2 -12   5   80.49   43.30
 -12  -2   5   58.79   31.70
  12  -2  -5   93.49   39.80
  12  -5   2   14.00   28.80
  -2   5 -12   69.09   35.20
 -12   5   2   62.99   35.70
   2  -5 -12   76.99   35.10
 -12   2  -5  146.89   42.90
   2 -12   5  114.29   51.29
   5   2 -12  121.19   42.00
  -5 -12   2  104.09   48.90
  -5  12  -2   42.80   33.10
   2   5  12  133.99   46.40
   5  12   2  111.59   42.40
  12   5  -2  121.49   45.80
  -5  -2 -12   73.59   37.40
  12   2   5  113.49   48.00
   5  -2  12  152.18   45.00
   2  12  -5  168.08   47.20
   5 -12  -2  164.58   50.29
  -5   2  12   77.49   38.90
  -2 -12  -5  134.19   39.60
 -12  -5  -2   46.70   25.80
  -3  -5 -12   -4.50   23.90
  12   3  -5   11.30   32.60
  -5  12   3   45.00   30.60
  12  -3   5   20.20   31.90
   5 -12   3   -0.30   27.80
   5  12  -3   21.20   26.00
  -5   3 -12  -24.10   26.50
 -12   3   5    5.30   25.40
  -5 -12  -3   19.60   38.20
 -12  -5   3   21.90   26.50
 -12   5  -3    8.50   25.90
  -3   5  12   -7.20   24.10
   3 -12  -5    8.90   25.40
 -12  -3  -5   32.40   24.70
  -3  12  -5    3.60   23.70
   5  -3 -12   11.70   27.20
  12   5   3   -7.30   31.90
  -5  -3  12  -13.10   38.90
   3   5 -12   -7.10   25.70
   5   3  12  -12.70   24.10
  12  -5  -3   24.40   32.30
  -3 -12   5   -6.40   31.50
 -12   3  -5    4.60   21.00
  -5  -3 -12    2.00   26.40
  12  -3  -5    6.70   30.50
   3  12  -5   -2.80   26.40
  -5   3  12  -15.50   23.20
   5  -3  12    9.40   27.80
 -12   5   3   -9.50   23.60
   5  12   3   19.80   28.30
 -12  -5  -3   28.70   24.30
   3   5  12    1.90   24.60
   5 -12  -3    2.00   37.10
   3 -12   5  -11.90   27.30
  -3   5 -12   20.60   29.50
  12   5  -3   49.20   33.70
  12   3   5    6.50   32.90
   5   3 -12   21.90   31.10
  12  -5   3   -0.20   26.60
  -3 -12  -5  -20.00   22.80
  -5 -12   3   -8.40   30.30
  -5  12  -3  -24.50   21.40
   3  -5 -12    6.00   25.70
 -12  -3   5   21.70   25.00
  12   5   4   14.40   33.40
  12   4  -5   -9.90   27.50
   5  12  -4    4.10   29.60
 -12   4   5   -5.80   27.90
   4 -12  -5    2.00   26.40
   5   4  12   -0.50   27.50
  12  -4   5   52.69   37.30
  -5   4 -12   22.40   33.30
 -12   5  -4   40.40   28.20
  -4 -12   5  -10.10   31.80
  -4  12  -5   44.10   37.40
  -4  -5 -12   -8.40   23.00
  -5  12   4  -17.80   21.20
   5  -4 -12  -12.20   23.90
  12  -5  -4  -13.70   31.60
  -4   5  12    2.40   30.10
   5 -12   4   30.70   35.80
 -12  -5   4   20.30   28.90
   4   5 -12    7.90   29.20
 -12  -4  -5   14.60   28.90
 -12  -4   5   -8.10   24.70
  12  -5   4   26.80   37.60
  -5   4  12   48.90   33.10
  -5  -4 -12   27.00   31.40
  12   5  -4   -7.80   26.20
 -12   5   4   -9.30   26.90
   5   4 -12   -8.90   24.10
  -4   5 -12   -0.90   25.40
   5  12   4   10.60   26.60
   4  -5 -12   15.40   28.30
 -12  -5  -4   10.50   27.80
   4   5  12  -12.40   27.40
  12   4   5   39.20   40.20
  -5  12  -4   -8.50   29.30
 -12   4  -5   15.50   24.10
  12  -4  -5   13.90   32.00
   4 -12   5   33.90   36.70
   4  12  -5   -2.40   26.20
  -5 -12   4  -25.40   29.00
  -5 -12   5  376.26   83.79
   5 -12   5  382.16   81.99
   5 -12  -5  370.86   67.99
  12  -5   5  200.68   64.99
   5  12  -5  261.37   58.39
 -12   5   5  362.96   69.49
   5  -5 -12  367.66   69.69
   5   5 -12  246.48   57.29
   5   5  12  338.37   66.99
 -12  -5  -5  246.18   52.99
 -12   5  -5  253.37   56.89
  -5  -5 -12  249.88   55.19
  -5   5 -12  324.37   67.69
  -5   5  12  409.26   77.79
  12   5   5  380.86   76.49
   5  12   5  397.96   70.99
  -5  12  -5  268.67   55.59
  12   5  -5  332.77   73.99
   6   0  12   99.79   38.00
  -6   0 -12  123.39   42.30
  -6   0  12   70.99   41.60
   6   0 -12   77.99   37.20
   0 -12   6  164.78   54.99
   0  12  -6   88.29   38.40
   0  -6 -12   69.69   34.20
  12   0  -6  193.58   55.09
  12   0   6   74.79   39.40
  12  -6   0  172.38   53.89
  12   6   0  117.39   47.00
 -12  -6   0   53.49   30.90
 -12   6   0  117.39   36.50
   6  12   0   86.39   35.50
   0   6 -12  103.79   43.10
   0   6  12   78.69   39.10
   6 -12   0  157.98   53.99
  -6 -12   0  120.49   50.09
  -6  12   0  208.78   47.80
 -12   0   6   91.69   37.60
   0 -12  -6   58.79   33.10
 -12   0  -6   89.49   37.10
  12   1  -6  195.98   54.79
 -12  -1  -6  243.68   55.49
  -6  12   1  314.07   62.09
  -1  -6 -12  234.88   54.69
  12   6   1  157.08   53.99
   6  -1 -12  191.58   47.40
   6 -12   1  233.08   64.29
   6  12  -1  234.78   51.69
  -1   6  12  148.59   47.50
   1   6 -12  151.98   45.20
  -6  -1  12  172.78   52.99
  -6   1 -12  289.17   79.69
  -6 -12  -1  187.48   60.39
  12  -1   6  172.78   51.19
  -1  12  -6  172.08   44.50
 -12   1   6  209.78   51.99
 -12  -6   1  202.28   50.09
   6   1  12  150.08   44.80
   1 -12  -6  220.28   50.89
 -12   6  -1  184.78   47.30
  -1 -12   6  220.18   63.29
  12  -6  -1  236.48   60.69
   6 -12  -1  226.28   60.49
   1   6  12  337.67   62.29
   6  12   1  210.28   47.40
  -6   1  12  299.77   65.79
  -1 -12  -6  210.98   53.29
  -6  12  -1  285.97   55.19
  12   1   6  288.77   68.89
   6   1 -12  154.58   45.40
   1  -6 -12  266.77   57.69
 -12   6   1  123.79   40.30
  -6  -1 -12  178.98   55.79
  12  -6   1  229.18   66.79
 -12  -6  -1  206.68   48.60
  12  -1  -6  249.48   60.89
  -6 -12   1  168.58   54.99
   6  -1  12  207.78   52.69
 -12  -1   6  311.77   65.19
 -12   1  -6  301.87   57.79
  -1   6 -12  179.88   50.39
  12   6  -1  201.98   59.19
   1 -12   6  279.07   74.19
   1  12  -6  230.28   54.39
   6 -12   2  -14.40   27.50
   2   6 -12   33.60   30.40
  -2 -12   6   31.40   35.20
  -2  12  -6   19.00   27.00
   2 -12  -6   10.70   28.60
  -6  12   2    0.60   24.40
  -2  -6 -12   -0.30   23.30
 -12   2   6   -8.70   24.80
  -2   6  12  -13.80   22.80
  12   2  -6   20.30   34.70
  -6 -12  -2    8.60   35.80
   6  12  -2   -9.30   19.70
  -6  -2  12    5.50   31.00
 -12   6  -2    5.10   27.50
   6  -2 -12   -6.10   31.20
   6   2  12    3.80   24.40
  12  -6  -2   33.30   35.60
 -12  -2  -6   12.40   24.70
  12   6   2   -4.80   30.80
  12  -2   6    5.50   26.60
  12  -6   2   21.50   33.90
   2 -12   6    0.60   34.80
  -6  12  -2   29.40   30.90
   2  12  -6   21.10   30.80
  -6   2  12    2.30   27.90
 -12   2  -6   13.60   23.90
  -2   6 -12   11.10   31.50
 -12   6   2   -2.40   27.50
  -6 -12   2   26.60   39.00
   6  12   2   17.70   28.60
   2   6  12  -27.30   27.70
   6 -12  -2   41.80   34.30
   6  -2  12   35.40   32.00
   2  -6 -12   16.20   28.80
  12   6  -2   35.80   39.00
 -12  -2   6   -6.40   27.70
 -12  -6  -2   48.00   29.50
  -2 -12  -6    0.10   27.10
  -6  -2 -12   11.10   29.80
  12   2   6   57.99   41.60
   6   2 -12   39.10   31.10
   6 -12   3    3.30   30.50
  -3 -12   6  -25.30   26.60
 -12  -3  -6   30.20   31.80
   6  -3 -12   44.60   32.90
   3 -12  -6   32.10   33.10
   6  12  -3   27.80   31.10
  -6 -12  -3   54.69   41.30
  -6  12   3   22.50   29.50
  -3  -6 -12   70.19   35.80
  12  -6  -3   72.99   41.60
  -3   6  12   36.00   32.20
  -3  12  -6   30.90   30.30
   3   6 -12   12.20   31.30
 -12   3   6   36.30   32.50
   6   3  12   39.10   31.00
  12   3  -6   18.30   36.20
  12   6   3   65.29   41.10
  12  -3   6   -4.20   29.40
 -12   6  -3   14.40   26.40
 -12  -6  -3   72.49   32.40
   3   6  12   12.70   33.20
  -6 -12   3   39.60   39.80
  -6   3  12   20.80   30.60
 -12  -3   6    4.00   29.00
   3  -6 -12  -12.80   24.20
 -12   6   3   51.09   36.20
  -3   6 -12   21.20   32.60
  12  -6   3   18.30   35.80
  -6  -3 -12   -7.70   27.80
  -6  12  -3  -17.40   26.10
   3  12  -6   12.40   25.70
 -12   3  -6    2.40   25.10
   6  12   3    3.70   30.40
   6   3 -12   -8.30   25.40
   6  -3  12   63.39   36.30
  12   3   6  -25.80   33.90
  -3 -12  -6   46.80   30.60
   3 -12   6   -8.20   29.90
  12   6  -3   24.90   36.50
   6  12  -4  140.49   44.70
   6 -12   4  117.89   47.80
  -4  -6 -12  123.89   45.40
 -12  -4  -6  122.79   41.60
  -4  12  -6   72.09   38.60
  12   6   4   77.09   47.40
   6  -4 -12  145.19   45.10
  12   4  -6   71.79   46.30
   6   4  12  108.49   42.80
  12  -6  -4  105.19   49.20
  12  -4   6   60.69   45.90
  -4 -12   6   73.89   48.20
  -4   6  12   89.49   47.80
   4 -12  -6  110.39   41.10
  -6  12   4   81.89   32.80
 -12   6  -4   81.19   40.70
 -12   4   6  147.09   49.99
   4   6 -12  128.39   46.10
  -6  -4 -12  145.29   46.90
 -12   6   4   29.90   36.30
 -12   4  -6  176.88   47.30
  12   6  -4  142.09   51.69
   6  12   4  167.88   47.80
  12  -6   4   89.89   47.90
   6   4 -12  114.49   42.60
  12   4   6   90.89   44.90
  -4 -12  -6   88.49   41.30
 -12  -6  -4  108.59   40.50
  -4   6 -12  106.29   44.90
   4   6  12   73.39   38.70
   4 -12   6   30.70   38.00
 -12  -4   6  157.68   45.90
   4  -6 -12   29.50   29.10
  -6   4  12   71.89   39.80
   4  12  -6   74.99   39.00
  -6 -12   4   79.39   46.20
  12  -5   6   89.29   49.70
   6  12  -5  100.59   41.10
   5   6 -12   66.19   41.50
  12   6   5   51.09   45.40
   6   5  12   85.29   37.40
   6 -12   5  126.39   54.29
  -5   6  12   10.30   31.60
   6  -5 -12   92.29   40.20
  -5  -6 -12   98.69   44.70
  -6  12   5  110.49   41.00
  -5  12  -6   89.79   40.90
   5 -12  -6   97.29   39.50
  -5 -12   6  115.49   48.80
 -12   6  -5  150.58   46.60
  12   5  -6  111.99   44.60
 -12  -5  -6   64.59   36.10
 -12   5   6   57.79   36.40
  -6   5  12  181.68   56.89
  -6 -12   5   84.29   47.10
 -12   6   5  108.99   46.40
  -6  -5 -12   55.89   49.00
  12   5   6   36.70   64.99
  -5 -12  -6   67.99   36.90
   5 -12   6   26.70   34.30
   5  -6 -12  153.28   46.40
   5  12  -6   59.79   38.60
   5   6  12   43.80   34.60
  12  -6   5   96.89   48.00
 -12  -6  -5   26.50   30.00
   6  12   5   67.39   40.30
  12   6  -5   53.69   40.70
 -12   5  -6   88.99   39.60
  -5   6 -12   49.90   37.50
   6   5 -12   65.79   36.10
 -12  -6  -6   41.80   29.30
   6  -6 -12   27.50   34.30
   6   6 -12  -25.50   30.60
  12   6  -6   42.20   42.90
 -12   6   6   27.10   35.80
  -6 -12   6   40.30   39.10
   6 -12   6   31.50   46.80
   6  12   6   29.30   36.10
  12  -6   6   -4.00   32.30
   6   6  12    9.10   26.10
   6  12  -6   51.79   41.40
  -6   6  12   26.30   38.70
   6 -12  -6    2.60   38.50
  -7 -12   0   38.20   41.10
 -12   7   0   19.60   29.90
   7   0  12   40.80   33.40
  12   0   7   21.30   34.80
  -7   0  12   19.00   33.90
   0   7  12    4.00   29.90
   7 -12   0   33.40   35.90
  12  -7   0  -14.60   28.90
   0   7 -12   53.09   30.10
   7   0 -12   -6.10   28.20
 -12   0   7   46.50   38.80
   7  12   0   20.70   31.90
   0  -7 -12   34.20   33.20
  12   7   0  -19.90   26.80
   0  12  -7   13.30   26.80
   0 -12   7    5.60   37.90
   0 -12  -7   11.40   26.50
 -12   0  -7   -2.50   28.10
  -1 -12   7   19.80   35.40
   1   7 -12   26.40   30.30
  12  -7  -1   23.30   31.40
  -1  12  -7   -5.10   24.10
   1 -12  -7   20.90   25.00
  12   7   1   18.20   31.00
   7   1  12   29.10   34.40
   7 -12   1   30.30   34.20
  -7 -12  -1   33.00   38.90
   7  -1 -12   -5.80   31.40
  -1  -7 -12   18.80   31.00
 -12   1   7    3.20   32.60
  -1   7  12   -5.30   31.00
 -12   7  -1   -5.50   25.20
  12  -1   7   17.80   30.10
  -7  -1  12   11.30   30.10
 -12  -1  -7   10.20   24.90
   7  12  -1    3.10   26.50
   7  12   1    2.30   27.00
   7   1 -12  -37.70   26.80
  -7 -12   1   55.19   41.70
   7  -1  12   39.70   30.40
  12  -7   1    9.70   36.10
 -12   1  -7   28.40   28.10
  -1   7 -12   -3.10   26.80
 -12  -1   7   21.40   32.60
   1  -7 -12  -11.90   22.70
  12   7  -1   -3.60   29.90
   1 -12   7  -26.50   34.30
   1  12  -7   71.09   38.40
  -7   1  12   -6.30   29.70
  -1 -12  -7    4.40   23.30
  12   1   7   -2.80   32.10
   7 -12  -1  -10.80   27.30
   1   7  12    0.80   29.70
 -12   7   1   -1.10   23.90
  -7  -2  12   11.60   27.70
  12   7   2  -19.20   23.20
  -7 -12  -2   45.80   38.60
  -2 -12   7   30.60   39.20
   2 -12  -7   30.30   30.20
  -2  12  -7   -5.70   24.60
   7   2  12    7.00   29.70
  -2  -7 -12  -19.00   26.60
   7 -12   2    4.80   29.70
  -2   7  12  -14.10   21.00
 -12  -2  -7   -7.20   23.50
  12  -7  -2   15.10   34.60
  12   2  -7   45.20   46.30
   7  -2 -12    0.10   29.00
 -12   2   7  -20.70   25.80
   2   7 -12   15.20   28.40
  12  -2   7   11.70   33.20
   7  12  -2   22.00   30.20
 -12   7  -2  -13.00   26.30
  -2   7 -12  -13.90   28.90
   7  -2  12    3.60   29.30
   7  12   2   -7.50   32.60
   7 -12  -2   31.70   33.50
   2   7  12   13.00   31.20
 -12   7   2  -21.30   26.90
  12  -7   2  -31.60   27.10
  12   7  -2    9.60   34.30
  -7 -12   2   25.10   37.60
 -12  -2   7    5.20   30.30
   2 -12   7    5.60   34.80
  -7   2  12    4.20   31.40
  -2 -12  -7   34.40   32.00
   2  12  -7   10.50   29.90
 -12   2  -7  -15.30   27.30
   2  -7 -12   10.90   32.90
  12   2   7  -30.60   43.10
   7   2 -12    7.90   29.90
   3 -12  -7   -9.40   25.70
 -12  -3  -7   44.40   33.40
   3   7 -12   70.39   40.90
  -3   7  12   -8.20   23.10
  12   7   3    4.30   34.30
  -3 -12   7   28.50   43.80
   7  -3 -12    8.60   30.70
  12  -7  -3   23.80   37.50
  -3  12  -7    6.70   31.60
  -3  -7 -12    7.10   29.20
  12  -3   7   24.10   34.10
  12   3  -7   35.90   37.70
  -7 -12  -3   23.70   35.20
   7   3  12   33.90   32.20
   7 -12   3   60.79   41.00
   7  12  -3   46.70   37.90
 -12   3   7   37.40   34.70
  12   7  -3    4.00   29.90
   3  12  -7   52.09   36.40
  -3 -12  -7   46.80   37.50
   3   7  12   46.20   43.00
   3 -12   7   51.39   45.90
  -3   7 -12   10.70   34.20
 -12  -7  -3   12.90   27.10
   3  -7 -12   11.70   33.80
  12  -7   3    6.00   32.30
   7  -3  12   26.70   31.20
 -12  -3   7   35.30   38.50
 -12   3  -7   30.50   30.20
  -7 -12   3   10.60   37.60
  -7   3  12   -9.60   25.50
   7   3 -12   30.60   32.90
 -12   7   3   27.10   28.50
   7   4  12   12.80   33.80
  12  -4   7    3.80   33.20
  12   7   4   58.59   42.10
  -4 -12   7   -0.50   38.80
 -12  -4  -7   34.00   30.40
  12   4  -7   56.19   44.60
   7  -4 -12   -7.60   30.40
   7 -12   4    1.80   34.30
   7  12  -4   40.60   30.70
 -12   4   7  -19.90   30.30
  -4  12  -7  -49.20   28.60
  -4  -7 -12   21.10   33.40
   4 -12  -7   16.40   27.30
  -4   7  12   14.30   28.40
   4   7 -12   22.20   33.50
  12  -7  -4   27.70   48.10
   4 -12   7   51.79   35.60
   4  -7 -12  -29.50   24.50
 -12   7   4   -4.90   32.00
  -7   4  12    3.70   30.70
  -4 -12  -7  -19.30   24.50
  12   7  -4  -13.10   34.40
 -12   4  -7    4.40   33.30
   7   4 -12   14.60   33.00
  -7 -12   4  -70.79   30.10
 -12  -7  -4  -16.50   27.10
  12  -7   4   52.39   46.10
   4   7  12  -18.90   22.90
   4  12  -7  -37.50   27.30
  -4   7 -12   -1.50   30.00
   7   5  12   -1.00   34.30
   7 -12   5   75.09   49.90
  12  -5   7   23.60   35.50
  12   7   5  -18.30   42.60
   5 -12  -7    5.90   28.90
   7  12  -5   27.10   32.10
  -5   7  12  -12.60   33.60
  -5  12  -7    0.60   34.20
  -5  -7 -12  -11.80   29.60
  12   5  -7   -9.50   34.60
   7  -5 -12   21.40   30.90
 -12  -5  -7   -8.50   21.20
   5   7 -12   19.40   33.30
  -5 -12   7   13.20   44.00
 -12   5   7  -13.50   32.10
 -12   5  -7   27.00   36.00
   5  -7 -12    7.70   33.30
  -7 -12   5    6.00   42.10
  -5 -12  -7   19.10   26.80
 -12  -7  -5   12.60   28.10
   5  12  -7    4.20   32.60
  -7   5  12   -1.60   37.20
   5 -12   7   12.20   44.10
   5   7  12    0.80   30.20
  12  -7   5   -2.70   38.40
  12   7  -5   -9.20   34.70
 -12   7   5   33.20   36.50
  -5   7 -12   22.30   37.70
   7   5 -12   43.00   33.00
   7  12  -6   98.29   46.90
  12  -6   7    5.50   39.70
 -12  -6  -7   42.60   34.00
   6 -12  -7  109.09   49.10
  -6 -12   7   51.49   72.59
   6   7 -12   64.39   42.20
  12   6  -7   42.20   40.80
   6  12  -7   51.79   36.10
  12   7  -6   42.70   44.00
 -12  -7  -6   49.10   33.90
 -12   7   6   34.30   35.30
  -6 -12  -7   -2.90   33.60
   6   7  12   68.09   60.79
   7   6 -12   79.89   45.80
   6  -7 -12  110.79   44.80
   0  12  -8  625.84   76.19
   8   0  12  560.84   85.89
  12  -8   0  520.85   94.79
  12   8   0  399.46   84.79
   0 -12   8  422.86   89.09
   0   8 -12  501.25   82.49
   0   8  12  642.54   77.99
  -8   0  12  538.25   89.89
   0 -12  -8  557.64   88.09
 -12   0  -8  400.46   76.39
   8 -12   0  692.73   88.29
 -12   0   8  449.26   83.19
  -8 -12   0  722.33   92.79
   0  -8 -12  466.65   82.89
   1 -12  -8   48.60   33.70
   1   8 -12   15.30   28.70
   8   1  12   53.59   35.00
  12  -8  -1   -0.30   29.90
  12   8   1   -4.20   34.90
 -12   1   8   34.90   35.10
  -8  -1  12   15.30   30.70
  -1 -12   8   -4.60   34.00
 -12  -1  -8    0.00   28.20
  -1  -8 -12    7.70   27.70
  -8 -12  -1   26.10   40.20
  -1   8  12  -20.70   29.10
   8 -12   1   27.20   40.80
  -1  12  -8   -2.90   28.00
  12  -8   1  -11.50   35.90
   1  -8 -12   14.40   29.90
  -8   1  12   15.90   29.60
   1   8  12   48.70   40.80
 -12   1  -8  -17.30   22.60
 -12  -1   8   33.30   37.00
  12   8  -1   -8.70   31.70
   1 -12   8   43.50   45.10
   1  12  -8    9.40   28.40
  -1   8 -12   15.60   29.80
   8 -12  -1  -33.60   30.80
   8  -1  12    2.10   31.30
  -8 -12   1   52.39   39.50
  -1 -12  -8  -15.90   24.60
   2   8 -12  228.58   56.39
  -2  -8 -12  390.56   74.59
  12  -2   8  290.67   70.59
   8 -12   2  315.47   77.09
  -8  -2  12  215.68   63.89
   8   2  12  408.36   75.49
  12  -8  -2  449.66   89.59
 -12  -2  -8  368.06   68.59
  -2   8  12  247.18   56.79
  12   8   2  162.48   53.59
  -2 -12   8  369.36   86.19
 -12   2   8  361.06   73.39
  -2  12  -8  298.37   62.29
   2 -12  -8  438.96   75.09
  -8 -12  -2  144.69   56.19
 -12  -2   8  205.48   54.69
   2  12  -8  283.17   62.09
   8  -2  12  294.77   62.09
  -8   2  12  128.59   49.50
   2 -12   8  361.16   89.69
  -2 -12  -8  344.27   68.49
  12   8  -2  261.67   75.39
   8 -12  -2  459.65   86.19
   2  -8 -12  299.77   64.69
 -12   2  -8  345.27   64.19
   2   8  12  439.16   72.89
  12  -8   2  270.77   70.09
  -8 -12   2  322.17   77.79
 -12   8   2  208.98   53.89
  -2   8 -12  423.16   73.29
 -12   3   8   65.39   38.10
   3 -12  -8   73.69   40.40
  -8 -12  -3  107.29   52.69
  -3  12  -8   41.40   34.90
  -3 -12   8   22.50   38.90
   8   3  12  130.69   44.20
  12  -3   8   76.59   48.30
  12   8   3   57.89   45.50
  -3   8  12   13.70   32.80
   8 -12   3   33.50   37.60
 -12  -3  -8   41.20   30.40
  -3  -8 -12   46.00   38.70
  12  -8  -3   60.69   43.60
   3   8 -12   70.09   35.30
  -3   8 -12  193.48   52.39
 -12   8   3  102.29   38.70
  -8   3  12   98.49   44.60
  -8 -12   3   23.10   35.30
   3  -8 -12   41.10   35.10
 -12   3  -8   34.90   30.90
   3   8  12    6.20   32.80
  12  -8   3   34.60   43.10
   3 -12   8   75.79   47.80
   3  12  -8   30.60   34.80
   8  -3  12   57.79   34.80
 -12  -3   8   56.29   38.10
  12   8  -3  -11.60   38.40
  -3 -12  -8  118.49   40.70
   4 -12  -8 1408.36  121.69
   4   8 -12 1059.39  112.09
 -12   4   8 1528.25  157.58
   8 -12   4 1265.57  160.08
  12  -4   8 1237.68  128.99
  -4   8  12 1355.46  123.69
 -12  -4  -8 1241.58  117.69
  -4  12  -8 1217.68  118.89
  -4  -8 -12 1425.86  126.49
   8   4  12 1419.56  146.69
   4  12  -8 1080.59  115.49
  12   8  -4 1276.07  134.69
 -12   4  -8 1078.29  114.19
   4  -8 -12 1277.07  123.59
   4 -12   8 1267.57  131.09
   4   8  12 1448.26  126.39
 -12   8   4 1115.19  118.09
  -4   8 -12 1054.39  113.39
  12  -8   4 1241.48  151.08
  -8 -12   4 1176.68  159.18
  -4 -12  -8 1299.57  119.89
  -5  12  -8  -35.90   31.40
  -5  -8 -12   56.89   38.30
  12  -5   8  -28.10   40.00
   5 -12  -8   31.00   35.10
 -12   8   5   10.80   33.00
   5  -8 -12   24.30   39.90
  -5 -12  -8    7.10   32.10
  -5   8 -12    2.70   34.10
   0   9  12   29.90   33.40
   9 -12   0   15.90   35.10
 -12   0  -9   54.79   50.69
  -9 -12   0   48.90   43.80
   0  -9 -12    6.70   35.50
  12  -9   0   33.90   38.20
  12   9   0   84.19   55.99
  -9   0  12   25.10   36.00
   0 -12  -9   19.20   44.60
   0 -12   9   42.30   44.20
   0  12  -9   60.79   52.19
   9   0  12   34.10   35.40
   0   9 -12   54.29   51.99
 -12   0   9   61.69   42.70
  -9  -1  12   -1.50   31.80
  -1 -12   9   17.90   38.20
  -1  12  -9  -17.10   30.20
   9   1  12    1.40   35.60
  -9 -12  -1   -6.40   36.60
  12   9   1   22.70   39.90
  -1  -9 -12   -8.80   32.90
 -12   1   9   -5.50   30.70
  -1   9  12  -26.10   23.90
  12  -9  -1   10.70   36.40
   9 -12   1    2.50   33.50
   9 -12  -1   23.00   34.90
   1   9  12    9.60   34.20
  12  -9   1   -6.00   37.50
   1 -12   9   -3.30   42.30
  -1   9 -12    4.40   36.10
 -12  -1   9   28.70   37.30
  -9   1  12   15.20   31.70
  -9 -12   1   -9.20   38.20
 -12   1  -9   30.70   32.30
  -2   9  12   12.50   30.10
  -2  12  -9   49.70   49.40
  -9  -2  12  -34.30   29.50
  -9 -12  -2    2.00   40.50
  -2 -12   9   -4.30   42.10
  12   9   2   26.10   37.70
  12  -9  -2   20.40   37.10
   2   9  12   -9.60   34.70
 -12  -2   9   42.60   37.20
   9 -12  -2   30.50   40.30
 -12   2  -9   -6.40   29.50
   2 -12   9  -33.70   38.00
   9  -2  12  -14.10   30.00
  -2   9 -12  -28.20   48.10
  12   9   3  -17.00   44.00
  -9 -12  -3  -21.50   38.60
  -3   9  12    2.50   56.39
  -3 -12   9  -23.20   43.50
  12  -9  -3    5.50   34.20
 -12  -3   9   15.40   42.20
   3 -12   9   12.20   51.99
   9  -3  12    2.90   34.60
 -12   3  -9    8.70   37.30
   3   9  12    3.70   35.40
 -13   0   0   30.70   23.10
   0 -13   0   23.00   32.30
   0   0 -13   11.70   27.30
   0   0  13   26.00   32.70
   0  13   0   19.00   25.90
  13   0   0   25.60   33.20
 -13   0  -1    6.80   23.20
 -13   0   1    6.90   22.40
  -1 -13   0    0.20   31.80
  -1  13   0    8.40   23.50
   0  -1 -13   -9.20   24.10
   0  -1  13   35.40   36.50
   0   1 -13   -6.30   24.10
   0   1  13   32.50   33.10
   1 -13   0   29.00   36.60
   1  13   0   26.00   26.50
  13   0  -1   -3.40   27.90
  13   0   1   21.40   30.70
   0 -13  -1   -3.60   33.70
   0 -13   1   -9.50   28.80
   0  13  -1   46.10   30.90
   0  13   1   14.80   23.80
   1   0 -13    4.00   25.50
   1   0  13   24.20   32.00
  13  -1   0  -22.00   22.60
  13   1   0   -0.40   31.10
  -1   0  13   -0.60   32.20
  -1   0 -13   26.50   30.80
 -13   1   0    4.90   25.00
 -13  -1   0   -0.50   20.70
  -1 -13  -1    5.90   30.70
 -13   1   1   15.60   23.40
 -13   1  -1   -4.10   22.90
  13   1   1   13.00   27.50
  13   1  -1   19.10   35.00
  -1   1  13   -7.20   27.90
  -1  13  -1    4.70   24.60
  -1  13   1  -12.30   22.40
   1 -13  -1  -21.00   29.00
   1 -13   1   -4.80   31.30
   1  13   1   30.70   26.00
  13  -1  -1   -5.30   30.70
  13  -1   1  -13.00   26.70
 -13  -1  -1    6.10   24.80
 -13  -1   1   13.60   23.50
  -1  -1 -13  -33.00   19.90
  -1  -1  13   14.50   33.90
  -1   1 -13   -8.50   25.90
   1  -1 -13   16.00   27.20
   1  -1  13   16.00   28.90
   1   1 -13  -10.60   20.90
   1   1  13    3.00   29.30
   1  13  -1   -8.50   24.40
  -1 -13   1    2.60   31.80
   0  13  -2  541.55   68.19
   2   0 -13  696.53   76.79
   2   0  13  493.95   79.89
  13  -2   0  522.95   91.89
  13   2   0  670.63   81.89
  -2   0 -13  406.26   74.09
  -2   0  13  370.16   74.09
   0 -13  -2  529.55   88.99
   0 -13   2  683.53   87.89
 -13   0  -2  568.44   67.49
   0   2  13  460.25   79.59
   2 -13   0  430.56   83.69
   2  13   0  517.35   81.59
   0  -2 -13  623.64   73.99
  13   0   2  596.14   80.09
   0   2 -13  428.96   74.09
 -13  -2   0  470.85   73.59
 -13   0   2  409.26   69.59
  -2 -13   0  628.34   83.09
  -2  13   0  544.95   67.69
   0  -2  13  538.95   83.49
 -13   2   0  547.95   67.99
   0  13   2  566.74   67.69
   2   1  13  844.52   87.19
  13  -2  -1  651.83   88.19
  -1   2  13  591.94   94.09
 -13  -1  -2  622.74   75.49
  13   2   1  712.03   87.99
  13   1  -2  792.32   92.99
   1 -13  -2  888.21   93.19
  -1  -2 -13  745.13   84.59
   1  13   2  801.62   82.69
  -1  13  -2  826.22   82.89
   2  13  -1  756.82   82.29
  -2  13   1  624.34   76.29
   1   2 -13  687.13   80.59
 -13  -2   1  733.03   77.79
 -13   2  -1  783.92   79.69
   2 -13   1  667.23   88.89
 -13   1   2  657.03   77.69
  -2   1 -13  742.93   84.39
  13  -1   2  694.63   90.39
  -2 -13  -1  739.43   91.29
   1  -2  13  662.73   80.69
  -1 -13   2  728.43   92.89
  -2  -1  13  756.32   85.89
 -13  -2  -1  769.02   81.39
  -1  13   2  670.23   76.99
   1  13  -2  652.83   78.59
  13   2  -1  632.64   86.69
  -2  13  -1  680.33   79.09
 -13  -1   2  715.03   78.99
   2   1 -13  817.32   87.39
  -1  -2  13  748.23   84.79
  -1   2 -13  774.92   83.79
  13  -2   1  386.46   79.49
   1  -2 -13  678.33   81.89
  -2 -13   1  735.63   93.29
   1 -13   2  794.02   96.99
   1   2  13  889.01   91.59
   2 -13  -1  919.21   95.79
 -13   2   1  789.92   80.89
  -2  -1 -13  640.74   79.09
 -13   1  -2  609.74   75.79
   2  -1  13  495.55   84.39
  -2   1  13  743.43   86.99
  -1 -13  -2  783.82   90.59
  13   1   2  735.23   90.69
   2  13   1  752.62   81.29
  13  -1  -2  587.94   82.99
  -2   2  13    8.00   31.10
   2 -13   2   -3.10   32.00
   2  -2 -13  -13.90   27.90
   2  -2  13  -14.30   31.50
   2   2 -13   -8.50   24.10
   2   2  13  -14.40   26.10
   2  13  -2   28.40   25.20
   2  13   2  -11.20   21.80
  13  -2  -2  -40.00   31.00
  13  -2   2    9.80   32.30
  13   2  -2   -5.60   26.10
  13   2   2  -31.50   26.20
  -2  -2 -13   -0.60   31.20
  -2  -2  13   10.40   26.80
 -13   2  -2    8.60   28.30
  -2  13  -2   -7.30   20.70
  -2  13   2   -9.00   21.20
   2 -13  -2  -19.20   32.60
 -13  -2  -2  -13.20   19.20
 -13  -2   2   -0.60   23.00
  -2   2 -13   20.60   24.90
  -2 -13   2  -23.50   25.90
 -13   2   2  -18.20   22.90
  -2 -13  -2    5.70   31.20
   0   3 -13   35.10   32.30
 -13   0   3   18.70   26.00
  -3 -13   0   43.70   38.30
   0  -3  13   42.60   48.30
 -13   0  -3    4.50   20.60
   3 -13   0  132.99   50.09
   3  13   0   55.39   29.20
 -13  -3   0   15.40   27.70
 -13   3   0   38.20   27.90
  -3   0 -13   62.49   36.10
  -3   0  13   50.29   37.80
   0 -13   3   45.70   38.10
   0  13  -3   51.89   31.40
   0  13   3   63.29   33.40
   3   0 -13   19.40   29.50
   3   0  13   17.20   26.50
  13  -3   0   38.60   30.10
  13   3   0   40.60   42.10
   0  -3 -13   70.69   35.10
  13   0   3   15.00   34.80
  -3  13   0   44.60   28.60
   0   3  13   71.79   37.50
  13   0  -3   41.10   34.90
  -1   3  13  -43.80   28.00
   1  -3  13    4.20   34.00
  -3  -1  13    0.80   25.30
  -3  13   1   13.40   26.40
  -1  -3 -13   19.00   26.60
  13  -1   3  -32.70   28.40
  13   1  -3   -3.70   26.00
 -13  -1  -3   23.30   27.00
  -3   1 -13    7.90   26.20
   3   1  13  -15.40   22.70
  13  -3  -1    1.10   29.00
  -3 -13  -1   12.40   34.40
 -13   1   3  -11.20   21.40
  13   3   1   -5.20   25.20
   1   3 -13    7.80   27.30
 -13   3  -1    3.70   23.60
   1  13   3   19.40   28.40
   3 -13   1   10.30   28.80
   3  13  -1   36.40   31.30
  -1  13  -3    1.90   25.40
  -1 -13   3    4.40   31.60
   3  -1 -13  -10.80   23.90
 -13  -3   1    1.80   23.10
   3  13   1   38.00   34.30
   3  -1  13  -27.50   24.50
 -13  -3  -1  -11.30   21.90
  -3   1  13    0.80   30.90
  -1 -13  -3  -24.30   40.80
  13  -1  -3  -13.00   27.60
  -3 -13   1  -23.60   24.90
  -1  13   3   20.20   25.40
   1 -13   3   -2.80   35.50
   1  13  -3  -17.90   21.10
   3 -13  -1   -8.50   30.40
   1  -3 -13  -15.60   21.80
  -1   3 -13  -16.50   22.60
   3   1 -13   20.50   28.70
  13   1   3   -3.10   32.30
 -13  -1   3    0.30   24.30
 -13   1  -3   18.00   26.10
  13   3  -1  -25.70   29.40
  13  -3   1   -4.40   28.00
  -3  13  -1   23.20   29.20
 -13   3   1   18.00   27.20
  -3  -1 -13   -2.30   20.60
   1   3  13   -2.70   26.70
  13   2  -3   55.79   41.30
  -2   3  13   42.60   38.80
  -3  -2  13   10.60   32.30
   2  -3  13   87.19   47.40
   2  13   3   -2.70   25.30
 -13  -2  -3   38.20   26.00
   3 -13   2   19.70   32.40
  -2 -13   3   28.20   34.50
  -2  13  -3   18.70   25.00
  -3   2 -13   31.90   33.00
 -13  -3   2   -2.90   23.80
  13  -2   3    2.90   31.10
  13   3   2   49.10   35.50
  13  -3  -2   14.40   31.70
   2   3 -13   48.50   33.30
  -3  13   2   10.70   25.80
  -2  -3 -13   98.69   40.20
   3  13  -2    8.30   29.40
   3  -2 -13   44.50   35.40
 -13   2   3    1.60   26.50
  -3 -13  -2   -0.30   33.80
   3   2  13    4.70   28.30
 -13   3  -2   22.00   31.20
   3  -2  13   29.50   30.50
   3   2 -13    7.30   22.30
  -2 -13  -3    3.30   38.40
 -13  -3  -2   17.80   24.90
  13  -3   2   39.10   38.50
  13   3  -2   16.60   34.30
 -13   2  -3   14.70   24.30
  13   2   3   26.70   32.40
   2 -13   3   72.69   51.29
   3  13   2   47.80   36.50
  13  -2  -3   -6.20   34.70
 -13   3   2  -12.50   26.70
  -3  -2 -13   22.20   37.10
  -3 -13   2   40.90   40.00
  -3  13  -2   13.60   22.40
   2   3  13   16.80   34.70
   3 -13  -2   20.70   34.40
  -2   3 -13    1.20   27.70
  -2  13   3   26.60   26.40
   2  -3 -13   21.40   27.20
   2  13  -3   75.09   31.10
  -3   2  13   -7.20   25.90
 -13  -2   3    5.10   26.80
 -13   3   3   -0.90   31.00
  -3 -13  -3   16.20   42.40
  -3  13   3    8.90   23.40
   3 -13   3   -5.80   28.10
   3  -3 -13   22.80   31.20
 -13   3  -3   23.10   27.40
  -3   3  13  -19.50   21.10
  -3  13  -3   25.00   27.00
   3  13  -3    1.60   23.70
  -3   3 -13   -2.70   30.90
 -13  -3   3   41.40   29.80
   3  -3  13   29.20   41.00
  -3 -13   3   -3.80   27.60
  -3  -3 -13  -21.90   26.30
   3  13   3   19.40   27.80
  13  -3  -3    5.50   30.70
  13  -3   3   10.10   30.50
  13   3  -3   23.90   35.90
  13   3   3   14.60   32.40
   3   3  13  -10.80   24.60
 -13  -3  -3   19.20   24.80
   3   3 -13    0.20   24.70
   0   4 -13   38.40   32.10
  -4  13   0  146.19   43.70
   0  -4 -13  112.09   43.80
  13   4   0    6.10   35.60
  13  -4   0   39.50   34.90
   4 -13   0   18.00   32.10
   0  13  -4   72.89   34.60
   0   4  13   53.29   39.00
  -4   0  13    4.70   32.70
  -4   0 -13   73.19   40.60
   0 -13   4   15.30   34.70
 -13   0  -4   54.09   32.50
 -13   0   4   30.30   32.70
  -4 -13   0   53.09   42.40
   4   0  13   -1.40   26.00
  13   0   4   54.19   44.40
 -13  -4   0   35.20   29.20
   4  13   0   63.29   36.20
  13   0  -4   31.90   34.10
   4   0 -13   61.89   38.50
   0  13   4   60.99   35.30
 -13   4   0   78.79   36.40
   4   1  13   -8.60   26.30
  -4   1 -13   -6.60   31.10
  13  -4  -1   10.10   30.20
  -4  -1  13   13.50   32.50
  -4 -13  -1  -32.00   33.20
  -4  13   1   12.80   23.30
   4 -13   1   30.10   34.40
  13  -1   4   31.00   35.60
 -13   1   4   25.00   24.00
 -13  -4   1   22.80   30.70
 -13   4  -1   51.29   33.70
  -1   4  13    5.60   26.90
  -1 -13   4   11.10   34.50
   1  13   4   11.20   25.90
  -1  -4 -13   -2.50   25.60
 -13  -1  -4  -26.00   18.20
   1   4 -13   45.60   31.20
  13   4   1   14.80   35.10
   4  -1 -13   41.30   30.90
   4  13  -1    3.10   28.70
  13   1  -4   11.20   29.10
  -1  13  -4   16.40   27.60
   1  -4 -13   34.80   32.50
   1   4  13  -10.20   26.90
   1  13  -4  -24.40   22.10
  -4  13  -1   21.00   28.20
   4  13   1    6.70   28.00
  -1  13   4   -3.50   19.90
   4 -13  -1   31.30   36.00
 -13   1  -4    0.60   25.20
  -4  -1 -13   36.90   39.20
 -13  -1   4   12.70   27.50
  -1   4 -13   19.40   28.00
  -4   1  13    9.10   33.30
  13   1   4   33.40   38.40
  13  -1  -4   -5.50   32.00
   4   1 -13   17.30   32.30
  -4 -13   1  -12.20   35.70
 -13   4   1    4.00   26.00
   1 -13   4  -25.60   30.10
 -13  -4  -1   -1.70   22.80
   4  -1  13   -6.00   27.90
  13   4  -1   13.90   33.80
  13  -4   1   -5.50   24.40
 -13  -2  -4   25.10   24.90
  13  -2   4  -29.80   27.50
   2  13   4  -15.80   25.10
   2   4 -13    2.80   28.10
  13   4   2    3.20   30.50
  -4  13   2   50.79   34.30
   4  -2 -13  -12.40   26.80
  -4  -2  13   27.00   32.50
 -13   4  -2   -0.90   26.40
  -4 -13  -2    4.20   36.90
  13   2  -4   41.30   37.90
   4  13  -2    8.40   29.30
  -2  -4 -13    7.70   24.90
  -2 -13   4  -11.70   29.20
  -2   4  13   16.60   31.50
 -13   2   4   20.40   29.10
   4 -13   2   22.30   33.50
   4   2  13    2.70   29.20
  -2  13  -4   26.90   31.10
  13  -4  -2   31.50   31.20
 -13  -4   2   13.70   27.90
  -4   2 -13  -18.50   31.00
 -13   2  -4  -18.30   26.40
 -13  -4  -2   -1.80   25.70
   4  -2  13    4.80   28.50
  13   4  -2   18.40   28.70
   2  -4 -13   21.40   29.10
   4  13   2    7.30   27.80
   4 -13  -2   30.30   33.10
  -4   2  13    7.20   31.60
  -2   4 -13   57.79   34.20
   2   4  13  -54.39   26.70
  13  -2  -4    7.40   34.30
  13   2   4   -2.80   34.90
  13  -4   2    2.10   24.70
 -13   4   2   -8.50   28.80
  -4  -2 -13    4.40   31.40
   4   2 -13   21.30   31.20
  -2  13   4    9.50   22.10
   2 -13   4   16.50   36.00
  -4 -13   2    5.80   31.90
   2  13  -4  -17.70   28.50
  -4  13  -2   -4.20   26.60
 -13  -2   4  -17.60   25.10
 -13   3   4  280.17   60.89
   3  13   4  120.19   44.10
   4  -3 -13  124.89   46.20
   4   3  13  225.08   55.19
  -3   4  13  198.78   54.79
  -3  -4 -13  235.08   59.39
  13   3  -4  251.97   71.49
   4  13  -3  166.08   49.30
  -4 -13  -3  353.66   82.89
  -3  13  -4  164.98   47.50
 -13   4  -3  249.97   52.79
  13   4   3  158.08   55.99
  13  -3   4  177.68   57.39
 -13  -3  -4  188.08   47.10
  13  -4  -3  242.98   60.29
 -13  -4   3  216.48   50.89
   3   4 -13  153.78   47.10
  -4   3 -13  198.98   52.79
  -4  13   3  303.67   63.79
  -3 -13   4  131.79   53.19
   4 -13   3  198.88   61.49
  13   4  -3  208.78   59.89
 -13  -3   4  252.57   56.59
   4  -3  13  218.48   52.89
  13  -3  -4  177.08   53.09
   3  13  -4  105.39   43.40
   4   3 -13  180.28   49.90
  -4  -3 -13  312.67   61.69
  -4  13  -3  280.17   59.59
  -4   3  13  191.88   56.39
  -3   4 -13  195.68   53.39
 -13  -4  -3  269.27   55.49
  -3  13   4  177.28   47.40
 -13   4   3  228.78   59.09
   4  13   3  167.98   47.20
   3  -4 -13  163.98   49.60
 -13   3  -4  145.49   48.50
   3   4  13  229.48   55.49
  13   3   4  163.08   55.29
  -4 -13   3  181.68   66.19
  13  -4   3  209.08   63.69
   3 -13   4  282.57   68.19
  13  -4   4   18.00   35.20
   4  13   4    6.90   27.90
  13  -4  -4   16.60   35.00
 -13  -4  -4   23.30   29.40
 -13  -4   4   28.10   31.90
 -13   4  -4   -6.50   29.20
 -13   4   4  -33.50   25.30
  -4 -13   4   24.90   42.00
  -4  -4 -13  -22.30   29.60
  13   4   4   26.10   34.50
   4  13  -4   -5.40   32.80
  -4   4  13  -38.00   22.60
  -4   4 -13  -14.00   25.50
   4   4  13   -1.80   28.10
  13   4  -4    2.00   37.60
   4  -4 -13   -6.70   28.40
  -4  13  -4   14.30   31.70
  -4  13   4  -20.10   25.20
   4   4 -13    5.60   26.30
   4 -13   4   31.10   33.10
  -5 -13   0  296.67   73.79
   5   0 -13  350.56   68.79
 -13   0   5  326.77   66.09
   0 -13  -5  292.37   62.99
  -5   0  13  476.15   80.29
   5  13   0  327.37   66.59
  13   0  -5  322.97   66.69
  13   0   5  224.68   60.29
   0  -5 -13  270.47   61.79
   0   5 -13  235.88   53.29
   0 -13   5  237.68   63.89
   0  13  -5  179.58   55.49
 -13   0  -5  467.75   72.79
 -13  -5   0  294.67   55.19
  13  -5   0  205.28   65.89
  13   5   0  287.57   65.79
   0   5  13  284.17   61.29
   5 -13   0  305.77   69.39
 -13   5   0  215.28   50.29
  -5   0 -13  276.27   58.79
  -5  13   0  231.68   54.99
   5   0  13  237.28   56.79
  -1  13  -5  158.58   52.49
  13   5   1  165.88   55.59
   1  13   5  167.08   45.90
 -13  -5   1  172.68   48.60
 -13  -1  -5  160.98   43.20
  13  -1   5  152.78   56.89
  13   1  -5  126.89   49.90
 -13   1   5  143.99   47.20
   5  13  -1  229.28   57.99
  -1   5  13   98.59   43.10
   5 -13   1   81.29   42.50
   1   5 -13   91.19   44.60
   5   1  13  306.77   64.59
  13  -5  -1   89.39   50.59
 -13   5  -1   64.29   33.20
   5  -1 -13  202.38   48.20
   1 -13  -5  161.08   49.90
  -5  -1  13   61.29   39.80
  -5   1 -13  110.19   42.80
  -1  -5 -13  122.99   43.50
  -1 -13   5  187.68   63.49
  -5 -13  -1  182.78   57.89
  -5  13   1  111.99   41.60
  -5  -1 -13  117.89   47.20
   1  13  -5  175.78   51.99
  -5   1  13  193.38   54.79
 -13   5   1  149.59   47.00
   1  -5 -13  199.68   54.69
  -5 -13   1  186.08   63.19
   1   5  13  207.98   54.99
   5 -13  -1  209.08   59.99
  13  -5   1  168.88   57.79
  13   5  -1  153.88   54.49
   5  13   1  121.79   42.90
   1 -13   5  177.18   64.19
 -13  -1   5  200.68   48.90
 -13   1  -5  105.39   39.10
  13   1   5  160.08   59.39
   5  -1  13  103.59   43.70
  13  -1  -5   91.39   45.30
 -13  -5  -1   67.39   35.80
  -1   5 -13   92.89   39.30
  -5  13  -1  159.48   47.10
   5   1 -13  233.58   51.89
  13  -5  -2  687.63   96.19
  13   2  -5  955.70  101.69
   5   2  13  711.63   88.59
   5  -2 -13  856.21   94.49
  -5  -2  13  797.32   93.29
   5 -13   2  980.60  108.19
 -13  -2  -5  826.42   87.49
  -2  -5 -13  763.52   89.79
   5  13  -2  825.52   89.19
 -13   2   5  902.71   96.89
  -5 -13  -2  835.72  101.59
   2   5 -13  772.22   91.99
  -2 -13   5  748.13  102.49
  -2  13  -5  919.51   94.99
  -5   2 -13  900.81   96.09
  -2   5  13  872.91   97.39
   2  13   5  926.91   95.39
 -13   5  -2  870.51   89.49
  13  -2   5  668.33   93.39
 -13  -5   2  900.81   88.39
  13   5   2  848.32  103.69
  -5  13   2  968.40   93.29
   5 -13  -2  915.11  101.09
  13   2   5  830.32   98.99
   5   2 -13  677.53   87.89
  -5  -2 -13  838.72   92.39
   5  -2  13  813.02   90.49
   2 -13   5  550.54  104.79
  -5  13  -2  914.81   91.89
 -13   2  -5  905.11   90.19
 -13  -2   5  859.91   90.09
  -2   5 -13  900.41   95.99
   2  13  -5  845.82   92.19
   2  -5 -13  801.42   93.19
 -13  -5  -2  700.73   81.19
   2   5  13  933.91   98.49
 -13   5   2  825.92   90.89
  -5 -13   2  544.95  103.49
  -5   2  13  717.23   91.59
   5  13   2 1055.99   95.09
  13  -2  -5  760.92   96.39
  13  -5   2  812.92  100.69
  13   5  -2  963.90  105.69
  13   3  -5   35.60   43.60
 -13   5  -3   40.80   30.00
  -3   5  13   -9.40   25.40
 -13  -3  -5    5.30   24.40
 -13   3   5  -17.30   29.60
  -3  13  -5  -19.60   30.20
   5   3  13   29.70   28.00
  -5 -13  -3  -10.50   44.80
  -5   3 -13   15.00   35.10
  -3  -5 -13    4.10   29.20
  13   5   3   73.59   47.50
   3   5 -13   -6.00   28.10
   5  -3 -13   22.10   29.80
   5 -13   3   14.00   31.70
  13  -5  -3  -37.10   28.90
  -5  13   3   32.00   32.40
  13  -3   5  -33.40   35.40
   5  13  -3   -3.90   27.60
  -3 -13   5   53.39   47.00
 -13  -5   3   25.60   29.50
   3  13   5    3.50   31.10
   3   5  13   12.90   29.10
 -13  -3   5   41.70   31.10
  13   3   5   13.40   36.10
  -5  13  -3  -26.40   29.80
  13  -5   3  -10.20   29.30
  13   5  -3  -35.10   28.40
  -3   5 -13   24.10   32.70
  -5   3  13   37.10   33.80
 -13   5   3    7.50   33.10
   5   3 -13  -20.50   28.60
  -5 -13   3   -4.50   33.00
 -13   3  -5   51.89   33.60
  13  -3  -5   32.70   39.70
   3 -13   5   16.80   35.10
 -13  -5  -3  -21.10   20.80
   5  13   3  -11.30   30.50
   3  13  -5    2.00   29.30
  -3  13   5  -14.60   27.90
   3  -5 -13  -24.50   24.20
  -5  -3 -13   18.20   34.70
   5  -3  13   -2.10   28.10
  -5  13   4   31.90   30.60
   5 -13   4  -19.30   28.20
 -13   5  -4  -22.00   29.30
  -5   4 -13   26.80   39.10
  -4  -5 -13  -10.10   31.30
  13   5   4    6.80   38.10
   4   5 -13   34.10   34.10
  13  -5  -4  -24.10   38.00
   5  -4 -13   20.60   30.70
 -13  -4  -5  -19.10   23.60
  -4   5  13  -16.70   33.30
  -4 -13   5   26.70   44.50
  -4  13  -5   27.30   29.70
   5   4  13    1.30   27.00
 -13   4   5  -61.49   24.80
   5  13  -4   13.80   34.30
  13  -4   5   31.10   37.00
   4  13   5  -13.00   25.10
  13   4  -5   21.30   36.20
  -5 -13   4   29.70   39.30
  -4  13   5   50.09   35.70
   4 -13   5  -11.60   33.40
   4  13  -5   12.00   26.90
 -13  -5  -4  -12.50   28.70
  -5  13  -4   28.80   35.70
  -5  -4 -13   17.30   35.90
  13   4   5   11.60   41.00
 -13  -4   5   -6.70   28.80
   4  -5 -13  -12.60   26.00
   5   4 -13    6.90   27.40
  -4   5 -13   29.30   32.50
  -5   4  13  -20.00   27.50
  13  -5   4   -0.80   39.30
   4   5  13    2.50   31.60
  13   5  -4   -3.90   36.10
 -13   5   4   -9.90   29.20
 -13   4  -5  -14.30   25.60
   5  13   4   -2.00   29.00
  -5   5 -13  -19.00   30.90
  -5   5  13    3.60   33.20
  13   5   5   13.60   38.90
  -5  13   5  -30.70   24.90
   5 -13   5  -34.60   29.30
  13   5  -5    4.80   41.60
  13  -5   5  -25.70   39.30
   5   5  13  -22.20   31.90
 -13  -5  -5   36.30   30.40
 -13   5  -5    7.20   27.40
 -13   5   5   -0.20   36.20
  -5 -13   5    6.40   39.30
  -5  -5 -13   17.40   28.60
   5   5 -13    4.40   29.30
   5  13  -5    8.40   25.00
  -5  13  -5   29.30   34.20
   5  13   5   42.30   31.80
   5  -5 -13    1.10   28.70
  13  -6   0   40.90   40.00
   0  13  -6   51.59   33.80
 -13   0  -6   49.10   34.60
 -13   0   6   99.59   45.40
   6   0  13   36.20   37.10
  13   0  -6   58.59   42.60
   6   0 -13   29.00   34.00
  13   0   6  100.79   47.30
  13   6   0   20.20   34.50
   0 -13  -6   46.00   34.50
   0 -13   6  101.29   52.89
   0   6  13  101.79   42.00
   6 -13   0   84.39   50.29
 -13  -6   0   31.20   36.20
  -6 -13   0   55.69   45.30
  -6  13   0  114.19   44.60
   0  -6 -13   99.39   42.90
  -6   0  13   42.60   38.30
   0   6 -13   32.40   35.30
   6  13   0   76.99   39.50
 -13   6   0   58.29   35.20
   1   6 -13  127.59   47.30
  -6  13   1   76.79   41.20
  -1  -6 -13  107.49   38.80
   6   1  13  131.99   48.50
  13  -1   6  178.28   56.19
  -1 -13   6  134.49   56.39
  -1  13  -6  151.08   44.70
   6  -1 -13  152.98   49.60
  -1   6  13  161.48   50.49
  -6  -1  13  178.38   58.69
 -13   1   6  205.78   52.39
  -6 -13  -1  155.68   65.89
 -13  -1  -6  130.39   39.20
  13   1  -6   89.49   48.70
   1 -13  -6  184.98   50.29
  13  -6  -1  102.09   45.70
   6 -13   1  160.68   58.39
   6  13  -1  166.38   47.80
  13   6   1  204.28   63.59
 -13   6  -1  138.39   45.90
  13  -6   1   59.39   44.70
  13   6  -1  189.38   59.79
  13   1   6  110.39   49.50
   1   6  13  127.49   48.50
   6 -13  -1  235.78   65.49
   6  -1  13  104.79   45.50
  -6 -13   1  161.18   56.29
  -6  13  -1  146.09   49.50
   1  13  -6  100.09   40.40
  -6   1  13  232.28   63.29
   1  -6 -13  108.19   42.70
 -13   6   1  239.18   56.79
   6   1 -13  155.88   50.19
  -1   6 -13  135.79   44.00
 -13  -6  -1  119.89   39.00
   1 -13   6  183.48   69.09
 -13   1  -6  185.58   49.20
   6  13   1  131.29   48.10
 -13  -1   6   95.69   45.40
  -1 -13  -6  138.49   48.00
 -13  -2  -6   25.00   27.70
 -13   2   6   12.50   25.70
  -6 -13  -2   31.80   45.30
  13   6   2   49.30   40.50
   2 -13  -6   21.40   30.20
  -2  -6 -13   17.60   30.00
 -13   6  -2  -23.00   31.30
  -6  -2  13   54.49   40.30
  13  -6  -2    2.70   37.00
  -2 -13   6   34.90   40.60
  -2  13  -6    5.20   27.00
   6  -2 -13   40.60   35.80
   6 -13   2   -9.50   32.70
   6  13  -2   -2.70   27.90
   6   2  13   27.30   33.00
  13  -2   6  -11.40   34.40
  13   2  -6   12.00   34.90
  -2   6  13   -0.20   26.30
  -6  13   2   24.60   31.70
   2   6 -13   19.00   32.90
  -6 -13   2   37.80   35.30
 -13   6   2    5.00   30.50
 -13  -2   6    0.80   32.20
  -6   2  13  -11.90   29.10
   6  13   2   14.10   34.70
  -2 -13  -6   15.40   29.60
  13  -6   2   38.50   38.70
  13   6  -2    4.60   33.40
 -13  -6  -2   13.10   29.30
   2 -13   6   22.70   40.70
 -13   2  -6    1.70   27.40
   2  -6 -13   25.00   33.40
   2  13  -6   56.89   36.90
   2   6  13   14.20   35.50
   6 -13  -2   36.70   41.00
   6  -2  13   17.00   35.00
   6   2 -13  -10.20   32.20
  13   2   6  -31.90   35.40
  -2   6 -13   22.20   32.30
 -13  -3  -6   87.89   37.60
 -13   3   6   58.99   39.20
   6  -3 -13   87.69   39.10
  -3  -6 -13   42.60   36.50
  -3  13  -6  145.99   43.00
   6   3  13  135.59   52.09
  -3 -13   6  132.29   61.79
   3 -13  -6   92.89   43.10
  13  -6  -3  128.59   53.39
   6  13  -3  101.39   43.40
 -13   6  -3   90.29   36.80
  13  -3   6   98.09   49.70
  13   3  -6   34.40   42.10
  -6  13   3   98.89   43.70
  13   6   3   87.69   45.30
  -6 -13  -3   74.99   74.29
   6 -13   3  129.69   58.89
   3   6 -13   72.09   41.60
  -3   6  13   84.59   40.00
  13   3   6  146.39   53.59
   6   3 -13  100.09   41.10
  -3   6 -13  108.39   41.80
   3  -6 -13   37.90   34.70
   3 -13   6   82.69   49.20
   3  13  -6  119.99   40.10
 -13   3  -6  139.79   46.70
   6  -3  13  140.59   54.49
   3   6  13  205.48   59.59
   6  13   3  124.39   45.60
  -6 -13   3   75.49   47.60
  -6   3  13   57.19   36.30
  -3 -13  -6   58.09   35.90
 -13  -3   6   97.99   42.50
  13  -6   3  119.19   53.49
  13   6  -3   69.19   41.20
 -13  -6  -3   76.69   37.40
 -13   6   3  102.59   42.90
  -6  13   4   38.50   33.80
 -13  -4  -6  -21.70   22.40
  -4  -6 -13    5.00   30.30
  13   4  -6  -17.00   35.50
  -4 -13   6  -35.10   35.20
  -4  13  -6   24.80   36.00
  13  -4   6   -4.50   40.00
  13   6   4   43.70   46.60
   4 -13  -6  -18.40   31.40
   6  13  -4   19.70   34.80
 -13   6  -4   14.80   30.70
   4   6 -13   11.80   32.30
   4  13   6  -13.30   28.80
   6 -13   4    1.90   31.70
   6   4  13   30.90   32.50
  13  -6  -4   66.39   46.30
 -13   4   6   23.50   34.80
  -4   6  13  -26.40   32.00
   6  -4 -13    3.60   33.90
  -6 -13   4  -25.00   36.40
 -13  -6  -4  -31.10   22.50
 -13   6   4   16.20   29.20
 -13   4  -6  -22.20   28.40
  -4   6 -13    6.50   36.70
   4   6  13   -0.60   31.90
   6   4 -13  -21.00   25.10
  -6   4  13   -8.20   26.80
  13   4   6   -5.20   43.50
  13  -6   4   34.90   46.00
  13   6  -4   17.50   36.40
   4 -13   6   32.70   38.60
   4  13  -6    0.30   31.10
 -13  -4   6  -16.60   27.80
   6  13   4  -27.00   26.90
   4  -6 -13   28.50   30.50
   5  13   6   -1.00   36.90
   6  -5 -13   23.60   34.60
   5   6 -13  -36.80   28.30
   6  13  -5   43.20   33.00
  -5  13  -6    9.50   31.90
 -13  -5  -6  -10.30   28.10
  -5  -6 -13   -6.40   33.20
  -6  13   5   27.60   34.60
  13   6   5  -18.30   40.80
  13   5  -6   -3.20   39.00
 -13   5  -6  -24.00   29.00
 -13   6   5   16.80   50.29
   5  -6 -13   25.90   34.00
   5  13  -6    7.60   27.10
  -5   6 -13   -7.50   31.70
   6  13   5   46.30   38.50
   6   5 -13   19.30   32.40
  13   6  -5   12.50   45.20
 -13  -6  -5  -22.40   27.20
  -6  13   6   -0.90   38.20
   7 -13   0   70.39   43.90
   7  13   0   36.70   35.50
  13   0   7   95.69   49.70
  13   7   0   96.29   48.80
   0  -7 -13   14.30   30.60
   0 -13  -7   99.59   43.20
   0 -13   7   13.00   45.80
  13  -7   0   68.29   42.20
 -13   0   7   44.40   38.00
  -7 -13   0   39.40   47.70
 -13   0  -7   43.70   33.60
   0   7 -13   72.09   42.80
   0   7  13   94.39   52.39
 -13   7   0   58.69   36.30
  -7   0  13   88.89   44.90
   7   0  13   73.09   41.50
   7   0 -13   79.89   39.00
   0  13  -7   80.69   39.90
  13   7   1   -4.80   35.90
 -13  -1  -7    8.90   28.30
   7 -13   1   -5.60   33.10
  -1  13  -7   40.60   33.20
  -1   7  13  -39.70   33.60
  -7  -1  13   -3.10   34.70
   1   7 -13    4.20   27.80
   7  13  -1   25.60   31.70
  -1 -13   7  -19.50   40.20
 -13   7  -1  -13.80   32.90
   1 -13  -7   20.70   32.70
 -13   1   7    0.60   30.20
  -7 -13  -1  -22.30   35.30
  13  -1   7   46.30   40.30
  -1  -7 -13  -27.20   21.40
   7   1  13    5.70   30.00
   7  -1 -13  -44.30   35.20
  13  -7  -1   18.80   41.50
  -1   7 -13   16.90   32.40
  -7   1  13   31.00   34.00
  -1 -13  -7  -23.40   25.90
  -7 -13   1  -13.90   34.70
  13   1   7   13.70   38.60
 -13   1  -7   40.20   34.10
   7 -13  -1   40.30   41.50
   1   7  13   22.20   40.60
   1  13  -7   45.00   29.40
 -13   7   1   47.70   38.30
 -13  -1   7   18.70   35.40
   1 -13   7   27.10   43.50
  13  -7   1  -19.90   31.00
   7  -1  13   35.10   34.60
   7   1 -13   13.70   33.40
  13   7  -1   31.90   39.90
   1  -7 -13   27.50   36.10
 -13  -2  -7   68.99   38.70
  -2  13  -7  150.78   52.89
  13   7   2  163.88   63.59
   7  -2 -13   88.49   41.90
   7  13  -2  171.68   50.29
  -2  -7 -13  305.07   68.19
  -7 -13  -2   56.99   42.00
 -13   2   7  107.29   45.20
  -2 -13   7  125.29   62.49
   2 -13  -7  227.58   57.59
   2   7 -13   57.49   41.10
  -7  -2  13  203.38   56.19
  13  -2   7  132.39   54.89
   7 -13   2  191.08   63.49
  -2   7  13  111.99   48.40
   7   2  13  144.19   46.80
  13  -7  -2  124.49   50.39
  13   7  -2   77.49   43.60
   2 -13   7  141.59   62.99
   2  13  -7  106.19   47.60
  -2 -13  -7  146.59   42.90
  -7 -13   2  133.29   61.89
 -13  -2   7  118.59   48.40
  -7   2  13  115.59   48.40
  -2   7 -13  263.37   60.69
   7   2 -13   96.49   42.30
   2   7  13  194.78   57.49
   7  -2  13  132.49   44.20
 -13   7   2  110.39   45.20
 -13   2  -7  122.79   44.40
  13  -7   2  143.69   62.59
   2  -7 -13  114.09   49.00
   7 -13  -2   90.99   47.60
  13   3  -7  -51.19   45.30
   3 -13  -7   13.60   32.90
   7  -3 -13   24.50   36.70
  -3  -7 -13   36.40   35.40
   7  13  -3  -11.30   35.40
  13  -3   7   28.10   45.80
  13   7   3    6.70   37.00
  -3 -13   7  -73.89   46.80
  -3  13  -7   12.40   33.90
  -3   7  13  -12.70   37.40
  13  -7  -3   -1.50   39.30
   3  13  -7   -6.00   59.79
   3  -7 -13    0.20   42.80
 -13   3  -7  -10.50   34.00
   7   3 -13   -9.10   30.50
 -13   7   3  -15.10   33.30
   3 -13   7  -13.20   66.49
  -3   7 -13   24.40   38.80
 -13  -3   7   16.90   29.80
  -3 -13  -7   31.20   31.50
   3   7  13   32.00   47.00
   7  -3  13   54.69   51.69
   7  13  -4   -7.60   30.40
   7  -4 -13   28.30   37.00
  13  -4   7   21.90   53.99
  -4  -7 -13   -0.90   37.50
  -4  13  -7  -30.50   36.20
  13   4  -7   50.69   43.70
  13   7   4   31.10   46.70
 -13   4  -7   27.00   36.60
 -13   7   4    5.60   49.99
  -4   7 -13  -13.70   35.80
 -13  -7  -4    9.50   28.80
   7   4 -13  -10.30   34.70
  -8   0  13  187.48   68.49
   8 -13   0  300.57   87.19
  -8 -13  -1   33.00   51.29
  -8  -1  13  143.59   54.29
   8 -13  -1  157.48   58.49
  13  -2   8  123.69   77.89
  13  -8  -2   21.40   53.39
  -8  -2  13  117.29   75.79
  -8 -13  -2   25.90   44.60
 -13   8   2   30.00   34.20
 -13  -2   8   41.00   57.89
   8  -2  13   50.09   42.20
   8 -13  -2   39.20   47.80
 -14   0   0    4.20   27.50
   0 -14   0   81.49   48.30
   0   0 -14  -23.30   22.30
   0   0  14   27.90   35.00
   0  14   0   -7.20   24.40
  14   0   0   51.09   48.60
 -14   0  -1   -0.40   29.60
 -14   0   1   -4.40   25.00
  -1 -14   0   15.50   36.10
  -1  14   0    0.30   22.60
   0  -1 -14   -0.20   25.90
   0  -1  14   67.29   44.70
   0   1 -14  -16.60   24.90
   0   1  14  -20.40   29.90
   1 -14   0   27.50   37.50
   1  14   0    1.30   29.80
  14   0  -1   45.00   38.70
  14   0   1   26.50   33.00
   0 -14  -1   21.30   41.00
   0 -14   1    7.60   38.80
   0  14  -1  -24.90   23.30
   0  14   1   -8.60   27.50
   1   0 -14   23.80   32.20
   1   0  14   24.50   34.00
  14  -1   0  -13.80   29.80
  14   1   0   50.69   43.10
  -1   0  14    6.90   34.60
 -14  -1   0  -19.20   25.70
 -14   1   0    2.00   23.60
  -1   0 -14  -22.80   25.30
   1   1  14  102.09   50.29
  14   1  -1  117.79   50.89
  14   1   1  137.29   51.69
  -1  -1  14   87.99   48.50
  -1   1 -14   79.39   39.50
   1 -14   1  226.78   69.39
   1  -1 -14  190.18   51.49
   1  -1  14   88.79   44.20
   1   1 -14  114.59   45.60
 -14  -1  -1  107.29   44.50
 -14  -1   1  180.98   46.60
 -14   1  -1   37.80   33.10
 -14   1   1   63.39   36.90
  -1 -14  -1   71.89   43.50
  -1 -14   1   90.19   44.90
  -1  -1 -14   96.79   38.00
  14  -1  -1   31.90   36.30
  14  -1   1   85.59   51.09
  -1   1  14   63.99   46.00
  -1  14  -1   85.29   37.30
  -1  14   1   47.50   33.40
   1 -14  -1   57.59   49.60
   1  14   1   87.19   44.70
   1  14  -1   46.80   34.40
   2   0  14    4.10   34.90
   2   0 -14  -18.10   22.70
   0  -2 -14  -14.50   30.10
   2  14   0  -12.70   24.00
  14   0  -2    7.30   33.70
  14   0   2    1.50   33.00
   2 -14   0   -4.90   36.20
 -14  -2   0   -6.30   27.80
 -14   2   0    1.90   25.10
   0  -2  14   10.10   35.50
   0   2 -14  -21.30   26.00
   0   2  14  -17.90   36.90
  -2 -14   0   33.00   38.60
  14  -2   0   16.60   33.10
  14   2   0   28.40   37.90
  -2   0 -14   -8.50   29.20
  -2   0  14    4.90   31.50
   0 -14  -2  -33.60   29.30
   0 -14   2    1.40   37.30
   0  14  -2    6.50   25.90
   0  14   2   18.90   27.20
 -14   0  -2   -5.60   24.60
 -14   0   2   -5.40   25.20
  -2  14   0   11.00   25.70
  -1  14  -2    1.30   25.00
  14   1  -2   58.39   43.40
   1  -2  14   40.60   41.80
   1   2 -14   22.10   33.00
  -1 -14   2   23.20   43.00
  -2 -14  -1   28.40   36.90
  -2  -1  14  -15.00   28.70
  -2   1 -14   22.60   37.00
 -14  -1  -2    4.00   25.40
   1 -14  -2  -12.50   34.00
   1  14   2  -20.10   24.90
 -14   1   2   64.89   31.00
   2 -14   1    8.00   36.80
   2  -1 -14   77.39   36.20
 -14   2  -1   -1.10   26.30
  -2  14   1   22.60   32.40
  -1  -2 -14  -45.30   28.60
  14  -2  -1  -25.40   31.20
   2  14  -1    3.50   27.50
 -14  -2   1  -12.70   27.20
  14  -1   2  -20.10   31.70
   2   1  14    6.80   37.20
  -1   2  14  -16.50   31.00
  14   2   1   11.60   36.70
  -2  14  -1  -15.50   24.90
  14   2  -1    5.30   36.70
  -1   2 -14   32.00   33.50
 -14   1  -2   18.90   31.80
  -2 -14   1   22.50   35.10
   2  -1  14  -23.80   32.80
   2   1 -14   26.80   31.60
 -14   2   1   48.10   32.40
  -1  -2  14   19.80   37.80
  14  -2   1    7.00   35.10
  14  -1  -2   15.00   39.10
  14   1   2   -8.40   32.50
 -14  -2  -1   13.30   29.50
   1  -2 -14  -28.80   26.40
  -2   1  14   10.70   31.80
  -1 -14  -2   71.49   41.10
   1   2  14   16.00   38.10
   2 -14  -1    5.60   38.90
  -2  -1 -14  -24.20   26.00
   1 -14   2   12.10   36.10
   2  14   1   46.40   36.10
   1  14  -2   50.79   38.10
 -14  -1   2    5.00   26.60
  -1  14   2  -33.10   23.10
 -14   2  -2  200.48   51.29
  -2  14   2  339.87   68.29
  14   2   2  276.97   73.39
   2   2  14  283.17   66.89
   2 -14  -2  312.87   73.29
  14   2  -2  250.47   66.19
 -14  -2  -2  263.37   57.69
 -14  -2   2  315.47   61.59
  -2  14  -2  210.08   54.39
 -14   2   2  334.57   68.39
  -2 -14  -2  400.66   80.59
  -2 -14   2  271.37   71.19
  -2  -2 -14  235.28   60.89
  -2  -2  14  158.58   53.69
  -2   2 -14  229.48   62.69
  -2   2  14  209.38   57.19
  14  -2  -2  167.28   56.39
  14  -2   2  242.38   63.89
   2  -2  14  197.38   53.89
   2  14  -2  296.27   62.99
   2  14   2  520.25   79.99
   2   2 -14  150.88   50.89
   2 -14   2  182.58   64.99
   2  -2 -14  209.08   54.69
  -3 -14   0  249.58   66.09
   0   3 -14  101.39   45.80
  -3   0  14  159.98   52.69
  -3  14   0  254.57   57.09
   0  -3 -14  157.98   51.39
 -14   0  -3  259.77   57.29
 -14   0   3  175.48   48.00
  14  -3   0  116.99   48.90
 -14  -3   0  156.88   46.10
   0  14   3  179.98   48.80
   0 -14   3  309.47   74.79
   0   3  14  288.17   63.99
   3 -14   0  212.38   63.79
   3  14   0  283.37   62.49
  14   0  -3  373.86   78.59
  14   0   3  168.28   64.79
   0  14  -3  249.78   52.69
  14   3   0  254.37   64.29
 -14   3   0  284.57   59.89
  -3   0 -14  145.79   51.09
   3   0 -14  227.38   58.39
   3   0  14  221.98   55.69
   3  -1 -14  313.97   65.99
  -1   3  14  398.56   76.99
  14   3   1  356.96   79.79
   3  14  -1  347.07   66.59
  -1 -14   3  440.16   89.49
  -1  14  -3  553.94   67.79
 -14  -1  -3  301.57   63.39
  -3  -1  14  387.56   72.69
   3   1  14  603.24   94.49
  14  -1   3  400.76   86.09
  -3  14   1  460.95   74.49
  -1  -3 -14  574.94   88.79
  14  -3  -1  311.97   71.49
 -14   1   3  372.56   71.69
  -3 -14  -1  548.85   99.19
   3 -14   1  527.75   97.89
   1  14   3  607.54   73.89
 -14  -3   1  422.36   71.89
  -3   1 -14  329.27   69.09
   1   3 -14  390.16   73.29
  14   1  -3  288.57   73.49
  -3   1  14  330.47   69.49
  -1  14   3  516.45   82.39
   1 -14   3  630.44  105.19
   1  14  -3  392.76   70.39
   3   1 -14  431.16   74.09
  -3  14  -1  490.15   75.99
   3  14   1  508.55   82.79
   3 -14  -1  514.15   91.29
  14  -1  -3  445.86   85.19
   1   3  14  378.26   74.59
   3  -1  14  559.54   90.29
 -14   3   1  522.95   82.59
  14   3  -1  539.45   94.89
  14   1   3  574.14   98.39
 -14   1  -3  512.35   79.79
 -14  -3  -1  399.16   70.59
   1  -3 -14  699.53   79.59
  -3 -14   1  498.05   93.39
  -3  -1 -14  390.76   75.79
  14  -3   1  599.04  102.29
  -1   3 -14  393.46   74.69
 -14  -1   3  379.26   69.89
 -14   2   3   12.50   28.00
   3   2  14   13.40   31.60
  -2   3  14   -5.80   27.50
   2  14   3   -5.70   30.50
  -3  14   2   31.10   32.40
  -2  14  -3   59.89   35.70
  -2  -3 -14   20.70   33.40
 -14  -3   2    9.80   31.50
  14  -3  -2   29.00   37.40
  -3 -14  -2   -9.80   40.80
 -14  -2  -3    3.90   23.30
  -2 -14   3   36.40   35.50
  14   2  -3   -4.30   35.80
  14  -2   3    7.50   36.30
   3  14  -2   18.30   30.00
 -14   3  -2   -6.80   29.80
   3  -2 -14  -10.10   37.40
   2   3 -14   13.60   32.90
  -3  -2  14    5.20   42.00
  -3   2 -14   21.90   33.70
   3 -14   2   26.70   40.50
  14   3   2   18.20   41.10
 -14  -2   3   26.60   32.60
  -2  14   3    7.70   26.60
 -14  -3  -2  -20.10   24.90
 -14   2  -3   41.10   28.60
  -3  14  -2   -6.30   25.30
 -14   3   2    7.40   27.70
   3  -2  14   37.90   40.40
   3   2 -14   -6.70   32.30
  -3   2  14   30.50   34.30
  -2   3 -14   60.09   34.90
  -3 -14   2   -0.30   40.00
   3  14   2   39.00   32.90
   2 -14   3    5.90   40.70
   2  14  -3   23.40   25.90
  14   2   3   19.20   36.80
  14  -2  -3   19.30   39.20
  14   3  -2    2.00   37.00
   2  -3 -14  -11.00   26.40
  -3  -2 -14  -24.50   29.80
   2   3  14   -2.40   34.90
   3 -14  -2   32.30   43.10
  14  -3   2   36.00   41.60
  14  -3  -3  -16.90   29.10
  14   3  -3   17.50   41.10
  14   3   3   22.50   41.80
  -3   3  14  -21.20   22.50
  14  -3   3   -3.60   26.00
   3  -3 -14  -13.80   28.10
   3 -14   3    0.40   31.40
 -14  -3  -3   13.60   25.00
 -14  -3   3   -5.80   24.60
 -14   3  -3   19.10   31.70
  -3  14  -3  -29.40   23.10
  -3  -3 -14    6.00   28.20
   3   3 -14   -8.60   29.20
   3   3  14   12.00   34.40
   3  14  -3    2.10   30.00
   3  14   3  -40.10   24.10
 -14   3   3   10.30   33.00
  -3 -14   3  -25.80   35.20
  -3  14   3  -22.90   22.10
  -3   3 -14   -7.60   27.90
  14  -4   0   75.59   41.20
 -14  -4   0   54.59   33.20
 -14   0  -4   29.90   32.70
 -14   4   0    7.20   26.40
  -4   0 -14   79.79   40.20
  -4   0  14   14.10   31.60
   0 -14   4   18.10   39.60
   0  14  -4   10.60   30.90
   0  14   4   40.30   29.40
   4   0 -14   55.59   36.00
   4   0  14   32.30   35.30
   0  -4 -14    9.40   29.70
   0   4 -14   19.30   36.70
   0   4  14   44.70   33.90
   4 -14   0   84.59   44.20
   4  14   0   23.20   33.50
  14   0  -4   25.90   38.70
  14   0   4   14.40   36.10
  14   4   0   88.39   50.99
  -4  14   0   19.90   31.10
  -4 -14   0  -24.80   33.90
 -14   0   4   62.19   35.50
   4  14  -1   21.60   31.10
  -4   1 -14   26.60   34.90
  -4  -1  14  -13.20   33.60
  -4 -14  -1   -5.60   40.80
   1  14   4   55.39   36.30
  -1   4  14  -23.40   25.90
  -4  14   1   12.30   31.80
  -1  -4 -14   21.80   33.50
  -1 -14   4   -8.10   35.00
   4  -1 -14   13.80   29.30
  -1  14  -4  -16.10   25.80
  14  -1   4   47.60   45.30
 -14  -1  -4    3.60   21.10
  14   4   1    6.80   36.40
  14   1  -4  -27.40   35.60
   4   1  14   63.79   38.80
 -14   1   4   21.80   34.70
   1   4 -14   75.39   44.60
 -14   4  -1   28.00   33.90
   4 -14   1   18.30   37.50
  14  -4  -1   39.10   34.10
 -14  -4   1  -17.40   33.60
  -4  -1 -14   57.59   40.80
 -14  -1   4  -22.70   27.90
 -14   1  -4    2.60   33.20
 -14  -4  -1  -32.30   21.60
   1  14  -4    7.00   27.60
  14   4  -1  -29.60   36.20
  -4   1  14   -9.50   37.40
   1  -4 -14   68.59   41.20
  14  -1  -4    8.50   34.70
   1 -14   4   59.19   42.10
  14   1   4   30.30   42.40
   1   4  14    8.40   34.50
  -1   4 -14  -22.10   26.60
  -1  14   4   35.20   28.40
 -14   4   1    4.20   27.70
   4 -14  -1   -0.70   34.20
  14  -4   1   37.70   36.90
   4  14   1   20.50   29.40
   4  -1  14   38.10   35.70
   4   1 -14  -22.00   23.10
  -4  14  -1   -2.80   25.60
  -4 -14   1   23.40   42.00
  -2  14  -4   29.60   36.30
   4 -14   2   22.30   32.90
  14  -4  -2   38.30   40.30
  -4   2 -14   16.30   34.20
  -2   4  14   -9.60   25.50
 -14  -4   2   31.20   32.60
  -4  14   2   37.10   36.00
   4   2  14  -14.70   28.20
  14  -2   4   89.59   44.20
  14   2  -4   11.10   37.20
   2  14   4   11.00   32.60
   4  -2 -14   42.30   41.60
  14   4   2   51.69   38.80
  -2  -4 -14   30.10   34.30
  -4  -2  14  -33.80   39.40
 -14   2   4   47.70   32.60
  -4 -14  -2   60.69   53.89
  -2 -14   4    5.80   37.20
 -14   4  -2   23.50   39.60
   2   4 -14   -8.70   31.90
   4  14  -2   52.99   36.30
 -14  -2  -4    9.10   23.70
   2   4  14  -12.80   27.00
   4   2 -14   -9.20   30.20
  -2  14   4  -14.00   25.60
 -14   2  -4   23.80   31.50
  14  -4   2  -42.10   27.40
  14   4  -2   18.70   49.99
  -4 -14   2   16.60   44.10
  -2   4 -14    7.00   28.30
 -14  -2   4   75.79   39.50
   2 -14   4    6.00   40.30
   2  14  -4    7.90   31.40
  14   2   4  -31.70   35.70
  14  -2  -4   13.80   41.90
   4  -2  14  -10.30   33.60
  -4   2  14  -42.20   30.70
 -14  -4  -2   -8.00   27.00
  -4  -2 -14   46.40   37.80
   4 -14  -2   42.80   46.50
   2  -4 -14   -6.90   28.60
  -4  14  -2   30.40   29.90
 -14   4   2   -7.10   23.00
   4  14   2   20.90   34.10
  14   4   3   44.50   48.30
  14   3  -4   -0.20   35.10
 -14  -3  -4   -2.80   24.00
   4   3  14   29.60   36.60
   3  14   4   54.69   45.20
   4  -3 -14   31.80   35.20
   4  14  -3    4.30   30.40
 -14   3   4   -7.30   34.60
  -3 -14   4   74.39   45.90
  14  -3   4    8.20   36.90
 -14  -4   3   58.99   32.80
 -14   4  -3   16.90   28.60
   3   4 -14   18.60   28.20
  14  -4  -3   25.30   38.00
  -4   3 -14   -2.20   33.80
  -3  -4 -14  -43.10   25.80
  -3   4  14   57.09   35.20
  -3  14  -4  -16.00   29.70
   4 -14   3    6.40   32.70
  -4  14   3   19.20   29.70
 -14   4   3    9.20   30.90
   3   4  14  -24.10   30.90
  14   4  -3   19.90   39.80
  -4  14  -3  -51.89   24.70
  -4 -14   3   47.20   46.40
   3  -4 -14   35.60   34.50
  -3  14   4   -1.00   28.80
   3 -14   4    0.70   33.20
   3  14  -4   11.20   35.70
   4   3 -14    6.40   31.40
   4  14   3   -2.60   32.70
  14  -3  -4  -22.50   33.90
 -14  -4  -3  -19.80   24.60
 -14   3  -4   23.10   33.80
  14   3   4   41.80   46.20
  -4  -3 -14   27.70   36.20
  14  -4   3  -14.90   38.60
  -4   3  14  -39.70   27.00
 -14  -3   4   32.30   33.50
  -3   4 -14    4.40   26.40
 -14  -4   4  178.28   51.19
 -14   4  -4  230.38   57.19
  -4  -4 -14  169.38   53.29
  14   4   4  159.08   65.29
  -4   4 -14  133.29   46.80
  -4  14  -4  162.98   52.69
  -4  14   4  154.58   47.10
 -14  -4  -4  140.29   49.90
   4  -4 -14  156.08   54.99
   4   4 -14  226.98   70.69
   4  14  -4  119.09   63.59
   4  14   4   84.79   46.80
  14  -4  -4   78.09   38.80
  14   4  -4  138.39   61.59
 -14   0  -5   27.80   31.00
   0   5 -14   -2.00   27.40
  14   0   5   35.30   44.00
 -14   0   5   25.80   32.30
  -5 -14   0    6.60   40.40
 -14  -5   0   38.10   29.90
 -14   5   0   54.29   38.00
  -5   0 -14   71.79   41.40
  -5   0  14   32.30   40.00
   0 -14   5   45.90   44.20
   0  14  -5   32.30   34.00
   0  14   5   -8.00   25.80
   5   0 -14   51.39   42.00
   5   0  14   51.29   35.50
  14  -5   0   44.80   44.30
  14   5   0   58.89   49.60
   5 -14   0   48.40   46.00
   5  14   0   -7.00   29.20
  14   0  -5   -7.50   35.40
   0  -5 -14   11.90   28.60
   0   5  14  -30.10   28.70
  -5  14   0   50.19   36.60
  -5  -1  14   61.79   40.30
  -1  -5 -14  258.37   66.89
  -5  14   1   83.49   36.80
  14   5   1  102.59   54.29
 -14  -1  -5   73.89   40.20
  -5   1 -14   27.40   38.20
   5  -1 -14   93.29   49.40
 -14   1   5  121.39   41.30
  -5 -14  -1  215.68   62.99
  -1 -14   5   33.80   43.60
  14  -5  -1   32.90   41.90
  14  -1   5   73.09   44.40
  14   1  -5  148.39   59.29
 -14   5  -1  132.59   48.20
   1  14   5  132.39   49.60
   5   1  14  108.39   47.40
   1   5 -14  171.08   56.49
 -14  -5   1   96.29   41.00
  -1   5  14   50.69   39.60
   5 -14   1   90.59   47.10
   5  14  -1   63.89   38.70
  -1  14  -5  181.28   51.89
   5 -14  -1  144.19   49.50
 -14   1  -5  147.49   49.10
 -14  -5  -1   22.90   35.10
   1  -5 -14   79.49   43.10
   1  14  -5   64.59   39.60
 -14   5   1   67.79   39.80
 -14  -1   5   95.29   44.00
   5  14   1  185.88   53.09
  14  -1  -5  127.49   53.89
  -5   1  14  123.09   51.49
  -5 -14   1   64.99   49.00
   1   5  14   37.40   39.10
  -1  14   5  110.69   41.20
   1 -14   5  140.39   57.09
  14   5  -1  130.79   56.99
   5   1 -14   59.79   42.50
  -5  -1 -14   84.19   48.00
   5  -1  14   31.00   37.30
  -5  14  -1  162.98   47.40
  14  -5   1  121.89   54.89
  -1   5 -14  138.39   46.40
  14   1   5   35.50   44.30
 -14  -5   2   -7.70   34.10
  14  -2   5   24.20   39.80
 -14   2   5   32.60   44.30
  -5 -14  -2   16.10   39.40
  -5   2 -14    3.00   36.80
   5 -14   2    1.70   33.30
  14   2  -5   30.20   38.50
   2  14   5   -9.70   38.80
  -2  -5 -14   12.30   28.90
   5   2  14  -13.50   35.70
   2   5 -14  -10.90   30.90
   5  -2 -14   29.60   39.20
 -14  -2  -5  -32.50   27.00
  -2  14  -5    9.50   36.20
   5  14  -2    4.60   28.20
  14  -5  -2  -25.80   33.20
  14   5   2   -7.40   37.90
  -5  14   2   31.60   30.60
 -14   5  -2  -19.80   26.90
  -5   2  14   46.60   36.70
  -2   5 -14   44.90   36.30
  14   2   5   37.50   45.40
   2  14  -5    8.20   48.90
 -14   2  -5    5.70   29.80
   2 -14   5   40.40   62.39
 -14   5   2   10.80   27.70
  -5 -14   2  -46.50   33.80
  14   5  -2   88.69   74.49
  14  -2  -5   -5.70   39.00
   5 -14  -2   33.40   52.99
 -14  -2   5   11.40   35.40
   2   5  14   16.80   34.50
   2  -5 -14  -39.50   27.70
  -5  -2 -14    9.60   35.00
  -2  14   5   18.30   27.90
   5  -2  14    3.70   31.40
   5   2 -14   -9.80   34.40
  -5  14  -2   12.60   24.80
   5  14   2   -2.50   28.80
 -14  -5  -2   -0.10   27.70
   5  -3 -14  473.15   84.79
   5  14  -3  585.94   96.59
  14  -5  -3  472.15   94.39
  14   5   3  544.85  138.19
  14   3  -5  600.94  106.39
 -14   5  -3  703.43   79.19
  -5  14   3  756.62   81.99
  -5   3 -14  509.75   89.39
  -3  14  -5  655.83  114.19
  -3  -5 -14  499.95   90.99
  -5  -3 -14  432.86   79.99
  14   3   5  578.44  101.89
 -14   3  -5  581.94  124.29
   5   3 -14  639.74  104.29
  -5  14  -3  591.04   91.49
 -14  -3   5  687.13   78.79
  14  -3  -5  220.18   82.09
   5  14   3  521.95   87.49
 -14  -5  -3  699.03   76.89
  -3   5 -14  539.35   95.19
  -5  14   4  117.39   61.89
  -5   4 -14  148.79   50.79
  14  -5  -4   30.90   46.70
  -5  14  -4   56.39   44.00
  -5  -4 -14   40.60   38.50
 -14  -4   5   45.50   37.10
  14   4   5   41.20   69.69
   6  14   0   98.09   45.10
   6 -14   0   94.59   48.00
   6   0 -14  130.09   49.99
   6   0  14   72.09   50.49
  -6   0  14   89.39   51.49
  -6 -14   0  158.38   88.79
  14   0   6   27.20   45.80
 -14   6   0  146.59   50.89
  14   1  -6    7.50   39.40
   6  14  -1   25.20   37.00
  -6  -1  14   25.00   40.90
  14  -1   6    5.80   40.10
 -14   6  -1  -36.90   26.90
   6  -1 -14  -19.80   37.60
  -6 -14  -1  -29.20   38.70
   6   1 -14   50.59   41.40
  14   1   6   10.30   44.00
   6  -1  14   -6.10   28.60
 -14   6   1   -3.60   40.90
   6  14   1  -51.09   30.20
 -14  -6  -1   13.00   29.00
   6 -14  -1  -40.10   34.60
  14   2  -6   72.49   46.50
 -14   6  -2   19.80   37.10
   6  14  -2   44.40   50.49
   6  -2 -14   28.80   43.20
  -6 -14  -2   19.40   47.00
 -14  -6  -2    9.70   32.80
   6  14   2   18.40   36.10
  14   2   6   -6.40   46.80
   6  -2  14   47.80   39.70
 -15   0   0  -62.19   39.30
   0 -15   0   27.70   40.40
   0   0 -15  -35.30   35.60
   0   0  15  -76.99   28.20
   0  15   0   33.90   40.90
  15   0   0  -14.20   64.39
  -1 -15   0   28.00   39.20
  -1  15   0   -7.50   39.50
   0  -1  15  -18.50   37.60
   0   1  15  -21.20   35.00
   1 -15   0   24.90   39.30
  15   0  -1  -10.90   49.30
   0 -15   1    1.70   36.50
   1   0  15   25.60   44.50
  -1   0  15   51.59   45.40
   0 -15  -1  -46.30   32.50
 -15  -1   0  -35.30   37.00
  -1   0 -15  -16.00   33.90
   1 -15  -1   -4.30   39.60
   1 -15   1   60.99   48.70
   1  -1  15    7.60   37.70
   1   1  15   16.00   39.50
  -1 -15  -1  -30.30   33.00
  -1 -15   1   55.29   46.80
  -1  -1  15  -22.40   29.60
  -1   1 -15   -2.40   36.90
  -1   1  15   17.50   33.70
  -2   0 -15   33.00   39.10
  -2   0  15   32.80   38.00
  -2 -15   0  -25.20   39.00
   2 -15   0   64.49   44.50
   2   0  15  -24.10   31.90
   2   1  15   69.99   54.49
  -2 -15  -1   93.89   56.09
   2 -15   1   61.09   64.29
  -2  -1  15   -7.00   35.80
  -2 -15   1  -12.00   42.10
  -2   1  15   -3.30   42.40
   2  -1  15   74.29   46.20
   2 -15  -1   35.00   42.30
   2  -2  15   24.00   72.99
   3 -15   0  -73.19   38.20
  -3 -15   0  -17.20   50.29
  -3   0  15  -18.30   43.90
  -3  -1  15    7.90   43.10
  -3 -15  -1  -34.70   43.40
   3 -15  -1  -37.70   37.10
   3  -1  15   45.90   47.60
   3  -2  15  212.68   82.29
   0   0   0    0.00    0.00

_computing_structure_solution     'SHELXT 2014/5 (Sheldrick, 2014)'
;
_shelx_hkl_checksum              32104
loop_
_space_group_symop_operation_xyz
'x, y, z'
'-x, -y, z'
'-x, y, -z'
'x, -y, -z'
'z, x, y'
'z, -x, -y'
'-z, -x, y'
'-z, x, -y'
'y, z, x'
'-y, z, -x'
'y, -z, -x'
'-y, -z, x'
'y+1/2, x+1/2, -z+1/2'
'-y+1/2, -x+1/2, -z+1/2'
'y+1/2, -x+1/2, z+1/2'
'-y+1/2, x+1/2, z+1/2'
'x+1/2, z+1/2, -y+1/2'
'-x+1/2, z+1/2, y+1/2'
'-x+1/2, -z+1/2, -y+1/2'
'x+1/2, -z+1/2, y+1/2'
'z+1/2, y+1/2, -x+1/2'
'z+1/2, -y+1/2, x+1/2'
'-z+1/2, y+1/2, x+1/2'
'-z+1/2, -y+1/2, -x+1/2'
'-x, -y, -z'
'x, y, -z'
'x, -y, z'
'-x, y, z'
'-z, -x, -y'
'-z, x, y'
'z, x, -y'
'z, -x, y'
'-y, -z, -x'
'y, -z, x'
'-y, z, x'
'y, z, -x'
'-y-1/2, -x-1/2, z-1/2'
'y-1/2, x-1/2, z-1/2'
'-y-1/2, x-1/2, -z-1/2'
'y-1/2, -x-1/2, -z-1/2'
'-x-1/2, -z-1/2, y-1/2'
'x-1/2, -z-1/2, -y-1/2'
'x-1/2, z-1/2, y-1/2'
'-x-1/2, z-1/2, -y-1/2'
'-z-1/2, -y-1/2, x-1/2'
'-z-1/2, y-1/2, -x-1/2'
'z-1/2, -y-1/2, -x-1/2'
'z-1/2, y-1/2, x-1/2'
loop_
_atom_site_label
_atom_site_type_symbol
_atom_site_fract_x
_atom_site_fract_y
_atom_site_fract_z
_atom_site_U_iso_or_equiv
_atom_site_adp_type
_atom_site_occupancy
_atom_site_site_symmetry_order
_atom_site_calc_flag
_atom_site_refinement_flags_posn
_atom_site_refinement_flags_adp
_atom_site_refinement_flags_occupancy
Ba1 Ba 0.000000 0.000000 0.000000 0.0095(3) Uani 1 24 d S T P
Ba2 Ba 0.250000 0.500000 0.000000 0.0173(2) Uani 1 8 d S T P
Cu1 Cu 0.250000 0.000000 0.500000 0.0095(5) Uani 0.1634 8 d S T P
Zn1 Zn 0.250000 0.000000 0.500000 0.0095(5) Uani 0.1317 8 d S T P
P1 P 0.250000 0.000000 0.500000 0.0095(5) Uani 0.7052 8 d S T P
Cu2 Cu 0.18546(9) 0.18546(9) 0.18546(9) 0.0112(3) Uani 0.1256 3 d S T P
Zn2 Zn 0.18546(9) 0.18546(9) 0.18546(9) 0.0112(3) Uani 0.1006 3 d S T P
P2 P 0.18546(9) 0.18546(9) 0.18546(9) 0.0112(3) Uani 0.7736 3 d S T P
Cu3 Cu 0.000000 0.30853(12) 0.12022(12) 0.0122(3) Uani 0.448(8) 2 d S T P
P3 P 0.000000 0.30853(12) 0.12022(12) 0.0122(3) Uani 0.552(8) 2 d S T P
loop_
_atom_site_aniso_label
_atom_site_aniso_U_11
_atom_site_aniso_U_22
_atom_site_aniso_U_33
_atom_site_aniso_U_23
_atom_site_aniso_U_13
_atom_site_aniso_U_12
Ba1 0.0095(3) 0.0095(3) 0.0095(3) 0.000 0.000 0.000
Ba2 0.0116(4) 0.0202(3) 0.0202(3) 0.000 0.000 0.000
Cu1 0.0103(12) 0.0091(7) 0.0091(7) 0.000 0.000 0.000
Zn1 0.0103(12) 0.0091(7) 0.0091(7) 0.000 0.000 0.000
P1 0.0103(12) 0.0091(7) 0.0091(7) 0.000 0.000 0.000
Cu2 0.0112(3) 0.0112(3) 0.0112(3) -0.0002(3) -0.0002(3) -0.0002(3)
Zn2 0.0112(3) 0.0112(3) 0.0112(3) -0.0002(3) -0.0002(3) -0.0002(3)
P2 0.0112(3) 0.0112(3) 0.0112(3) -0.0002(3) -0.0002(3) -0.0002(3)
Cu3 0.0127(6) 0.0122(6) 0.0118(6) -0.0009(4) 0.000 0.000
P3 0.0127(6) 0.0122(6) 0.0118(6) -0.0009(4) 0.000 0.000
loop_
_atom_type_symbol
_atom_type_description
_atom_type_scat_dispersion_real
_atom_type_scat_dispersion_imag
_atom_type_scat_source
P P 0.1023 0.0942 'International Tables Vol C Tables 4.2.6.8 and 6.1.1.4'
Cu Cu 0.3201 1.2651 'International Tables Vol C Tables 4.2.6.8 and 6.1.1.4'
Ba Ba -0.3244 2.2819 'International Tables Vol C Tables 4.2.6.8 and 6.1.1.4'
Zn Zn 0.2839 1.4301 'International Tables Vol C Tables 4.2.6.8 and 6.1.1.4'
loop_
_geom_angle_atom_site_label_1
_geom_angle_atom_site_label_2
_geom_angle_atom_site_label_3
_geom_angle
_geom_angle_site_symmetry_1
_geom_angle_site_symmetry_3
Cu2 Ba1 Cu2 109.5 25 27
Cu2 Ba1 Cu2 70.5 25 3
Cu2 Ba1 Cu2 180.00(3) 27 3
Cu2 Ba1 Cu2 109.5 25 26
Cu2 Ba1 Cu2 109.5 27 26
Cu2 Ba1 Cu2 70.5 3 26
Cu2 Ba1 Cu2 70.5 25 2
Cu2 Ba1 Cu2 70.5 27 2
Cu2 Ba1 Cu2 109.5 3 2
Cu2 Ba1 Cu2 180.00(5) 26 2
Cu2 Ba1 Cu2 109.5 25 28
Cu2 Ba1 Cu2 109.5 27 28
Cu2 Ba1 Cu2 70.5 3 28
Cu2 Ba1 Cu2 109.5 26 28
Cu2 Ba1 Cu2 70.5 2 28
Cu2 Ba1 Cu2 70.5 25 4
Cu2 Ba1 Cu2 70.5 27 4
Cu2 Ba1 Cu2 109.5 3 4
Cu2 Ba1 Cu2 70.5 26 4
Cu2 Ba1 Cu2 109.5 2 4
Cu2 Ba1 Cu2 180.00(5) 28 4
Cu2 Ba1 Cu2 180.00(5) 25 .
Cu2 Ba1 Cu2 70.5 27 .
Cu2 Ba1 Cu2 109.5 3 .
Cu2 Ba1 Cu2 70.5 26 .
Cu2 Ba1 Cu2 109.5 2 .
Cu2 Ba1 Cu2 70.5 28 .
Cu2 Ba1 Cu2 109.5 4 .
Cu2 Ba1 Cu3 138.380(10) 25 .
Cu2 Ba1 Cu3 109.168(17) 27 .
Cu2 Ba1 Cu3 70.832(17) 3 .
Cu2 Ba1 Cu3 70.832(17) 26 .
Cu2 Ba1 Cu3 109.168(17) 2 .
Cu2 Ba1 Cu3 41.620(10) 28 .
Cu2 Ba1 Cu3 138.380(10) 4 .
Cu2 Ba1 Cu3 41.620(10) . .
Cu3 Ba2 Cu3 162.81(4) 17 26
Cu3 Ba2 Cu3 41.79(4) 17 42_666
Cu3 Ba2 Cu3 123.375(19) 26 42_666
Cu3 Ba2 Cu3 69.23(4) 17 18_554
Cu3 Ba2 Cu3 123.375(19) 26 18_554
Cu3 Ba2 Cu3 84.25(3) 42_666 18_554
Cu3 Ba2 Cu3 123.375(19) 17 25_565
Cu3 Ba2 Cu3 69.23(4) 26 25_565
Cu3 Ba2 Cu3 162.81(4) 42_666 25_565
Cu3 Ba2 Cu3 98.33(3) 18_554 25_565
Cu3 Ba2 Cu3 84.25(3) 17 41_665
Cu3 Ba2 Cu3 98.33(3) 26 41_665
Cu3 Ba2 Cu3 69.23(4) 42_666 41_665
Cu3 Ba2 Cu3 41.79(4) 18_554 41_665
Cu3 Ba2 Cu3 123.375(19) 25_565 41_665
Cu3 Ba2 Cu3 98.33(3) 17 2_565
Cu3 Ba2 Cu3 84.25(3) 26 2_565
Cu3 Ba2 Cu3 123.375(19) 42_666 2_565
Cu3 Ba2 Cu3 123.375(19) 18_554 2_565
Cu3 Ba2 Cu3 41.79(4) 25_565 2_565
Cu3 Ba2 Cu3 162.81(4) 41_665 2_565
Cu3 Ba2 Cu3 123.375(19) 17 .
Cu3 Ba2 Cu3 41.79(4) 26 .
Cu3 Ba2 Cu3 98.33(3) 42_666 .
Cu3 Ba2 Cu3 162.81(4) 18_554 .
Cu3 Ba2 Cu3 84.25(3) 25_565 .
Cu3 Ba2 Cu3 123.374(19) 41_665 .
Cu3 Ba2 Cu3 69.23(4) 2_565 .
Cu3 Ba2 Cu1 39.04(2) 17 29_665
Cu3 Ba2 Cu1 157.84(2) 26 29_665
Cu3 Ba2 Cu1 74.202(17) 42_666 29_665
Cu3 Ba2 Cu1 39.04(2) 18_554 29_665
Cu3 Ba2 Cu1 97.053(17) 25_565 29_665
Cu3 Ba2 Cu1 74.202(17) 41_665 29_665
Cu3 Ba2 Cu1 97.053(17) 2_565 29_665
Cu3 Ba2 Cu1 157.84(2) . 29_665
Cu3 Ba2 Cu1 157.84(2) 17 33_565
Cu3 Ba2 Cu1 39.04(2) 26 33_565
Cu3 Ba2 Cu1 157.84(2) 42_666 33_565
Cu3 Ba2 Cu1 97.053(17) 18_554 33_565
Cu3 Ba2 Cu1 39.04(2) 25_565 33_565
Cu3 Ba2 Cu1 97.053(17) 41_665 33_565
Cu3 Ba2 Cu1 74.202(17) 2_565 33_565
Cu3 Ba2 Cu1 74.202(17) . 33_565
Cu1 Ba2 Cu1 120.0 29_665 33_565
Cu3 Ba2 Cu1 97.053(17) 17 9
Cu3 Ba2 Cu1 74.202(17) 26 9
Cu3 Ba2 Cu1 97.053(17) 42_666 9
Cu3 Ba2 Cu1 157.84(2) 18_554 9
Cu3 Ba2 Cu1 74.202(17) 25_565 9
Cu3 Ba2 Cu1 157.84(2) 41_665 9
Cu3 Ba2 Cu1 39.04(2) 2_565 9
Cu3 Ba2 Cu1 39.04(2) . 9
Cu1 Ba2 Cu1 120.0 29_665 9
Cu1 Ba2 Cu1 90.0 33_565 9
Cu3 Cu1 Cu3 108.35(3) 45_666 5
Cu3 Cu1 Cu3 111.74(6) 45_666 46_656
Cu3 Cu1 Cu3 108.35(3) 5 46_656
Cu3 Cu1 Cu3 108.35(3) 45_666 6_556
Cu3 Cu1 Cu3 111.74(6) 5 6_556
Cu3 Cu1 Cu3 108.35(3) 46_656 6_556
Cu3 Cu1 Ba2 66.626(19) 45_666 33_656
Cu3 Cu1 Ba2 169.13(3) 5 33_656
Cu3 Cu1 Ba2 66.626(19) 46_656 33_656
Cu3 Cu1 Ba2 79.13(3) 6_556 33_656
Cu3 Cu1 Ba2 169.13(3) 45_666 29_556
Cu3 Cu1 Ba2 66.626(19) 5 29_556
Cu3 Cu1 Ba2 79.13(3) 46_656 29_556
Cu3 Cu1 Ba2 66.626(19) 6_556 29_556
Ba2 Cu1 Ba2 120.0 33_656 29_556
Cu3 Cu1 Ba2 66.626(19) 45_666 9
Cu3 Cu1 Ba2 79.13(3) 5 9
Cu3 Cu1 Ba2 66.626(19) 46_656 9
Cu3 Cu1 Ba2 169.13(3) 6_556 9
Ba2 Cu1 Ba2 90.0 33_656 9
Ba2 Cu1 Ba2 120.0 29_556 9
Cu3 Cu1 Ba2 79.13(3) 45_666 5
Cu3 Cu1 Ba2 66.626(19) 5 5
Cu3 Cu1 Ba2 169.13(3) 46_656 5
Cu3 Cu1 Ba2 66.626(19) 6_556 5
Ba2 Cu1 Ba2 120.0 33_656 5
Ba2 Cu1 Ba2 90.0 29_556 5
Ba2 Cu1 Ba2 120.0 9 5
Cu3 Zn1 Cu3 108.35(3) 45_666 5
Cu3 Zn1 Cu3 111.74(6) 45_666 46_656
Cu3 Zn1 Cu3 108.35(3) 5 46_656
Cu3 Zn1 Cu3 108.35(3) 45_666 6_556
Cu3 Zn1 Cu3 111.74(6) 5 6_556
Cu3 Zn1 Cu3 108.35(3) 46_656 6_556
Cu3 Zn1 Ba2 66.626(19) 45_666 33_656
Cu3 Zn1 Ba2 169.13(3) 5 33_656
Cu3 Zn1 Ba2 66.626(19) 46_656 33_656
Cu3 Zn1 Ba2 79.13(3) 6_556 33_656
Cu3 Zn1 Ba2 169.13(3) 45_666 29_556
Cu3 Zn1 Ba2 66.626(19) 5 29_556
Cu3 Zn1 Ba2 79.13(3) 46_656 29_556
Cu3 Zn1 Ba2 66.626(19) 6_556 29_556
Ba2 Zn1 Ba2 120.0 33_656 29_556
Cu3 Zn1 Ba2 66.626(19) 45_666 9
Cu3 Zn1 Ba2 79.13(3) 5 9
Cu3 Zn1 Ba2 66.626(19) 46_656 9
Cu3 Zn1 Ba2 169.13(3) 6_556 9
Ba2 Zn1 Ba2 90.0 33_656 9
Ba2 Zn1 Ba2 120.0 29_556 9
Cu3 Zn1 Ba2 79.13(3) 45_666 5
Cu3 Zn1 Ba2 66.626(19) 5 5
Cu3 Zn1 Ba2 169.13(3) 46_656 5
Cu3 Zn1 Ba2 66.626(19) 6_556 5
Ba2 Zn1 Ba2 120.0 33_656 5
Ba2 Zn1 Ba2 90.0 29_556 5
Ba2 Zn1 Ba2 120.0 9 5
Cu3 P1 Cu3 108.35(3) 45_666 5
Cu3 P1 Cu3 111.74(6) 45_666 46_656
Cu3 P1 Cu3 108.35(3) 5 46_656
Cu3 P1 Cu3 108.35(3) 45_666 6_556
Cu3 P1 Cu3 111.74(6) 5 6_556
Cu3 P1 Cu3 108.35(3) 46_656 6_556
Cu3 P1 Ba2 66.626(19) 45_666 33_656
Cu3 P1 Ba2 169.13(3) 5 33_656
Cu3 P1 Ba2 66.626(19) 46_656 33_656
Cu3 P1 Ba2 79.13(3) 6_556 33_656
Cu3 P1 Ba2 169.13(3) 45_666 29_556
Cu3 P1 Ba2 66.626(19) 5 29_556
Cu3 P1 Ba2 79.13(3) 46_656 29_556
Cu3 P1 Ba2 66.626(19) 6_556 29_556
Ba2 P1 Ba2 120.0 33_656 29_556
Cu3 P1 Ba2 66.626(19) 45_666 9
Cu3 P1 Ba2 79.13(3) 5 9
Cu3 P1 Ba2 66.626(19) 46_656 9
Cu3 P1 Ba2 169.13(3) 6_556 9
Ba2 P1 Ba2 90.0 33_656 9
Ba2 P1 Ba2 120.0 29_556 9
Cu3 P1 Ba2 79.13(3) 45_666 5
Cu3 P1 Ba2 66.626(19) 5 5
Cu3 P1 Ba2 169.13(3) 46_656 5
Cu3 P1 Ba2 66.626(19) 6_556 5
Ba2 P1 Ba2 120.0 33_656 5
Ba2 P1 Ba2 90.0 29_556 5
Ba2 P1 Ba2 120.0 9 5
Cu2 Cu2 Cu3 108.53(5) 14 .
Cu2 Cu2 Cu3 108.52(5) 14 9
Cu3 Cu2 Cu3 110.40(5) . 9
Cu2 Cu2 Cu3 108.52(5) 14 5
Cu3 Cu2 Cu3 110.40(5) . 5
Cu3 Cu2 Cu3 110.40(5) 9 5
Cu2 Cu2 Ba1 180.00(12) 14 .
Cu3 Cu2 Ba1 71.47(5) . .
Cu3 Cu2 Ba1 71.48(5) 9 .
Cu3 Cu2 Ba1 71.48(5) 5 .
Cu2 Cu2 Ba2 72.46(2) 14 .
Cu3 Cu2 Ba2 63.15(3) . .
Cu3 Cu2 Ba2 75.30(3) 9 .
Cu3 Cu2 Ba2 173.03(3) 5 .
Ba1 Cu2 Ba2 107.54(2) . .
Cu2 Cu2 Ba2 72.46(2) 14 9
Cu3 Cu2 Ba2 173.03(3) . 9
Cu3 Cu2 Ba2 63.15(3) 9 9
Cu3 Cu2 Ba2 75.30(3) 5 9
Ba1 Cu2 Ba2 107.54(2) . 9
Ba2 Cu2 Ba2 111.33(2) . 9
Cu2 Cu2 Ba2 72.46(2) 14 5
Cu3 Cu2 Ba2 75.30(3) . 5
Cu3 Cu2 Ba2 173.03(3) 9 5
Cu3 Cu2 Ba2 63.15(3) 5 5
Ba1 Cu2 Ba2 107.54(2) . 5
Ba2 Cu2 Ba2 111.33(2) . 5
Ba2 Cu2 Ba2 111.33(2) 9 5
Cu1 Cu3 Cu2 106.34(5) 9 28
Cu1 Cu3 Cu2 106.34(5) 9 .
Cu2 Cu3 Cu2 106.18(7) 28 .
Cu1 Cu3 Cu3 124.13(3) 9 26
Cu2 Cu3 Cu3 106.34(4) 28 26
Cu2 Cu3 Cu3 106.34(4) . 26
Cu1 Cu3 Ba1 167.16(5) 9 .
Cu2 Cu3 Ba1 66.90(5) 28 .
Cu2 Cu3 Ba1 66.91(5) . .
Cu3 Cu3 Ba1 68.71(2) 26 .
Cu1 Cu3 Ba2 74.33(3) 9 .
Cu2 Cu3 Ba2 174.14(4) 28 .
Cu2 Cu3 Ba2 78.97(2) . .
Cu3 Cu3 Ba2 69.104(19) 26 .
Ba1 Cu3 Ba2 113.57(3) . .
Cu1 Cu3 Ba2 74.33(3) 9 25_565
Cu2 Cu3 Ba2 78.97(2) 28 25_565
Cu2 Cu3 Ba2 174.14(4) . 25_565
Cu3 Cu3 Ba2 69.104(19) 26 25_565
Ba1 Cu3 Ba2 113.57(3) . 25_565
Ba2 Cu3 Ba2 95.75(3) . 25_565
Cu1 Cu3 Ba2 64.63(3) 9 5
Cu2 Cu3 Ba2 68.97(3) 28 5
Cu2 Cu3 Ba2 68.97(3) . 5
Cu3 Cu3 Ba2 171.239(18) 26 5
Ba1 Cu3 Ba2 102.53(3) . 5
Ba2 Cu3 Ba2 116.04(2) . 5
Ba2 Cu3 Ba2 116.04(2) 25_565 5
loop_
_geom_bond_atom_site_label_1
_geom_bond_atom_site_label_2
_geom_bond_distance
_geom_bond_site_symmetry_2
Ba1 Cu2 3.2148(17) 25
Ba1 Cu2 3.2148(17) 27
Ba1 Cu2 3.2148(17) 3
Ba1 Cu2 3.2148(17) 26
Ba1 Cu2 3.2148(17) 2
Ba1 Cu2 3.2148(17) 28
Ba1 Cu2 3.2148(17) 4
Ba1 Cu2 3.2148(17) .
Ba1 Cu3 3.3138(13) .
Ba2 Cu3 3.3733(9) 17
Ba2 Cu3 3.3733(9) 26
Ba2 Cu3 3.3733(9) 42_666
Ba2 Cu3 3.3733(9) 18_554
Ba2 Cu3 3.3733(9) 25_565
Ba2 Cu3 3.3733(9) 41_665
Ba2 Cu3 3.3733(9) 2_565
Ba2 Cu3 3.3733(9) .
Ba2 Cu1 3.5383(3) 29_665
Ba2 Cu1 3.5383(3) 33_565
Ba2 Cu1 3.5383(3) 9
Cu1 Cu3 2.3148(12) 45_666
Cu1 Cu3 2.3148(12) 5
Cu1 Cu3 2.3148(12) 46_656
Cu1 Cu3 2.3148(12) 6_556
Zn1 Cu3 2.3148(12) 45_666
Zn1 Cu3 2.3148(12) 5
Zn1 Cu3 2.3148(12) 46_656
Zn1 Cu3 2.3148(12) 6_556
P1 Cu3 2.3148(12) 45_666
P1 Cu3 2.3148(12) 5
P1 Cu3 2.3148(12) 46_656
P1 Cu3 2.3148(12) 6_556
Cu2 Cu2 2.237(3) 14
Cu2 Cu3 2.3212(9) .
Cu2 Cu3 2.3213(9) 9
Cu2 Cu3 2.3213(9) 5
Cu3 Cu3 2.406(2) 26
