#------------------------------------------------------------------------------
#$Date: 2019-11-22 22:43:20 +0200 (Fri, 22 Nov 2019) $
#$Revision: 231465 $
#$URL: file:///home/coder/svn-repositories/cod/cif/4/00/32/4003258.cif $
#------------------------------------------------------------------------------
#
# This file is available in the Crystallography Open Database (COD),
# http://www.crystallography.net/
#
# All data on this site have been placed in the public domain by the
# contributors.
#
data_4003258
loop_
_publ_author_name
'Turrina, Alessandro'
'Garcia, Raquel'
'Cox, Paul A.'
'Casci, John L.'
'Wright, Paul A.'
_publ_section_title
;
 Retrosynthetic Co-Templating Method for the Preparation of
 Silicoaluminophosphate Molecular Sieves
;
_journal_issue                   14
_journal_name_full               'Chemistry of Materials'
_journal_page_first              4998
_journal_paper_doi               10.1021/acs.chemmater.6b01676
_journal_volume                  28
_journal_year                    2016
_chemical_formula_moiety         'Al12 Si3.6 P8.4 O48'
_chemical_formula_sum            'Al12 O48 P8.4 Si3.6'
_chemical_formula_weight         1453.03
_chemical_name_common            'SAPO GME calcined dehydrated'
_space_group_IT_number           163
_space_group_name_Hall           '-P 3 2c'
_space_group_name_H-M_alt        'P -3 1 c'
_symmetry_cell_setting           trigonal
_symmetry_space_group_name_Hall  '-P 3 2c'
_symmetry_space_group_name_H-M   'P -3 1 c'
_audit_creation_date             2015-03-24T18:25
_audit_creation_method           'from EXP file using GSAS2CIF'
_audit_update_record
' 2015-03-24T18:25  Initial CIF as created by GSAS2CIF'
_cell_angle_alpha                90.0
_cell_angle_beta                 90.0
_cell_angle_gamma                120.0
_cell_formula_units_Z            1
_cell_length_a                   13.8077(5)
_cell_length_b                   13.8077
_cell_length_c                   9.9138(5)
_cell_measurement_temperature    295
_cell_volume                     1636.87(10)
_computing_structure_refinement  GSAS
_diffrn_ambient_temperature      295
_diffrn_detector                 'Linear PSD'
_diffrn_radiation_polarisn_ratio 0.55
_diffrn_radiation_probe          x-ray
_diffrn_radiation_wavelength     1.54056
_diffrn_source                   X-ray
_exptl_absorpt_coefficient_mu    5.163
_exptl_absorpt_correction_T_max  1.00000
_exptl_absorpt_correction_T_min  1.00000
_exptl_absorpt_process_details
;   GSAS Absorption/surface roughness correction: function number 0
 No correction is applied.
;
_exptl_crystal_density_diffrn    1.474
_exptl_crystal_F_000             716.4
_pd_block_id
2015-03-24T18:25|SAPO-GME_calcined|Stoe_STADI_P01
_pd_calc_method                  'Rietveld Refinement'
_pd_char_colour                  white
_pd_instr_location               ' ?'
_pd_meas_2theta_range_inc        0.01
_pd_meas_2theta_range_max        79.99
_pd_meas_2theta_range_min        3.0
_pd_meas_number_of_points        7700
_pd_phase_name                   'from C:/gsas/PhD/GME/S819_calc_2/START.cif'
_pd_proc_2theta_range_inc        0.01
_pd_proc_2theta_range_max        79.99
_pd_proc_2theta_range_min        3.0
_pd_proc_info_datetime           2015-03-24T18:25:11
_pd_proc_info_excluded_regions   ' ?'
_pd_proc_ls_background_function
;   GSAS Background function number 1 with 26 terms.
 Shifted Chebyshev function of 1st kind
      1:    570.812     2:   -456.631     3:    113.012     4:    74.2735    
      5:   -69.2110     6:   -59.4437     7:    114.538     8:   -75.7571    
      9:  -0.181507    10:    52.1859    11:   -44.2113    12:   -7.51942    
     13:    40.8125    14:   -48.4212    15:    27.2336    16:  -0.859033    
     17:   -13.3135    18:    6.59384    19:    6.87684    20:   -14.1414    
     21:    2.57431    22:    8.56599    23:   -14.9832    24:    10.1854    
     25:   -2.81875    26:   -1.94199    
;
_pd_proc_ls_peak_cutoff          0.00100
_pd_proc_ls_profile_function
;
 CW Profile function number 4 with  16 terms
 Pseudovoigt profile coefficients as parameterized in
 P. Thompson, D.E. Cox & J.B. Hastings (1987). J. Appl. Cryst.,20,79-83.
 Asymmetry correction of L.W. Finger, D.E. Cox & A. P. Jephcoat (1994).
 J. Appl. Cryst.,27,892-900.
 Microstrain broadening by P.W. Stephens,  (1999). J. Appl. Cryst.,32,281-289.
 #1(GU)   = 1463.700 #2(GV)   = -361.109 #3(GW)   =   41.893
 #4(GP)   =    0.000 #5(LX)   =   13.016 #6(ptec) =     0.00
 #7(trns) =     0.00 #8(shft) =  -2.5346 #9(sfec) =     0.00
 #10(S/L) =   0.0169 #11(H/L) =   0.0212 #12(eta) =   0.0000
 #13(S400 ) =  0.0E+00 #14(S004 ) =  9.9E-02
 #15(S202 ) = -5.7E-02 #16(S211 ) =  0.0E+00
 Peak tails are ignored  where the intensity is below 0.0010 times the peak
   Aniso. broadening axis   0.0   0.0   1.0
;
_pd_proc_ls_prof_R_factor        0.0413
_pd_proc_ls_prof_wR_expected     0.0385
_pd_proc_ls_prof_wR_factor       0.0534
_pd_proc_number_of_points        7700
_pd_spec_mounting                ' ?'
_refine_ls_goodness_of_fit_all   1.41
_refine_ls_matrix_type           full
_refine_ls_number_parameters     52
_refine_ls_number_restraints     8
_refine_ls_R_Fsqd_factor         0.06231
_refine_ls_shift/su_max          0.04
_refine_ls_shift/su_mean         0.01
_reflns_d_resolution_high        1.200
_reflns_d_resolution_low         11.958
_reflns_limit_h_max              10
_reflns_limit_h_min              0
_reflns_limit_k_max              5
_reflns_limit_k_min              0
_reflns_limit_l_max              8
_reflns_limit_l_min              -8
_reflns_number_total             342
_cod_data_source_file            cm6b01676_si_001.cif
_cod_data_source_block           SAPO-GME_calcined_publ
_cod_depositor_comments
;
The following automatic conversions were performed:

data item '_geom_angle_publ_flag' value 'N' was changed to 'n' in
accordance with the
/home/saulius/struct/COD-crude-data/automatic-downloads/DataCite-retrospective/ACS/depositions/lib/dictionaries/cif_core.dic
dictionary named 'cif_core.dic' version 2.4.2 last updated on
2011-04-26 (30 times).

data item '_geom_bond_publ_flag' value 'N' was changed to 'n' in
accordance with the
/home/saulius/struct/COD-crude-data/automatic-downloads/DataCite-retrospective/ACS/depositions/lib/dictionaries/cif_core.dic
dictionary named 'cif_core.dic' version 2.4.2 last updated on
2011-04-26 (28 times).

Automatic conversion script
Id: cif_fix_values 6909 2019-04-08 15:41:33Z antanas 
;
_cod_original_cell_volume        1636.86(15)
_cod_original_formula_sum        'Al12 O48 P8.40 Si3.60'
_cod_database_code               4003258
_gsas_exptl_extinct_corr_t_min   1.00000
_gsas_exptl_extinct_corr_t_max   1.00000
loop_
_symmetry_equiv_pos_site_id
_symmetry_equiv_pos_as_xyz
1 +x,+y,+z
2 -y,x-y,+z
3 y-x,-x,+z
4 +y,+x,+z+1/2
5 -x,y-x,+z+1/2
6 x-y,-y,+z+1/2
-1 -x,-y,-z
-2 +y,y-x,-z
-3 x-y,+x,-z
-4 -y,-x,-z+1/2
-5 +x,x-y,-z+1/2
-6 y-x,+y,-z+1/2
loop_
_atom_site_type_symbol
_atom_site_label
_atom_site_fract_x
_atom_site_fract_y
_atom_site_fract_z
_atom_site_occupancy
_atom_site_thermal_displace_type
_atom_site_U_iso_or_equiv
_atom_site_symmetry_multiplicity
Al Al1 0.4409(6) 0.1069(6) 0.0852(7) 1.0 Uiso 0.0156(12) 12
O O1 0.7710(6) 0.2000(7) 0.0498(11) 1.0 Uiso 0.0129(21) 12
O O2 0.5575(7) 0.4158(8) 0.0646(11) 1.0 Uiso 0.0129(21) 12
O O3 0.4114(7) 0.0758(8) 0.2540(9) 1.0 Uiso 0.0129(21) 12
O O4 0.3597(7) 0.3389(11) -0.0151(11) 1.0 Uiso 0.0129(21) 12
P P1 -0.4343(4) -0.1000(4) 0.5959(4) 0.7 Uiso 0.0156(12) 12
Si Si1 -0.4343(4) -0.1000(4) 0.5959(4) 0.3 Uiso 0.0156(12) 12
loop_
_atom_type_symbol
_atom_type_number_in_cell
_atom_type_scat_dispersion_real
_atom_type_scat_dispersion_imag
_atom_type_scat_Cromer_Mann_a1
_atom_type_scat_Cromer_Mann_a2
_atom_type_scat_Cromer_Mann_a3
_atom_type_scat_Cromer_Mann_a4
_atom_type_scat_Cromer_Mann_b1
_atom_type_scat_Cromer_Mann_b2
_atom_type_scat_Cromer_Mann_b3
_atom_type_scat_Cromer_Mann_b4
_atom_type_scat_Cromer_Mann_c
_atom_type_scat_source
Al 12.0 0.000 0.000 6.42020 3.03870 1.90020 0.74260 1.59360 31.5472 1.96460
85.0886 1.11510 International_Tables_Vol_C
O 48.0 0.000 0.000 3.04850 13.2771 2.28680 5.70110 1.54630 0.32390 0.86700
32.9089 0.25080 International_Tables_Vol_C
P 8.4 0.000 0.000 6.43450 1.90670 4.17910 27.1570 1.78000 0.52600 1.49080
68.1645 1.11490 International_Tables_Vol_C
Si 3.6 0.000 0.000 6.29150 2.43860 3.03530 32.3337 1.98910 0.67850 1.54100
81.6937 1.14070 International_Tables_Vol_C
loop_
_geom_angle_atom_site_label_1
_geom_angle_atom_site_label_2
_geom_angle_atom_site_label_3
_geom_angle
_geom_angle_site_symmetry_1
_geom_angle_site_symmetry_3
_geom_angle_publ_flag
O1 Al1 O2 109.2(6) 3_665 2_655 n
O1 Al1 O3 107.5(7) 3_665 1_555 n
O1 Al1 O4 117.2(5) 3_665 -2_555 n
O2 Al1 O3 105.6(7) 2_655 1_555 n
O2 Al1 O4 116.4(6) 2_655 -2_555 n
O3 Al1 O4 99.4(7) 1_555 -2_555 n
Al1 O1 P1 150.1(8) 2_655 6_654 n
Al1 O1 Si1 150.1(8) 2_655 6_654 n
P1 O1 Si1 0.0 6_654 6_654 n
Al1 O2 P1 142.5(6) 3_665 5_554 n
Al1 O2 Si1 142.5(6) 3_665 5_554 n
P1 O2 Si1 0.0 5_554 5_554 n
Al1 O3 P1 153.6(7) 1_555 -1_556 n
Al1 O3 Si1 153.6(7) 1_555 -1_556 n
P1 O3 Si1 0.0 -1_556 -1_556 n
Al1 O4 P1 136.7(10) -3_555 5_554 n
Al1 O4 Si1 136.7(10) -3_555 5_554 n
P1 O4 Si1 0.0 5_554 5_554 n
O1 P1 O2 98.6(5) 6_455 5_555 n
O1 P1 O3 113.7(5) 6_455 -1_556 n
O1 P1 O4 96.6(6) 6_455 5_555 n
O2 P1 O3 110.5(5) 5_555 -1_556 n
O2 P1 O4 110.3(6) 5_555 5_555 n
O3 P1 O4 123.6(7) -1_556 5_555 n
O1 Si1 O2 98.6(5) 6_455 5_555 n
O1 Si1 O3 113.7(5) 6_455 -1_556 n
O1 Si1 O4 96.6(6) 6_455 5_555 n
O2 Si1 O3 110.5(5) 5_555 -1_556 n
O2 Si1 O4 110.3(6) 5_555 5_555 n
O3 Si1 O4 123.6(7) -1_556 5_555 n
loop_
_geom_bond_atom_site_label_1
_geom_bond_atom_site_label_2
_geom_bond_distance
_geom_bond_site_symmetry_2
_geom_bond_publ_flag
Al1 O1 1.808(12) 3_665 n
Al1 O2 1.799(12) 2_655 n
Al1 O3 1.724(7) 1_555 n
Al1 O4 1.758(14) -2_555 n
Al1 P1 3.058(7) -6_555 n
Al1 Si1 3.058(7) -6_555 n
O1 Al1 1.808(12) 2_655 n
O1 P1 1.490(8) 6_654 n
O1 Si1 1.490(8) 6_654 n
O2 Al1 1.799(12) 3_665 n
O2 P1 1.530(8) 5_554 n
O2 Si1 1.530(8) 5_554 n
O3 Al1 1.724(7) 1_555 n
O3 P1 1.524(7) -1_556 n
O3 Si1 1.524(7) -1_556 n
O4 Al1 1.758(14) -3_555 n
O4 P1 1.530(8) 5_554 n
O4 Si1 1.530(8) 5_554 n
P1 Al1 3.058(7) -6_555 n
P1 O1 1.490(8) 6_455 n
P1 O2 1.530(8) 5_555 n
P1 O3 1.524(7) -1_556 n
P1 O4 1.530(8) 5_555 n
Si1 Al1 3.058(7) -6_555 n
Si1 O1 1.490(8) 6_455 n
Si1 O2 1.530(8) 5_555 n
Si1 O3 1.524(7) -1_556 n
Si1 O4 1.530(8) 5_555 n
loop_
_pd_meas_counts_total
_pd_proc_ls_weight
_pd_proc_intensity_bkg_calc
_pd_calc_intensity_total
3028.0 0.0 -3988.03052 .
2935.0 0.0 -3863.07251 .
2922.0 0.0 -3740.49951 .
2839.0 0.0 -3620.27563 .
2813.0 0.0 -3502.36621 .
2912.0 0.0 -3386.73022 .
2871.0 0.0 -3273.33423 .
2786.0 0.0 -3162.14990 .
2765.0 0.0 -3053.13232 .
2682.0 0.0 -2946.25415 .
2729.0 0.0 -2841.48340 .
2669.0 0.0 -2738.78052 .
2688.0 0.0 -2638.12012 .
2663.0 0.0 -2539.46826 .
2660.0 0.0 -2442.79102 .
2662.0 0.0 -2348.05664 .
2762.0 0.0 -2255.23975 .
2594.0 0.0 -2164.30396 .
2518.0 0.0 -2075.22192 .
2487.0 0.0 -1987.96252 .
2538.0 0.0 -1902.49841 .
2472.0 0.0 -1818.79871 .
2545.0 0.0 -1736.83472 .
2440.0 0.0 -1656.57874 .
2491.0 0.0 -1578.00623 .
2369.0 0.0 -1501.08496 .
2403.0 0.0 -1425.78882 .
2339.0 0.0 -1352.09412 .
2352.0 0.0 -1279.97107 .
2328.0 0.0 -1209.39648 .
2352.0 0.0 -1140.34204 .
2336.0 0.0 -1072.78284 .
2257.0 0.0 -1006.69818 .
2329.0 0.0 -942.05725 .
2253.0 0.0 -878.83661 .
2401.0 0.0 -817.01862 .
2232.0 0.0 -756.57373 .
2224.0 0.0 -697.47870 .
2184.0 0.0 -639.70966 .
2139.0 0.0 -583.25024 .
2193.0 0.0 -528.07245 .
2132.0 0.0 -474.15625 .
2144.0 0.0 -421.47928 .
2076.0 0.0 -370.01926 .
2165.0 0.0 -319.75674 .
2118.0 0.0 -270.67026 .
2040.0 0.0 -222.73862 .
2046.0 0.0 -175.94150 .
2047.0 0.0 -130.26001 .
2016.0 0.0 -85.67311 .
2054.0 0.0 -42.16179 .
2050.0 0.0 0.29385 .
2049.0 0.0 41.71066 .
1988.0 0.0 82.10961 .
2003.0 0.0 121.50835 .
1991.0 0.0 159.92249 .
1971.0 0.0 197.37505 .
1924.0 0.0 233.87927 .
1904.0 0.0 269.45441 .
1888.0 0.0 304.11621 .
1858.0 0.0 337.88373 .
1900.0 0.0 370.77255 .
1913.0 0.0 402.79761 .
1895.0 0.0 433.97766 .
1813.0 0.0 464.32654 .
1901.0 0.0 493.86014 .
1878.0 0.0 522.59534 .
1749.0 0.0 550.54596 .
1829.0 0.0 577.72742 .
1834.0 0.0 604.15442 .
1873.0 0.0 629.84161 .
1785.0 0.0 654.80438 .
1868.0 0.0 679.05450 .
1835.0 0.0 702.60785 .
1790.0 0.0 725.47723 .
1808.0 0.0 747.67639 .
1751.0 0.0 769.21936 .
1715.0 0.0 790.11749 .
1703.0 0.0 810.38501 .
1731.0 0.0 830.03394 .
1708.0 0.0 849.07788 .
1692.0 0.0 867.52759 .
1717.0 0.0 885.39697 .
1630.0 0.0 902.69659 .
1714.0 0.0 919.43866 .
1678.0 0.0 935.63483 .
1656.0 0.0 951.29559 .
1689.0 0.0 966.43359 .
1638.0 0.0 981.05963 .
1617.0 0.0 995.18359 .
1590.0 0.0 1008.81635 .
1566.0 0.0 1021.96912 .
1649.0 0.0 1034.65186 .
1575.0 0.0 1046.87512 .
1624.0 0.0 1058.64856 .
1620.0 0.0 1069.98169 .
1523.0 0.0 1080.88538 .
1515.0 0.0 1091.36804 .
1514.0 0.0 1101.43945 .
1564.0 0.0 1111.10913 .
1500.0 0.0 1120.38574 .
1549.0 0.0 1129.27881 .
1526.0 0.0 1137.79602 .
1600.0 0.0 1145.94727 .
1501.0 0.0 1153.74060 .
1568.0 0.0 1161.18396 .
1556.0 0.0 1168.28625 .
1495.0 0.0 1175.05542 .
1539.0 0.0 1181.49890 .
1501.0 0.0 1187.62524 .
1436.0 0.0 1193.44104 .
1407.0 0.0 1198.95569 .
1548.0 0.0 1204.17468 .
1511.0 0.0 1209.10657 .
1430.0 0.0 1213.75793 .
1462.0 0.0 1218.13611 .
1382.0 0.0 1222.24780 .
1471.0 0.0 1226.09998 .
1448.0 0.0 1229.69922 .
1363.0 0.0 1233.05237 .
1396.0 0.0 1236.16565 .
1416.0 0.0 1239.04529 .
1380.0 0.0 1241.69788 .
1398.0 0.0 1244.12915 .
1446.0 0.0 1246.34521 .
1399.0 0.0 1248.35229 .
1414.0 0.0 1250.15576 .
1392.0 0.0 1251.76135 .
1359.0 0.0 1253.17517 .
1318.0 0.0 1254.40198 .
1363.0 0.0 1255.44763 .
1384.0 0.0 1256.31714 .
1402.0 0.0 1257.01599 .
1324.0 0.0 1257.54883 .
1379.0 0.0 1257.92102 .
1362.0 0.0 1258.13745 .
1293.0 0.0 1258.20251 .
1366.0 0.0 1258.12158 .
1327.0 0.0 1257.89856 .
1261.0 0.0 1257.53857 .
1337.0 0.0 1257.04578 .
1332.0 0.0 1256.42456 .
1283.0 0.0 1255.67920 .
1335.0 0.0 1254.81409 .
1317.0 0.0 1253.83289 .
1265.0 0.0 1252.74011 .
1307.0 0.0 1251.53931 .
1272.0 0.0 1250.23462 .
1225.0 0.0 1248.82971 .
1281.0 0.0 1247.32825 .
1256.0 0.0 1245.73389 .
1271.0 0.000787 1244.05029 1251.62317
1225.0 0.000816 1242.28076 1249.90723
1260.0 0.000794 1240.42896 1248.10962
1310.0 0.000763 1238.49805 1246.23352
1256.0 0.000796 1236.49121 1244.28198
1304.0 0.000767 1234.41199 1242.25879
1276.0 0.000784 1232.26306 1240.16638
1200.0 0.000833 1230.04797 1238.00854
1224.0 0.000817 1227.76941 1235.78772
1256.0 0.000796 1225.43042 1233.50720
1213.0 0.000824 1223.03345 1231.16931
1210.0 0.000826 1220.58215 1228.77771
1219.0 0.000820 1218.07861 1226.33472
1263.0 0.000792 1215.52576 1223.84302
1262.0 0.000792 1212.92615 1221.30505
1233.0 0.000811 1210.28247 1218.72388
1206.0 0.000829 1207.59680 1216.10144
1201.0 0.000833 1204.87219 1213.44080
1188.0 0.000842 1202.11072 1210.74377
1203.0 0.000831 1199.31470 1208.01318
1138.0 0.000879 1196.48633 1205.25098
1218.0 0.000821 1193.62817 1202.45972
1131.0 0.000884 1190.74194 1199.64111
1190.0 0.000840 1187.83032 1196.79785
1235.0 0.000810 1184.89478 1193.93152
1192.0 0.000839 1181.93750 1191.04431
1169.0 0.000855 1178.96082 1188.13831
1210.0 0.000826 1175.96631 1185.21545
1138.0 0.000879 1172.95581 1182.27771
1199.0 0.000834 1169.93140 1179.32654
1211.0 0.000826 1166.89465 1176.36414
1219.0 0.000820 1163.84741 1173.39197
1185.0 0.000844 1160.79138 1170.41199
1165.0 0.000858 1157.72791 1167.42542
1105.0 0.000905 1154.65894 1164.43433
1178.0 0.000849 1151.58569 1161.43994
1164.0 0.000859 1148.51013 1158.44409
1126.0 0.000888 1145.43335 1155.44812
1142.0 0.000876 1142.35693 1152.45337
1086.0 0.000921 1139.28210 1149.46130
1134.0 0.000882 1136.21057 1146.47363
1142.0 0.000876 1133.14319 1143.49097
1122.0 0.000891 1130.08154 1140.51526
1107.0 0.000903 1127.02649 1137.54712
1154.0 0.000867 1123.97986 1134.58850
1159.0 0.000863 1120.94226 1131.64001
1064.0 0.000940 1117.91516 1128.70325
1125.0 0.000889 1114.89929 1125.77881
1102.0 0.000907 1111.89612 1122.86816
1093.0 0.000915 1108.90637 1119.97217
1039.0 0.000962 1105.93103 1117.09180
1106.0 0.000904 1102.97144 1114.22839
1124.0 0.000890 1100.02783 1111.38232
1102.0 0.000907 1097.10181 1108.55493
1100.0 0.000909 1094.19373 1105.74707
1128.0 0.000887 1091.30481 1102.95947
1044.0 0.000958 1088.43555 1100.19275
1084.0 0.000923 1085.58691 1097.44812
1079.0 0.000927 1082.75940 1094.72607
1122.0 0.000891 1079.95410 1092.02759
1084.0 0.000923 1077.17139 1089.35315
1026.0 0.000975 1074.41211 1086.70361
1068.0 0.000936 1071.67664 1084.07947
1133.0 0.000883 1068.96594 1081.48157
1092.0 0.000916 1066.28040 1078.91028
1079.0 0.000927 1063.62061 1076.36646
1039.0 0.000962 1060.98706 1073.85034
1044.0 0.000958 1058.38037 1071.36279
1101.0 0.000908 1055.80090 1068.90405
1069.0 0.000935 1053.24927 1066.47485
1061.0 0.000943 1050.72571 1064.07544
1089.0 0.000918 1048.23083 1061.70654
1097.0 0.000912 1045.76489 1059.36829
1051.0 0.000951 1043.32849 1057.06152
1055.0 0.000948 1040.92163 1054.78601
1098.0 0.000911 1038.54480 1052.54248
1051.0 0.000951 1036.19849 1050.33154
1078.0 0.000928 1033.88281 1048.15308
1023.0 0.000978 1031.59827 1046.00769
1057.0 0.000946 1029.34485 1043.89551
1037.0 0.000964 1027.12292 1041.81714
996.0 0.001004 1024.93250 1039.77222
1073.0 0.000932 1022.77423 1037.76147
1043.0 0.000959 1020.64783 1035.78503
1052.0 0.000951 1018.55383 1033.84326
1073.0 0.000932 1016.49213 1031.93591
1008.0 0.000992 1014.46307 1030.06372
1065.0 0.000939 1012.46661 1028.22644
1004.0 0.000996 1010.50305 1026.42456
993.0 0.001007 1008.57227 1024.65796
1059.0 0.000944 1006.67438 1022.92676
1014.0 0.000986 1004.80945 1021.23120
998.0 0.001002 1002.97772 1019.57147
1054.0 0.000949 1001.17902 1017.94745
1052.0 0.000951 999.41351 1016.35944
1015.0 0.000985 997.68109 1014.80731
1034.0 0.000967 995.98187 1013.29132
1028.0 0.000973 994.31567 1011.81128
1043.0 0.000959 992.68268 1010.36749
1033.0 0.000968 991.08264 1008.95966
1005.0 0.000995 989.51556 1007.58801
1066.0 0.000938 987.98157 1006.25269
1060.0 0.000943 986.48041 1004.95355
1065.0 0.000939 985.01202 1003.69037
1055.0 0.000948 983.57629 1002.46350
1055.0 0.000948 982.17322 1001.27271
1030.0 0.000971 980.80255 1000.11792
1016.0 0.000984 979.46436 998.99927
989.0 0.001011 978.15833 997.91656
1013.0 0.000987 976.88452 996.86987
997.0 0.001003 975.64246 995.85901
1064.0 0.000940 974.43237 994.88409
1032.0 0.000969 973.25391 993.94489
1021.0 0.000979 972.10681 993.04132
957.0 0.001045 970.99103 992.17340
1073.0 0.000932 969.90637 991.34106
1046.0 0.000956 968.85260 990.54401
1027.0 0.000974 967.82947 989.78241
1023.0 0.000978 966.83685 989.05603
987.0 0.001013 965.87451 988.36481
975.0 0.001026 964.94226 987.70856
996.0 0.001004 964.03986 987.08746
994.0 0.001006 963.16705 986.50104
976.0 0.001025 962.32349 985.94940
971.0 0.001030 961.50909 985.43231
972.0 0.001029 960.72351 984.94977
992.0 0.001008 959.96661 984.50171
1000.0 0.001000 959.23810 984.08789
994.0 0.001006 958.53760 983.70825
978.0 0.001022 957.86493 983.36279
999.0 0.001001 957.21979 983.05121
1034.0 0.000967 956.60199 982.77350
987.0 0.001013 956.01111 982.52954
997.0 0.001003 955.44696 982.31921
1027.0 0.000974 954.90918 982.14246
969.0 0.001032 954.39758 981.99921
991.0 0.001009 953.91180 981.88922
948.0 0.001055 953.45148 981.81256
979.0 0.001021 953.01648 981.76910
1007.0 0.000993 952.60626 981.75867
964.0 0.001037 952.22083 981.78125
969.0 0.001032 951.85956 981.83679
974.0 0.001027 951.52240 981.92529
990.0 0.001010 951.20880 982.04651
960.0 0.001042 950.91864 982.20056
953.0 0.001049 950.65149 982.38733
975.0 0.001026 950.40710 982.60681
986.0 0.001014 950.18512 982.85889
946.0 0.001057 949.98517 983.14362
1019.0 0.000981 949.80707 983.46106
1001.0 0.000999 949.65027 983.81104
1045.0 0.000957 949.51459 984.19366
987.0 0.001013 949.39972 984.60901
977.0 0.001024 949.30530 985.05713
957.0 0.001045 949.23096 985.53790
972.0 0.001029 949.17645 986.05157
974.0 0.001027 949.14130 986.59808
983.0 0.001017 949.12531 987.17767
1000.0 0.001000 949.12811 987.79034
910.0 0.001099 949.14935 988.43628
1003.0 0.000997 949.18872 989.11566
997.0 0.001003 949.24591 989.82861
996.0 0.001004 949.32043 990.57532
995.0 0.001005 949.41217 991.35596
937.0 0.001067 949.52069 992.17090
993.0 0.001007 949.64557 993.02020
1029.0 0.000972 949.78662 993.90442
1005.0 0.000995 949.94348 994.82361
953.0 0.001049 950.11578 995.77826
1000.0 0.001000 950.30316 996.76880
948.0 0.001055 950.50537 997.79541
977.0 0.001024 950.72198 998.85870
949.0 0.001054 950.95276 999.95911
1008.0 0.000992 951.19733 1001.09717
996.0 0.001004 951.45538 1002.27344
937.0 0.001067 951.72662 1003.48846
976.0 0.001025 952.01062 1004.74298
1001.0 0.000999 952.30713 1006.03760
979.0 0.001021 952.61584 1007.37305
969.0 0.001032 952.93640 1008.75012
989.0 0.001011 953.26843 1010.16968
910.0 0.001099 953.61176 1011.63269
984.0 0.001016 953.96594 1013.14008
999.0 0.001001 954.33075 1014.69281
1008.0 0.000992 954.70575 1016.29205
1025.0 0.000976 955.09082 1017.93915
942.0 0.001062 955.48541 1019.63501
1005.0 0.000995 955.88940 1021.38123
999.0 0.001001 956.30237 1023.17926
1019.0 0.000981 956.72412 1025.03052
971.0 0.001030 957.15424 1026.93677
974.0 0.001027 957.59253 1028.89954
984.0 0.001016 958.03864 1030.92090
1023.0 0.000978 958.49225 1033.00281
1037.0 0.000964 958.95306 1035.14734
1014.0 0.000986 959.42084 1037.35669
1025.0 0.000976 959.89526 1039.63330
961.0 0.001041 960.37604 1041.97998
960.0 0.001042 960.86285 1044.39917
995.0 0.001005 961.35547 1046.89392
990.0 0.001010 961.85364 1049.46741
1012.0 0.000988 962.35699 1052.12280
963.0 0.001038 962.86523 1054.86389
1010.0 0.000990 963.37817 1057.69458
1027.0 0.000974 963.89551 1060.61865
1024.0 0.000977 964.41693 1063.64075
1007.0 0.000993 964.94226 1066.76563
1000.0 0.001000 965.47119 1069.99817
1022.0 0.000978 966.00348 1073.34375
1030.0 0.000971 966.53876 1076.80835
1005.0 0.000995 967.07690 1080.39807
1041.0 0.000961 967.61755 1084.11975
985.0 0.001015 968.16058 1087.98047
1012.0 0.000988 968.70557 1091.98816
1052.0 0.000951 969.25244 1096.15100
1050.0 0.000952 969.80084 1100.47815
1005.0 0.000995 970.35065 1104.97949
1053.0 0.000950 970.90143 1109.66541
1056.0 0.000947 971.45306 1114.54724
1055.0 0.000948 972.00531 1119.63770
1063.0 0.000941 972.55798 1124.94995
1036.0 0.000965 973.11078 1130.49866
1109.0 0.000902 973.66351 1136.30005
1077.0 0.000929 974.21594 1142.37109
1155.0 0.000866 974.76788 1148.73120
1152.0 0.000868 975.31909 1155.40125
1102.0 0.000907 975.86932 1162.40430
1163.0 0.000860 976.41846 1169.76611
1164.0 0.000859 976.96619 1177.51514
1159.0 0.000863 977.51239 1185.68335
1176.0 0.000850 978.05676 1194.30701
1234.0 0.000810 978.59918 1203.42725
1228.0 0.000814 979.13940 1213.09094
1232.0 0.000812 979.67731 1223.35254
1234.0 0.000810 980.21265 1234.27466
1334.0 0.000750 980.74524 1245.93079
1337.0 0.000748 981.27484 1258.40649
1232.0 0.000812 981.80139 1271.80273
1320.0 0.000758 982.32465 1286.23706
1334.0 0.000750 982.84436 1301.84802
1349.0 0.000741 983.36053 1318.79663
1434.0 0.000697 983.87280 1337.27039
1440.0 0.000694 984.38116 1357.48511
1506.0 0.000664 984.88538 1379.68884
1533.0 0.000652 985.38519 1404.16296
1610.0 0.000621 985.88062 1431.22498
1608.0 0.000622 986.37134 1461.22961
1662.0 0.000602 986.85736 1494.57007
1719.0 0.000582 987.33838 1531.67847
1792.0 0.000558 987.81433 1573.02588
1857.0 0.000539 988.28497 1619.12170
1912.0 0.000523 988.75037 1670.51208
1957.0 0.000511 989.21014 1727.77600
2061.0 0.000485 989.66425 1791.51831
2156.0 0.000464 990.11267 1862.35803
2192.0 0.000456 990.55511 1940.90820
2252.0 0.000444 990.99152 2027.74841
2351.0 0.000425 991.42169 2123.38745
2526.0 0.000396 991.84558 2228.22534
2531.0 0.000395 992.26306 2342.52783
2740.0 0.000365 992.67401 2466.43628
2838.0 0.000352 993.07831 2600.04492
2939.0 0.0003403 993.47583 2743.55371
3160.0 0.0003165 993.86639 2897.47705
3252.0 0.0003075 994.25006 3062.83203
3399.0 0.0002942 994.62653 3241.20605
3531.0 0.0002832 994.99591 3434.62842
3720.0 0.0002688 995.35791 3645.24561
3831.0 0.0002610 995.71252 3874.87891
4104.0 0.0002437 996.05963 4124.56641
4360.0 0.0002294 996.39917 4394.21094
4482.0 0.0002231 996.73108 4682.40869
4725.0 0.0002116 997.05518 4986.55713
5128.0 0.0001950 997.37140 5303.27734
5449.0 0.0001835 997.67975 5629.07813
5701.0 0.0001754 997.98004 5961.03174
6029.0 0.0001659 998.27228 6297.09766
6262.0 0.0001597 998.55640 6635.81885
6724.0 0.0001487 998.83221 6975.38623
6893.0 0.0001451 999.09973 7312.39941
7281.0 0.0001373 999.35889 7640.81592
7511.0 0.0001331 999.60962 7951.54590
7853.0 0.0001273 999.85181 8232.90723
8027.0 0.0001246 1000.08545 8471.82129
8243.0 0.0001213 1000.31049 8655.29688
8340.0 0.0001199 1000.52686 8771.68848
8435.0 0.0001186 1000.73444 8811.44824
8598.0 0.0001163 1000.93329 8767.60352
8358.0 0.0001196 1001.12329 8636.43750
8212.0 0.0001218 1001.30450 8418.57227
7978.0 0.0001253 1001.47668 8119.98975
7567.0 0.0001322 1001.63995 7752.19580
7167.0 0.0001395 1001.79419 7331.06299
6821.0 0.0001466 1001.93939 6874.65674
6493.0 0.0001540 1002.07556 6400.84473
5888.0 0.0001698 1002.20264 5925.44189
5591.0 0.0001789 1002.32050 5461.21924
5020.0 0.0001992 1002.42920 5017.68896
4569.0 0.0002189 1002.52875 4601.38330
4394.0 0.0002276 1002.61902 4216.34766
4030.0 0.0002481 1002.70001 3864.66284
3773.0 0.0002650 1002.77179 3546.90942
3459.0 0.0002891 1002.83429 3262.54761
3288.0 0.0003041 1002.88751 3010.21729
3002.0 0.0003331 1002.93134 2787.97900
2902.0 0.0003446 1002.96588 2593.50854
2639.0 0.000379 1002.99109 2424.25708
2490.0 0.000402 1003.00690 2277.58105
2336.0 0.000428 1003.01337 2150.85083
2327.0 0.000430 1003.01044 2041.53455
2225.0 0.000449 1002.99817 1947.25916
2067.0 0.000484 1002.97650 1865.85388
2042.0 0.000490 1002.94550 1795.37476
1957.0 0.000511 1002.90509 1734.11316
1949.0 0.000513 1002.85529 1680.59277
1871.0 0.000534 1002.79614 1633.55774
1759.0 0.000569 1002.72760 1591.95288
1817.0 0.000550 1002.64978 1554.90210
1739.0 0.000575 1002.56256 1521.68457
1703.0 0.000587 1002.46600 1491.71094
1696.0 0.000590 1002.36017 1464.50134
1656.0 0.000604 1002.24500 1439.66565
1565.0 0.000639 1002.12054 1416.88647
1574.0 0.000635 1001.98682 1395.90393
1524.0 0.000656 1001.84381 1376.50439
1455.0 0.000687 1001.69165 1358.51050
1451.0 0.000689 1001.53021 1341.77319
1360.0 0.000735 1001.35962 1326.16675
1385.0 0.000722 1001.17987 1311.58264
1371.0 0.000729 1000.99097 1297.92737
1304.0 0.000767 1000.79297 1285.11890
1301.0 0.000769 1000.58582 1273.08496
1265.0 0.000791 1000.36975 1261.76147
1234.0 0.000810 1000.14459 1251.09094
1218.0 0.000821 999.91046 1241.02185
1239.0 0.000807 999.66736 1231.50757
1166.0 0.000858 999.41541 1222.50623
1238.0 0.000808 999.15454 1213.97937
1218.0 0.000821 998.88489 1205.89258
1177.0 0.000850 998.60638 1198.21387
1172.0 0.000853 998.31915 1190.91455
1133.0 0.000883 998.02319 1183.96802
1198.0 0.000835 997.71863 1177.35010
1180.0 0.000847 997.40540 1171.03845
1136.0 0.000880 997.08356 1165.01257
1178.0 0.000849 996.75323 1159.25378
1085.0 0.000922 996.41437 1153.74475
1077.0 0.000929 996.06708 1148.46936
1094.0 0.000914 995.71143 1143.41296
1118.0 0.000894 995.34741 1138.56177
1130.0 0.000885 994.97510 1133.90320
1124.0 0.000890 994.59460 1129.42554
1047.0 0.000955 994.20593 1125.11780
1123.0 0.000890 993.80908 1120.97009
1112.0 0.000899 993.40424 1116.97290
1047.0 0.000955 992.99133 1113.11755
1051.0 0.000951 992.57050 1109.39575
1060.0 0.000943 992.14172 1105.80005
1083.0 0.000923 991.70520 1102.32336
1135.0 0.000881 991.26080 1098.95911
1056.0 0.000947 990.80878 1095.70105
1095.0 0.000913 990.34900 1092.54346
1102.0 0.000907 989.88171 1089.48083
1095.0 0.000913 989.40680 1086.50818
1115.0 0.000897 988.92450 1083.62073
1049.0 0.000953 988.43481 1080.81409
1020.0 0.000980 987.93768 1078.08398
1016.0 0.000984 987.43335 1075.42651
1015.0 0.000985 986.92188 1072.83813
1035.0 0.000966 986.40320 1070.31506
1032.0 0.000969 985.87744 1067.85425
1066.0 0.000938 985.34467 1065.45251
1055.0 0.000948 984.80505 1063.10706
1012.0 0.000988 984.25848 1060.81494
1025.0 0.000976 983.70514 1058.57385
1021.0 0.000979 983.14508 1056.38110
978.0 0.001022 982.57837 1054.23450
1010.0 0.000990 982.00513 1052.13196
1056.0 0.000947 981.42529 1050.07129
1033.0 0.000968 980.83899 1048.05054
983.0 0.001017 980.24640 1046.06787
969.0 0.001032 979.64758 1044.12170
1023.0 0.000978 979.04242 1042.21008
1037.0 0.000964 978.43121 1040.33167
1047.0 0.000955 977.81390 1038.48499
1005.0 0.000995 977.19061 1036.66846
983.0 0.001017 976.56140 1034.88098
1047.0 0.000955 975.92633 1033.12109
954.0 0.001048 975.28552 1031.38757
964.0 0.001037 974.63904 1029.67957
950.0 0.001053 973.98694 1027.99561
959.0 0.001043 973.32928 1026.33496
983.0 0.001017 972.66614 1024.69653
986.0 0.001014 971.99768 1023.07935
1019.0 0.000981 971.32391 1021.48260
1011.0 0.000989 970.64490 1019.90540
1033.0 0.000968 969.96069 1018.34692
1027.0 0.000974 969.27155 1016.80652
1026.0 0.000975 968.57727 1015.28326
954.0 0.001048 967.87817 1013.77667
979.0 0.001021 967.17419 1016.01544
972.0 0.001029 966.46552 1014.56464
971.0 0.001030 965.75220 1013.12878
981.0 0.001019 965.03418 1011.70734
1021.0 0.000979 964.31171 1010.29968
989.0 0.001011 963.58478 1008.90540
931.0 0.001074 962.85358 1007.52393
949.0 0.001054 962.11798 1006.15491
932.0 0.001073 961.37823 1004.79779
941.0 0.001063 960.63440 1003.45215
970.0 0.001031 959.88654 1002.11768
1036.0 0.000965 959.13470 1000.79395
956.0 0.001046 958.37891 999.48047
932.0 0.001073 957.61938 998.17706
956.0 0.001046 956.85626 996.88348
1018.0 0.000982 956.08929 995.59912
1005.0 0.000995 955.31885 994.32385
909.0 0.001100 954.54492 993.05737
966.0 0.001035 953.76770 991.79944
904.0 0.001106 952.98706 990.54980
926.0 0.001080 952.20319 989.30817
929.0 0.001076 951.41614 988.07428
933.0 0.001072 950.62604 986.84796
929.0 0.001076 949.83295 985.62903
943.0 0.001060 949.03687 984.41718
930.0 0.001075 948.23798 983.21228
940.0 0.001064 947.43628 982.01410
952.0 0.001050 946.63202 980.82269
891.0 0.001122 945.82507 979.63757
962.0 0.001040 945.01556 978.45868
900.0 0.001111 944.20361 977.28595
941.0 0.001063 943.38934 976.11932
998.0 0.001002 942.57275 974.95856
910.0 0.001099 941.75391 973.80341
938.0 0.001066 940.93292 972.65387
932.0 0.001073 940.10992 971.50995
936.0 0.001068 939.28491 970.37134
897.0 0.001115 938.45789 969.23804
916.0 0.001092 937.62915 968.10992
890.0 0.001124 936.79858 966.98700
926.0 0.001080 935.96637 965.86896
940.0 0.001064 935.13251 964.75592
898.0 0.001114 934.29712 963.64783
950.0 0.001053 933.46033 962.54456
975.0 0.001026 932.62207 961.44598
933.0 0.001072 931.78247 960.35199
884.0 0.001131 930.94165 959.26270
916.0 0.001092 930.09979 958.17810
954.0 0.001048 929.25665 957.09790
913.0 0.001095 928.41254 956.02222
957.0 0.001045 927.56750 954.95099
979.0 0.001021 926.72162 953.88409
885.0 0.001130 925.87494 952.82172
895.0 0.001117 925.02747 951.76361
894.0 0.001119 924.17932 950.70972
922.0 0.001085 923.33063 949.66016
925.0 0.001081 922.48145 948.61499
903.0 0.001107 921.63171 947.57391
914.0 0.001094 920.78162 946.53705
992.0 0.001008 919.93115 945.50446
924.0 0.001082 919.08063 944.47620
922.0 0.001085 918.22980 943.45197
912.0 0.001096 917.37878 942.43188
932.0 0.001073 916.52777 941.41595
946.0 0.001057 915.67688 940.40442
912.0 0.001096 914.82593 939.39679
899.0 0.001112 913.97522 938.39349
898.0 0.001114 913.12469 937.39429
879.0 0.001138 912.27448 936.39929
925.0 0.001081 911.42462 935.40851
911.0 0.001098 910.57513 934.42188
866.0 0.001155 909.72607 933.43939
930.0 0.001075 908.87769 932.46124
897.0 0.001115 908.02979 931.48718
905.0 0.001105 907.18256 930.51733
954.0 0.001048 906.33606 929.55182
938.0 0.001066 905.49030 928.59045
904.0 0.001106 904.64551 927.63354
916.0 0.001092 903.80151 926.68085
893.0 0.001120 902.95850 925.73242
868.0 0.001152 902.11652 924.78839
904.0 0.001106 901.27563 923.84875
882.0 0.001134 900.43585 922.91333
905.0 0.001105 899.59729 921.98242
926.0 0.001080 898.75995 921.05591
915.0 0.001093 897.92401 920.13391
879.0 0.001138 897.08936 919.21637
903.0 0.001107 896.25610 918.30334
926.0 0.001080 895.42432 917.39478
892.0 0.001121 894.59418 916.49084
886.0 0.001129 893.76550 915.59149
862.0 0.001160 892.93854 914.69684
896.0 0.001116 892.11316 913.80670
923.0 0.001083 891.28967 912.92145
903.0 0.001107 890.46783 912.04077
896.0 0.001116 889.64783 911.16479
915.0 0.001093 888.82977 910.29376
838.0 0.001193 888.01373 909.42761
884.0 0.001131 887.19958 908.56622
936.0 0.001068 886.38751 907.70972
871.0 0.001148 885.57751 906.85822
910.0 0.001099 884.76965 906.01166
915.0 0.001093 883.96405 905.17023
898.0 0.001114 883.16058 904.33374
873.0 0.001145 882.35938 903.50244
901.0 0.001110 881.56055 902.67621
928.0 0.001078 880.76410 901.85529
914.0 0.001094 879.97003 901.03949
829.0 0.001206 879.17834 900.22894
914.0 0.001094 878.38922 899.42383
889.0 0.001125 877.60278 898.62408
901.0 0.001110 876.81873 897.82965
889.0 0.001125 876.03735 897.04077
881.0 0.001135 875.25861 896.25732
927.0 0.001079 874.48267 895.47949
894.0 0.001119 873.70941 894.70721
868.0 0.001152 872.93890 893.94067
845.0 0.001183 872.17126 893.17975
869.0 0.001151 871.40649 892.42468
902.0 0.001109 870.64459 891.67535
888.0 0.001126 869.88562 890.93188
906.0 0.001104 869.12964 890.19440
902.0 0.001109 868.37671 891.64063
898.0 0.001114 867.62677 890.92944
944.0 0.001059 866.87988 890.22437
910.0 0.001099 866.13611 889.52557
921.0 0.001086 865.39545 888.83319
930.0 0.001075 864.65808 888.14728
858.0 0.001166 863.92389 887.46777
890.0 0.001124 863.19287 886.79474
915.0 0.001093 862.46515 886.12836
919.0 0.001088 861.74084 885.46869
928.0 0.001078 861.01971 884.81567
932.0 0.001073 860.30200 884.16949
846.0 0.001182 859.58771 883.53021
925.0 0.001081 858.87683 882.89789
909.0 0.001100 858.16943 882.27252
847.0 0.001181 857.46545 881.65430
864.0 0.001157 856.76495 881.04321
895.0 0.001117 856.06805 880.43933
869.0 0.001151 855.37469 879.84290
854.0 0.001171 854.68488 879.25372
912.0 0.001096 853.99872 878.67218
923.0 0.001083 853.31622 878.09808
924.0 0.001082 852.63727 877.53180
901.0 0.001110 851.96204 876.97308
924.0 0.001082 851.29053 876.42224
906.0 0.001104 850.62274 875.87946
899.0 0.001112 849.95862 875.34460
908.0 0.001101 849.29834 874.81787
922.0 0.001085 848.64178 874.29938
926.0 0.001080 847.98914 873.78925
869.0 0.001151 847.34027 873.28754
844.0 0.001185 846.69519 872.79431
884.0 0.001131 846.05402 872.30975
882.0 0.001134 845.41669 871.83398
940.0 0.001064 844.78333 871.36719
876.0 0.001142 844.15381 870.90924
836.0 0.001196 843.52820 870.46051
861.0 0.001161 842.90656 870.02100
881.0 0.001135 842.28894 869.59094
897.0 0.001115 841.67523 869.17041
868.0 0.001152 841.06549 868.75952
912.0 0.001096 840.45984 868.35840
900.0 0.001111 839.85815 867.96729
882.0 0.001134 839.26050 867.58624
889.0 0.001125 838.66687 867.21552
878.0 0.001139 838.07727 866.85516
873.0 0.001145 837.49182 866.50555
903.0 0.001107 836.91040 866.16669
883.0 0.001133 836.33301 865.83862
939.0 0.001065 835.75977 865.52185
886.0 0.001129 835.19067 865.21643
877.0 0.001140 834.62561 864.92255
871.0 0.001148 834.06470 864.64026
919.0 0.001088 833.50787 864.37012
930.0 0.001075 832.95526 864.11212
873.0 0.001145 832.40674 863.86652
875.0 0.001143 831.86243 863.63367
894.0 0.001119 831.32220 863.41364
906.0 0.001104 830.78619 863.20679
915.0 0.001093 830.25439 856.11853
876.0 0.001142 829.72668 855.98511
909.0 0.001100 829.20313 855.86505
889.0 0.001125 828.68384 855.75903
947.0 0.001056 828.16870 855.66711
888.0 0.001126 827.65771 855.58972
879.0 0.001138 827.15100 855.52716
905.0 0.001105 826.64838 855.47980
944.0 0.001059 826.15002 855.44818
881.0 0.001135 825.65588 855.43243
883.0 0.001133 825.16583 855.43304
910.0 0.001099 824.68005 855.45056
921.0 0.001086 824.19849 855.48529
912.0 0.001096 823.72113 855.53784
872.0 0.001147 823.24799 855.60858
906.0 0.001104 822.77893 855.69800
909.0 0.001100 822.31415 855.80670
889.0 0.001125 821.85358 855.93518
927.0 0.001079 821.39716 856.08405
911.0 0.001098 820.94495 856.25391
884.0 0.001131 820.49695 856.44537
908.0 0.001101 820.05310 856.65924
951.0 0.001052 819.61340 856.89600
962.0 0.001040 819.17792 857.15643
906.0 0.001104 818.74658 857.44141
892.0 0.001121 818.31952 857.75177
890.0 0.001124 817.89648 858.08807
931.0 0.001074 817.47766 858.45154
935.0 0.001070 817.06299 858.84296
916.0 0.001092 816.65247 859.26337
918.0 0.001089 816.24609 859.71368
946.0 0.001057 815.84381 860.19513
894.0 0.001119 815.44568 860.70874
898.0 0.001114 815.05170 861.25586
985.0 0.001015 814.66180 861.83777
997.0 0.001003 814.27594 862.45569
956.0 0.001046 813.89429 863.11108
889.0 0.001125 813.51666 863.80554
919.0 0.001088 813.14313 864.54065
901.0 0.001110 812.77368 865.31805
957.0 0.001045 812.40820 866.13953
942.0 0.001062 812.04688 867.00714
964.0 0.001037 811.68958 867.92267
968.0 0.001033 811.33624 868.88837
933.0 0.001072 810.98700 869.90668
958.0 0.001044 810.64172 870.97968
944.0 0.001059 810.30042 872.11023
891.0 0.001122 809.96313 873.30090
927.0 0.001079 809.62982 874.55475
958.0 0.001044 809.30048 875.87476
880.0 0.001136 808.97510 877.26447
943.0 0.001060 808.65363 878.72705
934.0 0.001071 808.33606 880.26672
984.0 0.001016 808.02246 881.88733
987.0 0.001013 807.71271 883.59326
950.0 0.001053 807.40686 885.38916
915.0 0.001093 807.10486 887.28009
914.0 0.001094 806.80676 889.27148
934.0 0.001071 806.51251 891.36902
991.0 0.001009 806.22205 893.57892
919.0 0.001088 805.93542 895.90796
957.0 0.001045 805.65259 898.36353
991.0 0.001009 805.37354 900.95325
950.0 0.001053 805.09827 903.68573
974.0 0.001027 804.82678 906.57007
940.0 0.001064 804.55896 909.61633
987.0 0.001013 804.29492 912.83514
960.0 0.001042 804.03455 916.23834
1007.0 0.000993 803.77789 919.83881
983.0 0.001017 803.52490 923.65039
961.0 0.001041 803.27557 927.68829
1024.0 0.000977 803.02991 931.96924
984.0 0.001016 802.78784 936.51129
993.0 0.001007 802.54938 941.33466
1048.0 0.000954 802.31451 946.46136
966.0 0.001035 802.08325 951.91559
957.0 0.001045 801.85553 957.72412
971.0 0.001030 801.63129 963.91669
971.0 0.001030 801.41064 970.52649
1012.0 0.000988 801.19348 977.59021
1058.0 0.000945 800.97980 985.14935
1038.0 0.000963 800.76959 993.25079
1061.0 0.000943 800.56287 1001.94763
1030.0 0.000971 800.35950 1011.30060
1049.0 0.000953 800.15955 1021.38037
1047.0 0.000955 799.96307 1032.26917
1078.0 0.000928 799.76990 1044.06372
1131.0 0.000884 799.58014 1056.87903
1110.0 0.000901 799.39362 1070.85291
1149.0 0.000870 799.21045 1086.15125
1204.0 0.000831 799.03064 1102.97485
1116.0 0.000896 798.85406 1121.56604
1145.0 0.000873 798.68073 1142.21814
1244.0 0.000804 798.51068 1165.28430
1293.0 0.000773 798.34381 1191.18689
1315.0 0.000760 798.18018 1220.42651
1340.0 0.000746 798.01971 1253.59265
1381.0 0.000724 797.86243 1291.36963
1411.0 0.000709 797.70825 1334.54321
1509.0 0.000663 797.55725 1384.00513
1604.0 0.000623 797.40930 1440.75305
1680.0 0.000595 797.26440 1505.88879
1700.0 0.000588 797.12262 1580.61096
1827.0 0.000547 796.98383 1666.20239
1935.0 0.000517 796.84814 1764.00793
1969.0 0.000508 796.71539 1875.39734
2128.0 0.000470 796.58563 2001.70728
2268.0 0.000441 796.45880 2144.14844
2438.0 0.000410 796.33496 2303.66602
2541.0 0.000394 796.21399 2480.74829
2721.0 0.000368 796.09595 2675.18799
2969.0 0.0003368 795.98083 2885.84229
3169.0 0.0003156 795.86847 3110.48340
3267.0 0.0003061 795.75903 3345.89136
3652.0 0.0002738 795.65240 3588.30029
3932.0 0.0002543 795.54852 3834.19678
4148.0 0.0002411 795.44745 4081.18799
4367.0 0.0002290 795.34906 4328.44922
4761.0 0.0002100 795.25348 4576.35205
5095.0 0.0001963 795.16058 4825.20801
5323.0 0.0001879 795.07037 5073.50195
5553.0 0.0001801 794.98285 5316.16309
5862.0 0.0001706 794.89795 5543.37988
6091.0 0.0001642 794.81567 5740.44873
6179.0 0.0001618 794.73608 5889.09570
6152.0 0.0001625 794.65900 5970.52832
6148.0 0.0001627 794.58453 5969.76465
6040.0 0.0001656 794.51257 5879.85254
5963.0 0.0001677 794.44312 5704.11035
5575.0 0.0001794 794.37622 5455.29150
5291.0 0.0001890 794.31183 5152.17188
4895.0 0.0002043 794.24982 4815.28662
4514.0 0.0002215 794.19037 4463.48486
4154.0 0.0002407 794.13324 4112.04932
3731.0 0.0002680 794.07855 3772.22876
3343.0 0.0002991 794.02618 3451.62476
2937.0 0.0003405 793.97626 3154.90552
2674.0 0.000374 793.92865 2884.53198
2322.0 0.000431 793.88336 2641.35962
2055.0 0.000487 793.84033 2425.09766
1887.0 0.000530 793.79962 2234.64648
1758.0 0.000569 793.76117 2068.35327
1622.0 0.000617 793.72498 1924.20728
1487.0 0.000672 793.69098 1800.00085
1361.0 0.000735 793.65918 1693.45459
1288.0 0.000776 793.62958 1602.32153
1221.0 0.000819 793.60211 1524.46497
1219.0 0.000820 793.57678 1457.91333
1125.0 0.000889 793.55365 1400.89636
1145.0 0.000873 793.53253 1351.85986
1183.0 0.000845 793.51355 1309.46838
1118.0 0.000894 793.49658 1272.59412
1079.0 0.000927 793.48169 1240.30042
994.0 0.001006 793.46881 1211.81836
1014.0 0.000986 793.45795 1186.52332
1010.0 0.000990 793.44904 1163.91138
996.0 0.001004 793.44208 1143.57776
991.0 0.001009 793.43713 1125.19629
981.0 0.001019 793.43408 1108.50452
997.0 0.001003 793.43292 1093.28894
988.0 0.001012 793.43372 1079.37488
979.0 0.001021 793.43634 1066.61743
911.0 0.001098 793.44080 1054.89539
927.0 0.001079 793.44714 1044.10571
980.0 0.001020 793.45526 1034.16052
926.0 0.001080 793.46521 1024.98340
932.0 0.001073 793.47693 1016.50787
970.0 0.001031 793.49042 1008.67529
990.0 0.001010 793.50562 1001.43396
958.0 0.001044 793.52258 994.73822
975.0 0.001026 793.54120 988.54694
956.0 0.001046 793.56158 982.82397
992.0 0.001008 793.58362 977.53656
934.0 0.001071 793.60724 972.65582
862.0 0.001160 793.63263 968.15552
905.0 0.001105 793.65955 964.01257
981.0 0.001019 793.68811 960.20593
952.0 0.001050 793.71826 956.71716
936.0 0.001068 793.75000 954.06329
951.0 0.001052 793.78326 951.16638
893.0 0.001120 793.81812 948.54315
923.0 0.001083 793.85443 946.18213
905.0 0.001105 793.89233 944.07343
902.0 0.001109 793.93164 942.20850
886.0 0.001129 793.97247 940.57990
875.0 0.001143 794.01477 939.18176
904.0 0.001106 794.05853 938.00909
916.0 0.001092 794.10370 937.05817
939.0 0.001065 794.15027 936.32635
880.0 0.001136 794.19824 935.81201
959.0 0.001043 794.24762 935.51489
911.0 0.001098 794.29834 935.43536
926.0 0.001080 794.35046 935.57538
913.0 0.001095 794.40393 935.93781
970.0 0.001031 794.45868 936.52655
923.0 0.001083 794.51477 937.34698
876.0 0.001142 794.57214 938.40576
878.0 0.001139 794.63080 939.71094
874.0 0.001144 794.69073 941.27203
894.0 0.001119 794.75195 943.10022
900.0 0.001111 794.81439 945.20862
893.0 0.001120 794.87811 947.61224
935.0 0.001070 794.94293 950.32849
934.0 0.001071 795.00909 953.37738
936.0 0.001068 795.07642 956.78210
901.0 0.001110 795.14484 960.56915
944.0 0.001059 795.21454 964.76971
882.0 0.001134 795.28534 969.41992
914.0 0.001094 795.35724 974.56219
884.0 0.001131 795.43036 980.24719
894.0 0.001119 795.50458 986.53497
874.0 0.001144 795.57990 993.49780
927.0 0.001079 795.65625 1001.22284
979.0 0.001021 795.73376 1009.81567
975.0 0.001026 795.81238 1019.40491
962.0 0.001040 795.89197 1030.14563
974.0 0.001027 795.97272 1042.22644
1028.0 0.000973 796.05444 1055.87402
1027.0 0.000974 796.13721 1071.35913
1003.0 0.000997 796.22101 1089.00415
1086.0 0.000921 796.30579 1109.18726
1114.0 0.000898 796.39160 1132.34924
1094.0 0.000914 796.47845 1158.99658
1185.0 0.000844 796.56622 1189.70532
1169.0 0.000855 796.65503 1225.12158
1252.0 0.000799 796.74475 1265.96069
1270.0 0.000787 796.83545 1313.00110
1369.0 0.000730 796.92706 1367.07532
1417.0 0.000706 797.01965 1429.05286
1488.0 0.000672 797.11316 1499.81201
1586.0 0.000631 797.20764 1580.19885
1684.0 0.000594 797.30298 1670.96399
1719.0 0.000582 797.39923 1772.67444
1817.0 0.000550 797.49640 1885.59778
1995.0 0.000501 797.59442 2009.56372
2127.0 0.000470 797.69336 2143.83154
2217.0 0.000451 797.79321 2287.00708
2383.0 0.000420 797.89386 2437.08203
2674.0 0.000374 797.99542 2591.64722
2769.0 0.000361 798.09784 2748.26074
3011.0 0.0003321 798.20111 2904.83032
3207.0 0.0003118 798.30524 3059.76709
3471.0 0.0002881 798.41016 3211.72778
3593.0 0.0002783 798.51599 3358.92725
3840.0 0.0002604 798.62256 3498.25171
3787.0 0.0002641 798.73004 3624.52393
4162.0 0.0002403 798.83826 3730.30103
4109.0 0.0002434 798.94733 3806.49512
4177.0 0.0002394 799.05719 3843.91919
4155.0 0.0002407 799.16785 3835.45923
4094.0 0.0002443 799.27930 3778.13916
4007.0 0.0002496 799.39154 3674.17432
3876.0 0.0002580 799.50464 3530.51440
3651.0 0.0002739 799.61847 3357.14795
3289.0 0.0003040 799.73303 3164.98804
3077.0 0.0003250 799.84845 2964.13867
2832.0 0.000353 799.96466 2762.91357
2586.0 0.000387 800.08160 2567.55469
2357.0 0.000424 800.19928 2382.38745
2124.0 0.000471 800.31775 2210.16357
1992.0 0.000502 800.43701 2052.42627
1761.0 0.000568 800.55701 1909.81909
1594.0 0.000627 800.67773 1782.33032
1485.0 0.000673 800.79926 1669.47607
1376.0 0.000727 800.92151 1570.43799
1268.0 0.000789 801.04449 1484.17419
1243.0 0.000805 801.16827 1409.50635
1173.0 0.000853 801.29272 1345.19348
1047.0 0.000955 801.41797 1289.98999
1030.0 0.000971 801.54401 1242.69336
1013.0 0.000987 801.67072 1202.17786
1023.0 0.000978 801.79816 1167.41882
1006.0 0.000994 801.92639 1137.50476
1027.0 0.000974 802.05536 1111.64221
1000.0 0.001000 802.18506 1089.15393
955.0 0.001047 802.31549 1069.47009
931.0 0.001074 802.44672 1052.11914
932.0 0.001073 802.57861 1036.71436
944.0 0.001059 802.71130 1022.94196
935.0 0.001070 802.84473 1010.54803
901.0 0.001110 802.97888 999.32861
877.0 0.001140 803.11377 989.11853
924.0 0.001082 803.24939 979.78448
924.0 0.001082 803.38574 971.21741
942.0 0.001062 803.52289 963.32770
917.0 0.0 803.66083 .
913.0 0.0 803.79944 .
911.0 0.0 803.93878 .
908.0 0.0 804.07892 .
910.0 0.0 804.21985 .
920.0 0.0 804.36151 .
968.0 0.0 804.50397 .
951.0 0.0 804.64709 .
984.0 0.0 804.79108 .
952.0 0.0 804.93579 .
926.0 0.0 805.08130 .
932.0 0.0 805.22754 .
964.0 0.0 805.37457 .
905.0 0.0 805.52240 .
910.0 0.0 805.67102 .
975.0 0.0 805.82043 .
931.0 0.0 805.97064 .
1015.0 0.0 806.12164 .
943.0 0.0 806.27350 .
952.0 0.0 806.42609 .
1000.0 0.0 806.57953 .
985.0 0.0 806.73376 .
899.0 0.0 806.88885 .
932.0 0.0 807.04474 .
968.0 0.0 807.20148 .
981.0 0.0 807.35901 .
937.0 0.0 807.51746 .
947.0 0.0 807.67664 .
922.0 0.0 807.83679 .
907.0 0.0 807.99780 .
863.0 0.0 808.15961 .
867.0 0.0 808.32233 .
888.0 0.0 808.48590 .
838.0 0.0 808.65039 .
857.0 0.0 808.81580 .
850.0 0.0 808.98206 .
816.0 0.0 809.14923 .
890.0 0.0 809.31732 .
892.0 0.0 809.48633 .
850.0 0.001176 809.65631 855.20184
896.0 0.001116 809.82715 854.45923
843.0 0.001186 809.99902 853.75250
884.0 0.001131 810.17175 853.07971
850.0 0.001176 810.34546 852.43970
822.0 0.001217 810.52020 851.83105
873.0 0.001145 810.69586 851.25232
891.0 0.001122 810.87250 850.70233
865.0 0.001156 811.05017 850.18005
838.0 0.001193 811.22876 849.68427
870.0 0.001149 811.40845 849.21399
871.0 0.001148 811.58911 848.76831
911.0 0.001098 811.77081 848.34625
860.0 0.001163 811.95349 847.94714
877.0 0.001140 812.13721 847.56995
864.0 0.001157 812.32208 847.21417
875.0 0.001143 812.50793 846.87903
858.0 0.001166 812.69489 846.56378
843.0 0.001186 812.88287 846.26782
881.0 0.001135 813.07202 845.99072
845.0 0.001183 813.26221 845.73187
846.0 0.001182 813.45355 845.49072
861.0 0.001161 813.64594 845.26666
834.0 0.001199 813.83948 845.05957
817.0 0.001224 814.03418 844.86884
900.0 0.001111 814.23004 844.69409
892.0 0.001121 814.42700 844.53503
851.0 0.001175 814.62518 844.39124
903.0 0.001107 814.82452 844.26251
881.0 0.001135 815.02502 844.14856
928.0 0.001078 815.22675 844.04895
884.0 0.001131 815.42969 843.96375
853.0 0.001172 815.63379 843.89252
863.0 0.001159 815.83917 843.83527
860.0 0.001163 816.04578 843.79163
897.0 0.001115 816.25366 843.76160
895.0 0.001117 816.46283 843.74493
863.0 0.001159 816.67316 843.74170
870.0 0.001149 816.88489 843.75171
883.0 0.001133 817.09784 843.77496
867.0 0.001153 817.31213 843.81140
889.0 0.001125 817.52771 843.86102
873.0 0.001145 817.74463 843.92389
941.0 0.001063 817.96295 844.00006
904.0 0.001106 818.18256 844.08948
867.0 0.001153 818.40350 844.19232
887.0 0.001127 818.62592 844.30859
878.0 0.001139 818.84961 844.43866
861.0 0.001161 819.07477 844.58246
889.0 0.001125 819.30133 844.74042
895.0 0.001117 819.52930 844.91254
896.0 0.001116 819.75867 845.09918
866.0 0.001155 819.98950 845.30066
866.0 0.001155 820.22186 845.51733
929.0 0.001076 820.45563 845.74951
854.0 0.001171 820.69092 845.99756
933.0 0.001072 820.92761 846.26215
853.0 0.001172 821.16589 846.54352
897.0 0.001115 821.40570 846.84253
868.0 0.001152 821.64697 847.15942
905.0 0.001105 821.88983 847.49512
920.0 0.001087 822.13422 847.85034
878.0 0.001139 822.38019 848.22595
869.0 0.001151 822.62775 848.62256
844.0 0.001185 822.87689 849.04144
879.0 0.001138 823.12769 849.48358
859.0 0.001164 823.38000 849.95007
862.0 0.001160 823.63397 850.44214
852.0 0.001174 823.88965 850.96143
882.0 0.001134 824.14691 851.50916
905.0 0.001105 824.40588 852.08722
860.0 0.001163 824.66656 852.69739
875.0 0.001143 824.92889 853.34180
873.0 0.001145 825.19293 854.02252
840.0 0.001190 825.45868 854.74213
926.0 0.001080 825.72614 855.50330
905.0 0.001105 825.99536 856.30908
883.0 0.001133 826.26636 857.16290
865.0 0.001156 826.53912 858.06836
803.0 0.001245 826.81366 859.02966
834.0 0.001199 827.08997 860.05151
869.0 0.001151 827.36816 861.13910
837.0 0.001195 827.64813 862.29852
843.0 0.001186 827.92993 863.53656
887.0 0.001127 828.21356 864.86108
875.0 0.001143 828.49902 866.28119
813.0 0.001230 828.78644 867.80792
906.0 0.001104 829.07568 869.45386
941.0 0.001063 829.36682 871.23407
916.0 0.001092 829.65991 873.16724
897.0 0.001115 829.95490 875.27533
877.0 0.001140 830.25183 877.58545
872.0 0.001147 830.55072 880.13013
918.0 0.001089 830.85156 882.94922
919.0 0.001088 831.15436 886.09070
899.0 0.001112 831.45917 889.61243
918.0 0.001089 831.76599 889.62274
917.0 0.001091 832.07477 894.15143
949.0 0.001054 832.38562 899.30688
975.0 0.001026 832.69855 905.20032
958.0 0.001044 833.01349 911.95905
941.0 0.001063 833.33044 919.72656
937.0 0.001067 833.64954 928.66272
956.0 0.001046 833.97070 938.94147
994.0 0.001006 834.29395 950.74872
983.0 0.001017 834.61932 965.07684
1041.0 0.000961 834.94684 980.52594
1011.0 0.000989 835.27649 998.07214
1024.0 0.000977 835.60834 1017.87311
1051.0 0.000951 835.94226 1040.04150
1131.0 0.000884 836.27838 1064.61975
1161.0 0.000861 836.61676 1091.55042
1143.0 0.000875 836.95728 1120.64795
1131.0 0.000884 837.29999 1151.58008
1180.0 0.000847 837.64502 1183.87170
1237.0 0.000808 837.99225 1216.94080
1297.0 0.000771 838.34174 1250.15723
1298.0 0.000770 838.69342 1282.90149
1387.0 0.000721 839.04742 1314.57288
1350.0 0.000741 839.40375 1344.52271
1357.0 0.000737 839.76233 1371.92590
1459.0 0.000685 840.12323 1395.65674
1457.0 0.000686 840.48645 1414.26111
1491.0 0.000671 840.85205 1426.09937
1413.0 0.000708 841.21997 1429.66699
1348.0 0.000742 841.59021 1424.00366
1342.0 0.000745 841.96283 1409.02222
1340.0 0.000746 842.33789 1385.59802
1361.0 0.000735 842.71533 1355.37573
1287.0 0.000777 843.09515 1320.39954
1321.0 0.000757 843.47742 1282.72925
1274.0 0.000785 843.86206 1244.16919
1224.0 0.000817 844.24921 1206.14319
1193.0 0.000838 844.63873 1169.68152
1138.0 0.000879 845.03076 1135.47278
1115.0 0.000897 845.42529 1103.93274
1104.0 0.000906 845.82233 1075.27161
1116.0 0.000896 846.22180 1049.54846
1068.0 0.000936 846.62378 1026.71289
1055.0 0.000948 847.02826 1006.63672
1010.0 0.000990 847.43536 989.13800
1028.0 0.000973 847.84491 974.00012
997.0 0.001003 848.25702 960.98773
963.0 0.001038 848.67175 949.85950
952.0 0.001050 849.08905 940.37793
921.0 0.001086 849.50891 932.31738
1011.0 0.000989 849.93134 925.46954
967.0 0.001034 850.35638 919.64746
997.0 0.001003 850.78406 914.68622
943.0 0.001060 851.21436 910.44366
955.0 0.001047 851.64728 906.79938
950.0 0.001053 852.08282 903.65302
881.0 0.001135 852.52106 900.92157
952.0 0.001050 852.96191 898.53766
912.0 0.001096 853.40552 896.44641
925.0 0.001081 853.85175 894.60376
942.0 0.001062 854.30066 892.97406
939.0 0.001065 854.75226 891.52875
912.0 0.001096 855.20667 890.24414
909.0 0.001100 855.66370 889.10138
891.0 0.001122 856.12347 888.08453
906.0 0.001104 856.58600 887.18030
927.0 0.001079 857.05133 887.91772
980.0 0.001020 857.51935 887.21814
916.0 0.001092 857.99017 886.60236
915.0 0.001093 858.46375 886.06268
934.0 0.001071 858.94012 885.59290
930.0 0.001075 859.41925 885.18738
937.0 0.001067 859.90118 884.84088
894.0 0.001119 860.38599 884.54907
902.0 0.001109 860.87354 884.30762
919.0 0.001088 861.36395 884.11310
900.0 0.001111 861.85718 883.96198
889.0 0.001125 862.35327 883.85126
943.0 0.001060 862.85217 883.77832
905.0 0.001105 863.35394 883.74078
927.0 0.001079 863.85852 883.73596
903.0 0.001107 864.36609 883.76215
941.0 0.001063 864.87646 883.81750
923.0 0.001083 865.38977 883.90002
928.0 0.001078 865.90588 884.00824
897.0 0.001115 866.42493 881.06940
940.0 0.001064 866.94690 881.24854
905.0 0.001105 867.47180 881.44910
937.0 0.001067 867.99957 881.66992
903.0 0.001107 868.53033 881.91010
929.0 0.001076 869.06396 882.16846
981.0 0.001019 869.60059 882.44434
928.0 0.001078 870.14001 882.73676
935.0 0.001070 870.68256 883.04498
925.0 0.001081 871.22803 883.36847
987.0 0.001013 871.77643 883.70642
883.0 0.001133 872.32776 884.05817
906.0 0.001104 872.88208 884.42334
892.0 0.001121 873.43945 884.80127
931.0 0.001074 873.99976 885.19147
928.0 0.001078 874.56305 885.59363
912.0 0.001096 875.12927 886.00714
921.0 0.001086 875.69861 886.43182
925.0 0.001081 876.27087 886.86707
968.0 0.001033 876.84619 887.31268
917.0 0.001091 877.42444 887.76831
913.0 0.001095 878.00586 888.23370
928.0 0.001078 878.59015 888.70850
884.0 0.001131 879.17755 889.19263
932.0 0.001073 879.76794 889.68549
883.0 0.001133 880.36133 890.18713
895.0 0.001117 880.95782 890.69727
889.0 0.001125 881.55731 891.21564
910.0 0.001099 882.15985 891.74219
865.0 0.001156 882.76544 892.27667
871.0 0.001148 883.37408 892.81885
876.0 0.001142 883.98578 893.36865
894.0 0.001119 884.60052 893.92596
861.0 0.001161 885.21832 894.49066
882.0 0.001134 885.83923 895.06244
932.0 0.001073 886.46320 895.64148
915.0 0.001093 887.09009 896.22723
904.0 0.001106 887.72021 896.82007
912.0 0.001096 888.35333 897.41962
933.0 0.001072 888.98956 898.02582
930.0 0.001075 889.62885 898.63867
915.0 0.001093 890.27118 899.25793
949.0 0.001054 890.91663 899.88379
925.0 0.001081 891.56512 900.51605
944.0 0.001059 892.21674 901.15454
921.0 0.001086 892.87134 901.79926
916.0 0.001092 893.52911 902.45032
910.0 0.001099 894.18994 903.10742
907.0 0.001103 894.85388 903.77069
909.0 0.001100 895.52081 904.44006
895.0 0.001117 896.19092 905.11554
900.0 0.001111 896.86407 905.79688
931.0 0.001074 897.54034 906.48431
927.0 0.001079 898.21954 907.17761
969.0 0.001032 898.90198 907.87695
878.0 0.001139 899.58752 908.58228
882.0 0.001134 900.27606 909.29340
907.0 0.001103 900.96765 910.01031
968.0 0.001033 901.66241 910.73334
937.0 0.001067 902.36023 911.46210
913.0 0.001095 903.06110 912.19690
896.0 0.001116 903.76501 912.93732
922.0 0.001085 904.47205 913.68378
893.0 0.001120 905.18219 914.43622
863.0 0.001159 905.89532 915.19452
927.0 0.001079 906.61163 915.95868
867.0 0.001153 907.33093 916.72882
960.0 0.001042 908.05334 917.50494
919.0 0.001088 908.77863 918.28687
888.0 0.001126 909.50714 919.07489
934.0 0.001071 910.23871 919.86902
972.0 0.001029 910.97333 920.66919
969.0 0.001032 911.71094 921.47546
952.0 0.001050 912.45172 922.28790
928.0 0.001078 913.19543 923.10651
932.0 0.001073 913.94226 923.93134
948.0 0.001055 914.69196 924.76221
965.0 0.001036 915.44482 925.59967
956.0 0.001046 916.20068 926.44348
935.0 0.001070 916.95959 927.29382
1020.0 0.000980 917.72156 928.15057
910.0 0.001099 918.48651 929.01392
954.0 0.001048 919.25452 929.88391
931.0 0.001074 920.02545 930.76074
952.0 0.001050 920.79932 931.64410
951.0 0.001052 921.57629 932.53461
971.0 0.001030 922.35626 933.43201
939.0 0.001065 923.13922 934.33661
977.0 0.001024 923.92517 935.24829
948.0 0.001055 924.71405 936.16736
947.0 0.001056 925.50592 937.09381
961.0 0.001041 926.30078 938.02783
935.0 0.001070 927.09857 938.96948
935.0 0.001070 927.89917 939.91888
947.0 0.001056 928.70288 940.87628
963.0 0.001038 929.50952 941.84186
953.0 0.001049 930.31909 942.81561
901.0 0.001110 931.13159 943.79785
907.0 0.001103 931.94702 944.78876
967.0 0.001034 932.76532 945.78833
964.0 0.001037 933.58655 946.79700
914.0 0.001094 934.41046 947.81464
927.0 0.001079 935.23749 948.84192
990.0 0.001010 936.06738 949.87878
967.0 0.001034 936.90015 950.92560
958.0 0.001044 937.73578 951.98254
980.0 0.001020 938.57428 953.05005
928.0 0.001078 939.41559 954.12823
968.0 0.001033 940.25977 955.21741
998.0 0.001002 941.10657 956.31775
978.0 0.001022 941.95642 957.43018
961.0 0.001041 942.80902 958.55450
920.0 0.001087 943.66449 959.69135
978.0 0.001022 944.52264 960.84106
958.0 0.001044 945.38373 962.00421
983.0 0.001017 946.24750 963.18115
943.0 0.001060 947.11401 964.37225
993.0 0.001007 947.98328 965.57831
986.0 0.001014 948.85522 966.79956
973.0 0.001028 949.72998 968.03699
946.0 0.001057 950.60748 969.29102
948.0 0.001055 951.48773 970.56238
923.0 0.001083 952.37067 971.85181
987.0 0.001013 953.25623 973.15997
949.0 0.001054 954.14453 974.48792
969.0 0.001032 955.03552 975.83643
988.0 0.001012 955.92896 977.20624
1003.0 0.000997 956.82526 978.59869
980.0 0.001020 957.72412 980.01489
959.0 0.001043 958.62573 981.45593
877.0 0.001140 959.52985 983.23370
932.0 0.001073 960.43658 984.73077
926.0 0.001080 961.34589 986.25671
999.0 0.001001 962.25781 987.81329
997.0 0.001003 963.17212 989.40222
1025.0 0.000976 964.08917 991.02545
948.0 0.001055 965.00873 992.68494
980.0 0.001020 965.93079 994.38300
955.0 0.001047 966.85541 996.12189
963.0 0.001038 967.78247 997.90436
957.0 0.001045 968.71210 999.73315
969.0 0.001032 969.64410 1001.61139
976.0 0.001025 970.57861 1003.54254
970.0 0.001031 971.51544 1005.53021
995.0 0.001005 972.45477 1007.57880
1008.0 0.000992 973.39661 1009.69257
1010.0 0.000990 974.34082 1011.87665
1005.0 0.000995 975.28741 1014.13629
949.0 0.001054 976.23639 1016.47772
1034.0 0.000967 977.18774 1018.90765
1010.0 0.000990 978.14142 1021.43335
997.0 0.001003 979.09723 1024.06311
1021.0 0.000979 980.05554 1026.80664
997.0 0.001003 981.01617 1029.67383
977.0 0.001024 981.97906 1032.67664
1040.0 0.000962 982.94421 1037.17566
990.0 0.001010 983.91168 1040.50134
1028.0 0.000973 984.88135 1044.00806
1026.0 0.000975 985.85321 1047.71619
1022.0 0.000978 986.82709 1051.64819
993.0 0.001007 987.80341 1055.83215
986.0 0.001014 988.78186 1060.29993
976.0 0.001025 989.76251 1065.09021
1038.0 0.000963 990.74524 1070.24963
1049.0 0.000953 991.73010 1075.83533
1071.0 0.000934 992.71710 1081.91602
1026.0 0.000975 993.70618 1088.57727
1077.0 0.000929 994.69739 1095.92236
1069.0 0.000935 995.69037 1104.07764
1067.0 0.000937 996.68561 1113.19653
1080.0 0.000926 997.68292 1123.46338
1100.0 0.000909 998.68219 1135.09741
1094.0 0.000914 999.68347 1148.35620
1126.0 0.000888 1000.68671 1163.53955
1114.0 0.000898 1001.69189 1180.98828
1141.0 0.000876 1002.69904 1201.08459
1197.0 0.000835 1003.70789 1224.24573
1279.0 0.000782 1004.71881 1250.91467
1306.0 0.000766 1005.73163 1281.54089
1385.0 0.000722 1006.74634 1316.55103
1340.0 0.000746 1007.76288 1356.30493
1392.0 0.000718 1008.78119 1401.03235
1430.0 0.000699 1009.80139 1450.75012
1457.0 0.000686 1010.82330 1505.17029
1549.0 0.000646 1011.84686 1563.62598
1659.0 0.000603 1012.87225 1625.05505
1701.0 0.000588 1013.89948 1688.08093
1767.0 0.000566 1014.92841 1751.17944
1881.0 0.000532 1015.95898 1812.81921
1930.0 0.000518 1016.99121 1871.42053
1893.0 0.000528 1018.02515 1925.06384
1953.0 0.000512 1019.06067 1971.10352
2041.0 0.000490 1020.09784 2006.02783
1958.0 0.000511 1021.13635 2025.89478
1886.0 0.000530 1022.17670 2027.37415
1944.0 0.000514 1023.21857 2008.98352
1963.0 0.000509 1024.26196 1971.83740
1984.0 0.000504 1025.30688 1919.44055
1815.0 0.000551 1026.35327 1856.67688
1696.0 0.000590 1027.40112 1788.00159
1611.0 0.000621 1028.45044 1718.89905
1603.0 0.000624 1029.50098 1651.97974
1495.0 0.000669 1030.55310 1589.34949
1462.0 0.000684 1031.60669 1532.22302
1383.0 0.000723 1032.66162 1481.16760
1317.0 0.000759 1033.71790 1436.30908
1286.0 0.000778 1034.77539 1397.48730
1302.0 0.000768 1035.83423 1364.36340
1229.0 0.000814 1036.89441 1336.49585
1221.0 0.000819 1037.95557 1313.39111
1227.0 0.000815 1039.01819 1294.54565
1209.0 0.000827 1040.08203 1279.47107
1165.0 0.000858 1041.14709 1267.71838
1126.0 0.000888 1042.21338 1258.89124
1185.0 0.000844 1043.28064 1252.65747
1142.0 0.000876 1044.34912 1248.75293
1140.0 0.000877 1045.41870 1246.98474
1145.0 0.000873 1046.48938 1247.23022
1184.0 0.000845 1047.56091 1249.43372
1152.0 0.000868 1048.63367 1253.60547
1148.0 0.000871 1049.70752 1259.81458
1200.0 0.000833 1050.78223 1268.18604
1197.0 0.000835 1051.85803 1278.89514
1173.0 0.000853 1052.93469 1292.16223
1235.0 0.000810 1054.01221 1308.24585
1241.0 0.000806 1055.09082 1327.43579
1293.0 0.000773 1056.16992 1350.04346
1367.0 0.000732 1057.25012 1376.39233
1360.0 0.000735 1058.33118 1406.80383
1426.0 0.000701 1059.41309 1441.58459
1404.0 0.000712 1060.49573 1481.00989
1442.0 0.000693 1061.57910 1525.30603
1495.0 0.000669 1062.66321 1574.63171
1514.0 0.000661 1063.74805 1629.05774
1565.0 0.000639 1064.83337 1688.54565
1660.0 0.000602 1065.91968 1752.92566
1736.0 0.000576 1067.00647 1821.86926
1778.0 0.000562 1068.09399 1894.86243
1917.0 0.000522 1069.18201 1971.17053
1937.0 0.000516 1070.27063 2049.80127
2004.0 0.000499 1071.35974 2129.46387
2134.0 0.000469 1072.44946 2208.52905
2233.0 0.000448 1073.53955 2285.00659
2249.0 0.000445 1074.63013 2356.55518
2324.0 0.000430 1075.72119 2420.55127
2461.0 0.000406 1076.81262 2474.24097
2634.0 0.000380 1077.90454 2514.97852
2615.0 0.000382 1078.99683 2540.53687
2643.0 0.000378 1080.08948 2549.42017
2738.0 0.000365 1081.18250 2541.10840
2716.0 0.000368 1082.27576 2516.13989
2622.0 0.000381 1083.36902 2476.02441
2697.0 0.000371 1084.46289 2422.99805
2648.0 0.000378 1085.55688 2359.70557
2646.0 0.000378 1086.65100 2288.89600
2625.0 0.000381 1087.74548 2213.18140
2480.0 0.000403 1088.83997 2134.89038
2406.0 0.000416 1089.93469 2055.99829
2345.0 0.000426 1091.02942 1978.11951
2258.0 0.000443 1092.12402 1902.53040
2170.0 0.000461 1093.21887 1830.21008
2006.0 0.000499 1094.31384 1761.87854
1843.0 0.000543 1095.40869 1698.03625
1891.0 0.000529 1096.50354 1638.99695
1743.0 0.000574 1097.59839 1584.91675
1721.0 0.000581 1098.69312 1535.81848
1607.0 0.000622 1099.78784 1491.61487
1506.0 0.000664 1100.88232 1452.12976
1422.0 0.000703 1101.97644 1417.11682
1456.0 0.000687 1103.07056 1386.28064
1389.0 0.000720 1104.16455 1359.28967
1325.0 0.000755 1105.25830 1335.79419
1363.0 0.000734 1106.35181 1315.43958
1294.0 0.000773 1107.44495 1297.87537
1252.0 0.000799 1108.53784 1282.76575
1255.0 0.000797 1109.63049 1269.79578
1206.0 0.000829 1110.72241 1258.67493
1221.0 0.000819 1111.81421 1249.14246
1176.0 0.000850 1112.90564 1240.96436
1151.0 0.000869 1113.99658 1233.93689
1157.0 0.000864 1115.08704 1227.88354
1124.0 0.000890 1116.17700 1222.65320
1104.0 0.000906 1117.26660 1218.11816
1179.0 0.000848 1118.35547 1214.17102
1157.0 0.000864 1119.44373 1210.72314
1152.0 0.000868 1120.53137 1207.70093
1147.0 0.000872 1121.61853 1205.04358
1117.0 0.000895 1122.70508 1202.70117
1164.0 0.000859 1123.79089 1200.63306
1128.0 0.000887 1124.87610 1198.80542
1102.0 0.000907 1125.96045 1197.19055
1135.0 0.000881 1127.04407 1195.76563
1124.0 0.000890 1128.12695 1194.51111
1192.0 0.000839 1129.20886 1193.41052
1095.0 0.000913 1130.29016 1192.45068
1146.0 0.000873 1131.37048 1191.61914
1157.0 0.000864 1132.45007 1190.90601
1073.0 0.000932 1133.52856 1190.30188
1143.0 0.000875 1134.60632 1189.79907
1101.0 0.000908 1135.68298 1189.39001
1130.0 0.000885 1136.75867 1189.06848
1124.0 0.000890 1137.83313 1188.82861
1121.0 0.000892 1138.90686 1188.66541
1105.0 0.000905 1139.97949 1188.57422
1085.0 0.000922 1141.05090 1188.55005
1122.0 0.000891 1142.12134 1188.58972
1156.0 0.000865 1143.19055 1188.68921
1173.0 0.000853 1144.25867 1188.84521
1135.0 0.000881 1145.32544 1189.05457
1171.0 0.000854 1146.39087 1189.31433
1142.0 0.000876 1147.45532 1189.62244
1157.0 0.000864 1148.51843 1189.97644
1176.0 0.000850 1149.58020 1190.37354
1170.0 0.000855 1150.64063 1190.81250
1123.0 0.000890 1151.69983 1191.29114
1163.0 0.000860 1152.75757 1191.80786
1184.0 0.000845 1153.81384 1192.36084
1121.0 0.000892 1154.86877 1192.94910
1147.0 0.000872 1155.92200 1193.57104
1127.0 0.000887 1156.97400 1194.22571
1163.0 0.000860 1158.02441 1194.91211
1211.0 0.000826 1159.07324 1195.62891
1120.0 0.000893 1160.12061 1196.37585
1196.0 0.000836 1161.16638 1197.15161
1128.0 0.000887 1162.21045 1197.95593
1101.0 0.000908 1163.25293 1198.78809
1150.0 0.000870 1164.29358 1199.64746
1194.0 0.000838 1165.33264 1200.53394
1160.0 0.000862 1166.37000 1201.44739
1232.0 0.000812 1167.40564 1202.38672
1161.0 0.000861 1168.43958 1203.35278
1120.0 0.000893 1169.47156 1204.34473
1209.0 0.000827 1170.50183 1205.36292
1135.0 0.000881 1171.53027 1206.40735
1192.0 0.000839 1172.55652 1207.47791
1147.0 0.000872 1173.58118 1208.57532
1190.0 0.000840 1174.60388 1209.69971
1161.0 0.000861 1175.62451 1210.85156
1183.0 0.000845 1176.64331 1212.03113
1219.0 0.000820 1177.66003 1213.23938
1143.0 0.000875 1178.67468 1214.47668
1156.0 0.000865 1179.68738 1215.74365
1227.0 0.000815 1180.69800 1217.04175
1154.0 0.000867 1181.70618 1218.37158
1153.0 0.000867 1182.71252 1219.73438
1195.0 0.000837 1183.71667 1221.13171
1224.0 0.000817 1184.71863 1222.56470
1199.0 0.000834 1185.71838 1224.03503
1216.0 0.000822 1186.71594 1225.54456
1245.0 0.000803 1187.71118 1227.09509
1151.0 0.000869 1188.70422 1228.68872
1186.0 0.000843 1189.69470 1230.32764
1175.0 0.000851 1190.68298 1233.92297
1227.0 0.000815 1191.66895 1235.67590
1244.0 0.000804 1192.65247 1237.48389
1211.0 0.000826 1193.63367 1239.35010
1197.0 0.000835 1194.61243 1241.27905
1221.0 0.000819 1195.58875 1243.27576
1181.0 0.000847 1196.56250 1245.34558
1241.0 0.000806 1197.53357 1247.49475
1179.0 0.000848 1198.50220 1249.73132
1168.0 0.000856 1199.46838 1252.06396
1249.0 0.000801 1200.43201 1254.50354
1237.0 0.000808 1201.39294 1257.06274
1202.0 0.000832 1202.35132 1259.75671
1202.0 0.000832 1203.30701 1262.60461
1283.0 0.000779 1204.26001 1265.62817
1266.0 0.000790 1205.21021 1268.85510
1229.0 0.000814 1206.15759 1272.31750
1316.0 0.000760 1207.10242 1276.05432
1227.0 0.000815 1208.04443 1280.11096
1205.0 0.000830 1208.98364 1284.54065
1226.0 0.000816 1209.92004 1289.40540
1241.0 0.000806 1210.85352 1294.77539
1246.0 0.000803 1211.78418 1300.72961
1307.0 0.000765 1212.71191 1307.35449
1248.0 0.000801 1213.63660 1314.74414
1274.0 0.000785 1214.55835 1322.99780
1312.0 0.000762 1215.47729 1332.21741
1310.0 0.000763 1216.39319 1342.50549
1341.0 0.000746 1217.30603 1353.95984
1318.0 0.000759 1218.21582 1366.67090
1346.0 0.000743 1219.12256 1380.71631
1346.0 0.000743 1220.02625 1396.15442
1367.0 0.000732 1220.92664 1413.02002
1335.0 0.000749 1221.82410 1431.31689
1335.0 0.000749 1222.71838 1451.01038
1413.0 0.000708 1223.60938 1472.01831
1391.0 0.000719 1224.49731 1494.20178
1389.0 0.000720 1225.38196 1517.35132
1419.0 0.000705 1226.26331 1541.17358
1410.0 0.000709 1227.14148 1565.27942
1514.0 0.000661 1228.01624 1589.17590
1544.0 0.000648 1228.88757 1612.27307
1567.0 0.000638 1229.75574 1633.91626
1531.0 0.000653 1230.62061 1653.44751
1498.0 0.000668 1231.48193 1670.30298
1611.0 0.000621 1232.33997 1684.12720
1637.0 0.000611 1233.19446 1694.87695
1704.0 0.000587 1234.04565 1703.00281
1644.0 0.000608 1234.89331 1708.95361
1673.0 0.000598 1235.73718 1713.83960
1618.0 0.000618 1236.57788 1718.84204
1654.0 0.000605 1237.41492 1725.22595
1730.0 0.000578 1238.24854 1734.25378
1772.0 0.000564 1239.07837 1747.12537
1775.0 0.000563 1239.90479 1764.94580
1840.0 0.000543 1240.72742 1788.70496
1884.0 0.000531 1241.54651 1819.26196
1940.0 0.000515 1242.36169 1857.32703
1936.0 0.000517 1243.17346 1903.43958
1951.0 0.000513 1243.98145 1957.93274
2003.0 0.000499 1244.78564 2020.89343
2094.0 0.000478 1245.58618 2092.10181
2148.0 0.000466 1246.38293 2170.95483
2250.0 0.000444 1247.17590 2256.36646
2347.0 0.000426 1247.96497 2346.63525
2419.0 0.000413 1248.75024 2439.29980
2424.0 0.000413 1249.53149 2531.00293
2464.0 0.000406 1250.30908 2617.44092
2493.0 0.000401 1251.08276 2693.49609
2568.0 0.000389 1251.85254 2753.81665
2634.0 0.000380 1252.61829 2792.95728
2617.0 0.000382 1253.38013 2807.25293
2736.0 0.000365 1254.13806 2795.06030
2646.0 0.000378 1254.89197 2757.30518
2755.0 0.000363 1255.64160 2697.23096
2679.0 0.000373 1256.38745 2619.62769
2689.0 0.000372 1257.12927 2529.86401
2548.0 0.000392 1257.86707 2433.07227
2478.0 0.000404 1258.60071 2333.64648
2407.0 0.000415 1259.33020 2235.05127
2293.0 0.000436 1260.05554 2139.84351
2226.0 0.000449 1260.77686 2049.80029
2186.0 0.000457 1261.49377 1966.06995
2076.0 0.000482 1262.20667 1889.31409
2097.0 0.000477 1262.91541 1819.82080
1960.0 0.000510 1263.61987 1757.59546
1938.0 0.000516 1264.32007 1702.42822
1853.0 0.000540 1265.01599 1653.95300
1778.0 0.000562 1265.70764 1611.69250
1769.0 0.000565 1266.39514 1575.10034
1751.0 0.000571 1267.07825 1543.59192
1640.0 0.000610 1267.75684 1516.57678
1638.0 0.000611 1268.43127 1493.47937
1601.0 0.000625 1269.10132 1473.75696
1650.0 0.000606 1269.76709 1456.91125
1620.0 0.000617 1270.42834 1442.49609
1550.0 0.000645 1271.08521 1430.11963
1543.0 0.000648 1271.73767 1419.44580
1531.0 0.000653 1272.38562 1409.31567
1555.0 0.000643 1273.02905 1401.24500
1569.0 0.000637 1273.66809 1394.15735
1509.0 0.000663 1274.30261 1387.89294
1468.0 0.000681 1274.93262 1382.32178
1504.0 0.000665 1275.55823 1377.33838
1481.0 0.000675 1276.17908 1372.85876
1506.0 0.000664 1276.79553 1368.81360
1500.0 0.000667 1277.40735 1365.14771
1435.0 0.000697 1278.01440 1361.81494
1449.0 0.000690 1278.61707 1358.77759
1439.0 0.000695 1279.21497 1356.00378
1429.0 0.000700 1279.80835 1353.46741
1357.0 0.000737 1280.39709 1351.14441
1372.0 0.000729 1280.98108 1349.01563
1391.0 0.000719 1281.56042 1347.06323
1413.0 0.000708 1282.13501 1345.27197
1444.0 0.000693 1282.70496 1343.62793
1484.0 0.000674 1283.27002 1342.11963
1439.0 0.000695 1283.83044 1340.73535
1342.0 0.000745 1284.38623 1339.46582
1366.0 0.000732 1284.93701 1338.30164
1395.0 0.000717 1285.48315 1337.23523
1395.0 0.000717 1286.02454 1336.25891
1387.0 0.000721 1286.56104 1335.36621
1459.0 0.000685 1287.09277 1334.55103
1413.0 0.000708 1287.61951 1333.80750
1408.0 0.000710 1288.14148 1333.13086
1371.0 0.000729 1288.65857 1332.51648
1356.0 0.000737 1289.17078 1331.96008
1328.0 0.000753 1289.67810 1331.45776
1369.0 0.000730 1290.18054 1331.00610
1334.0 0.000750 1290.67810 1330.60120
1380.0 0.000725 1291.17065 1330.24060
1421.0 0.000704 1291.65820 1329.92114
1305.0 0.000766 1292.14087 1329.64050
1346.0 0.000743 1292.61853 1329.39648
1404.0 0.000712 1293.09131 1329.18604
1371.0 0.000729 1293.55896 1329.00818
1345.0 0.000743 1294.02173 1328.86023
1414.0 0.000707 1294.47937 1328.74097
1369.0 0.000730 1294.93213 1328.64868
1371.0 0.000729 1295.37976 1328.58130
1412.0 0.000708 1295.82214 1328.53760
1392.0 0.000718 1296.25977 1328.51721
1347.0 0.000742 1296.69214 1328.51831
1302.0 0.000768 1297.11951 1328.53943
1372.0 0.000729 1297.54175 1328.58008
1374.0 0.000728 1297.95886 1328.63916
1387.0 0.000721 1298.37085 1328.71545
1413.0 0.000708 1298.77783 1328.80884
1391.0 0.000719 1299.17957 1328.91772
1385.0 0.000722 1299.57617 1329.04211
1340.0 0.000746 1299.96753 1329.18103
1395.0 0.000717 1300.35388 1329.33398
1364.0 0.000733 1300.73499 1329.50024
1402.0 0.000713 1301.11084 1329.67993
1412.0 0.000708 1301.48157 1329.87146
1390.0 0.000719 1301.84717 1328.45178
1406.0 0.000711 1302.20728 1328.68005
1383.0 0.000723 1302.56238 1328.91931
1384.0 0.000723 1302.91223 1329.16980
1427.0 0.000701 1303.25684 1329.43091
1383.0 0.000723 1303.59619 1329.70251
1392.0 0.000718 1303.93030 1329.98425
1393.0 0.000718 1304.25903 1330.27625
1385.0 0.000722 1304.58264 1330.57825
1383.0 0.000723 1304.90088 1330.89001
1408.0 0.000710 1305.21375 1331.21191
1361.0 0.000735 1305.52148 1331.54321
1373.0 0.000728 1305.82385 1331.88464
1335.0 0.000749 1306.12085 1332.23572
1363.0 0.000734 1306.41260 1332.59985
1391.0 0.000719 1306.69897 1332.97095
1376.0 0.000727 1306.97998 1333.35168
1342.0 0.000745 1307.25574 1333.74280
1382.0 0.000724 1307.52600 1334.14417
1332.0 0.000751 1307.79102 1334.55615
1355.0 0.000738 1308.05078 1334.97913
1348.0 0.000742 1308.30493 1335.41296
1345.0 0.000743 1308.55383 1335.85828
1349.0 0.000741 1308.79736 1336.31506
1331.0 0.000751 1309.03552 1336.78406
1366.0 0.000732 1309.26819 1337.26538
1317.0 0.000759 1309.49548 1337.75952
1432.0 0.000698 1309.71741 1338.26746
1398.0 0.000715 1309.93396 1338.78918
1358.0 0.000736 1310.14502 1339.32556
1308.0 0.000765 1310.35071 1339.87695
1366.0 0.000732 1310.55103 1340.44421
1345.0 0.000743 1310.74573 1341.02808
1383.0 0.000723 1310.93518 1341.62952
1369.0 0.000730 1311.11914 1342.24902
1369.0 0.000730 1311.29761 1342.88770
1388.0 0.000720 1311.47058 1343.54663
1355.0 0.000738 1311.63831 1344.22705
1353.0 0.000739 1311.80042 1344.92969
1423.0 0.000703 1311.95703 1345.65601
1385.0 0.000722 1312.10828 1346.40686
1399.0 0.000715 1312.25403 1347.18469
1338.0 0.000747 1312.39429 1347.99023
1369.0 0.000730 1312.52905 1348.82593
1403.0 0.000713 1312.65845 1349.69263
1321.0 0.000757 1312.78223 1350.59253
1282.0 0.000780 1312.90063 1351.52808
1349.0 0.000741 1313.01355 1352.50098
1355.0 0.000738 1313.12085 1353.51440
1336.0 0.000749 1313.22278 1354.57056
1328.0 0.000753 1313.31921 1355.67188
1363.0 0.000734 1313.41003 1356.82190
1376.0 0.000727 1313.49548 1358.02344
1368.0 0.000731 1313.57544 1359.28052
1431.0 0.000699 1313.64978 1360.59705
1366.0 0.000732 1313.71875 1361.97705
1357.0 0.000737 1313.78210 1363.42505
1335.0 0.000749 1313.83997 1364.94580
1411.0 0.000709 1313.89233 1366.54504
1376.0 0.000727 1313.93921 1368.22852
1372.0 0.000729 1313.98059 1370.00293
1436.0 0.000696 1314.01648 1371.87524
1408.0 0.000710 1314.04675 1373.85266
1416.0 0.000706 1314.07166 1375.94409
1392.0 0.000718 1314.09094 1378.15881
1350.0 0.000741 1314.10474 1380.50696
1432.0 0.000698 1314.11316 1382.99951
1430.0 0.000699 1314.11584 1385.64954
1400.0 0.000714 1314.11316 1388.47009
1403.0 0.000713 1314.10498 1391.47693
1393.0 0.000718 1314.09119 1394.68677
1377.0 0.000726 1314.07190 1398.11816
1431.0 0.000699 1314.04724 1401.79260
1504.0 0.000665 1314.01685 1405.73315
1370.0 0.000730 1313.98108 1409.96643
1349.0 0.000741 1313.93982 1414.52246
1500.0 0.000667 1313.89307 1419.43469
1454.0 0.000688 1313.84082 1424.74207
1433.0 0.000698 1313.78296 1430.48877
1436.0 0.000696 1313.71973 1436.72754
1460.0 0.000685 1313.65088 1443.51819
1451.0 0.000689 1313.57654 1450.93372
1465.0 0.000683 1313.49683 1459.06104
1487.0 0.000672 1313.41162 1468.00696
1486.0 0.000673 1313.32080 1477.90198
1456.0 0.000687 1313.22449 1488.90820
1434.0 0.000697 1313.12280 1501.22815
1501.0 0.000666 1313.01563 1515.11377
1512.0 0.000661 1312.90295 1530.87939
1561.0 0.000641 1312.78467 1548.91650
1591.0 0.000629 1312.66101 1569.69507
1586.0 0.000631 1312.53198 1593.79419
1623.0 0.000616 1312.39734 1621.89856
1638.0 0.000611 1312.25732 1654.80994
1649.0 0.000606 1312.11194 1693.44360
1762.0 0.000568 1311.96094 1738.82129
1823.0 0.000549 1311.80444 1792.05090
1952.0 0.000512 1311.64258 1854.29553
1966.0 0.000509 1311.47534 1926.72864
2020.0 0.000495 1311.30261 2010.47314
2182.0 0.000458 1311.12451 2106.52881
2278.0 0.000439 1310.94080 2215.67212
2260.0 0.000442 1310.75183 2338.33545
2417.0 0.000414 1310.55737 2474.43750
2557.0 0.000391 1310.35754 2623.15503
2700.0 0.000370 1310.15222 2782.60571
2745.0 0.000364 1309.94165 2949.43872
2946.0 0.0003394 1309.72559 3118.36304
3040.0 0.0003289 1309.50403 3281.75928
3306.0 0.0003025 1309.27722 3429.63184
3395.0 0.0002946 1309.04504 3550.30249
3389.0 0.0002951 1308.80737 3632.11011
3375.0 0.0002963 1308.56445 3665.93921
3469.0 0.0002883 1308.31604 3647.71167
3459.0 0.0002891 1308.06238 3579.63965
3493.0 0.0002863 1307.80334 3469.53418
3356.0 0.0002980 1307.53894 3328.57227
3278.0 0.0003051 1307.26917 3168.65649
3228.0 0.0003098 1306.99414 3000.41333
3180.0 0.0003145 1306.71387 2832.21118
2992.0 0.0003342 1306.42810 2670.01904
2803.0 0.000357 1306.13708 2517.73267
2722.0 0.000367 1305.84082 2377.63550
2529.0 0.000395 1305.53918 2250.84033
2320.0 0.000431 1305.23230 2137.62866
2254.0 0.000444 1304.92004 2037.70984
2014.0 0.000497 1304.60266 1950.40100
2003.0 0.000499 1304.28003 1874.76526
1849.0 0.000541 1303.95203 1809.71497
1812.0 0.000552 1303.61877 1754.09314
1748.0 0.000572 1303.28040 1706.73828
1630.0 0.000613 1302.93652 1666.53418
1617.0 0.000618 1302.58765 1632.44507
1585.0 0.000631 1302.23352 1603.53967
1576.0 0.000635 1301.87415 1579.00403
1520.0 0.000658 1301.50977 1558.14417
1522.0 0.000657 1301.14001 1540.38245
1480.0 0.000676 1300.76514 1525.25098
1493.0 0.000670 1300.38501 1512.37610
1497.0 0.000668 1299.99976 1501.46960
1426.0 0.000701 1299.60938 1492.31274
1475.0 0.000678 1299.21387 1484.74231
1443.0 0.000693 1298.81323 1478.64185
1446.0 0.000692 1298.40747 1473.92749
1446.0 0.000692 1297.99658 1470.53870
1432.0 0.000698 1297.58057 1468.43164
1388.0 0.000720 1297.15942 1467.56763
1410.0 0.000709 1296.73328 1467.90808
1477.0 0.000677 1296.30200 1469.07300
1433.0 0.000698 1295.86560 1471.66455
1506.0 0.000664 1295.42419 1475.25732
1462.0 0.000684 1294.97791 1479.72229
1494.0 0.000669 1294.52649 1484.87854
1406.0 0.000711 1294.07007 1490.47974
1532.0 0.000653 1293.60852 1496.19934
1455.0 0.000687 1293.14209 1501.62939
1449.0 0.000690 1292.67065 1506.29785
1462.0 0.000684 1292.19421 1509.71216
1508.0 0.000663 1291.71277 1511.43994
1495.0 0.000669 1291.22644 1511.19617
1519.0 0.000658 1290.73523 1508.91821
1471.0 0.000680 1290.23901 1504.78882
1466.0 0.000682 1289.73792 1499.19897
1479.0 0.000676 1289.23181 1492.66663
1467.0 0.000682 1288.72083 1485.74377
1481.0 0.000675 1288.20508 1478.94360
1445.0 0.000692 1287.68445 1472.69958
1524.0 0.000656 1287.15881 1467.34998
1494.0 0.000669 1286.62854 1463.13928
1485.0 0.000673 1286.09326 1460.22888
1467.0 0.000682 1285.55322 1458.70544
1398.0 0.000715 1285.00842 1458.58887
1449.0 0.000690 1284.45874 1459.83484
1457.0 0.000686 1283.90430 1462.33472
1479.0 0.000676 1283.34509 1464.46460
1476.0 0.000678 1282.78113 1468.87073
1460.0 0.000685 1282.21252 1473.75781
1481.0 0.000675 1281.63916 1478.69946
1471.0 0.000680 1281.06104 1483.19080
1451.0 0.000689 1280.47815 1486.67847
1400.0 0.000714 1279.89063 1488.61414
1497.0 0.000668 1279.29834 1488.53333
1511.0 0.000662 1278.70154 1486.13306
1504.0 0.000665 1278.09998 1481.33105
1446.0 0.000692 1277.49390 1474.27344
1379.0 0.000725 1276.88318 1465.29529
1433.0 0.000698 1276.26782 1454.84460
1496.0 0.000668 1275.64783 1443.40271
1442.0 0.000693 1275.02332 1431.42285
1411.0 0.000709 1274.39417 1419.29089
1399.0 0.000715 1273.76062 1407.31396
1398.0 0.000715 1273.12244 1395.72327
1395.0 0.000717 1272.47961 1384.68274
1359.0 0.000736 1271.83252 1374.30176
1352.0 0.000740 1271.18091 1364.64648
1347.0 0.000742 1270.52466 1355.74841
1309.0 0.000764 1269.86401 1347.61255
1336.0 0.000749 1269.19897 1340.22278
1309.0 0.000764 1268.52954 1333.54700
1308.0 0.000765 1267.85559 1327.54102
1341.0 0.000746 1267.17712 1322.15295
1340.0 0.000746 1266.49463 1317.32642
1328.0 0.000753 1265.80750 1313.00244
1321.0 0.000757 1265.11609 1309.12280
1294.0 0.000773 1264.42029 1305.63123
1384.0 0.000723 1263.72021 1302.47546
1297.0 0.000771 1263.01575 1299.60742
1339.0 0.000747 1262.30713 1296.98462
1323.0 0.000756 1261.59424 1294.56885
1249.0 0.000801 1260.87695 1292.32813
1351.0 0.000740 1260.15564 1290.23486
1341.0 0.000746 1259.42993 1288.26526
1299.0 0.000770 1258.70007 1286.40076
1288.0 0.000776 1257.96594 1284.62500
1333.0 0.000750 1257.22766 1282.92529
1336.0 0.000749 1256.48523 1281.29065
1339.0 0.000747 1255.73865 1279.71240
1289.0 0.000776 1254.98792 1278.18359
1280.0 0.000781 1254.23328 1276.69824
1318.0 0.000759 1253.47437 1275.25159
1360.0 0.000735 1252.71143 1273.83923
1295.0 0.000772 1251.94434 1272.45801
1295.0 0.000772 1251.17322 1271.10474
1225.0 0.000816 1250.39819 1269.77698
1274.0 0.000785 1249.61902 1268.47229
1270.0 0.000787 1248.83594 1267.18896
1294.0 0.000773 1248.04895 1265.92505
1292.0 0.000774 1247.25793 1264.67920
1277.0 0.000783 1246.46301 1263.44958
1330.0 0.000752 1245.66406 1262.23547
1273.0 0.000786 1244.86121 1261.03479
1245.0 0.000803 1244.05457 1259.84729
1294.0 0.000773 1243.24390 1258.67151
1323.0 0.000756 1242.42944 1257.50708
1294.0 0.000773 1241.61121 1256.35266
1282.0 0.000780 1240.78931 1255.20789
1230.0 0.000813 1239.96338 1254.07178
1294.0 0.000773 1239.13379 1252.94360
1269.0 0.000788 1238.30029 1251.82324
1245.0 0.000803 1237.46313 1250.70959
1250.0 0.000800 1236.62231 1249.60254
1221.0 0.000819 1235.77759 1248.50159
1230.0 0.000813 1234.92932 1247.40637
1301.0 0.000769 1234.07751 1246.31653
1297.0 0.000771 1233.22180 1245.23108
1251.0 0.000799 1232.36255 1244.15039
1262.0 0.000792 1231.49976 1243.07434
1252.0 0.000799 1230.63330 1242.00195
1255.0 0.000797 1229.76318 1240.93359
1217.0 0.000822 1228.88953 1239.86865
1238.0 0.000808 1228.01233 1238.80737
1190.0 0.000840 1227.13184 1237.74951
1236.0 0.000809 1226.24756 1236.69507
1207.0 0.000829 1225.35986 1235.64368
1181.0 0.000847 1224.46875 1234.59570
1168.0 0.000856 1223.57410 1233.55127
1239.0 0.000807 1222.67615 1232.51025
1209.0 0.000827 1221.77466 1231.47314
1252.0 0.000799 1220.86975 1230.44092
1284.0 0.000779 1219.96155 1229.41333
1260.0 0.000794 1219.05005 1228.39160
1228.0 0.000814 1218.13525 1227.37622
1222.0 0.000818 1217.21692 1226.36829
1260.0 0.000794 1216.29541 1225.36926
1255.0 0.000797 1215.37061 1225.29651
1246.0 0.000803 1214.44250 1224.32581
1256.0 0.000796 1213.51123 1223.36853
1200.0 0.000833 1212.57666 1222.42578
1146.0 0.000873 1211.63904 1221.49963
1219.0 0.000820 1210.69812 1220.59082
1215.0 0.000823 1209.75415 1219.70081
1223.0 0.000818 1208.80676 1218.83020
1173.0 0.000853 1207.85645 1217.97949
1235.0 0.000810 1206.90295 1217.14734
1213.0 0.000824 1205.94641 1216.33264
1221.0 0.000819 1204.98682 1215.53137
1220.0 0.000820 1204.02429 1214.73926
1239.0 0.000807 1203.05859 1213.94775
1256.0 0.000796 1202.08997 1213.14722
1234.0 0.000810 1201.11829 1212.32324
1260.0 0.000794 1200.14355 1211.46082
1241.0 0.000806 1199.16602 1210.54407
1218.0 0.000821 1198.18555 1209.55957
1229.0 0.000814 1197.20203 1208.49927
1196.0 0.000836 1196.21582 1207.36365
1290.0 0.000775 1195.22681 1206.16052
1247.0 0.000802 1194.23474 1204.90271
1186.0 0.000843 1193.23987 1203.60645
1199.0 0.000834 1192.24219 1202.28687
1188.0 0.000842 1191.24182 1200.95764
1201.0 0.000833 1190.23853 1199.62927
1172.0 0.000853 1189.23254 1198.30920
1181.0 0.000847 1188.22388 1197.00232
1236.0 0.000809 1187.21265 1195.71240
1204.0 0.000831 1186.19861 1194.44031
1216.0 0.000822 1185.18176 1193.18726
1195.0 0.000837 1184.16235 1191.95276
1226.0 0.000816 1183.14038 1190.73584
1202.0 0.000832 1182.11572 1189.53589
1192.0 0.000839 1181.08850 1188.35095
1164.0 0.000859 1180.05872 1187.17981
1190.0 0.000840 1179.02649 1186.02051
1166.0 0.000858 1177.99170 1184.87134
1191.0 0.000840 1176.95422 1183.73120
1168.0 0.000856 1175.91443 1182.59790
1189.0 0.000841 1174.87207 1181.47058
1204.0 0.000831 1173.82739 1180.34827
1200.0 0.000833 1172.78015 1179.22974
1201.0 0.000833 1171.73059 1178.11414
1189.0 0.000841 1170.67859 1177.00098
1196.0 0.000836 1169.62439 1175.88965
1233.0 0.000811 1168.56775 1174.77942
1153.0 0.000867 1167.50879 1173.67017
1192.0 0.000839 1166.44751 1172.56128
1183.0 0.000845 1165.38391 1171.45288
1123.0 0.000890 1164.31799 1170.34473
1184.0 0.000845 1163.25000 1169.23706
1163.0 0.000860 1162.17969 1168.12891
1175.0 0.000851 1161.10742 1167.02124
1177.0 0.000850 1160.03271 1165.91309
1185.0 0.000844 1158.95581 1164.80493
1204.0 0.000831 1157.87683 1163.69641
1249.0 0.000801 1156.79578 1162.58801
1107.0 0.000903 1155.71265 1161.47937
1138.0 0.000879 1154.62732 1160.37085
1146.0 0.000873 1153.53992 1159.26196
1133.0 0.000883 1152.45081 1158.15344
1212.0 0.000825 1151.35950 1157.04504
1197.0 0.000835 1150.26611 1155.93701
1185.0 0.000844 1149.17078 1154.82959
1096.0 0.000912 1148.07336 1153.72266
1171.0 0.000854 1146.97424 1152.61682
1172.0 0.000853 1145.87305 1151.51257
1161.0 0.000861 1144.77002 1150.41028
1111.0 0.000900 1143.66504 1149.31006
1161.0 0.000861 1142.55859 1148.21362
1150.0 0.000870 1141.44995 1147.12073
1128.0 0.000887 1140.33960 1146.03296
1130.0 0.000885 1139.22742 1144.95093
1097.0 0.000912 1138.11340 1143.87659
1109.0 0.000902 1136.99768 1142.81079
1126.0 0.000888 1135.88025 1141.75500
1115.0 0.000897 1134.76111 1140.71094
1071.0 0.000934 1133.64050 1139.67993
1130.0 0.000885 1132.51794 1138.66296
1130.0 0.000885 1131.39380 1137.66199
1064.0 0.000940 1130.26807 1136.67737
1114.0 0.000898 1129.14063 1135.70935
1131.0 0.000884 1128.01172 1134.75818
1145.0 0.000873 1126.88110 1133.82251
1116.0 0.000896 1125.74915 1132.90015
1115.0 0.000897 1124.61572 1131.98779
1160.0 0.000862 1123.48059 1131.29700
1124.0 0.000890 1122.34399 1130.38562
1137.0 0.000880 1121.20593 1129.45898
1097.0 0.000912 1120.06641 1128.50427
1102.0 0.000907 1118.92554 1127.50732
1122.0 0.000891 1117.78320 1126.45447
1095.0 0.000913 1116.63940 1125.33752
1074.0 0.000931 1115.49438 1124.15332
1098.0 0.000911 1114.34827 1122.90601
1115.0 0.000897 1113.20044 1121.60608
1055.0 0.000948 1112.05139 1120.26660
1112.0 0.000899 1110.90112 1118.90210
1066.0 0.000938 1109.74951 1117.52527
1102.0 0.000907 1108.59668 1116.14612
1098.0 0.000911 1107.44263 1114.77234
1091.0 0.000917 1106.28735 1113.41028
1112.0 0.000899 1105.13110 1112.06226
1050.0 0.000952 1103.97363 1110.73035
1074.0 0.000931 1102.81482 1107.35303
1061.0 0.000943 1101.65491 1106.09778
1143.0 0.000875 1100.49402 1104.83337
1098.0 0.000911 1099.33191 1103.58508
1042.0 0.000960 1098.16882 1102.35095
1052.0 0.000951 1097.00464 1101.13025
1087.0 0.000920 1095.83972 1099.92163
1064.0 0.000940 1094.67358 1098.72339
1071.0 0.000934 1093.50635 1097.53394
1117.0 0.000895 1092.33826 1096.35229
1154.0 0.000867 1091.16919 1095.17725
1122.0 0.000891 1089.99927 1094.00757
1103.0 0.000907 1088.82825 1092.84290
1057.0 0.000946 1087.65649 1091.68188
1084.0 0.000923 1086.48389 1090.52429
1073.0 0.000932 1085.31055 1089.36938
1045.0 0.000957 1084.13623 1088.21667
1108.0 0.000903 1082.96106 1087.06604
1047.0 0.000955 1081.78516 1085.91724
1087.0 0.000920 1080.60852 1084.77002
1029.0 0.000972 1079.43103 1083.62427
1103.0 0.000907 1078.25293 1082.47949
1110.0 0.000901 1077.07410 1081.33643
1083.0 0.000923 1075.89465 1080.19446
1072.0 0.000933 1074.71448 1079.05347
1023.0 0.000978 1073.53357 1077.91370
1092.0 0.000916 1072.35205 1076.77478
1059.0 0.000944 1071.16992 1075.63696
988.0 0.001012 1069.98718 1074.50061
1049.0 0.000953 1068.80383 1073.36511
1037.0 0.000964 1067.62000 1072.23071
1055.0 0.000948 1066.43579 1071.09753
1026.0 0.000975 1065.25085 1069.96582
1072.0 0.000933 1064.06543 1068.83496
1031.0 0.000970 1062.87952 1067.70557
1016.0 0.000984 1061.69312 1066.57739
1061.0 0.000943 1060.50635 1065.45020
1091.0 0.000917 1059.31909 1064.32471
1018.0 0.000982 1058.13135 1063.20056
1051.0 0.000951 1056.94336 1062.07813
1084.0 0.000923 1055.75513 1060.95728
1055.0 0.000948 1054.56641 1059.83801
999.0 0.001001 1053.37732 1058.72009
1043.0 0.000959 1052.18787 1057.60425
1060.0 0.000943 1050.99817 1056.48987
1016.0 0.000984 1049.80823 1055.37769
1019.0 0.000981 1048.61792 1054.26721
1043.0 0.000959 1047.42749 1053.02661
1075.0 0.000930 1046.23694 1051.92163
1066.0 0.000938 1045.04614 1050.81860
1043.0 0.000959 1043.85498 1049.71802
1052.0 0.000951 1042.66370 1048.61975
994.0 0.001006 1041.47229 1047.52393
1051.0 0.000951 1040.28076 1046.43054
1010.0 0.000990 1039.08899 1045.34033
1027.0 0.000974 1037.89734 1044.25244
983.0 0.001017 1036.70569 1043.16772
1041.0 0.000961 1035.51379 1042.08606
1086.0 0.000921 1034.32178 1041.00757
1064.0 0.000940 1033.12988 1039.93225
1075.0 0.000930 1031.93787 1038.86060
1045.0 0.000957 1030.74597 1037.79224
1042.0 0.000960 1029.55396 1036.72803
1036.0 0.000965 1028.36206 1035.66724
1034.0 0.000967 1027.17017 1034.61084
1023.0 0.000978 1025.97864 1033.55884
1040.0 0.000962 1024.78699 1032.51123
990.0 0.001010 1023.59540 1031.46790
1081.0 0.000925 1022.40399 1030.42944
982.0 0.001018 1021.21277 1029.39624
1037.0 0.000964 1020.02161 1028.20239
1035.0 0.000966 1018.83069 1027.18091
1095.0 0.000913 1017.63995 1026.16516
1040.0 0.000962 1016.44965 1025.15588
1015.0 0.000985 1015.25940 1024.15234
1021.0 0.000979 1014.06934 1023.15527
1050.0 0.000952 1012.87958 1022.16504
1059.0 0.000944 1011.69012 1021.18188
1054.0 0.000949 1010.50085 1020.20605
1089.0 0.000918 1009.31201 1019.23816
1040.0 0.000962 1008.12347 1018.27832
1005.0 0.000995 1006.93555 1017.32727
1024.0 0.000977 1005.74774 1016.38489
1007.0 0.000993 1004.56024 1015.45184
1020.0 0.000980 1003.37317 1014.52869
959.0 0.001043 1002.18658 1013.61578
995.0 0.001005 1001.00037 1012.71362
1036.0 0.000965 999.81458 1011.82281
1054.0 0.000949 998.62933 1010.94409
996.0 0.001004 997.44446 1010.07770
1008.0 0.000992 996.26038 1009.22479
982.0 0.001018 995.07654 1008.38544
1016.0 0.000984 993.89325 1007.56097
1017.0 0.000983 992.71057 1006.75183
981.0 0.001019 991.52832 1005.95892
1016.0 0.000984 990.34668 1005.18317
952.0 0.001050 989.16571 1004.42560
1006.0 0.000994 987.98529 1003.68713
1020.0 0.000980 986.80566 1002.96924
986.0 0.001014 985.62646 1002.27271
936.0 0.001068 984.44794 1001.59882
958.0 0.001044 983.27008 1000.94922
932.0 0.001073 982.09290 1000.32513
949.0 0.001054 980.91638 999.72815
914.0 0.001094 979.74060 999.16034
972.0 0.001029 978.56555 998.62323
1004.0 0.000996 977.39142 998.11926
1007.0 0.000993 976.21790 997.65002
985.0 0.001015 975.04510 997.21826
1028.0 0.000973 973.87305 996.82648
987.0 0.001013 972.70184 996.47736
977.0 0.001024 971.53143 996.17407
977.0 0.001024 970.36182 995.92004
987.0 0.001013 969.19312 995.71887
937.0 0.001067 968.02521 996.72449
952.0 0.001050 966.85846 996.65021
953.0 0.001049 965.69232 996.64203
997.0 0.001003 964.52704 996.70544
951.0 0.001052 963.36279 996.84686
1008.0 0.000992 962.19934 997.07288
991.0 0.001009 961.03693 997.39178
999.0 0.001001 959.87543 997.81238
983.0 0.001017 958.71484 998.34515
957.0 0.001045 957.55554 999.00281
939.0 0.001065 956.39697 999.79944
981.0 0.001019 955.23938 1000.75287
938.0 0.001066 954.08289 1001.88428
931.0 0.001074 952.92737 1003.21967
973.0 0.001028 951.77295 1004.79010
990.0 0.001010 950.61951 1006.63446
970.0 0.001031 949.46722 1008.79999
952.0 0.001050 948.31622 1011.34454
964.0 0.001037 947.16608 1014.33765
980.0 0.001020 946.01703 1017.86389
942.0 0.001062 944.86920 1022.02484
1008.0 0.000992 943.72241 1026.93970
998.0 0.001002 942.57678 1032.74927
983.0 0.001017 941.43237 1039.61487
1031.0 0.000970 940.28912 1047.72058
1001.0 0.000999 939.14703 1057.27185
997.0 0.001003 938.00641 1068.49475
1016.0 0.000984 936.86676 1081.63049
1021.0 0.000979 935.72833 1096.93384
1068.0 0.000936 934.59113 1114.66333
1093.0 0.000915 933.45520 1135.07446
1126.0 0.000888 932.32056 1158.40894
1145.0 0.000873 931.18713 1184.88171
1180.0 0.000847 930.05499 1214.66858
1183.0 0.000845 928.92438 1247.88940
1267.0 0.000789 927.79486 1284.59338
1301.0 0.000769 926.66675 1324.91711
1320.0 0.000758 925.53986 1368.35278
1344.0 0.000744 924.41437 1414.78796
1337.0 0.000748 923.29022 1463.76746
1485.0 0.000673 922.16748 1514.63477
1533.0 0.000652 921.04602 1566.49121
1644.0 0.000608 919.92621 1618.15784
1619.0 0.000618 918.80762 1668.14490
1677.0 0.000596 917.69043 1714.65845
1786.0 0.000560 916.57465 1755.65784
1805.0 0.000554 915.46033 1788.99646
1857.0 0.000539 914.34741 1812.64941
1827.0 0.000547 913.23602 1824.99658
1880.0 0.000532 912.12598 1825.09839
1787.0 0.000560 911.01752 1812.87207
1810.0 0.000552 909.91071 1789.10925
1743.0 0.000574 908.80524 1755.32251
1662.0 0.000602 907.70123 1713.48572
1712.0 0.000584 906.59875 1665.74170
1596.0 0.000627 905.49780 1614.16431
1557.0 0.000642 904.39838 1560.59998
1477.0 0.000677 903.30054 1506.59229
1510.0 0.000662 902.20422 1453.38354
1434.0 0.000697 901.10968 1401.91833
1350.0 0.000741 900.01654 1352.89441
1312.0 0.000762 898.92499 1306.80164
1259.0 0.000794 897.83502 1263.95740
1187.0 0.000842 896.74664 1224.53833
1203.0 0.000831 895.65991 1188.60461
1154.0 0.000867 894.57477 1156.12305
1179.0 0.000848 893.49127 1126.98511
1089.0 0.000918 892.40967 1101.02527
1094.0 0.000914 891.32947 1078.03418
1013.0 0.000987 890.25098 1057.77454
1014.0 0.000986 889.17413 1039.99341
1012.0 0.000988 888.09900 1024.43140
1009.0 0.000991 887.02551 1010.83429
988.0 0.001012 885.95374 998.95874
1006.0 0.000994 884.88367 988.57288
959.0 0.001043 883.81537 979.46942
1001.0 0.000999 882.74896 971.46106
941.0 0.001063 881.68408 964.38196
957.0 0.001045 880.62091 958.08875
968.0 0.001033 879.55951 952.45850
930.0 0.001075 878.49988 947.38751
945.0 0.001058 877.44208 942.78882
899.0 0.001112 876.38593 938.59033
908.0 0.001101 875.33167 934.73309
981.0 0.001019 874.27930 931.16931
937.0 0.001067 873.22864 927.85913
905.0 0.001105 872.17975 924.77081
890.0 0.001124 871.13263 921.87878
904.0 0.001106 870.08734 919.16229
870.0 0.001149 869.04395 916.60382
862.0 0.001160 868.00232 914.18988
896.0 0.001116 866.96259 911.90894
925.0 0.001081 865.92487 909.75201
906.0 0.001104 864.88879 907.71088
908.0 0.001101 863.85468 905.78003
935.0 0.001070 862.82239 903.95386
901.0 0.001110 861.79193 902.22864
878.0 0.001139 860.76337 900.60132
903.0 0.001107 859.73676 899.06976
917.0 0.001091 858.71204 897.63269
869.0 0.001151 857.68921 896.28961
894.0 0.001119 856.66846 895.04108
918.0 0.001089 855.64948 893.88812
881.0 0.001135 854.63245 892.83325
890.0 0.001124 853.61725 891.88013
869.0 0.001151 852.60406 891.03375
912.0 0.001096 851.59283 890.30078
903.0 0.001107 850.58356 889.69019
875.0 0.001143 849.57623 889.21368
834.0 0.001199 848.57104 888.88611
871.0 0.001148 847.56763 888.72650
894.0 0.001119 846.56622 888.75958
879.0 0.001138 845.56677 889.01538
887.0 0.001127 844.56934 889.53302
878.0 0.001139 843.57385 890.35925
872.0 0.001147 842.58038 891.55176
885.0 0.001130 841.58893 893.17920
882.0 0.001134 840.59967 895.32220
867.0 0.001153 839.61224 898.07312
858.0 0.001166 838.62683 901.53577
915.0 0.001093 837.64343 905.82355
927.0 0.001079 836.66211 911.05640
856.0 0.001168 835.68280 917.35706
902.0 0.001109 834.70551 924.84503
884.0 0.001131 833.73029 933.63007
906.0 0.001104 832.75708 943.80328
939.0 0.001065 831.78613 955.42633
975.0 0.001026 830.81708 968.51593
974.0 0.001027 829.85010 983.02698
978.0 0.001022 828.88513 998.82434
883.0 0.001133 827.92230 1015.64954
955.0 0.001047 826.96149 1033.07629
961.0 0.001041 826.00281 1050.46472
987.0 0.001013 825.04620 1066.94519
984.0 0.001016 824.09180 1081.41833
1024.0 0.000977 823.13940 1092.66809
1040.0 0.000962 822.18909 1099.55811
953.0 0.001049 821.24084 1101.28613
988.0 0.001012 820.29468 1097.60522
959.0 0.001043 819.35071 1088.89807
994.0 0.001006 818.40875 1076.06580
930.0 0.001075 817.46893 1060.29065
924.0 0.001082 816.53143 1042.78394
973.0 0.001028 815.59589 1024.60693
943.0 0.001060 814.66248 1006.58838
949.0 0.001054 813.73120 989.31647
961.0 0.001041 812.80200 973.17242
926.0 0.001080 811.87500 958.37402
921.0 0.001086 810.95007 945.01624
933.0 0.001072 810.02734 933.10370
922.0 0.001085 809.10675 922.57422
938.0 0.001066 808.18848 913.31702
959.0 0.001043 807.27216 905.18634
935.0 0.001070 806.35803 898.01685
892.0 0.001121 805.44604 891.63501
888.0 0.001126 804.53619 885.87317
891.0 0.001122 803.62848 880.58191
871.0 0.001148 802.72302 875.63904
887.0 0.001127 801.81964 870.95374
876.0 0.001142 800.91858 866.46698
842.0 0.001188 800.01959 862.14545
859.0 0.001164 799.12274 857.97540
894.0 0.001119 798.22809 853.95544
829.0 0.001206 797.33563 850.08948
798.0 0.001253 796.44531 846.38385
841.0 0.001189 795.55713 842.84448
872.0 0.001147 794.67120 839.47559
881.0 0.001135 793.78760 836.27997
852.0 0.001174 792.90601 833.25763
824.0 0.001214 792.02661 830.40729
845.0 0.001183 791.14941 827.72626
836.0 0.001196 790.27435 825.20953
842.0 0.001188 789.40155 822.85132
863.0 0.001159 788.53088 820.64459
844.0 0.001185 787.66241 818.58124
849.0 0.001178 786.79620 816.65240
854.0 0.001171 785.93225 814.84930
833.0 0.001200 785.07043 813.16205
828.0 0.001208 784.21075 811.58130
798.0 0.001253 783.35327 810.09796
847.0 0.001181 782.49799 808.70331
786.0 0.001272 781.64490 807.38904
787.0 0.001271 780.79407 806.14746
846.0 0.001182 779.94537 804.97168
872.0 0.001147 779.09906 803.85565
834.0 0.001199 778.25476 802.79370
806.0 0.001241 777.41266 801.78119
818.0 0.001222 776.57281 801.58643
844.0 0.001185 775.73517 800.66705
825.0 0.001212 774.89966 799.78699
815.0 0.001227 774.06641 798.94336
830.0 0.001205 773.23535 798.13495
781.0 0.001280 772.40668 797.35992
835.0 0.001198 771.58002 796.61688
822.0 0.001217 770.75555 795.90515
818.0 0.001222 769.93329 795.22400
817.0 0.001224 769.11322 794.57306
800.0 0.001250 768.29535 793.95215
814.0 0.001229 767.47974 793.36121
791.0 0.001264 766.66632 792.80023
794.0 0.001259 765.85504 792.26959
790.0 0.001266 765.04614 791.76984
772.0 0.001295 764.23932 791.30109
843.0 0.001186 763.43463 790.86414
796.0 0.001256 762.63220 790.45996
823.0 0.001215 761.83197 790.08936
841.0 0.001189 761.03387 789.75317
834.0 0.001199 760.23798 789.45306
861.0 0.001161 759.44434 789.19012
813.0 0.001230 758.65302 788.96619
819.0 0.001221 757.86371 788.78284
867.0 0.001153 757.07660 788.64203
805.0 0.001242 756.29169 788.54620
833.0 0.001200 755.50897 788.49811
817.0 0.001224 754.72839 788.50067
806.0 0.001241 753.95007 788.55768
794.0 0.001259 753.17389 788.67285
833.0 0.001200 752.40009 788.85150
845.0 0.001183 751.62823 789.09900
836.0 0.001196 750.85858 789.42181
842.0 0.001188 750.09113 789.82831
811.0 0.001233 749.32587 790.32758
776.0 0.001289 748.56281 790.93073
792.0 0.001263 747.80182 791.65167
812.0 0.001232 747.04309 792.50562
869.0 0.001151 746.28650 793.51147
824.0 0.001214 745.53217 794.69220
812.0 0.001232 744.77991 796.07336
827.0 0.001209 744.02979 797.68671
836.0 0.001196 743.28186 799.56793
864.0 0.001157 742.53607 801.75952
838.0 0.001193 741.79242 804.31036
892.0 0.001121 741.05090 807.27606
797.0 0.001255 740.31158 810.72009
841.0 0.001189 739.57458 814.71436
870.0 0.001149 738.83948 819.33862
926.0 0.001080 738.10657 824.68127
832.0 0.001202 737.37579 830.83887
880.0 0.001136 736.64716 837.91614
906.0 0.001104 735.92065 846.02405
869.0 0.001151 735.19629 855.27997
909.0 0.001100 734.47406 865.80511
926.0 0.001080 733.75409 877.72284
938.0 0.001066 733.03613 891.15558
980.0 0.001020 732.32019 906.22278
1023.0 0.000978 731.60645 923.03650
1009.0 0.000991 730.89484 941.69885
1031.0 0.000970 730.18524 962.29657
985.0 0.001015 729.47784 984.89752
1012.0 0.000988 728.77252 1009.54608
1010.0 0.000990 728.06927 1036.25867
1073.0 0.000932 727.36829 1065.01880
1147.0 0.000872 726.66919 1095.77246
1148.0 0.000871 725.97223 1128.42456
1197.0 0.000835 725.27740 1162.83191
1245.0 0.000803 724.58459 1198.80164
1252.0 0.000799 723.89386 1236.08325
1222.0 0.000818 723.20526 1274.36462
1318.0 0.000759 722.51868 1313.26685
1335.0 0.000749 721.83429 1352.33777
1407.0 0.000711 721.15192 1391.04858
1292.0 0.000774 720.47150 1428.79163
1359.0 0.000736 719.79315 1464.88196
1584.0 0.000631 719.11688 1498.56787
1477.0 0.000677 718.44269 1529.04907
1515.0 0.000660 717.77051 1555.50867
1504.0 0.000665 717.10034 1577.15845
1578.0 0.000634 716.43243 1593.29102
1570.0 0.000637 715.76630 1603.33997
1616.0 0.000619 715.10229 1606.93396
1581.0 0.000633 714.44025 1603.93433
1586.0 0.000631 713.78021 1594.45203
1591.0 0.000629 713.12225 1578.83533
1596.0 0.000627 712.46631 1557.63538
1568.0 0.000638 711.81232 1531.55408
1585.0 0.000631 711.16034 1501.38586
1459.0 0.000685 710.51050 1467.96436
1460.0 0.000685 709.86249 1432.11377
1408.0 0.000710 709.21649 1394.61877
1428.0 0.000700 708.57251 1356.20337
1384.0 0.000723 707.93042 1317.51904
1365.0 0.000733 707.29041 1279.14465
1306.0 0.000766 706.65228 1241.58484
1335.0 0.000749 706.01617 1205.27686
1225.0 0.000816 705.38208 1170.59412
1196.0 0.000836 704.74988 1137.85046
1158.0 0.000864 704.11957 1107.30554
1117.0 0.000895 703.49127 1079.16785
1122.0 0.000891 702.86487 1053.59692
1011.0 0.000989 702.24042 1030.70605
1038.0 0.000963 701.61792 1010.56354
974.0 0.001027 700.99731 993.37262
991.0 0.001009 700.37872 978.76068
988.0 0.001012 699.76196 966.84454
949.0 0.001054 699.14709 957.52106
989.0 0.001011 698.53412 950.64331
943.0 0.001060 697.92310 946.01605
964.0 0.001037 697.31390 943.39191
956.0 0.001046 696.70660 942.46387
930.0 0.001075 696.10120 942.85730
919.0 0.001088 695.49768 944.12360
951.0 0.001052 694.89612 945.74182
932.0 0.001073 694.29639 947.13135
975.0 0.001026 693.69843 947.68793
935.0 0.001070 693.10236 946.84070
927.0 0.001079 692.50818 944.12531
919.0 0.001088 691.91577 938.25623
923.0 0.001083 691.32520 931.16705
908.0 0.001101 690.73651 922.00214
893.0 0.001120 690.14978 911.08441
885.0 0.001130 689.56464 898.83923
908.0 0.001101 688.98138 885.72241
886.0 0.001129 688.39996 872.16327
868.0 0.001152 687.82031 858.53094
880.0 0.001136 687.24249 845.12250
862.0 0.001160 686.66644 832.16418
813.0 0.001230 686.09216 819.81964
793.0 0.001261 685.51984 808.20032
815.0 0.001227 684.94910 797.37561
780.0 0.001282 684.38013 787.38110
800.0 0.001250 683.81299 778.22546
802.0 0.001247 683.24756 769.89624
770.0 0.001299 682.68384 762.36432
727.0 0.001376 682.12189 756.46674
758.0 0.001319 681.56177 750.40204
701.0 0.001427 681.00323 744.98590
733.0 0.001364 680.44659 740.15924
760.0 0.001316 679.89160 735.86151
737.0 0.001357 679.33832 732.03418
709.0 0.001410 678.78668 728.62134
756.0 0.001323 678.23682 725.57092
740.0 0.001351 677.68860 722.83514
767.0 0.001304 677.14203 720.37177
723.0 0.001383 676.59723 718.14215
678.0 0.001475 676.05414 716.11304
714.0 0.001401 675.51263 714.25415
749.0 0.001335 674.97284 712.53839
737.0 0.001357 674.43463 710.94092
716.0 0.001397 673.89807 709.43805
751.0 0.001332 673.36322 708.00769
710.0 0.001408 672.82996 706.62921
722.0 0.001385 672.29834 705.28473
737.0 0.001357 671.76843 703.96088
693.0 0.001443 671.24005 702.64948
704.0 0.001420 670.71332 701.34888
722.0 0.001385 670.18811 700.06195
720.0 0.001389 669.66455 698.79413
715.0 0.001399 669.14258 697.55188
669.0 0.001495 668.62219 696.34058
692.0 0.001445 668.10333 695.16486
702.0 0.001425 667.58612 694.02698
707.0 0.001414 667.07050 692.92883
678.0 0.001475 666.55634 691.87012
711.0 0.001406 666.04376 690.85071
698.0 0.001433 665.53271 689.86951
705.0 0.001418 665.02319 688.92523
681.0 0.001468 664.51526 688.01617
770.0 0.001299 664.00879 687.26434
725.0 0.001379 663.50385 686.42133
695.0 0.001439 663.00055 685.60846
652.0 0.001534 662.49860 684.82361
716.0 0.001397 661.99817 684.06525
673.0 0.001486 661.49921 683.33173
689.0 0.001451 661.00177 682.62177
710.0 0.001408 660.50580 681.93396
702.0 0.001425 660.01129 681.26740
716.0 0.001397 659.51825 680.62091
703.0 0.001422 659.02673 679.99377
741.0 0.001350 658.53656 679.38501
694.0 0.001441 658.04785 678.79425
669.0 0.001495 657.56055 678.22083
660.0 0.001515 657.07471 677.66443
669.0 0.001495 656.59027 677.12482
665.0 0.001504 656.10724 676.60156
664.0 0.001506 655.62561 676.09460
686.0 0.001458 655.14539 675.60376
663.0 0.001508 654.66669 675.12909
703.0 0.001422 654.18927 674.67047
622.0 0.001608 653.71313 674.22778
701.0 0.001427 653.23846 673.80115
729.0 0.001372 652.76514 673.39087
700.0 0.001429 652.29315 672.99689
685.0 0.001460 651.82251 672.61957
639.0 0.001565 651.35321 672.25928
700.0 0.001429 650.88538 671.91608
683.0 0.001464 650.41870 671.59015
705.0 0.001418 649.95343 671.28229
688.0 0.001453 649.48938 670.99255
667.0 0.001499 649.02673 670.72192
655.0 0.001527 648.56537 670.47046
611.0 0.001637 648.10522 670.23920
698.0 0.001433 647.64642 670.02850
670.0 0.001493 647.18896 669.83929
662.0 0.001511 646.73273 669.67230
681.0 0.001468 646.27771 669.29010
707.0 0.001414 645.82397 669.17224
636.0 0.001572 645.37146 669.07953
673.0 0.001486 644.92023 669.01306
678.0 0.001475 644.47015 668.97418
644.0 0.001553 644.02136 668.96460
678.0 0.001475 643.57379 668.98541
646.0 0.001548 643.12750 669.03851
704.0 0.001420 642.68237 669.12567
685.0 0.001460 642.23840 669.24890
718.0 0.001393 641.79565 669.41046
682.0 0.001466 641.35406 669.61279
671.0 0.001490 640.91364 669.85846
744.0 0.001344 640.47443 670.15070
719.0 0.001391 640.03632 670.49286
671.0 0.001490 639.59949 670.88892
673.0 0.001486 639.16370 671.34296
684.0 0.001462 638.72906 671.86005
668.0 0.001497 638.29559 672.44647
704.0 0.001420 637.86322 673.08020
670.0 0.001493 637.43195 673.82660
663.0 0.001508 637.00183 674.66687
670.0 0.001493 636.57281 675.61243
702.0 0.001425 636.14496 676.67731
659.0 0.001517 635.71808 677.87866
683.0 0.001464 635.29236 679.23669
699.0 0.001431 634.86768 680.77637
684.0 0.001462 634.44403 682.52777
702.0 0.001425 634.02148 684.52704
721.0 0.001387 633.59998 686.81750
664.0 0.001506 633.17957 689.45062
695.0 0.001439 632.76013 692.48743
733.0 0.001364 632.34186 695.99866
681.0 0.001468 631.92450 700.06665
734.0 0.001362 631.50812 704.78522
716.0 0.001397 631.09283 710.26025
739.0 0.001353 630.67853 716.61017
707.0 0.001414 630.26520 723.96368
741.0 0.001350 629.85284 732.46008
779.0 0.001284 629.44153 742.24628
717.0 0.001395 629.03119 753.47388
806.0 0.001241 628.62183 766.29596
811.0 0.001233 628.21338 780.86163
764.0 0.001309 627.80591 797.31128
798.0 0.001253 627.39935 815.76978
857.0 0.001167 626.99377 836.34052
871.0 0.001148 626.58911 859.09631
882.0 0.001134 626.18542 884.07410
919.0 0.001088 625.78265 911.26361
955.0 0.001047 625.38074 940.60120
1021.0 0.000979 624.97974 971.95752
1025.0 0.000976 624.57965 1005.12952
1063.0 0.000941 624.18048 1039.82520
1104.0 0.000906 623.78210 1075.66333
1137.0 0.000880 623.38470 1112.10974
1103.0 0.000907 622.98816 1148.53308
1176.0 0.000850 622.59241 1184.14502
1219.0 0.000820 622.19763 1218.01270
1234.0 0.000810 621.80365 1249.07129
1253.0 0.000798 621.41046 1276.16907
1240.0 0.000806 621.01813 1298.14429
1246.0 0.000803 620.62671 1313.93103
1242.0 0.000805 620.23596 1322.68604
1267.0 0.000789 619.84613 1323.90479
1292.0 0.000774 619.45709 1317.49805
1154.0 0.000867 619.06891 1303.80713
1200.0 0.000833 618.68146 1283.54944
1215.0 0.000823 618.29480 1257.71533
1154.0 0.000867 617.90894 1227.45471
1192.0 0.000839 617.52380 1193.90991
1088.0 0.000919 617.13947 1158.19983
1147.0 0.000872 616.75586 1121.31519
1033.0 0.000968 616.37305 1084.10437
1048.0 0.000954 615.99103 1047.26807
957.0 0.001045 615.60968 1011.36975
989.0 0.001011 615.22906 976.84875
932.0 0.001073 614.84924 944.03638
917.0 0.001091 614.47009 913.17084
924.0 0.001082 614.09161 884.41016
911.0 0.001098 613.71387 857.84351
885.0 0.001130 613.33679 833.50214
863.0 0.001159 612.96045 811.36731
835.0 0.001198 612.58490 791.38025
797.0 0.001255 612.20990 773.44897
854.0 0.001171 611.83557 757.45673
791.0 0.001264 611.46198 743.26904
830.0 0.001205 611.08899 730.73956
737.0 0.001357 610.71667 719.71625
757.0 0.001321 610.34497 710.04688
715.0 0.001399 609.97394 701.58197
756.0 0.001323 609.60364 694.17950
777.0 0.001287 609.23383 687.70581
789.0 0.001267 608.86469 682.03870
708.0 0.001412 608.49615 677.06726
716.0 0.001397 608.12823 672.69312
700.0 0.001429 607.76086 668.82922
730.0 0.001370 607.39417 665.40057
739.0 0.001353 607.02802 662.34247
706.0 0.001416 606.66254 659.60004
681.0 0.001468 606.29755 657.12708
712.0 0.001404 605.93311 654.88464
745.0 0.001342 605.56927 652.84076
703.0 0.001422 605.20599 650.96881
695.0 0.001439 604.84326 649.24701
666.0 0.001502 604.48108 647.65778
683.0 0.001464 604.11945 646.18585
668.0 0.001497 603.75830 644.81940
625.0 0.001600 603.39777 643.54858
660.0 0.001515 603.03772 642.36481
709.0 0.001410 602.67816 641.26129
675.0 0.001481 602.31909 640.23267
699.0 0.001431 601.96051 639.27405
697.0 0.001435 601.60248 638.38171
676.0 0.001479 601.24493 637.55194
633.0 0.001580 600.88782 636.78229
657.0 0.001522 600.53131 636.07074
654.0 0.001529 600.17517 635.41492
635.0 0.001575 599.81952 634.81384
640.0 0.001563 599.46436 634.26666
680.0 0.001471 599.10962 633.77258
667.0 0.001499 598.75531 633.33173
658.0 0.001520 598.40149 632.94440
679.0 0.001473 598.04803 632.61163
649.0 0.001541 597.69513 632.33478
664.0 0.001506 597.34259 632.11597
642.0 0.001558 596.99042 631.95819
642.0 0.001558 596.63873 631.86511
677.0 0.001477 596.28741 631.84167
617.0 0.001621 595.93646 631.89362
643.0 0.001555 595.58600 632.02820
619.0 0.001616 595.23584 632.25372
653.0 0.001531 594.88611 632.58057
654.0 0.001529 594.53687 633.02087
651.0 0.001536 594.18781 632.33643
631.0 0.001585 593.83923 633.05597
648.0 0.001543 593.49097 633.93591
657.0 0.001522 593.14307 634.99597
607.0 0.001647 592.79553 636.25836
618.0 0.001618 592.44836 637.74634
672.0 0.001488 592.10150 639.48535
719.0 0.001391 591.75507 641.50208
703.0 0.001422 591.40887 643.82361
643.0 0.001555 591.06299 646.47754
674.0 0.001484 590.71747 649.49097
696.0 0.001437 590.37225 652.88947
694.0 0.001441 590.02734 656.69672
682.0 0.001466 589.68268 660.93292
672.0 0.001488 589.33838 665.61395
639.0 0.001565 588.99445 670.75073
664.0 0.001506 588.65070 676.34698
693.0 0.001443 588.30725 682.39917
703.0 0.001422 587.96411 688.89520
699.0 0.001431 587.62122 695.81183
727.0 0.001376 587.27856 703.11566
713.0 0.001403 586.93622 710.75897
701.0 0.001427 586.59412 718.68066
766.0 0.001305 586.25226 726.80286
712.0 0.001404 585.91071 735.03015
718.0 0.001393 585.56940 743.24823
725.0 0.001379 585.22827 751.32446
742.0 0.001348 584.88733 759.10834
785.0 0.001274 584.54669 766.43860
797.0 0.001255 584.20630 773.14990
757.0 0.001321 583.86603 779.08722
789.0 0.001267 583.52606 784.86023
753.0 0.001328 583.18634 788.91217
790.0 0.001266 582.84674 791.95227
760.0 0.001316 582.50739 794.02667
735.0 0.001361 582.16815 795.25629
772.0 0.001295 581.82916 795.63641
812.0 0.001232 581.49036 795.80560
821.0 0.001218 581.15173 795.85767
858.0 0.001166 580.81329 796.10895
826.0 0.001211 580.47510 796.89063
782.0 0.001279 580.13696 798.53790
815.0 0.001227 579.79907 801.38324
810.0 0.001235 579.46124 805.75275
791.0 0.001264 579.12366 811.96143
799.0 0.001252 578.78613 820.30988
856.0 0.001168 578.44885 831.08069
838.0 0.001193 578.11163 844.53174
862.0 0.001160 577.77460 860.89056
904.0 0.001106 577.43774 880.34521
869.0 0.001151 577.10095 903.03540
895.0 0.001117 576.76428 929.04254
958.0 0.001044 576.42773 958.37781
981.0 0.001019 576.09131 990.96985
1009.0 0.000991 575.75500 1026.65051
1072.0 0.000933 575.41882 1065.13696
1142.0 0.000876 575.08270 1106.01404
1211.0 0.000826 574.74677 1148.70776
1255.0 0.000797 574.41089 1192.46082
1242.0 0.000805 574.07513 1236.30688
1315.0 0.000760 573.73938 1279.05273
1289.0 0.000776 573.40375 1319.38757
1285.0 0.000778 573.06824 1355.49548
1375.0 0.000727 572.73273 1385.78577
1380.0 0.000725 572.39734 1408.61633
1390.0 0.000719 572.06207 1422.59668
1427.0 0.000701 571.72687 1426.78650
1452.0 0.000689 571.39166 1420.85193
1395.0 0.000717 571.05652 1405.12280
1385.0 0.000722 570.72144 1380.53284
1365.0 0.000733 570.38641 1348.46289
1286.0 0.000778 570.05139 1310.54004
1257.0 0.000796 569.71649 1268.44324
1192.0 0.000839 569.38159 1223.76172
1155.0 0.000866 569.04681 1177.89673
1108.0 0.000903 568.71198 1132.02942
1046.0 0.000956 568.37720 1087.12048
1017.0 0.000983 568.04242 1043.92810
976.0 0.001025 567.70770 1003.03381
958.0 0.001044 567.37299 964.87018
944.0 0.001059 567.03827 929.74481
854.0 0.001171 566.70361 897.86029
816.0 0.001225 566.36896 869.33063
854.0 0.001171 566.03430 844.19476
807.0 0.001239 565.69971 822.42920
761.0 0.001314 565.36499 803.95605
762.0 0.001312 565.03033 788.65295
806.0 0.001241 564.69568 776.35950
754.0 0.001326 564.36102 766.88196
757.0 0.001321 564.02637 759.99695
759.0 0.001318 563.69165 755.45087
745.0 0.001342 563.35699 752.95691
720.0 0.001389 563.02228 752.18811
768.0 0.001302 562.68750 752.76721
713.0 0.001403 562.35272 754.25647
685.0 0.001460 562.01794 756.15112
718.0 0.001393 561.68304 757.88898
724.0 0.001381 561.34821 758.88165
778.0 0.001285 561.01331 758.57434
731.0 0.001368 560.67841 756.52679
725.0 0.001379 560.34338 752.49078
692.0 0.001445 560.00836 746.45074
719.0 0.001391 559.67328 738.61377
692.0 0.001445 559.33820 729.34503
701.0 0.001427 559.00299 719.08539
684.0 0.001462 558.66772 708.27283
663.0 0.001508 558.33246 697.29138
643.0 0.001555 557.99713 686.88123
654.0 0.001529 557.66174 676.40930
637.0 0.001570 557.32623 666.46368
637.0 0.001570 556.99072 657.14685
652.0 0.001534 556.65509 648.51678
579.0 0.001727 556.31940 640.59851
598.0 0.001672 555.98364 633.39105
577.0 0.001733 555.64777 626.87439
609.0 0.001642 555.31195 621.01501
617.0 0.001621 554.97595 615.76886
600.0 0.001667 554.63983 611.08569
572.0 0.001748 554.30365 606.91211
605.0 0.001653 553.96747 603.19354
571.0 0.001751 553.63110 599.87659
576.0 0.001736 553.29468 596.91040
579.0 0.001727 552.95813 594.24799
557.0 0.001795 552.62152 591.84674
573.0 0.001745 552.28485 589.66913
539.0 0.001855 551.94806 587.68256
590.0 0.001695 551.61115 585.85840
568.0 0.001761 551.27411 584.17328
594.0 0.001684 550.93701 582.60730
579.0 0.001727 550.59973 581.14355
568.0 0.001761 550.26245 579.76910
561.0 0.001783 549.92499 578.47217
560.0 0.001786 549.58752 577.24371
576.0 0.001736 549.24982 576.07605
554.0 0.001805 548.91205 574.96320
552.0 0.001812 548.57416 573.89948
548.0 0.001825 548.23615 572.88074
565.0 0.001770 547.89801 571.90302
540.0 0.001852 547.55975 570.96326
548.0 0.001825 547.22137 570.05817
561.0 0.001783 546.88293 569.18585
533.0 0.001876 546.54431 568.34375
527.0 0.001898 546.20551 567.53003
546.0 0.001832 545.86664 566.74304
545.0 0.001835 545.52765 565.98102
561.0 0.001783 545.18854 565.24249
555.0 0.001802 544.84924 564.52655
542.0 0.001845 544.50989 563.83185
545.0 0.001835 544.17029 563.15723
548.0 0.001825 543.83069 562.50208
541.0 0.001848 543.49078 561.86548
541.0 0.001848 543.15088 561.24677
546.0 0.001832 542.81073 560.64514
546.0 0.001832 542.47058 560.06042
496.0 0.002016 542.13031 559.49219
573.0 0.001745 541.78973 558.93994
569.0 0.001757 541.44910 558.40375
545.0 0.001835 541.10828 557.88342
566.0 0.001767 540.76740 557.37933
546.0 0.001832 540.42627 556.89166
551.0 0.001815 540.08508 556.42139
508.0 0.001969 539.74371 555.96887
519.0 0.001927 539.40216 555.53534
562.0 0.001779 539.06055 555.12274
578.0 0.001730 538.71869 554.73236
511.0 0.001957 538.37677 554.36700
590.0 0.001695 538.03455 554.02924
574.0 0.001742 537.69232 553.72266
540.0 0.001852 537.34985 553.45062
513.0 0.001949 537.00732 553.21796
555.0 0.001802 536.66461 553.02887
523.0 0.001912 536.32172 552.88831
515.0 0.001942 535.97870 552.80182
539.0 0.001855 535.63544 552.77411
496.0 0.002016 535.29218 552.81042
561.0 0.001783 534.94861 552.91510
516.0 0.001938 534.60498 553.11987
532.0 0.001880 534.26105 553.37183
550.0 0.001818 533.91718 553.69971
518.0 0.001931 533.57306 554.10278
571.0 0.001751 533.22876 554.57690
545.0 0.001835 532.88434 555.11493
560.0 0.001786 532.53967 555.70502
556.0 0.001799 532.19495 556.32959
560.0 0.001786 531.84998 556.96362
558.0 0.001792 531.50494 557.57648
543.0 0.001842 531.15973 557.27570
517.0 0.001934 530.81427 557.73785
547.0 0.001828 530.46881 558.06458
519.0 0.001927 530.12299 558.22864
542.0 0.001845 529.77716 558.21741
585.0 0.001709 529.43109 558.03662
561.0 0.001783 529.08490 557.70801
495.0 0.002020 528.73853 557.26367
537.0 0.001862 528.39203 556.73975
514.0 0.001946 528.04547 556.16986
538.0 0.001859 527.69855 555.58118
547.0 0.001828 527.35162 554.99304
573.0 0.001745 527.00439 554.41650
540.0 0.001852 526.65717 553.85590
551.0 0.001815 526.30963 553.30627
537.0 0.001862 525.96204 552.76111
538.0 0.001859 525.61420 552.21002
533.0 0.001876 525.26630 551.64069
495.0 0.002020 524.91827 551.04181
527.0 0.001898 524.56995 550.40338
510.0 0.001961 524.22162 549.72034
541.0 0.001848 523.87299 548.99048
559.0 0.001789 523.52435 548.21655
513.0 0.001949 523.17535 547.40405
537.0 0.001862 522.82642 546.56183
516.0 0.001938 522.47729 545.69977
503.0 0.001988 522.12793 544.82751
570.0 0.001754 521.77844 543.95563
544.0 0.001838 521.42877 543.09259
534.0 0.001873 521.07904 542.24622
554.0 0.001805 520.72900 541.42297
557.0 0.001795 520.37903 540.62872
512.0 0.001953 520.02869 539.86719
537.0 0.001862 519.67834 539.14240
517.0 0.001934 519.32788 538.45673
537.0 0.001862 518.97717 537.81195
508.0 0.001969 518.62634 537.20947
509.0 0.001965 518.27533 536.64966
511.0 0.001957 517.92426 536.13281
519.0 0.001927 517.57294 535.65857
472.0 0.002119 517.22156 535.22620
528.0 0.001894 516.87000 534.83453
516.0 0.001938 516.51837 534.49707
528.0 0.001894 516.16656 534.18365
555.0 0.001802 515.81451 533.90686
500.0 0.002000 515.46246 533.66559
498.0 0.002008 515.11017 533.45819
501.0 0.001996 514.75781 533.28369
535.0 0.001869 514.40521 533.14014
510.0 0.001961 514.05267 533.02734
508.0 0.001969 513.69989 532.94397
510.0 0.001961 513.34692 532.88940
553.0 0.001808 512.99396 532.86346
535.0 0.001869 512.64069 532.86609
569.0 0.001757 512.28741 532.89697
514.0 0.001946 511.93393 532.95630
522.0 0.001916 511.58041 533.04517
559.0 0.001789 511.22665 533.16370
530.0 0.001887 510.87289 533.31354
512.0 0.001953 510.51901 533.49518
543.0 0.001842 510.16489 533.71051
554.0 0.001805 509.81076 533.96130
521.0 0.001919 509.45639 534.24921
514.0 0.001946 509.10205 534.57697
498.0 0.002008 508.74744 534.94684
510.0 0.001961 508.39288 535.36206
486.0 0.002058 508.03802 535.82562
496.0 0.002016 507.68323 536.34210
532.0 0.001880 507.32831 536.91565
537.0 0.001862 506.97314 537.55164
537.0 0.001862 506.61801 538.25677
546.0 0.001832 506.26263 539.03790
553.0 0.001808 505.90729 539.90454
548.0 0.001825 505.55170 540.86682
600.0 0.001667 505.19614 541.93829
545.0 0.001835 504.84052 543.13397
552.0 0.001812 504.48459 544.47253
517.0 0.001934 504.12875 545.97675
545.0 0.001835 503.77267 547.67365
541.0 0.001848 503.41666 549.59558
572.0 0.001748 503.06039 551.78119
596.0 0.001678 502.70416 554.27649
581.0 0.001721 502.34775 557.13470
556.0 0.001799 501.99136 560.41827
593.0 0.001686 501.63489 564.19916
593.0 0.001686 501.27817 568.55859
577.0 0.001733 500.92154 573.58862
623.0 0.001605 500.56470 579.39050
616.0 0.001623 500.20792 586.07568
632.0 0.001582 499.85086 593.76312
630.0 0.001587 499.49393 602.57910
634.0 0.001577 499.13678 612.65320
636.0 0.001572 498.77969 624.11676
658.0 0.001520 498.42252 637.09857
681.0 0.001468 498.06519 651.71942
670.0 0.001493 497.70789 668.08954
712.0 0.001404 497.35040 686.30042
719.0 0.001391 496.99298 706.42090
740.0 0.001351 496.63538 728.48956
746.0 0.001340 496.27786 752.50903
833.0 0.001200 495.92029 778.43835
831.0 0.001203 495.56250 806.18524
871.0 0.001148 495.20483 835.59949
875.0 0.001143 494.84692 866.46155
883.0 0.001133 494.48917 898.27997
959.0 0.001043 494.13120 931.05591
933.0 0.001072 493.77335 964.10364
989.0 0.001011 493.41528 996.81934
976.0 0.001025 493.05734 1028.48108
1010.0 0.000990 492.69937 1058.25208
1050.0 0.000952 492.34119 1085.20325
1098.0 0.000911 491.98315 1108.35803
1080.0 0.000926 491.62494 1126.76172
1128.0 0.000887 491.26685 1139.57568
1057.0 0.000946 490.90854 1146.17712
1054.0 0.000949 490.55042 1146.24377
1125.0 0.000889 490.19208 1139.80225
1124.0 0.000890 489.83389 1127.22864
1028.0 0.000973 489.47568 1109.19250
1045.0 0.000957 489.11731 1086.57031
1019.0 0.000981 488.75906 1060.34668
976.0 0.001025 488.40067 1031.52100
979.0 0.001021 488.04242 1001.04004
967.0 0.001034 487.68402 969.75464
938.0 0.001066 487.32578 938.39948
909.0 0.001100 486.96747 907.58856
887.0 0.001127 486.60910 877.82196
883.0 0.001133 486.25082 849.49530
806.0 0.001241 485.89246 822.91107
771.0 0.001297 485.53421 798.28931
724.0 0.001381 485.17584 775.77759
757.0 0.001321 484.81760 755.45813
702.0 0.001425 484.45926 737.35529
722.0 0.001385 484.10107 721.44281
708.0 0.001412 483.74289 707.64758
684.0 0.001462 483.38464 695.85583
682.0 0.001466 483.02652 685.91815
640.0 0.001563 482.66830 676.68311
682.0 0.001466 482.31021 669.88654
670.0 0.001493 481.95206 664.31769
637.0 0.001570 481.59409 659.72363
613.0 0.001631 481.23599 655.83954
637.0 0.001570 480.87808 652.39868
637.0 0.001570 480.52020 649.14465
642.0 0.001558 480.16226 645.84784
581.0 0.001721 479.80447 642.32086
614.0 0.001629 479.44659 638.43060
680.0 0.001471 479.08893 634.10693
575.0 0.001739 478.73120 629.34009
608.0 0.001645 478.37363 624.17389
585.0 0.001709 478.01614 618.69147
568.0 0.001761 477.65854 612.99951
600.0 0.001667 477.30118 607.21606
624.0 0.001603 476.94376 601.45807
552.0 0.001812 476.58652 595.83685
564.0 0.001773 476.22922 590.45325
554.0 0.001805 475.87213 585.39825
549.0 0.001821 475.51498 580.75250
535.0 0.001869 475.15808 576.58856
528.0 0.001894 474.80124 572.97180
556.0 0.001799 474.44434 569.96185
536.0 0.001866 474.08768 567.61444
542.0 0.001845 473.73099 565.98145
578.0 0.001730 473.37448 565.11212
529.0 0.001890 473.01797 565.05310
555.0 0.001802 472.66171 565.84930
511.0 0.001957 472.30539 567.54242
527.0 0.001898 471.94931 570.17242
556.0 0.001799 471.59335 573.77509
541.0 0.001848 471.23737 578.38226
507.0 0.001972 470.88162 583.88428
563.0 0.001776 470.52588 590.57379
598.0 0.001672 470.17038 598.32440
596.0 0.001678 469.81485 607.13647
599.0 0.001669 469.45956 616.99811
586.0 0.001706 469.10443 627.88226
661.0 0.001513 468.74930 639.74493
696.0 0.001437 468.39444 652.52325
708.0 0.001412 468.03955 666.13123
693.0 0.001443 467.68494 680.45862
708.0 0.001412 467.33035 695.36578
702.0 0.001425 466.97604 710.68250
768.0 0.001302 466.62173 726.20184
813.0 0.001230 466.26767 741.67877
796.0 0.001256 465.91382 756.82709
863.0 0.001159 465.55994 771.31952
865.0 0.001156 465.20639 784.79242
884.0 0.001131 464.85287 796.85535
867.0 0.001153 464.49960 807.10913
907.0 0.001103 464.14639 815.17786
911.0 0.001098 463.79349 820.70984
889.0 0.001125 463.44061 823.45520
865.0 0.001156 463.08804 823.26550
886.0 0.001129 462.73566 820.11694
878.0 0.001139 462.38330 814.11407
859.0 0.001164 462.03128 805.47754
813.0 0.001230 461.67929 794.51666
819.0 0.001221 461.32761 781.59991
823.0 0.001215 460.97601 767.12097
787.0 0.001271 460.62473 751.47192
726.0 0.001377 460.27365 735.02301
730.0 0.001370 459.92264 718.10980
735.0 0.001361 459.57193 701.02728
657.0 0.001522 459.22131 684.02820
636.0 0.001572 458.87103 667.32501
613.0 0.001631 458.52084 651.09143
630.0 0.001587 458.17099 635.46771
602.0 0.001661 457.82120 620.56274
625.0 0.001600 457.47177 606.45770
591.0 0.001692 457.12259 593.20935
554.0 0.001805 456.77344 580.85205
536.0 0.001866 456.42468 569.40161
520.0 0.001923 456.07605 558.85608
539.0 0.001855 455.72775 549.19965
515.0 0.001942 455.37955 540.40399
560.0 0.001786 455.03171 532.43176
501.0 0.001996 454.68399 525.23730
514.0 0.001946 454.33664 518.77014
507.0 0.001972 453.98953 512.97583
495.0 0.002020 453.64255 507.79834
486.0 0.002058 453.29596 503.18146
515.0 0.001942 452.94946 499.07004
511.0 0.001957 452.60336 495.41104
481.0 0.002079 452.25739 492.15408
515.0 0.001942 451.91183 489.25293
467.0 0.002141 451.56653 486.66458
455.0 0.002198 451.22134 484.35065
514.0 0.001946 450.87656 482.27695
476.0 0.002101 450.53192 480.41351
450.0 0.002222 450.18771 478.73462
456.0 0.002193 449.84363 477.21826
528.0 0.001894 449.49994 475.86603
458.0 0.002183 449.15643 474.62405
484.0 0.002066 448.81332 473.50061
491.0 0.002037 448.47052 472.48703
435.0 0.002299 448.12787 471.57739
461.0 0.002169 447.78564 470.76868
496.0 0.002016 447.44357 470.05923
498.0 0.002008 447.10196 469.45013
486.0 0.002058 446.76050 468.94290
475.0 0.002105 446.41946 468.54132
472.0 0.002119 446.07861 468.24924
467.0 0.002141 445.73822 468.07144
467.0 0.002141 445.39813 468.01260
466.0 0.002146 445.05823 468.07651
462.0 0.002165 444.71875 468.26688
435.0 0.002299 444.37949 468.58459
477.0 0.002096 444.04068 469.02982
441.0 0.002268 443.70206 469.59915
471.0 0.002123 443.36392 470.28629
433.0 0.002309 443.02609 471.08017
450.0 0.002222 442.68845 471.96432
512.0 0.001953 442.35132 472.91632
476.0 0.002101 442.01434 473.90485
464.0 0.002155 441.67789 474.89014
474.0 0.002110 441.34161 475.82181
477.0 0.002096 441.00583 476.64056
483.0 0.002070 440.67029 477.28003
488.0 0.002049 440.33521 477.67273
460.0 0.002174 440.00049 477.75790
476.0 0.002101 439.66599 477.47800
478.0 0.002092 439.33197 476.83893
498.0 0.002008 438.99820 475.83511
489.0 0.002045 438.66492 474.50140
463.0 0.002160 438.33188 472.89175
470.0 0.002128 437.99936 471.07169
452.0 0.002212 437.66705 469.10791
483.0 0.002070 437.33527 467.06311
472.0 0.002119 437.00385 464.99084
451.0 0.002217 436.67270 462.93451
503.0 0.001988 436.34204 460.92825
477.0 0.002096 436.01166 458.99698
461.0 0.002169 435.68179 457.15897
452.0 0.002212 435.35217 455.42566
457.0 0.002188 435.02307 453.80411
481.0 0.002079 434.69440 452.29745
457.0 0.002188 434.36597 450.89090
432.0 0.002315 434.03806 449.61014
435.0 0.002299 433.71045 448.43573
427.0 0.002342 433.38339 447.36166
429.0 0.002331 433.05655 446.38025
437.0 0.002288 432.73029 445.48425
475.0 0.002105 432.40430 444.66574
449.0 0.002227 432.07886 443.91800
427.0 0.002342 431.75385 443.23453
423.0 0.002364 431.42914 442.61014
439.0 0.002278 431.10492 442.04089
457.0 0.002188 430.78107 441.52353
434.0 0.002304 430.45773 441.05621
431.0 0.002320 430.13470 440.63721
430.0 0.002326 429.81226 440.26605
431.0 0.002320 429.49011 439.94189
424.0 0.002358 429.16849 439.66495
417.0 0.002398 428.84732 439.43481
462.0 0.002165 428.52649 439.25092
442.0 0.002262 428.20624 439.11322
445.0 0.002247 427.88629 439.02042
430.0 0.002326 427.56689 438.97134
444.0 0.002252 427.24783 438.96371
433.0 0.002309 426.92938 438.99478
439.0 0.002278 426.61136 439.06082
449.0 0.002227 426.29370 439.15662
432.0 0.002315 425.97659 439.27640
454.0 0.002203 425.65982 439.41251
409.0 0.002445 425.34363 439.55585
436.0 0.002294 425.02783 439.69537
452.0 0.002212 424.71259 439.81903
464.0 0.002155 424.39767 439.91220
475.0 0.002105 424.08337 439.95987
457.0 0.002188 423.76956 439.94604
430.0 0.002326 423.45609 439.85526
485.0 0.002062 423.14322 439.67422
459.0 0.002179 422.83072 439.39270
451.0 0.002217 422.51880 439.00482
424.0 0.002358 422.20728 438.51004
446.0 0.002242 421.89636 437.91318
420.0 0.002381 421.58582 437.22314
463.0 0.002160 421.27585 436.45294
449.0 0.002227 420.96640 435.61710
439.0 0.002278 420.65732 434.73077
431.0 0.002320 420.34888 433.80923
424.0 0.002358 420.04077 432.86615
464.0 0.002155 419.73331 431.91370
432.0 0.002315 419.42624 430.96231
466.0 0.002146 419.11978 430.02100
420.0 0.002381 418.81387 429.09680
423.0 0.002364 418.50830 428.19522
437.0 0.002288 418.20340 427.32104
459.0 0.002179 417.89886 426.47723
451.0 0.002217 417.59497 425.66623
447.0 0.002237 417.29147 424.89279
422.0 0.002370 416.98865 424.15067
441.0 0.002268 416.68619 423.44318
453.0 0.002208 416.38440 422.76978
407.0 0.002457 416.08310 422.12930
446.0 0.002242 415.78223 421.52023
410.0 0.002439 415.48203 420.94095
396.0 0.002525 415.18219 420.38916
440.0 0.002273 414.88303 419.86328
397.0 0.002519 414.58429 419.36075
427.0 0.002342 414.28619 418.87955
437.0 0.002288 413.98856 418.41757
428.0 0.002336 413.69156 417.97293
416.0 0.002404 413.39505 417.54361
459.0 0.002179 413.09903 417.12787
428.0 0.002336 412.80362 416.74509
426.0 0.002347 412.50867 416.35190
428.0 0.002336 412.21442 415.96820
396.0 0.002525 411.92053 415.59250
403.0 0.002481 411.62738 415.22397
467.0 0.002141 411.33472 414.86185
443.0 0.002257 411.04254 414.50522
430.0 0.002326 410.75101 414.15372
432.0 0.002315 410.45996 413.80637
453.0 0.002208 410.16956 413.46310
414.0 0.002415 409.87958 413.12354
423.0 0.002364 409.59033 412.78726
421.0 0.002375 409.30148 412.66779
395.0 0.002532 409.01334 412.33890
406.0 0.002463 408.72574 412.01263
394.0 0.002538 408.43866 411.68875
453.0 0.002208 408.15219 411.36719
424.0 0.002358 407.86621 411.04782
429.0 0.002331 407.58093 410.73053
431.0 0.002320 407.29611 410.41510
429.0 0.002331 407.01199 410.10159
475.0 0.002105 406.72830 409.78979
406.0 0.002463 406.44531 409.47977
400.0 0.002500 406.16293 409.17133
437.0 0.002288 405.88098 408.86423
420.0 0.002381 405.59976 408.55872
395.0 0.002532 405.31900 407.43976
438.0 0.002283 405.03894 407.14313
415.0 0.002410 404.75937 406.84756
414.0 0.002415 404.48047 406.55310
442.0 0.002262 404.20218 406.25977
413.0 0.002421 403.92438 405.96716
431.0 0.002320 403.64725 405.67560
393.0 0.002545 403.37064 405.38477
413.0 0.002421 403.09473 405.09485
424.0 0.002358 402.81931 404.80566
431.0 0.002320 402.54456 404.51740
387.0 0.002584 402.27032 404.22974
439.0 0.002278 401.99683 403.94296
442.0 0.002262 401.72388 403.65704
420.0 0.002381 401.45148 403.37921
420.0 0.002381 401.17975 403.09491
427.0 0.002342 400.90854 402.81143
409.0 0.002445 400.63803 402.52917
431.0 0.002320 400.36804 402.24750
384.0 0.002604 400.09875 401.96698
418.0 0.002392 399.82999 401.68753
450.0 0.002222 399.56192 401.40924
425.0 0.002353 399.29446 401.13199
394.0 0.002538 399.02753 400.85583
405.0 0.002469 398.76129 400.58096
407.0 0.002457 398.49557 400.30722
426.0 0.002347 398.23059 400.03491
409.0 0.002445 397.96613 399.76389
412.0 0.002427 397.70236 399.50467
386.0 0.002591 397.43921 399.23657
387.0 0.002584 397.17657 398.85013
429.0 0.002331 396.91467 398.58603
443.0 0.002257 396.65329 398.32349
386.0 0.002591 396.39264 398.06274
419.0 0.002387 396.13251 397.80368
409.0 0.002445 395.87311 397.54660
418.0 0.002392 395.61423 397.29132
417.0 0.002398 395.35608 397.03836
408.0 0.002451 395.09854 396.78757
401.0 0.002494 394.84155 396.53894
367.0 0.002725 394.58524 396.29297
422.0 0.002370 394.32953 396.04959
402.0 0.002488 394.07449 395.80917
393.0 0.002545 393.82004 395.57162
379.0 0.002639 393.56625 395.33762
399.0 0.002506 393.31305 395.10684
396.0 0.002525 393.06055 394.87988
429.0 0.002331 392.80872 394.65710
405.0 0.002469 392.55737 394.43851
433.0 0.002309 392.30679 394.23026
436.0 0.002294 392.05676 394.02115
399.0 0.002506 391.80743 393.81723
425.0 0.002353 391.55869 393.61880
461.0 0.002169 391.31064 393.42606
382.0 0.002618 391.06323 393.23953
419.0 0.002387 390.81638 393.05948
416.0 0.002404 390.57025 392.88593
386.0 0.002591 390.32465 392.71930
387.0 0.002584 390.07980 392.55981
379.0 0.002639 389.83551 392.40768
385.0 0.002597 389.59195 392.26315
398.0 0.002513 389.34894 392.12613
389.0 0.002571 389.10666 391.99686
426.0 0.002347 388.86502 391.87521
421.0 0.002375 388.62393 391.76099
441.0 0.002268 388.38358 391.65448
433.0 0.002309 388.14377 391.55496
393.0 0.002545 387.90469 391.46249
417.0 0.002398 387.66620 391.37646
396.0 0.002525 387.42841 391.29657
406.0 0.002463 387.19119 391.22198
420.0 0.002381 386.95471 391.15225
384.0 0.002604 386.71887 391.08649
401.0 0.002494 386.48358 391.02368
414.0 0.002415 386.24905 390.96301
384.0 0.002604 386.01505 390.90332
390.0 0.002564 385.78180 390.84326
428.0 0.002336 385.54910 390.29984
390.0 0.002564 385.31714 390.23886
402.0 0.002488 385.08582 390.17325
418.0 0.002392 384.85507 390.10129
400.0 0.002500 384.62503 390.02145
393.0 0.002545 384.39557 389.93207
411.0 0.002433 384.16687 389.83163
408.0 0.002451 383.93869 389.71844
399.0 0.002506 383.71127 389.59140
401.0 0.002494 383.48444 389.44922
395.0 0.002532 383.25830 389.29123
430.0 0.002326 383.03281 389.11694
420.0 0.002381 382.80789 388.92618
410.0 0.002439 382.58371 388.71960
441.0 0.002268 382.36011 388.49762
407.0 0.002457 382.13721 388.26193
380.0 0.002632 381.91489 388.01392
393.0 0.002545 381.69330 387.75546
372.0 0.002688 381.47226 387.48883
377.0 0.002653 381.25198 387.21658
378.0 0.002646 381.03232 386.94147
385.0 0.002597 380.81326 386.66626
391.0 0.002558 380.59491 386.39429
391.0 0.002558 380.37714 386.12857
386.0 0.002591 380.16006 385.87292
390.0 0.002564 379.94360 385.63586
399.0 0.002506 379.72784 385.41135
411.0 0.002433 379.51273 385.20847
374.0 0.002674 379.29819 385.03168
419.0 0.002387 379.08438 384.88553
422.0 0.002370 378.87115 384.77463
383.0 0.002611 378.65863 384.70404
393.0 0.002545 378.44666 384.67825
383.0 0.002611 378.23544 384.70245
385.0 0.002597 378.02478 384.78073
407.0 0.002457 377.81485 384.91751
395.0 0.002532 377.60556 385.11633
394.0 0.002538 377.39685 385.38007
407.0 0.002457 377.18884 385.71063
396.0 0.002525 376.98145 386.10864
409.0 0.002445 376.77472 386.57349
391.0 0.002558 376.56857 387.10275
417.0 0.002398 376.36316 387.69199
386.0 0.002591 376.15829 388.33420
389.0 0.002571 375.95416 389.01999
384.0 0.002604 375.75067 389.73657
407.0 0.002457 375.54773 390.46695
345.0 0.002899 375.34552 391.19061
402.0 0.002488 375.14389 391.88202
407.0 0.002457 374.94296 392.51178
390.0 0.002564 374.74258 393.04730
393.0 0.002545 374.54297 393.45493
392.0 0.002551 374.34396 393.70337
417.0 0.002398 374.14551 393.76657
384.0 0.002604 373.94775 393.62885
377.0 0.002653 373.75058 393.28595
381.0 0.002625 373.55414 392.74683
349.0 0.002865 373.35825 392.03094
393.0 0.002545 373.16306 391.16669
381.0 0.002625 372.96844 390.18604
359.0 0.002786 372.77451 389.12192
412.0 0.002427 372.58124 388.00500
383.0 0.002611 372.38852 386.86258
405.0 0.002469 372.19650 385.71753
407.0 0.002457 372.00507 384.58792
371.0 0.002695 371.81430 383.48868
381.0 0.002625 371.62408 382.43060
386.0 0.002591 371.43460 381.42181
387.0 0.002584 371.24567 380.43637
367.0 0.002725 371.05743 379.54053
344.0 0.002907 370.86981 378.70441
370.0 0.002703 370.68277 377.92819
355.0 0.002817 370.49640 377.21075
405.0 0.002469 370.31064 376.55029
386.0 0.002591 370.12552 375.94403
399.0 0.002506 369.94095 375.38840
360.0 0.002778 369.75711 374.88007
370.0 0.002703 369.57388 374.41510
379.0 0.002639 369.39117 373.98914
374.0 0.002674 369.20920 373.59860
380.0 0.002632 369.02774 373.23947
372.0 0.002688 368.84698 372.90826
398.0 0.002513 368.66678 372.60159
374.0 0.002674 368.48727 372.31668
372.0 0.002688 368.30829 372.05057
390.0 0.002564 368.13000 371.80115
378.0 0.002646 367.95233 371.56625
382.0 0.002618 367.77521 371.34415
354.0 0.002825 367.59875 371.13333
388.0 0.002577 367.42285 370.93253
383.0 0.002611 367.24762 370.74088
388.0 0.002577 367.07291 370.55640
418.0 0.002392 366.89890 370.38049
387.0 0.002584 366.72543 370.21133
377.0 0.002653 366.55264 370.04883
368.0 0.002717 366.38043 369.89233
358.0 0.002793 366.20880 369.74179
355.0 0.002817 366.03781 369.59689
403.0 0.002481 365.86737 369.45724
374.0 0.002674 365.69757 369.32315
391.0 0.002558 365.52832 369.19418
402.0 0.002488 365.35974 369.07040
369.0 0.002710 365.19174 368.95190
374.0 0.002674 365.02429 368.83865
392.0 0.002551 364.85751 368.73077
375.0 0.002667 364.69122 368.62814
374.0 0.002674 364.52563 368.62936
392.0 0.002551 364.36053 368.53854
354.0 0.002825 364.19614 368.45380
381.0 0.002625 364.03226 368.37503
389.0 0.002571 363.86899 368.30264
374.0 0.002674 363.70633 368.23694
344.0 0.002907 363.54419 368.17813
370.0 0.002703 363.38269 368.12686
374.0 0.002674 363.22171 368.08350
359.0 0.002786 363.06140 368.04858
369.0 0.002710 362.90158 368.02280
386.0 0.002591 362.74243 368.00681
357.0 0.002801 362.58377 368.00128
373.0 0.002681 362.42575 368.00754
329.0 0.003040 362.26834 368.01019
363.0 0.002755 362.11142 368.04263
354.0 0.002825 361.95514 368.09012
413.0 0.002421 361.79938 368.15396
374.0 0.002674 361.64420 368.23590
406.0 0.002463 361.48956 368.33752
382.0 0.002618 361.33557 368.46103
352.0 0.002841 361.18213 368.60840
362.0 0.002762 361.02921 368.78195
369.0 0.002710 360.87689 368.98422
371.0 0.002695 360.72507 369.21808
363.0 0.002755 360.57388 369.48639
351.0 0.002849 360.42319 369.84552
387.0 0.002584 360.27313 370.19330
348.0 0.002874 360.12354 370.58612
359.0 0.002786 359.97458 371.02817
360.0 0.002778 359.82620 371.52371
359.0 0.002786 359.67828 372.07758
385.0 0.002597 359.53098 372.69510
395.0 0.002532 359.38416 373.38190
389.0 0.002571 359.23795 374.14432
395.0 0.002532 359.09222 374.98907
367.0 0.002725 358.94711 375.92377
363.0 0.002755 358.80249 376.95609
378.0 0.002646 358.65845 378.09528
429.0 0.002331 358.51495 379.35049
358.0 0.002793 358.37195 380.73178
348.0 0.002874 358.22955 382.25009
389.0 0.002571 358.08762 383.91675
357.0 0.002801 357.94626 385.74435
361.0 0.002770 357.80539 387.74609
384.0 0.002604 357.66510 389.93719
367.0 0.002725 357.52536 392.33365
359.0 0.002786 357.38608 394.95352
391.0 0.002558 357.24738 397.81631
384.0 0.002604 357.10916 400.94196
415.0 0.002410 356.97150 404.35089
394.0 0.002538 356.83432 408.06180
406.0 0.002463 356.69772 412.09140
407.0 0.002457 356.56155 416.45251
414.0 0.002415 356.42599 421.15341
427.0 0.002342 356.29092 426.19666
429.0 0.002331 356.15634 431.57840
410.0 0.002439 356.02231 437.28766
452.0 0.002212 355.88870 443.30600
470.0 0.002128 355.75571 449.60626
448.0 0.002232 355.62314 456.15247
416.0 0.002404 355.49112 462.89880
501.0 0.001996 355.35959 469.78842
484.0 0.002066 355.22858 476.75278
507.0 0.001972 355.09808 483.71048
472.0 0.002119 354.96802 490.56543
506.0 0.001976 354.83850 497.20746
520.0 0.001923 354.70944 503.51151
532.0 0.001880 354.58093 509.33969
515.0 0.001942 354.45285 514.54474
525.0 0.001905 354.32535 518.97620
521.0 0.001919 354.19827 522.48871
542.0 0.001845 354.07166 524.95319
535.0 0.001869 353.94556 526.26788
529.0 0.001890 353.81992 526.36871
521.0 0.001919 353.69479 525.23657
516.0 0.001938 353.57013 522.90027
525.0 0.001905 353.44595 519.43353
535.0 0.001869 353.32224 514.94812
475.0 0.002105 353.19901 509.58240
461.0 0.002169 353.07629 503.49091
461.0 0.002169 352.95395 496.83322
473.0 0.002114 352.83215 489.76480
465.0 0.002151 352.71078 482.43210
463.0 0.002160 352.58990 474.96698
475.0 0.002105 352.46945 467.48599
448.0 0.002232 352.34952 460.09198
429.0 0.002331 352.22998 452.86572
426.0 0.002347 352.11096 445.87988
426.0 0.002347 351.99237 439.19092
400.0 0.002500 351.87421 432.84317
386.0 0.002591 351.75653 426.86932
397.0 0.002519 351.63928 421.29120
425.0 0.002353 351.52249 416.12079
389.0 0.002571 351.40613 411.36099
411.0 0.002433 351.29025 407.00629
376.0 0.002660 351.17484 403.04410
398.0 0.002513 351.05978 399.45493
408.0 0.002451 350.94522 396.21454
355.0 0.002817 350.83105 393.29489
341.0 0.002933 350.71738 390.66599
356.0 0.002809 350.60410 388.29739
402.0 0.002488 350.49127 386.16031
394.0 0.002538 350.37885 384.22821
381.0 0.002625 350.26688 382.47778
385.0 0.002597 350.15533 380.88901
355.0 0.002817 350.04419 379.44406
345.0 0.002899 349.93350 378.12766
385.0 0.002597 349.82318 376.92499
386.0 0.002591 349.71335 375.82251
358.0 0.002793 349.60385 374.80658
387.0 0.002584 349.49484 373.86432
402.0 0.002488 349.38617 372.98294
375.0 0.002667 349.27798 372.15097
408.0 0.002451 349.17020 371.35779
377.0 0.002653 349.06277 370.59442
365.0 0.002740 348.95581 369.85388
388.0 0.002577 348.84918 369.13080
377.0 0.002653 348.74304 368.42181
384.0 0.002604 348.63721 367.72519
347.0 0.002882 348.53183 367.04031
353.0 0.002833 348.42685 366.36768
388.0 0.002577 348.32224 365.70828
375.0 0.002667 348.21805 365.06348
376.0 0.002660 348.11420 364.46329
357.0 0.002801 348.01077 363.85095
346.0 0.002890 347.90768 363.25583
384.0 0.002604 347.80505 362.67819
368.0 0.002717 347.70273 362.11789
368.0 0.002717 347.60086 361.57443
365.0 0.002740 347.49936 361.04697
384.0 0.002604 347.39819 360.53433
334.0 0.002994 347.29742 360.03555
363.0 0.002755 347.19699 359.54907
339.0 0.002950 347.09698 359.07367
352.0 0.002841 346.99728 358.60803
378.0 0.002646 346.89801 358.15128
361.0 0.002770 346.79904 357.70438
355.0 0.002817 346.70050 357.26303
370.0 0.002703 346.60229 356.82864
358.0 0.002793 346.50443 356.40112
362.0 0.002762 346.40695 355.98077
358.0 0.002793 346.30978 355.56781
368.0 0.002717 346.21301 355.16251
341.0 0.002933 346.11655 354.76559
356.0 0.002809 346.02048 354.37762
369.0 0.002710 345.92474 353.99893
365.0 0.002740 345.82935 353.63007
336.0 0.002976 345.73431 353.27176
345.0 0.002899 345.63956 352.92422
339.0 0.002950 345.54520 352.58795
361.0 0.002770 345.45114 352.26346
358.0 0.002793 345.35745 351.95090
330.0 0.003030 345.26407 351.65079
352.0 0.002841 345.17105 351.36334
335.0 0.002985 345.07834 351.08902
388.0 0.002577 344.98593 350.82794
349.0 0.002865 344.89392 350.58051
377.0 0.002653 344.80215 350.34698
352.0 0.002841 344.71075 350.12759
354.0 0.002825 344.61966 349.92261
338.0 0.002959 344.52890 349.73221
332.0 0.003012 344.43842 349.54779
335.0 0.002985 344.34830 349.38718
339.0 0.002950 344.25845 349.24146
338.0 0.002959 344.16891 349.11075
338.0 0.002959 344.07974 348.99515
357.0 0.002801 343.99081 348.89426
345.0 0.002899 343.90222 348.80814
357.0 0.002801 343.81387 348.73633
350.0 0.002857 343.72589 348.67877
347.0 0.002882 343.63821 348.63467
361.0 0.002770 343.55078 348.60336
340.0 0.002941 343.46368 348.58435
343.0 0.002915 343.37683 348.57678
344.0 0.002907 343.29034 348.57959
343.0 0.002915 343.20407 348.59152
325.0 0.003077 343.11813 348.61136
363.0 0.002755 343.03244 348.63748
350.0 0.002857 342.94705 348.66840
365.0 0.002740 342.86197 348.70209
362.0 0.002762 342.77710 348.73636
330.0 0.003030 342.69260 348.76932
331.0 0.003021 342.60828 348.79794
344.0 0.002907 342.52429 348.82013
346.0 0.002890 342.44055 348.83292
366.0 0.002732 342.35709 348.83359
369.0 0.002710 342.27390 348.81998
312.0 0.003205 342.19098 348.78955
337.0 0.002967 342.10834 348.74084
315.0 0.003175 342.02591 348.67239
346.0 0.002890 341.94379 348.58408
344.0 0.002907 341.86188 348.47577
330.0 0.003030 341.78024 348.34860
355.0 0.002817 341.69885 348.20407
344.0 0.002907 341.61774 348.04416
353.0 0.002833 341.53690 347.87112
345.0 0.002899 341.45624 347.68765
324.0 0.003086 341.37589 347.49628
364.0 0.002747 341.29575 347.29944
315.0 0.003175 341.21585 347.09961
352.0 0.002841 341.13620 346.89886
351.0 0.002849 341.05679 346.69946
342.0 0.002924 340.97763 346.50284
330.0 0.003030 340.89868 346.28891
363.0 0.002755 340.82001 346.10300
315.0 0.003175 340.74152 345.92426
380.0 0.002632 340.66330 345.75357
349.0 0.002865 340.58527 345.59180
320.0 0.003125 340.50748 345.43982
332.0 0.003012 340.42990 345.29800
347.0 0.002882 340.35260 345.16690
319.0 0.003135 340.27545 345.04681
316.0 0.003165 340.19858 344.93808
330.0 0.003030 340.12192 344.84351
335.0 0.002985 340.04541 344.75787
344.0 0.002907 339.96918 344.68375
376.0 0.002660 339.89313 344.62122
349.0 0.002865 339.81732 344.57001
374.0 0.002674 339.74170 344.53082
356.0 0.002809 339.66629 344.50330
341.0 0.002933 339.59109 344.48730
323.0 0.003096 339.51608 344.48318
326.0 0.003067 339.44128 344.49097
354.0 0.002825 339.36667 344.51093
291.0 0.003436 339.29227 344.54343
335.0 0.002985 339.21805 344.58896
343.0 0.002915 339.14404 344.64816
347.0 0.002882 339.07019 344.79669
353.0 0.002833 338.99658 344.88693
347.0 0.002882 338.92313 344.99445
330.0 0.003030 338.84988 345.12106
358.0 0.002793 338.77682 345.26923
357.0 0.002801 338.70392 345.44135
311.0 0.003215 338.63120 345.64124
364.0 0.002747 338.55865 345.87277
347.0 0.002882 338.48633 346.14108
319.0 0.003135 338.41415 346.45184
339.0 0.002950 338.34219 346.81210
362.0 0.002762 338.27036 347.27728
348.0 0.002874 338.19870 347.76190
352.0 0.002841 338.12723 348.32343
346.0 0.002890 338.05591 348.97379
325.0 0.003077 337.98477 349.72574
359.0 0.002786 337.91379 350.59366
343.0 0.002915 337.84299 351.59256
307.0 0.003257 337.77234 352.73868
372.0 0.002688 337.70184 354.04825
353.0 0.002833 337.63153 355.53836
359.0 0.002786 337.56131 357.22531
372.0 0.002688 337.49133 359.12506
346.0 0.002890 337.42142 361.25153
346.0 0.002890 337.35172 363.61755
385.0 0.002597 337.28214 366.23218
379.0 0.002639 337.21274 369.10193
353.0 0.002833 337.14349 372.22839
387.0 0.002584 337.07437 375.60822
355.0 0.002817 337.00537 379.23218
362.0 0.002762 336.93652 383.08386
395.0 0.002532 336.86786 387.13895
414.0 0.002415 336.79929 391.36340
385.0 0.002597 336.73087 395.71262
375.0 0.002667 336.66257 400.12961
374.0 0.002674 336.59442 404.54333
417.0 0.002398 336.52643 408.86856
406.0 0.002463 336.45853 413.18240
391.0 0.002558 336.39081 417.02072
417.0 0.002398 336.32315 420.44012
415.0 0.002410 336.25568 423.32324
450.0 0.002222 336.18829 425.56451
394.0 0.002538 336.12103 427.08273
426.0 0.002347 336.05392 427.83218
407.0 0.002457 335.98691 427.80902
418.0 0.002392 335.92001 427.05328
348.0 0.002874 335.85327 425.64246
429.0 0.002331 335.78662 423.68188
453.0 0.002208 335.72006 421.29208
405.0 0.002469 335.65366 418.59729
400.0 0.002500 335.58734 415.71552
391.0 0.002558 335.52115 412.75275
362.0 0.002762 335.45508 409.79950
410.0 0.002439 335.38907 406.92947
402.0 0.002488 335.32321 404.20047
391.0 0.002558 335.25742 401.65506
375.0 0.002667 335.19177 399.32230
377.0 0.002653 335.12619 397.21823
364.0 0.002747 335.06073 395.34833
407.0 0.002457 334.99536 393.70740
405.0 0.002469 334.93008 392.28119
341.0 0.002933 334.86493 391.04742
349.0 0.002865 334.79984 389.97589
357.0 0.002801 334.73486 389.03113
379.0 0.002639 334.66998 388.17352
397.0 0.002519 334.60516 387.36066
374.0 0.002674 334.54047 386.55008
372.0 0.002688 334.47586 385.70224
377.0 0.002653 334.41132 384.78180
392.0 0.002551 334.34686 383.76053
352.0 0.002841 334.28250 382.61871
379.0 0.002639 334.21823 381.34583
360.0 0.002778 334.15405 379.94006
375.0 0.002667 334.08990 378.40765
335.0 0.002985 334.02588 376.75739
320.0 0.003125 333.96191 375.01410
367.0 0.002725 333.89804 373.19379
345.0 0.002899 333.83426 371.31747
332.0 0.003012 333.77051 369.40585
359.0 0.002786 333.70685 367.47900
327.0 0.003058 333.64325 365.55536
348.0 0.002874 333.57974 363.65143
357.0 0.002801 333.51627 361.78177
339.0 0.002950 333.45291 359.95889
359.0 0.002786 333.38959 358.19391
352.0 0.002841 333.32635 356.49545
318.0 0.003145 333.26318 354.87097
340.0 0.002941 333.20004 353.32584
356.0 0.002809 333.13699 351.86429
374.0 0.002674 333.07397 350.46582
319.0 0.003135 333.01105 349.17834
382.0 0.002618 332.94818 347.97873
318.0 0.003145 332.88535 346.86606
311.0 0.003215 332.82260 345.83878
320.0 0.003125 332.75989 344.89407
347.0 0.002882 332.69724 344.02884
348.0 0.002874 332.63461 343.23920
333.0 0.003003 332.57208 342.52145
375.0 0.002667 332.50958 341.87067
356.0 0.002809 332.44711 341.28259
315.0 0.003175 332.38470 340.75250
337.0 0.002967 332.32236 340.27588
347.0 0.002882 332.26007 339.60855
315.0 0.003175 332.19778 339.22711
346.0 0.002890 332.13559 338.88611
347.0 0.002882 332.07343 338.58942
343.0 0.002915 332.01129 338.31766
348.0 0.002874 331.94919 338.07550
324.0 0.003086 331.88715 337.85965
318.0 0.003145 331.82510 337.66751
342.0 0.002924 331.76315 337.49628
323.0 0.003096 331.70123 337.34372
348.0 0.002874 331.63931 337.20779
327.0 0.003058 331.57745 337.08655
351.0 0.002849 331.51563 336.97827
334.0 0.002994 331.45383 336.88153
312.0 0.003205 331.39206 336.79495
319.0 0.003135 331.33032 336.71710
353.0 0.002833 331.26865 336.64697
355.0 0.002817 331.20694 336.58340
327.0 0.003058 331.14532 336.52551
339.0 0.002950 331.08368 336.47235
341.0 0.002933 331.02209 336.42319
290.0 0.003448 330.96051 336.37729
335.0 0.002985 330.89899 336.37848
314.0 0.003185 330.83746 336.33798
347.0 0.002882 330.77597 336.29996
336.0 0.002976 330.71451 336.26428
336.0 0.002976 330.65305 336.23138
337.0 0.002967 330.59164 336.19400
347.0 0.002882 330.53021 336.16940
322.0 0.003106 330.46884 336.15100
335.0 0.002985 330.40744 336.14056
346.0 0.002890 330.34610 336.14050
314.0 0.003185 330.28476 336.15329
351.0 0.002849 330.22345 336.18167
327.0 0.003058 330.16214 336.22928
325.0 0.003077 330.10086 336.29929
330.0 0.003030 330.03958 336.39572
368.0 0.002717 329.97830 336.52225
335.0 0.002985 329.91705 336.68311
324.0 0.003086 329.85577 336.88242
348.0 0.002874 329.79456 337.12442
348.0 0.002874 329.73334 337.40143
324.0 0.003086 329.67212 337.74060
357.0 0.002801 329.61093 338.13409
324.0 0.003086 329.54971 338.58466
340.0 0.002941 329.48853 339.09512
352.0 0.002841 329.42731 339.66742
341.0 0.002933 329.36615 340.30249
375.0 0.002667 329.30496 341.00037
360.0 0.002778 329.24380 341.76013
365.0 0.002740 329.18265 342.57910
335.0 0.002985 329.12146 343.45352
356.0 0.002809 329.06027 344.37769
379.0 0.002639 328.99911 345.34424
329.0 0.003040 328.93796 346.34354
336.0 0.002976 328.87677 347.36386
347.0 0.002882 328.81561 348.39053
351.0 0.002849 328.75443 349.40659
367.0 0.002725 328.69327 350.39178
365.0 0.002740 328.63214 351.32367
336.0 0.002976 328.57092 352.17749
362.0 0.002762 328.50977 352.92709
326.0 0.003067 328.44858 353.54675
340.0 0.002941 328.38739 354.00656
373.0 0.002681 328.32617 354.29950
373.0 0.002681 328.26501 354.40613
378.0 0.002646 328.20380 354.32068
341.0 0.002933 328.14258 354.04593
359.0 0.002786 328.08136 353.59241
360.0 0.002778 328.02014 352.97723
360.0 0.002778 327.95889 352.22263
369.0 0.002710 327.89764 351.35260
355.0 0.002817 327.83640 350.39243
324.0 0.003086 327.77512 349.36584
344.0 0.002907 327.71384 348.29517
339.0 0.002950 327.65256 347.20010
370.0 0.002703 327.59128 346.09763
368.0 0.002717 327.52997 345.00217
364.0 0.002747 327.46863 343.92575
350.0 0.002857 327.40729 342.87860
348.0 0.002874 327.34595 341.86844
348.0 0.002874 327.28461 340.90176
356.0 0.002809 327.22321 339.98334
347.0 0.002882 327.16180 339.11682
322.0 0.003106 327.10040 338.30432
362.0 0.002762 327.03897 337.54721
331.0 0.003021 326.97757 336.84567
335.0 0.002985 326.91611 336.19891
325.0 0.003077 326.85464 335.60571
366.0 0.002732 326.79315 335.06400
331.0 0.003021 326.73166 334.57162
352.0 0.002841 326.67014 334.12558
348.0 0.002874 326.60861 333.72299
337.0 0.002967 326.54703 333.36050
349.0 0.002865 326.48544 333.03528
341.0 0.002933 326.42386 332.74423
341.0 0.002933 326.36224 332.48398
334.0 0.002994 326.30063 332.25192
306.0 0.003268 326.23895 332.04544
315.0 0.003175 326.17731 331.86200
344.0 0.002907 326.11560 331.69946
317.0 0.003155 326.05389 331.55588
305.0 0.003279 325.99216 331.42938
335.0 0.002985 325.93039 331.33365
338.0 0.002959 325.86862 331.23712
327.0 0.003058 325.80682 331.15375
338.0 0.002959 325.74503 331.08258
334.0 0.002994 325.68314 331.02289
322.0 0.003106 325.62131 330.97400
316.0 0.003165 325.55942 330.93555
346.0 0.002890 325.49750 330.90714
325.0 0.003077 325.43558 330.88858
307.0 0.003257 325.37360 330.87985
328.0 0.003049 325.31161 330.88113
328.0 0.003049 325.24960 330.89236
335.0 0.002985 325.18762 330.91434
310.0 0.003226 325.12558 330.94150
376.0 0.002660 325.06348 330.98611
344.0 0.002907 325.00137 331.04327
327.0 0.003058 324.93924 331.11414
306.0 0.003268 324.87711 331.19983
341.0 0.002933 324.81494 331.30188
344.0 0.002907 324.75275 331.42212
352.0 0.002841 324.69049 331.56216
363.0 0.002755 324.62827 331.72470
314.0 0.003185 324.56601 331.91202
336.0 0.002976 324.50369 332.12708
324.0 0.003086 324.44138 332.37317
334.0 0.002994 324.37903 332.65353
336.0 0.002976 324.31665 332.97232
348.0 0.002874 324.25424 333.33359
358.0 0.002793 324.19180 333.74176
334.0 0.002994 324.12936 334.20184
326.0 0.003067 324.06689 334.71863
337.0 0.002967 324.00439 335.29776
327.0 0.003058 323.94183 335.94421
341.0 0.002933 323.87930 336.66403
350.0 0.002857 323.81671 337.46268
357.0 0.002801 323.75412 338.34564
356.0 0.002809 323.69147 339.31851
348.0 0.002874 323.62881 340.38651
348.0 0.002874 323.56613 341.55460
379.0 0.002639 323.50342 342.82709
330.0 0.003030 323.44067 344.20795
359.0 0.002786 323.37790 345.70020
340.0 0.002941 323.31512 347.30627
349.0 0.002865 323.25229 349.02713
347.0 0.002882 323.18945 350.86282
398.0 0.002513 323.12659 352.81216
357.0 0.002801 323.06369 354.87222
362.0 0.002762 323.00079 357.03860
382.0 0.002618 322.93784 359.32980
390.0 0.002564 322.87488 361.68936
384.0 0.002604 322.81186 364.13257
357.0 0.002801 322.74884 366.64899
365.0 0.002740 322.68576 369.22647
409.0 0.002445 322.62271 371.85211
405.0 0.002469 322.55957 374.51123
384.0 0.002604 322.49646 377.18817
412.0 0.002427 322.43335 379.86536
389.0 0.002571 322.37015 382.52371
413.0 0.002421 322.30695 385.14240
410.0 0.002439 322.24371 387.69937
425.0 0.002353 322.18048 390.17142
402.0 0.002488 322.11719 392.53564
382.0 0.002618 322.05389 394.77039
413.0 0.002421 321.99060 396.85617
405.0 0.002469 321.92722 398.77719
432.0 0.002315 321.86383 400.52225
411.0 0.002433 321.80042 402.08578
420.0 0.002381 321.73703 403.47589
435.0 0.002299 321.67355 404.68155
405.0 0.002469 321.61011 405.72122
421.0 0.002375 321.54660 406.60941
412.0 0.002427 321.48309 407.36353
388.0 0.002577 321.41956 408.00357
381.0 0.002625 321.35599 408.55139
393.0 0.002545 321.29242 409.03061
439.0 0.002278 321.22879 409.46634
401.0 0.002494 321.16516 409.88614
414.0 0.002415 321.10150 410.31989
385.0 0.002597 321.03784 410.80014
411.0 0.002433 320.97412 411.36160
391.0 0.002558 320.91043 412.04135
368.0 0.002717 320.84668 412.87643
364.0 0.002747 320.78293 413.90366
407.0 0.002457 320.71915 415.15695
414.0 0.002415 320.65533 416.66623
413.0 0.002421 320.59152 418.45557
426.0 0.002347 320.52765 420.54144
428.0 0.002336 320.46381 422.93170
429.0 0.002331 320.39993 425.62418
404.0 0.002475 320.33603 428.60629
464.0 0.002155 320.27213 431.85327
455.0 0.002198 320.20816 435.32806
453.0 0.002208 320.14420 438.97986
456.0 0.002193 320.08023 442.74411
484.0 0.002066 320.01624 446.43161
508.0 0.001969 319.95221 450.16815
479.0 0.002088 319.88818 453.73480
514.0 0.001946 319.82416 457.01154
482.0 0.002075 319.76007 459.86990
503.0 0.001988 319.69601 462.17990
506.0 0.001976 319.63190 463.81738
522.0 0.001916 319.56778 464.67361
528.0 0.001894 319.50363 464.67258
503.0 0.001988 319.43951 463.74902
514.0 0.001946 319.37534 461.89850
477.0 0.002096 319.31116 459.14819
492.0 0.002033 319.24698 455.56113
477.0 0.002096 319.18277 451.22876
512.0 0.001953 319.11856 446.26208
484.0 0.002066 319.05432 440.78232
478.0 0.002092 318.99008 434.91235
403.0 0.002481 318.92581 428.77020
418.0 0.002392 318.86154 422.46490
426.0 0.002347 318.79730 416.09409
433.0 0.002309 318.73297 409.76828
389.0 0.002571 318.66867 403.50870
395.0 0.002532 318.60434 397.40173
419.0 0.002387 318.54004 391.49734
340.0 0.002941 318.47568 385.83514
364.0 0.002747 318.41135 380.38666
360.0 0.002778 318.34698 375.29453
361.0 0.002770 318.28262 370.51404
355.0 0.002817 318.21826 366.05444
386.0 0.002591 318.15387 361.91895
369.0 0.002710 318.08948 358.10583
340.0 0.002941 318.02505 354.60880
344.0 0.002907 317.96066 351.41815
352.0 0.002841 317.89624 348.52103
334.0 0.002994 317.83182 345.90225
319.0 0.003135 317.76740 343.54510
303.0 0.003300 317.70297 341.43146
347.0 0.002882 317.63852 339.54276
364.0 0.002747 317.57407 337.86017
363.0 0.002755 317.50964 336.36530
340.0 0.002941 317.44516 335.04016
319.0 0.003135 317.38071 333.86798
362.0 0.002762 317.31622 332.83243
348.0 0.002874 317.25177 331.91937
322.0 0.003106 317.18732 331.11502
336.0 0.002976 317.12286 330.57532
321.0 0.003115 317.05838 329.95535
296.0 0.003378 316.99390 329.41235
313.0 0.003195 316.92944 328.93835
319.0 0.003135 316.86496 328.52643
330.0 0.003030 316.80048 328.17142
299.0 0.003344 316.73599 327.86761
308.0 0.003247 316.67154 327.61157
328.0 0.003049 316.60709 327.40039
354.0 0.002825 316.54257 327.23163
321.0 0.003115 316.47812 327.10394
327.0 0.003058 316.41364 327.01575
333.0 0.003003 316.34921 326.96652
338.0 0.002959 316.28473 326.95615
331.0 0.003021 316.22028 326.98465
337.0 0.002967 316.15579 327.05219
322.0 0.003106 316.09137 327.15961
363.0 0.002755 316.02692 327.30795
326.0 0.003067 315.96249 327.49811
316.0 0.003165 315.89807 327.73151
315.0 0.003175 315.83362 328.00940
331.0 0.003021 315.76920 328.33353
324.0 0.003086 315.70480 328.70514
353.0 0.002833 315.64038 329.12579
337.0 0.002967 315.57599 329.59677
329.0 0.003040 315.51160 330.11917
350.0 0.002857 315.44724 330.69366
336.0 0.002976 315.38284 331.32059
358.0 0.002793 315.31851 332.00015
355.0 0.002817 315.25415 332.73215
350.0 0.002857 315.18982 333.51636
360.0 0.002778 315.12549 334.35217
365.0 0.002740 315.06119 335.23981
358.0 0.002793 314.99689 336.17920
358.0 0.002793 314.93259 337.17053
308.0 0.003247 314.86832 338.21414
342.0 0.002924 314.80405 339.30957
336.0 0.002976 314.73981 340.45523
358.0 0.002793 314.67554 341.64819
386.0 0.002591 314.61136 342.88300
360.0 0.002778 314.54712 344.14886
324.0 0.003086 314.48297 345.43805
311.0 0.003215 314.41879 346.73154
306.0 0.003268 314.35461 348.00809
381.0 0.002625 314.29050 349.24152
364.0 0.002747 314.22635 350.64520
339.0 0.002950 314.16226 351.69644
341.0 0.002933 314.09818 352.59933
352.0 0.002841 314.03412 353.31479
350.0 0.002857 313.97006 353.80557
373.0 0.002681 313.90604 354.04007
329.0 0.003040 313.84204 353.99573
316.0 0.003165 313.77808 353.66153
355.0 0.002817 313.71411 353.03998
299.0 0.003344 313.65015 352.14615
365.0 0.002740 313.58627 351.00708
334.0 0.002994 313.52234 349.65692
359.0 0.002786 313.45850 348.13510
307.0 0.003257 313.39465 346.48224
312.0 0.003205 313.33084 344.73746
318.0 0.003145 313.26703 342.93738
327.0 0.003058 313.20325 341.11392
317.0 0.003155 313.13950 339.29483
321.0 0.003115 313.07578 337.50348
346.0 0.002890 313.01208 335.75885
368.0 0.002717 312.94843 334.07639
331.0 0.003021 312.88480 332.46768
312.0 0.003205 312.82120 330.94193
329.0 0.003040 312.75760 329.54962
347.0 0.002882 312.69406 328.20648
305.0 0.003279 312.63052 326.95816
308.0 0.003247 312.56705 325.80493
315.0 0.003175 312.50357 324.74551
315.0 0.003175 312.44016 323.77707
311.0 0.003215 312.37674 322.89612
351.0 0.002849 312.31335 322.09775
323.0 0.003096 312.25003 321.37744
334.0 0.002994 312.18671 320.72931
325.0 0.003077 312.12344 320.11490
315.0 0.003175 312.06021 319.59454
321.0 0.003115 311.99701 319.12943
332.0 0.003012 311.93384 318.71408
337.0 0.002967 311.87070 318.34341
311.0 0.003215 311.80762 318.01254
344.0 0.002907 311.74454 317.71722
337.0 0.002967 311.68152 317.45349
335.0 0.002985 311.61853 317.21771
363.0 0.002755 311.55557 317.00726
321.0 0.003115 311.49265 316.81918
355.0 0.002817 311.42978 316.65155
295.0 0.003390 311.36691 316.50241
334.0 0.002994 311.30414 316.36844
325.0 0.003077 311.24136 316.25287
303.0 0.003300 311.17865 316.15268
316.0 0.003165 311.11597 316.06741
295.0 0.003390 311.05331 315.99686
332.0 0.003012 310.99072 315.94089
330.0 0.003030 310.92816 315.89978
315.0 0.003175 310.86566 315.87384
330.0 0.003030 310.80319 315.86328
341.0 0.002933 310.74075 315.86871
285.0 0.00351 310.67838 315.89063
322.0 0.003106 310.61600 315.92963
313.0 0.003195 310.55371 315.98627
325.0 0.003077 310.49146 316.28659
312.0 0.003205 310.42923 316.38181
310.0 0.003226 310.36707 316.49631
322.0 0.003106 310.30496 316.62997
320.0 0.003125 310.24289 316.78345
334.0 0.002994 310.18085 316.95654
340.0 0.002941 310.11887 317.14911
316.0 0.003165 310.05692 317.36066
339.0 0.002950 309.99503 317.59064
315.0 0.003175 309.93320 317.83810
314.0 0.003185 309.87140 318.10196
353.0 0.002833 309.80963 318.38049
334.0 0.002994 309.74799 318.67209
338.0 0.002959 309.68634 318.97430
311.0 0.003215 309.62473 319.28485
321.0 0.003115 309.56320 319.60049
336.0 0.002976 309.50171 319.91821
315.0 0.003175 309.44028 320.23383
312.0 0.003205 309.37885 320.55942
312.0 0.003205 309.31754 320.85828
328.0 0.003049 309.25626 321.14157
314.0 0.003185 309.19501 321.40387
332.0 0.003012 309.13385 321.63965
325.0 0.003077 309.07269 321.84390
342.0 0.002924 309.01163 322.01157
331.0 0.003021 308.95062 322.13794
336.0 0.002976 308.88965 322.21991
318.0 0.003145 308.82874 322.25467
329.0 0.003040 308.76788 322.24118
316.0 0.003165 308.70709 322.17978
311.0 0.003215 308.64633 322.07239
282.0 0.00355 308.58566 321.92209
333.0 0.003003 308.52502 321.73328
318.0 0.003145 308.46445 321.51138
364.0 0.002747 308.40393 321.26230
355.0 0.002817 308.34348 320.99228
342.0 0.002924 308.28305 320.70810
304.0 0.003289 308.22275 320.41577
333.0 0.003003 308.16248 320.12192
293.0 0.003413 308.10223 319.83203
321.0 0.003115 308.04205 319.55191
339.0 0.002950 307.98193 319.28650
363.0 0.002755 307.92191 319.04053
324.0 0.003086 307.86191 318.81812
313.0 0.003195 307.80200 318.62326
328.0 0.003049 307.74213 318.45938
309.0 0.003236 307.68231 318.32932
314.0 0.003185 307.62259 318.23572
328.0 0.003049 307.56290 318.18060
314.0 0.003185 307.50330 318.16580
326.0 0.003067 307.44370 318.19257
294.0 0.003401 307.38422 318.26163
289.0 0.003460 307.32477 318.37347
315.0 0.003175 307.26541 318.52811
324.0 0.003086 307.20612 318.72513
338.0 0.002959 307.14685 318.96866
348.0 0.002874 307.08768 319.24713
331.0 0.003021 307.02856 319.56381
337.0 0.002967 306.96951 319.91663
306.0 0.003268 306.91052 320.30283
303.0 0.003300 306.85159 320.71973
299.0 0.003344 306.79272 321.16321
341.0 0.002933 306.73395 321.62997
323.0 0.003096 306.67523 322.11523
325.0 0.003077 306.61658 322.61432
337.0 0.002967 306.55798 323.11862
317.0 0.003155 306.49945 323.62881
328.0 0.003049 306.44098 324.13559
331.0 0.003021 306.38260 324.63217
292.0 0.003425 306.32425 325.11197
341.0 0.002933 306.26602 325.56781
349.0 0.002865 306.20779 325.99316
346.0 0.002890 306.14969 326.38116
347.0 0.002882 306.09161 326.72556
340.0 0.002941 306.03363 327.02142
347.0 0.002882 305.97571 327.26425
298.0 0.003356 305.91785 327.45145
319.0 0.003135 305.86005 327.58118
320.0 0.003125 305.80237 327.57074
329.0 0.003040 305.74472 327.58768
326.0 0.003067 305.68713 327.55118
347.0 0.002882 305.62964 327.46478
364.0 0.002747 305.57217 327.33261
333.0 0.003003 305.51483 327.15939
325.0 0.003077 305.45752 326.94974
336.0 0.002976 305.40030 326.70859
308.0 0.003247 305.34311 326.43997
319.0 0.003135 305.28604 326.14792
374.0 0.002674 305.22903 325.83609
336.0 0.002976 305.17206 325.54962
342.0 0.002924 305.11520 325.15359
349.0 0.002865 305.05838 324.79999
352.0 0.002841 305.00165 324.43738
289.0 0.003460 304.94498 324.06830
317.0 0.003155 304.88840 323.69550
339.0 0.002950 304.83188 323.32260
338.0 0.002959 304.77542 322.95932
338.0 0.002959 304.71906 322.59796
328.0 0.003049 304.66275 322.24939
331.0 0.003021 304.60651 321.91898
343.0 0.002915 304.55032 321.61224
334.0 0.002994 304.49426 321.33508
333.0 0.003003 304.43823 321.09299
327.0 0.003058 304.38226 320.89203
300.0 0.003333 304.32642 320.73743
338.0 0.002959 304.27060 320.63437
301.0 0.003322 304.21487 320.58798
335.0 0.002985 304.15921 320.60257
319.0 0.003135 304.10364 320.68271
322.0 0.003106 304.04813 320.83218
334.0 0.002994 303.99271 321.05441
317.0 0.003155 303.93732 321.35278
339.0 0.002950 303.88202 321.73016
323.0 0.003096 303.82681 322.18887
319.0 0.003135 303.77167 322.73093
319.0 0.003135 303.71661 323.15912
325.0 0.003077 303.66159 323.87378
301.0 0.003322 303.60666 324.67514
320.0 0.003125 303.55182 325.56323
344.0 0.002907 303.49704 326.53766
306.0 0.003268 303.44235 327.59714
338.0 0.002959 303.38770 328.73993
354.0 0.002825 303.33313 329.96341
364.0 0.002747 303.27863 331.26437
368.0 0.002717 303.22424 332.63889
296.0 0.003378 303.16989 334.08228
357.0 0.002801 303.11563 335.58926
365.0 0.002740 303.06143 337.15454
353.0 0.002833 303.00729 338.77176
316.0 0.003165 302.95328 340.43533
323.0 0.003096 302.89929 342.13919
324.0 0.003086 302.84540 343.87784
346.0 0.002890 302.79156 345.64615
371.0 0.002695 302.73779 347.43884
384.0 0.002604 302.68411 349.25119
348.0 0.002874 302.63052 351.07867
352.0 0.002841 302.57697 352.91644
360.0 0.002778 302.52353 354.75958
350.0 0.002857 302.47012 356.60324
346.0 0.002890 302.41681 358.44226
345.0 0.002899 302.36359 360.27158
359.0 0.002786 302.31039 362.08658
358.0 0.002793 302.25732 363.88525
355.0 0.002817 302.20428 365.65851
363.0 0.002755 302.15131 367.40585
362.0 0.002762 302.09848 369.12433
378.0 0.002646 302.04562 370.81186
355.0 0.002817 301.99292 372.46646
349.0 0.002865 301.94025 374.08627
368.0 0.002717 301.88766 375.66937
360.0 0.002778 301.83514 377.21307
347.0 0.002882 301.78271 378.71448
348.0 0.002874 301.73032 380.16965
362.0 0.002762 301.67801 381.57407
357.0 0.002801 301.62579 382.92181
381.0 0.002625 301.57364 384.20639
380.0 0.002632 301.52155 385.42050
363.0 0.002755 301.46951 386.55597
386.0 0.002591 301.41760 387.60425
358.0 0.002793 301.36572 388.55640
370.0 0.002703 301.31390 389.40356
385.0 0.002597 301.26218 390.13718
403.0 0.002481 301.21051 390.74915
377.0 0.002653 301.15894 391.23212
374.0 0.002674 301.10742 391.58057
360.0 0.002778 301.05597 391.78986
385.0 0.002597 301.00458 391.85757
396.0 0.002525 300.95328 391.78357
413.0 0.002421 300.90204 391.56964
350.0 0.002857 300.85086 391.22021
387.0 0.002584 300.79977 390.74228
386.0 0.002591 300.74872 390.14612
402.0 0.002488 300.69778 389.44186
343.0 0.002915 300.64688 388.64484
343.0 0.002915 300.59604 387.77185
368.0 0.002717 300.54529 386.84143
337.0 0.002967 300.49463 385.87500
418.0 0.002392 300.44400 384.89542
362.0 0.002762 300.39343 383.92746
395.0 0.002532 300.34296 382.99747
379.0 0.002639 300.29254 382.13391
365.0 0.002740 300.24219 381.36642
380.0 0.002632 300.19189 380.72580
381.0 0.002625 300.14169 380.24466
416.0 0.002404 300.09155 379.94727
378.0 0.002646 300.04147 379.88528
405.0 0.002469 299.99142 380.08441
364.0 0.002747 299.94150 380.57849
380.0 0.002632 299.89160 381.40155
341.0 0.002933 299.84180 382.58609
349.0 0.002865 299.79205 384.16278
414.0 0.002415 299.74234 386.15991
415.0 0.002410 299.69272 388.60229
357.0 0.002801 299.64316 391.51044
383.0 0.002611 299.59366 394.90015
418.0 0.002392 299.54425 398.78088
427.0 0.002342 299.49487 403.15524
398.0 0.002513 299.44556 408.01797
427.0 0.002342 299.39633 413.35507
418.0 0.002392 299.34714 419.14294
414.0 0.002415 299.29800 425.34647
415.0 0.002410 299.24896 431.91922
453.0 0.002208 299.19995 438.80124
504.0 0.001984 299.15106 445.86844
464.0 0.002155 299.10217 453.13495
466.0 0.002146 299.05338 460.43451
435.0 0.002299 299.00461 467.64706
481.0 0.002079 298.95593 474.63101
497.0 0.002012 298.90732 481.22931
495.0 0.002020 298.85870 487.27356
523.0 0.001912 298.81024 492.59122
536.0 0.001866 298.76178 497.01385
528.0 0.001894 298.71338 500.39056
533.0 0.001876 298.66504 502.59882
538.0 0.001859 298.61676 503.55743
512.0 0.001953 298.56857 503.25275
554.0 0.001805 298.52039 501.66812
516.0 0.001938 298.47229 498.89243
478.0 0.002092 298.42426 495.03796
476.0 0.002101 298.37625 490.24881
531.0 0.001883 298.32834 484.68707
491.0 0.002037 298.28046 478.52115
514.0 0.001946 298.23264 471.91641
456.0 0.002193 298.18484 465.02753
487.0 0.002053 298.13718 457.99460
439.0 0.002278 298.08951 450.94034
436.0 0.002294 298.04187 443.97000
432.0 0.002315 297.99432 437.17227
416.0 0.002404 297.94684 430.61945
398.0 0.002513 297.89941 424.36951
451.0 0.002217 297.85202 418.46729
376.0 0.002660 297.80469 412.94617
400.0 0.002500 297.75739 407.82904
387.0 0.002584 297.71014 403.13037
393.0 0.002545 297.66293 398.85684
402.0 0.002488 297.61581 395.00961
390.0 0.002564 297.56873 391.58517
380.0 0.002632 297.52170 388.57700
342.0 0.002924 297.47470 385.97623
355.0 0.002817 297.42776 383.86346
353.0 0.002833 297.38089 382.04938
358.0 0.002793 297.33405 380.61349
336.0 0.002976 297.28726 379.54651
352.0 0.002841 297.24051 378.83954
356.0 0.002809 297.19382 378.48410
357.0 0.002801 297.14719 378.47174
368.0 0.002717 297.10056 378.79373
374.0 0.002674 297.05399 379.44116
394.0 0.002538 297.00748 380.40414
416.0 0.002404 296.96103 381.67203
351.0 0.002849 296.91458 383.23282
374.0 0.002674 296.86819 385.07361
377.0 0.002653 296.82187 387.17911
375.0 0.002667 296.77557 389.53275
401.0 0.002494 296.72934 392.11588
413.0 0.002421 296.68311 394.90710
397.0 0.002519 296.63693 397.88330
399.0 0.002506 296.59079 401.01816
396.0 0.002525 296.54471 404.28238
430.0 0.002326 296.49866 407.64371
429.0 0.002331 296.45267 411.06686
452.0 0.002212 296.40668 414.51263
465.0 0.002151 296.36075 417.93900
438.0 0.002283 296.31488 421.30017
467.0 0.002141 296.26901 424.54773
433.0 0.002309 296.22321 427.63058
475.0 0.002105 296.17740 430.49640
484.0 0.002066 296.13168 433.09250
481.0 0.002079 296.08597 435.36646
453.0 0.002208 296.04031 437.26956
481.0 0.002079 295.99466 438.75745
458.0 0.002183 295.94907 439.79233
487.0 0.002053 295.90350 440.34531
483.0 0.002070 295.85797 440.39691
481.0 0.002079 295.81247 439.93875
449.0 0.002227 295.76700 438.97375
437.0 0.002288 295.72156 437.51541
477.0 0.002096 295.67615 435.58643
450.0 0.002222 295.63080 433.21829
433.0 0.002309 295.58548 430.44769
431.0 0.002320 295.54016 427.31647
430.0 0.002326 295.49487 423.86789
424.0 0.002358 295.44962 420.14624
428.0 0.002336 295.40439 416.17853
432.0 0.002315 295.35922 412.03922
424.0 0.002358 295.31403 407.75092
413.0 0.002421 295.26889 403.34976
392.0 0.002551 295.22379 398.86899
363.0 0.002755 295.17874 394.33939
372.0 0.002688 295.13367 389.78891
397.0 0.002519 295.08862 385.24301
390.0 0.002564 295.04361 380.72620
340.0 0.002941 294.99863 376.26035
371.0 0.002695 294.95367 371.86633
323.0 0.003096 294.90875 367.56357
332.0 0.003012 294.86383 363.51279
353.0 0.002833 294.81894 359.44522
328.0 0.003049 294.77408 355.51703
355.0 0.002817 294.72922 351.74091
358.0 0.002793 294.68442 348.12695
318.0 0.003145 294.63959 344.68323
346.0 0.002890 294.59479 341.41571
294.0 0.003401 294.55002 338.32819
324.0 0.003086 294.50528 335.42285
343.0 0.002915 294.46057 332.69989
315.0 0.003175 294.41583 330.27499
345.0 0.002899 294.37115 327.91171
329.0 0.003040 294.32648 325.72272
335.0 0.002985 294.28180 323.70282
325.0 0.003077 294.23715 321.84653
321.0 0.003115 294.19254 320.14746
317.0 0.003155 294.14792 318.59885
313.0 0.003195 294.10330 317.19357
307.0 0.003257 294.05875 315.92438
313.0 0.003195 294.01416 314.78400
303.0 0.003300 293.96960 313.76517
309.0 0.003236 293.92505 312.86063
322.0 0.003106 293.88049 312.06366
302.0 0.003311 293.83597 311.36746
328.0 0.003049 293.79144 310.76575
336.0 0.002976 293.74695 310.25235
289.0 0.003460 293.70245 309.82175
300.0 0.003333 293.65796 309.46829
315.0 0.003175 293.61346 309.18744
320.0 0.003125 293.56900 308.97437
301.0 0.003322 293.52454 308.82492
312.0 0.003205 293.48007 308.73508
288.0 0.003472 293.43561 308.72922
337.0 0.002967 293.39117 308.74835
303.0 0.003300 293.34674 308.81705
319.0 0.003135 293.30231 308.93253
277.0 0.00361 293.25784 309.06445
312.0 0.003205 293.21341 309.26563
319.0 0.003135 293.16901 309.50580
312.0 0.003205 293.12457 309.78250
304.0 0.003289 293.08014 310.09351
340.0 0.002941 293.03571 310.43637
297.0 0.003367 292.99130 310.80881
312.0 0.003205 292.94690 311.20828
290.0 0.003448 292.90247 311.63229
323.0 0.003096 292.85806 312.07809
300.0 0.003333 292.81363 312.54297
295.0 0.003390 292.76920 313.02417
318.0 0.003145 292.72476 313.51816
302.0 0.003311 292.68036 314.02200
326.0 0.003067 292.63593 314.53186
335.0 0.002985 292.59146 315.04416
309.0 0.003236 292.54706 315.55502
317.0 0.003155 292.50259 316.06021
306.0 0.003268 292.45816 316.55515
330.0 0.003030 292.41370 317.02634
313.0 0.003195 292.36923 317.48755
312.0 0.003205 292.32474 317.92456
303.0 0.003300 292.28030 318.33246
300.0 0.003333 292.23581 318.70654
345.0 0.002899 292.19131 319.04153
321.0 0.003115 292.14682 319.33307
343.0 0.002915 292.10229 319.57648
320.0 0.003125 292.05780 319.76785
338.0 0.002959 292.01324 319.90332
329.0 0.003040 291.96872 319.97971
311.0 0.003215 291.92416 319.99463
358.0 0.002793 291.87961 319.94681
296.0 0.003378 291.83502 319.83423
306.0 0.003268 291.79044 319.65750
299.0 0.003344 291.74582 319.41714
300.0 0.003333 291.70120 319.11526
281.0 0.00356 291.65659 318.75433
318.0 0.003145 291.61191 318.33755
328.0 0.003049 291.56726 317.86942
316.0 0.003165 291.52258 317.35416
341.0 0.002933 291.47791 316.79742
323.0 0.003096 291.43320 316.20468
316.0 0.003165 291.38846 315.58148
334.0 0.002994 291.34372 314.93393
306.0 0.003268 291.29892 314.26758
291.0 0.003436 291.25415 313.58856
339.0 0.002950 291.20935 312.90195
342.0 0.002924 291.16452 312.21359
312.0 0.003205 291.11969 311.52808
314.0 0.003185 291.07483 310.85043
296.0 0.003378 291.02994 310.18497
279.0 0.00358 290.98502 309.53571
313.0 0.003195 290.94009 308.90652
319.0 0.003135 290.89514 308.30054
317.0 0.003155 290.85016 307.71225
297.0 0.003367 290.80518 307.16080
286.0 0.003497 290.76016 306.63995
297.0 0.003367 290.71512 306.15115
287.0 0.003484 290.67001 305.69553
319.0 0.003135 290.62494 305.27356
310.0 0.003226 290.57980 304.88519
306.0 0.003268 290.53467 304.53033
342.0 0.002924 290.48947 304.20776
299.0 0.003344 290.44427 303.91617
298.0 0.003356 290.39905 303.65338
271.0 0.00369 290.35379 303.41684
301.0 0.003322 290.30850 303.17377
289.0 0.003460 290.26318 302.98004
304.0 0.003289 290.21783 302.80124
303.0 0.003300 290.17245 302.63272
331.0 0.003021 290.12704 302.46982
296.0 0.003378 290.08160 302.30661
281.0 0.00356 290.03613 302.13794
301.0 0.003322 289.99063 301.95892
316.0 0.003165 289.94510 301.76477
307.0 0.003257 289.89954 301.55240
297.0 0.003367 289.85391 301.31894
285.0 0.00351 289.80829 301.06326
281.0 0.00356 289.76260 300.78604
317.0 0.003155 289.71692 300.48810
290.0 0.003448 289.67117 300.17224
289.0 0.003460 289.62540 299.84149
289.0 0.003460 289.57962 299.49973
285.0 0.00351 289.53375 299.15067
268.0 0.00373 289.48792 298.79837
272.0 0.00368 289.44196 298.44620
332.0 0.003012 289.39603 298.09775
313.0 0.003195 289.35004 297.75595
293.0 0.003413 289.30402 297.42346
296.0 0.003378 289.25793 297.10260
269.0 0.00372 289.21182 296.79498
301.0 0.003322 289.16568 296.50262
283.0 0.00353 289.11951 296.03949
291.0 0.003436 289.07327 295.78220
290.0 0.003448 289.02701 295.54288
279.0 0.00358 288.98071 295.32227
273.0 0.00366 288.93436 295.11960
292.0 0.003425 288.88797 294.93655
301.0 0.003322 288.84158 294.77209
281.0 0.00356 288.79507 294.62601
308.0 0.003247 288.74860 294.49762
286.0 0.003497 288.70203 294.38651
322.0 0.003106 288.65543 294.29193
322.0 0.003106 288.60880 294.21283
271.0 0.00369 288.56210 294.14813
259.0 0.00386 288.51538 294.09695
284.0 0.00352 288.46863 294.05823
293.0 0.003413 288.42181 294.03058
288.0 0.003472 288.37494 294.01273
288.0 0.003472 288.32803 294.00333
288.0 0.003472 288.28107 294.00107
313.0 0.003195 288.23410 294.00464
280.0 0.00357 288.18704 294.01236
295.0 0.003390 288.13995 294.02289
282.0 0.00355 288.09283 294.03479
275.0 0.00364 288.04562 294.04630
295.0 0.003390 287.99841 294.05618
317.0 0.003155 287.95111 294.06317
301.0 0.003322 287.90381 294.06558
324.0 0.003086 287.85641 294.06259
328.0 0.003049 287.80899 294.05325
309.0 0.003236 287.76151 294.03690
263.0 0.00380 287.71399 294.01328
322.0 0.003106 287.66644 293.98230
297.0 0.003367 287.61880 293.94415
286.0 0.003497 287.57117 293.89975
310.0 0.003226 287.52341 293.84955
326.0 0.003067 287.47565 293.79465
290.0 0.003448 287.42783 293.73633
301.0 0.003322 287.37997 293.67581
324.0 0.003086 287.33203 293.61398
274.0 0.00365 287.28406 293.55231
307.0 0.003257 287.23605 293.49194
311.0 0.003215 287.18796 293.43384
287.0 0.003484 287.13983 293.37909
288.0 0.003472 287.09164 293.32849
296.0 0.003378 287.04343 292.99799
269.0 0.00372 286.99512 292.96078
301.0 0.003322 286.94678 292.92996
303.0 0.003300 286.89841 292.90640
278.0 0.00360 286.84995 292.89050
309.0 0.003236 286.80145 292.88315
287.0 0.003484 286.75290 292.88449
292.0 0.003425 286.70428 292.89523
291.0 0.003436 286.65564 292.91586
299.0 0.003344 286.60690 292.94690
298.0 0.003356 286.55814 292.98871
283.0 0.00353 286.50931 293.04233
307.0 0.003257 286.46045 293.10825
268.0 0.00373 286.41150 293.18716
288.0 0.003472 286.36252 293.28049
270.0 0.00370 286.31348 293.38922
320.0 0.003125 286.26437 293.51471
300.0 0.003333 286.21521 293.65842
326.0 0.003067 286.16602 293.82239
288.0 0.003472 286.11673 294.00797
325.0 0.003077 286.06741 294.21756
311.0 0.003215 286.01804 294.45337
295.0 0.003390 285.96860 294.71692
309.0 0.003236 285.91913 295.01083
320.0 0.003125 285.86957 295.28534
306.0 0.003268 285.81998 295.64639
307.0 0.003257 285.77029 296.04407
312.0 0.003205 285.72058 296.48026
301.0 0.003322 285.67084 296.95685
322.0 0.003106 285.62100 297.47577
312.0 0.003205 285.57111 298.03860
302.0 0.003311 285.52115 298.64682
290.0 0.003448 285.47116 299.30173
330.0 0.003030 285.42111 300.00458
303.0 0.003300 285.37100 300.75604
292.0 0.003425 285.32080 301.55688
319.0 0.003135 285.27057 302.40747
304.0 0.003289 285.22031 303.30750
273.0 0.00366 285.16995 304.25677
308.0 0.003247 285.11957 305.25449
273.0 0.00366 285.06909 306.29953
296.0 0.003378 285.01859 307.39041
292.0 0.003425 284.96799 308.52515
299.0 0.003344 284.91736 309.70139
277.0 0.00361 284.86667 310.91669
322.0 0.003106 284.81595 312.16812
295.0 0.003390 284.76514 313.45258
313.0 0.003195 284.71426 314.76685
329.0 0.003040 284.66336 316.10748
318.0 0.003145 284.61237 317.47122
309.0 0.003236 284.56134 318.85461
330.0 0.003030 284.51022 320.25400
303.0 0.003300 284.45908 321.89078
321.0 0.003115 284.40790 323.31326
328.0 0.003049 284.35663 324.74063
325.0 0.003077 284.30533 326.16956
332.0 0.003012 284.25391 327.59610
335.0 0.002985 284.20248 329.01651
316.0 0.003165 284.15100 330.42709
316.0 0.003165 284.09946 331.56250
327.0 0.003058 284.04782 332.94473
350.0 0.002857 283.99615 334.30713
321.0 0.003115 283.94446 335.64636
335.0 0.002985 283.89267 336.95956
318.0 0.003145 283.84082 338.24365
346.0 0.002890 283.78894 339.49545
337.0 0.002967 283.73697 340.71158
320.0 0.003125 283.68497 341.88806
331.0 0.003021 283.63290 343.02078
338.0 0.002959 283.58078 344.15045
341.0 0.002933 283.52863 345.18011
335.0 0.002985 283.47641 346.14932
307.0 0.003257 283.42410 347.05115
315.0 0.003175 283.37177 347.87854
340.0 0.002941 283.31937 348.62381
351.0 0.002849 283.26691 349.27936
339.0 0.002950 283.21439 349.83759
321.0 0.003115 283.16183 350.27255
328.0 0.003049 283.10922 350.61514
354.0 0.002825 283.05652 350.84067
347.0 0.002882 283.00381 350.94492
341.0 0.002933 282.95102 350.92493
356.0 0.002809 282.89819 350.77957
326.0 0.003067 282.84528 350.50955
344.0 0.002907 282.79233 350.11761
352.0 0.002841 282.73932 349.60849
365.0 0.002740 282.68625 348.98904
356.0 0.002809 282.63318 348.26776
316.0 0.003165 282.57999 347.45523
343.0 0.002915 282.52679 346.56323
338.0 0.002959 282.47351 345.60507
337.0 0.002967 282.42020 344.59494
317.0 0.003155 282.36682 343.54828
332.0 0.003012 282.31339 342.48105
339.0 0.002950 282.25989 341.40988
339.0 0.002950 282.20639 340.35220
355.0 0.002817 282.15280 339.32532
353.0 0.002833 282.09915 338.34747
364.0 0.002747 282.04550 337.43692
308.0 0.003247 281.99176 336.61234
312.0 0.003205 281.93796 335.89255
336.0 0.002976 281.88412 335.29831
329.0 0.003040 281.83026 334.84613
327.0 0.003058 281.77631 334.55658
325.0 0.003077 281.72232 334.44962
349.0 0.002865 281.66830 334.54437
327.0 0.003058 281.61420 334.86005
379.0 0.002639 281.56009 335.41541
349.0 0.002865 281.50589 336.22864
360.0 0.002778 281.45166 337.31717
332.0 0.003012 281.39737 338.69733
342.0 0.002924 281.34308 340.40643
365.0 0.002740 281.28873 342.41318
370.0 0.002703 281.23428 344.75095
323.0 0.003096 281.17984 347.42920
374.0 0.002674 281.12534 350.45428
357.0 0.002801 281.07077 353.82977
371.0 0.002695 281.01617 357.55630
370.0 0.002703 280.96155 361.63022
438.0 0.002283 280.90683 366.04471
355.0 0.002817 280.85211 370.78821
374.0 0.002674 280.79733 375.84525
391.0 0.002558 280.74252 381.19467
403.0 0.002481 280.68765 386.81094
382.0 0.002618 280.63275 392.66290
432.0 0.002315 280.57779 398.71329
422.0 0.002370 280.52280 404.91946
465.0 0.002151 280.46777 411.23196
415.0 0.002410 280.41272 417.59567
473.0 0.002114 280.35760 423.94858
435.0 0.002299 280.30246 430.22321
445.0 0.002247 280.24725 436.34668
453.0 0.002208 280.19205 442.24240
499.0 0.002004 280.13678 447.83105
516.0 0.001938 280.08145 453.03598
492.0 0.002033 280.02609 457.77744
494.0 0.002024 279.97073 461.98734
513.0 0.001949 279.91531 465.60553
485.0 0.002062 279.85986 468.58307
534.0 0.001873 279.80435 470.88593
514.0 0.001946 279.74884 472.49371
516.0 0.001938 279.69327 473.40179
548.0 0.001825 279.63766 473.61874
492.0 0.002033 279.58203 473.16422
493.0 0.002028 279.52637 472.06769
533.0 0.001876 279.47067 470.36511
473.0 0.002114 279.41495 468.09729
498.0 0.002008 279.35916 465.30875
478.0 0.002092 279.30338 462.04562
456.0 0.002193 279.24756 458.35568
479.0 0.002088 279.19171 454.28824
455.0 0.002198 279.13580 449.89255
445.0 0.002247 279.07990 445.16382
447.0 0.002237 279.02396 440.26230
437.0 0.002288 278.96796 435.18176
395.0 0.002532 278.91196 429.96957
423.0 0.002364 278.85593 424.67139
411.0 0.002433 278.79987 419.32925
379.0 0.002639 278.74377 413.98190
429.0 0.002331 278.68768 408.66391
378.0 0.002646 278.63153 403.40485
417.0 0.002398 278.57538 398.22998
378.0 0.002646 278.51920 393.15927
374.0 0.002674 278.46295 388.20807
347.0 0.002882 278.40674 383.38745
381.0 0.002625 278.35049 378.70410
362.0 0.002762 278.29422 374.16144
364.0 0.002747 278.23788 369.75946
354.0 0.002825 278.18158 365.49649
355.0 0.002817 278.12521 361.36935
336.0 0.002976 278.06888 357.37347
333.0 0.003003 278.01251 353.50482
317.0 0.003155 277.95612 349.75940
329.0 0.003040 277.89969 346.13425
317.0 0.003155 277.84326 342.62704
323.0 0.003096 277.78683 339.23663
318.0 0.003145 277.73035 335.96368
347.0 0.002882 277.67389 332.80716
363.0 0.002755 277.61737 329.76837
354.0 0.002825 277.56088 326.84860
314.0 0.003185 277.50433 324.04852
325.0 0.003077 277.44781 321.36880
303.0 0.003300 277.39127 318.80948
303.0 0.003300 277.33472 316.37015
319.0 0.003135 277.27814 314.04987
324.0 0.003086 277.22156 311.84741
287.0 0.003484 277.16498 309.76062
298.0 0.003356 277.10840 307.89136
321.0 0.003115 277.05179 306.02914
306.0 0.003268 276.99518 304.27435
277.0 0.00361 276.93854 302.62375
316.0 0.003165 276.88193 301.07364
291.0 0.003436 276.82529 299.62027
294.0 0.003401 276.76865 298.25964
294.0 0.003401 276.71201 296.98767
291.0 0.003436 276.65536 295.80054
298.0 0.003356 276.59875 294.69373
293.0 0.003413 276.54208 293.68640
269.0 0.00372 276.48544 292.72800
277.0 0.00361 276.42880 291.83728
277.0 0.00361 276.37216 291.01025
300.0 0.003333 276.31549 290.24274
293.0 0.003413 276.25888 289.53104
300.0 0.003333 276.20224 288.87082
270.0 0.00370 276.14557 288.25848
302.0 0.003311 276.08896 287.69067
269.0 0.00372 276.03232 287.16348
285.0 0.00351 275.97571 286.67426
294.0 0.003401 275.91907 286.21933
263.0 0.00380 275.86249 285.79590
281.0 0.00356 275.80588 285.40137
287.0 0.003484 275.74930 285.03311
275.0 0.00364 275.69272 284.68887
290.0 0.003448 275.63611 284.36633
281.0 0.00356 275.57956 284.06345
307.0 0.003257 275.52301 283.77853
287.0 0.003484 275.46646 283.51001
257.0 0.00389 275.40994 283.25598
268.0 0.00373 275.35342 283.01553
302.0 0.003311 275.29694 282.78723
274.0 0.00365 275.24045 282.57001
284.0 0.00352 275.18399 282.36295
246.0 0.00407 275.12753 282.16504
285.0 0.00351 275.07111 281.97568
276.0 0.00362 275.01471 281.79419
287.0 0.003484 274.95831 281.61966
289.0 0.003460 274.90195 281.45187
289.0 0.003460 274.84561 281.29022
276.0 0.00362 274.78928 281.13443
271.0 0.00369 274.73297 280.98380
270.0 0.00370 274.67670 280.83127
288.0 0.003472 274.62039 280.69073
283.0 0.00353 274.56421 280.55475
290.0 0.003448 274.50797 280.42294
250.0 0.00400 274.45181 280.29529
287.0 0.003484 274.39563 280.17154
277.0 0.00361 274.33954 280.05164
282.0 0.00355 274.28345 279.93527
278.0 0.00360 274.22739 279.82245
266.0 0.00376 274.17133 279.71301
278.0 0.00360 274.11533 279.60687
284.0 0.00352 274.05939 279.50388
256.0 0.00391 274.00345 279.40390
277.0 0.00361 273.94754 279.30701
280.0 0.00357 273.89166 279.21298
263.0 0.00380 273.83585 279.12534
302.0 0.003311 273.78006 279.03705
284.0 0.00352 273.72430 278.95145
316.0 0.003165 273.66858 278.86847
267.0 0.00375 273.61292 278.78812
291.0 0.003436 273.55728 278.71042
257.0 0.00389 273.50168 278.63522
297.0 0.003367 273.44614 278.56247
300.0 0.003333 273.39063 278.49234
289.0 0.003460 273.33514 278.42450
279.0 0.00358 273.27972 278.35904
303.0 0.003300 273.22437 278.29596
295.0 0.003390 273.16904 278.23544
257.0 0.00389 273.11377 278.17709
267.0 0.00375 273.05853 278.12109
244.0 0.00410 273.00333 278.06750
260.0 0.00385 272.94821 278.01627
256.0 0.00391 272.89316 277.96744
266.0 0.00376 272.83810 277.92068
276.0 0.00362 272.78314 277.87653
271.0 0.00369 272.72821 277.83459
292.0 0.003425 272.67334 277.79495
292.0 0.003425 272.61850 277.75797
279.0 0.00358 272.56378 277.72321
263.0 0.00380 272.50906 277.69101
284.0 0.00352 272.45444 277.66125
266.0 0.00376 272.39987 277.63416
256.0 0.00391 272.34534 277.60956
273.0 0.00366 272.29086 277.58768
275.0 0.00364 272.23645 277.56824
267.0 0.00375 272.18213 277.55188
261.0 0.00383 272.12784 277.53516
293.0 0.003413 272.07364 277.52454
291.0 0.003436 272.01950 277.51685
283.0 0.00353 271.96542 277.51227
288.0 0.003472 271.91141 277.51093
296.0 0.003378 271.85745 277.51297
258.0 0.00388 271.80359 277.51859
273.0 0.00366 271.74979 277.52774
269.0 0.00372 271.69604 277.54089
282.0 0.00355 271.64240 277.55820
300.0 0.003333 271.58881 277.68521
288.0 0.003472 271.53531 277.71201
285.0 0.00351 271.48184 277.74374
283.0 0.00353 271.42850 277.78085
263.0 0.00380 271.37518 277.82355
287.0 0.003484 271.32199 277.87244
296.0 0.003378 271.26883 277.93506
325.0 0.003077 271.21579 277.99786
277.0 0.00361 271.16281 278.06863
307.0 0.003257 271.10992 278.14807
274.0 0.00365 271.05710 278.23703
267.0 0.00375 271.00436 278.33661
290.0 0.003448 270.95175 278.44791
280.0 0.00357 270.89917 278.57211
298.0 0.003356 270.84671 278.71072
289.0 0.003460 270.79428 278.86517
264.0 0.00379 270.74200 279.03738
289.0 0.003460 270.68979 279.22934
332.0 0.003012 270.63766 279.44339
314.0 0.003185 270.58563 279.68085
292.0 0.003425 270.53366 279.94635
304.0 0.003289 270.48184 280.24225
291.0 0.003436 270.43005 280.57156
304.0 0.003289 270.37842 281.05362
266.0 0.00376 270.32681 281.46188
286.0 0.003497 270.27536 281.91547
277.0 0.00361 270.22400 282.41901
294.0 0.003401 270.17270 282.97742
274.0 0.00365 270.12152 283.59610
291.0 0.003436 270.07043 284.28036
272.0 0.00368 270.01944 285.03635
292.0 0.003425 269.96854 285.87018
279.0 0.00358 269.91779 286.78854
274.0 0.00365 269.86710 287.79776
297.0 0.003367 269.81653 288.90518
295.0 0.003390 269.76605 290.11780
288.0 0.003472 269.71567 291.44244
291.0 0.003436 269.66544 292.88663
291.0 0.003436 269.61526 294.45740
294.0 0.003401 269.56522 296.16159
300.0 0.003333 269.51529 298.00638
272.0 0.00368 269.46545 299.99774
249.0 0.00402 269.41577 302.14252
289.0 0.003460 269.36615 304.44547
273.0 0.00366 269.31668 306.91196
288.0 0.003472 269.26730 309.54596
301.0 0.003322 269.21802 312.35135
287.0 0.003484 269.16888 315.33005
297.0 0.003367 269.11987 318.48370
301.0 0.003322 269.07095 321.81244
326.0 0.003067 269.02216 325.31525
299.0 0.003344 268.97351 328.98959
306.0 0.003268 268.92493 332.82651
323.0 0.003096 268.87653 336.83118
314.0 0.003185 268.82819 340.99075
340.0 0.002941 268.78000 345.29709
343.0 0.002915 268.73193 349.73917
329.0 0.003040 268.68402 354.30460
369.0 0.002710 268.63620 358.97891
411.0 0.002433 268.58850 363.74573
373.0 0.002681 268.54095 368.58649
355.0 0.002817 268.49350 373.48001
401.0 0.002494 268.44623 378.40384
411.0 0.002433 268.39902 383.31091
401.0 0.002494 268.35199 388.21680
417.0 0.002398 268.30508 393.07013
406.0 0.002463 268.25830 397.83893
424.0 0.002358 268.21167 402.48920
428.0 0.002336 268.16513 406.98541
453.0 0.002208 268.11877 411.29092
457.0 0.002188 268.07251 415.36826
453.0 0.002208 268.02643 419.17993
444.0 0.002252 267.98044 422.68973
434.0 0.002304 267.93463 425.86328
456.0 0.002193 267.88892 428.66898
449.0 0.002227 267.84338 431.07913
447.0 0.002237 267.79797 433.07126
424.0 0.002358 267.75272 434.62814
444.0 0.002252 267.70758 435.73883
485.0 0.002062 267.66260 436.39841
430.0 0.002326 267.61777 436.60806
422.0 0.002370 267.57306 436.41119
418.0 0.002392 267.52853 435.74561
404.0 0.002475 267.48413 434.66327
423.0 0.002364 267.43988 433.29547
422.0 0.002370 267.39578 431.43527
394.0 0.002538 267.35184 429.21616
415.0 0.002410 267.30804 426.55615
409.0 0.002445 267.26434 423.68121
391.0 0.002558 267.22089 420.50818
404.0 0.002475 267.17752 417.05688
417.0 0.002398 267.13434 413.34763
369.0 0.002710 267.09131 409.40131
399.0 0.002506 267.04840 405.24014
388.0 0.002577 267.00568 400.88846
359.0 0.002786 266.96310 396.37283
338.0 0.002959 266.92068 391.72208
361.0 0.002770 266.87842 386.96667
391.0 0.002558 266.83633 382.13916
386.0 0.002591 266.79440 377.27222
364.0 0.002747 266.75259 372.39871
325.0 0.003077 266.71100 367.55069
360.0 0.002778 266.66953 362.75821
346.0 0.002890 266.62827 358.04999
342.0 0.002924 266.58713 353.45096
328.0 0.003049 266.54614 348.98654
305.0 0.003279 266.50534 344.67181
326.0 0.003067 266.46472 340.52545
322.0 0.003106 266.42422 336.56161
306.0 0.003268 266.38397 332.79077
296.0 0.003378 266.34381 329.22110
332.0 0.003012 266.30383 325.85818
321.0 0.003115 266.26407 322.70508
286.0 0.003497 266.22443 319.76276
310.0 0.003226 266.18500 317.03015
315.0 0.003175 266.14569 314.50436
312.0 0.003205 266.10660 312.18057
299.0 0.003344 266.06766 310.05292
346.0 0.002890 266.02890 308.11374
287.0 0.003484 265.99033 306.35443
283.0 0.00353 265.95190 304.76563
296.0 0.003378 265.91367 303.33670
285.0 0.00351 265.87558 302.05655
308.0 0.003247 265.83771 300.91367
312.0 0.003205 265.80002 299.89612
287.0 0.003484 265.76248 298.99161
292.0 0.003425 265.72516 298.18814
293.0 0.003413 265.68799 297.47324
301.0 0.003322 265.65100 296.83511
315.0 0.003175 265.61420 296.26196
287.0 0.003484 265.57758 295.74271
308.0 0.003247 265.54114 295.26593
264.0 0.00379 265.50488 294.82590
299.0 0.003344 265.46881 294.40677
255.0 0.00392 265.43292 294.00293
278.0 0.00360 265.39722 293.60745
316.0 0.003165 265.36169 293.21368
302.0 0.003311 265.32635 292.81628
318.0 0.003145 265.29123 292.41135
287.0 0.003484 265.25629 291.99570
270.0 0.00370 265.22150 291.56714
313.0 0.003195 265.18692 291.12463
286.0 0.003497 265.15256 290.66812
271.0 0.00369 265.11835 290.03564
293.0 0.003413 265.08435 289.55380
297.0 0.003367 265.05054 289.06097
278.0 0.00360 265.01691 288.55911
298.0 0.003356 264.98349 288.05029
293.0 0.003413 264.95023 287.53705
287.0 0.003484 264.91721 287.02170
293.0 0.003413 264.88437 286.50696
266.0 0.00376 264.85172 285.99542
290.0 0.003448 264.81924 285.48972
278.0 0.00360 264.78699 284.85770
310.0 0.003226 264.75491 284.37195
289.0 0.003460 264.72305 283.89969
292.0 0.003425 264.69138 283.44348
281.0 0.00356 264.65991 283.00577
299.0 0.003344 264.62863 282.58905
287.0 0.003484 264.59756 282.19626
290.0 0.003448 264.56668 281.82971
313.0 0.003195 264.53601 281.49268
274.0 0.00365 264.50552 281.19461
296.0 0.003378 264.47525 280.92535
284.0 0.00352 264.44519 280.69476
289.0 0.003460 264.41531 280.50653
277.0 0.00361 264.38565 280.36398
283.0 0.00353 264.35620 280.27148
275.0 0.00364 264.32693 280.23325
296.0 0.003378 264.29788 280.25339
283.0 0.00353 264.26904 280.33704
281.0 0.00356 264.24039 280.48914
314.0 0.003185 264.21194 280.71497
310.0 0.003226 264.18372 281.02008
310.0 0.003226 264.15567 281.41055
300.0 0.003333 264.12787 281.89224
305.0 0.003279 264.10025 282.43961
316.0 0.003165 264.07285 283.12268
304.0 0.003289 264.04565 283.91611
279.0 0.00358 264.01865 284.82590
293.0 0.003413 263.99188 285.85837
310.0 0.003226 263.96530 287.01926
313.0 0.003195 263.93893 288.31424
319.0 0.003135 263.91278 289.74805
289.0 0.003460 263.88687 291.32520
307.0 0.003257 263.86111 293.04898
303.0 0.003300 263.83560 294.92163
319.0 0.003135 263.81030 296.94458
348.0 0.002874 263.78519 299.11783
307.0 0.003257 263.76031 301.43951
313.0 0.003195 263.73563 303.90671
310.0 0.003226 263.71118 306.51425
309.0 0.003236 263.68695 309.25510
316.0 0.003165 263.66290 312.12036
315.0 0.003175 263.63910 315.09955
338.0 0.002959 263.61548 318.19968
340.0 0.002941 263.59210 321.36026
316.0 0.003165 263.56894 324.58478
341.0 0.002933 263.54599 327.85168
402.0 0.002488 263.52322 331.13657
375.0 0.002667 263.50070 334.41193
393.0 0.002545 263.47839 337.64719
378.0 0.002646 263.45630 340.80908
366.0 0.002732 263.43442 343.86185
378.0 0.002646 263.41275 346.76669
371.0 0.002695 263.39133 349.48401
406.0 0.002463 263.37009 351.97296
383.0 0.002611 263.34909 354.19354
399.0 0.002506 263.32828 356.10767
405.0 0.002469 263.30771 357.68091
384.0 0.002604 263.28735 358.88388
405.0 0.002469 263.26721 359.69550
375.0 0.002667 263.24728 360.10172
373.0 0.002681 263.22760 360.09793
399.0 0.002506 263.20810 359.68851
415.0 0.002410 263.18884 358.88663
409.0 0.002445 263.16980 357.71304
391.0 0.002558 263.15100 356.19455
395.0 0.002532 263.13239 354.36279
365.0 0.002740 263.11398 352.25204
380.0 0.002632 263.09583 349.89825
356.0 0.002809 263.07788 347.33786
344.0 0.002907 263.06015 344.60678
361.0 0.002770 263.04266 341.73929
326.0 0.003067 263.02536 338.76807
332.0 0.003012 263.00833 335.72369
340.0 0.002941 262.99149 332.63498
330.0 0.003030 262.97485 329.52805
315.0 0.003175 262.95847 326.42712
318.0 0.003145 262.94229 323.35400
311.0 0.003215 262.92633 320.32825
294.0 0.003401 262.91058 317.36716
323.0 0.003096 262.89508 314.48596
305.0 0.003279 262.87979 311.69781
317.0 0.003155 262.86472 309.19077
317.0 0.003155 262.84985 306.62076
305.0 0.003279 262.83524 304.17093
299.0 0.003344 262.82083 301.84689
298.0 0.003356 262.80664 299.65186
298.0 0.003356 262.79269 297.58847
307.0 0.003257 262.77893 295.65778
292.0 0.003425 262.76541 293.85947
300.0 0.003333 262.75214 292.19223
293.0 0.003413 262.73904 290.65372
271.0 0.00369 262.72620 289.24136
272.0 0.00368 262.71356 287.95151
294.0 0.003401 262.70114 286.78058
310.0 0.003226 262.68896 285.72400
306.0 0.003268 262.67697 284.77774
307.0 0.003257 262.66525 283.93704
290.0 0.003448 262.65372 283.19751
330.0 0.003030 262.64243 282.56964
265.0 0.00377 262.63135 282.01932
309.0 0.003236 262.62048 281.55722
286.0 0.003497 262.60983 281.17978
276.0 0.00362 262.59940 280.88303
294.0 0.003401 262.58920 280.66409
282.0 0.00355 262.57925 280.51968
308.0 0.003247 262.56949 280.44754
321.0 0.003115 262.55997 280.44516
285.0 0.00351 262.55063 280.51044
246.0 0.00407 262.54153 280.64221
295.0 0.003390 262.53268 280.83884
285.0 0.00351 262.52402 281.09949
280.0 0.00357 262.51559 281.42358
284.0 0.00352 262.50739 281.81088
300.0 0.003333 262.49939 282.26138
282.0 0.00355 262.49164 282.77560
293.0 0.003413 262.48407 283.35471
284.0 0.00352 262.47675 283.99985
284.0 0.00352 262.46960 284.71298
340.0 0.002941 262.46271 285.49619
310.0 0.003226 262.45605 286.35223
300.0 0.003333 262.44958 287.28369
324.0 0.003086 262.44336 288.29422
306.0 0.003268 262.43735 289.38678
324.0 0.003086 262.43152 290.56491
325.0 0.003077 262.42593 291.83173
281.0 0.00356 262.42056 293.19046
323.0 0.003096 262.41544 294.64429
325.0 0.003077 262.41049 296.19507
320.0 0.003125 262.40576 297.84515
310.0 0.003226 262.40128 299.59619
304.0 0.003289 262.39700 301.44891
303.0 0.003300 262.39291 303.40366
324.0 0.003086 262.38907 305.46063
313.0 0.003195 262.38544 307.61746
319.0 0.003135 262.38202 309.87280
299.0 0.003344 262.37881 312.22369
342.0 0.002924 262.37582 314.66666
325.0 0.003077 262.37305 317.19693
337.0 0.002967 262.37048 319.80890
318.0 0.003145 262.36813 322.49643
332.0 0.003012 262.36600 325.25134
335.0 0.002985 262.36404 328.06558
353.0 0.002833 262.36234 330.92902
328.0 0.003049 262.36084 333.83121
353.0 0.002833 262.35956 336.76028
379.0 0.002639 262.35849 339.70322
365.0 0.002740 262.35760 342.64621
345.0 0.002899 262.35696 345.57407
374.0 0.002674 262.35651 348.47131
395.0 0.002532 262.35626 351.32089
399.0 0.002506 262.35626 354.10580
362.0 0.002762 262.35645 356.80814
365.0 0.002740 262.35681 359.40994
373.0 0.002681 262.35742 361.90601
372.0 0.002688 262.35822 364.25421
405.0 0.002469 262.35925 366.45038
406.0 0.002463 262.36047 368.47900
389.0 0.002571 262.36191 370.32663
373.0 0.002681 262.36353 371.98151
338.0 0.002959 262.36539 373.43399
399.0 0.002506 262.36740 374.67706
364.0 0.002747 262.36966 375.70642
380.0 0.002632 262.37213 376.51996
379.0 0.002639 262.37476 377.11856
394.0 0.002538 262.37762 377.50528
386.0 0.002591 262.38071 377.68533
382.0 0.002618 262.38394 377.66589
371.0 0.002695 262.38742 377.45547
379.0 0.002639 262.39108 377.06403
352.0 0.002841 262.39496 376.50198
361.0 0.002770 262.39902 375.78021
359.0 0.002786 262.40329 374.90982
359.0 0.002786 262.40778 373.90219
363.0 0.002755 262.41241 372.76794
345.0 0.002899 262.41727 371.51773
364.0 0.002747 262.42233 370.16168
368.0 0.002717 262.42761 368.71002
369.0 0.002710 262.43304 367.21582
368.0 0.002717 262.43872 365.60168
341.0 0.002933 262.44455 363.92001
333.0 0.003003 262.45059 362.18030
361.0 0.002770 262.45682 360.39148
355.0 0.002817 262.46323 358.56296
353.0 0.002833 262.46985 356.70410
381.0 0.002625 262.47665 354.82394
379.0 0.002639 262.48367 352.93237
315.0 0.003175 262.49084 351.03815
366.0 0.002732 262.49823 349.15115
360.0 0.002778 262.50580 347.28027
345.0 0.002899 262.51358 345.43472
288.0 0.003472 262.52151 343.62308
321.0 0.003115 262.52966 341.85413
341.0 0.002933 262.53799 340.13589
344.0 0.002907 262.54648 338.47632
328.0 0.003049 262.55518 336.88281
336.0 0.002976 262.56406 335.36240
339.0 0.002950 262.57312 333.92206
324.0 0.003086 262.58237 332.56772
349.0 0.002865 262.59180 331.30548
306.0 0.003268 262.60141 330.14050
287.0 0.003484 262.61121 329.07791
322.0 0.003106 262.62119 328.12259
338.0 0.002959 262.63132 327.27823
296.0 0.003378 262.64166 326.54892
336.0 0.002976 262.65216 325.93781
346.0 0.002890 262.66284 325.44775
315.0 0.003175 262.67374 325.08136
294.0 0.003401 262.68475 324.83994
318.0 0.003145 262.69598 324.72540
320.0 0.003125 262.70737 324.73825
289.0 0.003460 262.71893 324.87869
322.0 0.003106 262.73068 325.14645
331.0 0.003021 262.74258 325.54025
300.0 0.003333 262.75467 326.06732
312.0 0.003205 262.76691 326.44855
297.0 0.003367 262.77936 327.20901
332.0 0.003012 262.79196 328.08408
316.0 0.003165 262.80472 329.06891
316.0 0.003165 262.81763 330.15768
333.0 0.003003 262.83075 331.34402
299.0 0.003344 262.84399 332.62054
306.0 0.003268 262.85742 333.97864
331.0 0.003021 262.87103 335.40927
309.0 0.003236 262.88480 336.90259
349.0 0.002865 262.89871 338.44684
321.0 0.003115 262.91278 340.03049
334.0 0.002994 262.92703 341.64053
298.0 0.003356 262.94144 343.26318
329.0 0.003040 262.95599 344.88345
309.0 0.003236 262.97073 346.48618
318.0 0.003145 262.98560 348.05515
343.0 0.002915 263.00064 349.52048
349.0 0.002865 263.01584 350.97049
314.0 0.003185 263.03116 352.33420
322.0 0.003106 263.04666 353.59348
341.0 0.002933 263.06232 354.73093
341.0 0.002933 263.07816 355.72879
335.0 0.002985 263.09412 356.57056
329.0 0.003040 263.11020 357.24118
333.0 0.003003 263.12646 357.72650
330.0 0.003030 263.14288 358.01517
353.0 0.002833 263.15945 358.09811
336.0 0.002976 263.17615 357.96884
317.0 0.003155 263.19299 357.62433
313.0 0.003195 263.20999 357.06415
316.0 0.003165 263.22714 356.29089
332.0 0.003012 263.24442 355.31079
296.0 0.003378 263.26184 354.13223
326.0 0.003067 263.27942 352.76614
330.0 0.003030 263.29712 351.22525
341.0 0.002933 263.31497 349.52402
311.0 0.003215 263.33298 347.67786
290.0 0.003448 263.35110 345.70313
314.0 0.003185 263.36935 343.61621
316.0 0.003165 263.38776 341.43344
324.0 0.003086 263.40628 339.17130
288.0 0.003472 263.42496 336.84552
311.0 0.003215 263.44376 334.47098
313.0 0.003195 263.46271 332.06250
320.0 0.003125 263.48175 329.64151
303.0 0.003300 263.50095 327.20486
292.0 0.003425 263.52029 324.77264
315.0 0.003175 263.53973 322.35599
306.0 0.003268 263.55933 319.96347
303.0 0.003300 263.57901 317.60782
282.0 0.00355 263.59885 315.33142
289.0 0.003460 263.61880 313.07132
290.0 0.003448 263.63892 310.87000
282.0 0.00355 263.65909 308.73318
296.0 0.003378 263.67941 306.66650
278.0 0.00360 263.69986 304.67435
308.0 0.003247 263.72043 302.76102
299.0 0.003344 263.74112 300.92908
295.0 0.003390 263.76190 299.18106
296.0 0.003378 263.78281 297.49252
297.0 0.003367 263.80383 295.91653
291.0 0.003436 263.82498 294.42734
260.0 0.00385 263.84625 293.02454
273.0 0.00366 263.86761 291.70734
285.0 0.00351 263.88910 290.47418
278.0 0.00360 263.91071 289.32358
275.0 0.00364 263.93237 288.25278
289.0 0.003460 263.95419 287.25983
297.0 0.003367 263.97610 286.34137
288.0 0.003472 263.99814 285.49442
287.0 0.003484 264.02026 284.71573
306.0 0.003268 264.04248 284.00198
289.0 0.003460 264.06482 283.34979
279.0 0.00358 264.08728 282.75592
270.0 0.00370 264.10980 282.21698
278.0 0.00360 264.13245 281.73019
271.0 0.00369 264.15515 281.29269
262.0 0.00382 264.17801 280.90222
299.0 0.003344 264.20093 280.55582
290.0 0.003448 264.22397 280.25195
296.0 0.003378 264.24707 279.98843
267.0 0.00375 264.27029 279.76108
277.0 0.00361 264.29361 279.57327
284.0 0.00352 264.31699 279.42053
281.0 0.00356 264.34048 279.30185
296.0 0.003378 264.36404 279.21558
286.0 0.003497 264.38770 279.16034
270.0 0.00370 264.41147 279.13464
283.0 0.00353 264.43530 279.13678
270.0 0.00370 264.45923 279.16571
278.0 0.00360 264.48325 279.21960
301.0 0.003322 264.50732 279.29703
286.0 0.003497 264.53146 279.39627
317.0 0.003155 264.55573 279.51584
280.0 0.00357 264.58005 279.65384
275.0 0.00364 264.60446 279.80872
290.0 0.003448 264.62894 279.97873
299.0 0.003344 264.65350 280.16202
280.0 0.00357 264.67813 280.35672
293.0 0.003413 264.70285 280.57495
295.0 0.003390 264.72763 280.78745
307.0 0.003257 264.75250 281.00635
286.0 0.003497 264.77740 281.22989
295.0 0.003390 264.80240 281.45691
280.0 0.00357 264.82748 281.68625
282.0 0.00355 264.85260 281.91666
299.0 0.003344 264.87781 282.14777
285.0 0.00351 264.90305 282.37875
284.0 0.00352 264.92838 282.60956
254.0 0.00394 264.95380 282.84009
281.0 0.00356 264.97922 283.07074
296.0 0.003378 265.00473 283.30197
309.0 0.003236 265.03030 283.53418
302.0 0.003311 265.05594 283.76825
307.0 0.003257 265.08163 284.00522
280.0 0.00357 265.10739 284.24582
295.0 0.003390 265.13318 284.49133
298.0 0.003356 265.15903 284.74316
285.0 0.00351 265.18494 285.00198
265.0 0.00377 265.21091 285.26968
295.0 0.003390 265.23691 285.54755
304.0 0.003289 265.26297 285.83725
275.0 0.00364 265.28909 286.14047
299.0 0.003344 265.31525 286.45831
284.0 0.00352 265.34146 286.79453
303.0 0.003300 265.36771 287.15057
264.0 0.00379 265.39401 287.52939
331.0 0.003021 265.42035 287.93347
284.0 0.00352 265.44672 288.36630
291.0 0.003436 265.47314 288.83163
295.0 0.003390 265.49960 289.33316
318.0 0.003145 265.52612 289.87540
295.0 0.003390 265.55264 290.46320
320.0 0.003125 265.57922 291.10208
279.0 0.00358 265.60583 291.67813
276.0 0.00362 265.63248 292.43707
284.0 0.00352 265.65915 293.26547
275.0 0.00364 265.68588 294.17029
292.0 0.003425 265.71262 295.19547
288.0 0.003472 265.73941 296.27573
290.0 0.003448 265.76620 297.45544
297.0 0.003367 265.79303 298.74268
300.0 0.003333 265.81989 300.14536
311.0 0.003215 265.84680 301.67139
314.0 0.003185 265.87372 303.30167
310.0 0.003226 265.90063 305.09717
304.0 0.003289 265.92758 307.03790
315.0 0.003175 265.95459 309.12958
316.0 0.003165 265.98157 311.37741
316.0 0.003165 266.00861 313.78543
311.0 0.003215 266.03564 316.35657
326.0 0.003067 266.06271 319.09195
327.0 0.003058 266.08978 321.99176
295.0 0.003390 266.11688 325.05383
306.0 0.003268 266.14398 328.27454
326.0 0.003067 266.17111 331.64777
341.0 0.002933 266.19824 335.16568
314.0 0.003185 266.22537 338.81790
334.0 0.002994 266.25253 342.59180
369.0 0.002710 266.27969 346.48590
371.0 0.002695 266.30685 350.45938
395.0 0.002532 266.33405 354.49518
400.0 0.002500 266.36124 358.57462
367.0 0.002725 266.38843 362.67151
349.0 0.002865 266.41562 366.75555
380.0 0.002632 266.44281 370.79413
409.0 0.002445 266.47000 374.75189
367.0 0.002725 266.49719 378.58978
387.0 0.002584 266.52441 382.26688
394.0 0.002538 266.55161 385.73975
403.0 0.002481 266.57880 388.96375
401.0 0.002494 266.60599 391.89377
418.0 0.002392 266.63321 394.48560
435.0 0.002299 266.66037 396.69705
422.0 0.002370 266.68756 398.48962
406.0 0.002463 266.71472 399.83054
419.0 0.002387 266.74188 400.69455
395.0 0.002532 266.76904 401.06406
404.0 0.002475 266.79617 400.93115
395.0 0.002532 266.82333 400.29782
410.0 0.002439 266.85043 399.17590
395.0 0.002532 266.87756 397.58588
386.0 0.002591 266.90463 395.55588
380.0 0.002632 266.93173 393.12103
402.0 0.002488 266.95880 390.32086
388.0 0.002577 266.98584 387.19778
330.0 0.003030 267.01288 383.79617
402.0 0.002488 267.03989 380.15997
345.0 0.002899 267.06686 376.33319
364.0 0.002747 267.09384 372.35754
382.0 0.002618 267.12079 368.27255
347.0 0.002882 267.14771 364.11530
334.0 0.002994 267.17462 359.92017
328.0 0.003049 267.20151 355.71439
329.0 0.003040 267.22836 351.53427
319.0 0.003135 267.25516 347.40164
351.0 0.002849 267.28198 343.33926
337.0 0.002967 267.30875 339.36719
327.0 0.003058 267.33548 335.53897
322.0 0.003106 267.36221 331.79788
314.0 0.003185 267.38889 328.19263
289.0 0.003460 267.41553 324.73364
302.0 0.003311 267.44214 321.42908
314.0 0.003185 267.46872 318.28534
308.0 0.003247 267.49530 315.30704
329.0 0.003040 267.52179 312.49677
295.0 0.003390 267.54828 309.85571
279.0 0.00358 267.57474 307.38351
315.0 0.003175 267.60110 305.08240
309.0 0.003236 267.62747 302.94196
272.0 0.00368 267.65381 300.96225
310.0 0.003226 267.68011 299.13873
287.0 0.003484 267.70633 297.46619
313.0 0.003195 267.73254 295.93890
297.0 0.003367 267.75870 294.55038
278.0 0.00360 267.78479 293.29440
276.0 0.00362 267.81088 292.16409
306.0 0.003268 267.83688 291.26459
287.0 0.003484 267.86288 290.36694
294.0 0.003401 267.88879 289.57492
310.0 0.003226 267.91467 288.88263
310.0 0.003226 267.94049 288.28394
288.0 0.003472 267.96628 287.77307
297.0 0.003367 267.99200 287.34412
303.0 0.003300 268.01767 286.99222
278.0 0.00360 268.04333 286.71252
306.0 0.003268 268.06891 286.50055
299.0 0.003344 268.09442 286.35220
296.0 0.003378 268.11987 286.26364
297.0 0.003367 268.14529 286.23114
296.0 0.003378 268.17065 286.25186
317.0 0.003155 268.19595 286.32272
286.0 0.003497 268.22119 286.44098
291.0 0.003436 268.24637 286.60416
288.0 0.003472 268.27151 286.68869
298.0 0.003356 268.29657 286.93591
306.0 0.003268 268.32156 287.22134
279.0 0.00358 268.34653 287.57532
298.0 0.003356 268.37140 287.93146
298.0 0.003356 268.39621 288.31992
311.0 0.003215 268.42096 288.73013
283.0 0.00353 268.44565 289.17676
293.0 0.003413 268.47028 289.64932
307.0 0.003257 268.49484 290.14569
254.0 0.00394 268.51932 290.66364
275.0 0.00364 268.54376 291.20117
285.0 0.00351 268.56815 291.76175
275.0 0.00364 268.59244 292.33179
288.0 0.003472 268.61664 292.91486
302.0 0.003311 268.64081 293.50931
301.0 0.003322 268.66489 294.11288
309.0 0.003236 268.68890 294.72348
308.0 0.003247 268.71286 295.33972
307.0 0.003257 268.73672 295.95947
303.0 0.003300 268.76053 296.58060
284.0 0.00352 268.78424 297.20120
297.0 0.003367 268.80789 297.80319
272.0 0.00368 268.83145 298.30054
307.0 0.003257 268.85495 298.90585
283.0 0.00353 268.87839 299.50009
293.0 0.003413 268.90173 300.08005
308.0 0.003247 268.92502 300.64166
340.0 0.002941 268.94821 301.18100
265.0 0.00377 268.97134 301.69363
289.0 0.003460 268.99435 302.17444
311.0 0.003215 269.01733 302.61893
296.0 0.003378 269.04019 303.02155
322.0 0.003106 269.06299 303.37720
285.0 0.00351 269.08572 303.68060
315.0 0.003175 269.10837 303.92709
327.0 0.003058 269.13092 304.11194
324.0 0.003086 269.15341 304.23166
307.0 0.003257 269.17581 304.28293
313.0 0.003195 269.19809 304.26370
310.0 0.003226 269.22034 304.17300
297.0 0.003367 269.24249 304.01096
297.0 0.003367 269.26453 303.77872
293.0 0.003413 269.28650 303.47858
297.0 0.003367 269.30838 303.11404
290.0 0.003448 269.33020 302.68945
317.0 0.003155 269.35190 302.20966
309.0 0.003236 269.37354 301.68042
279.0 0.00358 269.39508 301.10760
301.0 0.003322 269.41650 300.49765
281.0 0.00356 269.43790 299.85666
306.0 0.003268 269.45917 299.19089
315.0 0.003175 269.48035 298.50650
295.0 0.003390 269.50143 297.80914
279.0 0.00358 269.52246 297.10446
301.0 0.003322 269.54337 296.39740
280.0 0.00357 269.56421 295.69278
277.0 0.00361 269.58493 294.99463
290.0 0.003448 269.60559 294.30710
270.0 0.00370 269.62613 293.63364
291.0 0.003436 269.64658 292.97745
281.0 0.00356 269.66696 292.34097
285.0 0.00351 269.68723 291.72665
307.0 0.003257 269.70743 291.13635
279.0 0.00358 269.72751 290.57156
293.0 0.003413 269.74750 290.03375
288.0 0.003472 269.76743 289.56122
297.0 0.003367 269.78723 289.07983
276.0 0.00362 269.80695 288.62726
312.0 0.003205 269.82657 288.20364
268.0 0.00373 269.84607 287.80896
288.0 0.003472 269.86551 287.44312
291.0 0.003436 269.88483 287.10605
295.0 0.003390 269.90408 286.79688
317.0 0.003155 269.92322 286.51572
319.0 0.003135 269.94226 286.26221
289.0 0.003460 269.96121 286.03558
276.0 0.00362 269.98007 285.83582
274.0 0.00365 269.99881 285.66266
269.0 0.00372 270.01749 285.51584
307.0 0.003257 270.03604 285.35327
300.0 0.003333 270.05450 285.25897
283.0 0.00353 270.07285 285.19073
299.0 0.003344 270.09113 285.14859
274.0 0.00365 270.10931 285.00201
292.0 0.003425 270.12738 285.01282
298.0 0.003356 270.14536 285.04987
307.0 0.003257 270.16321 285.11554
297.0 0.003367 270.18100 285.24319
310.0 0.003226 270.19867 285.35825
264.0 0.00379 270.21625 285.49915
298.0 0.003356 270.23373 285.66556
273.0 0.00366 270.25110 285.85687
277.0 0.00361 270.26837 286.07266
311.0 0.003215 270.28558 286.31244
304.0 0.003289 270.30264 286.57559
286.0 0.003497 270.31964 286.86115
288.0 0.003472 270.33652 287.16833
288.0 0.003472 270.35330 287.49588
269.0 0.00372 270.37000 287.84271
326.0 0.003067 270.38657 288.20724
292.0 0.003425 270.40305 288.58801
281.0 0.00356 270.41943 288.98331
302.0 0.003311 270.43570 289.39114
312.0 0.003205 270.45190 289.80692
310.0 0.003226 270.46799 290.23352
307.0 0.003257 270.48398 290.66565
285.0 0.00351 270.49985 291.10101
272.0 0.00368 270.51563 291.53671
283.0 0.00353 270.53134 291.96948
272.0 0.00368 270.54691 292.39636
276.0 0.00362 270.56241 292.81372
275.0 0.00364 270.57776 293.21838
290.0 0.003448 270.59305 293.60672
293.0 0.003413 270.60825 293.97498
295.0 0.003390 270.62332 294.31952
289.0 0.003460 270.63834 294.63708
290.0 0.003448 270.65320 294.92410
324.0 0.003086 270.66800 295.17764
289.0 0.003460 270.68271 295.39499
302.0 0.003311 270.69730 295.57379
294.0 0.003401 270.71176 295.71246
276.0 0.00362 270.72617 295.80963
303.0 0.003300 270.74045 295.86505
312.0 0.003205 270.75467 295.87848
298.0 0.003356 270.76877 295.90466
299.0 0.003344 270.78275 295.83698
285.0 0.00351 270.79666 295.73090
312.0 0.003205 270.81046 295.58859
277.0 0.00361 270.82416 295.41205
307.0 0.003257 270.83777 295.20432
302.0 0.003311 270.85129 294.96457
297.0 0.003367 270.86469 294.70306
272.0 0.00368 270.87802 294.41922
306.0 0.003268 270.89124 294.11633
324.0 0.003086 270.90436 293.79788
285.0 0.00351 270.91739 293.46701
315.0 0.003175 270.93033 293.12674
311.0 0.003215 270.94315 292.78073
301.0 0.003322 270.95590 292.43173
297.0 0.003367 270.96854 292.08286
290.0 0.003448 270.98108 291.73807
300.0 0.003333 270.99353 291.39835
274.0 0.00365 271.00589 291.06735
310.0 0.003226 271.01819 290.81909
287.0 0.003484 271.03033 290.51315
298.0 0.003356 271.04242 290.22272
306.0 0.003268 271.05441 289.95020
305.0 0.003279 271.06631 289.69711
309.0 0.003236 271.07809 289.46512
292.0 0.003425 271.08981 289.25552
308.0 0.003247 271.10144 289.06961
258.0 0.00388 271.11298 288.90820
278.0 0.00360 271.12439 288.77219
283.0 0.00353 271.13574 288.66208
289.0 0.003460 271.14700 288.57782
296.0 0.003378 271.15817 288.51993
284.0 0.00352 271.16922 288.48804
300.0 0.003333 271.18021 288.48148
286.0 0.003497 271.19110 288.50000
279.0 0.00358 271.20193 288.54221
286.0 0.003497 271.21265 288.59961
307.0 0.003257 271.22327 288.68637
296.0 0.003378 271.23383 288.79297
313.0 0.003195 271.24426 288.91754
300.0 0.003333 271.25464 289.05807
320.0 0.003125 271.26492 289.21222
318.0 0.003145 271.27512 289.37772
301.0 0.003322 271.28525 289.55164
294.0 0.003401 271.29526 289.73132
291.0 0.003436 271.30521 289.91418
305.0 0.003279 271.31509 290.09766
280.0 0.00357 271.32486 290.27933
294.0 0.003401 271.33456 290.45691
275.0 0.00364 271.34418 290.62888
292.0 0.003425 271.35370 290.79370
322.0 0.003106 271.36316 290.95084
296.0 0.003378 271.37256 291.10040
291.0 0.003436 271.38184 291.24292
283.0 0.00353 271.39105 291.37976
324.0 0.003086 271.40018 291.51202
288.0 0.003472 271.40924 291.64267
296.0 0.003378 271.41821 291.77350
285.0 0.00351 271.42712 291.90747
271.0 0.00369 271.43594 292.04733
292.0 0.003425 271.44470 292.19583
313.0 0.003195 271.45337 292.35544
303.0 0.003300 271.46198 292.52878
300.0 0.003333 271.47049 292.71777
315.0 0.003175 271.47894 292.94110
295.0 0.003390 271.48730 293.16718
277.0 0.00361 271.49561 293.41348
309.0 0.003236 271.50385 293.68143
292.0 0.003425 271.51202 293.96997
309.0 0.003236 271.52011 294.25601
318.0 0.003145 271.52811 294.59003
301.0 0.003322 271.53607 294.94559
308.0 0.003247 271.54398 295.32166
299.0 0.003344 271.55179 295.71729
286.0 0.003497 271.55954 296.13080
307.0 0.003257 271.56720 296.56049
324.0 0.003086 271.57483 297.00421
285.0 0.00351 271.58240 297.45963
294.0 0.003401 271.58987 297.92380
319.0 0.003135 271.59729 298.39441
314.0 0.003185 271.60464 298.86765
284.0 0.00352 271.61194 299.34067
343.0 0.002915 271.61920 299.80988
316.0 0.003165 271.62634 300.27179
332.0 0.003012 271.63348 300.72324
322.0 0.003106 271.64050 301.16061
321.0 0.003115 271.64752 301.58060
315.0 0.003175 271.65445 301.98019
291.0 0.003436 271.66135 302.35687
307.0 0.003257 271.66815 302.70813
305.0 0.003279 271.67493 303.03159
300.0 0.003333 271.68164 303.32632
305.0 0.003279 271.68829 303.59406
299.0 0.003344 271.69492 303.82767
320.0 0.003125 271.70145 304.03033
331.0 0.003021 271.70798 304.20197
322.0 0.003106 271.71442 304.34378
325.0 0.003077 271.72083 304.45642
283.0 0.00353 271.72717 304.54135
295.0 0.003390 271.73346 304.59998
289.0 0.003460 271.73972 304.63431
324.0 0.003086 271.74591 304.64627
312.0 0.003205 271.75208 304.64420
322.0 0.003106 271.75818 304.61850
311.0 0.003215 271.76425 304.57724
314.0 0.003185 271.77026 304.52359
309.0 0.003236 271.77628 304.46024
289.0 0.003460 271.78223 304.39017
297.0 0.003367 271.78809 304.11249
290.0 0.003448 271.79395 304.04105
293.0 0.003413 271.79977 303.97354
289.0 0.003460 271.80554 303.91464
303.0 0.003300 271.81131 303.86877
309.0 0.003236 271.81702 303.84082
316.0 0.003165 271.82266 303.83566
342.0 0.002924 271.82831 303.85870
307.0 0.003257 271.83389 303.91568
311.0 0.003215 271.83948 304.01184
283.0 0.00353 271.84500 304.15305
305.0 0.003279 271.85049 304.34460
308.0 0.003247 271.85596 304.59174
307.0 0.003257 271.86139 304.89987
280.0 0.00357 271.86682 305.28647
298.0 0.003356 271.87219 305.73032
322.0 0.003106 271.87753 306.24866
323.0 0.003096 271.88287 306.82751
309.0 0.003236 271.88818 307.50473
307.0 0.003257 271.89346 308.26529
312.0 0.003205 271.89871 309.11102
283.0 0.00353 271.90393 310.04340
298.0 0.003356 271.90915 311.06314
320.0 0.003125 271.91434 312.17010
300.0 0.003333 271.91949 313.36356
334.0 0.002994 271.92465 314.64178
314.0 0.003185 271.92978 316.00266
317.0 0.003155 271.93491 317.44296
323.0 0.003096 271.94000 318.95889
305.0 0.003279 271.94507 320.54578
334.0 0.002994 271.95013 322.19781
308.0 0.003247 271.95520 323.90872
313.0 0.003195 271.96024 325.67154
333.0 0.003003 271.96527 327.47806
354.0 0.002825 271.97031 329.31995
327.0 0.003058 271.97531 331.18777
318.0 0.003145 271.98032 333.07220
332.0 0.003012 271.98532 334.96335
346.0 0.002890 271.99030 336.85117
345.0 0.002899 271.99527 338.72552
359.0 0.002786 272.00024 340.57709
300.0 0.003333 272.00522 342.39639
357.0 0.002801 272.01022 344.17477
333.0 0.003003 272.01517 345.90436
339.0 0.002950 272.02014 347.57733
366.0 0.002732 272.02512 349.18732
325.0 0.003077 272.03009 350.72797
372.0 0.002688 272.03506 352.19400
382.0 0.002618 272.04004 353.58002
356.0 0.002809 272.04501 354.88120
352.0 0.002841 272.05002 356.09280
355.0 0.002817 272.05499 357.20950
358.0 0.002793 272.06000 358.22818
362.0 0.002762 272.06500 359.14371
361.0 0.002770 272.07004 359.95148
391.0 0.002558 272.07507 360.64713
368.0 0.002717 272.08008 361.22675
394.0 0.002538 272.08514 361.68643
354.0 0.002825 272.09021 362.02295
383.0 0.002611 272.09531 362.23376
379.0 0.002639 272.10040 362.31702
351.0 0.002849 272.10550 362.27188
315.0 0.003175 272.11063 362.09836
360.0 0.002778 272.11578 361.79758
368.0 0.002717 272.12094 361.37158
379.0 0.002639 272.12613 360.82321
340.0 0.002941 272.13132 360.15707
358.0 0.002793 272.13657 359.37717
376.0 0.002660 272.14182 358.56561
371.0 0.002695 272.14709 357.57608
342.0 0.002924 272.15240 356.49045
339.0 0.002950 272.15775 355.34625
342.0 0.002924 272.16309 354.08740
331.0 0.003021 272.16849 352.73743
351.0 0.002849 272.17389 351.33020
337.0 0.002967 272.17935 349.85770
323.0 0.003096 272.18481 348.32571
348.0 0.002874 272.19034 346.73965
310.0 0.003226 272.19589 345.10492
342.0 0.002924 272.20145 343.42676
315.0 0.003175 272.20706 341.71063
343.0 0.002915 272.21274 339.96194
322.0 0.003106 272.21841 338.18616
312.0 0.003205 272.22415 336.38882
313.0 0.003195 272.22989 334.57568
322.0 0.003106 272.23572 332.75302
294.0 0.003401 272.24158 330.92664
311.0 0.003215 272.24747 329.10263
327.0 0.003058 272.25342 327.28748
304.0 0.003289 272.25940 325.48730
306.0 0.003268 272.26541 323.72089
316.0 0.003165 272.27148 321.96881
311.0 0.003215 272.27762 320.24948
306.0 0.003268 272.28378 318.56845
297.0 0.003367 272.29001 316.93097
293.0 0.003413 272.29626 315.34183
289.0 0.003460 272.30258 313.80557
293.0 0.003413 272.30896 312.27600
305.0 0.003279 272.31540 310.85812
320.0 0.003125 272.32190 309.50430
299.0 0.003344 272.32843 308.21771
299.0 0.003344 272.33502 307.00116
302.0 0.003311 272.34167 305.85651
307.0 0.003257 272.34842 304.78616
287.0 0.003484 272.35519 303.79138
305.0 0.003279 272.36203 302.87326
314.0 0.003185 272.36890 302.03265
301.0 0.003322 272.37589 301.27008
289.0 0.003460 272.38290 300.58606
323.0 0.003096 272.38998 299.98001
295.0 0.003390 272.39716 299.45203
312.0 0.003205 272.40436 299.00098
286.0 0.003497 272.41165 298.62628
299.0 0.003344 272.41901 298.32669
285.0 0.00351 272.42645 298.10059
302.0 0.003311 272.43393 297.94662
294.0 0.003401 272.44150 297.86276
291.0 0.003436 272.44913 297.84695
281.0 0.00356 272.45685 297.89694
320.0 0.003125 272.46466 298.01025
300.0 0.003333 272.47253 298.18427
306.0 0.003268 272.48047 298.41626
295.0 0.003390 272.48849 298.70309
288.0 0.003472 272.49658 299.04169
304.0 0.003289 272.50476 299.42896
316.0 0.003165 272.51303 299.86139
314.0 0.003185 272.52136 300.33521
305.0 0.003279 272.52979 300.84695
309.0 0.003236 272.53827 301.39270
323.0 0.003096 272.54688 301.96851
302.0 0.003311 272.55554 302.57050
317.0 0.003155 272.56430 303.19424
316.0 0.003165 272.57315 303.82547
320.0 0.003125 272.58206 304.48032
325.0 0.003077 272.59109 305.14429
315.0 0.003175 272.60019 305.81305
316.0 0.003165 272.60941 306.48193
294.0 0.003401 272.61871 307.14709
298.0 0.003356 272.62808 307.80411
298.0 0.003356 272.63754 308.44888
326.0 0.003067 272.64713 309.07779
288.0 0.003472 272.65680 309.68680
315.0 0.003175 272.66656 310.27426
320.0 0.003125 272.67639 310.83466
316.0 0.003165 272.68637 311.36673
314.0 0.003185 272.69641 311.86819
311.0 0.003215 272.70657 312.33743
334.0 0.002994 272.71683 312.77325
322.0 0.003106 272.72717 313.17493
294.0 0.003401 272.73764 313.54199
301.0 0.003322 272.74817 313.87485
328.0 0.003049 272.75882 314.17392
332.0 0.003012 272.76959 314.44022
325.0 0.003077 272.78046 314.67471
325.0 0.003077 272.79144 314.87930
312.0 0.003205 272.80252 315.05560
334.0 0.002994 272.81369 315.20584
323.0 0.003096 272.82501 315.34103
276.0 0.00362 272.83640 315.44617
343.0 0.002915 272.84793 315.53250
306.0 0.003268 272.85953 315.60303
336.0 0.002976 272.87128 315.66077
319.0 0.003135 272.88312 315.70886
303.0 0.003300 272.89508 315.75082
313.0 0.003195 272.90717 315.79010
333.0 0.003003 272.91934 315.83057
311.0 0.003215 272.93164 315.87625
343.0 0.002915 272.94406 315.93103
306.0 0.003268 272.95660 315.99933
291.0 0.003436 272.96924 316.08517
294.0 0.003401 272.98203 316.19296
287.0 0.003484 272.99490 316.32727
307.0 0.003257 273.00790 316.49200
316.0 0.003165 273.02103 316.69147
285.0 0.00351 273.03430 316.92926
333.0 0.003003 273.04767 317.20947
322.0 0.003106 273.06116 317.53497
326.0 0.003067 273.07477 317.90887
315.0 0.003175 273.08850 318.32480
298.0 0.003356 273.10236 318.80264
306.0 0.003268 273.11636 319.33496
321.0 0.003115 273.13046 319.92273
316.0 0.003165 273.14468 320.56601
298.0 0.003356 273.15906 321.26450
301.0 0.003322 273.17355 321.97723
319.0 0.003135 273.18820 322.78290
321.0 0.003115 273.20294 323.63885
340.0 0.002941 273.21783 324.54190
316.0 0.003165 273.23282 325.48785
308.0 0.003247 273.24796 326.47232
331.0 0.003021 273.26324 327.48972
313.0 0.003195 273.27866 328.53394
342.0 0.002924 273.29419 329.59787
329.0 0.003040 273.30984 330.67407
313.0 0.003195 273.32565 331.75439
340.0 0.002941 273.34158 332.83005
343.0 0.002915 273.35767 333.89139
359.0 0.002786 273.37387 334.92923
316.0 0.003165 273.39020 335.93402
324.0 0.003086 273.40668 336.89618
320.0 0.003125 273.42328 337.80606
341.0 0.002933 273.44003 338.65555
337.0 0.002967 273.45694 339.43607
354.0 0.002825 273.47397 340.14096
368.0 0.002717 273.49112 340.76395
350.0 0.002857 273.50842 341.30032
338.0 0.002959 273.52585 341.74625
360.0 0.002778 273.54346 342.09976
347.0 0.002882 273.56119 342.35901
332.0 0.003012 273.57901 342.52399
341.0 0.002933 273.59705 342.59521
346.0 0.002890 273.61517 342.57355
374.0 0.002674 273.63348 342.46063
367.0 0.002725 273.65192 342.25854
381.0 0.002625 273.67050 341.96954
373.0 0.002681 273.68921 341.59555
394.0 0.002538 273.70807 341.13922
332.0 0.003012 273.72708 340.60257
340.0 0.002941 273.74622 339.98816
331.0 0.003021 273.76553 339.32928
338.0 0.002959 273.78497 338.56744
340.0 0.002941 273.80453 337.73602
343.0 0.002915 273.82428 336.83823
348.0 0.002874 273.84418 335.87781
355.0 0.002817 273.86420 334.85886
339.0 0.002950 273.88437 333.78903
330.0 0.003030 273.90469 332.66650
326.0 0.003067 273.92514 331.50061
315.0 0.003175 273.94577 330.29617
327.0 0.003058 273.96652 329.05972
335.0 0.002985 273.98746 327.79733
285.0 0.00351 274.00851 326.51523
297.0 0.003367 274.02972 325.21976
319.0 0.003135 274.05109 323.90149
305.0 0.003279 274.07257 322.59830
305.0 0.003279 274.09424 321.29980
318.0 0.003145 274.11606 320.01205
339.0 0.002950 274.13800 318.74011
313.0 0.003195 274.16013 317.48886
316.0 0.003165 274.18237 316.26303
291.0 0.003436 274.20477 315.06631
317.0 0.003155 274.22736 313.90237
293.0 0.003413 274.25006 312.77454
288.0 0.003472 274.27289 311.68521
345.0 0.002899 274.29593 310.63684
302.0 0.003311 274.31909 309.63101
306.0 0.003268 274.34241 308.66934
293.0 0.003413 274.36588 307.75220
274.0 0.00365 274.38950 306.88071
295.0 0.003390 274.41324 306.05450
303.0 0.003300 274.43716 305.27359
333.0 0.003003 274.46124 304.53714
282.0 0.00355 274.48547 303.84409
327.0 0.003058 274.50986 303.19287
308.0 0.003247 274.53436 302.58188
299.0 0.003344 274.55905 302.00891
319.0 0.003135 274.58389 301.47156
313.0 0.003195 274.60889 300.96732
312.0 0.003205 274.63400 300.49289
304.0 0.003289 274.65930 300.04517
308.0 0.003247 274.68472 299.62082
296.0 0.003378 274.71033 299.21655
300.0 0.003333 274.73608 298.82886
273.0 0.00366 274.76196 298.45477
302.0 0.003311 274.78802 298.09067
319.0 0.003135 274.81421 297.73416
309.0 0.003236 274.84058 297.38269
294.0 0.003401 274.86707 297.03439
304.0 0.003289 274.89374 296.68762
334.0 0.002994 274.92053 296.34149
278.0 0.00360 274.94748 295.99554
307.0 0.003257 274.97461 295.66376
315.0 0.003175 275.00186 295.27692
277.0 0.00361 275.02927 294.94318
323.0 0.003096 275.05682 294.60327
298.0 0.003356 275.08453 294.26761
312.0 0.003205 275.11240 293.93860
292.0 0.003425 275.14041 293.61594
325.0 0.003077 275.16858 293.30240
318.0 0.003145 275.19690 292.99933
279.0 0.00358 275.22537 292.70816
279.0 0.00358 275.25397 292.43066
314.0 0.003185 275.28271 292.16760
284.0 0.00352 275.31165 291.92026
301.0 0.003322 275.34070 291.68958
306.0 0.003268 275.36990 291.47638
304.0 0.003289 275.39923 291.28125
302.0 0.003311 275.42874 291.10458
263.0 0.00380 275.45840 290.94690
315.0 0.003175 275.48819 290.80850
313.0 0.003195 275.51816 290.68924
323.0 0.003096 275.54825 290.58923
322.0 0.003106 275.57846 290.50824
304.0 0.003289 275.60883 290.42993
297.0 0.003367 275.63937 290.38077
278.0 0.00360 275.67004 290.35550
305.0 0.003279 275.70087 290.34775
292.0 0.003425 275.73184 290.35703
300.0 0.003333 275.76294 290.39334
307.0 0.003257 275.79416 290.43512
283.0 0.00353 275.82556 290.49203
319.0 0.003135 275.85709 290.56345
287.0 0.003484 275.88879 290.64874
279.0 0.00358 275.92059 290.74710
280.0 0.00357 275.95255 290.85806
316.0 0.003165 275.98465 290.98077
295.0 0.003390 276.01688 291.11438
291.0 0.003436 276.04929 291.25845
300.0 0.003333 276.08179 291.42856
308.0 0.003247 276.11444 291.59152
308.0 0.003247 276.14725 291.76279
330.0 0.003030 276.18018 291.94214
300.0 0.003333 276.21326 292.12851
314.0 0.003185 276.24646 292.32126
316.0 0.003165 276.27982 292.52008
301.0 0.003322 276.31326 292.72433
319.0 0.003135 276.34689 292.93326
301.0 0.003322 276.38065 293.14658
278.0 0.00360 276.41452 293.36380
288.0 0.003472 276.44855 293.58459
290.0 0.003448 276.48267 293.80856
279.0 0.00358 276.51697 294.03619
278.0 0.00360 276.55136 294.26682
303.0 0.003300 276.58591 294.50119
305.0 0.003279 276.62057 294.73984
309.0 0.003236 276.65536 294.98355
318.0 0.003145 276.69031 295.23322
279.0 0.00358 276.72534 295.49042
309.0 0.003236 276.76053 295.94919
296.0 0.003378 276.79584 296.22733
302.0 0.003311 276.83130 296.51831
322.0 0.003106 276.86682 296.82446
315.0 0.003175 276.90253 297.10620
296.0 0.003378 276.93832 297.44943
312.0 0.003205 276.97424 297.81458
313.0 0.003195 277.01031 298.20404
291.0 0.003436 277.04645 298.62006
309.0 0.003236 277.08276 299.06476
308.0 0.003247 277.11917 299.54010
300.0 0.003333 277.15570 300.04810
313.0 0.003195 277.19235 300.58990
298.0 0.003356 277.22913 301.16739
293.0 0.003413 277.26599 301.77689
312.0 0.003205 277.30298 302.42859
307.0 0.003257 277.34009 303.11835
304.0 0.003289 277.37732 303.84662
323.0 0.003096 277.41464 304.61337
297.0 0.003367 277.45209 305.41840
312.0 0.003205 277.48965 306.26141
301.0 0.003322 277.52731 307.14139
294.0 0.003401 277.56509 308.05746
283.0 0.00353 277.60300 308.87833
275.0 0.00364 277.64099 309.86188
300.0 0.003333 277.67908 310.87634
292.0 0.003425 277.71729 311.91882
302.0 0.003311 277.75558 312.98691
322.0 0.003106 277.79401 314.07727
321.0 0.003115 277.83249 315.18710
325.0 0.003077 277.87112 316.31232
304.0 0.003289 277.90985 317.44922
302.0 0.003311 277.94864 318.59363
304.0 0.003289 277.98755 319.74103
311.0 0.003215 278.02658 320.88669
337.0 0.002967 278.06567 322.02560
334.0 0.002994 278.10486 323.15244
310.0 0.003226 278.14417 324.44403
349.0 0.002865 278.18353 325.53168
346.0 0.002890 278.22302 326.59070
353.0 0.002833 278.26260 327.61511
320.0 0.003125 278.30225 328.59912
301.0 0.003322 278.34201 329.53699
328.0 0.003049 278.38181 330.38541
328.0 0.003049 278.42175 331.21341
327.0 0.003058 278.46176 331.97839
328.0 0.003049 278.50183 332.67493
296.0 0.003378 278.54199 333.29822
346.0 0.002890 278.58228 333.84418
339.0 0.002950 278.62259 334.30875
323.0 0.003096 278.66299 334.68896
341.0 0.002933 278.70349 334.98206
340.0 0.002941 278.74408 335.18631
320.0 0.003125 278.78473 335.29385
355.0 0.002817 278.82541 335.31763
310.0 0.003226 278.86624 335.29343
313.0 0.003195 278.90710 335.13818
304.0 0.003289 278.94800 334.89542
292.0 0.003425 278.98901 334.56729
290.0 0.003448 279.03009 334.15674
325.0 0.003077 279.07123 333.66690
303.0 0.003300 279.11243 333.10156
315.0 0.003175 279.15372 332.46420
319.0 0.003135 279.19507 331.75958
316.0 0.003165 279.23642 330.99179
334.0 0.002994 279.27789 330.16507
298.0 0.003356 279.31940 329.28418
319.0 0.003135 279.36099 328.35352
288.0 0.003472 279.40259 327.37775
300.0 0.003333 279.44427 326.36124
294.0 0.003401 279.48602 325.30838
322.0 0.003106 279.52780 324.22388
329.0 0.003040 279.56967 323.11194
311.0 0.003215 279.61157 321.97681
301.0 0.003322 279.65353 320.82269
312.0 0.003205 279.69547 319.65393
308.0 0.003247 279.73752 318.47461
306.0 0.003268 279.77960 317.28885
303.0 0.003300 279.82175 316.10059
305.0 0.003279 279.86389 314.91348
319.0 0.003135 279.90610 313.73163
307.0 0.003257 279.94836 312.55844
282.0 0.00355 279.99063 311.39749
310.0 0.003226 280.03296 310.25381
310.0 0.003226 280.07532 309.12708
318.0 0.003145 280.11771 308.02194
303.0 0.003300 280.16010 306.94089
276.0 0.00362 280.20255 305.88651
276.0 0.00362 280.24506 304.86118
297.0 0.003367 280.28754 303.86652
304.0 0.003289 280.33005 302.90463
291.0 0.003436 280.37262 301.97705
305.0 0.003279 280.41522 301.08505
311.0 0.003215 280.45779 300.22952
293.0 0.003413 280.50043 299.41153
289.0 0.003460 280.54309 298.63181
327.0 0.003058 280.58569 297.89078
306.0 0.003268 280.62839 297.18857
294.0 0.003401 280.67108 296.52563
303.0 0.003300 280.71381 295.90921
294.0 0.003401 280.75647 295.32434
278.0 0.00360 280.79919 294.77808
307.0 0.003257 280.84195 294.27005
260.0 0.00385 280.88467 293.80396
312.0 0.003205 280.92740 293.37045
305.0 0.003279 280.97015 292.97308
273.0 0.00366 281.01291 292.61084
295.0 0.003390 281.05563 292.23941
296.0 0.003378 281.09839 291.94510
316.0 0.003165 281.14111 291.68292
305.0 0.003279 281.18387 291.45175
286.0 0.003497 281.22659 291.25018
284.0 0.00352 281.26932 291.07697
286.0 0.003497 281.31204 290.93079
299.0 0.003344 281.35471 290.81024
282.0 0.00355 281.39740 290.71408
297.0 0.003367 281.44009 290.64056
302.0 0.003311 281.48276 290.58853
282.0 0.00355 281.52539 290.55612
267.0 0.00375 281.56802 290.54218
297.0 0.003367 281.61063 290.54507
279.0 0.00358 281.65320 290.56329
305.0 0.003279 281.69577 290.59534
292.0 0.003425 281.73831 290.63947
284.0 0.00352 281.78082 290.69449
284.0 0.00352 281.82327 290.75858
291.0 0.003436 281.86572 290.83038
283.0 0.00353 281.90817 290.90845
276.0 0.00362 281.95056 290.94409
334.0 0.002994 281.99286 291.03030
292.0 0.003425 282.03519 291.11862
286.0 0.003497 282.07748 291.20682
273.0 0.00366 282.11969 291.29456
274.0 0.00365 282.16190 291.38010
270.0 0.00370 282.20404 291.46552
291.0 0.003436 282.24615 291.54324
290.0 0.003448 282.28818 291.61563
286.0 0.003497 282.33020 291.68182
302.0 0.003311 282.37216 291.74112
287.0 0.003484 282.41403 291.79382
312.0 0.003205 282.45590 291.83792
270.0 0.00370 282.49771 291.87439
302.0 0.003311 282.53946 291.90286
297.0 0.003367 282.58112 291.92416
313.0 0.003195 282.62277 291.93863
279.0 0.00358 282.66434 291.94696
297.0 0.003367 282.70581 291.95004
284.0 0.00352 282.74725 291.94919
270.0 0.00370 282.78864 291.94534
302.0 0.003311 282.82993 291.94012
301.0 0.003322 282.87112 291.93463
292.0 0.003425 282.91229 291.93033
290.0 0.003448 282.95337 291.92908
280.0 0.00357 282.99442 291.93237
317.0 0.003155 283.03531 291.94162
314.0 0.003185 283.07617 291.95837
284.0 0.00352 283.11697 291.98450
272.0 0.00368 283.15762 292.02118
308.0 0.003247 283.19824 292.07025
252.0 0.00397 283.23877 292.13309
280.0 0.00357 283.27921 292.21100
303.0 0.003300 283.31952 292.30551
295.0 0.003390 283.35980 292.41800
281.0 0.00356 283.39996 292.54962
275.0 0.00364 283.44003 292.70148
298.0 0.003356 283.48001 292.87482
284.0 0.00352 283.51987 293.00815
272.0 0.00368 283.55966 293.22748
296.0 0.003378 283.59930 293.47067
289.0 0.003460 283.63892 293.73831
307.0 0.003257 283.67838 294.03101
312.0 0.003205 283.71771 294.34897
314.0 0.003185 283.75699 294.69238
302.0 0.003311 283.79614 295.06119
294.0 0.003401 283.83517 295.45517
289.0 0.003460 283.87411 295.87384
317.0 0.003155 283.91293 296.31683
323.0 0.003096 283.95163 296.78296
298.0 0.003356 283.99020 297.27151
334.0 0.002994 284.02866 297.78122
299.0 0.003344 284.06699 298.31030
289.0 0.003460 284.10522 298.85754
318.0 0.003145 284.14328 299.41980
296.0 0.003378 284.18127 299.99701
348.0 0.002874 284.21909 300.58560
336.0 0.002976 284.25681 301.10004
294.0 0.003401 284.29437 301.70438
306.0 0.003268 284.33185 302.31171
326.0 0.003067 284.36914 302.91879
305.0 0.003279 284.40631 303.52206
306.0 0.003268 284.44336 304.15271
300.0 0.003333 284.48026 304.73743
292.0 0.003425 284.51703 305.30667
293.0 0.003413 284.55362 305.85626
338.0 0.002959 284.59009 306.38232
279.0 0.00358 284.62643 306.88028
319.0 0.003135 284.66260 307.34619
304.0 0.003289 284.69864 307.77594
332.0 0.003012 284.73450 308.16620
311.0 0.003215 284.77023 308.51337
317.0 0.003155 284.80579 308.81506
303.0 0.003300 284.84122 309.06909
339.0 0.002950 284.87650 309.27414
338.0 0.002959 284.91159 309.42938
332.0 0.003012 284.94653 309.53516
332.0 0.003012 284.98129 309.61118
332.0 0.003012 285.01593 309.62183
330.0 0.003030 285.05035 309.58804
334.0 0.002994 285.08463 309.51590
299.0 0.003344 285.11874 309.40347
327.0 0.003058 285.15271 309.25735
321.0 0.003115 285.18646 309.08212
306.0 0.003268 285.22006 308.88217
317.0 0.003155 285.25348 308.66220
305.0 0.003279 285.28671 308.42657
288.0 0.003472 285.31979 308.18030
301.0 0.003322 285.35269 307.92767
306.0 0.003268 285.38541 307.67294
317.0 0.003155 285.41791 307.42032
307.0 0.003257 285.45026 307.17380
314.0 0.003185 285.48242 306.93692
295.0 0.003390 285.51437 306.71329
318.0 0.003145 285.54614 306.50620
308.0 0.003247 285.57776 306.31815
324.0 0.003086 285.60916 306.15253
299.0 0.003344 285.64035 306.01129
329.0 0.003040 285.67136 305.89688
338.0 0.002959 285.70218 305.81119
329.0 0.003040 285.73279 305.75601
333.0 0.003003 285.76321 305.71356
301.0 0.003322 285.79343 305.72360
282.0 0.00355 285.82343 305.76770
305.0 0.003279 285.85321 305.84683
310.0 0.003226 285.88284 305.96143
306.0 0.003268 285.91223 306.11194
288.0 0.003472 285.94144 306.29858
337.0 0.002967 285.97040 306.52115
293.0 0.003413 285.99918 306.77966
349.0 0.002865 286.02771 307.07352
299.0 0.003344 286.05606 307.40253
328.0 0.003049 286.08417 307.76566
341.0 0.002933 286.11209 308.16238
319.0 0.003135 286.13980 308.59186
351.0 0.002849 286.16724 309.05273
299.0 0.003344 286.19449 309.54449
327.0 0.003058 286.22153 310.06567
301.0 0.003322 286.24832 310.61505
328.0 0.003049 286.27490 311.19196
313.0 0.003195 286.30127 311.79529
300.0 0.003333 286.32739 312.42383
323.0 0.003096 286.35327 313.07703
300.0 0.003333 286.37894 313.75424
301.0 0.003322 286.40436 314.48752
334.0 0.002994 286.42957 315.21252
339.0 0.002950 286.45453 315.96152
293.0 0.003413 286.47925 316.73526
305.0 0.003279 286.50375 317.53458
332.0 0.003012 286.52798 318.36084
294.0 0.003401 286.55200 319.21188
335.0 0.002985 286.57581 320.09726
309.0 0.003236 286.59933 321.01535
319.0 0.003135 286.62259 321.96835
341.0 0.002933 286.64563 322.95886
322.0 0.003106 286.66846 323.98941
333.0 0.003003 286.69098 325.06235
348.0 0.002874 286.71329 326.18002
344.0 0.002907 286.73535 327.34531
344.0 0.002907 286.75714 328.55252
329.0 0.003040 286.77869 329.81833
333.0 0.003003 286.79999 331.13696
329.0 0.003040 286.82104 332.51022
329.0 0.003040 286.84180 333.93866
318.0 0.003145 286.86234 335.42368
319.0 0.003135 286.88260 336.96536
338.0 0.002959 286.90262 338.56387
350.0 0.002857 286.92236 340.21909
327.0 0.003058 286.94186 341.93042
314.0 0.003185 286.96109 343.69669
318.0 0.003145 286.98007 345.51996
304.0 0.003289 286.99875 347.39261
362.0 0.002762 287.01718 349.31552
350.0 0.002857 287.03534 351.28662
354.0 0.002825 287.05325 353.30319
324.0 0.003086 287.07086 355.36249
378.0 0.002646 287.08823 357.46161
362.0 0.002762 287.10535 359.59680
376.0 0.002660 287.12216 361.76508
364.0 0.002747 287.13870 363.96329
323.0 0.003096 287.15497 366.17059
383.0 0.002611 287.17096 368.41321
367.0 0.002725 287.18668 370.67188
375.0 0.002667 287.20215 372.94186
371.0 0.002695 287.21732 375.21851
374.0 0.002674 287.23218 377.49637
378.0 0.002646 287.24680 379.77045
388.0 0.002577 287.26114 382.03513
397.0 0.002519 287.27518 384.28467
392.0 0.002551 287.28894 386.51340
373.0 0.002681 287.30243 388.71555
385.0 0.002597 287.31561 390.88474
359.0 0.002786 287.32852 393.01514
361.0 0.002770 287.34116 395.10071
408.0 0.002451 287.35349 397.13565
376.0 0.002660 287.36557 399.11401
421.0 0.002375 287.37732 401.03043
407.0 0.002457 287.38879 402.87982
398.0 0.002513 287.39996 404.69592
418.0 0.002392 287.41089 406.44928
384.0 0.002604 287.42148 408.07468
402.0 0.002488 287.43179 409.61996
406.0 0.002463 287.44183 411.08392
438.0 0.002283 287.45154 412.46664
406.0 0.002463 287.46097 413.78543
396.0 0.002525 287.47012 415.01181
411.0 0.002433 287.47894 416.16168
422.0 0.002370 287.48749 417.24094
407.0 0.002457 287.49573 418.25412
409.0 0.002445 287.50369 419.21103
402.0 0.002488 287.51135 420.10989
392.0 0.002551 287.51871 420.96085
433.0 0.002309 287.52576 421.80542
408.0 0.002451 287.53250 422.57941
418.0 0.002392 287.53894 423.32410
410.0 0.002439 287.54510 424.04416
437.0 0.002288 287.55096 424.74460
444.0 0.002252 287.55652 425.42966
421.0 0.002375 287.56174 426.10168
485.0 0.002062 287.56668 426.76300
469.0 0.002132 287.57132 427.41397
422.0 0.002370 287.57565 428.05475
421.0 0.002375 287.57968 428.68329
425.0 0.002353 287.58340 429.29669
446.0 0.002242 287.58682 429.89105
453.0 0.002208 287.58990 430.46066
451.0 0.002217 287.59271 430.99878
403.0 0.002481 287.59521 431.49762
499.0 0.002004 287.59741 431.94809
475.0 0.002105 287.59927 432.34015
480.0 0.002083 287.60083 432.66226
516.0 0.001938 287.60208 432.91333
453.0 0.002208 287.60306 433.06088
442.0 0.002262 287.60370 433.01541
456.0 0.002193 287.60400 432.96158
450.0 0.002222 287.60403 432.75467
483.0 0.002070 287.60373 432.36948
483.0 0.002070 287.60312 431.86826
489.0 0.002045 287.60223 431.20557
468.0 0.002137 287.60098 430.48846
468.0 0.002137 287.59946 429.48410
469.0 0.002132 287.59763 428.30264
439.0 0.002278 287.59543 426.94336
508.0 0.001969 287.59296 425.40729
454.0 0.002203 287.59018 423.69818
438.0 0.002283 287.58707 421.82159
419.0 0.002387 287.58365 419.78494
429.0 0.002331 287.57993 417.59720
415.0 0.002410 287.57587 415.26831
420.0 0.002381 287.57153 412.81000
414.0 0.002415 287.56686 410.23352
386.0 0.002591 287.56189 407.55173
411.0 0.002433 287.55658 404.77704
421.0 0.002375 287.55096 401.92163
389.0 0.002571 287.54504 398.99838
406.0 0.002463 287.53879 396.00424
409.0 0.002445 287.53226 392.98090
389.0 0.002571 287.52536 389.92453
393.0 0.002545 287.51819 386.84604
367.0 0.002725 287.51068 383.75616
352.0 0.002841 287.50287 380.66434
368.0 0.002717 287.49475 377.58023
380.0 0.002632 287.48630 374.51291
333.0 0.003003 287.47754 371.47070
370.0 0.002703 287.46848 368.46161
334.0 0.002994 287.45908 365.49286
376.0 0.002660 287.44937 362.57153
346.0 0.002890 287.43936 359.70389
338.0 0.002959 287.42905 356.89581
347.0 0.002882 287.41840 354.15265
355.0 0.002817 287.40744 351.47861
333.0 0.003003 287.39618 348.87836
342.0 0.002924 287.38461 346.35504
337.0 0.002967 287.37271 343.91174
304.0 0.003289 287.36050 341.55090
324.0 0.003086 287.34796 339.27429
344.0 0.002907 287.33511 337.08319
308.0 0.003247 287.32196 334.97827
323.0 0.003096 287.30853 332.96011
354.0 0.002825 287.29474 331.02838
317.0 0.003155 287.28067 329.18259
328.0 0.003049 287.26627 327.42313
314.0 0.003185 287.25156 325.74588
308.0 0.003247 287.23654 324.15088
337.0 0.002967 287.22122 322.63589
324.0 0.003086 287.20557 321.19904
314.0 0.003185 287.18964 319.83765
331.0 0.003021 287.17337 318.54956
329.0 0.003040 287.15680 317.33176
325.0 0.003077 287.13992 316.18161
309.0 0.003236 287.12274 315.09613
325.0 0.003077 287.10522 314.07251
310.0 0.003226 287.08746 313.10754
312.0 0.003205 287.06934 312.19821
309.0 0.003236 287.05093 311.34140
317.0 0.003155 287.03220 310.53430
302.0 0.003311 287.01318 309.77362
320.0 0.003125 286.99384 309.05688
302.0 0.003311 286.97421 308.38065
301.0 0.003322 286.95428 307.74249
316.0 0.003165 286.93402 307.13974
348.0 0.002874 286.91348 306.56931
309.0 0.003236 286.89264 306.02936
307.0 0.003257 286.87149 305.51721
292.0 0.003425 286.85004 305.03067
308.0 0.003247 286.82828 304.56778
282.0 0.00355 286.80621 304.12665
302.0 0.003311 286.78384 303.70554
308.0 0.003247 286.76120 303.30176
300.0 0.003333 286.73825 302.91641
271.0 0.00369 286.71500 302.54697
291.0 0.003436 286.69144 302.19220
301.0 0.003322 286.66760 301.85129
306.0 0.003268 286.64346 301.52335
268.0 0.00373 286.61902 301.20786
310.0 0.003226 286.59430 300.90390
298.0 0.003356 286.56927 300.61105
274.0 0.00365 286.54395 300.32886
272.0 0.00368 286.51834 300.05704
315.0 0.003175 286.49243 299.79523
320.0 0.003125 286.46625 299.54272
272.0 0.00368 286.43979 299.30011
297.0 0.003367 286.41299 299.05627
291.0 0.003436 286.38593 298.83173
300.0 0.003333 286.35861 298.61606
296.0 0.003378 286.33096 298.40921
301.0 0.003322 286.30304 298.21103
317.0 0.003155 286.27481 298.02170
309.0 0.003236 286.24634 297.84088
281.0 0.00356 286.21756 297.66879
301.0 0.003322 286.18851 297.50537
283.0 0.00353 286.15918 297.35089
290.0 0.003448 286.12958 297.20526
300.0 0.003333 286.09967 297.06870
306.0 0.003268 286.06949 296.94138
297.0 0.003367 286.03903 296.82352
289.0 0.003460 286.00830 296.71552
283.0 0.00353 285.97729 296.61755
326.0 0.003067 285.94601 296.52991
306.0 0.003268 285.91446 296.45313
291.0 0.003436 285.88263 296.38773
298.0 0.003356 285.85052 296.33420
301.0 0.003322 285.81818 296.29260
288.0 0.003472 285.78552 296.26422
272.0 0.00368 285.75259 296.24915
273.0 0.00366 285.71942 296.24814
312.0 0.003205 285.68597 296.26230
285.0 0.00351 285.65228 296.29169
291.0 0.003436 285.61829 296.33737
320.0 0.003125 285.58405 296.40024
254.0 0.00394 285.54956 296.48041
276.0 0.00362 285.51477 296.57913
278.0 0.00360 285.47974 296.69687
309.0 0.003236 285.44449 296.83435
294.0 0.003401 285.40894 296.99210
302.0 0.003311 285.37314 297.17078
305.0 0.003279 285.33710 297.37091
302.0 0.003311 285.30078 297.59299
302.0 0.003311 285.26419 297.83704
280.0 0.00357 285.22739 298.10376
298.0 0.003356 285.19034 298.39618
303.0 0.003300 285.15302 298.70844
289.0 0.003460 285.11542 299.04343
268.0 0.00373 285.07764 299.40125
301.0 0.003322 285.03958 299.78152
312.0 0.003205 285.00128 300.18390
316.0 0.003165 284.96271 300.60782
292.0 0.003425 284.92395 301.05273
284.0 0.00352 284.88489 301.51785
314.0 0.003185 284.84561 302.00220
294.0 0.003401 284.80609 302.50476
315.0 0.003175 284.76639 303.02448
299.0 0.003344 284.72638 303.55957
320.0 0.003125 284.68616 304.10864
330.0 0.003030 284.64572 304.67032
295.0 0.003390 284.60501 305.24213
303.0 0.003300 284.56409 305.82242
287.0 0.003484 284.52295 306.40894
309.0 0.003236 284.48160 306.99936
303.0 0.003300 284.43997 307.59113
345.0 0.002899 284.39813 308.18140
307.0 0.003257 284.35611 308.76770
311.0 0.003215 284.31384 309.34689
299.0 0.003344 284.27133 309.91571
290.0 0.003448 284.22861 310.43604
316.0 0.003165 284.18567 310.97568
299.0 0.003344 284.14252 311.49567
328.0 0.003049 284.09915 311.99301
290.0 0.003448 284.05557 312.46478
306.0 0.003268 284.01175 312.90750
356.0 0.002809 283.96774 313.33853
323.0 0.003096 283.92352 313.71609
320.0 0.003125 283.87912 314.05731
311.0 0.003215 283.83447 314.36041
343.0 0.002915 283.78961 314.62354
321.0 0.003115 283.74457 314.84589
308.0 0.003247 283.69934 315.02625
292.0 0.003425 283.65387 315.16431
336.0 0.002976 283.60822 315.26035
349.0 0.002865 283.56238 315.31439
308.0 0.003247 283.51633 315.32733
321.0 0.003115 283.47006 315.29999
314.0 0.003185 283.42361 315.23370
306.0 0.003268 283.37701 315.13013
309.0 0.003236 283.33017 315.01071
294.0 0.003401 283.28314 314.83765
290.0 0.003448 283.23596 314.65338
309.0 0.003236 283.18857 314.41885
310.0 0.003226 283.14099 314.15701
316.0 0.003165 283.09320 313.86975
291.0 0.003436 283.04529 313.55972
285.0 0.00351 282.99716 313.22894
321.0 0.003115 282.94885 312.88031
319.0 0.003135 282.90039 312.51575
321.0 0.003115 282.85175 312.13760
310.0 0.003226 282.80289 311.74872
310.0 0.003226 282.75388 311.35059
317.0 0.003155 282.70471 310.94629
331.0 0.003021 282.65536 310.53775
328.0 0.003049 282.60583 310.12668
284.0 0.00352 282.55615 309.71573
313.0 0.003195 282.50632 309.30646
299.0 0.003344 282.45630 308.90088
315.0 0.003175 282.40610 308.50043
289.0 0.003460 282.35580 308.10712
289.0 0.003460 282.30533 307.72189
310.0 0.003226 282.25464 307.34662
285.0 0.00351 282.20383 306.98199
287.0 0.003484 282.15289 306.62936
288.0 0.003472 282.10178 306.28970
311.0 0.003215 282.05048 305.96371
291.0 0.003436 281.99908 305.65518
306.0 0.003268 281.94751 305.35867
316.0 0.003165 281.89578 305.07779
320.0 0.003125 281.84393 304.81247
277.0 0.00361 281.79196 304.56363
319.0 0.003135 281.73981 304.31509
311.0 0.003215 281.68750 304.09915
277.0 0.00361 281.63510 303.88934
306.0 0.003268 281.58255 303.70676
276.0 0.00362 281.52985 303.54071
327.0 0.003058 281.47699 303.39011
315.0 0.003175 281.42407 303.25726
295.0 0.003390 281.37097 303.14078
278.0 0.00360 281.31775 303.04031
319.0 0.003135 281.26437 302.95615
299.0 0.003344 281.21094 302.88818
329.0 0.003040 281.15732 302.83609
291.0 0.003436 281.10358 302.80002
304.0 0.003289 281.04977 302.78027
271.0 0.00369 280.99579 302.77631
282.0 0.00355 280.94171 302.78870
319.0 0.003135 280.88748 302.81735
320.0 0.003125 280.83322 302.86273
291.0 0.003436 280.77878 302.92508
290.0 0.003448 280.72424 303.00476
287.0 0.003484 280.66962 303.10202
323.0 0.003096 280.61484 303.21762
331.0 0.003021 280.55997 303.35196
318.0 0.003145 280.50497 303.50775
300.0 0.003333 280.44992 303.68158
299.0 0.003344 280.39474 303.87622
315.0 0.003175 280.33945 304.09293
305.0 0.003279 280.28412 304.33148
291.0 0.003436 280.22864 304.58069
304.0 0.003289 280.17307 304.86624
341.0 0.002933 280.11737 305.17657
321.0 0.003115 280.06165 305.51212
311.0 0.003215 280.00580 305.87372
284.0 0.00352 279.94983 306.26187
319.0 0.003135 279.89380 306.67722
315.0 0.003175 279.83771 307.12039
307.0 0.003257 279.78152 307.59180
305.0 0.003279 279.72522 308.07263
296.0 0.003378 279.66888 308.60098
315.0 0.003175 279.61243 309.15802
324.0 0.003086 279.55591 309.74359
322.0 0.003106 279.49930 310.35733
337.0 0.002967 279.44263 310.99908
316.0 0.003165 279.38589 311.66818
327.0 0.003058 279.32904 312.36395
307.0 0.003257 279.27219 313.08545
307.0 0.003257 279.21521 313.83167
317.0 0.003155 279.15817 314.60123
292.0 0.003425 279.10104 315.39279
313.0 0.003195 279.04391 316.20493
322.0 0.003106 278.98669 317.03568
318.0 0.003145 278.92938 317.88297
340.0 0.002941 278.87207 318.74472
296.0 0.003378 278.81464 319.61844
310.0 0.003226 278.75717 320.50180
308.0 0.003247 278.69962 321.39172
302.0 0.003311 278.64209 322.28534
353.0 0.002833 278.58444 323.15228
308.0 0.003247 278.52673 323.91519
345.0 0.002899 278.46899 324.80179
338.0 0.002959 278.41125 325.67834
342.0 0.002924 278.35339 326.54086
329.0 0.003040 278.29553 327.38559
346.0 0.002890 278.23761 328.20828
322.0 0.003106 278.17963 329.00516
336.0 0.002976 278.12161 329.77206
324.0 0.003086 278.06357 330.50534
333.0 0.003003 278.00549 331.20279
328.0 0.003049 277.94736 331.85773
344.0 0.002907 277.88919 332.46893
348.0 0.002874 277.83105 333.03387
353.0 0.002833 277.77280 333.55042
355.0 0.002817 277.71454 334.01715
348.0 0.002874 277.65622 334.43372
317.0 0.003155 277.59793 334.79990
347.0 0.002882 277.53958 335.11652
345.0 0.002899 277.48117 335.38559
361.0 0.002770 277.42282 335.60934
341.0 0.002933 277.36438 335.79059
304.0 0.003289 277.30594 335.93353
365.0 0.002740 277.24744 336.04214
352.0 0.002841 277.18900 336.12140
327.0 0.003058 277.13046 336.17636
340.0 0.002941 277.07193 336.21219
326.0 0.003067 277.01337 336.23492
326.0 0.003067 276.95486 336.24969
307.0 0.003257 276.89627 336.26202
337.0 0.002967 276.83768 336.27734
338.0 0.002959 276.77911 336.30106
344.0 0.002907 276.72052 336.33771
328.0 0.003049 276.66190 336.39224
309.0 0.003236 276.60327 336.46866
348.0 0.002874 276.54468 336.57104
333.0 0.003003 276.48602 336.70282
357.0 0.002801 276.42737 336.70627
318.0 0.003145 276.36877 336.90710
298.0 0.003356 276.31012 337.14505
309.0 0.003236 276.25146 337.42178
344.0 0.002907 276.19284 337.73865
320.0 0.003125 276.13425 338.09628
329.0 0.003040 276.07559 338.49506
343.0 0.002915 276.01697 338.93469
324.0 0.003086 275.95837 339.41467
335.0 0.002985 275.89975 339.93414
341.0 0.002933 275.84113 340.49167
318.0 0.003145 275.78253 341.08542
332.0 0.003012 275.72397 341.71347
316.0 0.003165 275.66537 342.37347
298.0 0.003356 275.60681 343.06259
308.0 0.003247 275.54825 343.77811
352.0 0.002841 275.48975 344.51703
341.0 0.002933 275.43124 345.27606
314.0 0.003185 275.37271 346.00299
352.0 0.002841 275.31427 346.79260
364.0 0.002747 275.25580 347.59232
381.0 0.002625 275.19733 348.39868
341.0 0.002933 275.13889 349.20825
321.0 0.003115 275.08051 350.02112
334.0 0.002994 275.02213 350.92905
396.0 0.002525 274.96378 351.72986
347.0 0.002882 274.90546 352.52167
364.0 0.002747 274.84717 353.30157
331.0 0.003021 274.78888 354.06708
350.0 0.002857 274.73059 354.81592
359.0 0.002786 274.67239 355.54590
379.0 0.002639 274.61420 356.25476
356.0 0.002809 274.55603 356.94086
365.0 0.002740 274.49792 357.60229
345.0 0.002899 274.43982 358.23746
388.0 0.002577 274.38174 358.84476
351.0 0.002849 274.32370 359.42261
371.0 0.002695 274.26575 359.96970
365.0 0.002740 274.20776 360.48404
398.0 0.002513 274.14981 360.96432
404.0 0.002475 274.09192 361.40900
363.0 0.002755 274.03412 361.81631
375.0 0.002667 273.97629 362.18420
421.0 0.002375 273.91849 362.51102
379.0 0.002639 273.86078 362.79459
386.0 0.002591 273.80310 363.03265
360.0 0.002778 273.74542 363.22083
394.0 0.002538 273.68781 363.36087
411.0 0.002433 273.63028 363.44812
401.0 0.002494 273.57275 363.47971
394.0 0.002538 273.51526 363.45297
413.0 0.002421 273.45789 363.36560
377.0 0.002653 273.40048 363.21454
393.0 0.002545 273.34314 362.99701
420.0 0.002381 273.28583 362.71088
417.0 0.002398 273.22864 362.35342
392.0 0.002551 273.17142 361.92313
406.0 0.002463 273.11426 361.41742
381.0 0.002625 273.05722 360.83542
397.0 0.002519 273.00015 360.17581
396.0 0.002525 272.94318 359.43777
379.0 0.002639 272.88623 358.62158
376.0 0.002660 272.82938 357.71899
391.0 0.002558 272.77252 356.74771
346.0 0.002890 272.71573 355.70068
351.0 0.002849 272.65900 354.57993
353.0 0.002833 272.60239 353.38284
376.0 0.002660 272.54575 352.12216
366.0 0.002732 272.48920 350.79626
320.0 0.003125 272.43271 349.40897
350.0 0.002857 272.37625 347.96420
332.0 0.003012 272.31985 346.46603
337.0 0.002967 272.26352 344.91925
374.0 0.002674 272.20731 343.32858
327.0 0.003058 272.15106 341.69849
313.0 0.003195 272.09491 340.03418
321.0 0.003115 272.03885 338.34006
340.0 0.002941 271.98282 336.62555
336.0 0.002976 271.92685 334.90857
315.0 0.003175 271.87091 333.15451
316.0 0.003165 271.81509 331.38989
335.0 0.002985 271.75931 329.61884
313.0 0.003195 271.70358 327.84540
332.0 0.003012 271.64795 326.07397
332.0 0.003012 271.59235 324.30814
328.0 0.003049 271.53680 322.55185
310.0 0.003226 271.48132 320.80823
321.0 0.003115 271.42596 319.08087
333.0 0.003003 271.37061 317.37268
336.0 0.002976 271.31531 315.68646
312.0 0.003205 271.26010 314.02502
287.0 0.003484 271.20496 312.39066
305.0 0.003279 271.14987 310.78564
292.0 0.003425 271.09485 309.21222
249.0 0.00402 271.03992 307.67178
280.0 0.00357 270.98502 306.16638
286.0 0.003497 270.93021 304.69748
323.0 0.003096 270.87543 303.26212
295.0 0.003390 270.82080 301.86935
301.0 0.003322 270.76617 300.51608
301.0 0.003322 270.71161 299.20334
307.0 0.003257 270.65717 297.93109
286.0 0.003497 270.60272 296.69931
290.0 0.003448 270.54837 295.51010
305.0 0.003279 270.49408 294.36267
282.0 0.00355 270.43991 293.25684
297.0 0.003367 270.38574 292.19260
292.0 0.003425 270.33167 291.16974
291.0 0.003436 270.27771 290.18790
276.0 0.00362 270.22375 289.24661
290.0 0.003448 270.16986 288.34515
275.0 0.00364 270.11606 287.48306
289.0 0.003460 270.06235 286.65976
276.0 0.00362 270.00870 285.87433
284.0 0.00352 269.95508 285.12570
260.0 0.00385 269.90155 284.41336
270.0 0.00370 269.84811 283.73645
312.0 0.003205 269.79471 283.09375
270.0 0.00370 269.74139 282.48425
268.0 0.00373 269.68820 281.90714
281.0 0.00356 269.63501 281.36124
278.0 0.00360 269.58188 280.84558
272.0 0.00368 269.52884 280.35916
292.0 0.003425 269.47589 279.90085
288.0 0.003472 269.42297 279.46970
296.0 0.003378 269.37012 279.06461
307.0 0.003257 269.31741 278.68481
272.0 0.00368 269.26471 278.32959
276.0 0.00362 269.21204 277.99707
295.0 0.003390 269.15948 277.68710
292.0 0.003425 269.10703 277.39856
295.0 0.003390 269.05460 277.13062
291.0 0.003436 269.00226 276.88239
284.0 0.00352 268.94998 276.65344
301.0 0.003322 268.89777 276.44290
286.0 0.003497 268.84561 276.25009
249.0 0.00402 268.79352 276.07428
275.0 0.00364 268.74155 275.91504
313.0 0.003195 268.68961 275.77185
295.0 0.003390 268.63773 275.64407
284.0 0.00352 268.58591 275.53134
283.0 0.00353 268.53418 275.43332
280.0 0.00357 268.48251 275.34940
274.0 0.00365 268.43088 275.27966
293.0 0.003413 268.37936 275.22360
220.0 0.00455 268.32788 275.18097
284.0 0.00352 268.27649 275.15146
287.0 0.003484 268.22513 275.13507
279.0 0.00358 268.17389 275.13538
251.0 0.00398 268.12268 275.14456
263.0 0.00380 268.07153 275.16653
277.0 0.00361 268.02048 275.20148
281.0 0.00356 267.96948 275.24896
275.0 0.00364 267.91852 275.26855
280.0 0.00357 267.86765 275.34186
323.0 0.003096 267.81683 275.42764
305.0 0.003279 267.76608 275.52625
281.0 0.00356 267.71539 275.63797
297.0 0.003367 267.66483 275.76233
299.0 0.003344 267.61426 275.89999
299.0 0.003344 267.56375 276.05081
281.0 0.00356 267.51331 276.21481
270.0 0.00370 267.46295 276.39212
287.0 0.003484 267.41266 276.58310
273.0 0.00366 267.36240 276.78784
277.0 0.00361 267.31223 277.00616
246.0 0.00407 267.26212 277.23843
247.0 0.00405 267.21207 277.48459
269.0 0.00372 267.16205 277.74475
281.0 0.00356 267.11215 277.99762
261.0 0.00383 267.06229 278.28632
266.0 0.00376 267.01245 278.59814
290.0 0.003448 266.96271 278.94452
309.0 0.003236 266.91302 279.27631
315.0 0.003175 266.86340 279.62256
281.0 0.00356 266.81381 279.98291
272.0 0.00368 266.76431 280.35745
276.0 0.00362 266.71484 280.74628
287.0 0.003484 266.66544 281.14908
274.0 0.00365 266.61612 281.56595
242.0 0.00413 266.56686 281.99640
265.0 0.00377 266.51764 282.44019
284.0 0.00352 266.46844 282.89752
305.0 0.003279 266.41937 283.36789
311.0 0.003215 266.37030 283.85083
285.0 0.00351 266.32129 284.34604
262.0 0.00382 266.27234 284.85315
293.0 0.003413 266.22348 285.37177
316.0 0.003165 266.17465 285.90109
279.0 0.00358 266.12585 286.44046
291.0 0.003436 266.07712 286.98947
292.0 0.003425 266.02850 287.54709
302.0 0.003311 265.97989 288.11227
315.0 0.003175 265.93130 288.68442
302.0 0.003311 265.88284 289.26202
281.0 0.00356 265.83438 289.84430
300.0 0.003333 265.78595 290.42960
297.0 0.003367 265.73761 291.01669
316.0 0.003165 265.68933 291.60431
298.0 0.003356 265.64105 292.19058
262.0 0.00382 265.59286 292.77405
292.0 0.003425 265.54477 293.35260
285.0 0.00351 265.49664 293.92465
311.0 0.003215 265.44861 294.48837
282.0 0.00355 265.40060 295.04141
280.0 0.00357 265.35269 295.58606
298.0 0.003356 265.30478 296.11206
290.0 0.003448 265.25693 296.62140
303.0 0.003300 265.20917 297.11179
297.0 0.003367 265.16141 297.58096
312.0 0.003205 265.11371 298.02710
313.0 0.003195 265.06604 298.44781
316.0 0.003165 265.01846 298.84088
312.0 0.003205 264.97089 299.20432
343.0 0.002915 264.92337 299.53601
294.0 0.003401 264.87589 299.79745
334.0 0.002994 264.82849 300.06064
283.0 0.00353 264.78113 300.28616
291.0 0.003436 264.73376 300.47318
290.0 0.003448 264.68652 300.61966
292.0 0.003425 264.63928 300.72476
284.0 0.00352 264.59210 300.78674
303.0 0.003300 264.54492 300.80545
281.0 0.00356 264.49783 300.78003
290.0 0.003448 264.45078 300.70999
257.0 0.00389 264.40375 300.62103
296.0 0.003378 264.35681 300.46271
290.0 0.003448 264.30988 300.26056
310.0 0.003226 264.26297 300.01608
317.0 0.003155 264.21613 299.73038
323.0 0.003096 264.16934 299.40515
315.0 0.003175 264.12259 299.04214
308.0 0.003247 264.07587 298.64352
324.0 0.003086 264.02921 298.21194
266.0 0.00376 263.98254 297.74954
299.0 0.003344 263.93594 297.25931
294.0 0.003401 263.88940 296.74393
271.0 0.00369 263.84290 296.20639
267.0 0.00375 263.79642 295.64969
303.0 0.003300 263.75000 295.07672
277.0 0.00361 263.70358 294.49008
288.0 0.003472 263.65729 293.88974
299.0 0.003344 263.61096 293.28534
269.0 0.00372 263.56470 292.67618
315.0 0.003175 263.51846 292.06516
272.0 0.00368 263.47229 291.45456
290.0 0.003448 263.42612 290.84717
273.0 0.00366 263.38000 290.24579
287.0 0.003484 263.33395 289.65250
288.0 0.003472 263.28790 289.06992
294.0 0.003401 263.24191 288.49854
282.0 0.00355 263.19598 287.94370
282.0 0.00355 263.15005 287.40598
258.0 0.00388 263.10419 286.88754
281.0 0.00356 263.05832 286.38989
315.0 0.003175 263.01254 285.91531
288.0 0.003472 262.96677 285.46555
284.0 0.00352 262.92105 285.04214
255.0 0.00392 262.87537 284.64688
284.0 0.00352 262.82971 284.35861
265.0 0.00377 262.78409 284.02448
279.0 0.00358 262.73853 283.72296
282.0 0.00355 262.69302 283.45523
264.0 0.00379 262.64752 283.22260
273.0 0.00366 262.60205 283.02615
245.0 0.00408 262.55661 282.86682
277.0 0.00361 262.51126 282.74609
253.0 0.00395 262.46591 282.66443
254.0 0.00394 262.42059 282.62271
315.0 0.003175 262.37537 282.57773
273.0 0.00366 262.33011 282.56171
279.0 0.00358 262.28491 282.64462
271.0 0.00369 262.23975 282.76990
278.0 0.00360 262.19467 282.93781
230.0 0.00435 262.14960 283.14862
281.0 0.00356 262.10455 283.40268
279.0 0.00358 262.05957 283.69989
276.0 0.00362 262.01459 284.05463
283.0 0.00353 261.96967 284.43839
298.0 0.003356 261.92477 284.86520
285.0 0.00351 261.87997 285.33475
277.0 0.00361 261.83517 285.84656
258.0 0.00388 261.79041 286.40036
283.0 0.00353 261.74570 286.99576
267.0 0.00375 261.70102 287.63187
286.0 0.003497 261.65637 288.30786
277.0 0.00361 261.61176 289.02319
307.0 0.003257 261.56720 289.77664
293.0 0.003413 261.52267 290.56720
310.0 0.003226 261.47821 291.39355
301.0 0.003322 261.43375 292.25473
308.0 0.003247 261.38940 293.14893
295.0 0.003390 261.34503 294.07449
296.0 0.003378 261.30072 295.02966
331.0 0.003021 261.25647 296.01288
303.0 0.003300 261.21222 297.02145
321.0 0.003115 261.16803 298.05368
323.0 0.003096 261.12390 299.10703
324.0 0.003086 261.07980 300.17865
300.0 0.003333 261.03577 301.26614
341.0 0.002933 260.99173 302.36664
319.0 0.003135 260.94781 303.47696
324.0 0.003086 260.90390 304.59399
317.0 0.003155 260.86002 305.72095
317.0 0.003155 260.81619 306.84161
324.0 0.003086 260.77243 307.95892
333.0 0.003003 260.72867 309.06927
300.0 0.003333 260.68500 310.16956
313.0 0.003195 260.64136 311.25577
344.0 0.002907 260.59778 312.32480
303.0 0.003300 260.55423 313.37338
298.0 0.003356 260.51074 314.39877
324.0 0.003086 260.46732 315.39700
328.0 0.003049 260.42392 316.36642
323.0 0.003096 260.38058 317.30441
327.0 0.003058 260.33728 318.20938
323.0 0.003096 260.29407 319.07974
349.0 0.002865 260.25089 319.91446
301.0 0.003322 260.20773 320.71307
316.0 0.003165 260.16467 321.47568
334.0 0.002994 260.12164 322.20224
330.0 0.003030 260.07867 322.89371
327.0 0.003058 260.03574 323.55524
340.0 0.002941 259.99292 324.18024
322.0 0.003106 259.95010 324.77463
318.0 0.003145 259.90735 325.34009
338.0 0.002959 259.86469 325.87869
328.0 0.003049 259.82205 326.39264
371.0 0.002695 259.77948 326.88406
354.0 0.002825 259.73694 327.35510
339.0 0.002950 259.69452 327.80783
325.0 0.003077 259.65213 328.24408
306.0 0.003268 259.60980 328.66577
327.0 0.003058 259.56757 329.07422
280.0 0.00357 259.52533 329.47101
306.0 0.003268 259.48318 329.85681
325.0 0.003077 259.44110 330.23282
330.0 0.003030 259.39914 330.59940
338.0 0.002959 259.35718 330.95715
353.0 0.002833 259.31528 331.30563
335.0 0.002985 259.27347 331.64505
345.0 0.002899 259.23175 331.97473
333.0 0.003003 259.19006 332.29407
346.0 0.002890 259.14847 332.60184
334.0 0.002994 259.10696 332.89743
341.0 0.002933 259.06549 333.17926
322.0 0.003106 259.02411 333.44617
335.0 0.002985 258.98279 333.69638
344.0 0.002907 258.94156 333.92874
347.0 0.002882 258.90039 334.14117
331.0 0.003021 258.85928 334.33243
344.0 0.002907 258.81830 334.50095
319.0 0.003135 258.77737 334.64496
320.0 0.003125 258.73648 334.76309
331.0 0.003021 258.69571 334.85394
313.0 0.003195 258.65503 334.89774
316.0 0.003165 258.61441 334.93030
337.0 0.002967 258.57385 334.92993
349.0 0.002865 258.53342 334.89954
356.0 0.002809 258.49304 334.83752
336.0 0.002976 258.45276 334.74026
329.0 0.003040 258.41254 334.60440
333.0 0.003003 258.37247 334.43765
345.0 0.002899 258.33243 334.19440
305.0 0.003279 258.29248 333.95538
335.0 0.002985 258.25262 333.67966
324.0 0.003086 258.21289 333.36670
372.0 0.002688 258.17322 333.01602
321.0 0.003115 258.13364 332.62759
315.0 0.003175 258.09418 332.20129
332.0 0.003012 258.05478 331.73682
327.0 0.003058 258.01547 331.23462
286.0 0.003497 257.97629 330.69452
295.0 0.003390 257.93719 330.11710
310.0 0.003226 257.89819 329.50681
309.0 0.003236 257.85928 328.85684
332.0 0.003012 257.82050 328.17212
297.0 0.003367 257.78180 327.45319
345.0 0.002899 257.74319 326.70209
323.0 0.003096 257.70468 325.91962
332.0 0.003012 257.66632 325.10770
328.0 0.003049 257.62802 324.26859
314.0 0.003185 257.58981 323.37570
312.0 0.003205 257.55179 322.48752
307.0 0.003257 257.51382 321.57806
311.0 0.003215 257.47595 320.64951
317.0 0.003155 257.43820 319.70468
328.0 0.003049 257.40057 318.74548
335.0 0.002985 257.36304 317.77466
316.0 0.003165 257.32562 316.79449
308.0 0.003247 257.28833 315.80746
299.0 0.003344 257.25116 314.68478
310.0 0.003226 257.21408 313.69196
327.0 0.003058 257.17712 312.69891
270.0 0.00370 257.14032 311.70786
295.0 0.003390 257.10361 310.72128
295.0 0.003390 257.06702 309.74048
310.0 0.003226 257.03055 308.76749
330.0 0.003030 256.99420 307.80402
355.0 0.002817 256.95798 306.85147
296.0 0.003378 256.92188 305.91129
283.0 0.00353 256.88589 304.98465
305.0 0.003279 256.85004 304.07260
294.0 0.003401 256.81433 303.17590
294.0 0.003401 256.77872 302.29562
294.0 0.003401 256.74329 301.43222
306.0 0.003268 256.70795 300.58597
303.0 0.003300 256.67273 299.75742
320.0 0.003125 256.63766 298.94666
285.0 0.00351 256.60272 298.15366
303.0 0.003300 256.56793 297.37827
292.0 0.003425 256.53323 296.62021
296.0 0.003378 256.49872 295.87900
293.0 0.003413 256.46432 295.15430
293.0 0.003413 256.43005 294.44547
269.0 0.00372 256.39594 293.75140
259.0 0.00386 256.36197 293.07150
318.0 0.003145 256.32813 292.40479
303.0 0.003300 256.29440 291.75009
289.0 0.003460 256.26086 291.10635
291.0 0.003436 256.22745 290.48822
277.0 0.00361 256.19415 289.86316
307.0 0.003257 256.16101 289.24548
290.0 0.003448 256.12808 288.63419
261.0 0.00383 256.09521 288.02789
276.0 0.00362 256.06253 287.42593
286.0 0.003497 256.03000 286.82724
292.0 0.003425 255.99759 286.23080
290.0 0.003448 255.96535 285.63602
300.0 0.003333 255.93324 285.04242
316.0 0.003165 255.90131 284.44940
256.0 0.00391 255.86951 283.85696
283.0 0.00353 255.83786 283.26328
279.0 0.00358 255.80641 282.67148
277.0 0.00361 255.77507 282.08044
317.0 0.003155 255.74388 281.49030
284.0 0.00352 255.71284 280.90195
246.0 0.00407 255.68199 280.31589
266.0 0.00376 255.65128 279.73282
284.0 0.00352 255.62071 279.15341
293.0 0.003413 255.59030 278.57898
279.0 0.00358 255.56007 278.01007
271.0 0.00369 255.52998 277.44788
287.0 0.003484 255.50006 276.89340
297.0 0.003367 255.47031 276.34747
272.0 0.00368 255.44070 275.81128
277.0 0.00361 255.41125 275.28574
283.0 0.00353 255.38197 274.77191
293.0 0.003413 255.35286 274.27051
278.0 0.00360 255.32388 273.78262
308.0 0.003247 255.29509 273.30896
271.0 0.00369 255.26646 272.85056
295.0 0.003390 255.23798 272.40805
239.0 0.00418 255.20967 271.98221
262.0 0.00382 255.18152 271.57370
263.0 0.00380 255.15356 271.18311
279.0 0.00358 255.12575 270.81113
271.0 0.00369 255.09808 270.46555
318.0 0.003145 255.07060 270.13242
279.0 0.00358 255.04327 269.81937
269.0 0.00372 255.01610 269.52689
287.0 0.003484 254.98911 269.25516
294.0 0.003401 254.96228 269.00464
279.0 0.00358 254.93561 268.78131
270.0 0.00370 254.90912 268.57385
258.0 0.00388 254.88278 268.41379
272.0 0.00368 254.85663 268.25021
269.0 0.00372 254.83063 268.10864
283.0 0.00353 254.80478 267.98911
261.0 0.00383 254.77911 267.89163
287.0 0.003484 254.75362 267.81607
306.0 0.003268 254.72826 267.76218
287.0 0.003484 254.70308 267.73001
273.0 0.00366 254.67807 267.71909
290.0 0.003448 254.65321 267.72943
266.0 0.00376 254.62854 267.76056
292.0 0.003425 254.60403 267.81213
262.0 0.00382 254.57968 267.88391
251.0 0.00398 254.55548 267.97525
263.0 0.00380 254.53145 268.08591
258.0 0.00388 254.50758 268.21515
246.0 0.00407 254.48387 268.36267
272.0 0.00368 254.46033 268.52777
258.0 0.00388 254.43695 268.70987
292.0 0.003425 254.41373 268.90811
296.0 0.003378 254.39066 269.12201
290.0 0.003448 254.36775 269.35095
253.0 0.00395 254.34502 269.59384
289.0 0.003460 254.32243 269.85040
270.0 0.00370 254.30000 270.12601
304.0 0.003289 254.27773 270.40665
270.0 0.00370 254.25562 270.69818
271.0 0.00369 254.23366 270.99960
271.0 0.00369 254.21184 271.30984
254.0 0.00394 254.19020 271.62833
283.0 0.00353 254.16870 271.95380
288.0 0.003472 254.14735 272.28519
281.0 0.00356 254.12613 272.62195
295.0 0.003390 254.10510 272.98077
274.0 0.00365 254.08420 273.32458
306.0 0.003268 254.06343 273.67041
263.0 0.00380 254.04283 274.01712
249.0 0.00402 254.02237 274.36371
268.0 0.00373 254.00204 274.71323
264.0 0.00379 253.98187 275.05661
276.0 0.00362 253.96185 275.39661
269.0 0.00372 253.94196 275.73227
278.0 0.00360 253.92220 276.06265
273.0 0.00366 253.90257 276.38669
277.0 0.00361 253.88309 276.70306
291.0 0.003436 253.86374 277.01105
265.0 0.00377 253.84453 277.30624
284.0 0.00352 253.82544 277.59445
251.0 0.00398 253.80647 277.87137
264.0 0.00379 253.78766 278.13611
275.0 0.00364 253.76894 278.38791
273.0 0.00366 253.75038 278.63702
293.0 0.003413 253.73193 278.86069
309.0 0.003236 253.71359 279.06961
281.0 0.00356 253.69537 279.26331
293.0 0.003413 253.67728 279.44128
270.0 0.00370 253.65929 279.60345
269.0 0.00372 253.64142 279.74988
279.0 0.00358 253.62367 279.88049
273.0 0.00366 253.60602 279.99557
279.0 0.00358 253.58847 280.09589
287.0 0.003484 253.57106 280.18167
259.0 0.00386 253.55371 280.25375
310.0 0.003226 253.53648 280.31317
310.0 0.003226 253.51935 280.36069
281.0 0.00356 253.50230 280.39755
294.0 0.003401 253.48537 280.42487
270.0 0.00370 253.46851 280.44424
283.0 0.00353 253.45174 280.45700
264.0 0.00379 253.43506 280.46442
276.0 0.00362 253.41846 280.46799
272.0 0.00368 253.40195 280.46942
283.0 0.00353 253.38553 280.47018
264.0 0.00379 253.36917 280.47156
285.0 0.00351 253.35287 280.47540
277.0 0.00361 253.33665 280.48294
278.0 0.00360 253.32051 280.46921
286.0 0.003497 253.30443 280.48886
262.0 0.00382 253.28841 280.51688
267.0 0.00375 253.27246 280.55389
265.0 0.00377 253.25655 280.60190
284.0 0.00352 253.24069 280.66174
297.0 0.003367 253.22490 280.73453
266.0 0.00376 253.20917 280.82144
286.0 0.003497 253.19345 280.92361
286.0 0.003497 253.17778 281.04172
280.0 0.00357 253.16216 281.17673
269.0 0.00372 253.14656 281.32944
298.0 0.003356 253.13100 281.50052
269.0 0.00372 253.11546 281.69070
294.0 0.003401 253.09996 281.87756
282.0 0.00355 253.08447 282.10742
299.0 0.003344 253.06900 282.33438
285.0 0.00351 253.05356 282.60526
300.0 0.003333 253.03812 282.89694
287.0 0.003484 253.02269 283.22397
278.0 0.00360 253.00725 283.55740
309.0 0.003236 252.99184 283.91129
310.0 0.003226 252.97639 284.28571
311.0 0.003215 252.96095 284.68033
265.0 0.00377 252.94551 285.09457
254.0 0.00394 252.93007 285.52805
298.0 0.003356 252.91458 285.98029
275.0 0.00364 252.89906 286.45184
251.0 0.00398 252.88356 286.93918
299.0 0.003344 252.86801 287.44296
296.0 0.003378 252.85242 287.96231
278.0 0.00360 252.83679 288.49634
249.0 0.00402 252.82114 289.04422
268.0 0.00373 252.80544 289.60495
279.0 0.00358 252.78967 290.17767
280.0 0.00357 252.77388 290.76120
309.0 0.003236 252.75801 291.35464
275.0 0.00364 252.74208 291.95740
299.0 0.003344 252.72609 292.56808
306.0 0.003268 252.71004 293.18588
313.0 0.003195 252.69391 293.80997
296.0 0.003378 252.67769 294.43585
301.0 0.003322 252.66141 295.06931
303.0 0.003300 252.64503 295.70569
293.0 0.003413 252.62856 296.34384
300.0 0.003333 252.61200 297.00058
313.0 0.003195 252.59535 297.63916
321.0 0.003115 252.57860 298.27600
311.0 0.003215 252.56172 298.90915
296.0 0.003378 252.54474 299.53717
291.0 0.003436 252.52765 300.15817
295.0 0.003390 252.51044 300.77023
287.0 0.003484 252.49309 301.37140
261.0 0.00383 252.47563 301.95932
315.0 0.003175 252.45802 302.53159
320.0 0.003125 252.44028 303.08578
332.0 0.003012 252.42239 303.61899
328.0 0.003049 252.40439 304.12875
333.0 0.003003 252.38622 304.61172
348.0 0.002874 252.36787 305.06540
334.0 0.002994 252.34938 305.48657
344.0 0.002907 252.33072 305.87210
321.0 0.003115 252.31189 306.21906
332.0 0.003012 252.29288 306.52457
324.0 0.003086 252.27371 306.78580
316.0 0.003165 252.25435 306.99969
305.0 0.003279 252.23480 307.16415
343.0 0.002915 252.21507 307.27957
304.0 0.003289 252.19513 307.33820
307.0 0.003257 252.17499 307.36456
336.0 0.002976 252.15465 307.31107
341.0 0.002933 252.13411 307.19977
309.0 0.003236 252.11333 307.03052
299.0 0.003344 252.09235 306.80276
340.0 0.002941 252.07114 306.51691
343.0 0.002915 252.04971 306.17392
324.0 0.003086 252.02803 305.77484
320.0 0.003125 252.00613 305.32123
280.0 0.00357 251.98401 304.81473
315.0 0.003175 251.96162 304.25739
312.0 0.003205 251.93898 303.65204
303.0 0.003300 251.91609 303.00101
294.0 0.003401 251.89294 302.30701
346.0 0.002890 251.86952 301.57306
326.0 0.003067 251.84586 300.80197
287.0 0.003484 251.82191 299.99701
281.0 0.00356 251.79768 299.16119
270.0 0.00370 251.77316 298.29758
291.0 0.003436 251.74838 297.40915
278.0 0.00360 251.72333 296.49939
299.0 0.003344 251.69795 295.57083
299.0 0.003344 251.67229 294.62689
288.0 0.003472 251.64633 293.66986
287.0 0.003484 251.62007 292.70306
272.0 0.00368 251.59349 291.72876
264.0 0.00379 251.56659 290.74976
280.0 0.00357 251.53941 289.76859
292.0 0.003425 251.51189 288.78754
276.0 0.00362 251.48402 287.80893
302.0 0.003311 251.45584 286.83481
221.0 0.00452 251.42737 285.86725
262.0 0.00382 251.39853 284.90793
289.0 0.003460 251.36934 283.96124
268.0 0.00373 251.33984 283.02393
286.0 0.003497 251.30997 282.02475
281.0 0.00356 251.27975 281.11548
257.0 0.00389 251.24919 280.22202
276.0 0.00362 251.21829 279.34515
257.0 0.00389 251.18701 278.48608
266.0 0.00376 251.15536 277.64725
268.0 0.00373 251.12338 276.82571
263.0 0.00380 251.09100 276.02411
257.0 0.00389 251.05826 275.24249
286.0 0.003497 251.02513 274.48166
264.0 0.00379 250.99165 273.73941
280.0 0.00357 250.95778 273.02014
273.0 0.00366 250.92352 272.32156
277.0 0.00361 250.88890 271.64413
290.0 0.003448 250.85388 270.98724
273.0 0.00366 250.81847 270.35068
265.0 0.00377 250.78265 269.74957
247.0 0.00405 250.74646 269.26324
257.0 0.00389 250.70987 268.68689
307.0 0.003257 250.67287 268.12967
250.0 0.00400 250.63547 267.59067
266.0 0.00376 250.59769 267.06973
228.0 0.00439 250.55949 266.56635
243.0 0.00412 250.52089 266.07950
282.0 0.00355 250.48190 265.60901
259.0 0.00386 250.44249 265.15390
255.0 0.00392 250.40265 264.71399
251.0 0.00398 250.36241 264.28848
262.0 0.00382 250.32178 263.87659
252.0 0.00397 250.28072 263.47821
247.0 0.00405 250.23924 263.09241
261.0 0.00383 250.19737 262.71884
241.0 0.00415 250.15506 262.35709
250.0 0.00400 250.11234 262.00677
276.0 0.00362 250.06920 261.66733
265.0 0.00377 250.02570 261.33835
272.0 0.00368 249.98172 260.96246
240.0 0.00417 249.93733 260.65399
238.0 0.00420 249.89256 260.35544
275.0 0.00364 249.84735 260.06607
254.0 0.00394 249.80171 259.78583
240.0 0.00417 249.75566 259.51474
287.0 0.003484 249.70924 259.25235
261.0 0.00383 249.66237 258.99863
258.0 0.00388 249.61508 258.75348
255.0 0.00392 249.56740 258.51657
246.0 0.00407 249.51933 258.28793
268.0 0.00373 249.47083 258.06754
300.0 0.003333 249.42191 257.85501
260.0 0.00385 249.37262 257.65042
246.0 0.00407 249.32289 257.45377
268.0 0.00373 249.27277 257.26492
256.0 0.00391 249.22224 257.08362
261.0 0.00383 249.17137 256.91003
261.0 0.00383 249.12006 256.74405
263.0 0.00380 249.06836 256.58548
298.0 0.003356 249.01631 256.43433
256.0 0.00391 248.96385 256.29050
244.0 0.00410 248.91100 256.15408
253.0 0.00395 248.85776 256.02145
248.0 0.00403 248.80418 255.89966
266.0 0.00376 248.75023 255.67023
238.0 0.00420 248.69588 255.56355
267.0 0.00375 248.64124 255.46399
269.0 0.00372 248.58618 255.37152
263.0 0.00380 248.53075 255.30344
242.0 0.00413 248.47499 255.22523
267.0 0.00375 248.41893 255.15413
249.0 0.00402 248.36250 255.09009
261.0 0.00383 248.30573 255.03302
243.0 0.00412 248.24863 254.98293
268.0 0.00373 248.19124 254.93977
259.0 0.00386 248.13350 254.90356
277.0 0.00361 248.07544 254.87434
264.0 0.00379 248.01715 254.85207
269.0 0.00372 247.95850 254.83675
302.0 0.003311 247.89955 254.82832
275.0 0.00364 247.84033 254.82678
264.0 0.00379 247.78087 254.83226
255.0 0.00392 247.72110 254.84464
259.0 0.00386 247.66107 254.86389
260.0 0.00385 247.60083 254.89008
246.0 0.00407 247.54030 254.92331
283.0 0.00353 247.47952 254.96347
275.0 0.00364 247.41853 255.01064
225.0 0.00444 247.35736 255.06477
241.0 0.00415 247.29593 255.12590
254.0 0.00394 247.23428 255.19409
273.0 0.00366 247.17250 255.26941
249.0 0.00402 247.11049 255.35159
274.0 0.00365 247.04829 255.44086
254.0 0.00394 246.98593 255.53705
206.0 0.00485 246.92346 255.64038
250.0 0.00400 246.86079 255.75055
260.0 0.00385 246.79800 255.86763
240.0 0.00417 246.73508 255.99155
273.0 0.00366 246.67210 256.12222
253.0 0.00395 246.60895 256.25970
258.0 0.00388 246.54572 256.40369
248.0 0.00403 246.48245 256.55411
251.0 0.00398 246.41907 256.71085
245.0 0.00408 246.35564 256.88974
238.0 0.00420 246.29214 257.05847
247.0 0.00405 246.22867 257.23312
274.0 0.00365 246.16513 257.41306
244.0 0.00410 246.10158 257.59830
267.0 0.00375 246.03810 257.78864
271.0 0.00369 245.97456 257.98355
272.0 0.00368 245.91107 258.19119
235.0 0.00426 245.84763 258.39648
255.0 0.00392 245.78427 258.60321
247.0 0.00405 245.72095 258.81277
236.0 0.00424 245.65771 259.02548
261.0 0.00383 245.59462 259.23529
265.0 0.00377 245.53159 259.42709
269.0 0.00372 245.46869 259.64517
247.0 0.00405 245.40593 259.86426
309.0 0.003236 245.34340 260.08377
276.0 0.00362 245.28096 260.30316
276.0 0.00362 245.21873 260.52234
250.0 0.00400 245.15669 260.74026
246.0 0.00407 245.09491 260.95709
239.0 0.00418 245.03333 261.17203
253.0 0.00395 244.97200 261.38492
255.0 0.00392 244.91096 261.59558
257.0 0.00389 244.85017 261.80359
246.0 0.00407 244.78967 262.00891
263.0 0.00380 244.72949 262.21133
269.0 0.00372 244.66969 262.41098
263.0 0.00380 244.61020 262.60748
268.0 0.00373 244.55106 262.80139
277.0 0.00361 244.49234 262.99252
269.0 0.00372 244.43398 263.18115
262.0 0.00382 244.37602 263.39673
249.0 0.00402 244.31850 263.58115
279.0 0.00358 244.26146 263.76410
262.0 0.00382 244.20485 263.94580
251.0 0.00398 244.14871 264.12646
253.0 0.00395 244.09314 264.30658
273.0 0.00366 244.03802 264.48636
296.0 0.003378 243.98344 264.66632
257.0 0.00389 243.92941 264.84665
266.0 0.00376 243.87598 265.03119
255.0 0.00392 243.82310 265.21329
291.0 0.003436 243.77083 265.39676
275.0 0.00364 243.71918 265.58160
258.0 0.00388 243.66821 265.76816
279.0 0.00358 243.61784 265.95639
232.0 0.00431 243.56816 266.14630
225.0 0.00444 243.51920 266.33795
261.0 0.00383 243.47090 266.53128
253.0 0.00395 243.42334 266.72635
290.0 0.003448 243.37651 266.92291
260.0 0.00385 243.33046 267.12042
289.0 0.003460 243.28517 267.31912
250.0 0.00400 243.24068 267.51859
284.0 0.00352 243.19702 267.71832
257.0 0.00389 243.15414 267.91791
273.0 0.00366 243.11212 268.11713
260.0 0.00385 243.07095 268.31525
269.0 0.00372 243.03069 268.52576
271.0 0.00369 242.99127 268.72064
298.0 0.003356 242.95277 268.91287
282.0 0.00355 242.91521 269.10175
263.0 0.00380 242.87857 269.28751
302.0 0.003311 242.84288 269.46918
281.0 0.00356 242.80814 269.64645
262.0 0.00382 242.77443 269.81845
269.0 0.00372 242.74167 269.98499
280.0 0.00357 242.70992 270.14536
280.0 0.00357 242.67918 270.29962
264.0 0.00379 242.64949 270.44705
256.0 0.00391 242.62085 270.58765
286.0 0.003497 242.59325 270.72092
310.0 0.003226 242.56673 270.84671
288.0 0.003472 242.54129 270.96512
255.0 0.00392 242.51692 271.07590
245.0 0.00408 242.49368 271.17908
259.0 0.00386 242.47156 271.27448
267.0 0.00375 242.45053 271.36240
265.0 0.00377 242.43063 271.44260
274.0 0.00365 242.41188 271.51535
265.0 0.00377 242.39427 271.58066
273.0 0.00366 242.37781 271.63861
283.0 0.00353 242.36250 271.68521
277.0 0.00361 242.34836 271.72858
279.0 0.00358 242.33539 271.76489
274.0 0.00365 242.32358 271.79407
272.0 0.00368 242.31297 271.81631
273.0 0.00366 242.30351 271.83130
282.0 0.00355 242.29524 271.83939
281.0 0.00356 242.28813 271.84042
264.0 0.00379 242.28223 271.83423
280.0 0.00357 242.27748 271.82095
273.0 0.00366 242.27391 271.80048
268.0 0.00373 242.27151 271.81702
284.0 0.00352 242.27029 271.78192
279.0 0.00358 242.27023 271.73944
291.0 0.003436 242.27132 271.68930
261.0 0.00383 242.27357 271.63159
301.0 0.003322 242.27695 271.56598
275.0 0.00364 242.28146 271.49265
292.0 0.003425 242.28709 271.41147
262.0 0.00382 242.29382 271.32242
279.0 0.00358 242.30167 271.24472
267.0 0.00375 242.31058 271.14014
301.0 0.003322 242.32054 271.02747
291.0 0.003436 242.33156 270.89725
269.0 0.00372 242.34360 270.73254
269.0 0.00372 242.35664 270.61017
286.0 0.003497 242.37068 270.46783
267.0 0.00375 242.38567 270.31824
268.0 0.00373 242.40158 270.17249
265.0 0.00377 242.41840 270.00943
288.0 0.003472 242.43610 269.84012
287.0 0.003484 242.45464 269.66473
267.0 0.00375 242.47398 269.48358
291.0 0.003436 242.49411 269.29736
270.0 0.00370 242.51498 269.10617
265.0 0.00377 242.53656 268.91058
270.0 0.00370 242.55878 268.71155
264.0 0.00379 242.58160 268.50876
292.0 0.003425 242.60503 268.30347
285.0 0.00351 242.62897 268.09616
264.0 0.00379 242.65337 267.88751
269.0 0.00372 242.67821 267.67834
257.0 0.00389 242.70341 267.46939
260.0 0.00385 242.72893 267.26147
273.0 0.00366 242.75470 267.05521
267.0 0.00375 242.78065 266.85205
264.0 0.00379 242.80673 266.65225
246.0 0.00407 242.83286 266.45709
264.0 0.00379 242.85898 266.26724
267.0 0.00375 242.88503 266.08392
268.0 0.00373 242.91090 265.90771
242.0 0.00413 242.93651 265.73956
246.0 0.00407 242.96182 265.58026
279.0 0.00358 242.98672 265.43024
277.0 0.00361 243.01112 265.29099
274.0 0.00365 243.03493 265.16211
266.0 0.00376 243.05806 265.04477
260.0 0.00385 243.08040 264.93958
291.0 0.003436 243.10184 264.84161
268.0 0.00373 243.12230 264.76114
264.0 0.00379 243.14166 264.69354
264.0 0.00379 243.15981 264.64151
280.0 0.00357 243.17661 264.59998
258.0 0.00388 243.19196 264.57181
255.0 0.00392 243.20573 264.55643
265.0 0.00377 243.21780 264.55392
255.0 0.00392 243.22803 264.56403
258.0 0.00388 243.23627 264.58627
257.0 0.00389 243.24240 264.62024
247.0 0.00405 243.24623 264.66553
250.0 0.00400 243.24765 264.72137
241.0 0.00415 243.24651 264.78732
271.0 0.00369 243.24261 264.86227
280.0 0.00357 243.23581 264.94608
236.0 0.00424 243.22594 265.03738
281.0 0.00356 243.21280 265.13550
261.0 0.00383 243.19627 265.23969
236.0 0.00424 243.17607 265.31934
252.0 0.00397 243.15207 265.43253
276.0 0.00362 243.12407 265.54883
268.0 0.00373 243.09186 265.66702
272.0 0.00368 243.05519 265.78647
228.0 0.00439 243.01390 265.90598
259.0 0.00386 242.96777 266.02490
259.0 0.00386 242.91652 266.14233
270.0 0.00370 242.85995 266.25745
249.0 0.00402 242.79782 266.36969
258.0 0.00388 242.72993 266.47794
280.0 0.00357 242.65594 266.58173
268.0 0.00373 242.57561 266.68063
265.0 0.00377 242.48874 266.77390
285.0 0.00351 242.39496 266.86090
270.0 0.00370 242.29402 266.94128
269.0 0.00372 242.18565 267.01770
258.0 0.00388 242.06963 267.08359
245.0 0.00408 241.94550 267.14148
271.0 0.00369 241.81300 267.19107
261.0 0.00383 241.67197 267.23203
284.0 0.00352 241.52180 267.26376
315.0 0.003175 241.36232 267.28610
270.0 0.00370 241.19316 267.29865
274.0 0.00365 241.01408 267.30115
257.0 0.00389 240.82451 267.29306
246.0 0.00407 240.62416 267.27432
241.0 0.00415 240.41283 267.24432
286.0 0.003497 240.18980 267.20306
274.0 0.00365 239.95485 267.15820
254.0 0.00394 239.70755 267.09329
290.0 0.003448 239.44769 267.01666
276.0 0.00362 239.17444 266.93176
271.0 0.00369 238.88757 266.83038
283.0 0.00353 238.58664 266.71640
258.0 0.00388 238.27141 266.50085
266.0 0.00376 237.94093 266.36224
267.0 0.00375 237.59499 266.21115
265.0 0.00377 237.23334 266.04758
260.0 0.00385 236.85493 265.87140
278.0 0.00360 236.45956 265.68271
273.0 0.00366 236.04665 265.48193
290.0 0.003448 235.61601 265.26926
261.0 0.00383 235.16644 265.04459
248.0 0.00403 234.69771 264.80801
256.0 0.00391 234.20958 264.55927
271.0 0.00369 233.70079 264.30002
256.0 0.00391 233.17104 264.02975
262.0 0.00382 232.61977 263.74890
269.0 0.00372 232.04675 263.45792
291.0 0.003436 231.45049 263.15619
271.0 0.00369 230.83075 262.84491
257.0 0.00389 230.18736 262.50784
260.0 0.00385 229.51868 262.17737
259.0 0.00386 228.82446 261.83780
282.0 0.00355 228.10399 261.48947
258.0 0.00388 227.35713 261.13306
257.0 0.00389 226.58203 260.76767
231.0 0.00433 225.77843 260.39410
248.0 0.00403 224.94560 260.01254
270.0 0.00370 224.08339 259.62350
264.0 0.00379 223.18971 259.22623
258.0 0.00388 222.26433 258.82095
275.0 0.00364 221.30716 258.40833
260.0 0.00385 220.31592 257.98697
274.0 0.00365 219.29044 257.55713
242.0 0.00413 218.22978 257.11829
272.0 . . .
loop_
_refln_index_h
_refln_index_k
_refln_index_l
_refln_observed_status
_refln_F_squared_meas
_refln_F_squared_calc
_refln_phase_calc
_refln_d_spacing
_gsas_i100_meas
1 0 0 o 19358.105 19405.285 180.00 11.95781 100.00
1 0 1 o 14161.022 13835.546 0.00 7.63197 59.19
1 1 0 o 20090.922 19832.041 180.00 6.90385 34.28
2 0 0 o 6096.564 4998.375 0.00 5.97891 7.76
2 0 1 o 4704.713 5255.157 0.00 5.11987 8.77
0 0 2 o 60755.28 60173.64 0.00 4.95688 17.56
1 0 2 o 2034.719 2414.751 180.00 4.57905 3.01
2 1 0 o 12216.811 11022.707 0.00 4.51963 17.49
2 1 1 o 17669.600 16918.865 180.00 4.11243 20.86
2 1 -1 o 2491.368 2385.373 0.00 4.11243 2.94
1 1 -2 o 2164.709 2246.716 180.00 4.02652 1.25
1 1 2 o 244.004 252.779 180.00 4.02652 0.13
3 0 0 o 3323.741 3238.212 0.00 3.98594 1.83
2 0 2 o 74.507 36.284 0.00 3.81599 0.08
3 0 1 o -0.737 37.096 0.00 3.69822 0.00
2 2 0 o 22924.879 25559.406 180.00 3.45192 9.42
2 1 -2 o 2093.294 2691.523 0.00 3.33977 1.62
2 1 2 o 542.165 693.367 0.00 3.33977 0.41
3 1 0 o 423.552 384.633 180.00 3.31650 0.32
1 0 3 o 19716.025 18170.053 0.00 3.18520 13.61
3 1 -1 o 1365.376 1285.468 0.00 3.14517 0.92
3 1 1 o 1874.909 1765.547 180.00 3.14517 1.26
3 0 2 o 47.490 35.999 180.00 3.10624 0.03
4 0 0 o 30517.344 28718.711 180.00 2.98945 9.20
2 0 3 o 3536.602 3428.329 0.00 2.89222 2.01
4 0 1 o 17520.816 18026.352 0.00 2.86216 9.69
2 2 -2 o 3811.930 4711.678 180.00 2.83272 1.03
2 2 2 o 505.441 627.800 180.00 2.83272 0.14
3 1 2 o 6.277 13.367 0.00 2.75643 0.00
3 1 -2 o 115.721 266.573 0.00 2.75643 0.06
3 2 0 o 97.896 269.471 0.00 2.74331 0.06
2 1 3 o 8646.347 9003.711 180.00 2.66759 4.09
2 1 -3 o 7884.375 8215.138 0.00 2.66759 3.78
3 2 -1 o 2011.262 2266.309 0.00 2.64395 0.95
3 2 1 o 256.873 288.634 180.00 2.64395 0.12
4 1 0 o 11310.267 10389.431 0.00 2.60941 5.16
4 0 2 o 799.849 713.693 180.00 2.55994 0.35
3 0 3 o 23.852 22.835 0.00 2.54399 0.01
4 1 1 o 563.128 310.258 0.00 2.52346 0.23
4 1 -1 o 139.353 76.670 180.00 2.52346 0.06
0 0 4 o 186.899 1.842 180.00 2.47844 0.01
1 0 4 o 768.177 204.757 0.00 2.42686 0.29
3 2 -2 o 680.760 465.596 180.00 2.40024 0.25
3 2 2 o 203.105 142.152 180.00 2.40024 0.07
5 0 0 o 18.292 6.199 180.00 2.39156 0.01
3 1 3 o 76.715 80.163 180.00 2.34090 0.03
3 1 -3 o 19.761 20.350 180.00 2.34090 0.01
1 1 4 o 1318.701 1326.669 180.00 2.33268 0.22
1 1 -4 o 2.977 2.989 180.00 2.33268 0.00
5 0 1 o 6534.989 6593.431 180.00 2.32487 2.30
4 1 2 o 44.970 47.131 180.00 2.30901 0.01
4 1 -2 o 165.724 176.981 0.00 2.30901 0.06
3 3 0 o 818.035 751.349 0.00 2.30128 0.12
2 0 4 o 186.566 173.415 180.00 2.28952 0.06
4 2 0 o 43.261 158.959 0.00 2.25981 0.02
4 0 3 o 2435.253 3168.751 0.00 2.21692 0.86
4 2 1 o 1059.614 1655.329 0.00 2.20330 0.33
4 2 -1 o 104.567 169.299 180.00 2.20330 0.04
2 1 4 o 5.726 9.169 180.00 2.17314 0.00
2 1 -4 o 38.976 53.871 180.00 2.17314 0.01
5 0 2 o 1393.895 1132.062 0.00 2.15397 0.39
5 1 0 o 94.386 73.099 0.00 2.14769 0.03
3 2 3 o 1.740 0.976 0.00 2.11077 0.00
3 2 -3 o 147.788 117.117 180.00 2.11077 0.04
3 0 4 o 3347.964 2870.801 0.00 2.10474 0.90
5 1 1 o 1851.176 1704.397 180.00 2.09900 0.51
5 1 -1 o 140.108 129.628 0.00 2.09900 0.04
3 3 -2 o 9656.769 8463.823 0.00 2.08730 1.28
3 3 2 o 6711.765 5904.166 0.00 2.08730 0.87
4 2 2 o 79.054 61.901 180.00 2.05621 0.02
4 2 -2 o 346.903 269.194 180.00 2.05621 0.09
4 1 -3 o 633.541 642.528 180.00 2.04792 0.16
4 1 3 o 1208.177 1225.339 0.00 2.04792 0.31
2 2 4 o 1399.808 966.259 0.00 2.01326 0.18
2 2 -4 o 403.280 290.928 180.00 2.01326 0.05
6 0 0 o 2619.017 2048.522 180.00 1.99297 0.32
3 1 4 o 468.934 361.033 180.00 1.98532 0.11
3 1 -4 o 10.282 8.111 180.00 1.98532 0.00
5 1 -2 o 95.945 90.494 180.00 1.97067 0.02
5 1 2 o 258.219 242.488 180.00 1.97067 0.06
4 3 0 o 1133.080 1162.954 180.00 1.96585 0.26
1 0 5 o 6725.453 7218.131 0.00 1.95605 1.56
6 0 1 o 23.099 25.001 0.00 1.95388 0.01
5 0 3 o 11553.399 11194.783 180.00 1.93742 2.71
4 3 -1 o 1477.908 1543.350 180.00 1.92831 0.33
4 3 1 o 529.340 552.610 0.00 1.92831 0.12
5 2 0 o 10959.579 10367.563 180.00 1.91478 2.46
4 0 4 o 690.298 712.354 0.00 1.90799 0.16
5 2 1 o 327.660 337.284 180.00 1.88004 0.07
5 2 -1 o 3.159 3.255 0.00 1.88004 0.00
2 0 5 o 1930.360 1994.475 0.00 1.88197 0.41
4 2 -3 o 294.221 425.366 0.00 1.86536 0.06
4 2 3 o 3.313 9.275 0.00 1.86536 0.00
6 0 2 o 246.581 179.272 0.00 1.84911 0.05
3 2 4 o 72.848 49.288 180.00 1.83905 0.01
3 2 -4 o 18.695 13.556 0.00 1.83905 0.00
4 3 2 o 317.262 312.882 180.00 1.82739 0.06
4 3 -2 o 7.425 7.325 180.00 1.82739 0.00
6 1 0 o 1126.762 1198.391 0.00 1.82355 0.23
2 1 5 o 2749.415 2920.331 180.00 1.81571 0.53
2 1 -5 o 2847.616 3031.702 0.00 1.81571 0.57
5 1 3 o 5.614 4.942 0.00 1.80079 0.00
5 1 -3 o 34.409 30.929 180.00 1.80079 0.01
4 1 4 o 7464.175 6766.542 180.00 1.79704 1.45
4 1 -4 o 3302.312 2989.749 180.00 1.79704 0.65
6 1 1 o 2048.450 1965.407 0.00 1.79346 0.40
6 1 -1 o 6337.626 6090.763 180.00 1.79346 1.20
5 2 2 o 357.323 388.202 180.00 1.78615 0.07
5 2 -2 o 1390.828 1518.872 180.00 1.78615 0.28
3 0 5 o 22.645 28.885 180.00 1.77524 0.00
4 4 0 o 32273.521 32996.633 0.00 1.72596 2.86
5 0 4 o 3202.145 3460.051 0.00 1.72098 0.56
6 1 2 o 57.414 59.235 0.00 1.71141 0.01
6 1 -2 o 54.420 55.905 180.00 1.71141 0.01
5 3 0 o 1688.621 1589.510 180.00 1.70826 0.29
7 0 0 o 244.421 229.980 0.00 1.70826 0.02
6 0 3 o 13.010 11.787 0.00 1.70662 0.00
3 1 -5 o 0.073 0.043 0.00 1.70181 0.00
3 1 5 o 192.420 144.610 180.00 1.70181 0.03
4 3 3 o 0.722 0.559 0.00 1.68950 0.00
4 3 -3 o 83.205 61.100 180.00 1.68950 0.01
3 3 -4 o 6914.576 5280.888 0.00 1.68641 0.58
3 3 4 o 14535.731 11146.578 0.00 1.68641 1.19
5 3 -1 o 691.148 548.810 0.00 1.68345 0.12
7 0 1 o 2.086 1.759 0.00 1.68345 0.00
5 3 1 o 1574.858 1255.677 180.00 1.68345 0.26
4 2 -4 o 288.836 201.920 180.00 1.66988 0.05
4 2 4 o 105.239 72.908 180.00 1.66988 0.02
6 2 0 o 9418.182 8526.334 0.00 1.65825 1.49
5 2 3 o 365.196 345.528 180.00 1.65676 0.06
5 2 -3 o 262.457 248.323 0.00 1.65676 0.04
4 0 5 o 1058.038 1086.179 0.00 1.65235 0.17
0 0 6 o 46851.58 47579.11 180.00 1.65229 1.25
1 0 6 o 2294.115 2938.883 0.00 1.63674 0.36
6 2 1 o 129.611 166.323 0.00 1.63553 0.02
6 2 -1 o 7048.717 9338.389 0.00 1.63553 1.09
4 4 -2 o 17.759 21.289 180.00 1.62998 0.00
4 4 2 o 242.496 321.644 0.00 1.62998 0.02
5 1 -4 o 1.405 1.355 180.00 1.62308 0.00
5 1 4 o 274.711 263.891 0.00 1.62308 0.04
5 3 -2 o 117.942 91.723 180.00 1.61504 0.02
5 3 2 o 39.361 30.059 180.00 1.61504 0.01
7 0 2 o 598.596 466.498 0.00 1.61504 0.09
3 2 -5 o 45.663 40.481 180.00 1.60697 0.01
3 2 5 o 73.449 66.659 0.00 1.60697 0.01
1 1 -6 o 4214.433 3715.789 0.00 1.60691 0.32
1 1 6 o 1.778 1.488 0.00 1.60691 0.00
6 1 3 o 3366.608 3328.336 0.00 1.59659 0.50
6 1 -3 o 12289.084 12150.147 180.00 1.59659 1.81
2 0 6 o 1302.315 1270.241 180.00 1.59260 0.19
7 1 0 o 65.483 56.924 180.00 1.58385 0.01
4 1 5 o 765.936 699.030 0.00 1.57871 0.11
4 1 -5 o 450.440 411.193 180.00 1.57871 0.06
6 2 -2 o 2153.177 2135.651 0.00 1.57259 0.30
6 2 2 o 1834.163 1819.354 0.00 1.57259 0.26
7 1 1 o 882.967 772.095 180.00 1.56402 0.12
7 1 -1 o 58.177 50.833 180.00 1.56402 0.01
6 0 4 o 821.442 732.508 0.00 1.55312 0.11
2 1 6 o 971.799 831.128 180.00 1.55184 0.13
2 1 -6 o 2696.724 2301.134 180.00 1.55184 0.37
4 3 -4 o 221.281 172.211 180.00 1.54018 0.03
4 3 4 o 1466.778 1142.335 180.00 1.54018 0.19
5 4 0 o 4016.325 3337.877 180.00 1.53104 0.54
5 0 5 o 1431.461 1317.615 180.00 1.52639 0.19
3 0 6 o 530.867 485.641 0.00 1.52635 0.07
5 3 -3 o 81.068 80.879 0.00 1.51750 0.01
5 3 3 o 722.089 720.537 180.00 1.51750 0.10
7 0 3 o 2648.424 2642.927 180.00 1.51750 0.34
5 2 4 o 15.072 15.302 0.00 1.51525 0.00
5 2 -4 o 325.615 328.498 0.00 1.51525 0.04
5 4 1 o 694.887 731.109 0.00 1.51310 0.10
5 4 -1 o 9443.771 9903.011 180.00 1.51310 1.23
7 1 2 o 2774.361 3103.239 180.00 1.50871 0.35
7 1 -2 o 69.439 78.011 180.00 1.50871 0.01
6 3 0 o 507.723 562.290 180.00 1.50654 0.07
8 0 0 o 7736.826 7372.311 180.00 1.49473 0.49
4 2 5 o 18.204 18.312 180.00 1.49040 0.00
4 2 -5 o 255.765 257.456 0.00 1.49040 0.03
2 2 -6 o 1628.037 1621.692 0.00 1.49036 0.11
2 2 6 o 5829.804 5807.970 0.00 1.49036 0.36
6 3 -1 o 5.231 5.288 180.00 1.48944 0.00
6 3 1 o 16.180 16.357 180.00 1.48944 0.00
6 2 3 o 7.615 7.311 180.00 1.48211 0.00
6 2 -3 o 5508.186 5389.083 0.00 1.48211 0.69
3 1 -6 o 51.946 50.486 0.00 1.47892 0.01
3 1 6 o 38.032 37.130 180.00 1.47892 0.00
8 0 1 o 7400.467 7194.426 180.00 1.47802 0.91
6 1 -4 o 2161.429 1694.719 180.00 1.46881 0.26
6 1 4 o 13.351 9.436 180.00 1.46881 0.00
5 4 -2 o 109.938 73.313 180.00 1.46285 0.01
5 4 2 o 371.356 253.415 180.00 1.46285 0.04
7 2 0 o 876.199 615.552 0.00 1.46088 0.10
5 1 5 o 1366.379 1066.119 180.00 1.45684 0.15
5 1 -5 o 391.505 301.119 0.00 1.45684 0.05
4 0 6 o 6773.995 7781.956 0.00 1.44611 0.80
7 2 1 o 477.714 561.247 0.00 1.44527 0.06
7 2 -1 o 2278.489 2688.028 180.00 1.44527 0.27
6 3 -2 o 1104.141 1336.387 0.00 1.44144 0.13
6 3 2 o 1.351 2.129 180.00 1.44144 0.00
8 0 2 o 97.103 105.981 180.00 1.43108 0.01
7 1 -3 o 115.557 123.541 0.00 1.42827 0.01
7 1 3 o 778.498 832.269 180.00 1.42827 0.09
4 4 4 o 2550.102 1882.790 180.00 1.41636 0.15
4 4 -4 o 6290.705 4673.533 180.00 1.41636 0.35
3 2 -6 o 1.916 1.355 180.00 1.41539 0.00
3 2 6 o 433.114 326.243 180.00 1.41539 0.05
5 3 4 o 391.426 345.296 0.00 1.40653 0.04
7 0 4 o 1221.851 1080.250 180.00 1.40653 0.13
5 3 -4 o 141.721 124.620 0.00 1.40653 0.02
1 0 7 o 1095.327 961.165 180.00 1.40642 0.12
6 0 5 o 118.643 108.067 0.00 1.40562 0.01
7 2 -2 o 588.053 587.558 180.00 1.40129 0.06
7 2 2 o 595.406 594.892 0.00 1.40129 0.07
8 1 0 o 1763.485 1769.257 180.00 1.39956 0.19
4 3 -5 o 1102.656 1092.738 180.00 1.39600 0.12
4 3 5 o 1632.132 1617.498 0.00 1.39600 0.17
4 1 -6 o 6891.162 6784.423 180.00 1.39597 0.75
4 1 6 o 11920.143 11737.574 180.00 1.39597 1.29
5 4 -3 o 15971.640 14973.104 180.00 1.38919 1.71
5 4 3 o 5605.297 5247.668 0.00 1.38919 0.61
8 1 1 o 2013.365 2006.461 0.00 1.38581 0.22
8 1 -1 o 2704.685 2695.531 180.00 1.38581 0.29
5 5 0 o 307.148 334.332 0.00 1.38077 0.02
6 2 4 o 2.030 2.242 0.00 1.37822 0.00
6 2 -4 o 2.522 2.751 0.00 1.37822 0.00
2 0 7 o 706.794 802.838 180.00 1.37812 0.08
5 2 5 o 80.241 92.833 180.00 1.37736 0.01
5 2 -5 o 361.103 417.517 0.00 1.37736 0.04
6 4 0 o 297.408 363.681 0.00 1.37166 0.03
6 3 3 o 64.429 79.390 180.00 1.37081 0.01
6 3 -3 o 30.955 38.104 0.00 1.37081 0.00
8 0 3 o 3762.955 3936.739 180.00 1.36189 0.40
5 0 6 o 2004.249 2144.184 0.00 1.35941 0.21
6 4 -1 o 63.488 68.185 180.00 1.35871 0.01
6 4 1 o 237.805 254.718 0.00 1.35871 0.02
2 1 -7 o 2551.540 2566.507 180.00 1.35145 0.26
2 1 7 o 1078.395 1084.790 0.00 1.35145 0.11
8 1 -2 o 286.383 272.711 180.00 1.34690 0.03
8 1 2 o 86.040 81.871 180.00 1.34690 0.01
7 3 0 o 142.597 136.284 0.00 1.34536 0.02
6 1 -5 o 3410.711 3348.114 180.00 1.34220 0.34
6 1 5 o 1256.231 1234.064 0.00 1.34220 0.12
3 3 -6 o 2378.529 2339.639 0.00 1.34217 0.12
3 3 6 o 9506.187 9349.178 0.00 1.34217 0.48
7 1 4 o 562.350 541.660 180.00 1.33461 0.05
7 1 -4 o 2089.314 2012.195 0.00 1.33461 0.20
3 0 7 o 273.068 261.440 180.00 1.33452 0.03
4 2 6 o 306.342 288.112 180.00 1.33380 0.03
4 2 -6 o 291.192 274.226 180.00 1.33380 0.03
7 3 1 o 1773.956 1653.853 180.00 1.33314 0.17
7 3 -1 o 3972.208 3697.566 0.00 1.33314 0.39
5 5 2 o 3296.155 2975.114 0.00 1.33013 0.16
5 5 -2 o 41.586 37.668 180.00 1.33013 0.00
7 2 -3 o 525.934 524.690 180.00 1.33614 0.05
7 2 3 o 2166.758 2161.710 0.00 1.33614 0.22
9 0 0 o 37886.83 34819.188 0.00 1.32865 1.84
6 4 2 o 216.063 195.398 180.00 1.32198 0.02
6 4 -2 o 16.839 15.214 0.00 1.32198 0.00
9 0 1 o 4.834 3.513 0.00 1.31687 0.00
5 1 -6 o 421.949 349.801 180.00 1.30958 0.04
5 1 6 o 143.877 119.071 0.00 1.30958 0.01
8 2 0 o 3751.482 3643.121 180.00 1.30470 0.35
5 4 -4 o 1833.532 1927.402 0.00 1.30255 0.17
5 4 4 o 1165.263 1225.606 0.00 1.30255 0.11
3 1 7 o 1424.351 1492.755 0.00 1.30247 0.13
3 1 -7 o 1621.004 1698.290 180.00 1.30247 0.15
7 3 2 o 5.253 7.162 0.00 1.29839 0.00
7 3 -2 o 390.352 466.882 180.00 1.29839 0.04
5 3 -5 o 0.716 0.787 180.00 1.29418 0.00
5 3 5 o 271.337 301.631 180.00 1.29418 0.03
7 0 5 o 5.769 6.472 180.00 1.29418 0.00
8 2 1 o 57.882 61.715 0.00 1.29355 0.01
8 2 -1 o 11.814 12.597 180.00 1.29355 0.00
8 1 -3 o 7518.447 7039.255 180.00 1.28874 0.69
8 1 3 o 3615.432 3382.708 0.00 1.28874 0.33
6 3 4 o 0.607 0.560 180.00 1.28736 0.00
6 3 -4 o 278.065 261.526 0.00 1.28736 0.03
9 0 2 o 8015.629 8035.770 0.00 1.28334 0.72
8 0 4 o 476.947 496.402 0.00 1.27997 0.04
4 0 7 o 15848.451 16170.609 180.00 1.27989 1.43
6 2 5 o 126.173 113.484 180.00 1.27202 0.01
6 2 -5 o 656.044 588.175 0.00 1.27202 0.06
6 0 6 o 4023.703 3593.372 0.00 1.27200 0.35
6 4 3 o 16.273 12.200 0.00 1.26686 0.00
6 4 -3 o 1.065 0.828 0.00 1.26686 0.00
4 3 6 o 52.732 40.614 180.00 1.26486 0.00
4 3 -6 o 61.887 48.527 0.00 1.26486 0.01
8 2 -2 o 178.339 152.836 180.00 1.26173 0.02
8 2 2 o 488.012 415.500 180.00 1.26173 0.04
7 2 -4 o 1445.870 1372.985 180.00 1.25852 0.12
7 2 4 o 114.066 108.514 0.00 1.25852 0.01
3 2 -7 o 1652.156 1533.932 180.00 1.25845 0.14
3 2 7 o 4082.540 3793.368 0.00 1.25845 0.35
9 1 0 o 237.382 229.179 180.00 1.25352 0.02
6 5 0 o 464.569 448.512 0.00 1.25352 0.04
5 2 -6 o 3500.257 3303.526 0.00 1.25094 0.31
5 2 6 o 936.851 884.759 0.00 1.25094 0.08
7 3 -3 o 5201.045 4941.962 0.00 1.24605 0.44
7 3 3 o 8544.582 8116.412 180.00 1.24605 0.73
4 1 -7 o 92.389 92.559 180.00 1.24473 0.01
4 1 7 o 101.451 101.638 0.00 1.24473 0.01
9 1 -1 o 373.833 387.893 0.00 1.24362 0.03
6 5 1 o 1334.313 1384.176 180.00 1.24362 0.12
6 5 -1 o 552.230 572.167 0.00 1.24362 0.05
9 1 1 o 3.443 3.575 180.00 1.24362 0.00
7 4 0 o 967.298 1049.661 180.00 1.23997 0.08
0 0 8 o 507.077 503.218 180.00 1.23922 0.01
7 1 5 o 327.794 335.669 180.00 1.23750 0.03
7 1 -5 o 333.688 341.738 0.00 1.23750 0.03
9 0 3 o 3.836 2.941 180.00 1.23274 0.00
1 0 8 o 225.472 190.832 0.00 1.23262 0.02
7 4 1 o 727.919 588.804 0.00 1.23038 0.06
7 4 -1 o 8.208 6.600 180.00 1.23038 0.00
6 1 6 o 234.206 232.409 180.00 1.22443 0.02
6 1 -6 o 2487.141 2468.216 180.00 1.22443 0.21
1 1 -8 o 82.451 76.911 0.00 1.21973 0.00
1 1 8 o 2544.950 2389.286 180.00 1.21973 0.10
8 1 -4 o 360.168 330.802 0.00 1.21868 0.03
8 1 4 o 708.290 651.042 0.00 1.21868 0.06
5 0 7 o 4628.613 4279.670 0.00 1.21861 0.38
9 1 -2 o 83.057 75.412 180.00 1.21526 0.01
6 5 2 o 36.849 33.377 180.00 1.21526 0.00
9 1 2 o 948.279 859.754 180.00 1.21526 0.08
6 5 -2 o 230.656 208.278 0.00 1.21526 0.02
8 3 0 o 3459.515 3181.874 0.00 1.21413 0.28
8 2 -3 o 406.240 373.524 180.00 1.21354 0.03
8 2 3 o 403.103 370.602 0.00 1.21354 0.03
2 0 8 o 14.192 13.420 0.00 1.21343 0.00
5 4 -5 o 1644.753 1565.948 180.00 1.21181 0.13
5 4 5 o 349.607 332.512 0.00 1.21181 0.03
5 5 -4 o 4670.849 4911.873 180.00 1.20621 0.19
5 5 4 o 252.022 265.271 180.00 1.20621 0.01
8 3 1 o 63.879 65.425 180.00 1.20513 0.00
8 3 -1 o 203.215 208.767 180.00 1.20513 0.02
7 4 -2 o 1542.662 1536.702 180.00 1.20290 0.12
7 4 2 o 1557.303 1551.258 180.00 1.20290 0.12
6 4 -4 o 31.285 30.203 0.00 1.20012 0.00
6 4 4 o 527.045 508.049 180.00 1.20012 0.04
4 2 -7 o 2132.734 2074.548 0.00 1.20006 0.17
4 2 7 o 2445.676 2378.640 180.00 1.20006 0.19
6 3 5 o 54.482 52.383 180.00 1.19955 0.00
6 3 -5 o 95.349 91.705 0.00 1.19955 0.01
