#------------------------------------------------------------------------------
#$Date: 2020-10-04 06:20:28 +0300 (Sun, 04 Oct 2020) $
#$Revision: 257098 $
#$URL: file:///home/coder/svn-repositories/cod/cif/4/00/35/4003527.cif $
#------------------------------------------------------------------------------
#
# This file is available in the Crystallography Open Database (COD),
# http://www.crystallography.net/
#
# All data on this site have been placed in the public domain by the
# contributors.
#
data_4003527
loop_
_publ_author_name
'Abudouwufu, Tushagu'
'Zhang, Min'
'Cheng, Shichao'
'Zeng, Hao'
'Yang, Zhihua'
'Pan, Shilie'
_publ_section_title
;
 K2Na(IO3)2(I3O8) with Strong Second Harmonic Generation Response
 Activated by Two Types of Isolated Iodate Anions
;
_journal_issue                   8
_journal_name_full               'Chemistry of Materials'
_journal_page_first              3608
_journal_page_last               3614
_journal_paper_doi               10.1021/acs.chemmater.0c00878
_journal_volume                  32
_journal_year                    2020
_chemical_formula_sum            'I5 K2 Na O14'
_chemical_formula_weight         959.69
_space_group_crystal_system      monoclinic
_space_group_IT_number           7
_space_group_name_Hall           'P -2yc'
_space_group_name_H-M_alt        'P 1 c 1'
_audit_creation_method           SHELXL-2016/6
_cell_angle_alpha                90
_cell_angle_beta                 90.239(4)
_cell_angle_gamma                90
_cell_formula_units_Z            2
_cell_length_a                   11.4483(6)
_cell_length_b                   8.1332(5)
_cell_length_c                   7.8077(4)
_cell_measurement_reflns_used    6519
_cell_measurement_temperature    296(2)
_cell_measurement_theta_max      27.471
_cell_measurement_theta_min      3.072
_cell_volume                     726.98(7)
_computing_cell_refinement       'Bruker SMART'
_computing_data_collection       'Bruker SMART'
_computing_data_reduction        'Bruker SAINT'
_computing_molecular_graphics    'Bruker SHELXTL'
_computing_publication_material  'Bruker SHELXTL'
_computing_structure_refinement  'SHELXL-2016/6 (Sheldrick, 2016)'
_computing_structure_solution    'SHELXL-2016/6 (Sheldrick, 2016)'
_diffrn_ambient_temperature      296(2)
_diffrn_measured_fraction_theta_full 0.997
_diffrn_measured_fraction_theta_max 0.995
_diffrn_measurement_device_type  'CCD area detector'
_diffrn_measurement_method       'phi and omega scans'
_diffrn_radiation_type           MoK\a
_diffrn_radiation_wavelength     0.71073
_diffrn_reflns_av_R_equivalents  0.0508
_diffrn_reflns_av_unetI/netI     0.0697
_diffrn_reflns_Laue_measured_fraction_full 0.997
_diffrn_reflns_Laue_measured_fraction_max 0.995
_diffrn_reflns_limit_h_max       14
_diffrn_reflns_limit_h_min       -14
_diffrn_reflns_limit_k_max       10
_diffrn_reflns_limit_k_min       -10
_diffrn_reflns_limit_l_max       10
_diffrn_reflns_limit_l_min       -10
_diffrn_reflns_number            6519
_diffrn_reflns_point_group_measured_fraction_full 0.964
_diffrn_reflns_point_group_measured_fraction_max 0.945
_diffrn_reflns_theta_full        25.242
_diffrn_reflns_theta_max         27.471
_diffrn_reflns_theta_min         3.072
_exptl_absorpt_coefficient_mu    11.368
_exptl_absorpt_correction_type   multi-scan
_exptl_crystal_colour            colorless
_exptl_crystal_density_diffrn    4.384
_exptl_crystal_density_meas      ?
_exptl_crystal_density_method    'not measured'
_exptl_crystal_description       block
_exptl_crystal_F_000             852
_exptl_crystal_size_max          0.18
_exptl_crystal_size_mid          0.15
_exptl_crystal_size_min          0.12
_exptl_transmission_factor_max   0.7456
_exptl_transmission_factor_min   0.5410
_refine_diff_density_max         1.679
_refine_diff_density_min         -2.076
_refine_diff_density_rms         0.339
_refine_ls_abs_structure_details
;
 Flack x determined using 1273 quotients [(I+)-(I-)]/[(I+)+(I-)]
 (Parsons, Flack and Wagner, Acta Cryst. B69 (2013) 249-259).
;
_refine_ls_abs_structure_Flack   0.06(4)
_refine_ls_extinction_method     none
_refine_ls_goodness_of_fit_ref   1.029
_refine_ls_hydrogen_treatment    undef
_refine_ls_matrix_type           full
_refine_ls_number_parameters     199
_refine_ls_number_reflns         3149
_refine_ls_number_restraints     20
_refine_ls_restrained_S_all      1.026
_refine_ls_R_factor_all          0.0421
_refine_ls_R_factor_gt           0.0391
_refine_ls_shift/su_max          0.000
_refine_ls_shift/su_mean         0.000
_refine_ls_structure_factor_coef Fsqd
_refine_ls_weighting_details
'w=1/[\s^2^(Fo^2^)+(0.0345P)^2^+0.3556P] where P=(Fo^2^+2Fc^2^)/3'
_refine_ls_weighting_scheme      calc
_refine_ls_wR_factor_gt          0.0862
_refine_ls_wR_factor_ref         0.0881
_reflns_Friedel_coverage         0.894
_reflns_Friedel_fraction_full    0.930
_reflns_Friedel_fraction_max     0.894
_reflns_number_gt                2954
_reflns_number_total             3149
_reflns_threshold_expression     'I > 2\s(I)'
_cod_data_source_file            cm0c00878_si_002.cif
_cod_data_source_block           1
_cod_depositor_comments
;
The following automatic conversions were performed:

data item '_exptl_crystal_density_meas' value 'not measured' was
changed to '?' -- the value is perceived as not measured.

Automatic conversion script
Id: cif_fix_values 7556 2019-12-06 15:28:31Z antanas 

 Adding full bibliography for 4003527.cif.

 Adding full bibliography for 4003527.cif.
;
_cod_original_sg_symbol_H-M      'P c'
_cod_database_code               4003527
_shelx_shelxl_version_number     2016/6
_shelx_space_group_comment
;
The symmetry employed for this shelxl refinement is uniquely defined
by the following loop, which should always be used as a source of
symmetry information in preference to the above space-group names.
They are only intended as comments.
;
_shelx_res_file
;
TITL 1 in Pc
    1.res
    created by SHELXL-2016/6 at 10:44:02 on 20-May-2019
CELL 0.71073 11.4483 8.1332 7.8077 90 90.2387 90
ZERR 2 0.0006 0.0005 0.0004 0 0.0036 0
LATT -1
SYMM +X,-Y,0.5+Z
SFAC O  Na K  I
UNIT 28  2  4  10
OMIT   0   1   0
L.S. 50
ACTA
BOND
FMAP 2
PLAN 2
ISOR 0.001 O8 O9 O2
TEMP 23
WGHT    0.034500    0.355589
FVAR       0.07684
K1    3    0.355561    0.015454    0.290633    11.00000    0.02203    0.04029 =
         0.02734    0.00719    0.00525    0.00248
K2    3    0.858595    0.494802    0.265613    11.00000    0.01559    0.03907 =
         0.02097    0.00347   -0.00244   -0.00022
NA1   2    0.856468    1.009256    0.242055    11.00000    0.01964    0.01836 =
         0.01528   -0.00920    0.00457   -0.00173
I1    4    0.095374   -0.231756    0.513924    11.00000    0.01055    0.01401 =
         0.01539   -0.00107    0.00013    0.00012
I2    4    0.101051    0.260001    0.498744    11.00000    0.01002    0.01369 =
         0.01665    0.00041   -0.00109   -0.00125
I3    4    0.577998    0.288127    0.032820    11.00000    0.01079    0.01257 =
         0.01626    0.00062   -0.00142    0.00003
I4    4    0.355441    0.551900    0.184231    11.00000    0.01199    0.01843 =
         0.01049   -0.00152   -0.00087   -0.00170
I5    4    0.669588    0.786573    0.035988    11.00000    0.01244    0.01558 =
         0.01487    0.00198   -0.00087   -0.00042
O1    1    0.002046   -0.207068    0.699687    11.00000    0.01374    0.03154 =
         0.01667   -0.00492    0.00040    0.00260
O2    1   -0.011782   -0.190180    0.350729    11.00000    0.02269    0.02285 =
         0.02240    0.00035   -0.00116    0.00046
O3    1    0.178770   -0.041836    0.521107    11.00000    0.02066    0.01514 =
         0.03777   -0.00001    0.00393   -0.00535
O4    1    0.201050    0.282547    0.685816    11.00000    0.01343    0.02324 =
         0.01394    0.00228   -0.00121   -0.01176
O5    1    0.213645    0.308020    0.345701    11.00000    0.01721    0.03180 =
         0.02539    0.00485   -0.00233   -0.00036
O6    1    0.024325    0.452034    0.511083    11.00000    0.01281    0.01092 =
         0.03941   -0.00238   -0.00768    0.00259
O7    1    0.437997    0.709713    0.086137    11.00000    0.01298    0.02888 =
         0.02897    0.00115    0.00803   -0.00633
O8    1    0.491945    0.395344    0.217340    11.00000    0.01513    0.01636 =
         0.01509   -0.00048   -0.00036    0.00066
O9    1    0.503805    0.093128    0.038813    11.00000    0.02154    0.02160 =
         0.02213    0.00089    0.00021   -0.00066
O10   1    0.367332    0.614458    0.405095    11.00000    0.02328    0.02349 =
         0.01659   -0.00385   -0.00315   -0.00422
O11   1    0.699952    0.235654    0.166562    11.00000    0.01900    0.02649 =
         0.03660   -0.00663   -0.01408    0.00548
O12   1    0.680877    0.815406    0.265381    11.00000    0.03388    0.04807 =
         0.00960   -0.00339   -0.00152   -0.01558
O13   1    0.698477    0.570144    0.023168    11.00000    0.02317    0.01704 =
         0.02330    0.00365   -0.00359    0.00088
O14   1    0.815675    0.864521   -0.006111    11.00000    0.01727    0.03577 =
         0.01485    0.00274   -0.00323   -0.00461
HKLF 4




REM  1 in Pc
REM R1 =  0.0391 for    2954 Fo > 4sig(Fo)  and  0.0421 for all    3149 data
REM    199 parameters refined using     20 restraints

END

WGHT      0.0367      0.0000

REM Highest difference peak  1.679,  deepest hole -2.076,  1-sigma level  0.339
Q1    1   0.5759  0.4040  0.0366  11.00000  0.05    1.68
Q2    1   0.3578  0.4471  0.3490  11.00000  0.05    1.61
;
_shelx_res_checksum              76405
_shelx_hkl_file
;
   0   0   1    0.13    0.09
   0   0  -2  402.73   22.62
   0   0  -2  418.94   22.47
   0   0   2  414.73   22.44
   0   0   2  441.42   22.49
   0   0   3   -0.06    0.16
   0   0  -3    0.23    0.27
   0   0   3   -0.02    0.14
   0   0  -3    0.05    0.13
   0   0  -4  531.12   29.34
   0   0   4  543.52   29.03
   0   0   4  516.84   28.93
   0   0   4  552.83   28.76
   0   0  -4  544.30   29.01
   0   0   5   -0.03    0.23
   0   0  -5   -0.08    0.24
   0   0  -5   -0.27    0.32
   0   0   5    0.19    0.22
   0   0  -6  339.59   18.73
   0   0   6  340.91   18.72
   0   0   6  341.75   18.63
   0   0  -6  332.45   19.18
   0   0  -7   -0.18    0.48
   0   0   7   -0.32    0.37
   0   0  -7   -0.15    0.33
   0   0   7   -0.01    0.36
   0   0  -8   84.17    5.60
   0   0   8   90.99    5.67
   0   0  -8   85.58    6.19
   0   0   8   87.86    5.58
   0   0  -9    0.98    1.04
   0   0  -9    0.30    0.53
   0   0  10   15.35    3.40
   0   0 -10   10.07    1.76
   0  -1   0   17.56    1.11
   0   1   1    5.64    0.63
   0  -1   1    3.56    0.45
   0   1   2   38.67    2.24
   0   1  -2   35.11    2.33
   0   1   2   33.93    2.07
   0   1   2   34.65    2.57
   0  -1  -2   36.02    2.14
   0  -1   2   36.19    2.21
   0   1   3    0.81    0.23
   0   1  -3    0.66    0.24
   0   1   3    1.13    0.31
   0   1  -3    0.08    0.22
   0  -1  -3    0.72    0.24
   0  -1  -3    1.02    0.42
   0  -1   3    0.80    0.25
   0  -1   3    0.82    0.29
   0   1  -4   46.15    3.33
   0   1   4   46.86    2.90
   0   1   4   44.54    2.92
   0   1  -4   49.55    3.00
   0   1   4   48.72    2.97
   0  -1   4   48.62    2.96
   0  -1  -4   47.57    3.00
   0  -1  -4   51.13    3.29
   0  -1   4   49.55    3.10
   0   1   5    5.24    0.79
   0   1  -5    7.82    0.97
   0   1  -5    7.61    1.33
   0   1   5    7.20    0.85
   0   1   5    7.56    0.93
   0  -1  -5    6.66    1.14
   0  -1  -5    6.31    0.92
   0  -1   5    5.85    0.86
   0  -1   5    8.74    1.10
   0   1  -6   17.43    1.74
   0   1   6   17.31    1.47
   0   1  -6   15.26    2.11
   0   1   6   16.70    1.62
   0  -1   6   16.95    1.76
   0  -1  -6   12.67    1.90
   0  -1  -6   16.61    1.69
   0  -1   6   19.26    1.74
   0   1  -7    2.28    0.70
   0   1   7    3.45    0.77
   0   1  -7    1.64    0.80
   0  -1  -7    3.12    1.03
   0  -1   7    4.03    0.83
   0  -1  -7    2.49    0.69
   0  -1   7    3.31    0.79
   0   1   8    4.36    1.69
   0   1  -8    8.46    1.37
   0   1  -8    6.22    1.59
   0  -1   8   10.50    1.60
   0  -1   8    7.60    1.31
   0  -1  -8    7.98    1.30
   0  -1  -8    8.10    1.65
   0   1   9   12.64    2.95
   0   1  -9   12.12    2.26
   0  -1  -9    6.93    1.41
   0   1  10   10.43    2.78
   0   1 -10    4.97    1.84
   0  -1 -10    8.23    1.63
   0   2   0  263.95   14.59
   0  -2   0  267.96   14.49
   0   2   1    4.56    0.77
   0   2  -1    6.64    0.77
   0  -2   1    6.44    0.74
   0   2   2  561.59   33.99
   0   2  -2  668.52   33.68
   0   2  -2  586.43   33.29
   0   2   2  612.84   33.56
   0  -2   2  632.26   33.44
   0  -2  -2  668.13   33.44
   0   2  -3   34.62    2.51
   0   2   3   32.88    2.90
   0   2   3   35.27    2.35
   0  -2   3   30.33    2.24
   0  -2  -3   32.37    2.28
   0   2  -4  199.08   12.32
   0   2   4  216.89   12.02
   0   2   4  226.03   12.95
   0  -2   4  211.36   12.05
   0  -2  -4  213.34   12.12
   0  -2  -4  223.00   11.93
   0   2   5   21.75    1.71
   0   2   5   21.79    2.56
   0   2  -5   22.31    2.14
   0   2   5   19.20    1.55
   0  -2  -5   18.24    1.62
   0  -2   5   21.03    1.66
   0  -2  -5   22.34    1.94
   0  -2   5   22.60    1.84
   0   2  -6  124.84    8.06
   0   2   6  133.63    8.91
   0   2   6  123.69    7.27
   0  -2  -6  125.60    7.74
   0  -2   6  123.09    7.58
   0  -2   6  123.58    7.37
   0  -2  -6  128.04    7.47
   0   2   7    0.92    1.24
   0   2  -7   -0.22    0.63
   0  -2   7    1.19    0.62
   0  -2  -7    2.09    0.84
   0  -2   7    1.32    0.59
   0  -2  -7    1.06    0.49
   0   2  -8   54.38    4.69
   0   2   8   63.65    5.80
   0  -2  -8   54.73    4.07
   0  -2   8   56.05    4.21
   0  -2   8   58.24    4.05
   0   2   9   14.24    3.25
   0   2  -9   10.22    2.27
   0  -2   9   11.51    1.92
   0  -2  -9   14.69    1.97
   0   3   0   15.30    1.42
   0  -3   0   16.63    1.37
   0   3  -1   15.36    1.34
   0   3   1   12.89    1.53
   0   3   1   14.69    2.07
   0  -3   1   14.64    1.49
   0  -3  -1   14.88    1.16
   0   3  -2    9.90    1.13
   0   3   2   11.53    2.05
   0   3   2    6.50    1.11
   0   3  -2    9.03    1.35
   0  -3   2    9.33    1.16
   0   3   3   13.80    2.49
   0   3   3   18.88    1.74
   0   3  -3   18.91    1.47
   0   3  -3   17.19    1.77
   0  -3   3   22.42    1.69
   0  -3  -3   20.43    1.83
   0   3  -4    7.93    1.33
   0   3   4    5.39    1.04
   0   3   4    6.42    2.06
   0  -3  -4    6.29    1.17
   0  -3   4    6.83    1.07
   0   3  -5   16.69    2.16
   0   3   5   18.56    1.96
   0   3   5   13.55    2.92
   0  -3  -5   16.45    1.67
   0  -3   5   18.65    2.00
   0  -3  -5   19.05    1.89
   0   3   6    8.05    2.58
   0   3   6    9.95    1.41
   0   3  -6    8.49    1.75
   0  -3   6    8.23    1.18
   0  -3  -6    8.66    1.25
   0  -3  -6    9.50    1.55
   0  -3   6    7.95    1.37
   0   3  -7   27.13    3.28
   0   3   7   25.98    4.41
   0  -3  -7   18.62    2.15
   0  -3   7   19.42    2.38
   0  -3   7   25.45    2.32
   0   3   8    0.67    1.95
   0   3  -8    1.00    0.99
   0  -3  -8    1.72    0.75
   0  -3   8    1.74    0.77
   0  -3   8    1.79    0.89
   0   3   9    3.74    2.37
   0   3  -9    2.51    1.43
   0  -3  -9    2.68    1.02
   0  -3   9    2.55    1.11
   0   4   0  441.98   24.75
   0  -4   0  457.95   24.61
   0   4   1  104.64    6.48
   0   4  -1  107.86    6.38
   0  -4   1  101.18    6.29
   0   4   2  119.44    7.20
   0   4   2  120.46    7.85
   0   4  -2  113.07    7.26
   0   4  -2  116.99    6.90
   0  -4  -2  110.95    6.65
   0  -4   2  118.28    7.01
   0   4   3   19.07    2.23
   0   4   3   17.64    3.02
   0   4  -3   18.79    1.61
   0   4  -3   19.58    2.01
   0  -4   3   14.61    1.84
   0   4  -4  186.98   11.51
   0   4   4  187.23   12.43
   0   4   4  171.58   11.16
   0  -4  -4  202.02   11.14
   0  -4   4  203.77   11.21
   0   4   5   23.19    2.60
   0   4  -5   25.03    2.70
   0   4   5   27.19    4.48
   0  -4   5   24.38    2.65
   0  -4  -5   28.03    2.73
   0  -4  -5   29.54    2.19
   0   4  -6   83.71    5.85
   0   4   6   60.84    6.66
   0   4   6   83.15    5.24
   0  -4   6   78.68    5.21
   0  -4  -6   68.95    4.83
   0   4  -7   55.40    4.98
   0   4   7   54.68    6.38
   0  -4   7   67.19    4.23
   0  -4  -7   63.13    4.24
   0  -4   7   58.03    4.47
   0   4   8   40.42    6.40
   0   4  -8   37.00    3.90
   0  -4   8   40.99    3.13
   0  -4   8   37.99    3.36
   0  -4  -8   32.28    3.35
   0   4  -9   16.40    2.98
   0   4   9   17.22    4.80
   0  -4  -9   15.16    2.11
   0  -4   9   15.95    2.39
   0   5   0    8.82    1.38
   0  -5   0    5.19    1.01
   0   5  -1   14.85    1.76
   0   5   1   13.33    1.80
   0  -5   1   10.78    1.51
   0   5  -2    1.00    0.64
   0   5  -2    1.33    0.64
   0   5   2    1.29    1.47
   0   5   2    0.84    0.55
   0  -5   2    2.38    0.77
   0  -5  -2    1.15    0.52
   0   5   3   17.86    2.30
   0   5   3   16.29    3.02
   0   5  -3   16.54    2.42
   0   5  -3   21.91    1.82
   0  -5  -3   16.54    1.50
   0  -5   3   14.46    1.88
   0   5   4    0.19    0.58
   0   5  -4    0.40    0.54
   0   5   4    2.61    2.00
   0  -5   4    1.11    0.63
   0   5  -5   20.78    2.93
   0   5   5   26.26    4.46
   0   5   5   31.80    2.75
   0  -5   5   23.17    2.69
   0   5   6    1.56    2.50
   0   5  -6    1.87    1.03
   0   5   6    1.79    0.88
   0  -5   6    1.76    0.85
   0  -5  -6    1.43    0.65
   0   5  -7    4.92    1.63
   0   5   7    2.77    2.85
   0  -5  -7    2.41    0.86
   0  -5   7    2.94    1.18
   0   5  -8    1.32    1.19
   0   5   8    1.09    2.98
   0  -5  -8    0.35    0.61
   0  -5   8    1.28    1.04
   0  -5   8    1.98    0.88
   0   6   0   74.94    5.17
   0  -6   0   75.94    4.94
   0   6  -1    9.52    1.58
   0   6   1    7.77    1.54
   0  -6   1    6.53    1.28
   0  -6  -1   11.02    1.50
   0   6  -2  121.13    7.24
   0   6   2  126.75    7.62
   0   6  -2  113.80    7.70
   0  -6  -2  103.95    6.90
   0  -6   2  113.89    7.26
   0   6  -3   65.23    5.21
   0   6  -3   72.41    4.66
   0   6   3   64.71    6.12
   0   6   3   69.16    5.05
   0  -6   3   65.07    4.78
   0   6  -4   28.79    3.72
   0   6   4   31.12    4.65
   0   6   4   28.12    3.29
   0  -6   4   30.48    3.25
   0   6  -5   52.63    4.65
   0   6   5   46.28    5.55
   0   6   5   55.63    4.33
   0  -6   5   46.77    3.99
   0   6  -6   65.45    5.60
   0   6   6   65.07    5.08
   0   6   6   65.58    6.97
   0  -6   6   63.83    4.95
   0  -6  -6   62.17    4.53
   0   6  -7    3.37    1.49
   0   6   7    6.81    3.42
   0   6   7    4.72    1.57
   0  -6   7    4.74    1.50
   0  -6  -7    4.13    1.10
   0   6  -8    4.73    1.86
   0   6   8   10.17    4.18
   0  -6   8   10.15    2.07
   0  -6  -8   10.06    1.79
   0   7   0    4.74    1.29
   0  -7   0    5.38    1.20
   0   7   1    7.16    1.59
   0   7  -1    7.12    1.46
   0  -7   1    7.26    1.37
   0  -7  -1    7.70    1.34
   0   7  -2    6.68    1.35
   0   7   2    7.74    1.63
   0   7  -2    5.80    1.56
   0  -7   2    8.23    1.52
   0   7  -3   16.63    2.90
   0   7   3   14.62    2.40
   0   7  -3   15.92    2.62
   0  -7   3   15.43    2.23
   0   7   4    7.47    1.65
   0   7  -4    4.67    1.53
   0   7   4    8.67    2.84
   0  -7   4    6.39    1.54
   0   7   5   -0.76    1.86
   0   7   5    0.39    0.81
   0   7  -5    1.80    1.27
   0  -7   5    3.52    1.36
   0   7  -6    1.53    1.31
   0   7   6    2.02    2.54
   0   7   6    2.99    1.28
   0  -7   6    3.77    1.42
   0   7   7    7.90    3.48
   0   7   7   10.70    2.29
   0   7  -7   13.21    2.87
   0  -7  -7    8.53    1.63
   0  -7   7    7.77    1.90
   0   8   0    0.11    0.69
   0  -8   0    1.13    0.82
   0   8  -1   12.53    2.28
   0   8  -1   11.02    1.96
   0   8   1   12.43    2.15
   0  -8   1   13.48    2.05
   0  -8  -1    9.14    1.79
   0   8  -2   19.97    2.60
   0   8  -2   20.72    3.00
   0   8   2   17.17    2.62
   0  -8   2   21.02    2.58
   0   8  -3    3.58    1.56
   0   8   3    2.40    1.14
   0  -8   3    3.21    1.14
   0   8   4   20.10    2.95
   0   8  -4   17.38    3.21
   0  -8   4   17.31    2.57
   0   8   5    7.19    1.88
   0   8   5   14.64    3.60
   0   8  -5   11.04    2.64
   0  -8   5    7.39    1.87
   0   8  -6    6.41    2.34
   0   8   6    6.90    3.24
   0   8   6    6.16    1.76
   0  -8   6    5.18    1.88
   0   9   0   12.02    2.06
   0  -9   0   10.42    1.97
   0   9  -1    3.25    1.47
   0   9  -1    3.69    1.34
   0   9   1    2.11    1.13
   0  -9   1    1.40    0.97
   0   9  -2    6.74    1.67
   0   9   2    7.29    1.81
   0   9  -2    6.88    2.04
   0  -9   2    9.34    1.79
   0   9  -3   -0.13    1.03
   0   9   3    1.02    0.97
   0  -9   3    0.67    0.93
   0   9   4    1.70    1.21
   0   9  -4    0.60    1.35
   0  -9   4    1.63    1.21
   0   9  -5    5.21    2.15
   0   9   5    1.22    1.17
   0  -9   5    5.67    1.94
   0  10   0    0.97    0.95
   0  10  -1   -0.30    0.88
   0  10   1    0.14    1.00
   0  10  -1    0.13    1.26
   0  10  -2    0.78    1.50
   0  10   2    0.34    1.12
   0 -10   2    0.60    1.12
   0  10   3    1.09    1.16
   0  10  -3    1.70    1.77
   0 -10   3    2.30    1.30
  -1   0  10   46.69    5.16
   1   0 -10   34.01    3.58
  -1   0   9    2.22    1.19
   1   0  -9   -0.17    0.55
   1   0  -8   37.76    3.45
   1   0  -8   42.76    3.08
  -1   0   8   40.36    3.12
  -1   0   7   -0.21    0.33
   1   0  -7   -0.20    0.54
   1   0  -7   -0.17    0.37
  -1   0   7   -0.11    0.38
  -1   0   6  136.87    8.19
   1   0  -6  136.40    8.50
   1   0  -6  147.19    8.15
  -1   0   5    0.30    0.24
  -1   0   5   -0.05    0.22
   1   0  -5    0.32    0.28
   1   0  -5   -0.17    0.32
  -1   0   5   -0.09    0.27
  -1   0   4   10.77    1.18
  -1   0   4   11.73    0.92
   1   0  -4   11.95    1.01
   1   0  -4   12.64    1.24
  -1   0   3   -0.06    0.14
   1   0  -3    0.30    0.28
   1   0  -3   -0.01    0.11
  -1   0   3    0.03    0.14
  -1   0   3   -0.13    0.17
  -1   0   2   28.83    1.64
  -1   0   2   24.75    1.63
  -1   0   2   26.86    1.71
  -1   0   1    0.49    0.15
   1   0   1    0.46    0.14
   1   0   1    0.22    0.07
   1   0   2  141.99    7.53
  -1   0  -2  139.54    7.58
   1   0   2  130.83    7.49
  -1   0  -2  139.99    7.80
  -1   0  -3    0.25    0.27
   1   0   3    0.16    0.18
  -1   0  -3   -0.06    0.11
   1   0   3    0.00    0.12
  -1   0  -4  201.07   11.13
   1   0   4  197.97   11.02
   1   0   4  198.58   11.07
  -1   0  -4  204.43   11.52
   1   0   5   -0.09    0.26
  -1   0  -5   -0.11    0.33
   1   0   5    0.31    0.27
  -1   0  -5   -0.26    0.17
  -1   0  -6   28.67    2.29
  -1   0  -6   30.14    2.68
   1   0   6   32.27    2.25
   1   0   6   30.34    2.28
  -1   0  -7    0.10    0.33
  -1   0  -7    0.16    0.58
   1   0   7    0.37    0.38
   1   0   7   -0.37    0.42
   1   0   8  127.76    7.74
  -1   0  -8  134.82    8.58
  -1   0  -8  122.38    7.84
  -1   0  -9   -0.55    0.50
  -1   0  -9    0.07    0.82
   1   0   9   -0.32    0.53
  -1   0 -10   69.33    6.15
  -1   0 -10   66.51    5.00
  -1   1  10    6.91    2.31
   1  -1 -10    3.08    1.09
   1   1  -9    6.01    1.66
  -1   1   9    6.22    2.21
  -1  -1   9    6.05    1.33
   1  -1  -9    4.87    1.18
   1   1  -8    6.47    1.21
   1   1  -8   10.25    1.91
  -1   1   8   11.23    2.71
  -1  -1   8    9.90    1.54
   1  -1  -8    6.88    1.20
  -1   1   7    1.22    0.54
   1   1  -7    2.40    0.69
  -1   1   7    2.10    1.32
   1   1  -7    2.31    0.98
   1  -1  -7    1.06    0.72
  -1  -1   7    1.11    0.59
   1  -1  -7    0.71    0.50
  -1  -1   7    1.02    0.64
  -1   1   6   37.16    2.60
   1   1  -6   34.79    2.98
  -1   1   6   36.08    2.58
  -1   1   6   35.66    3.62
   1   1  -6   35.33    2.55
   1  -1  -6   36.82    2.59
  -1  -1   6   38.16    2.63
   1  -1  -6   37.31    2.94
  -1  -1   6   37.71    2.76
   1   1  -5   12.99    1.74
   1   1  -5   14.03    1.35
  -1   1   5   13.41    1.38
  -1   1   5   12.95    1.15
  -1   1   5   14.91    1.42
  -1   1   5   11.48    2.04
   1  -1  -5   11.70    1.56
   1  -1  -5   15.55    1.44
  -1  -1   5   15.88    1.29
  -1  -1   5   12.58    1.43
   1   1  -4   70.25    4.58
  -1   1   4   67.54    4.22
  -1   1   4   75.56    5.10
   1   1  -4   71.24    4.01
   1   1  -4   75.32    4.22
  -1   1   4   70.46    4.22
  -1   1   4   73.88    4.21
   1  -1  -4   68.78    4.20
  -1  -1   4   69.72    4.00
  -1  -1   4   75.14    4.38
   1  -1  -4   75.67    4.44
  -1  -1   4   65.77    4.20
   1   1  -3   41.39    2.47
  -1   1   3   42.72    2.63
  -1   1   3   45.54    2.65
  -1   1   3   42.97    3.23
   1   1  -3   45.11    2.91
   1   1  -3   42.60    2.58
  -1  -1   3   42.64    2.48
   1  -1  -3   46.44    2.63
   1  -1  -3   40.36    2.71
  -1  -1   3   42.85    2.72
  -1   1   2   30.96    2.42
  -1   1   2   28.02    1.85
  -1   1   2   30.96    1.90
   1   1  -2   26.94    2.03
  -1  -1   2   33.70    1.97
  -1  -1   2   31.53    1.87
  -1   1   1   11.95    0.86
  -1  -1   1   11.38    0.83
   1   1   0   36.53    2.21
  -1  -1   0   36.81    2.06
   1   1   1   14.03    0.97
   1  -1   1   11.11    0.96
   1   1   2   42.72    2.41
   1   1   2   40.34    2.70
  -1   1  -2   41.86    2.78
  -1  -1  -2   45.64    2.56
  -1  -1  -2   43.83    2.74
   1  -1   2   44.10    2.63
   1   1   3   86.58    4.95
  -1   1  -3   90.29    5.11
  -1   1  -3   89.64    5.42
   1   1   3   88.49    5.15
  -1  -1  -3   91.82    5.38
  -1  -1  -3   95.51    5.13
   1  -1   3   81.34    5.12
  -1   1  -4   60.61    3.65
   1   1   4   59.45    3.56
   1   1   4   56.46    3.55
  -1   1  -4   59.30    4.01
   1   1   4   60.64    3.51
  -1  -1  -4   58.96    3.65
  -1  -1  -4   61.03    3.96
   1  -1   4   59.48    3.67
   1  -1   4   58.83    3.55
   1   1   5   27.68    1.94
   1   1   5   27.77    1.84
  -1   1  -5   25.81    1.98
  -1   1  -5   28.86    2.45
   1   1   5   27.42    1.88
  -1  -1  -5   26.01    2.30
   1  -1   5   23.29    1.87
  -1  -1  -5   29.41    2.04
   1  -1   5   26.02    2.04
   1   1   6   34.59    2.32
   1   1   6   32.69    2.35
  -1   1  -6   28.31    2.35
  -1   1  -6   29.98    2.81
  -1  -1  -6   32.81    2.46
   1  -1   6   37.20    2.54
  -1  -1  -6   31.01    2.76
   1  -1   6   34.88    2.38
  -1   1  -7    5.42    1.37
  -1   1  -7    6.92    1.14
  -1  -1  -7    6.39    1.15
   1  -1   7    9.26    1.32
  -1  -1  -7    6.93    1.52
   1  -1   7    6.03    0.99
  -1   1  -8   11.81    2.07
   1  -1   8   13.15    1.74
   1  -1   8   13.56    1.66
  -1  -1  -8   10.09    1.55
  -1  -1  -8    9.01    1.89
  -1   1  -9   11.03    2.27
   1   1   9   22.67    3.97
  -1  -1  -9   18.27    2.70
   1  -1   9   17.53    2.13
  -1  -1  -9   14.44    2.00
   1   1  10    3.88    1.69
  -1   1 -10    0.26    1.14
  -1  -1 -10    0.31    0.73
  -1   2   9   14.73    3.44
   1   2  -9   16.33    2.73
  -1  -2   9   19.43    2.44
   1  -2  -9   14.03    1.98
  -1   2   8   84.62    7.14
   1   2  -8   71.82    5.71
  -1  -2   8   68.94    5.15
   1  -2  -8   80.86    5.14
  -1   2   7   20.58    3.54
  -1   2   7   18.03    1.90
   1   2  -7   17.23    2.49
  -1  -2   7   18.83    2.13
   1  -2  -7   21.64    2.14
  -1  -2   7   21.95    2.07
  -1   2   6   13.09    1.68
  -1   2   6   12.48    1.40
   1   2  -6   11.87    1.88
  -1   2   6   13.09    2.85
  -1  -2   6   15.96    1.76
  -1  -2   6   14.63    1.54
   1  -2  -6   12.00    1.43
   1  -2  -6    8.30    1.42
   1   2  -5   12.50    1.76
  -1   2   5   14.08    1.24
  -1   2   5   14.79    1.29
  -1   2   5   13.08    2.40
  -1  -2   5   13.28    1.53
  -1  -2   5   13.76    1.38
   1  -2  -5   13.23    1.57
   1  -2  -5   12.35    1.35
  -1   2   4   77.85    5.66
   1   2  -4   75.35    4.93
   1   2  -4   76.59    4.25
  -1   2   4   75.61    4.56
   1  -2  -4   74.07    4.47
   1  -2  -4   75.48    4.58
  -1  -2   4   70.37    4.61
   1   2  -3   35.27    2.48
   1   2  -3   34.81    1.96
  -1   2   3   23.93    2.83
  -1   2   3   31.61    2.18
  -1  -2   3   28.84    2.13
   1  -2  -3   31.43    2.10
  -1   2   2   35.31    2.37
   1   2  -2   35.59    2.17
   1   2  -2   37.48    2.59
  -1   2   2   35.04    3.07
  -1  -2   2   34.21    2.28
  -1   2   1  171.25    9.48
   1   2  -1  169.55    9.34
  -1   2   1  169.48   10.01
  -1  -2   1  169.78    9.35
   1   2   0   49.56    3.03
  -1   2   0   52.54    3.05
   1  -2   0   46.87    3.00
  -1   2  -1   40.87    2.50
  -1   2  -1   40.85    2.35
   1   2   1   41.55    2.57
  -1  -2  -1   32.62    2.56
   1  -2   1   35.04    2.49
  -1  -2  -1   36.43    2.23
  -1   2  -2   32.35    2.27
   1   2   2   33.04    2.32
   1   2   2   30.78    2.57
   1  -2   2   30.81    2.16
  -1  -2  -2   31.20    2.28
  -1   2  -3   19.43    1.67
   1   2   3   17.23    1.54
   1   2   3   16.01    1.77
   1  -2   3   16.41    1.42
  -1  -2  -3   17.60    1.54
  -1  -2  -3   18.25    1.33
   1   2   4   27.68    2.56
  -1   2  -4   22.63    2.13
   1   2   4   24.93    1.61
   1   2   4   24.32    1.95
   1  -2   4   23.40    1.89
  -1  -2  -4   23.98    1.78
  -1  -2  -4   24.60    2.05
   1   2   5   67.23    5.19
   1   2   5   73.95    4.31
   1   2   5   64.01    3.99
  -1   2  -5   64.13    4.70
  -1  -2  -5   66.92    4.25
  -1  -2  -5   71.35    4.62
   1  -2   5   64.41    4.12
   1  -2   5   71.93    4.40
  -1   2  -6  140.09    8.99
   1   2   6  148.43    9.73
   1  -2   6  140.77    8.26
  -1  -2  -6  150.00    8.45
   1  -2   6  140.61    8.50
  -1  -2  -6  139.71    8.75
  -1   2  -7   12.40    2.12
   1   2   7   12.31    2.63
  -1  -2  -7    8.25    1.30
   1  -2   7   11.65    1.63
   1  -2   7    9.21    1.32
  -1  -2  -7   11.37    1.82
  -1   2  -8   44.15    4.10
   1   2   8   53.11    5.10
   1  -2   8   46.25    3.61
  -1  -2  -8   52.68    3.65
   1  -2   8   46.68    3.43
  -1  -2  -8   41.10    3.79
  -1   2  -9    3.37    1.30
   1   2   9    3.68    1.67
   1  -2   9    2.36    0.91
  -1  -2  -9    1.72    0.72
   1  -2   9    1.20    1.04
   1   3  -9   17.03    2.86
  -1   3   9   10.51    3.59
  -1  -3   9   11.25    1.94
   1  -3  -9   10.33    1.67
  -1   3   8    7.42    3.06
   1   3  -8    5.24    1.58
  -1  -3   8    4.46    1.18
   1  -3  -8    5.49    1.17
  -1   3   7    6.45    2.80
   1   3  -7    7.45    1.71
   1  -3  -7    9.15    1.37
  -1  -3   7    8.18    1.34
  -1  -3   7   11.29    1.68
  -1   3   6    1.72    2.33
   1   3  -6    4.05    1.22
  -1   3   6    3.52    0.84
  -1  -3   6    2.41    0.73
  -1  -3   6    3.26    0.94
   1  -3  -6    2.70    0.70
  -1   3   5    2.64    0.75
  -1   3   5    4.82    2.27
   1   3  -5    3.82    1.13
  -1  -3   5    3.30    0.80
   1  -3  -5    3.57    0.72
   1  -3  -5    4.72    0.99
  -1   3   4   27.97    4.14
  -1   3   4   35.32    2.57
   1   3  -4   33.63    2.23
   1   3  -4   32.26    2.81
   1  -3  -4   36.10    2.58
  -1  -3   4   34.07    2.51
  -1   3   3   15.31    1.75
  -1   3   3   15.52    2.55
   1   3  -3   14.24    1.23
   1   3  -3   17.24    1.74
   1  -3  -3   14.77    1.55
  -1  -3   3   16.28    1.42
  -1   3   2   28.28    2.09
   1   3  -2   26.73    1.85
  -1   3   2   21.23    2.70
  -1  -3   2   25.31    1.89
   1   3  -1   11.37    1.25
  -1   3   1   11.59    2.00
  -1   3   1   11.83    1.39
   1  -3  -1    9.39    1.09
  -1  -3   1   11.49    1.17
  -1   3   0   36.63    2.56
   1   3   0   36.82    2.58
   1  -3   0   36.34    2.50
  -1   3  -1   20.43    1.74
   1   3   1   26.79    1.94
   1   3   1   20.66    2.24
  -1   3  -1   20.68    1.65
   1  -3   1   21.62    1.78
  -1  -3  -1   20.93    1.53
  -1   3  -2    6.74    1.10
   1   3   2    6.16    1.58
   1   3   2    3.65    0.84
  -1   3  -2    6.49    0.84
  -1  -3  -2    8.56    1.31
  -1  -3  -2    6.16    0.67
   1  -3   2    5.68    0.91
  -1   3  -3    2.99    0.50
   1   3   3    1.94    0.63
   1   3   3    1.35    1.29
  -1   3  -3    3.35    0.86
  -1  -3  -3    3.42    0.97
   1  -3   3    2.67    0.69
  -1   3  -4   42.89    3.33
   1   3   4   42.24    4.02
   1   3   4   41.87    3.15
  -1  -3  -4   45.60    3.30
  -1  -3  -4   44.27    2.88
   1  -3   4   41.73    3.05
  -1   3  -5   37.10    3.16
   1   3   5   43.40    4.12
   1   3   5   37.25    2.85
  -1  -3  -5   33.71    2.95
  -1  -3  -5   33.29    2.54
   1  -3   5   36.20    2.77
   1   3   6    4.90    1.04
   1   3   6    4.33    2.03
  -1   3  -6    3.21    1.09
  -1  -3  -6    4.44    0.89
   1  -3   6    5.36    0.91
   1  -3   6    6.17    1.17
  -1  -3  -6    5.03    1.26
   1   3   7   31.73    4.55
  -1   3  -7   21.10    2.92
   1  -3   7   24.84    2.32
  -1  -3  -7   21.18    2.35
   1  -3   7   22.76    2.55
  -1  -3  -7   25.20    2.53
   1   3   8    9.71    2.76
  -1   3  -8    9.68    2.16
   1  -3   8    4.62    1.20
   1  -3   8    6.44    1.22
  -1  -3  -8    8.21    1.35
   1   3   9    2.52    1.95
  -1   3  -9   -0.13    0.84
   1  -3   9   -0.04    0.68
  -1  -3  -9    0.03    0.65
   1  -3   9    0.79    0.92
   1   4  -9    8.34    2.17
  -1   4   9   12.54    4.30
  -1  -4   9    6.68    1.68
   1  -4  -9    8.82    1.58
  -1   4   8   14.45    4.13
   1   4  -8   19.89    3.06
   1  -4  -8   14.08    1.96
  -1  -4   8   15.43    2.23
  -1   4   7   19.11    4.30
   1   4  -7   31.90    3.84
  -1  -4   7   26.95    2.87
   1  -4  -7   26.27    2.62
  -1  -4   7   26.30    2.51
  -1   4   6   29.58    2.62
   1   4  -6   34.42    3.20
  -1   4   6   35.68    5.41
  -1  -4   6   25.67    2.82
   1  -4  -6   28.16    2.37
  -1   4   5  161.75   11.44
   1   4  -5  153.95   10.05
  -1   4   5  160.81    9.61
  -1  -4   5  162.29    9.57
  -1   4   4   25.25    2.33
   1   4  -4   25.83    2.61
  -1   4   4   32.46    4.25
   1  -4  -4   26.51    2.58
  -1  -4   4   27.13    2.26
  -1   4   3  105.12    7.61
  -1   4   3  101.15    6.64
   1   4  -3  107.23    6.95
   1   4  -3  107.07    6.36
  -1  -4   3  109.65    6.52
   1   4  -2   25.90    2.11
  -1   4   2   27.05    2.30
  -1   4   2   24.22    2.94
  -1  -4   2   28.00    2.13
  -1   4   1   65.07    4.46
   1   4  -1   71.13    4.42
  -1  -4   1   66.16    4.23
   1  -4  -1   67.02    4.19
  -1   4   0   36.95    2.71
   1   4   0   32.32    2.65
  -1  -4   0   37.63    2.50
   1  -4   0   34.59    2.60
  -1   4  -1  250.22   14.31
  -1   4  -1  238.84   14.13
   1   4   1  265.72   14.40
   1  -4   1  242.69   14.19
  -1  -4  -1  262.71   13.96
   1   4   2   25.86    3.06
  -1   4  -2   18.36    1.85
   1   4   2   23.01    2.32
  -1   4  -2   16.72    1.58
   1  -4   2   15.98    1.85
  -1  -4  -2   17.09    1.41
   1   4   3  108.71    6.84
  -1   4  -3  102.71    6.30
   1   4   3  115.55    7.70
  -1   4  -3  108.03    6.92
   1  -4   3  114.78    6.74
  -1  -4  -3  105.09    6.14
   1   4   4   45.35    5.04
  -1   4  -4   53.05    4.17
   1   4   4   56.23    4.06
   1  -4   4   58.26    3.97
  -1  -4  -4   63.13    4.23
   1   4   5   23.51    4.08
   1   4   5   28.17    2.93
  -1   4  -5   25.12    3.14
  -1  -4  -5   26.16    2.14
   1  -4   5   27.72    2.45
  -1  -4  -5   29.90    2.90
   1   4   6   35.11    5.07
   1   4   6   42.03    3.19
  -1   4  -6   32.67    3.33
  -1  -4  -6   33.47    2.66
  -1  -4  -6   33.04    3.18
   1  -4   6   31.82    2.85
   1   4   7   51.96    6.18
  -1   4  -7   56.88    4.84
   1  -4   7   57.79    4.31
  -1  -4  -7   57.88    4.07
   1  -4   7   55.79    3.89
   1   4   8   37.97    6.29
  -1   4  -8   38.71    3.99
   1  -4   8   35.71    3.00
  -1  -4  -8   39.77    3.20
   1  -4   8   37.50    3.40
  -1   4  -9   33.94    4.41
   1   4   9   33.54    6.18
  -1  -4  -9   30.22    3.20
   1  -4   9   34.38    3.26
   1  -4   9   30.62    3.49
   1   5  -8    1.77    1.30
  -1   5   8    3.43    3.09
  -1  -5   8    0.28    0.77
   1  -5  -8    0.78    0.67
  -1   5   7    7.89    1.85
   1   5  -7   10.01    2.29
  -1   5   7   10.32    3.84
   1  -5  -7   10.34    1.53
  -1  -5   7    5.34    1.36
  -1   5   6    8.47    1.63
  -1   5   6    5.06    2.73
   1   5  -6    7.39    1.79
   1  -5  -6    6.49    1.21
  -1  -5   6    7.77    1.50
  -1   5   5   29.72    3.14
   1   5  -5   22.76    3.13
  -1   5   5   28.67    4.79
  -1  -5   5   29.27    3.01
  -1   5   4    4.54    1.24
   1   5  -4    3.79    1.22
  -1   5   4    3.65    2.31
  -1  -5   4    4.19    1.04
  -1   5   3   27.40    3.95
   1   5  -3   22.11    2.05
   1   5  -3   22.93    2.90
  -1   5   3   19.77    2.47
  -1  -5   3   25.09    2.19
   1   5  -2   15.68    1.89
  -1   5   2   13.59    1.89
  -1  -5   2   15.12    1.81
   1   5  -1   24.01    2.20
  -1   5   1   24.39    2.27
  -1  -5   1   25.86    2.11
   1  -5  -1   22.60    2.01
   1   5   0    6.59    1.24
  -1   5   0    4.03    1.01
  -1  -5   0    5.32    0.97
   1  -5   0    6.11    1.14
  -1   5  -1   15.53    1.97
  -1   5  -1   14.98    1.83
   1   5   1   15.28    1.94
   1  -5   1   13.95    1.82
  -1  -5  -1   18.04    1.74
   1   5   2   34.14    3.57
  -1   5  -2   29.19    2.35
  -1   5  -2   28.63    2.64
   1   5   2   27.10    2.50
  -1  -5  -2   24.13    2.08
   1  -5   2   30.84    2.53
   1   5   3   60.83    4.23
  -1   5  -3   53.54    3.72
   1   5   3   57.42    5.12
  -1   5  -3   54.01    4.26
   1  -5   3   54.34    4.00
   1   5   4    9.60    2.83
  -1   5  -4    7.96    1.62
   1   5   4    2.53    1.00
   1  -5   4    6.38    1.22
  -1   5  -5   15.80    2.46
   1   5   5   14.79    2.14
   1   5   5   16.17    3.61
  -1  -5  -5   13.36    1.69
  -1  -5  -5   12.43    2.30
   1  -5   5   13.82    2.05
   1   5   6   14.45    3.57
  -1   5  -6   11.55    2.24
   1   5   6   14.39    2.17
  -1  -5  -6   19.03    2.06
   1  -5   6   15.17    2.13
   1   5   7    4.52    2.99
  -1   5  -7    6.95    1.98
   1  -5   7    7.87    1.58
  -1  -5  -7   10.43    1.52
   1   5   8    0.15    2.51
  -1   5  -8    1.31    1.18
  -1  -5  -8    3.34    1.08
   1  -5   8    2.37    0.92
   1  -5   8    2.58    1.20
  -1   6   8    9.18    3.94
   1   6  -8   11.87    2.70
  -1  -6   8   10.42    2.11
   1  -6  -8   11.62    1.83
  -1   6   7   85.49    6.31
   1   6  -7   91.85    7.16
  -1   6   7   97.57    8.90
   1  -6  -7   81.20    5.79
  -1  -6   7   77.11    6.19
  -1   6   6   23.94    3.07
  -1   6   6   23.20    4.70
   1   6  -6   17.99    3.04
  -1  -6   6   24.70    3.01
  -1   6   5   61.08    6.25
   1   6  -5   54.24    5.00
  -1   6   5   60.29    4.69
  -1  -6   5   59.72    4.56
  -1   6   4   16.93    3.65
  -1   6   4    7.20    1.64
   1   6  -4   14.29    2.42
  -1  -6   4   11.45    1.84
  -1   6   3  120.66    9.38
   1   6  -3  129.43    8.60
   1   6  -3  128.32    7.85
  -1   6   3  127.00    8.24
   1  -6  -3  126.86    7.59
  -1  -6   3  127.93    8.00
  -1   6   2   43.71    3.57
   1   6  -2   44.52    3.38
  -1  -6   2   42.67    3.29
   1  -6  -2   40.22    3.10
  -1   6   1  269.68   15.42
   1   6  -1  261.86   15.24
   1  -6  -1  263.86   15.03
  -1  -6   1  261.79   15.06
   1   6   0   32.57    2.83
  -1   6   0   29.97    2.78
  -1  -6   0   33.93    2.58
   1  -6   0   29.85    2.62
  -1   6  -1   91.70    6.27
  -1   6  -1   94.72    6.11
   1   6   1   90.06    6.18
   1  -6   1   96.49    6.05
  -1  -6  -1   91.97    5.74
  -1   6  -2   30.56    2.47
  -1   6  -2   25.06    2.65
   1   6   2   23.52    2.76
  -1  -6  -2   23.93    2.08
   1  -6   2   22.57    2.51
  -1   6  -3  107.90    7.71
   1   6   3  118.38    7.59
   1   6   3  116.48    8.67
  -1   6  -3  116.72    7.14
   1  -6   3  119.59    7.49
   1   6   4   53.01    5.33
  -1   6  -4   47.83    4.29
   1   6   4   48.01    4.06
   1  -6   4   49.35    3.94
   1   6   5  119.33    9.26
  -1   6  -5  118.82    8.28
   1   6   5  117.03    7.85
   1  -6   5  111.80    7.69
   1   6   6    7.62    1.81
  -1   6  -6   12.13    2.39
   1   6   6   11.61    3.52
   1  -6   6    9.98    1.89
  -1  -6  -6   12.73    1.81
   1   6   7   23.57    5.11
   1   6   7   28.47    4.43
  -1   6  -7   27.11    4.07
  -1  -6  -7   26.46    2.81
   1  -6   7   26.00    3.19
   1   6   8    9.08    4.01
  -1   6  -8   14.66    3.02
  -1  -6  -8   11.23    1.89
   1  -6   8   11.37    2.23
   1  -6   8   11.02    1.71
  -1   7   7    5.79    1.84
   1   7  -7    4.28    1.75
  -1   7   7    6.45    3.28
  -1  -7   7    5.62    1.62
   1  -7  -7    5.80    1.37
  -1   7   6    7.69    1.96
  -1   7   6   10.51    3.65
   1   7  -6    7.19    2.12
  -1  -7   6    8.17    1.85
  -1   7   5    4.79    1.43
  -1   7   5    6.81    2.86
   1   7  -5    1.69    1.13
  -1  -7   5    2.85    1.26
   1   7  -4    5.58    1.79
  -1   7   4    4.95    1.56
  -1   7   4    5.27    2.73
  -1  -7   4    5.58    1.53
   1   7  -3   24.67    3.44
   1   7  -3   22.00    2.56
  -1   7   3   16.36    2.51
  -1  -7   3   23.30    2.78
   1   7  -2    0.12    0.62
   1   7  -2    1.09    0.87
  -1   7   2    0.66    0.80
  -1  -7   2    1.21    0.75
   1  -7  -2    0.73    0.74
   1   7  -1    3.92    1.12
  -1   7   1    4.18    1.19
  -1  -7   1    3.74    1.07
   1  -7  -1    3.18    0.95
  -1   7   0   35.26    3.07
   1   7   0   37.11    3.12
  -1  -7   0   32.89    2.79
   1  -7   0   30.89    2.81
  -1   7  -1    9.73    1.71
   1   7   1   12.49    1.94
  -1   7  -1    9.16    1.86
   1  -7   1    9.15    1.63
  -1  -7  -1   12.31    1.65
  -1   7  -2   15.65    2.45
   1   7   2   21.64    2.64
  -1   7  -2   15.99    2.15
   1  -7   2   20.36    2.51
  -1   7  -3    5.90    1.62
   1   7   3    8.86    1.82
   1  -7   3    8.69    1.63
   1   7   4    1.91    2.15
  -1   7  -4   -0.03    0.91
   1   7   4    1.99    1.00
   1  -7   4    2.67    1.12
   1   7   5    6.88    2.78
   1   7   5    8.32    1.79
  -1   7  -5    8.90    2.30
   1  -7   5   10.15    1.97
  -1   7  -6    3.53    1.70
   1   7   6   10.59    3.52
   1   7   6    8.16    1.91
  -1  -7  -6    7.16    1.47
   1  -7   6    6.93    1.73
  -1   7  -7    2.96    1.69
   1   7   7    4.96    1.80
   1   7   7    3.72    2.87
   1  -7   7    3.72    1.52
  -1  -7  -7    3.18    1.08
   1   8  -6   18.25    3.53
  -1   8   6   17.13    4.35
  -1   8   6   19.89    3.12
  -1  -8   6   16.56    2.88
   1   8  -5   76.88    6.58
  -1   8   5   70.77    5.86
  -1  -8   5   74.89    5.80
   1   8  -4   70.38    6.17
  -1   8   4   77.97    5.87
  -1  -8   4   69.92    5.55
   1   8  -3   85.71    6.72
  -1   8   3   83.71    6.23
  -1  -8   3   80.28    5.95
   1   8  -2   22.36    2.71
  -1   8   2   19.95    2.83
   1   8  -2   20.64    3.16
  -1  -8   2   17.83    2.51
  -1   8   1   61.78    4.85
   1   8  -1   63.25    4.79
   1  -8  -1   56.59    4.43
  -1  -8   1   68.12    4.67
   1   8   0   48.13    4.05
  -1   8   0   52.78    4.19
  -1   8   0   55.82    4.39
   1  -8   0   41.87    3.74
  -1  -8   0   53.68    3.94
  -1   8  -1  125.76    8.39
   1   8   1  124.96    8.15
  -1   8  -1  122.67    7.99
   1  -8   1  115.31    7.78
  -1   8  -2   89.84    6.03
  -1   8  -2   90.47    6.59
   1   8   2   79.84    6.12
   1  -8   2   80.79    5.94
  -1   8  -3   56.72    4.97
   1   8   3   51.26    4.48
   1  -8   3   51.05    4.31
  -1   8  -4   13.75    2.76
   1   8   4    7.05    1.76
   1  -8   4   12.86    2.22
   1   8   5   43.84    6.11
  -1   8  -5   36.30    4.70
   1   8   5   38.42    4.26
   1  -8   5   28.56    3.67
   1   8   6   11.51    3.91
  -1   8  -6   17.34    3.41
   1   8   6   17.07    2.87
  -1  -8  -6   10.97    1.95
   1  -8   6   20.26    2.98
   1   9  -5    5.05    2.15
  -1   9   5    4.91    1.83
  -1  -9   5    5.65    1.89
   1   9  -4    3.68    1.84
  -1   9   4    4.98    1.56
  -1  -9   4    3.65    1.49
  -1   9   3    0.53    0.95
   1   9  -3    2.26    1.52
  -1  -9   3    2.95    1.32
  -1   9   2   20.57    2.96
   1   9  -2   17.44    3.19
   1   9  -2   20.28    2.76
  -1  -9   2   17.41    2.48
   1   9  -1    2.51    1.36
   1   9  -1    3.86    1.30
  -1   9   1    2.15    1.09
  -1  -9   1    3.42    1.22
   1   9   0    0.73    0.96
  -1   9   0    1.62    1.04
   1  -9   0    1.29    0.96
  -1   9  -1    0.50    0.88
  -1   9  -1    0.76    1.13
   1   9   1    0.98    1.00
   1  -9   1    0.53    0.82
  -1   9  -2   13.03    2.18
   1   9   2   10.67    2.13
  -1   9  -2   13.32    2.66
   1  -9   2   13.31    2.18
   1   9   3   -0.08    0.94
  -1   9  -3    0.70    1.35
   1  -9   3   -0.18    1.04
  -1   9  -4   14.55    2.96
   1   9   4   17.48    2.86
   1  -9   4    9.70    2.10
   1   9   5   -0.04    0.98
  -1   9  -5    3.10    1.86
   1  -9   5   -0.84    1.45
   1  10  -3   49.95    5.88
  -1  10   3   44.97    4.99
  -1 -10   3   55.20    4.73
  -1  10   2   85.42    6.56
   1  10  -2   76.54    6.79
   1  10  -2   85.66    7.08
  -1 -10   2   85.13    6.20
   1  10  -1   68.45    5.75
  -1  10   1   53.85    4.96
   1  10  -1   54.93    4.89
  -1  10   0   53.90    4.63
   1  10   0   48.37    4.50
   1  10   1   51.62    4.65
  -1  10  -1   59.78    4.80
   1 -10   1   49.50    4.38
   1  10   2   27.17    3.50
  -1  10  -2   21.29    3.48
   1 -10   2   22.33    2.94
  -1  10  -3   49.69    5.19
   1  10   3   47.07    5.08
   1 -10   3   47.22    4.73
  -2   0  10   73.00    6.94
   2   0  -9    0.07    0.64
  -2   0   9   -0.13    0.67
  -2   0   9    1.25    1.07
  -2   0   8  106.13    6.69
   2   0  -8  101.82    6.55
  -2   0   8  110.74    8.18
   2   0  -7   -0.41    0.54
  -2   0   7    0.19    0.42
   2   0  -7    0.56    0.46
  -2   0   6  126.49    7.76
   2   0  -6  132.78    8.05
   2   0  -6  134.07    7.63
  -2   0   5    0.14    0.25
  -2   0   5    0.19    0.31
   2   0  -5    0.13    0.34
  -2   0   5   -0.08    0.25
   2   0  -5    0.22    0.25
  -2   0   4  379.83   19.82
  -2   0   4  354.00   19.99
   2   0  -4  365.33   20.12
   2   0  -4  368.79   19.83
  -2   0   4  362.42   19.87
   2   0  -3    0.05    0.23
  -2   0   3    0.00    0.19
  -2   0   3   -0.06    0.13
  -2   0   3   -0.04    0.16
   2   0  -3   -0.09    0.10
  -2   0   2  938.28   50.83
  -2   0   2  965.41   50.77
  -2   0   1   -0.15    0.13
  -2   0   1   -0.13    0.10
  -2   0   0  229.75   12.37
   2   0   1    0.12    0.12
  -2   0  -1    0.11    0.13
   2   0   1    0.09    0.05
  -2   0  -1   -0.14    0.18
   2   0   1   -0.06    0.16
   2   0   2  991.16   50.48
  -2   0  -2  926.80   50.79
  -2   0  -2  936.20   50.55
   2   0   2  934.59   50.40
   2   0   3    0.02    0.16
   2   0   3    0.19    0.26
  -2   0  -3   -0.09    0.22
   2   0   3   -0.13    0.09
  -2   0  -3    0.06    0.15
   2   0   4  322.82   17.91
   2   0   4  342.17   17.98
  -2   0  -4  315.66   18.45
   2   0   4  327.17   17.81
  -2   0  -4  347.16   18.13
   2   0   5   -0.08    0.29
  -2   0  -5   -0.08    0.19
   2   0   5   -0.09    0.22
  -2   0  -5    0.24    0.46
   2   0   6  126.49    7.09
  -2   0  -6  123.62    7.22
   2   0   6  111.94    6.97
  -2   0  -6  119.83    7.73
  -2   0  -7   -0.16    0.50
   2   0   7   -0.40    0.28
  -2   0  -7   -0.07    0.36
   2   0   8   52.17    3.51
  -2   0  -8   45.02    4.11
  -2   0  -8   48.17    3.60
  -2   0  -9    0.18    0.84
  -2   0  -9   -0.21    0.58
   2   0   9    0.66    0.62
  -2   0 -10   38.28    4.09
  -2   1   9   11.36    2.84
   2  -1  -9   12.20    1.82
  -2  -1   9   15.17    2.10
   2   1  -8    5.74    1.52
  -2   1   8    5.04    1.74
  -2   1   8    7.02    1.26
   2   1  -8    5.40    1.08
   2  -1  -8    6.48    1.16
  -2  -1   8    3.28    0.98
   2   1  -7   41.44    3.38
  -2   1   7   41.44    4.20
  -2   1   7   36.16    2.82
   2   1  -7   40.18    2.79
   2  -1  -7   35.18    2.74
  -2  -1   7   33.81    2.87
  -2   1   6   20.99    3.16
   2   1  -6   18.46    2.27
   2   1  -6   16.25    1.61
  -2   1   6   16.55    1.75
  -2  -1   6   17.04    1.72
  -2  -1   6   17.80    1.87
   2  -1  -6   17.10    1.49
   2  -1  -6   16.37    1.74
  -2   1   5   43.63    2.84
   2   1  -5   40.76    2.78
  -2   1   5   43.83    3.85
  -2   1   5   41.10    2.91
   2   1  -5   40.66    3.21
  -2   1   5   43.43    2.88
   2  -1  -5   47.68    2.89
   2  -1  -5   45.03    3.07
  -2  -1   5   46.78    2.95
  -2  -1   5   47.34    3.10
  -2  -1   5   43.03    2.83
   2   1  -4   53.81    3.20
  -2   1   4   54.94    3.33
   2   1  -4   56.60    3.27
   2   1  -4   54.28    3.64
  -2   1   4   58.40    4.23
  -2   1   4   48.48    3.34
  -2   1   4   55.75    3.36
   2  -1  -4   54.89    3.29
  -2  -1   4   52.54    3.19
   2  -1  -4   57.62    3.49
  -2  -1   4   54.90    3.36
  -2  -1   4   50.02    3.44
   2   1  -3   50.46    3.25
   2   1  -3   49.30    2.91
  -2   1   3   47.79    3.03
  -2   1   3   51.60    3.05
   2   1  -3   51.13    2.89
  -2   1   3   49.72    3.72
  -2  -1   3   45.60    3.08
   2  -1  -3   52.09    3.02
  -2  -1   3   48.52    2.99
   2  -1  -3   49.30    2.93
  -2  -1   3   47.04    2.90
  -2   1   2   13.69    2.01
  -2   1   2   17.35    1.25
   2   1  -2   19.32    1.20
  -2  -1   2   15.87    1.24
  -2  -1   2   17.37    1.17
  -2   1   1  163.12    8.66
   2   1  -1  148.21    8.59
  -2  -1   1  157.06    8.60
  -2  -1   1  160.92    8.61
   2   1   0   44.54    2.58
  -2   1   0   42.80    2.54
  -2  -1   0   43.18    2.45
   2   1   1   72.37    3.88
   2  -1   1   64.04    3.95
  -2  -1  -1   65.35    4.09
   2   1   2   55.59    3.36
   2   1   2   57.23    3.10
  -2  -1  -2   53.50    3.55
  -2  -1  -2   57.47    3.31
   2  -1   2   59.91    3.44
   2   1   3    2.14    0.53
   2   1   3    1.67    0.28
  -2   1  -3    1.99    0.59
   2  -1   3    2.35    0.48
  -2  -1  -3    1.14    0.33
  -2  -1  -3    0.92    0.46
   2   1   4   16.51    1.43
   2   1   4   16.38    1.20
  -2   1  -4   16.95    1.38
  -2   1  -4   16.64    1.71
  -2  -1  -4   17.46    1.38
   2  -1   4   16.05    1.25
  -2  -1  -4   19.34    1.76
   2  -1   4   17.46    1.42
   2   1   5   71.40    4.36
  -2   1  -5   71.89    4.51
   2   1   5   75.05    4.38
   2   1   5   72.14    4.28
  -2   1  -5   70.25    4.93
   2  -1   5   70.53    4.47
   2  -1   5   72.24    4.34
  -2  -1  -5   74.61    4.97
  -2  -1  -5   75.41    4.55
  -2   1  -6   10.26    1.70
  -2   1  -6    7.09    1.13
   2  -1   6    7.89    1.17
   2  -1   6    7.91    1.03
  -2  -1  -6    8.42    1.60
  -2  -1  -6   11.11    1.33
  -2   1  -7   22.54    2.84
  -2   1  -7   24.71    2.15
  -2  -1  -7   26.89    2.55
   2  -1   7   25.61    2.04
   2  -1   7   25.72    2.17
  -2  -1  -7   24.36    2.60
  -2   1  -8   10.99    2.08
  -2  -1  -8   13.08    2.25
  -2  -1  -8   13.22    1.79
   2  -1   8   13.44    1.64
  -2   1  -9    8.05    1.96
  -2  -1  -9   10.19    1.64
   2  -1   9    6.88    1.32
  -2  -1  -9    9.88    2.03
   2   2  -9    6.20    1.84
  -2   2   9    9.01    3.34
   2  -2  -9    6.71    1.35
  -2  -2   9    5.74    1.35
  -2   2   8   79.18    7.23
   2   2  -8   76.55    5.70
   2  -2  -8   78.04    5.03
  -2  -2   8   67.41    5.07
  -2   2   7   15.95    3.42
   2   2  -7   11.86    2.00
  -2   2   7   12.91    1.64
   2  -2  -7   15.03    1.71
  -2  -2   7   14.49    1.84
  -2   2   6  168.16    9.85
   2   2  -6  173.63   10.52
  -2   2   6  161.79    9.78
  -2   2   6  173.78   11.68
  -2  -2   6  169.15   10.07
   2  -2  -6  179.51    9.88
  -2  -2   6  178.49    9.92
  -2   2   5    8.21    2.38
  -2   2   5    9.59    1.19
   2   2  -5   10.65    1.66
  -2  -2   5    9.26    1.25
   2  -2  -5    8.71    1.07
  -2  -2   5   10.61    1.21
   2  -2  -5    9.21    1.24
   2   2  -4  284.19   15.92
  -2   2   4  239.36   16.58
   2   2  -4  298.49   15.27
  -2   2   4  284.67   15.51
  -2  -2   4  267.75   15.53
   2  -2  -4  279.51   15.36
   2  -2  -4  288.96   15.39
  -2  -2   4  295.23   15.43
  -2   2   3    1.71    0.43
  -2   2   3    3.21    1.57
   2   2  -3    2.04    0.67
   2   2  -3    1.73    0.39
  -2  -2   3    2.61    0.56
   2   2  -2  170.62    9.21
  -2   2   2  166.39    9.33
  -2   2   2  159.43   10.04
  -2  -2   2  169.01    9.30
   2   2  -1   16.17    1.25
  -2   2   1   17.65    1.32
  -2   2   1   17.60    2.24
  -2  -2   1   18.22    1.25
  -2   2   0 1000.00   51.71
   2   2   0  955.71   51.73
   2  -2   0  981.76   51.78
  -2  -2   0  934.28   51.53
  -2   2  -1   66.99    3.60
   2   2   1   64.56    3.75
  -2   2  -1   70.27    3.79
   2  -2   1   58.47    3.81
  -2  -2  -1   53.99    3.91
  -2  -2  -1   57.19    3.38
  -2   2  -2  116.02    6.43
  -2   2  -2  119.79    6.88
   2   2   2  124.83    6.84
   2   2   2  120.35    7.00
   2  -2   2  104.62    6.76
  -2  -2  -2  122.33    6.96
  -2  -2  -2  111.61    6.53
   2   2   3   21.99    1.86
   2   2   3   21.28    2.05
  -2   2  -3   22.59    1.93
  -2  -2  -3   22.99    1.59
  -2  -2  -3   21.37    1.89
   2  -2   3   22.38    1.75
   2   2   4  265.88   14.10
   2   2   4  246.73   14.63
  -2   2  -4  251.30   14.88
   2  -2   4  268.43   14.58
  -2  -2  -4  261.54   14.83
  -2  -2  -4  272.31   14.46
   2   2   5    1.68    0.65
  -2   2  -5    1.77    0.78
   2  -2   5    2.15    0.63
  -2  -2  -5    1.50    0.48
   2  -2   5    1.42    0.40
  -2  -2  -5    1.92    0.77
  -2   2  -6  126.23    8.57
   2  -2   6  142.26    8.11
   2  -2   6  133.57    7.81
  -2  -2  -6  140.27    8.54
  -2  -2  -6  132.79    7.99
  -2   2  -7   19.24    2.67
   2   2   7   30.73    4.10
   2  -2   7   20.76    2.28
  -2  -2  -7   16.26    2.42
   2  -2   7   25.35    1.99
  -2  -2  -7   25.26    2.43
   2   2   8   38.74    4.40
  -2   2  -8   39.33    3.85
  -2  -2  -8   42.16    3.28
  -2  -2  -8   45.80    3.82
   2  -2   8   42.47    3.12
   2  -2   8   37.06    3.24
   2   2   9    9.20    2.51
  -2   2  -9    8.24    1.98
  -2  -2  -9   11.84    1.81
   2  -2   9   13.90    1.82
  -2  -2  -9   10.92    2.15
  -2   3   9   11.51    3.97
   2   3  -9    8.64    2.14
  -2  -3   9   10.66    1.89
   2  -3  -9    9.31    1.56
  -2   3   8   10.57    3.49
   2   3  -8    8.31    1.91
   2  -3  -8    9.69    1.51
  -2  -3   8   10.24    1.68
  -2   3   7    6.81    2.88
   2   3  -7    6.02    1.63
   2  -3  -7    6.84    1.17
  -2  -3   7    6.56    1.29
  -2   3   6    1.02    0.56
   2   3  -6    1.88    0.90
  -2   3   6   -0.24    2.07
  -2  -3   6    1.55    0.65
   2  -3  -6    1.69    0.59
  -2  -3   6   -0.11    0.40
   2   3  -5   89.44    6.03
  -2   3   5   87.40    5.48
  -2   3   5   73.97    7.18
  -2  -3   5   93.00    5.61
   2  -3  -5   91.33    5.35
   2   3  -4    7.04    1.36
  -2   3   4    6.25    2.25
  -2   3   4    5.36    0.98
   2   3  -4    6.78    0.86
  -2  -3   4    6.38    1.06
   2  -3  -4    6.93    1.04
   2   3  -3   42.01    2.53
  -2   3   3   35.76    3.70
  -2   3   3   39.62    2.74
   2   3  -3   36.20    3.02
  -2  -3   3   34.43    2.59
  -2   3   2   43.67    3.00
  -2   3   2   40.83    3.83
   2   3  -2   45.79    2.84
  -2  -3   2   44.24    2.87
   2   3  -1    3.40    0.59
  -2   3   1    2.72    0.59
  -2  -3   1    2.06    0.49
   2   3   0    8.87    1.11
  -2   3   0   10.15    1.01
  -2   3   0   11.76    1.30
   2  -3   0   11.44    1.25
  -2  -3   0   10.61    0.89
  -2   3  -1   55.04    3.47
  -2   3  -1   54.51    3.33
   2   3   1   53.16    3.51
   2   3   1   53.60    3.78
   2  -3   1   51.33    3.54
  -2  -3  -1   52.48    3.11
  -2   3  -2    4.36    0.63
   2   3   2    5.56    0.98
  -2   3  -2    4.41    0.84
   2   3   2    3.72    1.41
  -2  -3  -2    4.72    0.53
  -2  -3  -2    4.87    1.19
   2  -3   2    3.55    0.82
   2   3   3   31.78    3.30
  -2   3  -3   40.02    2.32
  -2   3  -3   36.79    2.89
   2   3   3   36.73    2.87
  -2  -3  -3   38.37    2.51
  -2  -3  -3   40.36    3.07
   2  -3   3   38.65    2.78
   2   3   4   40.68    3.56
   2   3   4   39.07    2.93
  -2   3  -4   33.91    2.93
  -2  -3  -4   35.20    3.06
  -2  -3  -4   35.84    2.52
   2  -3   4   36.52    2.77
   2   3   5    6.27    1.16
   2   3   5    7.08    1.96
  -2   3  -5    4.69    1.18
  -2  -3  -5    4.90    1.31
   2  -3   5    6.21    1.08
  -2  -3  -5    4.69    0.89
  -2   3  -6   16.66    2.43
   2   3   6   24.37    3.56
  -2  -3  -6   15.68    1.83
  -2  -3  -6   18.75    2.37
   2  -3   6   14.61    1.61
   2  -3   6   19.50    2.14
   2   3   7    8.54    2.24
  -2   3  -7    7.23    1.72
   2  -3   7    9.46    1.57
   2  -3   7   10.47    1.38
  -2  -3  -7   11.12    1.51
  -2  -3  -7   11.82    1.96
  -2   3  -8    0.80    0.93
   2   3   8    1.45    1.25
  -2  -3  -8    0.15    0.44
   2  -3   8    0.25    0.70
  -2  -3  -8    1.13    0.89
   2  -3   8   -0.09    0.50
   2   3   9   37.36    5.59
  -2   3  -9   28.04    4.03
   2  -3   9   35.34    3.49
   2  -3   9   30.30    3.01
  -2  -3  -9   35.15    3.50
  -2   4   9   27.16    5.82
   2   4  -9   25.89    3.73
  -2  -4   9   24.29    3.03
   2  -4  -9   21.77    2.62
  -2   4   8   34.99    6.14
   2   4  -8   42.96    4.17
  -2  -4   8   36.61    3.34
   2  -4  -8   38.47    3.17
  -2   4   7   -1.46    2.45
   2   4  -7   -0.06    0.73
  -2  -4   7    0.14    0.48
   2  -4  -7   -0.56    0.42
   2   4  -6  111.02    7.68
  -2   4   6  116.97    9.36
  -2   4   6  110.14    7.00
   2  -4  -6  108.28    6.75
  -2  -4   6  109.34    7.06
  -2   4   5   36.81    2.91
   2   4  -5   36.58    3.36
  -2   4   5   36.58    5.15
  -2  -4   5   33.14    2.84
   2   4  -4   95.44    5.50
  -2   4   4   92.51    5.85
  -2   4   4   87.92    7.12
   2   4  -4   78.55    6.10
  -2  -4   4   95.49    5.75
  -2   4   3   74.01    5.97
   2   4  -3   67.20    4.47
   2   4  -3   71.30    5.15
  -2   4   3   76.68    4.86
  -2  -4   3   73.22    4.63
  -2   4   2  375.87   21.22
  -2   4   2  380.86   22.19
   2   4  -2  376.91   20.98
  -2  -4   2  392.60   21.00
  -2   4   1   46.01    3.34
   2   4  -1   45.24    3.22
  -2  -4   1   48.22    3.11
   2  -4  -1   48.82    3.19
  -2   4   0  118.94    7.17
  -2   4   0  118.52    7.26
   2   4   0  128.56    7.35
  -2  -4   0  116.33    6.95
   2  -4   0  127.61    7.28
   2   4   1    3.35    1.27
   2   4   1    4.40    0.94
  -2   4  -1    2.33    0.62
  -2   4  -1    3.62    0.80
   2  -4   1    3.96    0.94
  -2  -4  -1    1.86    0.48
  -2   4  -2  316.09   16.95
   2   4   2  311.60   17.37
   2   4   2  296.03   16.97
  -2   4  -2  311.27   16.54
   2  -4   2  290.65   16.83
  -2  -4  -2  272.84   16.24
  -2   4  -3   87.45    5.01
   2   4   3   83.20    6.30
   2   4   3   85.83    5.63
  -2   4  -3   84.64    5.63
   2  -4   3   78.21    5.42
  -2  -4  -3   87.59    5.74
  -2   4  -4   80.06    5.49
   2   4   4   79.33    5.32
   2   4   4   65.41    6.19
  -2  -4  -4   82.51    5.55
   2  -4   4   76.04    5.16
  -2  -4  -4   83.42    4.90
   2   4   5   61.74    6.11
  -2   4  -5   68.13    5.14
   2   4   5   67.50    4.85
  -2  -4  -5   67.55    5.07
  -2  -4  -5   68.10    4.44
   2  -4   5   77.46    4.86
   2   4   6   62.53    6.30
   2   4   6   68.53    4.88
  -2   4  -6   71.44    5.32
  -2  -4  -6   60.48    4.42
  -2  -4  -6   72.55    5.20
   2  -4   6   71.69    4.87
  -2   4  -7    3.56    1.33
   2   4   7    5.08    2.54
   2  -4   7    2.50    1.01
  -2  -4  -7    2.08    0.78
   2  -4   7    2.02    0.72
  -2  -4  -7    5.06    1.55
   2   4   8   15.83    3.97
  -2   4  -8   19.83    3.19
   2  -4   8   19.50    2.09
  -2  -4  -8   16.60    2.16
   2  -4   8   19.81    2.47
  -2   4  -9   24.00    3.76
   2   4   9   24.30    5.30
  -2  -4  -9   24.99    2.95
   2  -4   9   25.13    3.06
   2  -4   9   25.91    2.76
  -2   5   8   12.75    4.23
   2   5  -8   11.18    2.56
   2  -5  -8   12.75    1.87
  -2  -5   8    8.68    1.89
   2   5  -7   36.41    4.44
  -2   5   7   28.59    3.29
  -2   5   7   35.52    5.84
  -2  -5   7   32.83    3.44
   2  -5  -7   29.34    2.96
  -2   5   6    5.25    1.38
  -2   5   6    4.43    2.72
   2   5  -6    5.64    1.69
  -2  -5   6    3.83    1.10
   2  -5  -6    3.51    0.94
  -2   5   5    2.47    0.98
  -2   5   5    3.56    2.26
   2   5  -5    1.61    1.04
  -2  -5   5    1.03    0.69
  -2   5   4   20.42    2.53
   2   5  -4   22.61    3.09
  -2   5   4   23.13    4.14
  -2  -5   4   25.27    2.57
  -2   5   3   46.10    3.54
  -2   5   3   47.13    4.83
   2   5  -3   38.11    3.17
   2   5  -3   46.13    3.84
  -2  -5   3   45.72    3.31
  -2   5   2   27.31    2.65
   2   5  -2   37.50    2.74
   2  -5  -2   32.10    2.48
  -2  -5   2   32.64    2.54
  -2   5   1   26.13    2.40
   2   5  -1   26.90    2.39
  -2  -5   1   26.13    2.17
   2  -5  -1   28.28    2.23
  -2   5   0   14.85    1.92
   2   5   0   16.94    2.05
  -2   5   0   13.40    1.70
   2  -5   0   13.55    1.70
  -2   5  -1   12.25    1.75
   2   5   1   10.45    1.64
  -2   5  -1    9.81    1.49
   2  -5   1   10.33    1.54
  -2  -5  -1   12.11    1.35
   2   5   2   34.17    3.04
  -2   5  -2   40.19    3.16
  -2   5  -2   33.75    2.74
   2   5   2   37.14    3.74
   2  -5   2   37.96    3.00
  -2  -5  -2   39.14    2.54
  -2   5  -3   15.08    2.12
  -2   5  -3   16.52    1.72
   2   5   3   23.12    3.39
   2   5   3   14.41    2.07
   2  -5   3   17.80    2.15
   2   5   4   17.68    2.35
   2   5   4   27.70    3.99
  -2   5  -4   24.52    2.94
   2  -5   4   19.69    2.39
   2   5   5   16.14    3.54
  -2   5  -5   15.09    2.46
   2   5   5   20.09    2.56
  -2  -5  -5   15.41    2.54
  -2  -5  -5   17.36    1.92
   2  -5   5   14.65    2.10
   2   5   6    6.89    1.56
   2   5   6    7.14    3.01
  -2   5  -6    5.39    1.56
  -2  -5  -6    5.67    1.12
  -2  -5  -6    6.72    2.02
   2  -5   6    4.72    1.35
   2   5   7   23.68    4.88
  -2   5  -7   28.03    3.82
   2  -5   7   24.78    3.06
  -2  -5  -7   29.64    2.98
  -2   5  -8    7.27    2.01
   2   5   8    7.40    3.49
   2  -5   8    8.14    1.83
  -2  -5  -8    5.15    1.24
   2  -5   8    7.19    1.37
  -2   6   8   30.18    5.93
   2   6  -8   28.51    4.28
   2  -6  -8   31.40    3.25
  -2  -6   8   26.63    3.75
  -2   6   7   38.69    4.16
   2   6  -7   37.17    4.74
  -2   6   7   42.80    6.50
   2  -6  -7   35.15    3.16
  -2  -6   7   43.23    4.24
   2   6  -6   13.36    2.74
  -2   6   6   12.48    3.63
  -2   6   6   14.86    2.38
  -2  -6   6   15.19    2.33
   2   6  -5   12.75    2.54
  -2   6   5    8.62    1.92
  -2   6   5   14.66    3.67
  -2  -6   5    7.96    1.70
  -2   6   4   77.62    5.96
  -2   6   4   84.86    7.37
   2   6  -4   89.95    6.62
  -2  -6   4   91.21    5.94
   2   6  -3    1.24    0.93
   2   6  -3    1.08    0.72
  -2   6   3    3.00    1.10
   2  -6  -3    2.30    0.77
  -2  -6   3    1.50    0.82
  -2   6   2   45.35    3.82
   2   6  -2   47.60    3.73
  -2  -6   2   46.89    3.59
   2  -6  -2   52.30    3.55
  -2   6   1   29.84    2.76
   2   6  -1   30.92    2.76
   2  -6  -1   28.76    2.54
  -2  -6   1   29.53    2.48
   2   6   1   48.62    3.90
  -2   6  -1   48.93    3.88
  -2   6  -1   49.36    3.75
   2  -6   1   56.55    3.90
  -2  -6  -1   47.63    3.41
  -2   6  -2   41.77    3.32
   2   6   2   43.78    3.63
  -2   6  -2   45.86    3.73
   2  -6   2   44.81    3.54
  -2   6  -3   11.60    2.16
   2   6   3   11.23    1.86
   2   6   3   13.52    2.99
   2  -6   3   10.62    1.83
   2   6   4   88.61    7.13
  -2   6  -4   81.76    6.20
   2   6   4   85.28    5.99
   2  -6   4   80.78    5.83
   2   6   5   10.60    2.03
   2   6   5    7.18    2.84
  -2   6  -5    6.57    1.80
   2  -6   5    7.52    1.66
  -2  -6  -5    7.00    1.25
  -2   6  -6    8.31    2.15
   2   6   6   11.66    2.15
   2   6   6    8.80    3.41
  -2  -6  -6   10.56    1.64
   2  -6   6    6.63    1.59
   2   6   7   45.00    6.61
  -2   6  -7   43.55    4.54
   2  -6   7   33.68    3.92
  -2  -6  -7   43.55    3.48
   2   6   8   26.89    5.71
  -2   6  -8   21.93    3.69
  -2  -6  -8   20.06    2.60
   2  -6   8   22.63    3.15
  -2   7   7    0.46    1.33
  -2   7   7    0.35    2.43
   2   7  -7    1.94    1.55
   2  -7  -7    1.27    0.98
  -2  -7   7    2.85    1.51
  -2   7   6   15.33    2.64
  -2   7   6   15.65    4.33
   2   7  -6   16.42    3.27
  -2  -7   6   15.42    2.55
  -2   7   5   18.80    4.10
   2   7  -5   14.54    2.84
  -2   7   5   18.86    2.82
  -2  -7   5   19.88    2.77
  -2   7   4   15.77    2.59
   2   7  -4   19.01    3.24
  -2  -7   4   18.22    2.47
   2   7  -3    6.79    1.45
  -2   7   3    5.09    1.39
   2   7  -3    5.52    1.65
  -2  -7   3    2.47    1.05
   2  -7  -3    4.33    1.06
  -2   7   2    1.93    0.97
   2   7  -2    1.99    0.91
   2  -7  -2    3.75    1.05
  -2  -7   2    2.49    0.99
   2   7  -1    7.07    1.53
  -2   7   1    6.20    1.43
   2  -7  -1    6.93    1.39
  -2  -7   1    8.04    1.50
  -2   7   0   18.94    2.47
   2   7   0   18.35    2.43
   2  -7   0   15.49    2.14
  -2   7  -1    6.56    1.51
   2   7   1    6.85    1.52
  -2   7  -1    5.31    1.28
   2  -7   1    5.64    1.27
  -2   7  -2   38.69    3.31
  -2   7  -2   37.18    3.60
   2   7   2   42.34    3.62
   2  -7   2   44.28    3.51
  -2   7  -3    3.34    1.29
   2   7   3    2.69    1.03
   2  -7   3    3.29    1.17
  -2   7  -4    5.69    1.77
   2   7   4    7.94    1.68
   2   7   4    3.92    2.42
   2  -7   4    9.92    1.79
  -2   7  -5    9.03    2.25
   2   7   5   13.77    3.58
   2   7   5   11.18    2.13
   2  -7   5   13.04    2.20
   2   7   6    2.32    2.51
  -2   7  -6    1.40    1.39
   2   7   6    2.54    1.13
  -2  -7  -6    2.59    0.98
   2  -7   6    1.97    1.26
   2   7   7    0.96    1.40
  -2   7  -7   -0.12    1.17
   2   7   7    2.70    3.14
  -2  -7  -7   -0.19    0.66
   2  -7   7   -0.05    1.01
   2   8  -6   28.97    4.49
  -2   8   6   24.16    5.13
  -2   8   6   32.09    4.02
  -2  -8   6   21.94    3.35
   2   8  -5   10.29    2.58
  -2   8   5   11.86    2.32
  -2  -8   5    5.59    1.75
   2   8  -4   10.02    2.49
  -2   8   4   10.03    2.16
  -2  -8   4    5.49    1.56
  -2   8   3   12.33    2.18
   2   8  -3    8.05    2.17
  -2  -8   3    9.97    1.94
  -2   8   2   10.10    1.99
   2   8  -2   15.16    2.29
  -2  -8   2   12.70    1.99
   2  -8  -2   10.48    1.83
   2   8  -1    7.13    1.57
  -2   8   1    4.97    1.49
   2  -8  -1    6.62    1.49
  -2  -8   1    6.38    1.39
  -2   8   0   15.32    2.34
   2   8   0   11.51    2.00
   2  -8   0   14.20    2.10
  -2   8  -1   -0.20    0.67
   2   8   1   -0.02    0.63
  -2   8  -1    0.77    0.95
   2  -8   1    0.32    0.77
  -2   8  -2    9.36    2.10
   2   8   2    6.27    1.60
  -2   8  -2    9.60    1.75
   2  -8   2    9.56    1.69
  -2   8  -3   21.45    3.31
   2   8   3   18.84    2.78
   2  -8   3   22.23    2.82
  -2   8  -4   15.71    3.00
   2   8   4   21.93    3.07
   2  -8   4   25.88    3.15
  -2   8  -5   20.97    3.67
   2   8   5   20.38    3.07
   2   8   5   25.62    4.68
   2  -8   5   27.29    3.45
   2   8   6   33.16    4.03
  -2   8  -6   27.53    4.30
   2   8   6   35.06    5.68
   2  -8   6   32.24    3.97
  -2  -8  -6   29.83    3.39
  -2   9   5    2.21    1.58
   2   9  -5    2.61    1.73
  -2  -9   5    1.43    1.36
  -2   9   4    7.15    1.96
   2   9  -4    4.12    1.94
  -2  -9   4    6.20    1.71
   2   9  -3    2.00    1.48
  -2   9   3    2.43    1.31
  -2  -9   3    0.82    1.02
  -2   9   2   26.03    3.39
   2   9  -2   27.50    3.28
   2   9  -2   18.16    3.31
  -2  -9   2   24.45    3.04
  -2   9   1    3.63    1.36
   2   9  -1    5.74    1.51
   2  -9  -1    4.97    1.35
   2   9   0   10.11    1.97
  -2   9   0   10.89    2.09
   2  -9   0   10.99    1.93
  -2   9  -1    8.00    1.81
   2   9   1    7.09    1.71
   2  -9   1    7.32    1.71
   2   9   2   -0.49    0.70
  -2   9  -2    3.91    1.71
   2  -9   2    1.92    1.16
  -2   9  -3   11.16    2.56
   2   9   3   10.97    2.28
   2  -9   3    8.09    1.94
   2   9   4   11.79    2.40
  -2   9  -4   13.30    2.91
   2  -9   4   16.99    2.71
  -2   9  -5    3.73    1.91
   2   9   5    2.57    1.48
   2  10  -2    9.74    2.56
   2  10  -2    4.39    1.63
  -2  10   2    6.07    1.74
   2  10  -1    3.23    1.44
  -2  10   1    2.84    1.34
  -2  10   0    2.10    1.14
   2  10   0    0.90    1.11
   2 -10   0    2.21    1.27
   2  10   1    3.16    1.50
  -2  10  -1    3.91    1.46
   2 -10   1    2.71    1.31
   2  10   2   10.24    2.31
   2 -10   2    9.02    1.97
  -3   0   9    2.17    1.28
  -3   0   9    0.10    0.68
  -3   0   8   36.65    3.16
   3   0  -8   42.45    3.09
  -3   0   8   45.03    4.50
   3   0  -7    0.07    0.39
  -3   0   7   -0.02    0.82
  -3   0   7   -0.02    0.36
   3   0  -6   11.56    1.61
  -3   0   6    8.68    1.26
  -3   0   6    9.95    2.04
   3   0  -6   11.59    1.26
   3   0  -5    0.03    0.36
  -3   0   5   -0.15    0.25
  -3   0   5   -0.60    0.56
  -3   0   5   -0.12    0.28
   3   0  -5    0.03    0.23
  -3   0   5   -0.07    0.24
  -3   0   4   89.78    5.13
  -3   0   4   84.76    5.10
  -3   0   4   86.14    5.24
   3   0  -4   85.65    4.99
  -3   0   4   91.81    5.89
   3   0  -4   87.65    5.28
  -3   0   3    0.12    0.51
   3   0  -3    0.04    0.14
  -3   0   3   -0.15    0.14
   3   0  -3    0.06    0.24
  -3   0   3   -0.02    0.20
  -3   0   3    0.21    0.23
  -3   0   2   11.82    0.96
  -3   0   2   11.79    0.98
  -3   0   1   -0.03    0.11
  -3   0   1    0.03    0.16
  -3   0   0  193.99   10.57
  -3   0  -1    0.03    0.12
   3   0   1    0.47    0.20
  -3   0  -1   -0.31    0.21
  -3   0  -1    0.02    0.14
  -3   0  -2  155.81    9.52
   3   0   2  157.44    9.05
   3   0   2  155.91    9.24
   3   0   2  188.49    9.22
  -3   0  -2  185.03    9.29
   3   0   3   -0.09    0.18
   3   0   3    0.01    0.19
  -3   0  -3   -0.12    0.18
   3   0   3   -0.07    0.11
  -3   0  -3    0.02    0.25
  -3   0  -4   24.02    1.81
   3   0   4   22.90    1.71
   3   0   4   26.74    1.72
   3   0   4   23.10    1.62
  -3   0  -4   24.91    2.20
   3   0   5    0.15    0.23
  -3   0  -5   -0.09    0.24
   3   0   5    0.35    0.34
  -3   0  -5   -0.05    0.39
   3   0   6  155.92    8.86
  -3   0  -6  146.88    9.63
   3   0   6  159.66    8.90
  -3   0  -6  157.77    9.10
  -3   0  -7   -0.08    0.53
   3   0   7    0.01    0.31
  -3   0  -7    0.11    0.38
  -3   0  -8   72.14    5.73
  -3   0  -8   82.36    5.26
   3   0   8   75.07    4.92
  -3   0  -9    0.92    1.05
  -3   0  -9    0.36    0.66
  -3   1   9   19.87    4.05
  -3   1   9   15.96    2.30
  -3  -1   9   12.12    2.70
  -3  -1   9   11.01    1.79
  -3   1   8    9.11    1.57
  -3   1   8   12.38    2.86
  -3  -1   8   10.14    1.67
   3  -1  -8   11.75    1.55
  -3   1   7   16.26    1.92
   3   1  -7   19.26    2.43
  -3   1   7   26.13    3.85
   3   1  -7   18.44    1.87
   3  -1  -7   17.62    1.87
  -3  -1   7   16.83    2.03
   3   1  -6   27.17    1.98
  -3   1   6   26.17    3.75
   3   1  -6   22.71    2.36
  -3   1   6   31.47    2.40
  -3   1   6   24.99    2.13
  -3  -1   6   25.02    2.19
   3  -1  -6   27.02    2.01
   3   1  -5   22.25    1.75
   3   1  -5   24.58    2.19
   3   1  -5   24.50    1.79
  -3   1   5   27.31    3.12
  -3   1   5   26.30    1.94
  -3   1   5   23.44    1.95
   3  -1  -5   26.42    1.85
   3  -1  -5   25.32    2.03
  -3  -1   5   27.17    1.99
  -3  -1   5   27.95    2.10
  -3  -1   5   25.98    1.81
  -3   1   4   46.22    2.89
   3   1  -4   41.94    2.73
  -3   1   4   40.64    3.83
   3   1  -4   46.45    3.13
  -3   1   4   40.57    2.87
   3   1  -4   46.64    2.68
  -3  -1   4   45.27    2.84
   3  -1  -4   44.50    2.85
   3  -1  -4   42.86    2.70
  -3  -1   4   41.84    2.73
  -3   1   3   66.68    4.04
   3   1  -3   66.67    3.77
   3   1  -3   70.24    4.26
   3   1  -3   67.56    3.94
  -3   1   3   53.12    4.78
  -3   1   3   69.29    4.05
  -3  -1   3   66.80    3.93
  -3  -1   3   68.92    4.09
  -3  -1   3   69.36    3.95
  -3   1   2   46.14    2.92
   3   1  -2   49.12    2.87
  -3   1   2   49.41    3.69
  -3  -1   2   44.67    2.83
  -3  -1   2   46.24    2.90
   3   1  -1   58.22    3.58
  -3   1   1   64.60    3.67
  -3  -1   1   66.33    3.60
  -3  -1   1   57.92    3.58
  -3   1   0   15.76    1.12
   3   1   0   15.01    1.14
  -3  -1   0   17.64    1.65
  -3  -1   0   14.46    1.00
  -3  -1   0   14.71    1.13
   3   1   1  155.84    8.92
  -3   1  -1  178.78    9.04
  -3   1  -1  174.25    8.85
  -3  -1  -1  145.47    9.14
  -3  -1  -1  151.78    8.77
   3   1   2   12.86    0.91
  -3   1  -2   16.28    1.04
  -3   1  -2   21.09    1.51
   3   1   2   14.01    1.15
   3  -1   2   17.94    1.36
  -3  -1  -2   15.75    1.13
  -3  -1  -2   14.27    1.40
   3   1   3  115.21    6.44
  -3   1  -3  101.53    6.72
   3   1   3  109.68    6.14
  -3  -1  -3  107.57    6.76
   3  -1   3  125.98    6.52
  -3  -1  -3  115.61    6.43
   3  -1   3  112.26    6.16
  -3   1  -4   62.79    4.49
   3   1   4   67.15    3.82
   3   1   4   68.32    4.21
  -3  -1  -4   69.42    4.14
  -3  -1  -4   63.96    4.48
   3  -1   4   69.16    3.89
   3  -1   4   64.88    4.08
   3   1   5   63.62    3.67
  -3   1  -5   57.83    4.36
  -3  -1  -5   62.48    3.98
   3  -1   5   59.92    3.71
  -3  -1  -5   67.76    4.52
   3  -1   5   57.36    3.85
  -3   1  -6   18.73    2.47
   3  -1   6   23.26    1.80
  -3  -1  -6   23.61    1.98
   3  -1   6   23.55    1.98
  -3  -1  -6   25.59    2.50
  -3   1  -7   37.56    3.47
   3  -1   7   36.34    2.84
   3  -1   7   33.63    2.64
  -3  -1  -7   40.78    3.01
  -3  -1  -7   39.44    3.46
  -3   1  -8    2.35    1.18
  -3  -1  -8    2.57    0.85
  -3  -1  -8    3.81    1.30
   3  -1   8    3.65    0.85
  -3   1  -9   14.80    2.61
   3  -1   9   14.09    1.76
  -3  -1  -9   12.59    2.34
  -3  -1  -9   10.30    1.73
  -3   2   9    9.75    3.50
  -3  -2   9    7.04    1.51
   3  -2  -9    6.92    1.43
   3   2  -8   25.78    3.21
  -3   2   8   23.14    4.55
   3  -2  -8   24.37    2.44
  -3  -2   8   22.53    2.59
   3   2  -7    5.90    1.44
  -3   2   7    6.67    2.73
   3  -2  -7    6.88    1.13
  -3  -2   7    4.26    1.05
   3   2  -6   57.23    4.19
  -3   2   6   46.63    5.39
  -3   2   6   57.07    3.67
   3  -2  -6   53.38    3.54
  -3  -2   6   53.78    3.82
  -3   2   5   40.64    4.99
  -3   2   5   54.52    3.45
   3   2  -5   49.91    3.81
   3  -2  -5   54.63    3.32
  -3  -2   5   50.60    3.54
  -3  -2   5   53.95    3.42
   3   2  -4    5.32    1.09
  -3   2   4    6.88    2.06
  -3   2   4    6.77    0.97
   3   2  -4    6.07    0.77
  -3  -2   4    5.19    0.90
   3  -2  -4    5.96    0.76
  -3  -2   4    6.07    0.83
  -3   2   3   43.76    2.83
   3   2  -3   42.14    2.65
   3   2  -3   40.34    3.09
  -3   2   3   45.98    4.08
  -3  -2   3   39.73    2.78
   3   2  -2   62.26    3.54
  -3   2   2   55.59    4.43
  -3   2   2   57.57    3.60
  -3  -2   2   56.04    3.53
   3   2  -1    5.86    0.75
  -3   2   1    4.94    0.72
  -3  -2   1    5.81    0.68
  -3   2   0   31.31    2.00
   3   2   0   26.34    1.99
  -3  -2   0   31.54    1.84
   3   2   1   88.07    5.09
  -3   2  -1   91.42    5.12
  -3   2  -1   99.64    4.99
  -3  -2  -1   77.37    5.34
   3  -2   1   86.27    5.18
  -3  -2  -1   82.41    4.70
  -3  -2  -1   82.08    4.84
  -3   2  -2   57.91    3.50
   3   2   2   53.72    3.33
  -3   2  -2   52.55    3.06
  -3  -2  -2   51.33    3.12
   3  -2   2   49.86    3.44
  -3  -2  -2   47.20    3.55
  -3   2  -3   47.00    2.82
   3   2   3   53.03    3.34
  -3   2  -3   45.97    3.42
  -3  -2  -3   51.42    3.10
   3  -2   3   49.32    3.31
  -3  -2  -3   52.37    3.59
   3   2   4  146.28    7.97
  -3   2  -4  146.00    8.87
   3   2   4  140.15    8.62
   3  -2   4  147.70    8.51
  -3  -2  -4  150.65    8.88
   3   2   5    0.75    0.59
  -3   2  -5    1.40    0.72
  -3  -2  -5    1.13    0.47
  -3  -2  -5    2.80    0.95
   3  -2   5    1.79    0.46
   3  -2   5    2.12    0.62
  -3   2  -6   28.31    2.85
   3  -2   6   35.04    2.53
   3  -2   6   29.40    2.18
  -3  -2  -6   28.99    2.83
  -3  -2  -6   27.90    2.37
  -3   2  -7    7.03    1.66
   3  -2   7   10.12    1.49
   3  -2   7    8.82    1.24
  -3  -2  -7   10.00    1.45
  -3  -2  -7    7.98    1.62
   3   2   8   74.67    6.24
  -3   2  -8   60.67    5.21
  -3  -2  -8   67.52    5.27
   3  -2   8   62.42    4.39
  -3  -2  -8   68.28    4.72
   3   2   9   12.50    2.95
  -3   2  -9    8.51    2.04
  -3  -2  -9    7.28    1.81
  -3  -2  -9    9.66    1.69
   3  -2   9    6.15    1.26
   3   3  -9    9.14    2.24
  -3   3   9    6.52    3.44
  -3  -3   9    9.56    1.82
   3  -3  -9   15.29    2.04
  -3   3   8   -0.81    2.18
   3   3  -8    1.91    1.22
  -3  -3   8    1.19    0.70
   3  -3  -8    2.12    0.82
  -3   3   7   -0.43    2.19
   3   3  -7    1.22    0.85
   3  -3  -7    1.31    0.65
  -3  -3   7    0.27    0.49
  -3   3   6   52.67    3.74
  -3   3   6   51.84    6.09
   3   3  -6   56.89    4.39
   3  -3  -6   52.54    3.59
  -3  -3   6   55.20    3.91
   3   3  -5   17.49    2.45
  -3   3   5   25.22    2.08
  -3   3   5   29.53    4.58
  -3  -3   5   24.83    2.12
  -3  -3   5   25.30    1.99
   3   3  -4   23.55    2.28
  -3   3   4   30.79    4.19
  -3   3   4   17.66    1.75
   3   3  -4   21.24    1.65
  -3  -3   4   19.03    1.75
   3   3  -3   79.90    4.84
  -3   3   3   80.71    5.03
  -3   3   3   81.97    6.22
  -3  -3   3   80.20    4.95
  -3   3   2   25.65    1.95
  -3   3   2   21.80    3.01
   3   3  -2   23.93    1.82
  -3  -3   2   25.37    1.85
  -3   3   1   59.21    3.97
   3   3  -1   70.18    4.02
  -3  -3   1   62.80    3.83
  -3   3   0  107.51    6.07
  -3   3   0  102.30    6.14
   3   3   0  101.91    6.20
  -3  -3   0  105.88    5.93
   3  -3   0  109.55    6.30
   3   3   1    4.98    0.85
  -3   3  -1    5.09    0.85
  -3   3  -1    6.79    0.83
  -3  -3  -1    4.80    0.52
   3  -3   1    4.17    0.86
  -3   3  -2   88.76    4.82
   3   3   2   87.46    5.21
   3   3   2   66.09    5.39
  -3   3  -2  100.25    5.35
  -3  -3  -2   80.64    5.45
   3  -3   2   72.31    5.19
   3   3   3  112.36    6.97
  -3   3  -3  106.22    6.62
   3   3   3  103.46    6.55
  -3   3  -3  105.69    5.93
   3  -3   3   97.73    6.44
  -3  -3  -3  109.76    6.78
  -3  -3  -3  103.69    6.13
  -3   3  -4    1.87    0.74
   3   3   4    3.96    1.28
   3   3   4    3.05    0.88
  -3  -3  -4    3.13    1.26
   3  -3   4    3.40    0.85
  -3  -3  -4    2.53    0.59
  -3   3  -5   36.77    3.38
   3   3   5   45.68    4.00
   3   3   5   51.47    3.49
  -3  -3  -5   36.89    2.93
  -3  -3  -5   42.26    3.62
   3  -3   5   48.48    3.31
   3   3   6   74.02    5.83
  -3   3  -6   72.94    5.34
  -3  -3  -6   71.30    4.65
  -3  -3  -6   74.04    5.27
   3  -3   6   67.26    4.37
   3  -3   6   62.97    4.69
  -3   3  -7    2.62    1.16
   3   3   7    2.31    1.32
  -3  -3  -7    1.91    0.73
   3  -3   7    2.54    0.67
   3  -3   7    1.78    0.82
  -3  -3  -7    2.40    0.98
   3   3   8   24.51    4.12
  -3   3  -8   17.41    2.97
  -3  -3  -8   16.16    2.14
   3  -3   8   17.93    2.34
  -3  -3  -8   16.85    2.63
   3  -3   8   16.19    1.91
   3   3   9   25.55    4.51
  -3   3  -9   20.94    3.28
  -3  -3  -9   24.59    2.72
   3  -3   9   21.41    2.42
   3   4  -9   35.13    4.33
  -3   4   9   27.70    6.01
   3  -4  -9   28.41    3.03
  -3  -4   9   20.79    2.92
  -3   4   8   17.95    4.66
   3   4  -8   12.58    2.55
  -3  -4   8   12.48    2.07
   3  -4  -8   20.43    2.29
  -3   4   7   50.94    6.83
  -3   4   7   42.20    3.50
   3   4  -7   39.30    4.02
   3  -4  -7   44.21    3.29
  -3  -4   7   47.25    3.65
  -3   4   6   13.80    3.74
   3   4  -6   14.71    2.42
  -3   4   6   13.99    1.92
   3  -4  -6   16.30    1.83
  -3  -4   6   14.69    1.95
  -3   4   5   14.42    1.86
   3   4  -5   15.33    2.44
  -3   4   5   18.48    4.01
  -3  -4   5   11.56    1.67
  -3   4   4   17.48    2.10
   3   4  -4   21.55    1.80
   3   4  -4   21.93    2.84
  -3   4   4   22.05    3.77
  -3  -4   4   22.55    1.97
   3   4  -3   75.63    4.94
  -3   4   3   84.41    5.27
  -3   4   3   81.77    6.52
  -3  -4   3   80.34    5.05
   3   4  -2   17.11    1.60
  -3   4   2   23.08    2.27
  -3  -4   2   17.26    1.56
  -3   4   1  185.64   10.99
  -3   4   1  188.16   10.65
   3   4  -1  189.12   10.91
  -3  -4   1  197.94   10.73
   3  -4  -1  194.11   10.93
  -3   4   0   41.36    2.94
   3   4   0   40.48    2.97
  -3   4   0   41.83    2.86
  -3  -4   0   43.10    2.67
   3  -4   0   40.13    2.96
   3   4   1   29.04    2.41
  -3   4  -1   31.54    2.37
  -3   4  -1   30.73    2.25
   3   4   1   26.95    2.74
  -3  -4  -1   29.10    1.94
   3  -4   1   34.00    2.57
   3   4   2   85.59    5.67
  -3   4  -2   82.77    4.78
   3   4   2   74.30    5.15
  -3   4  -2   77.30    5.11
   3  -4   2   77.60    5.21
  -3  -4  -2   75.02    4.40
  -3   4  -3   63.99    3.85
   3   4   3   62.38    4.48
  -3   4  -3   60.14    4.44
   3   4   3   65.04    5.20
  -3  -4  -3   70.68    4.87
   3  -4   3   56.69    4.30
  -3   4  -4   31.24    2.90
   3   4   4   32.07    2.83
   3   4   4   31.55    4.21
  -3  -4  -4   31.56    2.36
  -3  -4  -4   34.99    3.35
   3  -4   4   30.89    2.68
   3   4   5   49.41    5.27
  -3   4  -5   54.57    4.44
   3   4   5   56.04    4.27
   3  -4   5   60.61    4.22
  -3  -4  -5   61.44    4.74
  -3  -4  -5   60.24    3.88
  -3   4  -6   61.33    4.88
   3   4   6   68.36    4.66
   3   4   6   52.95    5.54
   3  -4   6   58.37    4.40
  -3  -4  -6   60.20    4.81
  -3  -4  -6   57.86    4.10
   3   4   7    9.14    2.77
  -3   4  -7   11.93    2.28
  -3  -4  -7   14.62    2.40
   3  -4   7   11.07    1.75
   3  -4   7   10.40    1.39
  -3  -4  -7   10.81    1.64
  -3   4  -8   23.03    3.49
   3   4   8   31.58    5.02
  -3  -4  -8   25.91    3.94
  -3  -4  -8   30.26    3.08
   3  -4   8   27.30    2.61
   3  -4   8   27.14    3.12
  -3   4  -9    4.78    1.88
   3   4   9    2.01    2.55
  -3  -4  -9    4.37    1.23
   3  -4   9    2.52    0.93
   3  -4   9    3.80    1.54
  -3   5   8   13.80    4.48
   3   5  -8   17.14    3.09
  -3  -5   8   16.65    2.50
   3  -5  -8   14.26    1.96
  -3   5   7   14.64    4.23
   3   5  -7   12.72    2.59
  -3   5   7   11.93    2.04
   3  -5  -7   13.28    1.81
  -3  -5   7   14.73    2.13
   3   5  -6   17.23    2.83
  -3   5   6   17.91    2.37
  -3   5   6   20.32    4.53
  -3  -5   6   18.50    2.32
   3   5  -5   18.57    2.96
  -3   5   5   18.68    2.40
  -3   5   5   17.88    3.81
  -3  -5   5   16.06    2.10
   3   5  -4   43.14    3.92
  -3   5   4   42.72    3.46
   3   5  -4   39.15    3.14
  -3   5   4   42.52    5.59
  -3  -5   4   44.98    3.34
  -3   5   3    4.23    2.34
   3   5  -3    5.58    1.09
  -3   5   3    4.20    1.08
  -3  -5   3    4.98    1.07
  -3   5   2   22.85    2.56
   3   5  -2   24.37    2.22
  -3  -5   2   27.20    2.15
   3   5  -1   41.70    3.00
  -3   5   1   40.53    3.07
  -3   5   1   33.22    2.66
   3  -5  -1   35.71    2.81
  -3  -5   1   38.56    2.71
  -3   5   0  137.49    7.97
  -3   5   0  122.87    7.72
   3   5   0  128.57    7.99
   3  -5   0  127.06    7.92
  -3  -5   0  133.93    7.56
  -3   5  -1   57.77    3.93
  -3   5  -1   55.20    3.78
   3   5   1   44.08    3.83
   3  -5   1   57.46    4.04
  -3  -5  -1   56.11    3.43
  -3   5  -2   26.58    2.29
  -3   5  -2   32.17    2.70
   3   5   2   28.69    2.67
   3   5   2   32.05    3.41
   3  -5   2   28.08    2.58
  -3   5  -3    2.03    0.62
  -3   5  -3    1.46    0.82
   3   5   3    1.35    0.81
   3   5   3    2.95    1.89
   3  -5   3    1.89    0.77
   3   5   4   62.25    4.47
  -3   5  -4   55.70    4.50
   3   5   4   60.35    5.59
   3  -5   4   54.90    4.26
  -3  -5  -4   53.21    3.78
   3   5   5   35.69    4.90
   3   5   5   26.70    3.11
  -3   5  -5   31.59    3.22
  -3  -5  -5   29.57    2.44
  -3  -5  -5   28.56    3.49
   3  -5   5   31.67    3.26
   3   5   6   16.15    3.86
   3   5   6   23.16    2.90
  -3   5  -6   25.43    3.37
  -3  -5  -6   25.44    2.62
  -3  -5  -6   26.40    3.42
   3  -5   6   25.57    2.92
  -3   5  -7   19.83    3.18
   3   5   7   20.40    4.57
   3  -5   7   23.88    2.84
  -3  -5  -7   22.41    2.60
  -3  -5  -7   27.34    3.61
   3   5   8   22.15    5.06
  -3   5  -8   31.05    4.31
   3  -5   8   34.70    2.77
  -3  -5  -8   31.84    3.23
   3   6  -8    5.54    2.05
  -3   6   8    6.92    3.81
   3  -6  -8    5.66    1.35
   3   6  -7    9.57    2.44
  -3   6   7   18.12    2.74
  -3   6   7   25.01    5.15
   3  -6  -7   11.67    1.87
  -3  -6   7   15.04    2.32
  -3   6   6   17.69    2.54
   3   6  -6    7.15    2.05
  -3   6   6   13.40    3.73
  -3  -6   6   13.44    2.11
   3   6  -5   97.72    7.06
  -3   6   5   87.11    8.01
  -3   6   5   87.47    6.29
  -3  -6   5   82.52    6.09
  -3   6   4   36.62    5.28
   3   6  -4   44.61    4.21
  -3   6   4   49.61    3.92
  -3  -6   4   46.71    3.66
   3   6  -3   98.37    6.58
  -3   6   3   97.96    6.83
   3  -6  -3  109.43    6.52
  -3  -6   3   96.70    6.49
  -3   6   2   23.25    2.78
   3   6  -2   18.51    2.32
   3  -6  -2   18.76    2.22
  -3  -6   2   22.09    2.37
  -3   6   1   46.21    3.75
   3   6  -1   43.30    3.65
   3  -6  -1   48.30    3.57
  -3  -6   1   48.59    3.44
  -3   6   0   54.28    4.25
  -3   6   0   53.73    4.13
   3   6   0   65.03    4.56
  -3  -6   0   62.90    3.99
   3  -6   0   61.36    4.34
   3   6   1  147.61    9.14
  -3   6  -1  131.91    8.70
  -3   6  -1  145.78    8.92
   3  -6   1  151.25    9.01
  -3   6  -2   52.09    4.05
   3   6   2   50.86    4.06
  -3   6  -2   44.70    3.58
   3  -6   2   53.92    3.97
   3   6   3   66.69    5.10
  -3   6  -3   70.80    5.25
   3   6   3   68.72    6.03
   3  -6   3   70.82    5.08
   3   6   4   19.95    3.60
   3   6   4   14.16    2.38
  -3   6  -4   20.54    2.93
   3  -6   4   16.94    2.40
  -3   6  -5    8.36    2.01
   3   6   5   11.95    3.27
   3   6   5    8.92    1.86
   3  -6   5   10.14    1.85
  -3  -6  -5    9.87    1.55
   3   6   6   35.31    5.48
  -3   6  -6   24.86    3.84
   3   6   6   32.82    3.78
   3  -6   6   32.05    3.61
  -3  -6  -6   29.69    3.03
  -3   6  -7   31.02    4.38
   3   6   7   26.55    5.32
   3  -6   7   26.29    3.32
  -3  -6  -7   32.48    3.25
  -3   6  -8   16.05    3.13
   3   6   8   14.10    4.61
   3  -6   8   17.81    2.75
  -3  -6  -8   17.68    2.46
  -3   7   7    8.96    2.23
   3   7  -7    9.53    2.61
  -3   7   7   10.03    3.69
   3  -7  -7    9.15    1.72
  -3  -7   7    6.30    2.04
   3   7  -6   11.97    2.76
  -3   7   6   13.35    3.86
  -3   7   6   17.22    2.82
  -3  -7   6   11.17    2.28
   3   7  -5   15.24    3.00
  -3   7   5   14.12    3.54
  -3   7   5   13.33    2.34
  -3  -7   5   13.69    2.27
   3   7  -4   21.48    3.37
  -3   7   4   19.39    2.83
  -3  -7   4   19.86    2.68
   3   7  -3    0.38    0.92
   3   7  -3    1.14    0.92
  -3   7   3    1.75    1.02
   3  -7  -3    0.21    0.66
  -3  -7   3    0.34    0.67
   3   7  -2   42.36    3.81
  -3   7   2   45.85    3.95
   3  -7  -2   47.29    3.68
  -3  -7   2   49.13    3.69
   3   7  -1   16.25    2.42
  -3   7   1   16.09    2.33
   3  -7  -1   21.71    2.53
  -3  -7   1   13.14    1.95
   3   7   0   15.44    2.38
  -3   7   0   17.10    2.37
   3  -7   0   15.55    2.21
  -3   7  -1    7.98    1.58
  -3   7  -1    5.99    1.49
   3   7   1   10.03    1.84
   3  -7   1    8.84    1.62
  -3   7  -2   33.44    3.00
  -3   7  -2   34.54    3.36
   3   7   2   34.75    3.75
   3  -7   2   36.03    3.60
   3   7   3    9.03    1.79
  -3   7  -3    7.98    1.90
   3  -7   3    9.69    1.83
   3   7   4   39.07    4.00
  -3   7  -4   33.26    4.08
   3   7   4   36.45    5.02
   3  -7   4   28.18    3.38
  -3   7  -5    2.30    1.40
   3   7   5    3.90    1.39
   3   7   5    6.67    2.86
  -3  -7  -5    2.04    0.88
   3  -7   5    3.71    1.33
   3   7   6   27.62    5.10
  -3   7  -6   26.48    4.01
   3   7   6   25.17    3.45
  -3  -7  -6   25.69    2.88
   3  -7   6   29.45    3.63
  -3   7  -7    4.56    2.03
   3   7   7    3.44    3.27
  -3  -7  -7    4.01    1.25
   3  -7   7    3.80    1.66
  -3   8   6   27.52    3.86
   3   8  -6   27.51    4.44
  -3  -8   6   24.08    3.45
  -3   8   5   23.31    3.49
   3   8  -5   31.47    4.42
  -3  -8   5   36.05    4.01
   3   8  -4   10.44    2.63
  -3   8   4    4.76    1.59
  -3  -8   4    4.38    1.39
  -3   8   3   55.45    4.82
   3   8  -3   56.26    4.66
   3   8  -3   64.89    5.53
  -3  -8   3   55.57    4.56
  -3   8   2   64.79    5.23
   3   8  -2   66.16    5.15
  -3  -8   2   65.88    4.90
   3  -8  -2   67.94    4.99
  -3   8   1   84.85    6.27
   3   8  -1   86.94    6.30
   3  -8  -1   86.08    6.07
  -3  -8   1   87.62    6.47
  -3   8   0   50.82    4.14
   3   8   0   49.38    4.15
   3  -8   0   42.17    3.80
   3   8   1   41.76    3.97
  -3   8  -1   41.69    3.78
   3  -8   1   53.93    4.03
  -3   8  -2   17.71    2.77
  -3   8  -2   11.28    1.97
   3   8   2   15.55    2.39
   3  -8   2    7.99    1.74
  -3   8  -3   49.56    4.60
   3   8   3   45.00    4.19
   3  -8   3   48.97    4.16
   3   8   4   46.57    4.07
  -3   8  -4   42.51    4.47
   3  -8   4   38.00    4.16
  -3   8  -5   27.69    4.20
   3   8   5   26.80    3.68
   3  -8   5   36.56    4.02
  -3  -8  -5   30.11    3.24
   3   8   6   12.17    4.30
   3   8   6   16.82    2.88
  -3   8  -6    9.56    2.61
   3  -8   6   14.81    3.72
  -3  -8  -6    8.76    1.73
  -3   9   4   13.90    2.66
   3   9  -4   21.95    3.83
  -3  -9   4   17.15    2.86
  -3   9   3   17.24    2.93
   3   9  -3   20.34    3.50
  -3  -9   3   16.86    2.70
   3   9  -2    8.15    1.94
  -3   9   2    6.65    1.76
  -3   9   1    4.66    1.49
   3   9  -1    4.98    1.49
   3  -9  -1    3.87    1.41
   3   9   0   59.12    4.88
  -3   9   0   52.18    4.60
   3  -9   0   58.69    4.61
   3   9   1    1.87    1.23
  -3   9  -1    2.53    1.17
   3  -9   1    5.12    1.45
   3   9   2   24.55    3.34
   3  -9   2   29.13    3.32
   3   9   3    2.61    1.24
  -3   9  -3    2.76    1.64
   3  -9   3    1.80    1.24
   3   9   4    2.99    1.39
  -3   9  -4    5.50    2.08
   3  -9   4    3.48    1.46
  -3  10   2   12.11    2.49
   3  10  -2   14.11    2.99
   3  10  -2    8.83    2.14
   3  10  -1   33.47    4.05
  -3  10   1   37.10    4.20
  -3  10   0   31.45    3.81
   3  10   0   31.23    3.80
   3 -10   0   31.84    3.61
  -3  10  -1   34.95    3.88
   3  10   1   31.09    3.85
   3 -10   1   27.28    3.50
   3  10   2   43.54    4.85
   3 -10   2   41.00    4.32
  -4   0   9   -0.15    0.67
  -4   0   9    3.15    1.56
  -4   0   8   64.50    5.94
  -4   0   8   64.42    4.60
  -4   0   7    0.10    0.47
  -4   0   7    1.25    1.12
  -4   0   6  128.22    8.63
   4   0  -6  125.74    7.19
  -4   0   6  117.83    7.48
  -4   0   5    0.42    0.34
   4   0  -5   -0.17    0.23
  -4   0   5   -0.06    0.31
   4   0  -5    0.17    0.43
  -4   0   5   -1.03    0.81
  -4   0   4  226.39   13.48
   4   0  -4  241.92   13.16
  -4   0   4  246.01   13.42
  -4   0   4  259.69   14.34
   4   0  -4  235.23   13.44
   4   0  -3    0.19    0.29
  -4   0   3    0.92    0.35
  -4   0   3   -0.04    0.22
  -4   0   3    0.06    0.19
   4   0  -3   -0.02    0.12
  -4   0   2  131.00    7.61
  -4   0   2  116.63    7.05
  -4   0   2  126.58    7.09
  -4   0   1   -0.08    0.11
   4   0   0  600.12   31.36
  -4   0   0  559.61   31.62
   4   0   0  607.72   31.69
  -4   0  -1    0.14    0.19
  -4   0  -1   -0.52    0.23
   4   0   1    0.08    0.17
   4   0   2   70.52    3.80
  -4   0  -2   67.82    3.77
  -4   0  -2   70.33    3.80
   4   0   2   54.89    3.76
  -4   0  -2   63.95    4.09
   4   0   2   59.04    3.50
   4   0   3   -0.12    0.19
   4   0   3    0.12    0.25
  -4   0  -3    0.18    0.22
   4   0   3    0.11    0.12
  -4   0  -3    0.23    0.33
   4   0   4  182.39    8.81
  -4   0  -4  151.01    8.94
   4   0   4  152.56    8.67
  -4   0  -4  143.87    9.36
   4   0   4  152.44    8.75
  -4   0  -5    0.00    0.41
   4   0   5    0.15    0.33
  -4   0  -5    0.11    0.35
   4   0   5    0.23    0.24
  -4   0  -6   62.12    4.18
  -4   0  -6   59.97    4.69
   4   0   6   65.67    3.95
  -4   0  -7   -0.26    0.31
   4   0   7   -0.24    0.31
  -4   0  -7   -0.16    0.63
  -4   0  -8   17.49    2.76
  -4   0  -8   17.70    2.23
   4   0   8   19.08    1.99
  -4   0  -9    0.44    0.86
  -4   1   9   28.29    3.18
  -4   1   9   31.10    5.37
  -4  -1   9   31.84    3.32
  -4  -1   9   37.49    4.18
  -4   1   8   20.43    4.12
  -4   1   8   19.60    2.26
  -4  -1   8   14.03    2.00
  -4  -1   8   19.64    3.23
  -4   1   7   37.77    4.67
  -4   1   7   43.25    3.25
  -4  -1   7   40.37    3.23
   4  -1  -7   45.79    3.06
  -4  -1   7   42.16    4.05
   4   1  -6   14.84    1.96
  -4   1   6   15.96    1.68
  -4   1   6   15.46    1.80
  -4   1   6   13.14    3.05
  -4  -1   6   16.23    2.59
   4  -1  -6   16.57    1.60
  -4  -1   6    9.50    1.49
  -4   1   5  157.99    8.75
   4   1  -5  148.21    8.59
  -4   1   5  155.23    8.84
  -4   1   5  122.22    9.92
   4   1  -5  158.40    8.47
   4   1  -5  154.53    9.01
   4  -1  -5  146.89    8.49
  -4  -1   5  153.48    8.87
  -4  -1   5  156.84    8.62
  -4   1   4   14.52    1.54
  -4   1   4   14.55    1.61
   4   1  -4   14.93    1.51
   4   1  -4   16.08    1.31
  -4   1   4    8.96    2.34
   4   1  -4   16.54    1.12
   4  -1  -4   15.29    1.28
  -4  -1   4   15.41    1.45
   4  -1  -4   14.33    1.13
  -4  -1   4   15.12    1.62
  -4  -1   4   14.61    1.26
   4   1  -3  118.66    6.98
  -4   1   3  112.80    7.91
  -4   1   3  127.60    7.10
  -4  -1   3  125.64    7.34
  -4  -1   3  130.41    7.10
  -4  -1   3  124.71    7.10
  -4  -1   3  116.39    6.97
  -4   1   2   43.75    2.82
  -4   1   2   42.57    3.52
  -4  -1   2   41.96    2.73
  -4  -1   2   44.84    2.78
   4   1  -1   99.27    5.89
  -4   1   1  103.58    5.93
  -4  -1   1  102.92    5.89
  -4  -1   1  105.14    5.83
   4   1   0   35.11    2.25
  -4   1   0   33.14    2.20
  -4   1   0   34.59    2.21
  -4  -1   0   34.63    2.10
  -4  -1   0   33.29    2.62
  -4  -1   0   35.41    2.25
  -4   1  -1  192.76   11.62
  -4   1  -1  244.26   11.89
  -4  -1  -1  198.59   11.99
  -4  -1  -1  215.75   11.55
  -4   1  -2    9.39    1.22
  -4   1  -2    8.92    0.74
   4   1   2    7.64    0.92
   4   1   2    8.12    0.76
  -4  -1  -2    5.34    1.00
   4  -1   2    7.07    0.78
   4  -1   2   10.57    1.20
  -4  -1  -2    8.62    0.88
   4   1   3  118.30    6.89
  -4   1  -3  136.25    7.02
  -4   1  -3  115.45    7.55
   4   1   3  124.98    7.22
  -4  -1  -3  114.86    7.58
   4  -1   3  139.42    7.04
  -4  -1  -3  118.28    7.18
   4  -1   3  142.16    7.36
   4   1   4   36.85    2.58
  -4   1  -4   34.40    2.92
   4   1   4   38.16    2.26
  -4  -1  -4   41.06    3.08
  -4  -1  -4   37.17    2.57
   4  -1   4   33.24    2.26
   4  -1   4   41.46    2.61
  -4   1  -5   46.50    3.77
  -4  -1  -5   52.17    3.34
   4  -1   5   47.49    3.22
  -4  -1  -5   48.87    3.81
   4  -1   5   47.21    3.01
  -4   1  -6   18.67    2.53
   4  -1   6   18.23    1.94
   4  -1   6   22.18    1.69
  -4  -1  -6   25.85    2.38
  -4  -1  -6   21.63    2.78
  -4   1  -7   40.49    3.65
  -4  -1  -7   37.52    3.04
   4  -1   7   41.48    2.80
  -4  -1  -7   34.96    3.45
  -4   1  -8    3.71    1.42
  -4  -1  -8    5.91    1.55
  -4  -1  -8    4.72    1.11
   4  -1   8    3.38    0.84
  -4   1  -9   37.90    4.05
  -4  -1  -9   45.96    4.25
   4  -1   9   40.32    3.23
  -4  -1  -9   47.51    3.65
  -4   2   9    4.07    3.12
  -4  -2   9    3.96    1.17
  -4  -2   9    9.60    2.28
  -4   2   8   45.40    6.78
   4  -2  -8   68.78    4.32
  -4  -2   8   62.51    4.51
  -4   2   7    0.48    2.14
   4   2  -7    1.39    0.95
   4  -2  -7    1.20    0.57
  -4  -2   7    1.06    0.63
   4   2  -6   53.83    4.26
  -4   2   6   57.79    3.86
  -4   2   6   48.54    5.91
   4  -2  -6   60.29    3.73
  -4  -2   6   63.25    4.09
  -4   2   5   12.18    3.18
  -4   2   5    7.67    1.17
   4   2  -5    9.96    1.63
   4   2  -5    9.46    1.14
  -4  -2   5    9.63    1.13
   4  -2  -5   11.17    1.16
  -4  -2   5    9.02    1.31
   4   2  -4  163.42    9.34
  -4   2   4  169.77    9.52
   4   2  -4  166.37    9.90
  -4   2   4  166.51   10.93
  -4  -2   4  159.08    9.52
  -4  -2   4  166.71    9.34
   4   2  -3   11.75    1.24
  -4   2   3   10.25    2.28
  -4   2   3   12.39    1.37
  -4  -2   3   11.05    1.29
  -4  -2   3    9.96    1.14
  -4  -2   3   10.25    1.11
  -4   2   2  574.93   32.04
  -4   2   2  566.24   31.09
   4   2  -2  579.19   31.02
  -4  -2   2  578.30   31.03
   4   2  -1   24.00    1.92
  -4   2   1   28.27    2.00
  -4  -2   1   32.23    1.93
   4   2   0   17.57    1.38
  -4   2   0   15.52    1.21
  -4   2   0   14.82    1.27
  -4  -2   0   16.85    1.14
  -4   2  -1   21.07    1.45
   4   2   1   19.82    1.55
  -4  -2  -1   18.78    2.17
  -4  -2  -1   17.70    1.27
   4  -2   1   20.02    1.65
   4   2   2  492.68   28.73
  -4   2  -2  583.37   28.98
  -4   2  -2  592.61   28.54
   4  -2   2  528.10   28.95
  -4  -2  -2  488.36   28.51
  -4  -2  -2  495.39   29.07
  -4   2  -3   11.67    1.57
   4   2   3   15.97    1.42
  -4   2  -3   13.05    1.03
   4  -2   3   15.48    1.68
  -4  -2  -3   14.18    1.21
  -4  -2  -3   19.54    2.23
  -4   2  -4  102.06    6.87
   4   2   4  110.74    6.67
   4  -2   4  109.96    6.60
  -4  -2  -4  116.26    6.47
  -4  -2  -4  106.66    6.97
  -4   2  -5   17.58    2.43
   4   2   5   17.56    2.13
  -4  -2  -5   16.66    2.28
   4  -2   5   20.48    1.78
   4  -2   5   18.72    1.44
  -4  -2  -5   19.44    1.91
  -4   2  -6   29.74    2.97
   4  -2   6   34.83    2.65
  -4  -2  -6   33.65    2.60
   4  -2   6   31.83    2.27
  -4  -2  -6   29.34    3.01
  -4   2  -7    0.77    0.82
  -4  -2  -7    0.26    0.47
  -4  -2  -7    0.57    0.74
   4  -2   7    0.25    0.63
   4  -2   7    0.33    0.38
  -4   2  -8   42.40    4.02
   4  -2   8   38.47    2.97
  -4  -2  -8   35.91    3.58
  -4  -2  -8   41.15    3.84
   4   2   9    3.17    1.34
  -4   2  -9    0.39    0.92
  -4  -2  -9    1.27    0.85
   4  -2   9    1.82    0.81
  -4  -2  -9    4.70    1.47
  -4   3   9   24.21    5.55
  -4  -3   9   24.50    2.93
   4   3  -8    3.18    1.44
  -4   3   8    7.33    3.38
  -4  -3   8    3.36    1.07
   4  -3  -8    4.79    1.17
  -4   3   7   74.98    7.58
   4   3  -7   69.65    5.44
   4  -3  -7   73.62    4.73
  -4  -3   7   71.20    5.01
   4   3  -6   14.13    2.31
  -4   3   6   20.04    4.08
  -4   3   6   15.44    1.88
  -4  -3   6   21.45    2.31
   4  -3  -6   19.07    1.86
   4   3  -5   28.23    2.75
  -4   3   5   33.55    4.95
  -4   3   5   27.85    2.31
  -4  -3   5   27.60    2.38
  -4   3   4   46.95    3.43
  -4   3   4   49.40    5.08
   4   3  -4   55.91    3.36
   4   3  -4   50.04    3.95
  -4  -3   4   46.87    3.42
  -4   3   3   97.12    7.18
   4   3  -3   98.91    5.80
  -4   3   3   95.76    5.93
  -4  -3   3   94.87    5.82
   4   3  -2    3.32    0.68
  -4   3   2    3.30    1.63
  -4   3   2    2.70    0.68
  -4  -3   2    3.60    0.69
   4   3  -1  186.58   10.73
  -4   3   1  190.88   10.74
  -4  -3   1  190.60   10.52
  -4   3   0   13.07    1.45
  -4   3   0   14.44    1.23
   4   3   0   15.19    1.62
  -4  -3   0   16.06    1.14
  -4   3  -1   53.56    3.30
   4   3   1   50.77    3.46
  -4  -3  -1   53.24    2.98
   4  -3   1   49.03    3.52
  -4   3  -2   57.74    3.25
   4   3   2   50.64    3.51
  -4   3  -2   61.72    3.69
   4   3   2   44.02    3.73
   4  -3   2   45.82    3.61
  -4  -3  -2   50.67    4.00
  -4  -3  -2   50.82    3.17
   4   3   3   15.30    1.84
   4   3   3   13.22    1.68
  -4   3  -3   14.65    1.16
  -4   3  -3   14.26    1.91
   4  -3   3   15.16    1.89
  -4  -3  -3   15.04    1.26
  -4  -3  -3   14.40    2.18
  -4   3  -4   20.00    2.15
   4   3   4   23.45    2.47
   4   3   4   25.58    2.61
  -4  -3  -4   21.86    1.79
   4  -3   4   21.05    2.26
  -4  -3  -4   23.13    2.84
   4   3   5   75.17    5.41
   4   3   5   87.57    6.10
  -4   3  -5   72.30    5.59
  -4  -3  -5   92.11    6.08
  -4  -3  -5   79.26    5.08
   4  -3   5   79.47    5.29
  -4   3  -6    1.96    0.98
   4   3   6    5.22    1.68
   4  -3   6    1.82    0.54
  -4  -3  -6    3.97    0.89
  -4  -3  -6    3.81    1.25
   4  -3   6    2.41    0.89
   4   3   7   43.04    4.29
  -4   3  -7   35.72    3.67
  -4  -3  -7   38.55    3.74
   4  -3   7   37.91    2.80
  -4  -3  -7   39.50    3.12
   4  -3   7   36.93    3.16
  -4   3  -8   14.78    2.61
   4   3   8   19.19    3.46
   4  -3   8   15.91    3.24
  -4  -3  -8   20.36    2.43
   4  -3   8   16.94    1.96
  -4  -3  -8   19.95    2.95
  -4   3  -9    2.90    1.44
   4   3   9    5.38    1.89
  -4  -3  -9    4.88    1.67
  -4  -3  -9    1.92    0.95
   4  -3   9    2.03    0.84
   4   4  -8   26.98    3.71
  -4   4   8   38.59    6.47
  -4  -4   8   25.56    3.07
   4  -4  -8   27.59    2.80
   4   4  -7   12.74    2.39
  -4   4   7   13.62    4.24
  -4   4   7   14.43    2.03
   4  -4  -7   18.95    2.10
  -4  -4   7   16.98    2.28
  -4   4   6   45.85    6.36
  -4   4   6   41.88    3.28
   4   4  -6   33.73    3.61
  -4  -4   6   43.02    3.36
   4  -4  -6   42.93    3.05
   4   4  -5   11.38    2.08
  -4   4   5    9.88    3.22
  -4   4   5   10.34    1.63
  -4  -4   5   14.24    1.76
  -4   4   4  138.29   10.06
   4   4  -4  145.44    8.24
   4   4  -4  134.35    9.01
  -4   4   4  134.47    8.45
  -4  -4   4  143.95    8.37
   4   4  -3   50.83    3.30
  -4   4   3   39.61    4.73
  -4   4   3   49.32    3.48
  -4  -4   3   44.75    3.22
  -4   4   2   65.59    4.52
   4   4  -2   72.60    4.47
  -4  -4   2   66.46    4.29
   4   4  -1   19.44    1.76
  -4   4   1   20.56    1.83
  -4   4   1   19.69    1.60
  -4  -4   1   18.16    1.53
   4   4   0  223.45   12.96
  -4   4   0  225.30   12.88
  -4   4   0  225.58   12.72
   4  -4   0  225.33   13.01
  -4  -4   0  236.93   12.55
  -4   4  -1   46.89    3.12
  -4   4  -1   42.21    3.18
   4   4   1   43.84    3.50
   4   4   1   48.81    3.38
  -4  -4  -1   47.54    2.76
   4  -4   1   46.87    3.42
   4   4   2   33.62    2.79
   4   4   2   34.62    3.32
  -4   4  -2   38.09    2.89
  -4   4  -2   34.76    2.46
   4  -4   2   33.83    2.90
   4   4   3   48.05    3.73
   4   4   3   42.97    4.34
  -4   4  -3   56.96    3.89
  -4   4  -3   48.68    3.13
   4  -4   3   45.94    3.67
  -4  -4  -3   57.26    4.41
  -4  -4  -3   48.79    3.22
   4   4   4  108.62    8.09
  -4   4  -4  114.79    7.50
   4   4   4  114.35    7.44
  -4  -4  -4  120.30    6.88
  -4  -4  -4  122.22    7.83
   4  -4   4  110.49    7.25
   4   4   5    0.21    0.73
  -4   4  -5    0.79    0.70
   4   4   5   -0.95    1.30
  -4  -4  -5    0.78    1.27
  -4  -4  -5    0.75    0.47
   4  -4   5    0.61    0.57
  -4   4  -6   24.68    3.20
   4   4   6   28.44    4.13
   4  -4   6   24.92    2.71
  -4  -4  -6   23.24    3.13
  -4  -4  -6   22.99    2.40
   4   4   7   33.03    4.62
  -4   4  -7   31.21    3.82
  -4  -4  -7   25.97    3.44
   4  -4   7   23.00    2.76
  -4  -4  -7   20.80    2.46
   4  -4   7   22.86    2.27
  -4   4  -8   14.78    2.78
   4   4   8   18.17    3.73
   4  -4   8   12.46    1.70
  -4  -4  -8   13.85    2.02
   4  -4   8   12.49    2.09
  -4  -4  -8   19.21    3.11
  -4   5   8   21.29    5.14
   4   5  -8   11.51    2.62
   4  -5  -8   12.57    1.90
  -4  -5   8   17.80    2.54
  -4   5   7    1.93    2.64
  -4   5   7    3.40    1.26
   4   5  -7    2.63    1.25
  -4  -5   7    1.91    0.96
   4  -5  -7    2.76    0.87
  -4   5   6   15.93    2.34
   4   5  -6   22.92    3.30
  -4   5   6   18.89    4.53
  -4  -5   6   26.13    2.80
  -4   5   5   59.54    4.35
  -4   5   5   56.17    5.94
   4   5  -5   61.57    5.00
  -4  -5   5   48.19    4.01
  -4   5   4   29.99    4.68
   4   5  -4   32.28    3.34
  -4   5   4   28.50    2.76
   4   5  -4   34.25    2.66
  -4  -5   4   32.52    2.70
  -4   5   3   34.97    3.02
   4   5  -3   38.88    2.89
  -4  -5   3   33.08    2.77
  -4   5   2   54.55    3.98
   4   5  -2   52.16    3.81
  -4  -5   2   54.47    3.69
   4   5  -1    2.77    0.83
  -4   5   1    3.25    0.94
  -4  -5   1    2.27    0.63
   4  -5  -1    2.60    0.86
  -4   5   0   41.63    3.22
  -4   5   0   43.15    3.13
   4   5   0   48.68    3.46
   4  -5   0   40.26    3.27
  -4  -5   0   44.39    2.90
  -4   5  -1   28.26    2.46
   4   5   1   30.10    2.62
  -4   5  -1   29.26    2.40
   4  -5   1   30.31    2.69
  -4   5  -2   45.24    3.18
   4   5   2   43.61    3.59
  -4   5  -2   44.57    3.55
   4   5   2   47.13    4.13
   4  -5   2   42.66    3.53
   4   5   3   51.16    4.66
  -4   5  -3   48.78    3.85
   4   5   3   41.39    3.65
   4  -5   3   41.19    3.53
   4   5   4   37.70    3.57
   4   5   4   44.07    4.78
  -4   5  -4   40.38    3.71
  -4  -5  -4   44.72    4.32
  -4  -5  -4   46.93    3.14
   4  -5   4   43.86    3.55
   4   5   5   10.57    3.01
   4   5   5   12.15    2.01
  -4   5  -5    9.71    1.94
  -4  -5  -5    9.07    1.32
  -4  -5  -5    8.64    2.37
   4  -5   5    8.45    1.64
   4   5   6   22.34    2.91
  -4   5  -6   17.46    2.87
   4   5   6   17.83    3.97
   4  -5   6   20.85    2.64
  -4  -5  -6   19.88    2.26
  -4  -5  -6   23.74    3.36
   4   5   7    4.22    2.79
  -4   5  -7    5.83    1.84
  -4  -5  -7    6.20    1.31
   4  -5   7    7.76    1.74
  -4  -5  -7    4.79    2.01
  -4   5  -8   15.66    2.98
   4   5   8   10.87    3.92
  -4  -5  -8   11.22    1.85
   4  -5   8   10.33    2.01
   4  -5   8   16.74    1.90
   4   6  -7    4.77    1.83
  -4   6   7    4.51    1.54
  -4   6   7    2.48    3.07
  -4  -6   7    1.51    1.15
   4  -6  -7    3.93    1.13
   4   6  -6   41.22    4.35
  -4   6   6   41.36    3.81
  -4   6   6   39.87    5.98
  -4  -6   6   43.30    3.71
   4   6  -5    8.38    2.23
  -4   6   5    8.23    3.20
  -4   6   5    6.22    1.58
  -4  -6   5    9.07    1.69
   4   6  -4   12.27    2.41
  -4   6   4   10.52    1.90
  -4  -6   4   14.36    2.04
   4   6  -3    2.54    0.95
  -4   6   3    1.84    0.92
  -4  -6   3    1.56    0.80
  -4   6   2   59.03    4.66
   4   6  -2   67.22    4.69
   4  -6  -2   67.59    4.57
  -4  -6   2   60.15    4.33
  -4   6   1   25.91    2.89
   4   6  -1   22.23    2.60
   4  -6  -1   17.09    2.31
  -4  -6   1   23.67    2.04
  -4   6   0   31.01    2.78
   4   6   0   32.01    2.95
   4  -6   0   32.55    2.87
  -4  -6   0   30.59    2.41
  -4   6  -1    4.20    1.11
  -4   6  -1    7.14    1.44
   4   6   1    4.63    1.26
   4  -6   1    6.84    1.47
  -4   6  -2   52.37    3.74
   4   6   2   51.18    4.19
  -4   6  -2   50.93    4.09
   4  -6   2   49.33    4.02
   4   6   3   21.92    3.45
  -4   6  -3   21.76    2.90
   4   6   3   21.54    2.93
   4  -6   3   18.23    2.48
   4   6   4   17.56    3.54
  -4   6  -4   17.16    2.67
   4   6   4   14.18    2.38
   4  -6   4   12.44    2.04
  -4  -6  -4   23.29    2.25
   4   6   5   41.21    5.39
  -4   6  -5   39.19    3.84
   4   6   5   33.73    3.81
   4  -6   5   30.79    3.52
  -4  -6  -5   34.45    2.88
   4   6   6   44.97    6.18
   4   6   6   38.57    4.19
  -4   6  -6   39.71    4.18
  -4  -6  -6   41.74    3.31
   4  -6   6   38.68    4.12
  -4   6  -7    8.31    2.24
   4   6   7    3.23    3.16
   4  -6   7    2.43    1.24
  -4  -6  -7    6.02    1.36
   4   7  -7   13.14    2.98
  -4   7   7   10.30    2.39
  -4   7   7   12.68    4.14
   4   7  -6   11.16    2.61
  -4   7   6   12.82    3.65
  -4   7   6   13.28    2.44
  -4  -7   6   11.47    2.15
  -4   7   5    0.56    1.06
   4   7  -5    0.13    1.10
  -4  -7   5   -0.31    0.91
  -4   7   4    9.84    2.16
   4   7  -4   17.66    3.08
  -4  -7   4    9.15    1.87
   4  -7  -4   11.62    1.97
  -4   7   3   13.84    2.33
   4   7  -3   15.90    2.36
   4  -7  -3   17.31    2.29
  -4  -7   3   12.81    2.02
  -4   7   2   46.91    4.17
   4   7  -2   52.66    4.25
  -4  -7   2   48.74    3.86
   4  -7  -2   52.43    4.00
  -4   7   1    1.27    0.88
   4   7  -1    1.60    1.01
  -4  -7   1    2.25    0.92
   4  -7  -1    2.06    0.96
   4   7   0   49.38    4.11
  -4   7   0   40.76    3.68
   4  -7   0   51.83    4.02
  -4   7  -1    0.73    0.66
   4   7   1    2.03    0.98
   4  -7   1   -0.37    0.73
  -4   7  -2    9.87    1.94
   4   7   2    5.98    1.54
  -4   7  -2    8.92    1.60
   4  -7   2    8.43    1.72
  -4   7  -3   11.43    2.19
   4   7   3   11.59    2.16
   4  -7   3    8.99    1.83
  -4   7  -4   33.33    4.06
   4   7   4   34.41    3.84
   4  -7   4   30.36    3.47
  -4   7  -5    2.08    1.38
   4   7   5    1.38    0.98
   4  -7   5    3.16    1.29
  -4  -7  -5    3.15    1.02
   4   7   6   37.75    8.18
   4   7   6   30.86    3.75
  -4   7  -6   24.92    3.97
  -4  -7  -6   25.76    2.90
   4  -7   6   25.75    3.37
   4   7   7    6.50    3.76
  -4   7  -7    6.26    2.25
   4  -7   7    9.99    3.34
  -4  -7  -7   10.70    1.95
  -4   8   6    3.76    1.62
  -4   8   5    2.07    1.31
   4   8  -5   -0.45    0.96
  -4  -8   5   -0.92    1.03
  -4   8   4   22.01    3.38
   4   8  -4   36.33    4.75
  -4  -8   4   30.78    3.60
   4   8  -3    8.69    2.03
  -4   8   3   11.77    2.30
   4  -8  -3    9.78    1.84
  -4  -8   3    7.41    1.72
   4   8  -2   19.14    2.80
  -4   8   2   16.31    2.66
   4  -8  -2   24.96    3.00
  -4  -8   2   20.51    2.65
  -4   8   1    0.54    0.78
   4   8  -1    1.00    1.06
   4  -8  -1    0.71    0.96
  -4   8   0   13.15    2.16
   4   8   0   10.86    2.15
   4  -8   0   12.05    2.16
   4   8   1   15.53    2.67
  -4   8  -1   15.81    2.39
   4  -8   1   13.10    2.24
   4   8   2   39.41    4.08
  -4   8  -2   27.78    3.24
   4  -8   2   26.98    3.29
  -4   8  -3   13.17    2.70
   4   8   3   15.57    2.59
   4  -8   3   24.16    3.07
  -4   8  -4   32.84    4.39
   4   8   4   32.18    3.91
   4  -8   4   32.47    3.88
  -4   8  -5    2.48    1.71
   4   8   5    7.21    1.89
  -4  -8  -5    4.34    1.29
   4  -8   5    3.85    1.38
  -4  -8  -6    4.88    1.46
   4   9  -4   28.44    4.39
  -4   9   4   21.14    3.50
  -4  -9   4   17.89    2.96
   4   9  -3    6.19    2.05
  -4   9   3    5.46    1.83
  -4  -9   3    5.06    1.63
   4   9  -2    6.33    1.89
  -4   9   2    3.91    1.45
   4  -9  -2    6.65    1.86
   4   9  -1   11.16    2.26
  -4   9   1    8.32    1.90
   4  -9  -1   12.06    2.22
   4   9   0   12.37    2.28
  -4   9   0    5.23    1.53
   4  -9   0   10.00    2.03
   4   9   1   18.00    2.85
  -4   9  -1   17.76    2.67
   4  -9   1   20.10    2.87
   4   9   2   35.28    4.17
   4  -9   2   28.34    3.47
   4   9   3    6.35    1.90
   4  -9   3    8.85    2.02
   4   9   4   11.17    2.35
  -4   9  -4    8.26    2.58
   4  -9   4   11.16    2.38
  -4  10   1    6.85    1.88
   4  10  -1    4.14    1.74
   4 -10  -1    9.92    2.21
   4  10   0   13.15    2.55
  -4  10   0   12.61    2.45
   4 -10   0   10.64    2.21
  -4  10  -1    6.82    1.90
   4  10   1    6.56    2.02
   4 -10   1    6.23    1.87
  -5   0   9    2.35    2.13
  -5   0   9   -0.01    0.74
  -5   0   8   62.31    6.16
  -5   0   8   62.43    4.57
  -5   0   7    0.80    0.59
  -5   0   7   -0.03    1.37
  -5   0   6   45.47    3.30
  -5   0   6   43.86    3.13
  -5   0   6   41.28    4.44
  -5   0   5    0.04    0.35
  -5   0   5   -0.04    0.32
  -5   0   5   -1.62    1.33
   5   0  -4   48.57    2.74
  -5   0   4   42.74    3.03
   5   0  -4   44.81    3.05
  -5   0   4   43.34    3.10
  -5   0   3    1.52    1.25
  -5   0   2  159.44    9.00
  -5   0   2  156.29    8.97
  -5   0   2  160.05    9.48
  -5   0   1    0.10    0.20
  -5   0   0   77.82    4.60
   5   0   0   77.23    4.26
   5   0   0   78.51    4.63
   5   0   1    0.19    0.23
  -5   0  -1    0.19    0.25
  -5   0  -1    0.22    0.37
   5   0   2   83.32    4.15
   5   0   2   68.57    4.45
   5   0   2   79.85    4.51
  -5   0  -2   71.66    4.46
  -5   0  -2   71.22    4.81
   5   0   3   -0.01    0.12
  -5   0  -3   -0.28    0.29
   5   0   3    0.15    0.23
  -5   0  -3    0.17    0.23
   5   0   3    0.10    0.31
   5   0   4  231.37   12.68
  -5   0  -4  222.08   13.38
   5   0   4  231.60   12.67
  -5   0  -4  237.62   12.90
   5   0   4  226.33   12.53
  -5   0  -5    0.14    0.36
   5   0   5    0.28    0.26
  -5   0  -5    0.09    0.44
  -5   0  -6   31.15    2.48
   5   0   6   31.39    2.20
  -5   0  -6   28.07    2.91
   5   0   7    0.44    0.38
  -5   0  -7   -0.22    0.58
  -5   0  -7   -0.07    0.47
  -5   0  -8   41.83    3.35
  -5   0  -8   38.55    3.87
  -5   0  -9    0.81    0.92
  -5   1   9   11.45    2.00
  -5   1   9   14.15    4.22
  -5  -1   9   17.89    2.37
  -5  -1   9   19.39    3.50
  -5   1   8    1.66    0.86
  -5   1   8    1.85    2.61
  -5  -1   8    2.57    0.87
  -5  -1   8    5.13    1.74
  -5   1   7    6.83    2.99
  -5   1   7   11.60    1.67
  -5  -1   7   11.11    2.37
  -5  -1   7   11.83    1.72
  -5   1   6   37.79    2.88
  -5   1   6   43.76    3.12
   5   1  -6   38.32    3.34
  -5   1   6   35.79    5.06
  -5  -1   6   40.56    3.82
  -5  -1   6   39.17    3.01
   5   1  -5   29.58    2.51
   5   1  -5   27.60    2.21
  -5   1   5   30.42    2.31
  -5   1   5   26.97    2.31
  -5   1   5   29.77    4.32
  -5  -1   5   30.46    2.26
  -5  -1   5   31.87    2.42
   5  -1  -5   30.33    2.05
   5   1  -4   28.10    2.41
  -5   1   4   33.70    3.77
  -5   1   4   29.97    2.27
   5   1  -4   32.46    2.27
  -5  -1   4   31.21    2.83
  -5  -1   4   29.50    2.21
  -5  -1   4   29.78    2.30
   5  -1  -4   30.64    1.98
  -5   1   3   73.86    4.61
  -5   1   3   70.96    5.51
   5   1  -3   80.11    4.62
  -5  -1   3   66.58    4.99
  -5  -1   3   78.37    4.60
  -5  -1   3   79.96    4.65
  -5   1   2   14.08    1.25
   5   1  -2   13.27    1.22
  -5  -1   2   14.22    1.22
  -5  -1   2   13.63    1.23
   5   1  -1   99.09    5.88
  -5   1   1  103.38    5.89
  -5  -1   1  101.40    5.87
  -5  -1   1  111.80    5.82
   5  -1  -1   88.20    5.65
  -5   1   0   27.25    1.80
   5   1   0   23.61    1.76
  -5   1   0   24.24    1.81
  -5  -1   0   24.13    1.77
  -5  -1   0   23.12    2.31
  -5   1  -1  116.65    6.87
   5   1   1  109.49    6.93
  -5   1  -1  135.15    7.11
  -5  -1  -1  123.00    6.72
  -5  -1  -1  120.85    7.34
  -5   1  -2   59.47    3.35
  -5   1  -2   61.41    3.76
   5   1   2   53.86    3.46
   5   1   2   45.27    3.18
   5  -1   2   60.43    3.39
  -5  -1  -2   49.65    3.81
   5  -1   2   61.36    3.61
  -5  -1  -2   51.92    3.31
   5   1   3  147.63    8.77
  -5   1  -3  130.91    9.05
   5   1   3  145.63    8.45
  -5   1  -3  171.29    8.62
   5  -1   3  175.03    9.00
  -5  -1  -3  141.51    9.20
   5  -1   3  176.15    8.64
  -5  -1  -3  147.18    8.73
   5   1   4   29.67    2.20
  -5   1  -4   28.66    2.62
   5  -1   4   35.04    2.30
  -5  -1  -4   31.18    2.26
   5  -1   4   27.76    1.86
  -5  -1  -4   28.35    2.67
  -5   1  -5   68.47    5.20
  -5  -1  -5   71.44    5.28
   5  -1   5   76.69    4.63
   5  -1   5   78.19    4.37
  -5  -1  -5   71.20    4.71
  -5   1  -6   31.31    3.03
   5  -1   6   30.07    2.15
  -5  -1  -6   27.91    2.93
  -5  -1  -6   30.55    2.49
  -5   1  -7   17.79    2.71
  -5  -1  -7   20.16    2.27
  -5  -1  -7   19.18    2.88
   5  -1   7   21.53    1.78
  -5   1  -8   14.64    2.60
  -5  -1  -8   18.35    2.91
  -5  -1  -8   13.88    1.96
   5  -1   8   17.64    1.87
  -5   1  -9   19.28    3.07
   5  -1   9   15.74    1.92
  -5  -1  -9   13.99    2.59
  -5  -1  -9   12.87    1.98
  -5   2   9    8.05    3.83
  -5  -2   9    5.96    1.42
  -5   2   8   11.06    3.64
  -5  -2   8   11.16    1.74
   5   2  -7   12.88    2.20
  -5   2   7   15.14    3.99
  -5  -2   7   11.63    1.76
  -5   2   6   43.72    5.67
  -5   2   6   36.79    2.79
   5   2  -6   31.30    3.04
  -5  -2   6   33.68    2.82
   5  -2  -6   37.26    2.55
   5   2  -5    3.16    0.72
  -5   2   5    5.14    0.98
   5   2  -5    4.15    1.08
  -5   2   5    3.86    2.47
  -5  -2   5    4.30    0.96
   5  -2  -5    5.12    0.79
  -5  -2   5    3.13    0.74
   5   2  -4   85.62    5.22
  -5   2   4   88.55    6.84
  -5   2   4   78.94    5.29
   5   2  -4   93.86    5.79
  -5  -2   4   84.42    5.21
  -5   2   3   29.06    2.14
   5   2  -3   27.71    2.04
  -5   2   3   27.86    3.34
  -5  -2   3   26.65    2.12
  -5  -2   3   26.55    2.06
  -5  -2   3   24.76    1.98
  -5   2   2   44.19    3.04
   5   2  -2   47.72    3.03
  -5   2   2   39.29    4.01
  -5  -2   2   44.98    2.99
  -5  -2   2   48.23    2.99
  -5   2   1   50.82    3.46
   5   2  -1   54.17    3.48
  -5  -2   1   58.43    3.37
  -5   2   0  121.20    7.12
   5   2   0  122.91    7.19
  -5   2   0  118.45    6.99
  -5  -2   0  131.73    6.92
  -5   2  -1    1.04    0.38
   5   2   1    1.84    0.58
   5  -2   1    1.64    0.57
  -5  -2  -1    1.72    0.34
  -5  -2  -1    1.86    1.08
  -5   2  -2  229.59   11.79
   5   2   2  188.20   11.53
  -5   2  -2  225.61   11.37
  -5  -2  -2  193.53   11.29
  -5  -2  -2  191.75   11.98
   5  -2   2  199.00   11.72
   5   2   3   31.82    2.39
  -5   2  -3   31.37    2.57
  -5   2  -3   32.54    2.09
   5  -2   3   37.62    2.65
  -5  -2  -3   29.12    2.18
  -5  -2  -3   30.22    2.92
  -5   2  -4   37.45    3.16
   5   2   4   41.82    3.01
  -5  -2  -4   34.26    3.34
  -5  -2  -4   40.61    2.81
   5  -2   4   49.46    3.13
   5   2   5   10.82    1.63
  -5   2  -5   10.83    1.82
  -5  -2  -5    9.31    1.34
   5  -2   5   11.94    1.11
  -5  -2  -5    8.87    1.79
   5  -2   5   10.92    1.49
  -5   2  -6   73.33    5.77
   5  -2   6   79.38    4.87
   5  -2   6   83.87    5.29
  -5  -2  -6   86.43    6.04
  -5  -2  -6   84.15    5.30
  -5   2  -7    0.12    0.73
  -5  -2  -7    1.46    0.92
   5  -2   7    0.24    0.38
  -5  -2  -7    1.85    0.77
  -5   2  -8   49.23    4.60
  -5  -2  -8   51.61    4.59
   5  -2   8   50.91    3.57
  -5  -2  -8   52.42    4.01
  -5   2  -9    3.36    1.53
  -5  -2  -9    6.47    1.48
  -5  -2  -9    7.11    1.79
   5  -2   9    4.42    1.03
  -5   3   9    5.89    3.87
  -5  -3   9    6.24    1.74
  -5   3   8   34.03    5.72
   5   3  -8   47.13    6.33
  -5  -3   8   32.56    3.44
  -5   3   7   17.90    4.03
   5   3  -7   23.43    3.04
  -5   3   7   19.38    2.55
   5  -3  -7   22.27    2.20
  -5  -3   7   18.05    2.30
  -5   3   6    2.57    2.62
  -5   3   6    5.42    1.13
   5   3  -6    3.43    1.17
   5  -3  -6    4.63    0.91
  -5  -3   6    4.11    1.06
   5   3  -5   40.29    3.07
   5   3  -5   39.25    3.49
  -5   3   5   39.96    3.03
  -5   3   5   41.16    5.33
  -5  -3   5   40.41    3.08
   5   3  -4   87.05    5.38
  -5   3   4   84.81    5.50
  -5   3   4   90.28    7.18
   5   3  -4   88.16    6.03
  -5  -3   4   87.16    5.51
   5   3  -3    4.61    0.85
  -5   3   3    5.01    0.94
  -5   3   3    3.39    1.92
  -5  -3   3    4.68    0.90
   5   3  -2   77.57    4.78
  -5   3   2   75.66    4.80
  -5  -3   2   74.70    4.65
   5   3  -1   52.90    3.59
  -5   3   1   52.33    3.57
  -5  -3   1   57.14    3.41
  -5   3   0   56.28    3.42
   5   3   0   56.98    3.71
  -5   3   0   53.41    3.54
  -5  -3   0   53.87    3.30
  -5   3  -1  128.53    7.75
  -5   3  -1  139.62    7.71
   5   3   1  139.49    7.92
  -5  -3  -1  132.12    7.32
  -5  -3  -1  132.63    7.43
   5  -3   1  129.40    7.96
   5   3   2   24.43    2.35
  -5   3  -2   34.13    2.06
  -5   3  -2   29.69    2.32
   5   3   2   25.41    2.19
   5  -3   2   22.62    2.52
  -5  -3  -2   24.93    1.85
  -5  -3  -2   28.18    2.84
  -5   3  -3   39.28    2.70
   5   3   3   50.15    3.30
   5   3   3   43.51    3.39
  -5   3  -3   51.68    3.46
  -5  -3  -3   42.01    2.85
  -5  -3  -3   38.54    3.74
   5  -3   3   39.85    3.24
  -5   3  -4   88.51    6.02
   5   3   4   86.76    6.10
   5   3   4   82.69    5.76
  -5  -3  -4   95.38    5.51
   5  -3   4   89.65    5.82
  -5  -3  -4   94.48    6.44
  -5   3  -5   33.73    3.19
   5   3   5   37.10    3.51
   5   3   5   32.23    3.06
  -5  -3  -5   40.36    2.77
  -5  -3  -5   38.10    3.74
   5  -3   5   33.87    2.89
   5   3   6   18.40    2.93
  -5   3  -6    8.53    1.88
  -5  -3  -6   15.15    2.54
   5  -3   6   16.37    2.02
   5  -3   6   13.58    1.42
  -5  -3  -6   14.36    1.76
  -5   3  -7   28.35    3.79
   5   3   7   37.28    3.93
  -5  -3  -7   42.52    3.92
  -5  -3  -7   31.39    2.81
   5  -3   7   38.33    3.10
   5  -3   7   30.24    2.48
   5   3   8   19.98    3.60
  -5   3  -8   22.91    3.38
   5  -3   8   14.99    1.86
  -5  -3  -8   22.38    3.32
  -5  -3  -8   16.89    2.35
   5   3   9    6.96    2.15
  -5   3  -9    4.88    1.83
  -5  -3  -9    9.90    2.27
  -5  -3  -9    7.95    1.64
   5  -3   9    5.35    1.18
  -5   4   8   26.29    5.42
   5   4  -8   25.18    3.52
   5  -4  -8   23.02    2.57
  -5  -4   8   22.27    2.80
  -5   4   7    2.19    0.95
  -5   4   7    3.34    2.87
   5   4  -7    1.29    1.03
  -5  -4   7    1.66    0.85
   5  -4  -7    1.06    0.66
  -5   4   6   23.78    4.64
   5   4  -6   27.87    3.46
  -5   4   6   18.41    2.31
  -5  -4   6   23.45    2.64
  -5   4   5   31.06    2.81
  -5   4   5   36.42    5.05
   5   4  -5   35.98    3.45
  -5  -4   5   38.21    2.94
   5   4  -4   34.81    2.64
  -5   4   4   34.97    5.04
  -5   4   4   32.95    2.77
  -5  -4   4   32.05    2.67
   5   4  -3   37.24    2.75
  -5   4   3   34.60    2.82
  -5   4   3   35.42    4.30
  -5  -4   3   35.95    2.70
   5   4  -2   73.56    4.70
  -5   4   2   69.41    4.73
  -5  -4   2   72.05    4.52
  -5   4   1    6.75    1.19
   5   4  -1   11.34    1.49
   5   4   0   55.10    4.14
  -5   4   0   62.38    4.13
  -5   4   0   63.31    3.97
   5  -4   0   68.50    4.39
  -5  -4   0   64.60    3.81
  -5   4  -1   56.31    3.98
  -5   4  -1   62.25    3.94
   5   4   1   61.44    4.19
   5  -4   1   64.69    4.31
   5   4   2   60.95    4.33
  -5   4  -2   69.10    4.41
   5   4   2   62.38    4.73
  -5   4  -2   60.94    3.94
  -5  -4  -2   61.81    3.84
   5  -4   2   59.08    4.46
   5   4   3   26.66    2.57
  -5   4  -3   35.71    2.88
   5   4   3   27.48    3.59
  -5   4  -3   30.30    2.16
  -5  -4  -3   30.24    2.21
   5  -4   3   26.67    2.92
  -5  -4  -3   36.51    3.84
   5   4   4   58.97    4.35
   5   4   4   53.91    4.89
  -5   4  -4   58.65    4.42
   5  -4   4   47.71    4.08
  -5  -4  -4   58.42    4.96
  -5  -4  -4   60.02    3.77
  -5   4  -5    9.87    1.89
   5   4   5    7.77    1.69
   5   4   5   12.24    2.56
  -5  -4  -5    8.66    2.01
   5  -4   5    8.82    1.56
  -5  -4  -5    8.21    1.26
  -5   4  -6   30.65    3.71
   5   4   6   33.24    3.84
  -5  -4  -6   26.35    3.61
   5  -4   6   34.33    2.95
  -5  -4  -6   30.92    2.61
   5   4   7   24.75    3.92
  -5   4  -7   17.65    2.92
   5  -4   7   23.85    2.72
  -5  -4  -7   20.39    3.14
  -5  -4  -7   17.79    2.24
   5  -4   7   18.60    1.92
  -5   4  -8   20.95    3.39
   5   4   8   31.08    4.72
   5  -4   8   21.43    2.99
   5  -4   8   23.77    2.42
  -5  -4  -8   24.21    2.86
  -5  -4  -8   27.67    3.89
  -5   5   8   15.30    4.52
   5   5  -8   13.08    2.88
  -5  -5   8   11.63    2.44
   5  -5  -8   17.92    2.17
  -5   5   7    2.81    1.14
  -5   5   7    3.55    2.67
   5   5  -7    4.69    1.75
  -5  -5   7    4.93    1.41
   5  -5  -7    3.90    1.10
  -5   5   6   47.77    6.52
   5   5  -6   38.38    4.02
  -5   5   6   36.15    3.34
  -5  -5   6   41.13    3.48
   5   5  -5    4.97    1.58
  -5   5   5    6.57    2.91
  -5   5   5    7.18    1.49
  -5  -5   5    6.46    1.41
  -5   5   4   48.48    3.82
   5   5  -4   49.23    3.63
  -5   5   4   51.45    5.69
  -5  -5   4   46.84    3.62
  -5   5   3   36.96    3.06
   5   5  -3   38.77    2.92
  -5  -5   3   30.69    2.68
   5   5  -2   85.37    5.69
  -5   5   2   88.72    5.88
  -5  -5   2   89.25    5.50
   5   5  -1   34.18    2.82
  -5   5   1   31.37    2.74
   5  -5  -1   35.84    2.89
  -5   5   0   59.27    4.24
   5   5   0   62.21    4.38
  -5  -5   0   63.96    3.86
   5  -5   0   59.88    4.35
  -5   5  -1    1.98    0.72
  -5   5  -1    2.53    0.87
   5   5   1    0.65    0.59
   5  -5   1    1.03    0.74
   5   5   2   85.05    5.60
  -5   5  -2   78.71    5.03
  -5   5  -2   77.70    5.41
   5  -5   2   77.43    5.57
  -5   5  -3   65.25    4.94
   5   5   3   63.44    4.96
   5  -5   3   65.86    4.92
  -5  -5  -3   74.14    4.38
   5   5   4   41.51    4.64
   5   5   4   45.12    3.89
  -5   5  -4   45.07    3.91
  -5  -5  -4   44.01    3.18
  -5  -5  -4   47.26    4.64
   5  -5   4   47.91    3.78
   5   5   5   25.45    4.17
   5   5   5   27.52    3.27
  -5   5  -5   25.79    3.43
   5  -5   5   27.80    3.15
  -5  -5  -5   28.23    3.76
  -5  -5  -5   26.76    2.60
  -5   5  -6   53.14    4.74
   5   5   6   53.85    4.41
   5   5   6   40.78    5.93
  -5  -5  -6   48.26    4.96
  -5  -5  -6   51.85    3.78
   5  -5   6   48.96    4.06
   5   5   7    5.47    2.96
  -5   5  -7    1.22    1.12
  -5  -5  -7    3.66    0.99
   5  -5   7    1.01    0.98
  -5  -5  -7    1.53    1.87
  -5   5  -8   14.51    2.99
   5   5   8   12.75    4.00
   5  -5   8   13.78    2.34
  -5  -5  -8   16.78    3.47
  -5  -5  -8   16.45    2.24
   5  -5   8   16.10    1.94
  -5   6   7   30.56    3.58
  -5   6   7   27.58    5.54
   5   6  -7   20.91    3.56
  -5  -6   7   26.74    3.25
   5  -6  -7   27.37    2.86
   5   6  -6   26.96    3.89
  -5   6   6   33.91    5.67
  -5   6   6   26.99    3.41
  -5  -6   6   31.52    3.37
  -5   6   5    5.04    1.49
  -5   6   5    2.96    2.34
   5   6  -5    3.46    1.50
  -5  -6   5    4.92    1.31
   5   6  -4   19.60    2.34
   5   6  -4   13.55    2.61
  -5   6   4   14.04    2.24
  -5  -6   4    9.86    1.75
  -5   6   3   28.75    3.23
   5   6  -3   24.00    2.83
  -5  -6   3   29.77    2.58
   5   6  -2   67.97    5.01
  -5   6   2   72.35    5.19
   5  -6  -2   74.21    5.03
  -5  -6   2   67.18    4.70
  -5   6   1   42.80    3.56
   5   6  -1   43.94    3.61
   5  -6  -1   43.30    3.51
  -5  -6   1   42.67    3.16
  -5   6   0   57.94    4.28
   5   6   0   58.98    4.43
   5  -6   0   53.47    4.30
  -5   6  -1    0.87    0.67
   5   6   1    0.16    0.67
   5  -6   1    0.28    0.69
  -5   6  -2   42.42    3.64
   5   6   2   44.68    3.79
  -5   6  -2   40.23    3.19
   5  -6   2   38.26    3.53
   5   6   3   33.26    3.88
  -5   6  -3   36.23    3.50
  -5  -6  -3   41.50    2.89
   5  -6   3   36.67    3.82
   5   6   4   51.15    4.38
  -5   6  -4   46.75    4.36
   5  -6   4   46.60    4.09
  -5  -6  -4   55.06    3.65
   5   6   5   19.53    2.85
  -5   6  -5   15.72    2.79
   5  -6   5   17.25    2.60
  -5  -6  -5   17.05    2.08
   5   6   6   20.89    3.02
  -5   6  -6   23.01    3.56
  -5  -6  -6   19.93    2.37
   5  -6   6   20.88    2.85
   5   6   7   -0.08    3.24
  -5   6  -7    0.20    1.24
  -5  -6  -7   -2.07    2.20
   5  -6   7   -0.05    0.97
  -5  -6  -7    0.04    0.61
   5   7  -6   37.15    4.88
  -5   7   6   41.95    4.55
  -5   7   6   40.28    6.40
  -5  -7   6   40.05    4.21
  -5   7   5    4.84    1.52
   5   7  -5    4.54    1.74
  -5  -7   5    2.45    1.15
  -5   7   4   47.62    4.34
   5   7  -4   45.54    4.68
   5  -7  -4   55.53    4.20
  -5  -7   4   45.16    3.94
   5   7  -3   25.38    3.12
  -5   7   3   20.33    2.98
   5  -7  -3   27.58    3.07
  -5  -7   3   20.97    2.69
  -5   7   2   23.91    3.03
   5   7  -2   18.99    2.71
  -5  -7   2   26.26    2.76
   5  -7  -2   27.11    2.91
   5   7  -1    1.33    0.97
  -5   7   1    3.42    1.18
   5  -7  -1    2.44    1.06
   5   7   0   96.03    6.90
  -5   7   0   90.17    6.60
   5  -7   0  106.20    6.86
  -5   7  -1    6.15    1.45
   5   7   1    4.79    1.51
   5  -7   1    4.28    1.32
  -5   7  -2   47.55    4.72
   5   7   2   57.57    4.80
  -5   7  -2   54.44    4.17
   5  -7   2   66.41    4.77
  -5   7  -3    8.45    2.05
   5   7   3    3.88    1.40
   5  -7   3   12.08    2.10
  -5   7  -4   28.90    3.78
   5   7   4   26.33    3.43
  -5  -7  -4   25.12    2.66
   5  -7   4   26.83    3.33
   5   7   5   12.22    2.41
  -5   7  -5    7.17    2.14
   5  -7   5    7.78    1.86
  -5  -7  -5    7.43    1.43
   5   7   6   29.95    3.90
  -5   7  -6   25.74    4.04
  -5  -7  -6   27.92    3.08
   5  -7   6   41.48    4.25
   5   8  -5   23.94    3.97
  -5   8   5   17.96    2.93
  -5  -8   5   12.07    2.31
   5   8  -4   37.00    4.86
  -5   8   4   31.39    4.20
  -5  -8   4   43.28    4.26
   5  -8  -4   42.60    4.25
   5   8  -3   27.88    3.53
  -5   8   3   22.78    3.31
  -5  -8   3   27.12    3.24
   5  -8  -3   30.94    3.49
   5   8  -2    6.24    1.79
  -5   8   2    2.93    1.25
   5  -8  -2    6.67    1.67
   5   8  -1   13.01    2.37
  -5   8   1   11.90    2.24
   5  -8  -1   13.51    2.32
  -5   8   0   36.75    4.08
   5   8   0   47.79    4.27
   5  -8   0   41.95    4.39
   5   8   1   44.95    4.72
  -5   8  -1   35.46    3.87
   5  -8   1   37.82    4.06
   5   8   2   40.08    4.65
   5  -8   2   45.63    4.55
   5   8   3   20.13    3.01
  -5   8  -3   18.43    3.77
   5  -8   3   14.66    2.53
  -5   8  -4    2.95    1.62
   5   8   4    0.87    1.27
   5  -8   4    0.15    0.94
  -5  -8  -4    2.58    1.02
  -5   8  -5    1.20    1.56
   5   8   5    4.32    1.52
  -5  -8  -5    8.20    1.61
   5  -8   5    6.53    1.81
  -5   9   4   32.30    4.37
  -5  -9   4   33.50    3.96
  -5   9   3    5.76    1.74
   5  -9  -3    4.85    1.83
  -5   9   2   64.60    5.57
   5   9  -2   67.90    5.69
   5  -9  -2   65.12    5.41
  -5   9   1    9.28    2.06
   5   9  -1   10.79    2.39
   5  -9  -1    9.35    1.99
   5   9   0   18.28    2.99
  -5   9   0   14.31    2.57
   5  -9   0   14.74    2.68
   5   9   1    7.91    2.16
  -5   9  -1    5.61    1.72
   5  -9   1    5.45    1.66
   5   9   2   27.81    3.75
   5  -9   2   26.78    3.43
   5   9   3    0.67    1.24
   5  -9   3    0.14    1.03
   5   9   4   35.13    4.36
  -5  -9  -4   34.03    3.58
  -6   0   9    0.06    0.81
  -6   0   9    0.81    2.51
  -6   0   8   28.18    2.90
  -6   0   8   20.33    4.27
  -6   0   7   -1.54    1.92
  -6   0   7   -0.05    0.49
  -6   0   6    9.53    1.37
  -6   0   6    8.03    2.63
  -6   0   6    6.19    1.23
  -6   0   5    0.06    1.47
  -6   0   5    0.07    0.39
  -6   0   5   -0.33    0.33
  -6   0   4   50.80    3.40
  -6   0   4   48.76    4.57
  -6   0   4   48.06    3.41
  -6   0   3   -0.33    0.29
  -6   0   3    1.46    1.33
  -6   0   3    0.05    0.29
  -6   0   2  236.76   14.16
  -6   0   2  253.99   13.72
  -6   0   1    0.18    0.25
   6   0  -1    0.08    0.26
  -6   0  -1    0.02    0.24
   6   0   1   -0.04    0.21
  -6   0  -1    0.02    0.53
   6   0   2  325.56   18.07
  -6   0  -2  350.54   18.56
  -6   0  -2  307.59   18.06
   6   0   2  339.10   18.12
  -6   0  -3    0.28    0.49
   6   0   3    0.22    0.14
   6   0   3    0.24    0.46
   6   0   3    0.02    0.28
   6   0   4   39.69    2.55
  -6   0  -4   34.51    2.62
   6   0   4   41.05    2.62
   6   0   4   35.64    2.30
  -6   0  -4   34.85    3.09
  -6   0  -5    0.38    0.56
  -6   0  -5   -0.32    0.33
   6   0   5    0.01    0.21
  -6   0  -6   36.78    2.81
   6   0   6   35.73    2.41
  -6   0  -6   29.84    3.14
  -6   0  -7    0.21    0.73
  -6   0  -8   81.08    6.34
  -6   0  -9    0.56    0.79
  -6   1   9   53.93    7.61
  -6  -1   9   51.83    4.29
  -6   1   8    3.03    2.67
  -6  -1   8    1.42    0.84
  -6   1   7   69.50    7.11
  -6  -1   7   80.66    5.31
  -6   1   6   17.56    3.74
  -6   1   6   15.76    1.91
  -6  -1   6   20.31    2.24
   6   1  -5   80.07    4.83
   6   1  -5   74.73    4.98
  -6   1   5   78.05    6.60
  -6   1   5   69.77    4.77
  -6  -1   5   74.64    4.91
  -6  -1   5   66.89    5.79
  -6  -1   5   77.52    4.80
  -6   1   4   49.78    4.81
   6   1  -4   51.97    3.39
   6   1  -4   48.19    3.53
  -6   1   4   51.73    3.43
  -6  -1   4   37.89    4.14
  -6  -1   4   53.01    3.39
  -6  -1   4   49.64    3.43
   6   1  -3  141.39    8.21
  -6   1   3  140.13    8.24
  -6  -1   3  145.87    8.23
  -6  -1   3  131.49    8.62
  -6  -1   3  146.27    8.24
   6   1  -2    8.97    1.17
  -6   1   2   12.91    1.42
  -6  -1   2    8.73    1.12
  -6  -1   2    9.31    1.20
  -6   1   1  141.37    8.17
  -6   1   1  148.06    8.23
   6   1  -1  132.90    8.17
   6  -1  -1  141.49    7.80
  -6  -1   1  151.98    8.10
  -6  -1   1  137.26    8.17
  -6   1   0   26.43    2.08
   6   1   0   27.72    1.96
  -6   1   0   26.17    1.93
  -6  -1   0   22.74    1.88
  -6  -1   0   26.20    2.63
  -6   1  -1   90.75    5.85
  -6   1  -1  116.22    6.18
   6   1   1   98.87    5.98
  -6  -1  -1   93.77    6.35
  -6  -1  -1  101.54    5.97
  -6  -1  -1  102.76    5.69
   6   1   2   42.80    3.14
   6   1   2   43.51    2.95
  -6   1  -2   48.99    3.09
  -6   1  -2   55.19    3.49
   6  -1   2   52.08    3.14
   6  -1   2   53.93    3.33
  -6  -1  -2   47.70    3.00
  -6  -1  -2   45.48    3.68
   6   1   3   88.63    5.51
  -6   1  -3  101.46    5.37
  -6   1  -3   86.87    5.86
   6   1   3   86.50    5.30
  -6  -1  -3   83.02    5.96
  -6  -1  -3   87.98    5.39
   6  -1   3   98.10    5.68
   6  -1   3   94.96    5.36
  -6   1  -4   25.63    2.60
   6   1   4   28.17    2.29
   6  -1   4   32.94    1.91
  -6  -1  -4   26.69    2.72
  -6  -1  -4   29.94    2.27
   6  -1   4   36.49    2.45
  -6   1  -5   64.54    5.09
  -6  -1  -5   73.37    4.62
  -6  -1  -5   66.58    5.20
   6  -1   5   72.13    4.19
   6  -1   5   77.23    4.60
  -6   1  -6    8.66    1.84
  -6  -1  -6    6.01    1.19
  -6  -1  -6    5.35    1.41
   6  -1   6    5.81    0.85
  -6   1  -7   47.93    4.44
  -6  -1  -7   60.03    3.97
  -6  -1  -7   47.49    4.42
   6  -1   7   52.52    3.46
  -6   1  -8    7.70    1.96
  -6  -1  -8   10.76    2.23
  -6  -1  -8    9.11    1.61
   6  -1   8    9.96    1.32
  -6   1  -9   17.04    3.05
  -6  -1  -9   25.30    3.63
   6  -1   9   25.43    2.41
  -6  -1  -9   19.36    2.57
  -6   2   9    5.80    3.58
  -6  -2   9    8.40    1.93
  -6   2   8   12.35    3.97
  -6  -2   8   15.24    2.12
  -6   2   7    0.79    2.65
  -6  -2   7    4.46    1.05
  -6   2   6   41.64    5.55
  -6   2   6   41.06    3.18
   6   2  -6   43.19    3.58
  -6  -2   6   43.20    3.30
   6   2  -5    8.70    1.26
  -6   2   5    6.32    2.75
   6   2  -5    8.78    1.60
  -6   2   5    6.58    1.17
  -6  -2   5    7.99    1.21
   6  -2  -5    8.49    1.25
  -6  -2   5    7.05    1.20
   6   2  -4   79.03    5.17
  -6   2   4   86.01    6.89
  -6   2   4   83.96    5.33
  -6  -2   4   85.66    5.32
  -6  -2   4   85.07    5.22
  -6   2   3   20.92    3.24
   6   2  -3   20.14    1.74
  -6   2   3   19.84    1.78
  -6  -2   3   20.96    1.76
  -6  -2   3   20.02    1.73
  -6   2   2   51.62    3.42
   6   2  -2   50.22    3.37
  -6  -2   2   47.95    3.32
  -6  -2   2   50.92    3.27
  -6   2   1    9.58    1.16
   6   2  -1    8.02    1.09
  -6   2   1    6.05    0.98
  -6  -2   1    9.28    1.07
   6   2   0  307.45   16.65
  -6   2   0  287.46   16.53
  -6   2   0  291.12   16.45
  -6  -2   0  313.72   16.35
  -6   2  -1   11.26    1.37
   6   2   1   11.07    1.41
  -6   2  -1    8.84    1.10
  -6  -2  -1    9.53    1.78
  -6  -2  -1    9.92    0.84
  -6   2  -2   46.25    3.13
   6   2   2   41.04    2.96
  -6   2  -2   43.34    2.76
  -6  -2  -2   35.65    3.47
   6  -2   2   45.37    3.11
  -6  -2  -2   38.42    2.64
  -6   2  -3   15.30    1.24
  -6   2  -3   12.47    1.76
   6   2   3   11.96    1.54
  -6  -2  -3   16.68    1.55
   6  -2   3   14.92    1.28
  -6  -2  -3   12.44    2.13
   6  -2   3   16.17    1.93
  -6   2  -4  118.93    8.07
   6   2   4  128.27    7.76
  -6  -2  -4  125.43    8.43
  -6  -2  -4  128.43    7.60
   6  -2   4  147.43    7.90
  -6   2  -5    3.70    1.19
   6  -2   5    5.92    1.18
  -6  -2  -5    3.81    0.84
  -6  -2  -5    3.95    1.42
   6  -2   5    5.86    0.73
  -6   2  -6   63.17    5.04
   6  -2   6   60.90    3.94
  -6  -2  -6   67.15    4.48
  -6  -2  -6   66.14    5.20
   6  -2   6   67.73    5.44
  -6   2  -7    3.85    1.39
   6  -2   7    4.21    0.80
  -6  -2  -7    3.59    1.34
  -6  -2  -7    3.81    1.08
  -6   2  -8   22.73    3.34
  -6  -2  -8   20.14    2.50
  -6  -2  -8   15.91    2.81
   6  -2   8   18.41    1.94
  -6   2  -9    2.08    1.30
  -6  -2  -9    3.49    1.15
   6  -2   9    2.48    0.86
  -6   3   8   15.53    4.24
  -6  -3   8   12.41    2.04
   6   3  -7   21.96    2.96
  -6   3   7   19.15    4.52
  -6   3   7   16.90    2.20
  -6  -3   7   22.22    2.53
  -6   3   6   18.31    4.05
   6   3  -6   20.07    2.74
  -6   3   6   20.37    2.30
  -6  -3   6   18.40    2.21
  -6   3   5  120.16    9.26
   6   3  -5  117.11    7.23
   6   3  -5  124.39    8.00
  -6   3   5  117.87    7.40
  -6  -3   5  122.44    7.46
   6   3  -4    4.71    0.93
  -6   3   4    5.32    2.41
  -6   3   4    4.01    0.94
  -6  -3   4    4.97    0.98
  -6   3   3   81.22    5.36
   6   3  -3   85.64    5.31
  -6   3   3   84.86    6.95
  -6  -3   3   85.82    5.29
   6   3  -2   58.73    3.90
  -6   3   2   56.82    3.90
  -6  -3   2   59.19    3.77
  -6   3   1   20.62    1.85
   6   3  -1   23.17    1.94
   6   3   0   67.87    4.40
  -6   3   0   68.27    4.27
  -6   3   0   62.73    4.06
  -6  -3   0   69.06    3.99
  -6  -3   0   67.45    3.80
  -6   3  -1   81.21    5.11
  -6   3  -1   83.04    5.21
   6   3   1   86.75    5.36
   6  -3   1   78.67    5.37
  -6  -3  -1   88.84    4.86
  -6   3  -2    8.24    1.05
  -6   3  -2    7.62    1.25
   6   3   2    7.91    1.26
  -6  -3  -2   13.44    2.32
   6  -3   2    5.99    1.22
  -6  -3  -2    7.12    0.91
   6   3   3  109.41    7.22
  -6   3  -3  125.35    6.74
   6   3   3  105.82    7.08
  -6   3  -3  131.45    7.42
  -6  -3  -3  115.62    6.78
  -6  -3  -3  105.19    7.68
   6   3   4   28.00    2.74
  -6   3  -4   25.50    2.57
   6   3   4   30.32    2.54
  -6  -3  -4   25.23    2.08
   6  -3   4   26.12    2.72
  -6  -3  -4   25.20    3.44
   6   3   5   22.59    2.58
   6   3   5   21.03    2.47
  -6   3  -5   17.24    2.45
   6  -3   5   19.55    2.25
  -6  -3  -5   14.65    2.55
  -6  -3  -5   16.02    1.88
   6   3   6   26.18    3.02
  -6   3  -6   29.68    3.54
   6  -3   6   23.28    1.90
  -6  -3  -6   29.65    3.75
  -6  -3  -6   23.23    2.48
   6  -3   6   28.20    2.85
   6   3   7   20.96    3.39
  -6   3  -7   19.08    2.96
   6  -3   7   16.33    1.76
  -6  -3  -7   15.68    2.09
  -6  -3  -7   19.79    3.14
   6   3   8    5.80    1.89
  -6   3  -8    7.89    2.14
   6  -3   8    5.14    1.03
  -6  -3  -8    5.61    1.35
  -6  -3  -8    6.00    1.97
   6   4  -8   10.40    3.37
  -6   4   8   12.92    4.26
  -6  -4   8   14.04    2.16
  -6   4   7   16.71    4.24
  -6   4   7   19.44    2.44
   6   4  -7   16.62    2.78
  -6  -4   7   17.52    2.40
  -6   4   6   21.81    4.29
   6   4  -6   17.38    2.76
  -6   4   6   22.45    2.53
  -6  -4   6   24.33    2.61
   6   4  -5   26.13    3.41
  -6   4   5   20.82    2.47
  -6   4   5   32.45    4.96
  -6  -4   5   27.05    2.39
   6   4  -4   22.79    2.19
  -6   4   4   28.40    2.41
  -6   4   4   24.72    4.26
  -6  -4   4   27.52    2.35
  -6   4   3    4.08    1.00
   6   4  -3    4.20    0.94
  -6  -4   3    3.07    0.82
   6   4  -2  100.75    6.43
  -6   4   2  100.95    6.47
  -6  -4   2  107.72    6.27
   6   4  -1   71.08    4.41
  -6   4   1   62.09    4.26
  -6  -4   1   58.90    3.93
   6   4   0   24.37    2.24
  -6   4   0   28.78    2.23
  -6  -4   0   25.68    1.87
   6  -4   0   26.82    2.39
   6   4   1   68.20    4.32
  -6   4  -1   59.19    3.94
  -6   4  -1   59.29    4.04
  -6  -4  -1   59.47    3.60
   6  -4   1   53.64    4.17
  -6   4  -2  137.96    8.38
  -6   4  -2  144.11    8.78
   6   4   2  148.85    8.88
  -6  -4  -2  144.88    8.25
   6  -4   2  154.12    9.09
  -6   4  -3    1.55    0.81
   6   4   3    2.58    0.94
   6  -4   3    1.55    0.90
  -6  -4  -3    7.37    2.21
  -6  -4  -3    2.31    0.61
  -6   4  -4   28.10    2.79
   6   4   4   25.11    2.90
   6   4   4   29.09    4.30
  -6  -4  -4   24.50    3.36
  -6  -4  -4   27.65    2.20
   6  -4   4   26.60    2.93
  -6   4  -5   23.67    3.08
   6   4   5   25.69    3.46
   6   4   5   19.53    2.71
   6  -4   5   21.59    2.58
  -6  -4  -5   18.93    3.02
  -6  -4  -5   18.54    2.08
  -6   4  -6   33.90    4.02
   6   4   6   35.68    3.90
   6  -4   6   31.47    3.23
  -6  -4  -6   29.32    2.63
  -6  -4  -6   29.14    3.95
  -6   4  -7   12.54    2.43
   6   4   7   17.21    3.26
   6  -4   7   13.31    1.53
  -6  -4  -7   10.39    1.70
   6  -4   7    9.05    1.83
  -6  -4  -7   10.79    2.63
   6   4   8   28.98    4.63
  -6   4  -8   34.67    4.48
   6  -4   8   24.84    2.57
  -6  -4  -8   30.38    4.30
  -6  -4  -8   28.03    3.16
  -6   5   7   37.98    3.56
   6   5  -7   37.66    4.69
  -6   5   7   45.95    6.76
  -6  -5   7   39.46    3.98
   6  -5  -7   40.38    3.22
  -6   5   6   23.93    2.87
   6   5  -6   22.49    3.31
  -6   5   6   21.45    4.58
  -6  -5   6   22.75    2.72
   6   5  -5    4.35    1.56
  -6   5   5    7.17    1.57
  -6   5   5    5.42    2.57
  -6  -5   5    6.05    1.40
   6   5  -4   26.38    2.82
  -6   5   4   32.35    3.31
  -6  -5   4   28.29    2.86
  -6   5   3   25.89    2.82
   6   5  -3   26.08    2.41
  -6  -5   3   25.07    2.29
   6   5  -2   26.23    2.42
  -6   5   2   26.09    2.82
  -6  -5   2   25.11    2.16
  -6   5   1   35.69    3.04
   6   5  -1   43.71    3.26
  -6  -5   1   38.64    2.77
   6  -5  -1   37.72    3.16
  -6   5   0   68.99    4.62
   6   5   0   66.87    4.78
   6  -5   0   67.70    4.82
   6   5   1   14.17    2.05
  -6   5  -1   17.39    1.97
   6  -5   1   11.66    1.90
  -6   5  -2   23.45    2.11
  -6   5  -2   25.03    2.52
   6   5   2   30.47    3.14
  -6  -5  -2   23.92    1.92
   6  -5   2   31.69    3.32
  -6   5  -3    2.88    1.18
   6   5   3    1.92    0.92
  -6  -5  -3    2.90    0.71
   6  -5   3    3.49    1.14
   6   5   4   27.63    3.31
  -6   5  -4   26.49    3.31
  -6  -5  -4   24.17    3.71
   6  -5   4   28.76    3.20
  -6  -5  -4   26.82    2.23
  -6   5  -5   26.42    3.55
   6   5   5   25.28    3.25
   6  -5   5   28.28    3.20
  -6  -5  -5   34.05    4.26
  -6  -5  -5   24.66    2.62
  -6   5  -6   18.54    2.96
  -6  -5  -6   20.67    2.35
   6  -5   6   13.93    2.24
  -6  -5  -6   22.78    3.77
  -6   5  -7   28.15    3.98
  -6  -5  -7   21.38    3.77
  -6  -5  -7   28.49    2.96
   6  -5   7   22.35    2.92
  -6   6   7    4.49    1.49
  -6   6   7    7.63    3.44
   6   6  -7    7.86    2.28
   6  -6  -7    4.96    1.30
  -6  -6   7    4.65    1.63
  -6   6   6    4.43    2.81
  -6   6   6    2.31    1.11
   6   6  -6    3.76    1.63
  -6  -6   6    6.32    1.61
   6   6  -5    5.03    1.88
  -6   6   5    6.63    1.62
  -6  -6   5    5.94    1.47
  -6   6   4   47.42    4.18
   6   6  -4   55.85    4.14
  -6  -6   4   49.13    3.94
   6   6  -3   51.69    4.03
  -6   6   3   50.43    4.21
  -6  -6   3   50.95    3.82
  -6   6   2   18.10    2.41
   6   6  -2   16.98    2.30
  -6  -6   2   17.97    2.07
   6  -6  -2   17.30    2.33
  -6   6   1   10.01    1.73
   6   6  -1   13.77    2.04
   6  -6  -1   13.83    2.05
   6   6   0   35.45    3.31
  -6   6   0   38.42    3.21
   6  -6   0   38.28    3.34
  -6   6  -1   14.49    1.96
   6   6   1   12.04    2.05
   6  -6   1   12.62    2.21
   6   6   2   25.97    3.19
  -6   6  -2   30.70    2.53
   6  -6   2   23.08    3.02
  -6  -6  -2   28.32    2.22
   6   6   3   44.61    4.08
  -6   6  -3   51.91    4.27
   6  -6   3   51.93    4.16
  -6  -6  -3   42.36    3.27
  -6   6  -4   43.37    4.15
   6   6   4   36.77    4.26
   6  -6   4   39.61    4.22
  -6  -6  -4   46.80    3.26
  -6   6  -5    5.33    1.82
   6   6   5    6.75    1.77
  -6  -6  -5    8.07    1.43
   6  -6   5    6.90    1.68
  -6   6  -6    8.61    2.33
   6   6   6    6.59    1.98
  -6  -6  -6   10.17    1.62
   6  -6   6    7.46    1.75
  -6   6  -7    5.64    1.99
  -6  -6  -7    7.42    1.54
   6  -6   7    7.50    1.85
  -6  -6  -7    2.64    2.84
  -6   7   6   31.22    3.85
   6   7  -6   28.02    4.27
  -6  -7   6   26.54    3.43
   6   7  -5    5.38    1.84
  -6   7   5    9.73    2.20
  -6  -7   5   11.04    1.96
  -6   7   4   39.81    4.48
  -6  -7   4   40.87    3.60
  -6   7   3    3.35    1.24
   6   7  -3    2.91    1.25
   6  -7  -3    3.81    1.30
  -6  -7   3    2.71    1.06
  -6   7   2   25.35    3.24
   6   7  -2   19.05    2.69
   6  -7  -2   25.02    3.02
  -6   7   1    8.27    1.79
   6   7  -1    6.63    1.64
   6  -7  -1    7.79    1.72
   6   7   0   19.40    2.79
  -6   7   0   22.49    2.81
   6  -7   0   20.47    2.77
   6   7   1   12.11    2.30
  -6   7  -1   10.54    1.86
   6  -7   1   17.10    2.63
   6   7   2   53.15    4.58
  -6   7  -2   48.40    3.84
   6  -7   2   44.53    4.67
  -6   7  -3    2.94    1.49
   6   7   3    1.50    1.17
   6  -7   3    2.70    1.22
  -6  -7  -3    1.92    0.80
   6   7   4   25.62    3.61
  -6   7  -4   28.38    3.81
  -6  -7  -4   23.07    2.57
   6  -7   4   26.59    3.31
   6   7   5    7.12    2.01
  -6   7  -5   15.10    2.94
   6  -7   5    7.86    1.87
  -6  -7  -5   10.57    1.73
  -6   7  -6    1.56    1.68
   6   7   6    5.29    1.91
   6  -7   6    4.89    1.69
  -6  -7  -6    3.94    1.13
   6   8  -5   11.65    2.85
  -6   8   5   16.02    2.97
  -6  -8   5   14.38    2.51
   6   8  -4   11.90    2.73
  -6   8   4    8.08    2.07
  -6  -8   4    7.92    1.93
   6  -8  -4    6.47    1.86
  -6   8   3    7.06    1.97
   6   8  -3    9.67    2.08
   6  -8  -3    7.50    1.81
   6   8  -2   15.89    2.76
  -6   8   2   21.16    3.08
   6  -8  -2   21.05    2.84
  -6   8   1   25.87    3.43
   6   8  -1   31.59    3.77
   6  -8  -1   23.63    3.24
   6   8   0   30.78    3.90
  -6   8   0   33.05    3.76
   6  -8   0   34.52    3.98
  -6   8  -1   21.85    2.99
   6   8   1   26.52    3.55
   6  -8   1   26.41    3.48
   6   8   2   11.76    2.43
   6  -8   2   16.18    2.63
   6   8   3    8.38    2.04
  -6  -8  -3    8.87    1.82
   6  -8   3    8.78    1.95
  -6   8  -4    7.77    2.48
   6   8   4   13.13    2.60
   6  -8   4    8.69    1.97
  -6  -8  -4   11.37    1.78
  -6   8  -5    8.55    2.57
   6   8   5    8.31    2.20
  -6  -8  -5   16.04    2.22
  -6   9   3    4.31    1.74
   6   9  -3    3.57    1.76
   6  -9  -3    5.56    1.99
  -6   9   2   23.57    3.62
   6   9  -2   20.64    3.31
   6  -9  -2   25.40    3.49
  -6   9   1    4.85    1.68
   6   9  -1    4.56    1.77
   6  -9  -1    3.52    1.66
   6   9   0   28.16    4.00
  -6   9   0   26.93    3.55
   6  -9   0   29.90    3.84
  -6   9  -1   10.09    2.22
   6   9   1    7.13    2.03
   6  -9   1   15.22    2.80
   6   9   2    1.74    1.37
   6  -9   2    3.41    1.40
   6   9   3   16.13    3.12
  -7   0   8   18.01    2.45
  -7   0   7   -0.22    0.52
  -7   0   6   90.98    6.06
   7   0  -6   95.03    6.00
  -7   0   6   90.12    5.90
  -7   0   5    0.30    0.45
  -7   0   5   -1.88    1.86
  -7   0   5    0.20    0.46
  -7   0   4  186.08   11.09
  -7   0   4  188.82   12.02
  -7   0   4  198.55   11.11
  -7   0   3    0.47    1.36
  -7   0   3    0.10    0.28
  -7   0   2  105.01    6.58
   7   0  -2  114.47    6.69
   7   0  -1   -0.25    0.23
  -7   0   1    0.04    0.24
   7   0   0  192.60   11.18
  -7   0   0  201.55   11.21
  -7   0  -1    0.00    0.22
  -7   0  -1    0.02    0.68
   7   0   1    0.31    0.34
   7   0   2  169.84   10.38
  -7   0  -2  179.29   10.40
   7   0   2  180.92   10.39
  -7   0  -2  206.71   10.97
  -7   0  -3   -0.63    0.44
   7   0   3    0.10    0.33
   7   0   3    0.25    0.52
   7   0   4   31.87    2.31
  -7   0  -4   26.12    3.13
  -7   0  -5   -0.20    0.53
  -7   0  -6   55.45    4.61
  -7   0  -7   -0.23    0.59
  -7   0  -8   34.15    4.28
  -7   1   8   11.84    3.92
  -7  -1   8   13.56    2.15
  -7   1   7   11.81    3.61
  -7  -1   7    8.22    1.52
  -7   1   6    6.29    2.91
  -7   1   6   11.24    1.61
  -7  -1   6    8.39    1.38
  -7  -1   6   10.22    1.55
  -7   1   5   40.14    3.09
   7   1  -5   38.92    3.02
  -7   1   5   40.18    5.03
  -7  -1   5   41.43    3.15
  -7  -1   5   40.92    3.06
   7   1  -4   45.47    3.43
  -7   1   4   47.87    3.53
  -7  -1   4   50.86    3.50
  -7  -1   4   55.41    3.62
   7   1  -3   24.45    1.97
  -7   1   3   22.42    1.95
  -7   1   3   21.81    3.31
  -7  -1   3   19.03    1.85
  -7  -1   3   22.27    1.90
   7   1  -2   43.68    3.15
  -7   1   2   46.75    3.22
  -7  -1   2   43.48    3.07
  -7  -1   2   47.82    3.20
   7   1  -1   59.58    3.98
  -7   1   1   65.78    4.06
  -7  -1   1   57.62    3.95
   7  -1  -1   62.50    3.57
  -7   1   0    7.60    1.05
  -7   1   0    8.78    1.41
   7   1   0    4.98    0.89
  -7  -1   0    8.81    1.17
  -7  -1   0    7.70    1.65
   7  -1   0    6.75    0.55
  -7   1  -1   88.17    5.88
  -7   1  -1  108.12    6.21
   7   1   1  100.92    6.06
   7  -1   1   94.20    5.96
  -7  -1  -1  108.06    6.62
  -7  -1  -1  101.22    6.02
  -7   1  -2   20.17    1.90
   7   1   2   17.98    1.63
  -7   1  -2   16.57    1.52
   7  -1   2   17.82    1.56
  -7  -1  -2   18.21    1.44
  -7  -1  -2   22.66    2.67
   7  -1   2   18.42    1.95
  -7   1  -3   68.98    4.83
   7   1   3   66.03    4.47
  -7   1  -3   73.58    4.34
   7  -1   3   76.76    3.88
   7  -1   3   81.76    4.42
  -7  -1  -3   61.51    4.28
  -7  -1  -3   54.49    4.87
   7  -1   3   70.71    4.63
  -7   1  -4   75.09    5.46
   7   1   4   76.86    4.99
  -7  -1  -4   78.14    4.94
   7  -1   4   81.91    4.48
  -7  -1  -4   72.46    5.61
   7  -1   4   87.55    5.10
  -7   1  -5   29.73    2.95
  -7  -1  -5   28.85    3.04
   7  -1   5   31.16    2.03
  -7  -1  -5   32.70    2.50
  -7   1  -6   13.20    2.27
  -7  -1  -6   15.61    1.92
  -7  -1  -6   14.58    2.42
   7  -1   6   16.14    1.35
  -7   1  -7   26.81    3.48
   7  -1   7   26.54    2.04
  -7  -1  -7   21.45    3.18
  -7  -1  -7   29.40    2.94
  -7   1  -8    5.99    1.71
  -7  -1  -8    7.36    1.88
  -7  -1  -8    8.54    1.62
   7  -1   8    6.18    1.08
  -7   2   8   81.62    8.14
  -7  -2   8   74.83    5.56
  -7   2   7    4.66    2.97
  -7  -2   7    3.01    1.01
  -7   2   6   70.42    6.62
  -7   2   6   65.07    4.52
  -7  -2   6   61.36    4.54
   7   2  -5    4.54    0.99
  -7   2   5    5.50    1.07
  -7   2   5    4.30    2.30
   7   2  -5    4.65    1.29
  -7  -2   5    3.39    0.90
  -7  -2   5    8.21    1.29
   7   2  -4   78.57    5.10
  -7   2   4   77.70    6.74
  -7   2   4   76.44    5.14
  -7  -2   4   85.37    5.20
  -7  -2   4   79.97    5.12
  -7   2   3    0.11    0.38
   7   2  -3    0.80    0.44
  -7  -2   3    0.48    0.42
  -7  -2   3    0.15    0.29
   7   2  -2  206.42   11.87
  -7   2   2  202.25   11.85
  -7  -2   2  205.67   11.84
  -7  -2   2  215.70   11.76
  -7   2   1   15.02    1.66
   7   2  -1   13.71    1.63
  -7  -2   1   13.82    1.46
  -7   2   0  161.40    9.51
  -7   2   0  165.10    9.46
   7   2   0  169.95    9.60
   7   2   1   15.58    1.74
  -7   2  -1   13.91    1.44
  -7   2  -1   15.45    1.62
  -7  -2  -1   12.31    2.13
  -7  -2  -1   13.91    1.10
  -7   2  -2   66.19    4.02
  -7   2  -2   66.99    4.35
   7   2   2   57.65    4.16
   7  -2   2   68.09    4.37
  -7  -2  -2   61.00    3.85
  -7  -2  -2   58.91    4.88
  -7   2  -3   -0.20    0.52
  -7   2  -3    0.50    0.37
   7   2   3    0.01    0.37
  -7  -2  -3   -0.94    1.02
   7  -2   3    0.62    0.43
  -7  -2  -3    0.51    0.37
   7  -2   3    0.59    0.66
   7   2   4  117.29    7.86
  -7   2  -4  143.00    8.45
  -7  -2  -4  130.19    7.78
   7  -2   4  143.85    8.10
  -7  -2  -4  123.82    8.74
  -7   2  -5   12.38    2.08
  -7  -2  -5   12.65    2.35
   7  -2   5    9.13    1.46
  -7  -2  -5    8.39    1.31
   7  -2   5   10.13    1.01
  -7   2  -6   30.98    3.30
   7  -2   6   34.79    2.36
  -7  -2  -6   36.73    2.89
  -7  -2  -6   34.12    3.56
  -7   2  -7   11.31    2.28
   7  -2   7   12.89    1.42
  -7  -2  -7   14.56    2.63
  -7  -2  -7   11.35    1.76
  -7   2  -8   11.09    2.40
  -7  -2  -8   10.03    1.83
   7  -2   8   17.20    1.75
  -7  -2  -8   12.01    2.43
  -7   3   8    1.49    2.92
  -7  -3   8    2.79    1.13
  -7   3   7    1.70    2.50
  -7   3   7    2.24    0.95
  -7  -3   7    2.10    0.87
  -7   3   6   32.17    5.06
   7   3  -6   32.76    3.28
  -7   3   6   36.24    2.95
  -7  -3   6   34.24    2.95
  -7   3   5    7.32    2.63
  -7   3   5    4.65    1.11
   7   3  -5    5.18    1.07
   7   3  -5    5.32    1.45
  -7  -3   5    4.11    0.98
  -7   3   4   32.76    4.79
  -7   3   4   26.46    2.42
   7   3  -4   29.85    2.39
  -7  -3   4   26.99    2.38
  -7   3   3   38.38    3.07
   7   3  -3   42.45    3.08
  -7  -3   3   44.07    3.06
   7   3  -2   39.66    2.95
  -7   3   2   37.74    2.93
  -7  -3   2   40.36    2.79
  -7   3   1   49.14    3.45
   7   3  -1   49.36    3.52
  -7   3   0   41.50    3.17
   7   3   0   52.62    3.46
  -7  -3   0   46.05    2.96
  -7   3  -1   16.85    1.89
  -7   3  -1   17.13    1.76
   7   3   1   14.75    1.83
   7  -3   1   13.64    1.88
  -7  -3  -1   17.26    1.30
  -7   3  -2   78.69    4.80
   7   3   2   73.15    5.06
  -7   3  -2   83.26    5.20
  -7  -3  -2   72.45    4.60
   7  -3   2   77.23    5.25
  -7  -3  -2   79.62    6.05
   7   3   3   57.09    4.26
  -7   3  -3   61.66    4.47
  -7   3  -3   69.15    3.97
  -7  -3  -3   56.00    3.87
  -7  -3  -3   57.33    5.08
   7  -3   3   65.44    4.54
  -7   3  -4   10.01    1.81
   7   3   4    7.95    1.45
  -7  -3  -4    6.48    1.90
  -7  -3  -4    7.30    1.11
   7  -3   4    9.25    1.56
  -7   3  -5   40.32    3.68
   7   3   5   36.70    3.32
  -7  -3  -5   40.55    4.17
  -7  -3  -5   37.56    2.98
   7  -3   5   46.34    3.42
  -7   3  -6   31.16    3.33
   7  -3   6   29.92    3.05
  -7  -3  -6   33.91    4.27
   7  -3   6   30.64    2.21
  -7  -3  -6   31.05    2.66
   7   3   7    2.17    1.14
  -7   3  -7    3.26    1.38
  -7  -3  -7    3.18    1.56
   7  -3   7    0.89    0.52
  -7  -3  -7    1.61    0.86
   7   3   8   19.05    3.48
  -7   3  -8   17.19    3.04
  -7  -3  -8   16.41    3.14
   7  -3   8   16.45    1.84
  -7  -3  -8   16.06    2.33
  -7   4   8    7.97    3.43
  -7   4   7    7.42    1.63
   7   4  -7    6.82    1.92
  -7   4   7   11.46    3.93
  -7  -4   7    8.17    1.59
  -7   4   6   58.00    6.30
   7   4  -6   49.77    4.46
  -7   4   6   47.38    3.80
  -7  -4   6   43.72    3.71
  -7   4   5    4.11    1.05
   7   4  -5    5.28    1.26
   7   4  -5    4.69    1.45
  -7   4   5    1.74    2.36
  -7  -4   5    3.18    0.99
   7   4  -4   53.79    3.79
  -7   4   4   49.31    3.81
  -7  -4   4   49.94    3.72
  -7   4   3   31.45    2.61
   7   4  -3   28.73    2.51
  -7  -4   3   27.54    2.36
   7   4  -2   62.72    4.44
  -7   4   2   59.94    4.39
  -7  -4   2   69.80    4.25
  -7   4   1   18.03    2.16
   7   4  -1   24.76    2.21
  -7  -4   1   23.63    1.85
  -7   4   0   67.38    4.52
   7   4   0   72.21    4.75
   7  -4   0   65.24    4.76
  -7   4  -1   13.43    1.69
  -7   4  -1   14.43    1.95
   7   4   1   12.43    1.75
   7  -4   1   13.81    2.00
   7   4   2   63.45    4.58
  -7   4  -2   67.77    4.23
   7  -4   2   62.17    4.74
  -7  -4  -2   63.43    3.99
   7   4   3   56.39    4.34
  -7   4  -3   62.84    4.50
  -7  -4  -3   62.57    5.28
  -7  -4  -3   58.41    3.85
   7  -4   3   56.53    4.48
  -7   4  -4   34.80    3.23
   7   4   4   31.35    3.42
  -7  -4  -4   32.24    4.07
  -7  -4  -4   29.94    2.47
   7  -4   4   36.12    3.11
  -7   4  -5   27.42    3.36
   7   4   5   20.21    2.78
   7  -4   5   17.55    2.43
  -7  -4  -5   25.56    3.78
  -7  -4  -5   26.66    2.51
  -7   4  -6   24.84    3.47
   7  -4   6   18.79    2.59
  -7  -4  -6   23.20    2.61
  -7  -4  -6   32.32    4.11
  -7   4  -7    3.71    1.71
   7  -4   7    1.62    0.59
  -7  -4  -7    3.25    1.90
  -7  -4  -7    3.53    1.08
  -7   4  -8    8.01    2.30
   7  -4   8   10.85    1.50
  -7  -4  -8   12.66    3.08
  -7  -4  -8   11.00    1.97
   7   5  -7    4.60    1.78
  -7   5   7    6.63    3.23
  -7   5   7    4.52    1.44
  -7  -5   7    7.01    1.72
  -7   5   6   13.32    2.14
  -7   5   6   15.85    4.03
   7   5  -6   15.10    2.86
  -7  -5   6   17.29    2.31
   7   5  -5   15.31    2.76
  -7   5   5   16.85    2.36
  -7  -5   5   15.82    2.12
  -7   5   4   45.26    3.82
   7   5  -4   49.79    3.75
  -7  -5   4   49.88    3.71
  -7   5   3   19.63    2.36
   7   5  -3   12.56    1.88
  -7  -5   3   17.57    2.05
  -7   5   2   42.50    3.43
   7   5  -2   42.74    3.40
  -7  -5   2   41.55    3.10
   7   5  -1    7.08    1.40
  -7   5   1    6.98    1.35
  -7  -5   1    8.03    1.35
  -7   5   0   62.21    4.54
   7   5   0   64.35    4.77
   7  -5   0   77.50    5.05
  -7   5  -1   46.57    3.40
   7   5   1   47.20    3.76
   7  -5   1   44.53    3.77
  -7   5  -2   35.41    2.86
   7   5   2   40.19    3.40
   7  -5   2   42.91    3.61
  -7   5  -3   20.06    2.67
   7   5   3   16.62    2.47
  -7  -5  -3   14.91    1.72
   7  -5   3   20.77    2.77
   7   5   4   39.17    4.23
  -7   5  -4   44.45    4.02
  -7  -5  -4   43.54    5.06
   7  -5   4   39.50    3.62
  -7  -5  -4   40.71    3.08
   7   5   5    6.62    1.75
  -7   5  -5   11.24    2.37
   7  -5   5    4.17    1.30
  -7  -5  -5    7.18    1.28
  -7  -5  -5    4.27    2.29
  -7   5  -6   18.99    3.09
   7  -5   6   18.46    2.59
  -7  -5  -6   13.21    3.25
  -7  -5  -6   15.39    2.02
  -7   5  -7   17.08    3.04
  -7  -5  -7   12.11    1.94
   7  -5   7   13.43    2.29
  -7  -5  -7   11.00    3.21
  -7   6   6    9.05    1.98
   7   6  -6   10.11    2.55
  -7  -6   6    9.52    1.85
  -7   6   5    8.90    1.83
   7   6  -5   11.90    2.45
  -7  -6   5    4.83    1.33
  -7   6   4   41.97    3.83
   7   6  -4   45.81    3.80
  -7  -6   4   45.06    3.67
  -7   6   3    4.92    1.36
   7   6  -3    1.94    0.84
  -7  -6   3    3.14    1.06
   7   6  -2   24.93    2.92
  -7   6   2   23.49    2.91
   7  -6  -2   24.89    2.95
  -7  -6   2   21.84    2.41
   7   6  -1   20.06    2.61
  -7   6   1   14.17    2.12
   7  -6  -1   19.13    2.47
  -7   6   0   49.83    3.94
   7   6   0   50.01    4.10
   7  -6   0   51.91    4.18
   7   6   1   39.06    3.71
  -7   6  -1   43.81    3.45
   7  -6   1   49.75    3.99
   7   6   2   45.46    3.90
  -7   6  -2   43.06    3.35
   7  -6   2   37.42    4.12
   7   6   3    3.24    1.24
  -7   6  -3    2.23    1.30
  -7  -6  -3    3.16    0.83
   7  -6   3    3.43    1.35
   7   6   4   10.41    2.23
  -7   6  -4   15.58    2.70
  -7  -6  -4   15.95    1.88
   7  -6   4   13.23    2.22
  -7   6  -5   33.29    4.14
   7   6   5   28.86    3.74
   7  -6   5   25.74    3.20
  -7  -6  -5   24.29    2.69
   7   6   6   24.81    3.91
  -7   6  -6   29.36    4.17
   7  -6   6   20.37    2.90
  -7  -6  -6   20.48    2.56
  -7   7   5   12.33    2.40
   7   7  -5   14.51    3.03
  -7  -7   5   11.07    2.15
  -7   7   4   41.57    4.51
  -7  -7   4   41.52    3.72
  -7   7   3    0.89    0.96
   7   7  -3    1.16    1.02
   7  -7  -3    1.38    1.02
  -7  -7   3    1.83    1.03
   7   7  -2   92.53    6.47
  -7   7   2   83.93    6.38
   7  -7  -2   85.96    6.31
   7   7  -1   10.69    2.12
  -7   7   1    9.91    1.86
   7  -7  -1    9.31    1.88
   7   7   0   27.34    3.43
  -7   7   0   30.61    3.38
   7  -7   0   26.82    3.30
  -7   7  -1    4.58    1.25
   7   7   1    5.10    1.47
   7  -7   1    3.56    1.40
   7   7   2   36.72    4.24
   7  -7   2   34.16    3.88
   7   7   3    6.87    1.97
   7  -7   3    5.79    1.66
   7   7   4   42.39    5.01
  -7   7  -4   41.60    5.08
   7  -7   4   50.77    4.32
  -7  -7  -4   45.26    3.48
  -7   7  -5    1.77    1.60
   7   7   5    1.18    1.38
  -7  -7  -5    1.73    0.96
   7  -7   5    1.02    1.23
  -7   8   4    2.00    1.46
   7  -8  -4    2.02    1.49
   7   8  -3    9.79    2.25
  -7   8   3    9.45    2.33
   7  -8  -3   13.89    2.43
  -7   8   2   37.02    4.39
   7   8  -2   35.06    4.25
   7  -8  -2   48.00    4.62
   7   8  -1   19.14    3.02
  -7   8   1   15.11    2.68
   7  -8  -1   13.14    2.48
  -7   8   0   14.06    2.32
   7   8   0   13.95    2.71
   7  -8   0   15.83    2.68
  -7   8  -1    8.73    1.86
   7   8   1   11.42    2.44
   7  -8   1    8.76    2.12
   7   8   2   18.77    3.09
   7  -8   2   14.94    2.75
   7   8   3   28.02    3.94
   7  -8   3   29.53    3.71
   7   8   4   38.07    4.64
   7  -8   4   36.66    4.40
   7   9  -2   12.43    2.74
  -7   9   2    9.06    2.31
   7  -9  -2    9.43    2.39
  -7   9   1    2.66    1.49
   7   9  -1    1.92    1.46
   7  -9  -1    3.60    1.79
  -7   9   0   39.69    4.42
   7   9   0   37.31    4.76
   7  -9   0   38.97    4.52
  -7   9  -1    0.97    1.27
   7   9   1    0.33    1.38
   7  -9   1    1.91    1.56
   7   9   2   21.11    3.50
  -8   0   6   23.53    2.53
   8   0  -6   23.39    2.53
   8   0  -5   -0.12    0.48
  -8   0   5   -0.06    0.42
  -8   0   4    6.17    1.19
   8   0  -4    6.95    1.27
   8   0  -3   -0.04    0.39
  -8   0   3    0.21    0.34
   8   0  -2   96.38    6.14
  -8   0   2  100.48    6.15
   8   0  -1   -0.18    0.24
  -8   0   1    0.12    0.29
  -8   0   0  287.21   16.00
   8   0   0  283.12   16.00
  -8   0  -1    0.47    0.98
  -8   0  -1   -0.02    0.36
   8   0   1    0.07    0.29
  -8   0  -2   58.99    4.23
   8   0   2   50.13    3.56
  -8   0  -2   55.58    3.61
   8   0   2   49.70    3.55
  -8   0  -3   -0.31    0.66
   8   0   3   -0.03    0.36
   8   0   4  190.34   10.43
  -8   0  -4  167.00   10.96
  -8   0  -5   -0.14    0.50
  -8   0  -6  105.73    7.52
  -8   0  -7    1.53    1.01
  -8   0  -8   28.34    3.99
  -8  -1   8    7.36    1.64
  -8  -1   7   34.59    3.11
  -8   1   6   12.13    1.80
   8   1  -6   13.00    1.83
  -8  -1   6   13.58    1.86
  -8  -1   6   12.36    1.92
   8   1  -5   72.29    4.83
  -8   1   5   68.28    4.79
  -8  -1   5   71.21    4.80
  -8  -1   5   67.77    4.82
  -8   1   4   13.94    2.94
   8   1  -4   14.53    1.81
  -8   1   4   12.02    1.66
  -8  -1   4   13.88    1.79
  -8  -1   4   10.41    1.56
  -8   1   3   68.02    4.61
   8   1  -3   69.84    4.63
  -8  -1   3   66.48    4.52
  -8  -1   3   70.75    4.63
  -8   1   2   24.26    2.06
   8   1  -2   21.09    1.98
  -8  -1   2   21.98    1.96
  -8   1   1   43.34    3.04
   8   1  -1   40.03    2.96
  -8  -1   1   39.30    2.94
   8   1   0   27.33    2.41
  -8   1   0   29.51    2.45
  -8   1   0   36.85    3.01
  -8  -1   0   33.36    2.53
   8  -1   0   36.22    2.00
  -8   1  -1   34.78    2.90
  -8   1  -1   35.77    2.66
   8   1   1   39.99    2.80
  -8  -1  -1   39.64    3.72
  -8  -1  -1   35.12    2.68
   8  -1   1   36.56    2.70
  -8   1  -2    9.91    1.59
  -8   1  -2    6.28    1.05
   8   1   2    9.13    1.33
  -8  -1  -2    5.33    1.55
   8  -1   2   10.03    1.46
   8  -1   2   11.13    1.37
  -8   1  -3   64.88    4.59
   8   1   3   53.39    4.09
  -8   1  -3   60.26    3.99
   8  -1   3   67.43    3.45
   8  -1   3   62.60    4.02
  -8  -1  -3   54.79    4.76
   8  -1   3   65.60    4.33
   8   1   4   15.62    1.83
  -8   1  -4   12.94    2.03
  -8  -1  -4   14.82    1.69
  -8  -1  -4   14.62    2.45
   8  -1   4   14.82    1.05
  -8   1  -5   19.27    2.67
  -8  -1  -5   23.10    2.35
   8  -1   5   23.42    1.61
  -8  -1  -5   23.54    3.25
  -8   1  -6   13.95    2.33
   8  -1   6   11.91    1.28
  -8  -1  -6   14.65    1.90
  -8  -1  -6   13.84    2.46
  -8   1  -7   20.82    3.17
   8  -1   7   15.78    1.63
  -8  -1  -7   15.31    2.75
  -8   1  -8    4.35    1.50
  -8  -1  -8    6.75    1.85
  -8   2   8    8.45    4.12
  -8  -2   8    9.40    1.80
  -8   2   7   13.15    3.77
  -8   2   7   10.50    1.75
  -8  -2   7    8.70    1.69
  -8   2   6    4.69    2.67
  -8   2   6    4.24    1.08
  -8  -2   6    5.24    1.26
  -8   2   5   20.55    2.35
  -8   2   5   21.05    3.80
   8   2  -5   20.69    2.27
  -8  -2   5   19.29    2.22
  -8  -2   5   21.46    2.40
  -8   2   4   30.06    2.59
   8   2  -4   29.17    2.53
  -8   2   4   34.50    4.73
  -8  -2   4   31.09    2.59
  -8  -2   4   31.35    2.59
   8   2  -3    2.81    0.79
  -8   2   3    1.26    0.55
  -8  -2   3    3.35    0.82
  -8  -2   3    4.79    0.99
  -8   2   2   74.72    4.89
   8   2  -2   73.34    4.88
  -8  -2   2   72.29    4.84
  -8  -2   2   77.61    4.78
  -8   2   1   20.95    1.82
   8   2  -1   16.70    1.94
  -8   2   0   80.69    5.13
   8   2   1   28.28    2.40
  -8   2  -1   28.92    2.31
  -8   2  -1   31.73    2.54
  -8  -2  -1   29.16    3.48
   8   2   2  251.25   14.71
  -8   2  -2  273.58   14.86
  -8   2  -2  271.46   14.51
  -8  -2  -2  231.70   15.25
  -8  -2  -2  239.43   14.20
   8  -2   2  286.37   14.90
   8   2   3    3.57    0.97
  -8   2  -3    7.00    1.06
  -8   2  -3    6.99    1.39
   8  -2   3    8.73    1.22
  -8  -2  -3    3.88    1.77
  -8  -2  -3    6.83    0.97
   8  -2   3    7.52    1.43
  -8   2  -4   62.63    4.57
   8   2   4   57.32    4.16
  -8  -2  -4   52.70    4.82
  -8  -2  -4   53.95    3.83
   8  -2   4   68.13    4.41
  -8   2  -5    7.23    1.66
  -8  -2  -5    7.28    2.03
  -8  -2  -5    4.73    1.01
   8  -2   5    6.84    0.77
  -8   2  -6   78.00    6.09
   8  -2   6   80.30    4.76
  -8  -2  -6   82.76    6.47
  -8  -2  -6   78.02    5.33
  -8   2  -7   11.01    2.34
  -8  -2  -7    7.08    1.45
  -8  -2  -7    8.18    2.03
   8  -2   7    8.24    1.11
  -8   2  -8   85.41    6.93
   8  -2   8   82.41    5.39
  -8  -2  -8   86.77    6.08
  -8  -2  -8   97.61    7.40
  -8   3   8    1.32    2.76
  -8   3   7   52.46    4.13
  -8   3   7   55.13    6.49
  -8  -3   7   51.34    4.17
  -8   3   6   10.41    3.32
  -8   3   6    9.34    1.61
  -8  -3   6    8.88    1.59
   8   3  -5   15.80    2.45
  -8   3   5   16.63    2.16
   8   3  -5   18.68    2.16
  -8   3   5   20.94    4.09
  -8  -3   5   22.01    2.33
   8   3  -4   17.39    2.07
  -8   3   4   21.36    2.35
  -8  -3   4   22.73    2.32
   8   3  -3   44.02    3.32
  -8   3   3   43.83    3.38
  -8  -3   3   47.68    3.33
   8   3  -2    4.90    1.01
  -8   3   2    3.91    0.92
  -8  -3   2    2.71    0.77
   8   3  -1   75.02    4.91
  -8   3   1   70.84    4.76
   8   3   0   10.28    1.57
  -8   3   0   11.72    1.53
  -8   3  -1   23.72    2.07
  -8   3  -1   23.77    2.19
   8   3   1   29.47    2.42
   8  -3   1   25.48    2.68
   8   3   2   28.12    2.42
  -8   3  -2   27.16    2.16
  -8   3  -2   24.47    2.36
   8  -3   2   30.19    3.02
  -8  -3  -2   22.64    3.37
  -8   3  -3    1.47    0.76
  -8   3  -3    1.52    0.66
   8   3   3    1.25    0.71
  -8  -3  -3   -0.38    1.51
   8  -3   3    1.28    0.84
  -8  -3  -3    1.16    0.50
   8   3   4   20.34    2.55
  -8   3  -4   28.07    2.74
  -8  -3  -4   26.48    3.61
  -8  -3  -4   23.30    2.03
   8  -3   4   22.02    2.67
   8   3   5   23.54    3.06
  -8   3  -5   37.61    3.44
  -8  -3  -5   33.74    4.31
   8  -3   5   34.81    3.02
  -8  -3  -5   32.72    2.65
  -8   3  -6    0.04    0.86
   8  -3   6    0.45    0.32
  -8  -3  -6    2.72    1.68
  -8  -3  -6    0.50    0.65
  -8   3  -7   30.26    4.05
  -8  -3  -7   33.18    4.46
  -8  -3  -7   29.05    3.10
   8  -3   7   27.77    2.20
   8  -3   8    3.67    0.83
  -8  -3  -8    3.14    1.11
  -8  -3  -8    3.87    2.00
  -8   4   7   10.83    3.76
  -8   4   7   14.29    2.16
  -8  -4   7   11.50    1.95
   8   4  -6    4.27    1.59
  -8   4   6    2.00    0.91
  -8   4   6    7.33    3.11
  -8  -4   6    6.42    1.45
   8   4  -5   18.63    2.23
  -8   4   5   14.04    2.05
   8   4  -5   14.40    2.49
  -8  -4   5   18.01    2.16
   8   4  -4   21.37    2.45
  -8   4   4   24.69    2.70
  -8  -4   4   24.34    2.48
   8   4  -3   63.46    4.42
  -8   4   3   58.24    4.38
  -8  -4   3   63.09    4.24
   8   4  -2   15.61    2.02
  -8   4   2   16.51    2.05
  -8  -4   2   19.89    1.99
   8   4  -1   47.61    3.58
  -8   4   1   42.12    3.37
  -8  -4   1   48.11    3.18
   8   4   0   97.86    6.23
  -8   4   0   91.20    5.98
   8  -4   0   94.38    6.28
  -8   4  -1   11.93    1.58
   8   4   1    9.41    1.56
   8  -4   1   11.94    1.90
   8   4   2   35.20    3.14
  -8   4  -2   38.11    2.80
   8  -4   2   38.64    3.90
  -8   4  -3   53.67    4.25
   8   4   3   54.13    4.18
   8  -4   3   57.33    4.41
  -8  -4  -3   52.26    3.55
  -8  -4  -3   51.41    5.04
   8   4   4   67.57    5.46
  -8   4  -4   84.29    5.89
  -8  -4  -4   80.26    6.66
   8  -4   4   89.02    5.79
  -8  -4  -4   72.60    4.98
  -8   4  -5   34.49    3.38
   8   4   5   26.36    3.26
   8  -4   5   18.28    2.66
  -8  -4  -5   30.95    2.49
  -8  -4  -5   25.95    4.00
  -8   4  -6   59.89    4.96
  -8  -4  -6   59.19    5.66
  -8  -4  -6   44.33    3.80
   8  -4   6   49.95    4.21
  -8   4  -7    2.21    1.47
   8  -4   7    1.16    0.50
  -8  -4  -7    1.66    0.85
  -8  -4  -7    4.87    2.26
  -8   5   7    2.93    2.74
  -8   5   7    2.68    1.28
   8   5  -7    0.32    1.32
  -8   5   6    6.31    1.52
   8   5  -6    6.69    1.95
  -8  -5   6    6.35    1.53
   8   5  -5   37.54    4.53
  -8   5   5   40.77    3.49
  -8  -5   5   36.72    3.28
  -8   5   4    8.83    1.74
   8   5  -4   10.33    1.75
  -8  -5   4   12.42    1.78
  -8   5   3   20.48    2.58
   8   5  -3   26.23    2.76
  -8  -5   3   24.56    2.58
  -8   5   2   14.13    2.07
   8   5  -2   14.06    2.02
  -8  -5   2   16.61    1.94
   8   5  -1    2.30    0.87
  -8   5   1    1.01    0.65
  -8   5   0   10.17    1.59
   8   5   0   14.81    2.13
   8  -5   0   15.26    2.19
  -8   5  -1   17.96    2.14
   8   5   1   18.24    2.42
   8  -5   1   18.83    2.50
  -8   5  -2   17.29    2.00
   8   5   2   13.93    2.20
   8  -5   2   14.93    2.43
  -8   5  -3   21.42    2.90
   8   5   3   20.48    2.75
   8  -5   3   24.24    3.11
   8   5   4   10.71    2.07
  -8   5  -4   10.78    2.15
   8  -5   4    6.82    1.68
  -8  -5  -4   11.93    1.58
   8   5   5   12.35    2.35
  -8   5  -5    8.37    2.08
  -8  -5  -5    7.02    2.79
   8  -5   5    6.45    1.63
  -8  -5  -5    9.14    1.48
  -8   5  -6    4.52    1.79
  -8  -5  -6    6.90    1.39
   8  -5   6    5.11    1.58
  -8  -5  -6    9.48    3.07
  -8   5  -7    2.07    1.63
  -8  -5  -7    1.70    0.96
  -8  -5  -7    0.33    2.37
   8  -5   7    2.57    0.73
  -8   6   6   27.67    3.50
   8   6  -6   18.64    3.39
  -8  -6   6   25.51    3.11
  -8   6   5   44.55    4.06
   8   6  -5   38.75    4.88
  -8  -6   5   49.74    3.95
  -8   6   4    5.66    1.49
   8   6  -4    5.36    1.44
  -8  -6   4    6.47    1.43
   8   6  -3    8.56    1.74
  -8   6   3    7.18    1.59
  -8  -6   3    6.47    1.40
  -8   6   2   27.13    3.20
   8   6  -2   27.04    3.07
  -8   6   1   47.96    3.99
   8   6  -1   48.57    4.08
   8  -6  -1   54.33    4.27
  -8   6   0   22.18    2.63
   8   6   0   22.69    2.85
   8  -6   0   24.53    3.02
  -8   6  -1   53.36    4.15
   8   6   1   56.69    4.61
   8  -6   1   61.32    4.82
  -8   6  -2   31.87    2.81
   8   6   2   34.70    3.85
   8  -6   2   32.66    3.80
   8   6   3    3.10    1.31
   8  -6   3    0.48    1.09
   8   6   4   26.41    3.55
  -8   6  -4   28.71    3.72
   8  -6   4   20.10    2.95
   8   6   5    8.86    2.33
  -8   6  -5   14.36    2.79
  -8  -6  -5    8.26    1.52
   8  -6   5   11.67    2.25
  -8   6  -6   34.45    4.62
  -8  -6  -6   29.33    3.09
   8  -6   6   24.04    3.37
   8   7  -5    2.61    1.56
  -8   7   5    0.83    1.09
  -8  -7   5    1.13    1.19
   8   7  -4    0.75    1.11
  -8   7   4    1.51    1.18
  -8  -7   4    0.98    1.02
   8   7  -3    8.50    1.90
  -8   7   3   10.93    2.10
   8  -7  -3    8.85    2.02
  -8   7   2   15.28    2.49
   8   7  -2   13.71    2.39
   8  -7  -2   16.19    2.51
   8   7  -1    1.03    0.93
  -8   7   1    2.17    0.97
   8  -7  -1    2.11    1.17
   8   7   0   27.66    3.60
  -8   7   0   32.81    3.41
   8  -7   0   27.65    3.54
  -8   7  -1    4.04    1.24
   8   7   1    1.93    1.13
   8  -7   1    2.41    1.29
   8   7   2    2.83    1.40
   8  -7   2    2.56    1.33
   8   7   3    8.91    2.11
   8  -7   3    6.49    1.84
   8   7   4   11.58    2.70
   8  -7   4    8.32    1.98
   8   7   5    2.05    1.68
  -8   7  -5    2.13    1.75
   8  -7   5    1.81    1.28
  -8   8   3   43.66    4.96
   8   8  -3   45.41    4.96
   8  -8  -3   50.61    5.06
   8   8  -2   21.26    3.05
  -8   8   2   20.50    3.13
   8  -8  -2   12.02    2.50
   8   8  -1   26.20    3.62
  -8   8   1   23.08    3.23
   8  -8  -1   29.01    3.73
  -8   8   0    9.26    1.99
   8   8   0    7.29    2.04
   8  -8   0   11.56    2.39
   8   8   1   18.87    3.20
  -8   8  -1   20.85    2.85
   8  -8   1   25.40    3.53
   8   8   2   22.47    3.56
   8  -8   2   22.73    3.41
   8   8   3   20.93    3.65
   8  -8   3   29.79    3.87
   9   0  -6  101.18    6.75
  -9   0   6  103.31    6.80
  -9   0   5   -0.41    0.54
   9   0  -5   -0.08    0.49
   9   0  -4   62.20    4.61
  -9   0   4   70.16    4.71
   9   0  -3   -0.16    0.38
  -9   0   3   -0.11    0.34
   9   0  -2  191.82   11.00
  -9   0   2  180.88   10.94
  -9   0   1    0.40    0.41
   9   0  -1    0.21    0.36
   9   0   0  210.90   12.10
  -9   0   0  207.33   12.07
  -9   0  -1    1.87    1.26
  -9   0  -1    0.03    0.36
   9   0   1   -0.10    0.38
   9   0   2   29.77    2.47
   9   0   2   30.73    2.43
  -9   0  -2   26.67    2.33
  -9   0  -2   32.06    3.26
   9   0   3   -0.21    0.38
  -9   0  -3    0.16    0.85
  -9   0  -4   88.26    6.32
  -9   0  -5    0.60    0.78
  -9   0  -6   38.75    3.87
  -9   0  -7    2.32    1.11
  -9   0  -8    6.45    1.70
  -9  -1   7   -0.41    0.67
  -9   1   6   29.50    3.17
   9   1  -6   33.26    2.95
  -9  -1   6   33.99    3.39
  -9  -1   6   28.84    3.10
   9   1  -5    1.57    0.79
  -9   1   5    1.63    0.76
  -9  -1   5    1.51    0.82
  -9  -1   5    1.49    0.78
   9   1  -4   19.93    2.36
  -9   1   4   19.14    2.31
  -9  -1   4   18.31    2.28
  -9   1   3    8.85    1.49
   9   1  -3    8.63    1.47
  -9  -1   3   10.65    1.59
   9   1  -2   12.65    1.65
  -9   1   2   11.64    1.61
  -9  -1   2   10.12    1.52
   9   1  -1   27.56    2.37
  -9   1   1   30.60    2.46
  -9  -1   1   29.65    2.42
  -9   1   0   25.21    2.77
  -9   1   0   21.45    2.24
   9   1   0   20.71    1.92
   9  -1   0   16.44    2.05
  -9  -1   0   19.61    2.16
  -9   1  -1   19.90    2.11
  -9   1  -1   13.89    2.08
   9   1   1   17.95    2.02
   9  -1   1   17.32    1.10
  -9  -1  -1   20.45    2.14
   9  -1   1   18.40    2.05
  -9  -1  -1   17.12    2.72
  -9   1  -2   15.52    2.16
  -9   1  -2   17.08    1.83
   9   1   2   16.59    1.89
   9  -1   2   14.71    1.93
  -9  -1  -2   18.14    2.80
   9  -1   2   14.82    1.82
   9   1   3   15.05    1.90
  -9   1  -3   13.96    1.69
  -9   1  -3   14.57    2.22
   9  -1   3   15.30    1.75
   9  -1   3   17.50    2.11
  -9  -1  -3   13.14    2.38
   9   1   4   11.28    1.68
  -9   1  -4   15.29    2.30
  -9  -1  -4   11.46    2.39
  -9   1  -5    4.51    1.37
   9  -1   5    8.48    0.85
  -9  -1  -5   11.55    2.30
  -9   1  -6   21.46    3.15
  -9  -1  -6   20.75    3.19
  -9   1  -7    2.76    1.26
  -9  -1  -7    2.62    1.33
  -9   2   7   -0.11    0.85
  -9  -2   7    0.11    0.78
  -9   2   6  105.99    6.85
  -9  -2   6   94.95    6.76
  -9  -2   6  108.81    7.17
   9   2  -5    7.17    1.34
  -9   2   5    7.36    1.47
  -9  -2   5    6.41    1.37
  -9  -2   5    4.81    1.20
  -9   2   4  141.63    9.30
   9   2  -4  159.88    9.39
  -9  -2   4  156.97    9.35
  -9  -2   4  156.84    9.38
  -9   2   3   21.79    2.45
   9   2  -3   22.08    2.42
  -9  -2   3   19.89    2.21
  -9  -2   3   18.58    2.24
  -9   2   2   91.94    6.05
   9   2  -2   92.16    6.04
  -9  -2   2   97.84    6.07
   9   2  -1    8.64    1.40
  -9   2   1    7.74    1.27
   9   2   0  131.82    8.31
  -9   2   0  144.16    8.33
  -9   2  -1   11.15    1.57
  -9   2  -1   10.76    1.70
   9   2   1   13.61    1.79
  -9  -2  -1   12.41    2.60
   9   2   2  120.86    8.13
  -9   2  -2  148.96    8.42
  -9   2  -2  130.44    7.95
   9  -2   2  138.05    8.32
   9  -2   2  139.06    8.04
  -9  -2  -2  123.37    8.96
  -9   2  -3   50.34    3.23
   9   2   3   34.55    3.19
  -9   2  -3   45.47    3.60
   9  -2   3   48.49    3.22
  -9  -2  -3   38.11    2.89
   9  -2   3   46.51    3.63
  -9  -2  -3   34.74    4.23
   9   2   4   31.53    2.83
  -9   2  -4   37.66    3.24
   9  -2   4   35.93    1.99
  -9  -2  -4   30.95    3.80
  -9  -2  -4   24.98    2.41
  -9   2  -5   16.79    2.58
   9  -2   5   17.16    1.25
  -9  -2  -5   14.97    1.90
  -9  -2  -5   16.15    2.98
  -9   2  -6   14.71    2.58
   9  -2   6   18.36    1.43
  -9  -2  -6   16.75    2.14
  -9  -2  -6   20.17    3.31
  -9   2  -7    2.33    1.29
  -9  -2  -7    4.20    1.86
  -9  -2  -7    1.80    0.94
   9  -2   7    2.30    0.65
  -9   3   7    0.94    0.95
  -9   3   7    0.44    2.68
  -9  -3   7    1.70    0.98
  -9   3   6    3.20    2.44
  -9   3   6    1.33    0.79
  -9  -3   6    1.54    0.84
   9   3  -5   18.15    2.19
  -9   3   5   16.32    2.22
  -9  -3   5   17.97    2.20
  -9   3   4   14.30    2.01
   9   3  -4   10.96    1.74
  -9  -3   4   17.46    2.08
  -9   3   3    8.39    1.39
   9   3  -3    8.56    1.45
  -9  -3   3    8.35    1.36
   9   3  -2   16.31    2.04
  -9   3   2   19.53    2.22
  -9  -3   2   20.56    2.14
  -9   3   1    9.14    1.40
   9   3  -1    8.89    1.44
   9   3   0    7.66    1.38
  -9   3   0    6.29    1.17
   9   3   1   52.11    4.00
  -9   3  -1   55.98    3.83
   9  -3   1   54.25    4.12
  -9   3  -2    3.25    0.80
   9   3   2    1.02    0.67
   9  -3   2    1.25    0.82
  -9  -3  -2    1.12    1.90
   9   3   3   20.14    2.44
  -9   3  -3   18.11    2.42
  -9  -3  -3   21.79    3.45
   9  -3   3   18.81    2.51
   9   3   4   31.14    3.32
  -9   3  -4   38.91    3.45
  -9  -3  -4   30.67    4.19
   9  -3   4   35.88    3.59
  -9  -3  -4   34.04    2.66
  -9   3  -5   11.19    2.22
  -9  -3  -5   15.12    1.82
   9  -3   5   10.27    1.03
  -9  -3  -5   13.74    2.88
  -9   3  -6   10.65    2.31
  -9  -3  -6    8.48    1.56
  -9  -3  -6   12.62    2.85
   9  -3   6   12.11    1.21
  -9   3  -7   15.98    2.96
   9  -3   7   13.69    1.50
  -9  -3  -7   17.69    3.53
  -9  -3  -7   15.58    2.20
  -9   4   7   11.15    1.99
  -9   4   7   13.58    3.83
  -9   4   6   27.91    3.27
  -9  -4   6   37.36    3.19
  -9   4   5   11.40    1.90
   9   4  -5   14.66    2.08
   9   4  -5   20.81    2.98
  -9  -4   5   14.09    2.02
  -9   4   4   54.65    4.32
   9   4  -4   56.93    4.33
  -9  -4   4   64.56    4.35
  -9   4   3    0.69    0.60
   9   4  -3    0.54    0.60
  -9  -4   3    2.06    0.82
  -9   4   2   71.20    5.13
   9   4  -2   76.90    5.26
  -9  -4   2   76.69    4.94
   9   4  -1   51.38    3.81
  -9   4   1   45.75    3.60
  -9   4   0   82.73    5.58
   9   4   0   90.14    5.91
   9   4   1   78.90    5.32
  -9   4  -1   74.02    4.95
   9  -4   1   71.23    5.32
  -9   4  -2   34.73    2.82
   9   4   2   37.71    3.21
   9  -4   2   35.96    3.85
  -9   4  -3    8.67    1.80
   9   4   3    7.00    1.54
   9  -4   3    7.75    1.73
  -9  -4  -3    7.90    2.83
  -9   4  -4   38.81    3.60
   9   4   4   31.22    3.55
  -9  -4  -4   45.47    5.36
   9  -4   4   31.86    3.62
  -9   4  -5   51.63    4.51
   9   4   5   45.76    4.21
   9  -4   5   53.43    4.24
  -9  -4  -5   50.68    5.78
  -9  -4  -5   42.65    3.53
  -9   4  -6   17.22    3.02
  -9  -4  -6   12.96    3.19
  -9  -4  -6   12.33    1.89
   9  -4   6   16.05    1.51
  -9   4  -7   54.96    5.13
  -9  -4  -7   46.58    3.96
   9  -4   7   50.27    3.35
  -9  -4  -7   44.79    5.71
  -9   5   6   12.33    2.15
   9   5  -6    9.23    2.28
  -9  -5   6   10.43    1.89
  -9   5   5   11.96    2.06
   9   5  -5    9.24    2.18
  -9  -5   5    8.52    1.63
  -9   5   4    8.45    1.71
   9   5  -4    9.42    1.69
  -9  -5   4   10.71    1.70
   9   5  -3    9.11    1.67
  -9   5   3    9.14    1.66
  -9  -5   3    7.85    1.43
   9   5  -2   25.88    2.96
  -9   5   2   28.91    3.06
  -9   5   1   21.66    2.66
   9   5  -1   29.05    3.05
  -9   5   0    6.68    1.36
   9   5   0   10.13    1.82
   9  -5   0   11.57    1.96
   9   5   1    6.79    1.56
  -9   5  -1    5.18    1.17
   9  -5   1    5.65    1.54
   9   5   2   18.14    2.62
  -9   5  -2   16.12    1.98
   9  -5   2   20.78    2.93
   9   5   3   12.94    2.22
   9  -5   3   10.59    2.17
   9   5   4   14.34    2.48
  -9   5  -4    9.58    2.18
   9  -5   4    8.87    1.96
   9   5   5   11.38    2.51
  -9   5  -5   11.81    2.51
  -9  -5  -5   12.24    3.45
   9  -5   5   11.75    2.21
  -9   5  -6   12.89    2.86
   9  -5   6    9.36    2.04
  -9  -5  -6    8.95    1.68
  -9  -5  -6   19.18    4.25
   9   6  -5    8.24    2.27
  -9   6   5   10.00    2.01
  -9  -6   5    9.02    1.84
  -9   6   4   12.32    2.28
   9   6  -4   13.97    2.23
  -9  -6   4   11.96    2.02
   9   6  -3   48.62    3.93
  -9   6   3   40.39    3.79
   9   6  -2   50.67    4.10
  -9   6   2   43.03    3.85
  -9   6   1   21.16    2.63
   9   6  -1   21.03    2.82
   9  -6  -1   18.16    2.74
   9   6   0   23.18    2.98
  -9   6   0   18.21    2.42
   9  -6   0   21.59    2.84
  -9   6  -1   28.90    3.01
   9   6   1   25.83    3.30
   9  -6   1   24.49    3.30
   9   6   2   23.58    3.15
   9  -6   2   18.19    2.81
   9   6   3   64.90    5.37
   9  -6   3   61.80    5.27
   9   6   4   27.03    3.75
   9  -6   4   26.41    3.41
   9   6   5   32.94    4.39
  -9   6  -5   41.69    5.00
   9  -6   5   33.07    4.01
  -9   7   4   22.27    3.22
   9   7  -4   15.87    2.65
   9   7  -3   15.79    2.56
  -9   7   3   13.54    2.58
   9  -7  -3   13.98    2.53
   9   7  -2    4.75    1.50
  -9   7   2    5.10    1.60
   9  -7  -2    6.59    1.74
  -9   7   1    1.23    1.08
   9   7  -1    0.99    0.95
   9  -7  -1    1.12    1.15
   9   7   0   33.63    3.92
  -9   7   0   28.94    3.29
   9  -7   0   26.89    3.56
   9   7   1    7.19    1.94
  -9   7  -1    6.61    1.56
   9  -7   1    7.74    2.06
   9   7   2   16.66    2.81
   9  -7   2   14.90    2.77
   9   7   3    2.50    1.41
   9  -7   3    1.61    1.46
   9   7   4    5.96    2.08
   9  -7   4    7.15    2.03
  -9   8   2    0.91    1.33
   9   8  -2    2.95    1.53
   9  -8  -2    1.61    2.17
  -9   8   1   29.64    3.72
   9   8  -1   22.89    3.51
   9  -8  -1   29.58    3.87
  -9   8   0   22.04    3.19
   9   8   0   33.13    4.10
   9  -8   0   21.25    3.36
  -9   8  -1   34.73    4.00
   9   8   1   40.41    4.85
   9  -8   1   42.33    4.93
   9   8   2   24.34    3.87
  10   0  -6    9.23    1.76
 -10   0   6    9.52    1.78
  10   0  -5    0.02    0.61
 -10   0   5   -0.13    0.52
 -10   0   4   66.49    4.84
  10   0  -4   66.93    4.82
 -10   0   3    0.05    0.52
  10   0  -3    0.04    0.55
 -10   0   2   73.82    5.20
  10   0  -2   78.77    5.27
 -10   0   1   -0.42    0.40
  10   0  -1   -0.16    0.41
 -10   0   0  141.31    8.55
  10   0   0  139.51    8.56
 -10   0  -1   -0.15    1.26
  10   0   1    0.35    0.44
 -10   0  -1   -0.32    0.38
 -10   0  -2  249.88   15.15
  10   0   2  253.85   15.20
 -10   0  -2  299.75   15.99
  10   0   3    0.19    0.52
 -10   0  -3    0.40    1.02
 -10   0  -4  114.82    7.97
 -10   0  -5    1.59    1.05
 -10   0  -6   92.85    7.04
 -10   0  -7    1.65    1.08
 -10   1   7   21.43    3.49
 -10   1   6    9.12    1.70
  10   1  -6    6.70    1.52
  10  -1  -6    6.85    1.53
 -10  -1   6    5.19    1.44
 -10   1   5   11.23    1.85
  10   1  -5   12.23    1.92
 -10  -1   5   14.19    2.06
 -10   1   4   13.63    1.92
  10   1  -4   11.76    1.86
 -10  -1   4   14.01    2.03
 -10   1   3   14.32    2.06
  10   1  -3   17.02    2.19
 -10  -1   3   15.40    2.07
  10   1  -2   11.70    1.69
 -10   1   2   10.87    1.69
  10  -1  -2   15.27    1.97
 -10  -1   2   11.77    1.72
 -10   1   1   32.09    2.63
  10   1  -1   29.27    2.53
  10  -1  -1   30.79    2.61
 -10  -1   1   26.95    2.48
 -10   1   0    7.48    1.30
  10   1   0   11.79    1.67
  10  -1   0    6.86    1.26
 -10  -1   0    8.15    1.42
  10   1   1    2.91    0.85
 -10   1  -1    1.44    0.65
 -10   1  -1    4.43    1.03
 -10  -1  -1    2.85    0.81
 -10  -1  -1    5.48    2.12
  10  -1   1    4.58    1.05
 -10   1  -2    8.20    1.34
 -10   1  -2   10.59    1.98
  10   1   2    8.79    1.46
  10  -1   2    7.93    1.35
 -10  -1  -2    8.96    2.19
  10  -1   2    8.09    1.48
 -10   1  -3    0.52    0.84
 -10   1  -3    0.56    0.54
  10   1   3    0.52    0.61
 -10  -1  -3    0.61    1.27
  10  -1   3    0.67    0.57
 -10   1  -4   15.12    2.48
  10   1   4   11.90    1.89
 -10  -1  -4   14.51    2.78
 -10   1  -5    6.07    1.66
 -10  -1  -5    4.51    1.86
 -10   1  -6    4.45    1.48
 -10  -1  -6    5.36    1.72
 -10   1  -7    5.32    1.66
 -10  -1  -7    7.63    2.14
 -10   2   7    7.34    1.65
 -10  -2   7    7.01    1.95
 -10   2   6    8.86    1.68
  10   2  -6   12.12    2.40
 -10  -2   6   10.57    1.86
 -10  -2   6   12.16    2.01
 -10   2   5    6.85    1.42
  10   2  -5   10.01    1.71
 -10  -2   5    5.72    1.38
 -10  -2   5   10.69    1.78
  10   2  -4    9.76    1.63
 -10   2   4   10.31    1.72
 -10  -2   4   10.52    1.73
 -10  -2   4   10.24    1.69
 -10   2   3   23.20    2.63
  10   2  -3   22.40    2.52
 -10  -2   3   21.76    2.48
  10   2  -2   84.43    5.90
 -10   2   2   89.31    5.91
 -10  -2   2   93.90    5.97
  10   2  -1   26.97    2.80
 -10   2   1   25.00    2.35
 -10   2   0  163.65    9.89
  10   2   0  168.18    9.97
  10   2   1    1.99    0.74
 -10   2  -1    2.03    0.69
  10  -2   1    3.10    0.93
 -10   2  -2   55.06    4.17
  10   2   2   51.03    3.96
 -10   2  -2   49.90    3.76
  10  -2   2   52.26    3.80
 -10  -2  -2   57.79    5.20
  10  -2   2   55.33    4.13
  10   2   3   12.47    1.96
 -10   2  -3   16.40    1.97
 -10   2  -3   19.97    2.57
 -10  -2  -3   14.03    2.90
  10  -2   3   17.09    2.39
  10  -2   3   23.64    2.30
  10   2   4  149.62   10.57
 -10   2  -4  190.63   11.31
 -10  -2  -4  150.39   11.45
  10  -2   4  201.73    9.66
 -10   2  -5   13.52    2.35
  10  -2   5   15.65    1.15
 -10  -2  -5   13.36    2.86
 -10   2  -6  114.98    8.48
  10  -2   6  122.87    6.87
 -10  -2  -6  122.74    9.15
 -10   2  -7    2.96    1.46
 -10  -2  -7    4.35    1.91
  10  -2   7    0.79    0.44
 -10   3   6    3.63    1.31
 -10  -3   6    3.00    1.19
 -10   3   5   23.92    2.90
  10   3  -5   24.08    2.80
 -10  -3   5   28.33    3.05
  10   3  -4    0.75    0.73
 -10   3   4    1.83    0.75
 -10  -3   4    1.54    0.82
  10   3  -3   15.16    2.03
 -10   3   3   12.06    1.91
 -10  -3   3   14.76    1.90
  10   3  -2    5.54    1.19
 -10   3   2    6.25    1.26
 -10   3   1   -0.21    0.50
  10   3  -1    0.19    0.52
  10   3   0    2.45    0.88
 -10   3   0    1.92    0.73
  10   3   1    9.49    1.69
 -10   3  -1   12.28    1.75
  10  -3   1   12.23    1.96
  10   3   2    0.74    0.68
 -10   3  -2    2.10    0.76
  10  -3   2    0.96    0.91
  10   3   3   17.05    2.32
 -10   3  -3   19.63    2.59
  10  -3   3   25.59    3.00
 -10  -3  -3   12.00    2.90
  10   3   4    3.67    1.33
 -10   3  -4    4.28    1.30
  10  -3   4    4.90    1.58
 -10  -3  -4    4.06    2.25
 -10   3  -5    8.68    2.00
  10  -3   5    8.76    0.87
 -10  -3  -5    9.92    2.89
 -10   3  -6    5.57    1.67
 -10  -3  -6    3.31    1.08
  10  -3   6    2.41    0.55
 -10  -3  -6    3.65    2.25
 -10   4   6   12.71    2.09
 -10  -4   6    9.60    1.89
  10   4  -5   62.85    4.65
 -10   4   5   53.68    4.45
 -10  -4   5   62.65    4.60
  10   4  -4   11.74    1.95
 -10   4   4   12.73    2.01
 -10  -4   4   16.32    2.11
  10   4  -3   10.56    1.80
 -10   4   3   12.17    1.91
 -10  -4   3   14.73    1.94
  10   4  -2   38.56    3.26
 -10   4   2   36.50    3.13
  10   4  -1   31.49    3.00
 -10   4   1   35.69    2.96
 -10   4   0   35.54    3.05
  10   4   0   40.46    3.37
  10  -4   0   37.98    3.81
  10   4   1   67.43    4.68
 -10   4  -1   54.81    4.21
  10  -4   1   59.02    4.69
 -10   4  -2   86.81    5.77
  10   4   2   83.99    6.13
  10  -4   2   96.85    6.49
  10   4   3   18.56    2.60
  10  -4   3   16.68    2.60
 -10   4  -4   54.53    4.56
  10   4   4   43.90    4.16
 -10  -4  -4   56.22    6.37
 -10   4  -5    2.06    1.29
 -10  -4  -5    4.44    2.65
 -10   4  -6   61.07    5.52
  10  -4   6   64.43    3.81
 -10  -4  -6   51.11    6.56
 -10   5   5    0.82    0.89
 -10  -5   5    1.74    1.13
  10   5  -4    0.63    0.78
 -10   5   4    0.12    0.69
 -10  -5   4    0.08    0.80
 -10   5   3   18.65    2.67
  10   5  -3   22.90    2.83
  10   5  -2    0.77    0.75
 -10   5   2   -0.66    0.50
 -10   5   1    9.27    1.67
  10   5  -1   13.33    2.09
  10   5   0    2.03    0.94
 -10   5   0    1.96    0.85
  10  -5   0    3.53    1.27
  10   5   1    3.89    1.27
 -10   5  -1    4.54    1.14
  10  -5   1    2.87    1.23
 -10   5  -2    0.49    0.70
  10   5   2    1.13    1.05
  10  -5   2    0.68    0.95
  10   5   3   10.76    2.08
  10  -5   3    5.50    1.61
  10   5   4    1.18    1.12
  10  -5   4    0.46    1.08
 -10   5  -5    5.74    2.03
  10   5   5    7.95    2.20
 -10  -5  -5    3.64    3.18
  10  -5   5    5.08    1.60
 -10   6   4   28.16    3.48
  10   6  -4   22.77    3.01
 -10   6   3   69.40    5.42
  10   6  -3   68.52    5.33
  10   6  -2   15.20    2.33
 -10   6   2   13.79    2.27
  10   6  -1   45.11    4.02
 -10   6   1   45.04    3.91
  10  -6  -1   47.80    4.72
 -10   6   0   30.50    3.32
  10   6   0   29.19    3.53
  10  -6   0   31.32    3.71
  10   6   1   12.62    2.27
 -10   6  -1   12.53    1.98
  10  -6   1   12.45    2.41
  10   6   2   24.27    3.30
  10  -6   2   26.56    3.66
  10   6   3   31.49    3.97
  10  -6   3   30.02    3.83
  10   6   4   28.40    3.86
  10  -6   4   26.40    3.49
  10   7  -3    0.64    1.05
 -10   7   3    2.73    1.49
 -10   7   2    4.78    1.57
  10   7  -2    6.13    1.65
  10  -7  -2    5.14    1.67
  10   7  -1    4.22    1.58
 -10   7   1    3.24    1.30
  10  -7  -1    4.55    1.69
  10   7   0    0.12    1.00
 -10   7   0    1.38    1.16
  10  -7   0    2.12    1.45
  10   7   1    3.68    1.54
 -10   7  -1    2.66    1.25
  10  -7   1    2.86    1.61
  10   7   2    6.79    1.92
  10  -7   2    6.46    2.00
  10   7   3    2.10    1.63
  10  -7   3   -0.02    1.39
 -11   0   6  101.85    7.09
  11   0  -6  102.85    7.06
  11   0  -5    0.27    0.66
 -11   0   5   -0.42    0.64
 -11   0   4  162.95    9.92
  11   0  -4  151.43    9.79
  11   0  -3   -0.16    0.50
 -11   0   3    0.11    0.53
  11   0  -2   70.78    5.03
 -11   0   2   70.39    5.03
 -11   0   1   -0.20    0.50
  11   0  -1    0.12    0.44
 -11   0   0   66.94    4.75
  11   0   0   69.11    4.79
  11   0   1   -0.40    0.35
 -11   0  -1    0.19    1.60
 -11   0  -1    0.08    0.43
  11   0   2   77.58    5.66
 -11   0  -2   81.89    5.67
 -11   0  -2  105.29    6.76
 -11   0  -3   -0.37    1.15
  11   0   3   -0.08    0.54
 -11   0  -4   25.01    3.52
 -11   0  -5   -0.17    0.99
 -11   0  -6   13.90    2.78
 -11   1   6    6.32    1.55
  11   1  -6    4.98    1.36
  11  -1  -6    6.43    1.44
 -11  -1   6   10.26    1.91
  11   1  -5    6.60    1.46
 -11   1   5    3.69    1.26
  11  -1  -5    5.19    1.33
 -11  -1   5    8.54    1.61
  11   1  -4   16.09    2.16
 -11   1   4   16.43    2.27
 -11  -1   4   14.74    2.09
  11  -1  -4   12.68    2.02
 -11   1   3    5.78    1.26
  11   1  -3    4.33    1.11
 -11  -1   3    5.23    1.27
  11  -1  -3    3.70    1.07
  11   1  -2   11.45    1.69
 -11   1   2    9.30    1.63
 -11  -1   2   12.00    1.77
  11  -1  -2    8.22    1.52
 -11   1   1    0.30    0.60
  11   1  -1    0.31    0.55
 -11  -1   1    1.54    0.76
  11  -1  -1    1.40    0.76
 -11   1   0    1.05    0.70
  11   1   0    0.86    0.61
  11  -1   0    1.39    0.71
 -11  -1   0    0.40    0.53
  11   1   1    2.94    0.93
 -11   1  -1    2.43    0.88
 -11  -1  -1    2.66    2.01
  11  -1   1    1.55    0.75
  11   1   2    7.56    1.42
 -11   1  -2   11.80    1.60
 -11   1  -2   11.57    2.22
 -11  -1  -2   11.35    2.60
  11  -1   2    7.27    1.35
 -11   1  -3    1.19    1.05
 -11   1  -3    0.87    0.69
  11   1   3    0.65    0.73
  11  -1   3    0.63    0.73
 -11  -1  -3    0.25    1.45
 -11   1  -4   17.72    2.83
 -11  -1  -4   26.81    3.74
 -11   1  -5    4.67    1.45
 -11  -1  -5    4.44    1.97
 -11   1  -6    9.49    2.16
 -11  -1  -6    5.40    2.18
 -11   2   6   62.04    4.88
  11   2  -6   67.16    5.09
 -11  -2   6   64.90    5.06
 -11   2   5    7.85    1.66
  11   2  -5    6.10    1.53
 -11  -2   5    9.05    1.73
  11   2  -4   53.70    4.33
 -11   2   4   52.85    4.26
 -11  -2   4   59.55    4.41
 -11   2   3    1.12    0.77
  11   2  -3    1.38    0.73
 -11  -2   3    1.07    0.66
 -11   2   2  100.09    6.46
  11   2  -2   92.92    6.46
 -11   2   1   23.61    2.68
  11   2  -1   28.44    2.58
 -11   2   0   80.02    5.38
  11   2   0   82.99    5.48
  11  -2   0   73.54    5.32
  11   2   1   24.11    2.71
 -11   2  -1   23.95    2.60
  11  -2   1   25.29    2.71
 -11   2  -2   15.76    2.00
  11   2   2   17.73    2.34
  11  -2   2   15.79    2.04
  11  -2   2   16.99    2.44
 -11  -2  -2   17.05    3.33
 -11   2  -3    3.34    1.20
  11   2   3    0.74    0.79
 -11  -2  -3    3.66    2.19
  11   2   4   22.40    2.76
 -11  -2  -4   25.07    3.75
 -11   2  -5   16.00    2.70
 -11  -2  -5   18.12    3.51
 -11   2  -6   16.66    2.86
 -11  -2  -6   16.99    3.49
 -11   3   6    9.00    1.76
 -11  -3   6   11.88    2.13
  11   3  -5   20.13    2.60
 -11   3   5   20.93    2.79
 -11  -3   5   20.88    2.63
  11   3  -4    5.75    1.39
 -11   3   4    7.46    1.50
 -11  -3   4    6.22    1.48
  11   3  -3    0.91    0.77
 -11   3   3    2.15    0.90
 -11   3   2   -0.09    0.55
  11   3  -2    1.88    0.86
 -11   3   1   19.46    2.35
  11   3  -1   16.60    2.26
  11   3   0    2.53    0.99
 -11   3   0    1.16    0.73
  11   3   1   11.39    1.93
 -11   3  -1    7.64    1.46
  11  -3   1    6.82    1.62
  11   3   2    4.37    1.26
 -11   3  -2    2.44    0.88
  11  -3   2    3.63    1.09
  11  -3   2    2.46    1.16
  11   3   3   12.96    2.12
  11  -3   3   10.58    2.17
 -11  -3  -3   14.89    3.42
  11   3   4    5.93    1.64
 -11   3  -4   12.37    2.29
  11  -3   4    5.70    0.56
 -11  -3  -4    2.56    2.39
 -11   3  -5    6.24    1.78
 -11  -3  -5    5.36    2.65
  11  -3   5    5.97    0.68
 -11   3  -6   11.76    2.48
 -11  -3  -6   13.91    3.46
  11  -3   6   10.89    1.10
  11   4  -5   17.90    2.47
 -11   4   5   12.33    2.06
 -11  -4   5   10.15    1.94
  11   4  -4   47.41    3.86
 -11   4   4   39.69    3.69
 -11  -4   4   45.55    3.75
  11   4  -3   44.71    3.90
 -11   4   3   46.44    3.88
 -11  -4   3   51.30    4.10
 -11   4   2   36.91    3.16
  11   4  -2   33.09    3.55
 -11   4   1   28.45    3.06
  11   4  -1   23.83    2.92
  11   4   0   30.47    3.44
 -11   4   0   30.24    3.22
  11  -4   0   34.03    3.67
 -11   4  -1   20.68    2.45
  11   4   1   31.46    3.30
  11  -4   1   17.39    2.62
  11   4   2   32.43    3.62
 -11   4  -2   34.72    2.99
  11  -4   2   32.89    3.74
  11   4   3   75.69    5.77
  11  -4   3   78.53    6.03
  11   4   4    7.89    1.90
  11  -4   4    9.79    2.14
 -11  -4  -4    8.09    3.26
 -11   4  -5   30.84    4.04
 -11  -4  -5   30.84    5.05
  11  -4   5   39.07    2.32
 -11   5   4    2.29    1.08
  11   5  -4    1.56    1.04
  11   5  -3   22.01    2.87
 -11   5   3   20.53    2.73
  11   5  -2    1.67    0.95
 -11   5   2    0.95    0.84
 -11   5   1    1.48    0.86
  11   5  -1    0.49    0.79
  11   5   0    4.59    1.37
 -11   5   0    3.43    1.09
  11  -5   0    3.66    1.30
 -11   5  -1    8.05    1.61
  11   5   1    9.23    1.87
  11  -5   1    7.53    1.87
  11   5   2    0.19    0.96
  11  -5   2   -0.29    0.99
  11   5   3    7.35    1.95
  11  -5   3    9.11    2.06
  11   5   4    1.85    1.42
  11  -5   4    0.64    1.26
  11   6  -3    7.62    1.79
 -11   6   3    6.51    1.67
  11   6  -2   11.23    2.20
 -11   6   2    8.64    1.92
  11  -6  -2   11.72    2.36
 -11   6   1   63.31    5.05
  11   6  -1   65.86    5.30
  11  -6  -1   70.41    5.44
 -11   6   0   18.76    2.57
  11   6   0   20.90    2.90
  11  -6   0   16.41    2.78
  11   6   1   73.08    5.69
 -11   6  -1   69.57    5.09
  11  -6   1   60.93    5.58
  11   6   2   18.13    2.90
  11  -6   2   13.18    2.62
  11   6   3   24.34    3.53
  11  -6   3   21.47    3.37
 -11   7   1    4.27    1.52
  11   7  -1    5.96    1.85
  11   7   0    0.86    1.25
 -11   7   0    2.03    1.24
 -11   7  -1    1.20    1.07
 -12   0   6   22.98    3.08
  12   0  -6   14.31    2.42
 -12   0   5   -0.52    0.72
  12   0  -5    0.24    0.84
 -12   0   4   21.95    2.84
  12   0  -4   21.49    2.74
  12   0  -3    0.18    0.70
 -12   0   3    0.42    0.78
  12   0  -2  119.21    8.03
 -12   0   2  128.95    8.14
  12   0  -1    0.13    0.54
 -12   0   1   -0.03    0.55
  12   0   0  181.15   11.25
 -12   0   0  195.44   11.38
 -12   0  -1    0.09    0.55
  12   0   1   -0.14    0.56
 -12   0  -2   69.24    5.57
 -12   0  -2   54.08    4.22
  12   0   2   53.41    4.26
 -12   0  -3   -0.14    1.43
  12   0   3   -0.07    0.74
 -12   0  -4  191.77   12.54
 -12   0  -5    1.88    1.50
  12   1  -5    7.32    1.61
 -12   1   5    8.41    1.74
  12  -1  -5    8.84    1.75
 -12  -1   5   11.14    2.00
  12   1  -4   12.52    2.06
 -12   1   4    9.28    1.86
  12  -1  -4   12.24    2.00
 -12  -1   4   14.53    2.25
  12   1  -3    1.05    0.79
 -12   1   3    1.95    0.98
 -12  -1   3    2.63    1.01
  12  -1  -3    1.23    0.86
  12   1  -2    4.79    1.32
 -12   1   2    6.29    1.48
 -12  -1   2    5.69    1.39
  12  -1  -2    4.32    1.24
 -12   1   1   13.31    2.04
  12   1  -1   13.04    1.97
 -12  -1   1    9.25    1.72
  12  -1  -1   10.49    1.79
  12   1   0   10.99    1.82
 -12   1   0    7.10    1.55
  12  -1   0    9.67    1.72
 -12  -1   0   13.12    1.97
 -12   1  -1   15.89    2.15
  12   1   1   14.61    2.14
  12  -1   1   15.60    2.10
 -12   1  -2    8.47    1.49
  12   1   2    6.96    1.50
 -12  -1  -2    6.24    2.58
  12  -1   2    7.05    1.43
 -12   1  -3    1.26    1.42
 -12   1  -3    0.69    1.09
  12   1   3    0.37    0.72
 -12  -1  -3    1.57    1.95
  12  -1   3    1.52    0.91
 -12   1  -4    8.91    2.15
 -12  -1  -4    9.77    2.67
 -12   1  -5    9.59    2.26
 -12  -1  -5    3.21    1.89
 -12   2   5   22.32    2.89
  12   2  -5   17.42    2.58
 -12   2   4   41.22    3.85
  12   2  -4   50.61    4.16
 -12  -2   4   52.97    4.18
  12   2  -3    3.82    1.24
 -12   2   3    3.54    1.18
  12   2  -2   64.51    4.86
 -12   2   2   66.68    4.81
  12  -2  -2   59.02    4.69
  12   2  -1    9.84    1.74
 -12   2   1    9.66    1.68
  12  -2  -1    9.35    1.72
 -12   2   0   66.30    4.74
  12   2   0   59.47    4.68
  12  -2   0   67.57    4.73
 -12   2  -1   18.86    2.36
  12   2   1   18.39    2.45
  12  -2   1   20.64    2.48
  12  -2   1   22.72    2.83
  12   2   2  143.81    9.30
 -12   2  -2  145.87    9.11
  12  -2   2  148.04    9.14
 -12  -2  -2  151.47   10.59
  12   2   3    0.69    0.88
 -12  -2  -3    2.55    2.52
  12   2   4   55.16    4.83
 -12  -2  -4   59.84    5.98
 -12   2  -5    2.57    1.16
 -12  -2  -5   -0.32    1.92
  12   3  -5    0.86    0.98
 -12   3   5    2.00    1.06
 -12   3   4    1.16    0.87
  12   3  -4   -0.23    0.66
 -12   3   3   16.43    2.35
  12   3  -3   18.59    2.49
  12   3  -2    3.71    1.15
 -12   3   2    5.24    1.38
  12   3  -1    6.35    1.51
 -12   3   1    5.95    1.32
 -12   3   0    7.82    1.54
  12   3   0    8.05    1.66
 -12   3  -1    3.97    1.17
  12   3   1    4.29    1.27
  12  -3   1    4.84    1.28
  12  -3   1    2.17    1.25
 -12   3  -2    2.22    0.97
  12   3   2    1.77    1.02
  12  -3   2    2.78    1.10
  12  -3   2    3.02    1.51
  12   3   3   19.77    2.71
 -12  -3  -3   15.45    3.90
  12   3   4    1.20    1.18
 -12  -3  -4    0.48    2.45
 -12   3  -5    7.14    1.88
 -12  -3  -5    4.63    2.82
  12  -3   5    6.08    0.65
  12   4  -4   17.51    2.63
 -12   4   4   20.87    2.78
 -12   4   3   34.16    3.74
  12   4  -3   33.09    3.61
  12   4  -2   32.56    3.59
 -12   4   2   34.39    3.63
 -12   4   1   30.30    3.25
  12   4  -1   30.01    3.42
  12   4   0   73.53    5.20
 -12   4   0   56.25    4.62
  12  -4   0   62.95    5.05
  12   4   1    2.09    1.05
 -12   4  -1    0.75    0.78
  12  -4   1    2.06    1.16
 -12   4  -2   41.15    4.78
  12   4   2   35.75    3.94
  12  -4   2   33.16    3.10
  12  -4   2   31.54    3.92
  12   4   3   19.47    2.87
  12  -4   3   18.88    3.09
  12   4   4   68.20    5.61
 -12   5   3    3.14    1.37
  12   5  -3    1.83    1.13
 -12   5   2    0.77    0.94
  12   5  -2    1.61    1.00
  12   5  -1    9.62    1.90
 -12   5   1    7.98    1.69
  12  -5  -1    4.40    1.50
  12   5   0    6.67    1.69
 -12   5   0    8.59    1.67
  12  -5   0    4.08    1.51
 -12   5  -1   14.21    2.13
  12   5   1   10.42    2.09
  12  -5   1    8.00    2.05
  12   5   2    2.69    1.39
  12  -5   2    6.05    2.07
  12   5   3   -0.16    1.06
  12  -5   3    2.30    1.66
 -12   6   1   25.90    3.23
  12   6  -1   19.94    3.02
 -12   6   0   16.15    2.49
  12   6   0   17.15    2.84
  12  -6   0   15.57    3.11
 -12   6  -1   38.38    3.97
  12   6   1   40.37    4.61
  12  -6   1   39.18    5.10
 -13   0   4   37.18    4.00
  13   0  -4   36.41    3.95
  13   0  -3    0.07    0.65
 -13   0   3   -0.73    0.60
  13   0  -2   73.44    5.34
 -13   0   2   69.18    5.30
 -13   0   1   -0.51    0.55
  13   0  -1   -0.28    0.52
  13   0   0   46.49    3.82
 -13   0   0   47.53    3.90
  13   0   1    0.25    0.61
 -13   0  -1   -0.55    0.49
  13   0   2    6.63    1.58
 -13   0  -3    1.68    1.96
  13   0   3   -0.09    0.81
 -13   0  -4   31.94    4.42
 -13   1   4    6.18    1.65
  13   1  -4    7.68    1.74
  13  -1  -4   10.00    2.03
 -13  -1   4    9.37    1.87
  13   1  -3    3.39    1.20
 -13   1   3    2.99    1.12
 -13  -1   3    4.30    1.36
  13  -1  -3    5.66    1.40
  13   1  -2   10.87    1.95
 -13   1   2   10.03    1.96
  13  -1  -2    7.82    1.70
 -13  -1   2    7.93    1.73
  13   1  -1   10.83    1.87
 -13   1   1   10.21    1.92
  13  -1  -1    9.93    1.77
 -13  -1   1    9.02    1.78
  13   1   0    3.84    1.19
 -13   1   0    2.83    1.11
  13  -1   0    3.51    1.12
  13   1   1   14.66    2.21
 -13   1  -1   15.11    2.23
  13  -1   1   18.95    2.43
  13   1   2    7.78    1.60
 -13   1  -2    5.40    1.40
 -13  -1  -2    3.40    2.78
  13  -1   2    5.44    1.36
  13   1   3    9.84    1.99
 -13  -1  -3   13.56    3.20
 -13   1  -4   24.16    3.64
 -13  -1  -4   17.39    3.65
  13   2  -4   56.92    4.75
 -13   2   4   55.58    4.65
  13  -2  -4   56.84    4.67
 -13   2   3   14.08    2.31
  13   2  -3   14.37    2.30
  13  -2  -3   19.23    2.55
 -13   2   2   26.48    3.09
  13   2  -2   19.57    2.71
  13  -2  -2   23.37    2.89
  13   2  -1    7.39    1.62
 -13   2   1    9.09    1.74
  13  -2  -1    8.10    1.65
 -13   2   0   16.09    2.40
  13   2   0   18.51    2.45
  13  -2   0   14.50    2.24
 -13   2  -1    6.30    1.51
  13   2   1    3.85    1.33
  13  -2   1    8.78    2.11
  13  -2   1    8.28    1.66
 -13   2  -2   34.23    3.48
  13   2   2   33.66    3.67
  13  -2   2   29.90    3.34
  13   2   3   23.04    3.00
 -13  -2  -3   14.01    3.67
 -13  -2  -4    0.26    2.32
  13   3  -4    8.03    1.89
 -13   3   4    9.22    1.97
 -13   3   3   22.76    3.03
  13   3  -3   25.93    3.29
  13   3  -2    1.14    0.89
 -13   3   2   -0.49    0.56
 -13   3   1    7.60    1.63
  13   3  -1    4.84    1.59
  13  -3  -1    7.07    1.56
  13   3   0    2.74    1.10
 -13   3   0    3.00    0.99
  13  -3   0    3.39    1.04
 -13   3  -1   -0.26    0.70
  13   3   1    0.74    0.95
  13  -3   1   -0.27    1.07
  13  -3   1   -0.09    0.66
  13   3   2    7.20    1.76
 -13   3  -2    8.85    1.72
  13  -3   2    7.24    1.61
  13   3   3    6.71    1.78
  13   4  -3    1.63    1.12
 -13   4   3    2.45    1.18
  13   4  -2   22.75    3.02
 -13   4   2   20.06    2.77
  13   4  -1   37.25    4.08
 -13   4   1   40.65    4.11
  13   4   0   15.95    2.49
 -13   4   0   13.60    2.18
  13  -4   0   14.46    2.60
  13   4   1   33.19    3.92
 -13   4  -1   40.18    3.44
  13  -4   1   35.88    3.37
  13  -4   1   36.85    4.25
  13   4   2   10.68    2.07
  13  -4   2   10.85    2.56
 -13   5   1    6.30    1.61
  13   5   0    5.20    1.64
 -13   5   0    3.99    1.28
  13  -5   0    2.62    1.58
 -13   5  -1    6.14    1.56
  14   0  -3   -0.07    0.80
 -14   0   3   -0.60    0.73
  14   0  -2   70.40    5.11
 -14   0   2   58.44    4.96
 -14   0   1    0.74    0.86
  14   0  -1   -0.06    0.74
 -14   0   0   41.23    3.76
  14   0   0   41.31    3.67
  14   0   1   -0.81    0.64
 -14   0  -1    0.18    0.74
  14   0   2  151.51    9.67
  14   1  -3   26.06    3.39
 -14   1   3   24.62    3.22
  14  -1  -3   21.34    2.96
 -14  -1   3   24.43    3.26
  14   1  -2    5.27    1.54
 -14   1   2    8.47    1.80
  14  -1  -2    5.85    1.53
 -14  -1   2    7.99    1.80
 -14   1   1   20.24    2.76
  14   1  -1   21.78    2.93
 -14  -1   1   26.35    3.14
  14  -1  -1   16.49    2.53
 -14   1   0   11.85    1.99
  14   1   0   13.64    2.25
  14  -1   0    9.95    1.85
 -14   1  -1   18.08    2.50
  14   1   1   21.43    2.76
  14  -1   1   16.43    2.39
 -14   1  -2    4.73    1.41
  14   1   2    5.98    1.55
  14  -1   2    4.09    1.44
  14   1   3   26.57    3.37
 -14  -1  -3   28.76    4.73
 -14   2   2   37.91    4.18
  14   2  -2   47.76    4.05
  14  -2  -2   43.00    3.94
  14   2  -1    5.03    1.43
 -14   2   1    3.49    1.24
  14  -2  -1    5.33    1.46
  14   2   0   73.38    5.76
 -14   2   0   84.97    5.87
  14  -2   0   73.67    5.63
 -14   2  -1   -0.21    0.70
  14   2   1   -0.17    0.91
  14  -2   1    1.35    0.89
 -14   2  -2   27.64    3.17
  14   2   2   32.53    3.77
  14  -2   2   25.26    3.06
 -14   3   1   19.97    2.70
  14   3  -1   19.23    2.89
  14  -3  -1   14.72    2.40
  14   3   0    1.63    1.17
 -14   3   0    0.47    0.95
  14  -3   0    1.52    1.01
  14   3   1   22.90    3.16
 -14   3  -1   16.89    2.57
  14  -3   1   22.30    2.79
  14  -3   1   17.22    4.04
   0   0   0    0.00    0.00
;
_shelx_hkl_checksum              5319
loop_
_space_group_symop_operation_xyz
'x, y, z'
'x, -y, z+1/2'
loop_
_atom_site_label
_atom_site_type_symbol
_atom_site_fract_x
_atom_site_fract_y
_atom_site_fract_z
_atom_site_U_iso_or_equiv
_atom_site_adp_type
_atom_site_occupancy
_atom_site_site_symmetry_order
_atom_site_calc_flag
_atom_site_refinement_flags_posn
_atom_site_refinement_flags_adp
_atom_site_refinement_flags_occupancy
_atom_site_disorder_assembly
_atom_site_disorder_group
K1 K 0.3556(4) 0.0155(7) 0.2906(6) 0.0299(12) Uani 1 1 d . . . . .
K2 K 0.8586(4) 0.4948(6) 0.2656(6) 0.0252(12) Uani 1 1 d . . . . .
Na1 Na 0.8565(7) 1.0093(9) 0.2421(9) 0.0177(19) Uani 1 1 d . . . . .
I1 I 0.09537(11) -0.23176(14) 0.51392(14) 0.0133(2) Uani 1 1 d . . . . .
I2 I 0.10105(11) 0.26000(14) 0.49874(14) 0.0135(2) Uani 1 1 d . . . . .
I3 I 0.57800(10) 0.28813(14) 0.03282(13) 0.0132(3) Uani 1 1 d . . . . .
I4 I 0.35544(11) 0.55190(15) 0.18423(15) 0.0136(2) Uani 1 1 d . . . . .
I5 I 0.66959(10) 0.78657(14) 0.03599(13) 0.0143(3) Uani 1 1 d . . . . .
O1 O 0.0020(12) -0.2071(18) 0.6997(16) 0.021(3) Uani 1 1 d . . . . .
O2 O -0.0118(13) -0.1902(18) 0.3507(16) 0.023(3) Uani 1 1 d . U . . .
O3 O 0.1788(13) -0.0418(17) 0.5211(18) 0.025(3) Uani 1 1 d . . . . .
O4 O 0.2011(12) 0.2825(17) 0.6858(15) 0.017(3) Uani 1 1 d . . . . .
O5 O 0.2136(13) 0.3080(19) 0.3457(18) 0.025(3) Uani 1 1 d . . . . .
O6 O 0.0243(11) 0.4520(16) 0.5111(17) 0.021(3) Uani 1 1 d . . . . .
O7 O 0.4380(12) 0.7097(18) 0.0861(18) 0.024(3) Uani 1 1 d . . . . .
O8 O 0.4919(11) 0.3953(16) 0.2173(14) 0.016(3) Uani 1 1 d . U . . .
O9 O 0.5038(12) 0.0931(17) 0.0388(16) 0.022(3) Uani 1 1 d . U . . .
O10 O 0.3673(12) 0.6145(17) 0.4051(15) 0.021(3) Uani 1 1 d . . . . .
O11 O 0.7000(14) 0.2357(18) 0.1666(19) 0.027(3) Uani 1 1 d . . . . .
O12 O 0.6809(14) 0.815(2) 0.2654(16) 0.031(4) Uani 1 1 d . . . . .
O13 O 0.6985(12) 0.5701(17) 0.0232(16) 0.021(3) Uani 1 1 d . . . . .
O14 O 0.8157(12) 0.8645(19) -0.0061(14) 0.023(3) Uani 1 1 d . . . . .
loop_
_atom_site_aniso_label
_atom_site_aniso_U_11
_atom_site_aniso_U_22
_atom_site_aniso_U_33
_atom_site_aniso_U_23
_atom_site_aniso_U_13
_atom_site_aniso_U_12
K1 0.022(3) 0.040(3) 0.027(2) 0.007(2) 0.005(2) 0.002(2)
K2 0.016(3) 0.039(3) 0.0210(19) 0.003(2) -0.0024(18) -0.0002(19)
Na1 0.020(5) 0.018(4) 0.015(4) -0.009(3) 0.005(4) -0.002(3)
I1 0.0105(6) 0.0140(6) 0.0154(5) -0.0011(5) 0.0001(4) 0.0001(5)
I2 0.0100(5) 0.0137(5) 0.0167(5) 0.0004(5) -0.0011(4) -0.0013(5)
I3 0.0108(6) 0.0126(6) 0.0163(5) 0.0006(4) -0.0014(4) 0.0000(5)
I4 0.0120(5) 0.0184(6) 0.0105(5) -0.0015(5) -0.0009(4) -0.0017(5)
I5 0.0124(6) 0.0156(6) 0.0149(5) 0.0020(4) -0.0009(4) -0.0004(5)
O1 0.014(7) 0.032(9) 0.017(6) -0.005(6) 0.000(5) 0.003(6)
O2 0.023(3) 0.023(3) 0.022(3) 0.0003(14) -0.0012(14) 0.0005(14)
O3 0.021(7) 0.015(7) 0.038(8) 0.000(6) 0.004(6) -0.005(6)
O4 0.013(7) 0.023(7) 0.014(6) 0.002(5) -0.001(5) -0.012(5)
O5 0.017(7) 0.032(9) 0.025(7) 0.005(6) -0.002(6) 0.000(7)
O6 0.013(7) 0.011(7) 0.039(8) -0.002(6) -0.008(6) 0.003(6)
O7 0.013(7) 0.029(8) 0.029(7) 0.001(6) 0.008(6) -0.006(6)
O8 0.015(3) 0.016(3) 0.015(3) -0.0005(14) -0.0004(14) 0.0007(14)
O9 0.022(3) 0.022(3) 0.022(3) 0.0009(14) 0.0002(14) -0.0007(14)
O10 0.023(7) 0.023(8) 0.017(6) -0.004(6) -0.003(5) -0.004(6)
O11 0.019(8) 0.026(8) 0.037(8) -0.007(6) -0.014(7) 0.005(6)
O12 0.034(9) 0.048(10) 0.010(6) -0.003(6) -0.002(6) -0.016(8)
O13 0.023(8) 0.017(7) 0.023(6) 0.004(6) -0.004(6) 0.001(6)
O14 0.017(7) 0.036(9) 0.015(6) 0.003(6) -0.003(5) -0.005(6)
loop_
_atom_type_symbol
_atom_type_description
_atom_type_scat_dispersion_real
_atom_type_scat_dispersion_imag
_atom_type_scat_source
O O 0.0106 0.0060 'International Tables Vol C Tables 4.2.6.8 and 6.1.1.4'
Na Na 0.0362 0.0249 'International Tables Vol C Tables 4.2.6.8 and 6.1.1.4'
K K 0.2009 0.2494 'International Tables Vol C Tables 4.2.6.8 and 6.1.1.4'
I I -0.4742 1.8119 'International Tables Vol C Tables 4.2.6.8 and 6.1.1.4'
loop_
_geom_angle_atom_site_label_1
_geom_angle_atom_site_label_2
_geom_angle_atom_site_label_3
_geom_angle
_geom_angle_site_symmetry_1
_geom_angle_site_symmetry_3
_geom_angle_publ_flag
O9 K1 O9 101.8(5) . 2 ?
O9 K1 O3 171.7(5) . . ?
O9 K1 O3 86.4(4) 2 . ?
O9 K1 O5 105.7(4) . . ?
O9 K1 O5 120.5(4) 2 . ?
O3 K1 O5 68.3(4) . . ?
O9 K1 O3 83.9(4) . 2_554 ?
O9 K1 O3 165.0(5) 2 2_554 ?
O3 K1 O3 88.5(4) . 2_554 ?
O5 K1 O3 70.2(4) . 2_554 ?
O9 K1 O7 67.4(4) . 1_545 ?
O9 K1 O7 85.2(4) 2 1_545 ?
O3 K1 O7 115.2(4) . 1_545 ?
O5 K1 O7 154.3(4) . 1_545 ?
O3 K1 O7 84.2(4) 2_554 1_545 ?
O9 K1 O4 110.6(4) . 2_554 ?
O9 K1 O4 106.7(4) 2 2_554 ?
O3 K1 O4 67.7(4) . 2_554 ?
O5 K1 O4 111.0(4) . 2_554 ?
O3 K1 O4 58.4(4) 2_554 2_554 ?
O7 K1 O4 54.1(4) 1_545 2_554 ?
O9 K1 O7 99.8(4) . 2_565 ?
O9 K1 O7 63.4(4) 2 2_565 ?
O3 K1 O7 82.4(4) . 2_565 ?
O5 K1 O7 60.6(4) . 2_565 ?
O3 K1 O7 129.8(4) 2_554 2_565 ?
O7 K1 O7 143.6(5) 1_545 2_565 ?
O4 K1 O7 149.4(4) 2_554 2_565 ?
O9 K1 O10 113.4(4) . 1_545 ?
O9 K1 O10 58.3(4) 2 1_545 ?
O3 K1 O10 72.1(4) . 1_545 ?
O5 K1 O10 140.3(4) . 1_545 ?
O3 K1 O10 106.7(4) 2_554 1_545 ?
O7 K1 O10 49.6(3) 1_545 1_545 ?
O4 K1 O10 48.7(3) 2_554 1_545 ?
O7 K1 O10 116.8(3) 2_565 1_545 ?
O9 K1 I4 94.1(3) . 1_545 ?
O9 K1 I4 80.5(3) 2 1_545 ?
O3 K1 I4 88.6(3) . 1_545 ?
O5 K1 I4 146.0(3) . 1_545 ?
O3 K1 I4 85.2(3) 2_554 1_545 ?
O7 K1 I4 26.7(3) 1_545 1_545 ?
O4 K1 I4 35.1(2) 2_554 1_545 ?
O7 K1 I4 143.2(3) 2_565 1_545 ?
O10 K1 I4 27.8(2) 1_545 1_545 ?
O9 K1 I2 131.6(3) . . ?
O9 K1 I2 109.6(3) 2 . ?
O3 K1 I2 42.2(3) . . ?
O5 K1 I2 26.1(3) . . ?
O3 K1 I2 75.3(3) 2_554 . ?
O7 K1 I2 148.7(3) 1_545 . ?
O4 K1 I2 94.7(3) 2_554 . ?
O7 K1 I2 65.2(3) 2_565 . ?
O10 K1 I2 114.3(3) 1_545 . ?
I4 K1 I2 126.14(13) 1_545 . ?
O9 K1 K1 138.6(3) . 2 ?
O9 K1 K1 43.1(3) 2 2 ?
O3 K1 K1 48.2(3) . 2 ?
O5 K1 K1 84.4(3) . 2 ?
O3 K1 K1 136.1(3) 2_554 2 ?
O7 K1 K1 117.6(3) 1_545 2 ?
O4 K1 K1 102.1(3) 2_554 2 ?
O7 K1 K1 49.9(3) 2_565 2 ?
O10 K1 K1 71.0(2) 1_545 2 ?
I4 K1 K1 98.74(18) 1_545 2 ?
I2 K1 K1 67.22(11) . 2 ?
O13 K2 O6 174.2(5) . 1_655 ?
O13 K2 O13 95.9(5) . 2_565 ?
O6 K2 O13 85.7(4) 1_655 2_565 ?
O13 K2 O6 85.8(4) . 2_664 ?
O6 K2 O6 92.7(4) 1_655 2_664 ?
O13 K2 O6 177.6(4) 2_565 2_664 ?
O13 K2 O11 63.5(4) . . ?
O6 K2 O11 122.2(4) 1_655 . ?
O13 K2 O11 68.8(4) 2_565 . ?
O6 K2 O11 110.6(4) 2_664 . ?
O13 K2 O1 116.2(4) . 2_654 ?
O6 K2 O1 68.2(4) 1_655 2_654 ?
O13 K2 O1 110.5(4) 2_565 2_654 ?
O6 K2 O1 67.2(4) 2_664 2_654 ?
O11 K2 O1 73.7(4) . 2_654 ?
O13 K2 O2 107.0(4) . 1_665 ?
O6 K2 O2 67.3(4) 1_655 1_665 ?
O13 K2 O2 109.0(4) 2_565 1_665 ?
O6 K2 O2 72.0(4) 2_664 1_665 ?
O11 K2 O2 169.3(4) . 1_665 ?
O1 K2 O2 116.3(4) 2_654 1_665 ?
O13 K2 O12 53.5(4) . . ?
O6 K2 O12 122.0(4) 1_655 . ?
O13 K2 O12 75.1(4) 2_565 . ?
O6 K2 O12 107.3(4) 2_664 . ?
O11 K2 O12 100.9(4) . . ?
O1 K2 O12 169.4(4) 2_654 . ?
O2 K2 O12 68.6(4) 1_665 . ?
O13 K2 I5 27.7(3) . . ?
O6 K2 I5 146.7(3) 1_655 . ?
O13 K2 I5 95.0(3) 2_565 . ?
O6 K2 I5 87.3(3) 2_664 . ?
O11 K2 I5 88.4(3) . . ?
O1 K2 I5 140.0(3) 2_654 . ?
O2 K2 I5 81.3(3) 1_665 . ?
O12 K2 I5 29.5(2) . . ?
O13 K2 I5 98.0(3) . 2_565 ?
O6 K2 I5 85.9(3) 1_655 2_565 ?
O13 K2 I5 26.3(3) 2_565 2_565 ?
O6 K2 I5 151.8(3) 2_664 2_565 ?
O11 K2 I5 49.4(3) . 2_565 ?
O1 K2 I5 86.4(3) 2_654 2_565 ?
O2 K2 I5 131.8(3) 1_665 2_565 ?
O12 K2 I5 97.1(3) . 2_565 ?
I5 K2 I5 108.96(11) . 2_565 ?
O13 K2 I2 159.5(3) . 1_655 ?
O6 K2 I2 25.3(3) 1_655 1_655 ?
O13 K2 I2 92.3(3) 2_565 1_655 ?
O6 K2 I2 85.5(3) 2_664 1_655 ?
O11 K2 I2 102.6(3) . 1_655 ?
O1 K2 I2 43.3(3) 2_654 1_655 ?
O2 K2 I2 87.9(3) 1_665 1_655 ?
O12 K2 I2 147.1(3) . 1_655 ?
I5 K2 I2 168.47(14) . 1_655 ?
I5 K2 I2 81.29(9) 2_565 1_655 ?
O13 K2 K2 133.9(3) . 2_565 ?
O6 K2 K2 45.5(3) 1_655 2_565 ?
O13 K2 K2 43.7(3) 2_565 2_565 ?
O6 K2 K2 135.4(3) 2_664 2_565 ?
O11 K2 K2 106.3(3) . 2_565 ?
O1 K2 K2 101.4(3) 2_654 2_565 ?
O2 K2 K2 76.4(3) 1_665 2_565 ?
O12 K2 K2 88.9(3) . 2_565 ?
I5 K2 K2 118.13(15) . 2_565 ?
I5 K2 K2 56.96(10) 2_565 2_565 ?
I2 K2 K2 62.48(9) 1_655 2_565 ?
O14 Na1 O14 156.2(8) 2_575 . ?
O14 Na1 O1 87.7(6) 2_575 2_664 ?
O14 Na1 O1 111.9(5) . 2_664 ?
O14 Na1 O2 97.6(6) 2_575 1_665 ?
O14 Na1 O2 94.4(6) . 1_665 ?
O1 Na1 O2 93.9(6) 2_664 1_665 ?
O14 Na1 O12 93.0(5) 2_575 . ?
O14 Na1 O12 65.8(5) . . ?
O1 Na1 O12 172.9(6) 2_664 . ?
O2 Na1 O12 93.0(6) 1_665 . ?
O14 Na1 O11 74.7(5) 2_575 1_565 ?
O14 Na1 O11 91.9(5) . 1_565 ?
O1 Na1 O11 88.4(5) 2_664 1_565 ?
O2 Na1 O11 171.8(6) 1_665 1_565 ?
O12 Na1 O11 85.0(6) . 1_565 ?
O14 Na1 I5 123.2(4) 2_575 . ?
O14 Na1 I5 33.5(3) . . ?
O1 Na1 I5 141.8(4) 2_664 . ?
O2 Na1 I5 102.4(4) 1_665 . ?
O12 Na1 I5 34.0(3) . . ?
O11 Na1 I5 80.3(4) 1_565 . ?
O14 Na1 I5 26.2(3) 2_575 2_575 ?
O14 Na1 I5 131.2(4) . 2_575 ?
O1 Na1 I5 101.6(4) 2_664 2_575 ?
O2 Na1 I5 118.2(4) 1_665 2_575 ?
O12 Na1 I5 76.5(4) . 2_575 ?
O11 Na1 I5 53.7(4) 1_565 2_575 ?
I5 Na1 I5 100.6(2) . 2_575 ?
O14 Na1 Na1 152.2(5) 2_575 2_574 ?
O14 Na1 Na1 31.2(4) . 2_574 ?
O1 Na1 Na1 83.2(4) 2_664 2_574 ?
O2 Na1 Na1 109.2(4) 1_665 2_574 ?
O12 Na1 Na1 92.9(3) . 2_574 ?
O11 Na1 Na1 78.8(4) 1_565 2_574 ?
I5 Na1 Na1 58.87(15) . 2_574 ?
I5 Na1 Na1 131.7(2) 2_575 2_574 ?
O14 Na1 Na1 31.8(4) 2_575 2_575 ?
O14 Na1 Na1 144.7(5) . 2_575 ?
O1 Na1 Na1 99.8(4) 2_664 2_575 ?
O2 Na1 Na1 67.6(4) 1_665 2_575 ?
O12 Na1 Na1 84.4(4) . 2_575 ?
O11 Na1 Na1 104.3(4) 1_565 2_575 ?
I5 Na1 Na1 118.3(2) . 2_575 ?
I5 Na1 Na1 50.99(13) 2_575 2_575 ?
Na1 Na1 Na1 175.6(4) 2_574 2_575 ?
O14 Na1 K2 60.6(4) 2_575 1_565 ?
O14 Na1 K2 123.3(4) . 1_565 ?
O1 Na1 K2 46.8(4) 2_664 1_565 ?
O2 Na1 K2 131.6(4) 1_665 1_565 ?
O12 Na1 K2 128.0(5) . 1_565 ?
O11 Na1 K2 46.9(4) 1_565 1_565 ?
I5 Na1 K2 126.0(2) . 1_565 ?
I5 Na1 K2 60.47(13) 2_575 1_565 ?
Na1 Na1 K2 94.9(3) 2_574 1_565 ?
Na1 Na1 K2 89.5(2) 2_575 1_565 ?
O14 Na1 K2 114.5(4) 2_575 . ?
O14 Na1 K2 61.9(4) . . ?
O1 Na1 K2 133.5(5) 2_664 . ?
O2 Na1 K2 45.3(4) 1_665 . ?
O12 Na1 K2 52.2(4) . . ?
O11 Na1 K2 135.4(4) 1_565 . ?
I5 Na1 K2 57.66(13) . . ?
I5 Na1 K2 116.21(18) 2_575 . ?
Na1 Na1 K2 90.3(2) 2_574 . ?
Na1 Na1 K2 85.3(2) 2_575 . ?
K2 Na1 K2 174.8(2) 1_565 . ?
O2 I1 O1 98.2(6) . . ?
O2 I1 O3 102.7(7) . . ?
O1 I1 O3 101.1(6) . . ?
O2 I1 K2 89.2(5) . 2_455 ?
O1 I1 K2 42.3(5) . 2_455 ?
O3 I1 K2 143.2(5) . 2_455 ?
O2 I1 K1 96.0(5) . . ?
O1 I1 K1 137.2(5) . . ?
O3 I1 K1 36.3(5) . . ?
K2 I1 K1 174.69(10) 2_455 . ?
O2 I1 K2 45.7(5) . 1_445 ?
O1 I1 K2 92.8(5) . 1_445 ?
O3 I1 K2 147.4(5) . 1_445 ?
K2 I1 K2 58.59(5) 2_455 1_445 ?
K1 I1 K2 124.92(11) . 1_445 ?
O2 I1 K1 142.2(5) . 2 ?
O1 I1 K1 87.7(4) . 2 ?
O3 I1 K1 39.9(5) . 2 ?
K2 I1 K1 117.94(11) 2_455 2 ?
K1 I1 K1 57.97(6) . 2 ?
K2 I1 K1 171.82(10) 1_445 2 ?
O6 I2 O5 101.4(7) . . ?
O6 I2 O4 99.9(6) . . ?
O5 I2 O4 93.4(6) . . ?
O6 I2 K2 40.2(4) . 1_455 ?
O5 I2 K2 95.5(5) . 1_455 ?
O4 I2 K2 140.1(4) . 1_455 ?
O6 I2 K1 146.6(5) . . ?
O5 I2 K1 45.2(5) . . ?
O4 I2 K1 85.3(4) . . ?
K2 I2 K1 126.88(12) 1_455 . ?
O6 I2 K2 36.8(5) . 2_465 ?
O5 I2 K2 137.3(5) . 2_465 ?
O4 I2 K2 88.2(4) . 2_465 ?
K2 I2 K2 59.75(5) 1_455 2_465 ?
K1 I2 K2 173.27(11) . 2_465 ?
O11 I3 O9 98.1(6) . . ?
O11 I3 O8 94.1(6) . . ?
O9 I3 O8 97.7(6) . . ?
O11 I3 K1 94.1(5) . . ?
O9 I3 K1 35.3(4) . . ?
O8 I3 K1 62.9(4) . . ?
O11 I3 K1 128.3(5) . 2_554 ?
O9 I3 K1 34.1(4) . 2_554 ?
O8 I3 K1 107.5(4) . 2_554 ?
K1 I3 K1 58.93(5) . 2_554 ?
O11 I3 K2 39.0(5) . . ?
O9 I3 K2 136.7(4) . . ?
O8 I3 K2 83.4(4) . . ?
K1 I3 K2 121.19(11) . . ?
K1 I3 K2 165.27(11) 2_554 . ?
O7 I4 O10 99.8(6) . . ?
O7 I4 O8 95.6(6) . . ?
O10 I4 O8 90.0(6) . . ?
O7 I4 O4 89.4(6) . 2_564 ?
O10 I4 O4 83.1(6) . 2_564 ?
O8 I4 O4 172.1(5) . 2_564 ?
O7 I4 K1 52.1(5) . 1_565 ?
O10 I4 K1 61.2(5) . 1_565 ?
O8 I4 K1 125.8(4) . 1_565 ?
O4 I4 K1 53.6(4) 2_564 1_565 ?
O13 I5 O12 99.8(7) . . ?
O13 I5 O14 99.3(7) . . ?
O12 I5 O14 94.1(6) . . ?
O13 I5 Na1 117.2(5) . . ?
O12 I5 Na1 52.4(5) . . ?
O14 I5 Na1 44.5(4) . . ?
O13 I5 Na1 108.1(5) . 2_574 ?
O12 I5 Na1 122.5(5) . 2_574 ?
O14 I5 Na1 33.4(4) . 2_574 ?
Na1 I5 Na1 70.14(12) . 2_574 ?
O13 I5 K2 44.4(4) . . ?
O12 I5 K2 64.0(6) . . ?
O14 I5 K2 76.9(4) . . ?
Na1 I5 K2 74.42(16) . . ?
Na1 I5 K2 105.18(15) 2_574 . ?
O13 I5 K2 43.3(4) . 2_564 ?
O12 I5 K2 126.1(6) . 2_564 ?
O14 I5 K2 65.4(5) . 2_564 ?
Na1 I5 K2 103.73(15) . 2_564 ?
Na1 I5 K2 64.96(15) 2_574 2_564 ?
K2 I5 K2 63.00(5) . 2_564 ?
I1 O1 Na1 127.6(7) . 2_465 ?
I1 O1 K2 112.8(6) . 2_455 ?
Na1 O1 K2 97.2(5) 2_465 2_455 ?
I1 O2 Na1 144.5(8) . 1_445 ?
I1 O2 K2 109.2(6) . 1_445 ?
Na1 O2 K2 100.9(5) 1_445 1_445 ?
I1 O3 K1 120.8(7) . . ?
I1 O3 K1 116.6(7) . 2 ?
K1 O3 K1 87.1(4) . 2 ?
I2 O4 I4 122.8(6) . 2_565 ?
I2 O4 K1 118.5(6) . 2 ?
I4 O4 K1 91.3(5) 2_565 2 ?
I2 O5 K1 108.7(7) . . ?
I2 O6 K2 114.5(6) . 1_455 ?
I2 O6 K2 120.5(7) . 2_465 ?
K2 O6 K2 90.4(4) 1_455 2_465 ?
I4 O7 K1 101.2(6) . 1_565 ?
I4 O7 K1 129.3(7) . 2_564 ?
K1 O7 K1 74.6(3) 1_565 2_564 ?
I3 O8 I4 125.2(6) . . ?
I3 O9 K1 121.8(6) . . ?
I3 O9 K1 124.1(6) . 2_554 ?
K1 O9 K1 92.9(5) . 2_554 ?
I4 O10 K1 91.0(5) . 1_565 ?
I3 O11 Na1 145.5(8) . 1_545 ?
I3 O11 K2 118.1(7) . . ?
Na1 O11 K2 91.4(5) 1_545 . ?
I5 O12 Na1 93.6(6) . . ?
I5 O12 K2 86.5(6) . . ?
Na1 O12 K2 90.1(5) . . ?
I5 O13 K2 108.0(6) . . ?
I5 O13 K2 110.5(6) . 2_564 ?
K2 O13 K2 90.9(4) . 2_564 ?
I5 O14 Na1 120.5(6) . 2_574 ?
I5 O14 Na1 102.0(6) . . ?
Na1 O14 Na1 117.0(6) 2_574 . ?
loop_
_geom_bond_atom_site_label_1
_geom_bond_atom_site_label_2
_geom_bond_distance
_geom_bond_site_symmetry_2
_geom_bond_publ_flag
K1 O9 2.678(14) . ?
K1 O9 2.718(14) 2 ?
K1 O3 2.754(15) . ?
K1 O5 2.914(16) . ?
K1 O3 2.922(15) 2_554 ?
K1 O7 3.104(15) 1_545 ?
K1 O4 3.108(15) 2_554 ?
K1 O7 3.345(15) 2_565 ?
K1 O10 3.384(15) 1_545 ?
K1 I4 3.861(5) 1_545 ?
K1 I2 3.889(5) . ?
K1 K1 3.9119(7) 2 ?
K2 O13 2.700(14) . ?
K2 O6 2.714(13) 1_655 ?
K2 O13 2.777(15) 2_565 ?
K2 O6 2.787(15) 2_664 ?
K2 O11 2.886(16) . ?
K2 O1 2.906(16) 2_654 ?
K2 O2 3.033(15) 1_665 ?
K2 O12 3.307(18) . ?
K2 I5 3.674(5) . ?
K2 I5 3.796(5) 2_565 ?
K2 I2 3.824(4) 1_655 ?
K2 K2 3.9047(3) 2_565 ?
Na1 O14 2.268(14) 2_575 ?
Na1 O14 2.313(15) . ?
Na1 O1 2.341(16) 2_664 ?
Na1 O2 2.370(16) 1_665 ?
Na1 O12 2.562(17) . ?
Na1 O11 2.634(16) 1_565 ?
Na1 I5 3.228(7) . ?
Na1 I5 3.556(7) 2_575 ?
Na1 Na1 3.9067(6) 2_574 ?
Na1 Na1 3.9068(6) 2_575 ?
I1 O2 1.797(14) . ?
I1 O1 1.816(14) . ?
I1 O3 1.817(14) . ?
I2 O6 1.795(13) . ?
I2 O5 1.804(15) . ?
I2 O4 1.861(12) . ?
I3 O11 1.792(14) . ?
I3 O9 1.800(14) . ?
I3 O8 1.954(12) . ?
I4 O7 1.770(14) . ?
I4 O10 1.803(12) . ?
I4 O8 2.031(13) . ?
I4 O4 2.222(13) 2_564 ?
I5 O13 1.794(14) . ?
I5 O12 1.810(13) . ?
I5 O14 1.820(13) . ?
