#------------------------------------------------------------------------------
#$Date: 2020-11-27 01:23:21 +0200 (Fri, 27 Nov 2020) $
#$Revision: 259262 $
#$URL: file:///home/coder/svn-repositories/cod/cif/4/00/38/4003829.cif $
#------------------------------------------------------------------------------
#
# This file is available in the Crystallography Open Database (COD),
# http://www.crystallography.net/
#
# All data on this site have been placed in the public domain by the
# contributors.
#
data_4003829
loop_
_publ_author_name
'Zhang, Jian-Han'
'Stoyko, Stanislav S.'
'Craig, Andrew J.'
'Grima, Pedro'
'Kotchey, Joshua W.'
'Jang, Joon I.'
'Aitken, Jennifer A.'
_publ_section_title
;
 Phase Matching, Strong Frequency Doubling, and Outstanding Laser-Induced
 Damage Threshold in the Biaxial, Quaternary Diamond-like Semiconductor
 Li4CdSn2S7
;
_journal_name_full               'Chemistry of Materials'
_journal_paper_doi               10.1021/acs.chemmater.0c03268
_journal_year                    2020
_chemical_formula_moiety         'Li4 Cd Sn2 S7'
_chemical_formula_sum            'Cd Li4 S7 Sn2'
_chemical_formula_weight         601.96
_chemical_name_systematic
;
Tetralithium cadmium ditin heptasulfide
;
_space_group_crystal_system      monoclinic
_space_group_IT_number           9
_space_group_name_Hall           'C -2yc'
_space_group_name_H-M_alt        'C 1 c 1'
_atom_sites_solution_primary     direct
_atom_sites_solution_secondary   difmap
_audit_creation_method           SHELXL-2016/6
_audit_update_record
;
2020-07-07 # Formatted by publCIF

;
_cell_angle_alpha                90
_cell_angle_beta                 93.9042(5)
_cell_angle_gamma                90
_cell_formula_units_Z            4
_cell_length_a                   17.44296(16)
_cell_length_b                   6.93532(7)
_cell_length_c                   10.32709(10)
_cell_measurement_reflns_used    6754
_cell_measurement_temperature    296(2)
_cell_measurement_theta_max      32.7275
_cell_measurement_theta_min      2.3405
_cell_volume                     1246.39(2)
_computing_cell_refinement
;
SAINT (Bruker, 2012)
;
_computing_data_collection
;
SMART (Bruker, 2012)
;
_computing_data_reduction
;
SAINT (Bruker, 2012)
;
_computing_molecular_graphics
;
CrystalMaker (Palmer, 2014)
;
_computing_publication_material  'SHELXL2016/6 (Sheldrick, 2015)'
_computing_structure_refinement
;
SHELXL-2016/6 (Sheldrick, 2016)
;
_computing_structure_solution
;
SHELXS97 (Sheldrick, 2008)
;
_diffrn_ambient_temperature      296(2)
_diffrn_measured_fraction_theta_full 1.000
_diffrn_measured_fraction_theta_max 1.000
_diffrn_measurement_device_type  'Bruker SMART APEXII'
_diffrn_measurement_method       '\f and \w Scans'
_diffrn_radiation_type           MoK\a
_diffrn_radiation_wavelength     0.71073
_diffrn_reflns_av_R_equivalents  0.0105
_diffrn_reflns_av_unetI/netI     0.0188
_diffrn_reflns_Laue_measured_fraction_full 1.000
_diffrn_reflns_Laue_measured_fraction_max 1.000
_diffrn_reflns_limit_h_max       22
_diffrn_reflns_limit_h_min       -22
_diffrn_reflns_limit_k_max       8
_diffrn_reflns_limit_k_min       -8
_diffrn_reflns_limit_l_max       13
_diffrn_reflns_limit_l_min       -13
_diffrn_reflns_number            5186
_diffrn_reflns_point_group_measured_fraction_full 1.000
_diffrn_reflns_point_group_measured_fraction_max 1.000
_diffrn_reflns_theta_full        25.242
_diffrn_reflns_theta_max         27.476
_diffrn_reflns_theta_min         2.341
_exptl_absorpt_coefficient_mu    6.782
_exptl_absorpt_correction_T_max  0.4352
_exptl_absorpt_correction_T_min  0.3656
_exptl_absorpt_correction_type   multi-scan
_exptl_absorpt_process_details
'Sheldrick, G. M. (1996). SADABS. University of G\"ottingen, Germany.'
_exptl_crystal_colour            'pale yellow'
_exptl_crystal_density_diffrn    3.208
_exptl_crystal_description       'irregular polyhedron'
_exptl_crystal_F_000             1088
_exptl_crystal_size_max          0.153
_exptl_crystal_size_mid          0.100
_exptl_crystal_size_min          0.086
_refine_diff_density_max         0.481
_refine_diff_density_min         -0.931
_refine_diff_density_rms         0.090
_refine_ls_abs_structure_details
;
 Refined as an inversion twin.
;
_refine_ls_abs_structure_Flack   0.06(3)
_refine_ls_extinction_coef       0.00182(7)
_refine_ls_extinction_expression Fc^*^=kFc[1+0.001xFc^2^\l^3^/sin(2\q)]^-1/4^
_refine_ls_extinction_method     'SHELXL-2016/6 (Sheldrick 2016)'
_refine_ls_goodness_of_fit_ref   1.126
_refine_ls_hydrogen_treatment    undef
_refine_ls_matrix_type           full
_refine_ls_number_parameters     129
_refine_ls_number_reflns         2839
_refine_ls_number_restraints     2
_refine_ls_restrained_S_all      1.125
_refine_ls_R_factor_all          0.0145
_refine_ls_R_factor_gt           0.0142
_refine_ls_shift/su_max          0.001
_refine_ls_shift/su_mean         0.000
_refine_ls_structure_factor_coef Fsqd
_refine_ls_weighting_details
'w=1/[\s^2^(Fo^2^)+(0.0158P)^2^+1.2710P] where P=(Fo^2^+2Fc^2^)/3'
_refine_ls_weighting_scheme      calc
_refine_ls_wR_factor_gt          0.0385
_refine_ls_wR_factor_ref         0.0386
_reflns_Friedel_coverage         0.997
_reflns_Friedel_fraction_full    1.000
_reflns_Friedel_fraction_max     1.000
_reflns_number_gt                2801
_reflns_number_total             2839
_reflns_threshold_expression     'I > 2\s(I)'
_cod_data_source_file            cm0c03268_si_002.cif
_cod_data_source_block           Li4CdSn2S7
_cod_original_sg_symbol_H-M      'C c'
_cod_original_formula_sum        'Li4 Cd Sn2 S7'
_cod_database_code               4003829
_publcif_datablock.id            {0bc4741f-97a0-46fa-93c2-365fea8f7252}
_shelx_shelxl_version_number     2016/6
_shelx_space_group_comment
;
The symmetry employed for this shelxl refinement is uniquely defined
by the following loop, which should always be used as a source of
symmetry information in preference to the above space-group names.
They are only intended as comments.
;
_shelx_estimated_absorpt_t_min   0.423
_shelx_estimated_absorpt_t_max   0.593
_shelx_res_file
;
TITL Li4CdSn2S7 in Cc
    Li4CdSn2S7.res
    created by SHELXL-2016/6 at 17:52:32 on 04-Jul-2020
CELL 0.71073  17.44296   6.93532  10.32709  90.0000  93.9042  90.0000
ZERR    4.00   0.00016   0.00007   0.00010   0.0000   0.0005   0.0000
LATT -7
SYMM X, -Y, 0.5+Z
SFAC LI S CD SN
UNIT 16 28 4 8
TEMP 0.000
SIZE 0.086 0.10 0.153

L.S. 4
SHEL 999 0.77
ACTA
BOND
FMAP 2
PLAN 20
TWIN
WGHT    0.015800    1.271000
EXTI    0.001825
BASF   0.05924
FVAR       0.05312
LI1   1    0.834666    0.679393    0.497630    11.00000    0.02817    0.04221 =
         0.01039    0.00692    0.00358   -0.00784
LI2   1    0.624888    0.828428    0.404862    11.00000    0.04519    0.03212 =
         0.03893   -0.00479    0.00261    0.00335
LI3   1    0.478750    0.826793    0.698811    11.00000    0.01113    0.01300 =
         0.01829    0.00355   -0.00017   -0.00537
LI4   1    0.267898    0.661715    0.638794    11.00000    0.00570    0.01933 =
         0.02201   -0.00450    0.00706   -0.00548
CD    3    0.548736    0.347364    0.563760    11.00000    0.02083    0.02254 =
         0.02000   -0.00017    0.00275    0.00031
SN1   4    0.907719    0.839594    0.843663    11.00000    0.01208    0.01307 =
         0.01363    0.00030    0.00074   -0.00065
SN2   4    0.692877    0.673199    0.774122    11.00000    0.01139    0.01381 =
         0.01257   -0.00003    0.00068   -0.00088
S1    2    1.009587    0.808854    1.008895    11.00000    0.01462    0.01773 =
         0.01520    0.00027   -0.00194    0.00027
S2    2    0.941027    0.660130    0.658847    11.00000    0.01895    0.01517 =
         0.01407   -0.00147    0.00331   -0.00047
S3    2    0.872275    0.838347    0.304151    11.00000    0.01984    0.01506 =
         0.01836   -0.00067    0.00068   -0.00145
S4    2    0.801923    0.665685    0.938122    11.00000    0.01197    0.01695 =
         0.01332    0.00067   -0.00011   -0.00167
S5    2    0.726811    0.836980    0.588091    11.00000    0.01814    0.01945 =
         0.01456    0.00336    0.00244   -0.00243
S6    2    0.662298    0.344282    0.730866    11.00000    0.01581    0.01378 =
         0.01717   -0.00105   -0.00002   -0.00099
S7    2    0.589564    0.835669    0.866678    11.00000    0.01470    0.01615 =
         0.01675    0.00009    0.00314    0.00186
HKLF 4




REM  Li4CdSn2S7 in Cc
REM R1 =  0.0142 for    2801 Fo > 4sig(Fo)  and  0.0145 for all    2839 data
REM    129 parameters refined using      2 restraints

END

WGHT      0.0158      1.2710

REM Highest difference peak  0.481,  deepest hole -0.931,  1-sigma level  0.090
Q1    1   0.6855  0.6740  0.7019  11.00000  0.05    0.48
Q2    1   0.9364  0.8037  0.8955  11.00000  0.05    0.41
Q3    1   0.9202  0.7484  0.8436  11.00000  0.05    0.38
Q4    1   0.6940  0.7248  0.7707  11.00000  0.05    0.38
Q5    1   0.9033  0.8466  0.7809  11.00000  0.05    0.37
Q6    1   0.7072  0.6982  0.7957  11.00000  0.05    0.37
Q7    1   0.7077  0.6658  0.8305  11.00000  0.05    0.35
Q8    1   0.6607  0.6658  0.7629  11.00000  0.05    0.34
Q9    1   0.8939  0.7805  0.8206  11.00000  0.05    0.33
Q10   1   0.5672  0.3458  0.6635  11.00000  0.05    0.32
Q11   1   0.6025  0.3191  0.6257  11.00000  0.05    0.31
Q12   1   0.7208  0.6377  0.7798  11.00000  0.05    0.31
Q13   1   0.5366  0.3352  0.4545  11.00000  0.05    0.30
Q14   1   0.5008  0.3324  0.5046  11.00000  0.05    0.30
Q15   1   0.5149  0.3089  0.4866  11.00000  0.05    0.29
Q16   1   0.7631  0.6727  0.8674  11.00000  0.05    0.29
Q17   1   0.9634  0.8688  0.9404  11.00000  0.05    0.27
Q18   1   0.6145  0.8339  0.9519  11.00000  0.05    0.25
Q19   1   0.2989  0.6706  0.6790  11.00000  0.05    0.25
Q20   1   0.5788  0.2275  0.6211  11.00000  0.05    0.25
;
_shelx_res_checksum              68076
_shelx_hkl_file
;
   5  -3 -15    0.17    0.18
   0  -2 -15    0.85    0.25
   2  -2 -15   10.09    0.64
   4  -2 -15   14.72    0.79
   6  -2 -15   13.13    0.77
  -5  -1 -15    9.10    0.63
  -3  -1 -15   12.43    0.73
  -1  -1 -15   16.14    0.85
   1  -1 -15    5.41    0.56
   3  -1 -15    0.02    0.14
   5  -1 -15   76.08    2.28
   7  -1 -15    0.51    0.33
  -6   0 -15    0.05    0.25
  -4   0 -15    0.13    0.17
  -2   0 -15    0.07    0.15
   0   0 -15   -0.16    0.12
   2   0 -15   -0.11    0.11
   4   0 -15    0.03    0.15
   6   0 -15    0.10    0.15
  -3   1 -15   11.95    0.81
  -1   1 -15   16.96    0.89
   1   1 -15    4.98    0.54
   3   1 -15    0.11    0.16
   5   1 -15   72.60    2.42
   3  -3 -14   13.90    0.71
   5  -3 -14    0.79    0.23
   7  -3 -14   17.67    0.85
   9  -3 -14    2.42    0.39
  -2  -2 -14    0.72    0.22
   0  -2 -14    7.53    0.54
   2  -2 -14    0.02    0.14
   4  -2 -14    3.57    0.42
   6  -2 -14    3.79    0.46
   8  -2 -14    5.44    0.55
  10  -2 -14    3.47    0.45
  -7  -1 -14   25.97    1.09
  -5  -1 -14    0.63    0.22
  -3  -1 -14    1.03    0.26
  -1  -1 -14    5.41    0.47
   1  -1 -14    9.72    0.62
   3  -1 -14    3.32    0.42
   5  -1 -14    0.09    0.14
   7  -1 -14    5.10    0.52
   9  -1 -14    1.13    0.28
  11  -1 -14    2.52    0.40
 -10   0 -14    7.73    0.59
  -8   0 -14   19.53    0.94
  -6   0 -14   22.92    1.01
  -4   0 -14    4.32    0.48
  -2   0 -14    1.42    0.29
   0   0 -14   34.32    1.34
   2   0 -14    2.75    0.40
   4   0 -14    7.67    0.56
   6   0 -14   19.07    0.92
   8   0 -14   33.79    1.31
  10   0 -14    8.94    0.64
  -9   1 -14    0.15    0.18
  -7   1 -14   27.42    1.16
  -5   1 -14    0.76    0.23
  -3   1 -14    1.01    0.26
  -1   1 -14    5.82    0.50
   1   1 -14    9.83    0.64
   3   1 -14    2.40    0.38
   5   1 -14    0.11    0.13
   7   1 -14    5.60    0.57
   9   1 -14    1.36    0.31
  11   1 -14    2.58    0.40
  -6   2 -14    4.39    0.52
  -4   2 -14    1.50    0.31
  -2   2 -14    0.47    0.20
   0   2 -14    9.05    0.61
   2   2 -14    0.16    0.15
   4   2 -14    2.90    0.41
   6   2 -14    2.82    0.41
   8   2 -14    6.25    0.54
  10   2 -14    3.12    0.44
  -5   3 -14    1.86    0.39
  -3   3 -14    4.58    0.52
  -1   3 -14   17.64    0.90
   1   3 -14   30.88    1.24
   3   3 -14   12.60    0.75
   5   3 -14    0.62    0.23
   7   3 -14   18.87    0.93
   9   3 -14    1.83    0.44
   0   4 -14    5.82    0.67
   2   4 -14    3.03    0.43
   4   4 -14    0.16    0.18
  -3  -5 -13    1.70    0.31
   6  -4 -13    7.17    0.51
   1  -3 -13    0.30    0.15
   3  -3 -13    0.56    0.19
   5  -3 -13    0.24    0.15
   7  -3 -13    0.43    0.18
   9  -3 -13    0.14    0.14
  -4  -2 -13   27.74    1.04
  -2  -2 -13    6.77    0.48
   0  -2 -13    0.18    0.14
   2  -2 -13  136.17    3.41
   4  -2 -13    0.79    0.20
   6  -2 -13   10.33    0.60
   8  -2 -13   18.61    0.86
  10  -2 -13   23.48    1.00
  12  -2 -13    8.45    0.59
  -9  -1 -13   12.24    0.69
  -7  -1 -13    0.39    0.18
  -5  -1 -13   51.70    1.62
  -3  -1 -13    0.50    0.19
  -1  -1 -13   14.46    0.73
   1  -1 -13   25.39    1.02
   3  -1 -13   23.26    0.97
   5  -1 -13    3.31    0.41
   7  -1 -13    1.12    0.24
   9  -1 -13   69.16    2.10
  11  -1 -13    0.95    0.24
  13  -1 -13    4.38    0.51
 -12   0 -13    0.13    0.17
 -10   0 -13    0.14    0.16
  -8   0 -13   -0.07    0.11
  -6   0 -13    0.10    0.14
  -4   0 -13    0.01    0.11
  -2   0 -13   -0.02    0.10
   0   0 -13    0.07    0.11
   2   0 -13   -0.01    0.11
   4   0 -13   -0.03    0.08
   6   0 -13    0.01    0.10
   8   0 -13    0.13    0.13
  10   0 -13    0.15    0.14
  12   0 -13    0.01    0.11
  14   0 -13    0.11    0.14
 -13   1 -13   14.33    1.07
 -11   1 -13   17.87    0.92
  -9   1 -13   11.12    0.70
  -7   1 -13    0.62    0.20
  -5   1 -13   52.08    1.67
  -3   1 -13    0.39    0.16
  -1   1 -13   14.72    0.76
   1   1 -13   25.26    1.04
   3   1 -13   24.60    1.02
   5   1 -13    3.14    0.39
   7   1 -13    1.10    0.25
   9   1 -13   70.43    2.13
  11   1 -13    1.09    0.28
  13   1 -13    4.64    0.52
 -10   2 -13    1.50    0.32
  -8   2 -13    8.09    0.60
  -6   2 -13   21.16    0.98
  -4   2 -13   25.33    1.09
  -2   2 -13    6.49    0.51
   0   2 -13    0.39    0.17
   2   2 -13  134.90    3.50
   4   2 -13    1.10    0.26
   6   2 -13    9.02    0.61
   8   2 -13   19.01    0.91
  10   2 -13   23.73    1.05
  12   2 -13    8.11    0.60
  14   2 -13    0.67    0.24
  -9   3 -13    1.04    0.27
  -7   3 -13    0.37    0.18
  -5   3 -13    0.50    0.20
  -3   3 -13    1.60    0.30
  -1   3 -13    0.05    0.13
   1   3 -13    0.18    0.14
   3   3 -13    0.87    0.24
   5   3 -13    0.27    0.17
   7   3 -13    0.35    0.17
   9   3 -13    0.28    0.17
  11   3 -13    0.39    0.19
  13   3 -13    0.58    0.24
  -6   4 -13   12.28    0.75
  -4   4 -13   14.68    0.81
  -2   4 -13    8.02    0.59
   0   4 -13    0.16    0.14
   2   4 -13   85.06    2.53
   4   4 -13    0.11    0.15
   6   4 -13    8.24    0.60
   8   4 -13   12.44    0.73
  10   4 -13   13.91    0.78
  12   4 -13    9.23    1.05
  -3   5 -13    2.47    0.39
  -1   5 -13    9.34    0.64
   1   5 -13   14.14    0.80
   3   5 -13   13.54    0.77
   5   5 -13    2.40    0.38
   7   5 -13    0.33    0.18
   9   5 -13   40.26    1.61
  -4  -6 -12   13.89    0.76
  -2  -6 -12   23.85    1.01
   0  -6 -12    9.12    0.59
   2  -6 -12    0.41    0.17
  -7  -5 -12    2.42    0.37
  -5  -5 -12    1.49    0.28
  -3  -5 -12    6.41    0.49
  -1  -5 -12    0.41    0.16
   1  -5 -12    8.60    0.54
 -10  -4 -12   28.08    1.17
  -8  -4 -12    1.35    0.27
  -6  -4 -12    1.42    0.28
  -4  -4 -12    8.76    0.57
  -2  -4 -12   15.75    0.75
   4  -4 -12    8.46    0.50
   6  -4 -12    5.95    0.44
  -1  -3 -12    2.88    0.33
   1  -3 -12   10.42    0.54
   3  -3 -12   27.98    1.03
   5  -3 -12   46.15    1.45
   7  -3 -12   11.83    0.64
   9  -3 -12    0.42    0.17
  -6  -2 -12    2.63    0.33
  -4  -2 -12    7.43    0.48
  -2  -2 -12    9.45    0.53
   0  -2 -12    7.34    0.47
   2  -2 -12    1.04    0.22
   4  -2 -12    5.79    0.42
   6  -2 -12    0.08    0.11
   8  -2 -12    5.94    0.44
  10  -2 -12    6.94    0.49
  12  -2 -12    7.00    0.51
 -11  -1 -12    5.74    0.57
  -9  -1 -12    8.96    0.56
  -7  -1 -12    0.97    0.22
  -5  -1 -12    0.44    0.16
  -3  -1 -12   16.55    0.76
  -1  -1 -12    2.32    0.32
   1  -1 -12    1.47    0.26
   3  -1 -12   10.79    0.59
   5  -1 -12   16.54    0.76
   7  -1 -12    2.89    0.35
   9  -1 -12    0.10    0.13
  11  -1 -12   33.25    1.24
  13  -1 -12    0.81    0.22
 -14   0 -12    7.02    0.56
 -12   0 -12    0.08    0.15
 -10   0 -12  144.76    3.74
  -8   0 -12    2.54    0.35
  -6   0 -12    5.89    0.45
  -4   0 -12   34.88    1.24
  -2   0 -12   53.80    1.65
   0   0 -12   19.39    0.84
   2   0 -12    1.23    0.24
   4   0 -12   29.58    1.08
   6   0 -12    4.32    0.45
   8   0 -12   18.69    0.85
  10   0 -12   35.31    1.28
  12   0 -12   33.30    1.25
  14   0 -12    3.35    0.43
 -15   1 -12    0.09    0.15
 -13   1 -12    2.11    0.36
 -11   1 -12    5.91    0.50
  -9   1 -12    8.14    0.57
  -7   1 -12    1.03    0.25
  -5   1 -12    0.27    0.15
  -3   1 -12   15.74    0.78
  -1   1 -12    1.55    0.27
   1   1 -12    1.65    0.28
   3   1 -12    9.60    0.58
   5   1 -12   15.62    0.77
   7   1 -12    3.45    0.41
   9   1 -12    0.05    0.12
  11   1 -12   33.98    1.26
  13   1 -12    1.09    0.26
  15   1 -12    4.64    0.52
 -14   2 -12    1.70    0.34
 -12   2 -12    0.03    0.13
 -10   2 -12   30.65    1.23
  -8   2 -12    0.72    0.22
  -6   2 -12    2.00    0.32
  -4   2 -12    6.62    0.50
  -2   2 -12    8.62    0.56
   0   2 -12    7.18    0.50
   2   2 -12    1.60    0.29
   4   2 -12    5.57    0.45
   6   2 -12    0.10    0.12
   8   2 -12    5.12    0.44
  10   2 -12    6.78    0.52
  12   2 -12    6.80    0.53
  14   2 -12    0.63    0.22
  16   2 -12    0.36    0.19
 -11   3 -12   18.15    0.94
  -9   3 -12   25.92    1.11
  -7   3 -12    4.51    0.49
  -5   3 -12    1.47    0.29
  -3   3 -12   48.98    1.67
  -1   3 -12    2.69    0.36
   1   3 -12    9.94    0.60
   3   3 -12   32.02    1.17
   5   3 -12   45.46    1.53
   7   3 -12   12.52    0.70
   9   3 -12    0.49    0.18
  11   3 -12  108.31    2.88
  13   3 -12    1.58    0.31
  15   3 -12   14.52    0.80
 -10   4 -12   28.26    1.21
  -8   4 -12    1.13    0.27
  -6   4 -12    0.94    0.25
  -4   4 -12    8.41    0.59
  -2   4 -12   14.84    0.78
   0   4 -12    1.42    0.28
   2   4 -12    1.17    0.27
   4   4 -12    7.25    0.54
   6   4 -12    6.04    0.48
   8   4 -12    2.36    0.35
  10   4 -12    8.12    0.58
  12   4 -12    8.23    0.59
  14   4 -12    0.91    0.25
  -7   5 -12    2.78    0.42
  -5   5 -12    1.50    0.31
  -3   5 -12    6.76    0.53
  -1   5 -12    0.73    0.21
   1   5 -12    8.52    0.58
   3   5 -12    2.14    0.33
   5   5 -12    4.88    0.51
   7   5 -12    6.81    0.52
   9   5 -12    0.86    0.24
  11   5 -12   13.85    0.77
  -4   6 -12   14.28    0.80
  -2   6 -12   22.39    0.61
   0   6 -12    9.25    0.34
   2   6 -12    0.48    0.10
   6   6 -12    1.65    0.32
  -3  -7 -11    0.31    0.19
  -1  -7 -11   55.27    1.75
   1  -7 -11    0.33    0.18
  -8  -6 -11    1.65    0.33
  -6  -6 -11    3.59    0.45
  -4  -6 -11    1.01    0.24
  -2  -6 -11    0.72    0.21
   0  -6 -11    1.47    0.27
   2  -6 -11    0.45    0.17
   8  -6 -11    2.55    0.40
  10  -6 -11    2.41    0.39
  12  -6 -11    1.54    0.34
 -11  -5 -11    5.81    0.50
  -9  -5 -11   21.23    0.96
  -7  -5 -11   24.82    1.04
  -5  -5 -11    7.05    0.50
  -3  -5 -11    0.09    0.11
  -1  -5 -11  133.24    3.31
   1  -5 -11    1.10    0.22
   3  -5 -11   10.38    0.57
   9  -5 -11    6.01    0.51
  11  -5 -11    0.13    0.19
  13  -5 -11    9.78    0.66
  15  -5 -11    3.75    0.47
 -12  -4 -11   11.04    0.67
 -10  -4 -11    1.10    0.25
  -8  -4 -11   41.13    1.41
  -6  -4 -11    0.06    0.11
  -4  -4 -11   16.94    0.78
  -2  -4 -11   22.61    0.89
   0  -4 -11   24.12    0.94
   2  -4 -11    5.40    0.32
   4  -4 -11    1.39    0.24
   6  -4 -11   88.71    2.34
 -15  -3 -11    0.16    0.16
 -13  -3 -11    0.67    0.21
 -11  -3 -11    1.15    0.25
  -9  -3 -11    0.91    0.22
  -7  -3 -11    1.71    0.29
  -5  -3 -11    0.91    0.21
  -3  -3 -11    0.22    0.08
   1  -3 -11    0.81    0.18
   3  -3 -11    0.23    0.12
   5  -3 -11    0.63    0.17
   7  -3 -11    0.56    0.16
   9  -3 -11    0.91    0.21
  -8  -2 -11   65.45    2.08
  -6  -2 -11    1.52    0.25
  -4  -2 -11   17.65    0.73
  -2  -2 -11   36.73    1.18
   0  -2 -11   38.78    1.23
   2  -2 -11    4.66    0.35
   4  -2 -11    1.60    0.24
   6  -2 -11  136.27    3.40
   8  -2 -11    2.74    0.33
  10  -2 -11    4.63    0.39
  12  -2 -11   21.47    0.90
 -11  -1 -11   15.81    0.75
  -9  -1 -11   26.57    1.01
  -7  -1 -11   34.15    1.16
  -5  -1 -11   13.12    0.65
  -3  -1 -11    0.02    0.08
  -1  -1 -11  219.47    5.03
   1  -1 -11    1.51    0.24
   3  -1 -11   13.91    0.66
   5  -1 -11   35.51    1.19
   7  -1 -11   39.27    1.29
   9  -1 -11   13.47    0.68
  11  -1 -11    1.71    0.29
  13  -1 -11   11.93    0.67
 -16   0 -11    0.04    0.15
 -14   0 -11    0.24    0.16
 -12   0 -11    0.07    0.13
 -10   0 -11    0.11    0.13
  -8   0 -11    0.22    0.13
  -6   0 -11    0.03    0.10
  -4   0 -11   -0.05    0.08
  -2   0 -11    0.12    0.10
   0   0 -11    0.00    0.09
   2   0 -11   -0.01    0.08
   4   0 -11    0.04    0.09
   6   0 -11    0.04    0.08
   8   0 -11    0.14    0.11
  10   0 -11    0.00    0.09
  12   0 -11   -0.01    0.09
  14   0 -11    0.10    0.12
 -17   1 -11    1.40    0.33
 -15   1 -11    7.90    0.60
 -13   1 -11    0.80    0.23
 -11   1 -11   16.28    0.81
  -9   1 -11   24.68    1.03
  -7   1 -11   33.00    1.20
  -5   1 -11   14.17    0.70
  -3   1 -11    0.26    0.13
  -1   1 -11  225.36    5.11
   1   1 -11    2.08    0.30
   3   1 -11   15.26    0.71
   5   1 -11   33.57    1.20
   7   1 -11   41.69    1.34
   9   1 -11   14.32    0.70
  11   1 -11    1.79    0.30
  13   1 -11   12.46    0.69
  15   1 -11    2.35    0.37
 -16   2 -11   17.75    0.94
 -14   2 -11   23.09    1.07
 -12   2 -11    8.92    0.62
 -10   2 -11    0.90    0.23
  -8   2 -11   65.26    1.96
  -6   2 -11    1.65    0.29
  -4   2 -11   16.77    0.79
  -2   2 -11   37.89    1.28
   0   2 -11   38.54    1.30
   2   2 -11    3.99    0.43
   4   2 -11    1.12    0.23
   6   2 -11  139.13    3.50
   8   2 -11    3.46    0.39
  10   2 -11    4.79    0.41
  12   2 -11   19.70    0.90
  14   2 -11   34.54    1.30
  16   2 -11    8.28    0.58
 -15   3 -11    0.47    0.24
 -13   3 -11    0.76    0.12
 -11   3 -11    1.12    0.27
  -9   3 -11    0.93    0.24
  -7   3 -11    1.58    0.29
  -5   3 -11    0.88    0.21
  -3   3 -11    0.27    0.14
  -1   3 -11    0.79    0.20
   1   3 -11    1.09    0.23
   3   3 -11    0.18    0.12
   5   3 -11    0.74    0.21
   7   3 -11    0.31    0.14
   9   3 -11    1.13    0.25
  11   3 -11    1.13    0.25
  13   3 -11    0.17    0.15
  15   3 -11    1.14    0.26
  17   3 -11    0.93    0.26
 -12   4 -11   11.97    0.42
 -10   4 -11    1.04    0.14
  -8   4 -11   43.63    0.90
  -6   4 -11    0.16    0.07
  -4   4 -11   17.46    0.46
  -2   4 -11   21.60    0.94
   0   4 -11   25.53    1.01
   2   4 -11    5.37    0.44
   4   4 -11    1.44    0.26
   6   4 -11   87.78    2.44
   8   4 -11    0.41    0.18
  10   4 -11    8.48    0.56
  12   4 -11   12.56    0.69
  14   4 -11   19.59    0.90
  16   4 -11    9.16    0.62
 -11   5 -11    5.26    0.58
  -9   5 -11   21.71    0.62
  -7   5 -11   26.57    0.68
  -5   5 -11    6.99    0.30
  -3   5 -11    0.10    0.07
  -1   5 -11  130.17    2.24
   1   5 -11    1.32    0.14
   3   5 -11   11.04    0.35
   5   5 -11   18.77    0.86
   7   5 -11   25.78    1.03
   9   5 -11    5.54    0.46
  11   5 -11    0.14    0.16
  -8   6 -11    0.86    0.25
  -6   6 -11    4.18    0.27
  -4   6 -11    0.94    0.15
  -2   6 -11    0.83    0.13
   0   6 -11    1.91    0.19
   2   6 -11    0.40    0.10
   4   6 -11    1.32    0.15
   6   6 -11    0.59    0.11
   8   6 -11    1.99    0.21
  -5   7 -11    7.43    0.80
  -3   7 -11    0.51    0.22
  -1   7 -11   58.20    1.80
   1   7 -11    0.31    0.19
  -2  -8 -10    7.99    0.83
   0  -8 -10    1.37    0.29
  -7  -7 -10    7.44    0.57
  -5  -7 -10   11.62    0.68
  -3  -7 -10    1.54    0.29
  -1  -7 -10    2.61    0.35
   1  -7 -10    6.97    0.48
   9  -7 -10    9.41    0.68
  11  -7 -10    1.31    0.36
 -10  -6 -10    4.17    0.47
  -8  -6 -10    0.21    0.15
  -6  -6 -10   36.77    1.33
  -4  -6 -10    1.29    0.26
  -2  -6 -10    7.72    0.51
   0  -6 -10   24.86    0.97
   2  -6 -10   37.26    1.22
   8  -6 -10   97.12    2.66
  10  -6 -10    0.93    0.27
  12  -6 -10   15.42    0.84
  14  -6 -10   15.67    0.87
 -13  -5 -10   19.10    0.91
 -11  -5 -10    0.92    0.24
  -9  -5 -10    3.11    0.40
  -7  -5 -10    5.32    0.43
  -5  -5 -10    4.32    0.44
  -3  -5 -10   10.37    0.58
  -1  -5 -10    3.42    0.36
   1  -5 -10    2.28    0.30
   3  -5 -10    1.79    0.26
   5  -5 -10    9.77    0.47
   7  -5 -10    3.71    0.41
   9  -5 -10    6.45    0.50
  11  -5 -10    1.53    0.31
  13  -5 -10    0.70    0.23
  15  -5 -10   19.17    0.95
  17  -5 -10    0.28    0.21
 -16  -4 -10    1.24    0.33
 -14  -4 -10    4.68    0.50
 -12  -4 -10    8.42    0.56
 -10  -4 -10    0.33    0.16
  -8  -4 -10    1.72    0.28
  -6  -4 -10   17.87    0.79
  -4  -4 -10    4.98    0.38
  -2  -4 -10    0.07    0.09
   0  -4 -10   19.84    0.79
   2  -4 -10   28.06    0.66
   4  -4 -10    3.26    0.18
   6  -4 -10    1.28    0.23
   8  -4 -10   49.70    1.50
  10  -4 -10    3.79    0.41
  12  -4 -10    5.84    0.46
  14  -4 -10    8.48    0.57
  16  -4 -10    7.30    0.56
  18  -4 -10    1.17    0.29
 -17  -3 -10    8.18    0.58
 -15  -3 -10    0.39    0.18
 -13  -3 -10  137.43    3.50
 -11  -3 -10    2.25    0.34
  -9  -3 -10    5.79    0.43
  -7  -3 -10   39.05    1.29
  -5  -3 -10   57.04    1.66
  -3  -3 -10   18.80    0.52
  -1  -3 -10    2.02    0.18
   1  -3 -10   33.69    0.74
   3  -3 -10    4.43    0.32
   5  -3 -10   21.79    0.59
   7  -3 -10   47.19    1.00
   9  -3 -10   48.21    1.02
  11  -3 -10    5.89    0.42
  13  -3 -10    2.05    0.31
  15  -3 -10  140.93    3.60
  17  -3 -10    0.20    0.17
  19  -3 -10   12.25    0.73
 -12  -2 -10    8.04    0.51
 -10  -2 -10    2.25    0.30
  -8  -2 -10    0.66    0.12
  -6  -2 -10   20.80    0.83
  -4  -2 -10    0.02    0.05
  -2  -2 -10    9.77    0.49
   0  -2 -10    9.58    0.48
   2  -2 -10   13.56    0.60
   4  -2 -10    8.85    0.47
   6  -2 -10    0.17    0.10
   8  -2 -10   49.56    1.46
  10  -2 -10    0.31    0.13
  12  -2 -10    6.10    0.41
  14  -2 -10    7.64    0.49
  16  -2 -10    5.90    0.47
  18  -2 -10    3.18    0.41
  20  -2 -10    0.91    0.27
 -13  -1 -10   46.59    1.50
 -11  -1 -10    1.01    0.22
  -9  -1 -10    1.31    0.23
  -7  -1 -10   12.99    0.63
  -5  -1 -10   21.52    0.81
  -3  -1 -10    4.31    0.33
  -1  -1 -10    0.72    0.16
   1  -1 -10   12.56    0.57
   3  -1 -10    3.14    0.33
   5  -1 -10    5.66    0.39
   7  -1 -10   18.50    0.75
   9  -1 -10   16.47    0.73
  11  -1 -10    1.45    0.25
  13  -1 -10    0.58    0.18
 -16   0 -10   10.42    0.66
 -14   0 -10   28.45    1.12
 -12   0 -10   39.59    1.37
 -10   0 -10    5.10    0.41
  -8   0 -10    2.31    0.31
  -6   0 -10  103.87    2.74
  -4   0 -10    5.80    0.40
  -2   0 -10   18.33    0.75
   0   0 -10   61.58    1.71
   2   0 -10   91.02    2.37
   4   0 -10   23.71    0.89
   6   0 -10    0.66    0.17
   8   0 -10  238.86    5.38
  10   0 -10    2.66    0.33
  12   0 -10   26.14    1.01
  14   0 -10   40.69    1.38
 -19   1 -10    5.29    0.60
 -17   1 -10    1.74    0.33
 -15   1 -10    0.10    0.14
 -13   1 -10   47.84    1.58
 -11   1 -10    1.17    0.24
  -9   1 -10    1.43    0.26
  -7   1 -10   14.50    0.69
  -5   1 -10   21.59    0.86
  -3   1 -10    4.43    0.36
  -1   1 -10    1.10    0.21
   1   1 -10   11.47    0.57
   3   1 -10    3.84    0.39
   5   1 -10    5.95    0.41
   7   1 -10   17.15    0.75
   9   1 -10   16.43    0.73
  11   1 -10    1.07    0.23
  13   1 -10    0.60    0.18
  15   1 -10   47.84    1.57
 -18   2 -10    0.23    0.18
 -16   2 -10    2.82    0.20
 -14   2 -10    6.23    0.27
 -12   2 -10    8.22    0.29
 -10   2 -10    1.47    0.27
  -8   2 -10    0.55    0.18
  -6   2 -10   21.72    0.90
  -4   2 -10    0.07    0.10
  -2   2 -10    8.58    0.51
   0   2 -10    9.04    0.52
   2   2 -10   13.30    0.64
   4   2 -10    8.91    0.52
   6   2 -10    0.29    0.14
   8   2 -10   49.95    1.51
  10   2 -10    0.33    0.14
  12   2 -10    5.31    0.43
  14   2 -10    7.35    0.51
  16   2 -10    6.68    0.49
 -17   3 -10    7.53    0.85
 -15   3 -10    0.16    0.08
 -13   3 -10  138.64    2.40
 -11   3 -10    1.88    0.18
  -9   3 -10    6.00    0.26
  -7   3 -10   39.94    0.83
  -5   3 -10   57.06    1.08
  -3   3 -10   19.62    0.83
  -1   3 -10    1.44    0.26
   1   3 -10   33.41    1.14
   3   3 -10    3.97    0.39
   5   3 -10   22.37    0.88
   7   3 -10   47.90    1.50
   9   3 -10   47.89    1.51
  11   3 -10    5.26    0.42
  13   3 -10    1.04    0.23
  15   3 -10  145.13    3.64
 -14   4 -10    5.27    0.30
 -12   4 -10    8.62    0.36
 -10   4 -10    0.35    0.09
  -8   4 -10    1.89    0.18
  -6   4 -10   18.04    0.51
  -4   4 -10    4.92    0.23
  -2   4 -10    0.06    0.05
   0   4 -10   20.25    0.50
   2   4 -10   27.94    0.62
   4   4 -10    3.54    0.17
   6   4 -10    1.04    0.22
   8   4 -10   48.47    1.51
  10   4 -10    4.47    0.45
  12   4 -10    6.10    0.46
  14   4 -10    8.60    0.56
  16   4 -10    6.66    0.51
 -13   5 -10   18.70    0.96
 -11   5 -10    0.88    0.15
  -9   5 -10    2.93    0.25
  -7   5 -10    5.19    0.27
  -5   5 -10    4.50    0.26
  -3   5 -10   10.29    0.37
  -1   5 -10    3.27    0.21
   1   5 -10    2.71    0.19
   3   5 -10    2.01    0.17
   5   5 -10   10.20    0.35
   7   5 -10    4.02    0.22
   9   5 -10    6.08    0.25
  11   5 -10    2.36    0.16
 -10   6 -10    4.70    0.53
  -8   6 -10    0.19    0.09
  -6   6 -10   37.19    0.90
  -4   6 -10    1.29    0.17
  -2   6 -10    8.17    0.34
   0   6 -10   26.08    0.66
   2   6 -10   36.88    0.84
   4   6 -10   11.94    0.41
   6   6 -10    0.12    0.08
   8   6 -10   95.34    2.30
  10   6 -10    0.99    0.17
  12   6 -10   15.39    0.58
  -7   7 -10    8.08    0.60
  -5   7 -10   12.35    0.52
  -3   7 -10    0.99    0.16
  -1   7 -10    3.01    0.26
   1   7 -10    6.09    0.31
   3   7 -10    7.46    0.44
   5   7 -10    1.88    0.25
   7   7 -10    8.02    0.52
  -4  -8  -9   71.67    2.13
  -2  -8  -9    1.21    0.27
   0  -8  -9    7.81    0.54
  -9  -7  -9    0.53    0.19
  -7  -7  -9   11.59    0.69
  -5  -7  -9   10.28    0.63
  -3  -7  -9   12.36    0.67
  -1  -7  -9    6.18    0.46
   1  -7  -9    0.64    0.19
   7  -7  -9    9.61    0.66
   9  -7  -9    8.43    0.62
  11  -7  -9   13.69    0.81
 -12  -6  -9    1.80    0.32
 -10  -6  -9    3.91    0.45
  -8  -6  -9    2.86    0.38
  -6  -6  -9    0.64    0.19
  -4  -6  -9    1.97    0.29
  -2  -6  -9    2.97    0.35
   0  -6  -9    0.53    0.16
   2  -6  -9    1.78    0.26
   6  -6  -9    2.85    0.38
   8  -6  -9    3.92    0.45
  10  -6  -9    0.93    0.25
  12  -6  -9    5.39    0.54
  14  -6  -9    2.78    0.42
  16  -6  -9    0.87    0.34
 -15  -5  -9    4.72    0.51
 -13  -5  -9    1.10    0.26
 -11  -5  -9   52.43    1.66
  -9  -5  -9    2.38    0.33
  -7  -5  -9   13.01    0.66
  -5  -5  -9   31.21    1.10
  -3  -5  -9   31.60    1.09
  -1  -5  -9    5.76    0.40
   1  -5  -9    0.90    0.19
   3  -5  -9  134.47    3.25
   5  -5  -9    3.85    0.24
   7  -5  -9    3.98    0.42
   9  -5  -9   27.32    1.06
  11  -5  -9   44.30    1.48
  13  -5  -9    6.13    0.51
  15  -5  -9    0.07    0.13
  17  -5  -9   28.92    1.21
 -18  -4  -9    5.80    0.61
 -16  -4  -9    0.07    0.12
 -14  -4  -9   16.75    0.80
 -12  -4  -9   17.45    0.82
 -10  -4  -9   23.43    0.93
  -8  -4  -9   16.23    0.74
  -6  -4  -9    0.33    0.13
  -4  -4  -9  196.67    4.48
  -2  -4  -9    0.72    0.17
   0  -4  -9   14.98    0.42
   2  -4  -9   34.56    0.74
   4  -4  -9   37.64    0.81
   6  -4  -9   16.64    0.48
   8  -4  -9    3.37    0.37
  10  -4  -9   14.11    0.70
  12  -4  -9    0.90    0.22
  14  -4  -9    9.73    0.59
  16  -4  -9   13.44    0.74
  18  -4  -9   20.33    0.96
 -19  -3  -9    0.67    0.24
 -17  -3  -9    0.39    0.17
 -15  -3  -9    1.17    0.25
 -13  -3  -9    0.85    0.20
 -11  -3  -9    0.68    0.18
  -9  -3  -9    2.25    0.29
  -7  -3  -9    0.75    0.18
  -5  -3  -9    0.42    0.09
  -3  -3  -9    1.34    0.15
  -1  -3  -9    0.22    0.07
   1  -3  -9    0.77    0.10
   3  -3  -9    0.61    0.08
   5  -3  -9    1.42    0.15
   7  -3  -9    2.99    0.31
   9  -3  -9    1.77    0.17
  11  -3  -9    2.22    0.29
  13  -3  -9    1.87    0.28
  15  -3  -9    0.56    0.18
  17  -3  -9    0.17    0.15
  19  -3  -9    1.15    0.27
  21  -3  -9    0.14    0.18
 -16  -2  -9    1.54    0.27
 -14  -2  -9   11.94    0.64
 -12  -2  -9   35.33    1.19
 -10  -2  -9   43.89    0.94
  -8  -2  -9   14.92    0.45
  -6  -2  -9    0.47    0.09
  -4  -2  -9  301.41    6.67
  -2  -2  -9    3.29    0.19
   0  -2  -9   18.35    0.48
   2  -2  -9   57.31    1.55
   4  -2  -9   65.86    1.21
   6  -2  -9   13.45    0.40
   8  -2  -9    1.53    0.15
  10  -2  -9   25.06    0.64
  12  -2  -9    7.55    0.45
  14  -2  -9    5.65    0.42
  16  -2  -9   26.24    1.02
  18  -2  -9   32.94    1.22
  20  -2  -9    3.13    0.41
  22  -2  -9    0.20    0.22
 -13  -1  -9    1.28    0.25
 -11  -1  -9   77.10    2.05
  -9  -1  -9    0.56    0.16
  -7  -1  -9   24.27    0.88
  -5  -1  -9   52.36    1.50
  -3  -1  -9   60.87    1.65
  -1  -1  -9    8.37    0.43
   1  -1  -9    2.55    0.28
   3  -1  -9  259.84    5.84
   5  -1  -9    3.62    0.29
   7  -1  -9   13.35    0.39
   9  -1  -9   36.22    0.78
  11  -1  -9   56.76    1.13
  13  -1  -9   17.17    0.76
  15  -1  -9    0.39    0.15
  17  -1  -9   47.33    1.46
  19  -1  -9    2.05    0.33
  21  -1  -9    9.48    0.63
 -18   0  -9    0.04    0.14
 -16   0  -9    0.01    0.11
 -14   0  -9    0.01    0.11
 -12   0  -9    0.05    0.09
 -10   0  -9    0.44    0.15
  -8   0  -9   -0.03    0.06
  -6   0  -9    0.01    0.08
  -4   0  -9    0.01    0.06
  -2   0  -9    0.04    0.07
   0   0  -9    0.02    0.06
   2   0  -9   -0.01    0.05
   4   0  -9    0.04    0.07
   6   0  -9    0.07    0.08
   8   0  -9   -0.01    0.07
  10   0  -9    0.03    0.06
  12   0  -9    0.00    0.05
  14   0  -9    0.07    0.07
  16   0  -9    0.01    0.09
  18   0  -9    0.12    0.13
  20   0  -9    0.17    0.16
  22   0  -9    0.13    0.15
 -19   1  -9   18.05    0.54
 -17   1  -9   22.29    0.59
 -15   1  -9   12.88    0.40
 -13   1  -9    1.16    0.12
 -11   1  -9   77.63    1.35
  -9   1  -9    0.44    0.16
  -7   1  -9   24.45    0.93
  -5   1  -9   54.89    1.57
  -3   1  -9   61.52    1.71
  -1   1  -9    7.81    0.45
   1   1  -9    2.68    0.29
   3   1  -9  257.91    5.87
   5   1  -9    3.94    0.31
   7   1  -9   13.19    0.61
   9   1  -9   34.47    1.15
  11   1  -9   57.30    1.67
  13   1  -9   16.66    0.75
  15   1  -9    0.51    0.17
  19   1  -9    2.39    0.41
  21   1  -9    9.28    1.06
 -18   2  -9    8.87    0.37
 -16   2  -9    0.91    0.14
 -14   2  -9   12.24    0.41
 -12   2  -9   35.47    0.78
 -10   2  -9   43.40    0.89
  -8   2  -9   14.94    0.40
  -6   2  -9    0.57    0.08
  -4   2  -9  302.46    6.76
  -2   2  -9    3.67    0.37
   0   2  -9   19.17    0.76
   2   2  -9   58.49    1.64
   4   2  -9   66.35    1.81
   6   2  -9   13.49    0.62
   8   2  -9    1.54    0.23
  10   2  -9   25.78    0.96
  12   2  -9    8.85    0.52
  14   2  -9    6.25    0.44
 -17   3  -9    0.31    0.11
 -15   3  -9    0.88    0.14
 -13   3  -9    1.19    0.16
 -11   3  -9    0.99    0.13
  -9   3  -9    2.89    0.19
  -7   3  -9    0.54    0.09
  -5   3  -9    0.45    0.08
  -3   3  -9    1.41    0.13
  -1   3  -9    0.29    0.06
   1   3  -9    1.11    0.10
   3   3  -9    0.74    0.18
   5   3  -9    1.43    0.23
   7   3  -9    2.32    0.30
   9   3  -9    1.20    0.22
  11   3  -9    1.90    0.28
  13   3  -9    1.83    0.28
  15   3  -9    0.52    0.18
 -16   4  -9    0.10    0.09
 -14   4  -9   16.34    0.53
 -12   4  -9   18.84    0.56
 -10   4  -9   22.57    0.62
  -8   4  -9   16.53    0.49
  -6   4  -9    0.25    0.07
  -4   4  -9  194.43    3.12
  -2   4  -9    0.86    0.12
   0   4  -9   14.70    0.42
   2   4  -9   33.88    0.73
   4   4  -9   36.49    0.76
   6   4  -9   17.44    0.44
   8   4  -9    2.50    0.16
  10   4  -9   13.76    0.39
  12   4  -9    1.13    0.12
  14   4  -9   10.71    0.59
  16   4  -9   13.00    0.80
 -15   5  -9    4.29    0.52
 -13   5  -9    0.85    0.15
 -11   5  -9   53.49    1.14
  -9   5  -9    2.51    0.23
  -7   5  -9   13.07    0.44
  -5   5  -9   30.40    0.74
  -3   5  -9   30.79    0.74
  -1   5  -9    5.84    0.27
   1   5  -9    0.96    0.13
   3   5  -9  133.16    2.29
   5   5  -9    3.98    0.22
   7   5  -9    3.82    0.22
   9   5  -9   27.93    0.65
  11   5  -9   43.63    0.91
  13   5  -9    6.98    0.35
  15   5  -9    0.23    0.09
  17   5  -9   29.16    0.84
 -12   6  -9    2.95    0.28
 -10   6  -9    4.01    0.30
  -8   6  -9    2.72    0.25
  -6   6  -9    0.61    0.13
  -4   6  -9    2.14    0.21
  -2   6  -9    3.08    0.24
   0   6  -9    0.51    0.11
   2   6  -9    2.11    0.19
   4   6  -9    1.79    0.18
   6   6  -9    2.91    0.22
   8   6  -9    3.97    0.30
  10   6  -9    0.76    0.16
  12   6  -9    5.33    0.34
  14   6  -9    2.86    0.29
  -9   7  -9    0.41    0.14
  -7   7  -9   13.44    0.49
  -5   7  -9   11.46    0.44
  -3   7  -9   11.57    0.44
  -1   7  -9    6.71    0.32
   1   7  -9    0.69    0.13
   3   7  -9   56.82    1.65
   5   7  -9    0.38    0.14
   7   7  -9    8.33    0.48
   9   7  -9    8.74    0.48
  -6   8  -9    0.12    0.17
   0   8  -9    7.79    0.51
   2   8  -9   10.96    0.64
  -1  -9  -8   15.95    0.82
  -8  -8  -8    1.46    0.45
  -6  -8  -8    8.56    0.59
  -4  -8  -8    4.21    0.47
  -2  -8  -8    0.57    0.21
   0  -8  -8    3.69    0.42
   2  -8  -8    9.47    0.60
   8  -8  -8    2.31    0.40
  10  -8  -8    0.59    0.28
 -11  -7  -8    3.77    0.44
  -9  -7  -8   11.76    0.68
  -7  -7  -8    3.83    0.43
  -5  -7  -8    0.38    0.16
  -3  -7  -8   19.41    0.84
  -1  -7  -8   24.31    0.95
   1  -7  -8    3.54    0.37
   3  -7  -8    1.21    0.22
   7  -7  -8    6.24    0.52
   9  -7  -8    3.99    0.48
  11  -7  -8    8.88    0.63
  13  -7  -8    6.00    0.61
 -14  -6  -8    0.61    0.22
 -12  -6  -8    5.29    0.46
 -10  -6  -8   22.50    0.97
  -8  -6  -8   32.60    1.18
  -6  -6  -8   10.49    0.58
  -4  -6  -8    1.23    0.23
  -2  -6  -8   18.79    0.77
   0  -6  -8    2.23    0.28
   2  -6  -8   17.83    0.72
   6  -6  -8   37.00    1.30
   8  -6  -8    8.06    0.55
  10  -6  -8    0.42    0.18
  12  -6  -8  136.03    3.55
  14  -6  -8    0.11    0.14
  16  -6  -8   11.31    0.73
 -17  -5  -8    3.45    0.43
 -15  -5  -8    3.82    0.43
 -13  -5  -8    3.37    0.40
 -11  -5  -8    1.64    0.27
  -9  -5  -8   16.92    0.75
  -7  -5  -8    0.89    0.20
  -5  -5  -8   15.32    0.69
  -3  -5  -8    4.69    0.35
  -1  -5  -8    7.08    0.42
   1  -5  -8   13.89    0.61
   3  -5  -8    1.51    0.16
   5  -5  -8   35.07    0.79
   7  -5  -8    1.83    0.28
   9  -5  -8    5.89    0.44
  11  -5  -8    7.03    0.50
  13  -5  -8    5.05    0.43
  15  -5  -8    4.24    0.48
  17  -5  -8    2.25    0.37
  19  -5  -8    6.35    0.56
 -18  -4  -8    0.26    0.16
 -16  -4  -8   38.60    1.35
 -14  -4  -8    1.21    0.25
 -12  -4  -8    1.75    0.28
 -10  -4  -8   14.87    0.70
  -8  -4  -8   22.52    0.87
  -6  -4  -8    1.15    0.20
  -4  -4  -8    4.68    0.34
  -2  -4  -8   14.82    0.61
   0  -4  -8   11.35    0.34
   2  -4  -8    3.45    0.18
   4  -4  -8   25.51    0.92
   6  -4  -8   24.55    0.60
   8  -4  -8    2.32    0.29
  10  -4  -8    0.98    0.20
  12  -4  -8   69.71    1.98
  14  -4  -8    0.84    0.21
  16  -4  -8    2.98    0.39
  18  -4  -8    7.79    0.57
  20  -4  -8   11.83    0.74
 -19  -3  -8    9.02    0.58
 -17  -3  -8   21.93    0.92
 -15  -3  -8   33.10    1.18
 -13  -3  -8    5.81    0.42
 -11  -3  -8    1.82    0.26
  -9  -3  -8  108.76    2.78
  -7  -3  -8    4.25    0.32
  -5  -3  -8   20.05    0.49
  -3  -3  -8   74.90    1.32
  -1  -3  -8  100.01    1.69
   1  -3  -8   28.75    0.90
   3  -3  -8    1.21    0.10
   5  -3  -8  310.22    4.71
   7  -3  -8    3.14    0.19
   9  -3  -8   31.94    1.04
  11  -3  -8   56.48    1.61
  13  -3  -8   44.78    1.40
  15  -3  -8   13.66    0.68
  17  -3  -8    1.61    0.29
  19  -3  -8   56.39    1.83
  21  -3  -8    1.75    0.33
 -18  -2  -8    0.01    0.12
 -16  -2  -8   39.38    1.28
 -14  -2  -8    0.44    0.15
 -12  -2  -8    1.93    0.26
 -10  -2  -8   12.68    0.40
  -8  -2  -8   14.61    0.43
  -6  -2  -8   10.34    0.33
  -4  -2  -8    1.43    0.14
  -2  -2  -8    9.51    0.30
   0  -2  -8    0.31    0.07
   2  -2  -8   14.46    0.31
   4  -2  -8   17.29    0.44
   6  -2  -8   21.74    0.52
   8  -2  -8    3.72    0.29
  10  -2  -8    0.77    0.11
  12  -2  -8   76.36    1.99
  14  -2  -8    0.26    0.12
  16  -2  -8    6.08    0.44
  18  -2  -8    5.05    0.43
  20  -2  -8    5.57    0.48
  22  -2  -8    4.65    0.52
 -13  -1  -8    1.25    0.15
 -11  -1  -8    1.29    0.15
  -9  -1  -8   36.99    0.82
  -7  -1  -8    2.58    0.19
  -5  -1  -8    3.50    0.19
  -3  -1  -8   29.42    0.92
  -1  -1  -8   39.26    1.14
   1  -1  -8    6.69    0.37
   3  -1  -8    1.00    0.11
   5  -1  -8  111.51    1.81
   7  -1  -8    2.22    0.15
   9  -1  -8    9.44    0.32
  11  -1  -8   19.88    0.77
  13  -1  -8   15.37    0.64
  15  -1  -8    3.46    0.36
  17  -1  -8    0.58    0.17
  19  -1  -8   17.62    0.84
  21  -1  -8    0.72    0.21
  23  -1  -8    0.58    0.22
 -20   0  -8   10.66    0.48
 -18   0  -8    0.39    0.10
 -16   0  -8  190.43    3.11
 -14   0  -8    3.38    0.19
 -12   0  -8    6.80    0.24
 -10   0  -8   63.71    1.80
  -8   0  -8   91.63    2.34
  -6   0  -8   23.93    0.84
  -4   0  -8    3.89    0.29
  -2   0  -8   59.74    1.58
   0   0  -8    6.65    0.38
   2   0  -8   38.96    1.14
   4   0  -8  107.62    1.76
   6   0  -8  111.44    1.86
   8   0  -8   11.54    0.34
  10   0  -8    3.95    0.20
  12   0  -8  352.69    5.46
  14   0  -8    1.17    0.20
  16   0  -8   19.75    0.81
  18   0  -8   28.46    1.06
  20   0  -8   35.16    1.28
  22   0  -8   14.42    0.79
 -21   1  -8    0.09    0.17
 -19   1  -8    2.54    0.23
 -17   1  -8    7.88    0.33
 -15   1  -8   11.15    0.38
 -13   1  -8    1.10    0.13
 -11   1  -8    1.38    0.13
  -9   1  -8   36.92    0.75
  -7   1  -8    3.05    0.14
  -5   1  -8    3.84    0.30
  -3   1  -8   28.54    0.96
  -1   1  -8   39.77    1.19
   1   1  -8    7.35    0.40
   3   1  -8    0.70    0.15
   5   1  -8  110.73    2.66
   7   1  -8    2.44    0.15
   9   1  -8    8.95    0.30
  11   1  -8   20.48    0.53
  13   1  -8   15.34    0.46
  15   1  -8    3.14    0.33
  17   1  -8    0.43    0.16
  19   1  -8   17.80    0.82
  21   1  -8    1.02    0.26
  23   1  -8    0.64    0.24
 -20   2  -8    3.97    0.50
 -18   2  -8    0.07    0.08
 -16   2  -8   38.38    0.88
 -14   2  -8    0.50    0.10
 -12   2  -8    2.48    0.17
 -10   2  -8   12.90    0.38
  -8   2  -8   15.06    0.40
  -6   2  -8   10.57    0.31
  -4   2  -8    1.60    0.11
  -2   2  -8    9.59    0.26
   0   2  -8    0.21    0.11
   2   2  -8   14.76    0.62
   4   2  -8   17.64    0.69
   6   2  -8   20.23    0.77
   8   2  -8    3.30    0.29
  10   2  -8    0.98    0.19
  12   2  -8   74.41    1.38
  14   2  -8    0.01    0.06
  16   2  -8    5.09    0.38
  18   2  -8    4.99    0.41
  20   2  -8    6.38    0.49
  22   2  -8    5.10    0.53
 -19   3  -8    9.64    0.66
 -17   3  -8   21.81    0.63
 -15   3  -8   34.45    0.82
 -13   3  -8    6.31    0.29
 -11   3  -8    2.73    0.19
  -9   3  -8  109.67    1.94
  -7   3  -8    4.30    0.21
  -5   3  -8   18.92    0.48
  -3   3  -8   73.86    1.32
  -1   3  -8   99.29    1.68
   1   3  -8   29.64    0.62
   3   3  -8    1.01    0.10
   5   3  -8  306.95    4.69
   7   3  -8    3.66    0.16
   9   3  -8   32.62    0.66
  11   3  -8   56.76    1.61
  13   3  -8   44.68    1.38
  15   3  -8   13.64    0.66
 -18   4  -8    0.20    0.17
 -16   4  -8   39.20    0.94
 -14   4  -8    1.30    0.17
 -12   4  -8    1.68    0.19
 -10   4  -8   16.32    0.49
  -8   4  -8   22.92    0.59
  -6   4  -8    1.10    0.13
  -4   4  -8    4.74    0.23
  -2   4  -8   14.38    0.41
   0   4  -8   11.17    0.35
   2   4  -8    3.84    0.19
   4   4  -8   26.65    0.60
   6   4  -8   25.23    0.58
   8   4  -8    2.99    0.18
  10   4  -8    1.16    0.12
  12   4  -8   69.40    1.28
  14   4  -8    1.15    0.13
  16   4  -8    2.76    0.22
  18   4  -8    7.78    0.36
 -15   5  -8    4.36    0.29
 -13   5  -8    3.65    0.26
 -11   5  -8    1.38    0.17
  -9   5  -8   14.44    0.49
  -7   5  -8    0.68    0.12
  -5   5  -8   15.68    0.47
  -3   5  -8    4.88    0.24
  -1   5  -8    7.51    0.30
   1   5  -8   15.45    0.44
   3   5  -8    1.25    0.14
   5   5  -8   35.28    0.76
   7   5  -8    1.77    0.16
   9   5  -8    6.17    0.26
  11   5  -8    7.12    0.38
  13   5  -8    4.68    0.32
  15   5  -8    5.29    0.33
  17   5  -8    2.07    0.25
 -14   6  -8    0.16    0.10
 -12   6  -8    5.30    0.33
 -10   6  -8   24.29    0.69
  -8   6  -8   32.97    0.82
  -6   6  -8   10.12    0.39
  -4   6  -8    1.01    0.14
  -2   6  -8   20.34    0.55
   0   6  -8    2.63    0.21
   2   6  -8   18.32    0.51
   4   6  -8   35.39    0.80
   6   6  -8   35.75    1.11
   8   6  -8    8.41    0.45
  10   6  -8    0.43    0.13
  12   6  -8  136.97    3.28
  14   6  -8    0.16    0.11
 -11   7  -8    3.99    0.32
  -9   7  -8   11.13    0.46
  -7   7  -8    4.21    0.31
  -5   7  -8    0.57    0.13
  -3   7  -8   19.12    0.57
  -1   7  -8   24.74    0.66
   1   7  -8    4.60    0.35
   3   7  -8    1.12    0.20
   5   7  -8   37.75    1.19
   7   7  -8    5.29    0.39
   9   7  -8    4.30    0.35
  11   7  -8    7.75    0.48
  -8   8  -8    2.00    0.34
  -6   8  -8    8.86    0.45
  -4   8  -8    3.51    0.40
  -2   8  -8    0.83    0.20
   0   8  -8    3.38    0.37
   2   8  -8    9.24    0.54
   4   8  -8    1.61    0.27
   6   8  -8    3.26    0.36
   8   8  -8    2.84    0.39
  -3  -9  -7    0.41    0.20
  -1  -9  -7    2.40    0.36
   1  -9  -7    2.38    0.38
 -10  -8  -7    6.43    0.84
  -8  -8  -7   12.91    0.73
  -6  -8  -7   15.73    0.79
  -4  -8  -7    6.36    0.48
  -2  -8  -7    1.29    0.26
   0  -8  -7   76.42    2.18
   2  -8  -7    1.60    0.27
   8  -8  -7   30.64    1.27
  10  -8  -7    3.21    0.45
 -13  -7  -7   10.04    0.64
 -11  -7  -7   11.84    0.69
  -9  -7  -7    0.61    0.19
  -7  -7  -7   88.95    2.44
  -5  -7  -7    0.53    0.18
  -3  -7  -7   12.02    0.62
  -1  -7  -7   17.15    0.74
   1  -7  -7   17.45    0.74
   3  -7  -7   13.87    0.62
   5  -7  -7    1.81    0.32
   7  -7  -7    9.99    0.64
   9  -7  -7    0.74    0.22
  11  -7  -7   10.49    0.67
  13  -7  -7   11.26    0.71
  15  -7  -7   12.56    0.78
 -16  -6  -7    2.51    0.37
 -14  -6  -7    2.18    0.34
 -12  -6  -7    5.13    0.43
 -10  -6  -7    1.91    0.30
  -8  -6  -7    0.75    0.19
  -6  -6  -7    3.80    0.40
  -4  -6  -7    0.44    0.14
  -2  -6  -7    3.02    0.32
   0  -6  -7    1.58    0.23
   2  -6  -7    3.89    0.30
   4  -6  -7    6.21    0.46
   6  -6  -7    5.92    0.45
   8  -6  -7    7.27    0.51
  10  -6  -7    6.07    0.47
  12  -6  -7    2.55    0.37
  14  -6  -7    0.79    0.23
  16  -6  -7    4.11    0.48
  18  -6  -7    0.42    0.25
 -19  -5  -7    0.65    0.22
 -17  -5  -7    5.72    0.47
 -15  -5  -7   31.39    1.15
 -13  -5  -7   31.02    1.15
 -11  -5  -7   10.89    0.59
  -9  -5  -7    0.17    0.12
  -7  -5  -7  214.73    4.97
  -5  -5  -7    2.18    0.27
  -3  -5  -7   16.12    0.67
  -1  -5  -7   45.26    1.31
   1  -5  -7   55.39    1.51
   3  -5  -7    6.81    0.28
   5  -5  -7    2.59    0.20
   7  -5  -7   30.94    1.10
   9  -5  -7    9.97    0.56
  11  -5  -7    3.25    0.36
  13  -5  -7   30.49    1.16
  15  -5  -7   35.13    1.29
  17  -5  -7    3.13    0.41
  19  -5  -7    0.29    0.19
 -18  -4  -7   10.12    0.61
 -16  -4  -7    1.47    0.26
 -14  -4  -7   47.00    1.45
 -12  -4  -7    0.80    0.19
 -10  -4  -7   24.05    0.91
  -8  -4  -7   35.60    1.14
  -6  -4  -7   43.26    1.29
  -4  -4  -7   12.52    0.55
  -2  -4  -7    1.34    0.15
   0  -4  -7  238.98    3.70
   2  -4  -7    1.52    0.11
   4  -4  -7   21.07    0.77
   6  -4  -7   37.86    0.78
   8  -4  -7   49.49    1.46
  10  -4  -7   23.06    0.89
  12  -4  -7    0.94    0.20
  14  -4  -7   50.25    1.54
  16  -4  -7    1.75    0.30
  18  -4  -7   12.50    0.71
  20  -4  -7   16.35    0.86
 -19  -3  -7    0.68    0.22
 -17  -3  -7    1.19    0.23
 -15  -3  -7    1.54    0.24
 -13  -3  -7    2.08    0.28
 -11  -3  -7    1.83    0.26
  -9  -3  -7    0.60    0.15
  -7  -3  -7    1.46    0.14
  -5  -3  -7    2.08    0.14
  -3  -3  -7    0.19    0.05
  -1  -3  -7    2.75    0.14
   1  -3  -7    1.59    0.13
   3  -3  -7    2.30    0.11
   5  -3  -7    3.66    0.14
   7  -3  -7    1.06    0.12
   9  -3  -7    4.24    0.31
  11  -3  -7    3.25    0.28
  13  -3  -7    0.97    0.20
  15  -3  -7    1.66    0.27
  17  -3  -7    1.39    0.26
  19  -3  -7    0.37    0.17
  21  -3  -7    0.01    0.13
 -20  -2  -7   21.86    0.70
 -18  -2  -7    7.69    0.28
 -16  -2  -7    1.67    0.26
 -14  -2  -7   75.70    1.97
 -12  -2  -7    1.43    0.15
 -10  -2  -7   22.53    0.55
  -8  -2  -7   65.42    1.20
  -6  -2  -7   78.64    1.37
  -4  -2  -7   11.99    0.34
  -2  -2  -7    3.97    0.26
   0  -2  -7  390.70    5.89
   2  -2  -7    8.71    0.22
   4  -2  -7   13.07    0.29
   6  -2  -7   77.09    1.90
   8  -2  -7  101.84    1.75
  10  -2  -7   18.29    0.69
  12  -2  -7    1.10    0.20
  14  -2  -7   78.81    2.06
  16  -2  -7    7.16    0.46
  18  -2  -7   15.12    0.73
  20  -2  -7   24.60    1.05
  22  -2  -7   17.21    0.89
 -21  -1  -7   11.08    0.51
 -19  -1  -7    0.21    0.09
 -17  -1  -7   18.42    0.48
 -15  -1  -7   35.84    0.74
 -13  -1  -7   40.03    0.78
 -11  -1  -7   24.12    0.82
  -9  -1  -7    0.20    0.06
  -7  -1  -7  387.33    5.81
  -5  -1  -7    3.73    0.18
  -3  -1  -7   22.61    0.52
  -1  -1  -7   98.19    1.63
   1  -1  -7  103.76    1.69
   3  -1  -7   24.47    0.52
   5  -1  -7    3.62    0.17
   7  -1  -7   56.95    1.48
   9  -1  -7    5.81    0.35
  11  -1  -7   14.68    0.43
  13  -1  -7   45.02    1.29
  15  -1  -7   54.20    1.57
  17  -1  -7    5.23    0.40
  19  -1  -7    1.19    0.24
  21  -1  -7   99.14    2.74
  23  -1  -7    0.65    0.24
 -20   0  -7    0.05    0.07
 -18   0  -7    0.02    0.06
 -16   0  -7    0.07    0.05
 -14   0  -7    0.06    0.05
 -12   0  -7    0.03    0.04
 -10   0  -7    0.14    0.05
  -8   0  -7    0.16    0.03
  -6   0  -7    0.02    0.06
  -4   0  -7    0.04    0.06
  -2   0  -7   -0.02    0.04
   0   0  -7    0.06    0.06
   2   0  -7   -0.01    0.02
   4   0  -7    0.06    0.03
   6   0  -7    0.01    0.03
   8   0  -7    0.06    0.04
  10   0  -7    0.05    0.04
  12   0  -7    0.04    0.05
  14   0  -7    0.05    0.08
  16   0  -7   -0.02    0.06
  18   0  -7    0.03    0.09
  20   0  -7   -0.02    0.11
  22   0  -7   -0.04    0.11
  24   0  -7    0.08    0.16
 -23   1  -7    0.95    0.35
 -21   1  -7   10.92    0.44
 -19   1  -7    0.22    0.09
 -17   1  -7   18.77    0.54
 -15   1  -7   35.97    0.80
 -13   1  -7   40.99    0.85
 -11   1  -7   23.38    0.55
  -9   1  -7    0.23    0.06
  -7   1  -7  381.03    5.76
  -5   1  -7    3.78    0.11
  -3   1  -7   22.76    0.79
  -1   1  -7   97.97    2.37
   1   1  -7  105.41    2.49
   3   1  -7   24.52    0.48
   5   1  -7    3.82    0.15
   7   1  -7   57.23    1.05
   9   1  -7    5.71    0.23
  11   1  -7   15.28    0.42
  13   1  -7   43.30    0.91
  15   1  -7   54.37    1.55
  17   1  -7    5.39    0.40
  19   1  -7    0.63    0.19
  21   1  -7  102.86    2.74
  23   1  -7    0.52    0.22
 -22   2  -7   17.22    1.00
 -20   2  -7   22.26    0.66
 -18   2  -7    7.71    0.34
 -16   2  -7    1.79    0.19
 -14   2  -7   77.18    1.39
 -12   2  -7    1.54    0.15
 -10   2  -7   21.99    0.54
  -8   2  -7   65.05    1.19
  -6   2  -7   78.55    1.36
  -4   2  -7   11.71    0.32
  -2   2  -7    3.43    0.15
   0   2  -7  387.30    4.77
   2   2  -7    8.70    0.18
   4   2  -7   13.75    0.31
   6   2  -7   77.53    1.30
   8   2  -7  104.05    1.73
  10   2  -7   18.22    0.47
  12   2  -7    0.66    0.11
  14   2  -7   78.04    1.43
  16   2  -7    6.55    0.43
  18   2  -7   14.04    0.69
  20   2  -7   26.45    1.05
  22   2  -7   17.46    0.87
 -21   3  -7    0.02    0.19
 -19   3  -7    0.65    0.14
 -17   3  -7    1.01    0.15
 -15   3  -7    1.72    0.18
 -13   3  -7    1.79    0.18
 -11   3  -7    1.72    0.17
  -9   3  -7    0.44    0.09
  -7   3  -7    2.15    0.15
  -5   3  -7    2.22    0.15
  -3   3  -7    0.28    0.06
  -1   3  -7    1.93    0.13
   1   3  -7    1.51    0.13
   3   3  -7    2.49    0.14
   5   3  -7    3.97    0.17
   7   3  -7    0.76    0.07
   9   3  -7    4.63    0.16
  11   3  -7    3.10    0.14
  13   3  -7    1.00    0.10
  15   3  -7    2.22    0.13
  17   3  -7    0.89    0.12
  19   3  -7    0.32    0.08
  21   3  -7    0.29    0.18
  23   3  -7    0.26    0.20
 -18   4  -7   10.80    0.44
 -16   4  -7    1.32    0.18
 -14   4  -7   47.42    1.03
 -12   4  -7    0.43    0.10
 -10   4  -7   24.46    0.63
  -8   4  -7   34.53    0.78
  -6   4  -7   44.06    0.90
  -4   4  -7   12.99    0.39
  -2   4  -7    1.50    0.14
   0   4  -7  236.71    3.75
   2   4  -7    1.18    0.13
   4   4  -7   20.17    0.49
   6   4  -7   36.57    0.76
   8   4  -7   49.95    0.97
  10   4  -7   23.66    0.56
  12   4  -7    0.71    0.09
  14   4  -7   49.53    0.80
  16   4  -7    0.90    0.12
  18   4  -7   12.17    0.41
  20   4  -7   16.26    0.49
  22   4  -7   13.27    0.76
 -17   5  -7    5.35    0.34
 -15   5  -7   29.03    0.79
 -13   5  -7   31.69    0.81
 -11   5  -7   10.75    0.41
  -9   5  -7    0.30    0.09
  -7   5  -7  216.19    3.50
  -5   5  -7    2.48    0.20
  -3   5  -7   16.81    0.48
  -1   5  -7   44.97    0.93
   1   5  -7   56.36    1.08
   3   5  -7    6.37    0.26
   5   5  -7    2.57    0.20
   7   5  -7   29.75    0.69
   9   5  -7   10.24    0.34
  11   5  -7    3.32    0.26
  13   5  -7   30.20    0.99
  15   5  -7   35.79    1.10
  17   5  -7    3.49    0.29
  19   5  -7    0.49    0.17
 -16   6  -7    2.60    0.26
 -14   6  -7    1.90    0.22
 -12   6  -7    5.61    0.32
 -10   6  -7    1.66    0.20
  -8   6  -7    1.75    0.19
  -6   6  -7    3.38    0.26
  -4   6  -7    0.33    0.10
  -2   6  -7    3.47    0.23
   0   6  -7    1.39    0.15
   2   6  -7    3.46    0.21
   4   6  -7    6.02    0.27
   6   6  -7    5.20    0.35
   8   6  -7    6.85    0.40
  10   6  -7    6.33    0.39
  12   6  -7    2.57    0.31
  14   6  -7    0.43    0.15
  16   6  -7    4.27    0.34
 -13   7  -7    9.05    0.43
 -11   7  -7   12.36    0.49
  -9   7  -7    0.86    0.16
  -7   7  -7   88.83    1.69
  -5   7  -7    1.00    0.16
  -3   7  -7   11.03    0.41
  -1   7  -7   16.78    0.51
   1   7  -7   17.76    0.74
   3   7  -7   13.31    0.62
   5   7  -7    2.25    0.30
   7   7  -7   10.05    0.54
   9   7  -7    0.73    0.18
  11   7  -7   12.40    0.60
  13   7  -7   10.08    0.56
 -10   8  -7    6.13    0.37
  -8   8  -7   13.38    0.51
  -6   8  -7   14.54    0.73
  -4   8  -7    4.98    0.41
  -2   8  -7    1.17    0.23
   0   8  -7   75.78    2.15
   2   8  -7    1.34    0.23
   4   8  -7    3.10    0.37
   6   8  -7   21.83    0.88
   8   8  -7   31.30    1.10
  10   8  -7    3.66    0.38
  -5   9  -7    2.57    0.44
  -3   9  -7    0.37    0.18
  -1   9  -7    2.07    0.32
   1   9  -7    1.61    0.28
   3   9  -7    2.02    0.31
   5   9  -7    3.79    0.54
  -5  -9  -6    7.56    0.56
  -3  -9  -6    0.37    0.17
  -1  -9  -6   10.24    0.62
   1  -9  -6   16.04    0.78
 -10  -8  -6    2.20    0.36
  -8  -8  -6   11.02    0.67
  -6  -8  -6    2.56    0.36
  -4  -8  -6    3.29    0.38
  -2  -8  -6   12.71    0.66
   0  -8  -6    2.88    0.35
   2  -8  -6   12.65    0.63
   8  -8  -6    2.86    0.41
  10  -8  -6    2.26    0.39
  12  -8  -6    5.02    0.56
 -15  -7  -6    1.73    0.32
 -13  -7  -6   11.07    0.66
 -11  -7  -6   12.65    0.69
  -9  -7  -6    0.64    0.19
  -7  -7  -6    6.96    0.49
  -5  -7  -6    8.16    0.51
  -3  -7  -6   12.52    0.61
  -1  -7  -6    1.14    0.22
   1  -7  -6   19.92    0.79
   3  -7  -6   20.35    0.77
   5  -7  -6    3.25    0.40
   7  -7  -6    1.14    0.25
   9  -7  -6   56.67    1.80
  11  -7  -6    1.30    0.27
  13  -7  -6    3.13    0.42
  15  -7  -6   10.08    0.68
 -18  -6  -6   16.02    0.81
 -16  -6  -6    6.56    0.51
 -14  -6  -6    0.78    0.21
 -12  -6  -6   60.21    1.83
 -10  -6  -6    1.04    0.23
  -8  -6  -6   11.00    0.59
  -6  -6  -6   46.63    1.44
  -4  -6  -6   56.58    1.63
  -2  -6  -6   17.94    0.74
   0  -6  -6    0.48    0.13
   2  -6  -6  194.88    4.33
   4  -6  -6    1.36    0.15
   6  -6  -6   27.01    1.03
   8  -6  -6   39.26    1.31
  10  -6  -6   31.62    1.17
  12  -6  -6   12.37    0.68
  14  -6  -6    0.70    0.21
  16  -6  -6   53.08    1.80
  18  -6  -6    1.44    0.32
 -19  -5  -6   18.02    0.86
 -17  -5  -6    1.02    0.25
 -15  -5  -6    2.58    0.35
 -13  -5  -6    6.85    0.47
 -11  -5  -6    5.83    0.41
  -9  -5  -6   12.82    0.62
  -7  -5  -6    4.71    0.35
  -5  -5  -6    2.88    0.31
  -3  -5  -6    4.59    0.31
  -1  -5  -6   20.82    0.75
   1  -5  -6    7.52    0.39
   3  -5  -6   14.15    0.42
   5  -5  -6    6.79    0.27
   7  -5  -6    1.54    0.24
   9  -5  -6   59.73    1.70
  11  -5  -6    1.05    0.22
  13  -5  -6    8.38    0.53
  15  -5  -6    3.90    0.44
  17  -5  -6    3.69    0.45
  19  -5  -6    9.29    0.63
 -18  -4  -6    9.66    0.57
 -16  -4  -6    0.97    0.22
 -14  -4  -6    3.82    0.34
 -12  -4  -6   28.70    1.03
 -10  -4  -6    5.36    0.36
  -8  -4  -6    0.16    0.09
  -6  -4  -6   40.10    1.20
  -4  -4  -6   50.45    1.38
  -2  -4  -6    5.37    0.19
   0  -4  -6    4.29    0.17
   2  -4  -6  119.35    1.97
   4  -4  -6    8.73    0.29
   6  -4  -6    9.09    0.29
   8  -4  -6   25.33    0.89
  10  -4  -6   18.70    0.76
  12  -4  -6    1.97    0.27
  14  -4  -6    1.40    0.24
  16  -4  -6   29.90    1.13
  18  -4  -6    4.08    0.45
  20  -4  -6    0.13    0.14
  22  -4  -6    7.13    0.59
 -21  -3  -6    0.35    0.11
 -19  -3  -6  140.33    3.22
 -17  -3  -6    2.06    0.15
 -15  -3  -6    5.55    0.39
 -13  -3  -6   55.31    1.58
 -11  -3  -6   73.52    1.91
  -9  -3  -6   16.74    0.66
  -7  -3  -6    4.38    0.18
  -5  -3  -6   53.09    0.92
  -3  -3  -6    5.57    0.20
  -1  -3  -6   40.34    0.75
   1  -3  -6  124.17    1.62
   3  -3  -6  127.25    2.06
   5  -3  -6   20.03    0.37
   7  -3  -6    4.23    0.17
   9  -3  -6  473.96   10.22
  11  -3  -6    1.24    0.20
  13  -3  -6   24.61    0.92
  15  -3  -6   41.89    1.35
  17  -3  -6   47.49    1.52
  19  -3  -6   17.53    0.84
  21  -3  -6    0.27    0.17
  23  -3  -6   10.80    0.71
 -20  -2  -6    6.18    0.35
 -18  -2  -6    8.28    0.31
 -16  -2  -6    2.70    0.17
 -14  -2  -6    0.66    0.09
 -12  -2  -6   36.06    0.77
 -10  -2  -6    0.07    0.05
  -8  -2  -6   13.89    0.37
  -6  -2  -6   19.86    0.46
  -4  -2  -6   24.93    0.53
  -2  -2  -6   19.80    0.43
   0  -2  -6    0.33    0.08
   2  -2  -6  122.59    1.58
   4  -2  -6    0.88    0.08
   6  -2  -6   12.49    0.34
   8  -2  -6   25.26    0.56
  10  -2  -6   20.66    0.73
  12  -2  -6    7.32    0.41
  14  -2  -6    2.23    0.28
  16  -2  -6   27.91    1.02
  18  -2  -6    0.35    0.14
  20  -2  -6    4.14    0.44
  22  -2  -6    4.15    0.48
 -21  -1  -6    0.19    0.10
 -19  -1  -6   46.17    1.29
 -17  -1  -6    0.80    0.11
 -15  -1  -6    1.45    0.14
 -13  -1  -6   19.49    0.46
 -11  -1  -6   26.60    0.55
  -9  -1  -6    3.49    0.14
  -7  -1  -6    2.72    0.15
  -5  -1  -6   21.74    0.48
  -3  -1  -6    4.86    0.19
  -1  -1  -6    8.92    0.26
   1  -1  -6   49.70    0.71
   3  -1  -6   51.52    0.90
   5  -1  -6    5.46    0.19
   7  -1  -6    3.17    0.23
   9  -1  -6  177.85    2.79
  11  -1  -6    0.78    0.14
  13  -1  -6    6.24    0.38
  15  -1  -6   15.27    0.66
  17  -1  -6   17.04    0.75
  19  -1  -6    4.42    0.39
  21  -1  -6    0.05    0.12
  23  -1  -6    3.29    0.43
 -22   0  -6    9.63    0.52
 -20   0  -6   26.43    0.69
 -18   0  -6   43.18    0.93
 -16   0  -6    8.17    0.31
 -14   0  -6    4.74    0.22
 -12   0  -6  168.69    2.74
 -10   0  -6    5.70    0.21
  -8   0  -6   27.82    0.56
  -6   0  -6  134.38    1.70
  -4   0  -6  167.78    3.76
  -2   0  -6   49.26    1.29
   0   0  -6    4.03    0.24
   2   0  -6  586.46    8.68
   4   0  -6    9.08    0.24
   6   0  -6   51.35    0.91
   8   0  -6  134.66    2.17
  10   0  -6  110.47    1.85
  12   0  -6   23.06    0.56
  14   0  -6    4.19    0.31
  16   0  -6  138.30    3.48
  18   0  -6    2.81    0.34
  20   0  -6    8.27    0.54
  22   0  -6   21.79    0.98
  24   0  -6   29.73    1.24
 -23   1  -6    2.32    0.38
 -21   1  -6    0.04    0.07
 -19   1  -6   46.68    1.01
 -17   1  -6    1.04    0.14
 -15   1  -6    1.28    0.15
 -13   1  -6   19.30    0.50
 -11   1  -6   27.26    0.60
  -9   1  -6    3.26    0.16
  -7   1  -6    2.98    0.14
  -5   1  -6   21.25    0.35
  -3   1  -6    5.01    0.12
  -1   1  -6    8.48    0.39
   1   1  -6   50.00    1.31
   3   1  -6   51.17    0.87
   5   1  -6    5.56    0.18
   7   1  -6    2.07    0.13
   9   1  -6  173.80    2.78
  11   1  -6    1.19    0.13
  13   1  -6    6.59    0.27
  15   1  -6   14.96    0.65
  17   1  -6   17.70    0.75
  19   1  -6    4.30    0.44
  21   1  -6    0.06    0.13
  23   1  -6    5.16    0.54
 -22   2  -6    3.02    0.43
 -20   2  -6    6.05    0.32
 -18   2  -6    8.53    0.36
 -16   2  -6    2.59    0.22
 -14   2  -6    0.65    0.11
 -12   2  -6   34.39    0.77
 -10   2  -6    0.05    0.04
  -8   2  -6   14.03    0.38
  -6   2  -6   20.55    0.47
  -4   2  -6   24.88    0.53
  -2   2  -6   18.40    0.39
   0   2  -6    0.43    0.05
   2   2  -6  122.23    1.56
   4   2  -6    0.88    0.05
   6   2  -6   11.97    0.20
   8   2  -6   25.25    0.42
  10   2  -6   21.09    0.38
  12   2  -6    7.27    0.20
  14   2  -6    2.15    0.14
  16   2  -6   27.07    0.62
  18   2  -6    0.42    0.08
  20   2  -6    4.04    0.21
  22   2  -6    3.83    0.46
  24   2  -6    6.41    0.55
 -21   3  -6    0.45    0.12
 -19   3  -6  141.22    2.52
 -17   3  -6    1.78    0.20
 -15   3  -6    5.79    0.28
 -13   3  -6   55.83    1.12
 -11   3  -6   71.69    1.34
  -9   3  -6   17.23    0.46
  -7   3  -6    4.67    0.21
  -5   3  -6   50.82    0.95
  -3   3  -6    5.23    0.21
  -1   3  -6   39.72    0.77
   1   3  -6  120.96    1.58
   3   3  -6  127.04    1.65
   5   3  -6   19.77    0.36
   7   3  -6    3.86    0.14
   9   3  -6  470.30    5.84
  11   3  -6    1.53    0.11
  13   3  -6   25.98    0.49
  15   3  -6   42.51    0.87
  17   3  -6   48.62    0.98
  19   3  -6   18.45    0.51
  21   3  -6    0.46    0.11
  23   3  -6   10.33    0.68
 -20   4  -6    4.65    0.32
 -18   4  -6    9.16    0.41
 -16   4  -6    0.84    0.15
 -14   4  -6    3.94    0.25
 -12   4  -6   29.65    0.74
 -10   4  -6    4.82    0.25
  -8   4  -6    0.27    0.07
  -6   4  -6   41.31    0.85
  -4   4  -6   50.01    0.97
  -2   4  -6    5.29    0.22
   0   4  -6    4.04    0.19
   2   4  -6  119.06    1.95
   4   4  -6    8.94    0.22
   6   4  -6    9.08    0.23
   8   4  -6   25.29    0.47
  10   4  -6   20.08    0.40
  12   4  -6    2.02    0.17
  14   4  -6    1.52    0.13
  16   4  -6   31.10    0.73
  18   4  -6    3.71    0.23
  20   4  -6    0.07    0.07
  22   4  -6    7.07    0.56
 -19   5  -6   17.64    0.62
 -17   5  -6    1.18    0.19
 -15   5  -6    2.60    0.25
 -13   5  -6    7.14    0.34
 -11   5  -6    5.77    0.29
  -9   5  -6   13.85    0.44
  -7   5  -6    4.70    0.24
  -5   5  -6    3.35    0.19
  -3   5  -6    4.41    0.22
  -1   5  -6   21.11    0.54
   1   5  -6    8.22    0.29
   3   5  -6   14.33    0.41
   5   5  -6    6.98    0.27
   7   5  -6    1.48    0.11
   9   5  -6   56.09    0.89
  11   5  -6    0.81    0.12
  13   5  -6    8.71    0.33
  15   5  -6    4.18    0.25
  17   5  -6    4.20    0.26
  19   5  -6    8.29    0.36
  21   5  -6    0.65    0.23
 -18   6  -6   14.10    0.86
 -16   6  -6    6.60    0.37
 -14   6  -6    1.22    0.18
 -12   6  -6   59.89    1.29
 -10   6  -6    1.32    0.17
  -8   6  -6   11.60    0.42
  -6   6  -6   47.03    1.00
  -4   6  -6   56.67    1.14
  -2   6  -6   19.59    0.53
   0   6  -6    0.56    0.10
   2   6  -6  192.43    3.07
   4   6  -6    1.57    0.16
   6   6  -6   27.20    0.92
   8   6  -6   37.19    1.17
  10   6  -6   31.43    1.04
  12   6  -6   11.63    0.57
  14   6  -6    0.78    0.14
  16   6  -6   54.52    1.18
  18   6  -6    1.02    0.18
  20   6  -6    5.24    0.54
 -15   7  -6    1.45    0.33
 -13   7  -6   10.55    0.48
 -11   7  -6   13.28    0.49
  -9   7  -6    0.49    0.12
  -7   7  -6    7.12    0.34
  -5   7  -6    9.35    0.37
  -3   7  -6   11.28    0.41
  -1   7  -6    1.75    0.21
   1   7  -6   19.86    0.79
   3   7  -6   21.48    0.82
   5   7  -6    4.05    0.33
   7   7  -6    1.54    0.25
   9   7  -6   57.11    1.66
  11   7  -6    1.82    0.28
  13   7  -6    3.44    0.38
  15   7  -6    9.07    0.55
 -12   8  -6    5.78    0.57
 -10   8  -6    2.37    0.37
  -8   8  -6   10.90    0.64
  -6   8  -6    2.30    0.42
  -4   8  -6    3.34    0.40
  -2   8  -6   12.82    0.65
   0   8  -6    2.38    0.31
   2   8  -6   11.97    0.62
   4   8  -6    3.44    0.39
   6   8  -6    5.14    0.40
   8   8  -6    2.62    0.33
  10   8  -6    3.00    0.36
  12   8  -6    4.64    0.40
   3   9  -6   14.25    0.74
   5   9  -6    8.01    0.54
   7   9  -6   -0.02    0.13
   0 -10  -5    9.68    0.64
  -7  -9  -5    0.25    0.19
  -5  -9  -5    3.41    0.43
  -3  -9  -5    2.03    0.33
  -1  -9  -5    3.15    0.39
   1  -9  -5    5.38    0.45
   9  -9  -5    3.39    0.48
 -12  -8  -5    0.12    0.14
 -10  -8  -5   90.04    2.53
  -8  -8  -5    1.18    0.26
  -6  -8  -5   10.24    0.61
  -4  -8  -5   18.10    0.82
  -2  -8  -5   25.02    0.96
   0  -8  -5    2.48    0.32
   2  -8  -5    3.11    0.35
   6  -8  -5    6.70    0.53
   8  -8  -5    1.49    0.31
  10  -8  -5   21.69    1.01
  12  -8  -5   23.08    1.08
  14  -8  -5    3.14    0.48
 -15  -7  -5    1.35    0.29
 -13  -7  -5   14.53    0.77
 -11  -7  -5   12.17    0.67
  -9  -7  -5   15.44    0.75
  -7  -7  -5   12.56    0.65
  -5  -7  -5    0.67    0.18
  -3  -7  -5  109.04    2.77
  -1  -7  -5    0.69    0.17
   1  -7  -5   15.24    0.66
   3  -7  -5   19.70    0.75
   5  -7  -5   24.27    0.71
   7  -7  -5   18.25    0.85
   9  -7  -5    1.99    0.33
  11  -7  -5   29.71    1.14
  13  -7  -5    0.19    0.15
  15  -7  -5   11.89    0.73
  17  -7  -5   10.45    0.71
 -18  -6  -5    3.40    0.43
 -16  -6  -5    3.39    0.40
 -14  -6  -5    3.08    0.38
 -12  -6  -5    1.06    0.24
 -10  -6  -5    4.60    0.37
  -8  -6  -5    3.91    0.34
  -6  -6  -5    0.44    0.14
  -4  -6  -5    4.01    0.32
  -2  -6  -5    2.86    0.30
   0  -6  -5    4.62    0.32
   2  -6  -5   10.53    0.48
   4  -6  -5    1.81    0.17
   6  -6  -5   11.54    0.37
   8  -6  -5    9.48    0.55
  10  -6  -5    3.70    0.42
  12  -6  -5    7.15    0.50
  14  -6  -5    3.22    0.40
  16  -6  -5    1.15    0.26
  18  -6  -5    0.74    0.23
 -19  -5  -5    1.71    0.30
 -17  -5  -5   45.57    1.43
 -15  -5  -5    2.01    0.30
 -13  -5  -5   13.16    0.63
 -11  -5  -5   39.21    1.25
  -9  -5  -5   47.34    1.40
  -7  -5  -5   13.88    0.60
  -5  -5  -5    2.88    0.25
  -3  -5  -5  277.83    6.21
  -1  -5  -5    6.02    0.35
   1  -5  -5    8.92    0.42
   3  -5  -5   72.11    1.32
   5  -5  -5   92.89    1.60
   7  -5  -5    9.37    0.31
   9  -5  -5    2.15    0.29
  11  -5  -5   68.28    1.87
  13  -5  -5    9.39    0.55
  15  -5  -5   12.26    0.67
  17  -5  -5   26.79    1.08
  19  -5  -5   17.28    0.86
  21  -5  -5    3.25    0.44
 -20  -4  -5   15.66    0.57
 -18  -4  -5   19.43    0.83
 -16  -4  -5   20.38    0.83
 -14  -4  -5   20.55    0.81
 -12  -4  -5    0.45    0.14
 -10  -4  -5  243.20    5.49
  -8  -4  -5    1.80    0.24
  -6  -4  -5   19.69    0.71
  -4  -4  -5   64.85    1.69
  -2  -4  -5   72.50    1.20
   0  -4  -5   27.64    0.82
   2  -4  -5    3.28    0.17
   4  -4  -5   55.79    1.04
   6  -4  -5    1.70    0.13
   8  -4  -5   23.68    0.84
  10  -4  -5   41.20    1.26
  12  -4  -5   48.95    1.48
  14  -4  -5    9.47    0.54
  16  -4  -5    0.64    0.18
  18  -4  -5  120.28    3.11
  20  -4  -5    0.11    0.13
  22  -4  -5   12.09    0.74
 -21  -3  -5    1.19    0.19
 -19  -3  -5    1.67    0.21
 -17  -3  -5    0.86    0.11
 -15  -3  -5    2.66    0.16
 -13  -3  -5    0.93    0.10
 -11  -3  -5    0.73    0.15
  -9  -3  -5    2.10    0.24
  -7  -3  -5    0.35    0.06
  -5  -3  -5    2.24    0.11
  -3  -3  -5    1.31    0.09
  -1  -3  -5    2.84    0.12
   1  -3  -5    4.90    0.14
   3  -3  -5    5.73    0.31
   5  -3  -5    6.19    0.21
   7  -3  -5    5.93    0.20
   9  -3  -5    2.68    0.28
  11  -3  -5    0.87    0.17
  13  -3  -5    4.15    0.32
  15  -3  -5    0.69    0.16
  17  -3  -5    0.52    0.16
  19  -3  -5    0.33    0.15
  21  -3  -5    0.03    0.13
  23  -3  -5    0.68    0.23
 -22  -2  -5    0.51    0.14
 -20  -2  -5   11.70    0.52
 -18  -2  -5   37.46    1.10
 -16  -2  -5   40.62    0.83
 -14  -2  -5   18.78    0.38
 -12  -2  -5    0.54    0.06
 -10  -2  -5  397.55    4.85
  -8  -2  -5    5.55    0.20
  -6  -2  -5   22.43    0.48
  -4  -2  -5  122.72    1.95
  -2  -2  -5  146.04    2.28
   0  -2  -5   17.62    0.38
   2  -2  -5    7.27    0.21
   4  -2  -5  109.77    1.45
   6  -2  -5   16.07    0.30
   8  -2  -5   11.97    0.48
  10  -2  -5   83.33    2.10
  12  -2  -5   94.26    2.34
  14  -2  -5    7.60    0.43
  16  -2  -5    1.79    0.26
  18  -2  -5  178.21    4.26
  20  -2  -5    1.81    0.29
  22  -2  -5   13.23    0.73
  24  -2  -5   16.14    0.86
 -21  -1  -5    8.44    0.46
 -19  -1  -5    1.64    0.23
 -17  -1  -5   61.53    1.59
 -15  -1  -5    0.48    0.08
 -13  -1  -5   27.64    0.60
 -11  -1  -5   68.52    1.19
  -9  -1  -5   91.92    1.49
  -7  -1  -5   21.25    0.42
  -5  -1  -5    4.44    0.24
  -3  -1  -5  547.71    8.39
  -1  -1  -5    8.84    0.24
   1  -1  -5   29.66    0.46
   3  -1  -5  129.62    2.00
   5  -1  -5  156.51    3.41
   7  -1  -5   38.55    0.73
   9  -1  -5    0.89    0.10
  11  -1  -5  130.61    2.99
  13  -1  -5    5.40    0.34
  15  -1  -5   18.93    0.75
  17  -1  -5   46.23    1.40
  19  -1  -5   32.79    1.17
  21  -1  -5    5.72    0.46
  23  -1  -5    1.41    0.29
 -22   0  -5   -0.03    0.07
 -20   0  -5    0.02    0.07
 -18   0  -5    0.12    0.06
 -16   0  -5    0.00    0.05
 -14   0  -5    0.01    0.04
 -12   0  -5   -0.02    0.02
 -10   0  -5    0.04    0.03
  -8   0  -5    0.03    0.02
  -6   0  -5    0.02    0.02
  -4   0  -5    0.02    0.03
  -2   0  -5    0.16    0.06
   0   0  -5   -0.01    0.03
   2   0  -5    0.12    0.03
   4   0  -5    0.40    0.07
   6   0  -5    0.01    0.03
   8   0  -5    0.03    0.03
  10   0  -5    0.06    0.04
  12   0  -5    0.01    0.06
  14   0  -5    0.01    0.06
  16   0  -5    0.00    0.07
  18   0  -5    0.23    0.11
  20   0  -5    0.01    0.10
  22   0  -5    0.09    0.12
  24   0  -5    0.07    0.16
 -23   1  -5   16.66    0.56
 -21   1  -5    7.54    0.35
 -19   1  -5    1.65    0.18
 -17   1  -5   61.88    1.20
 -15   1  -5    0.67    0.10
 -13   1  -5   27.65    0.63
 -11   1  -5   69.31    1.23
  -9   1  -5   91.38    1.53
  -7   1  -5   21.33    0.47
  -5   1  -5    4.48    0.13
  -3   1  -5  552.36    6.83
  -1   1  -5    9.03    0.17
   1   1  -5   30.75    0.42
   3   1  -5  128.80    1.98
   5   1  -5  153.15    2.38
   7   1  -5   39.25    0.72
   9   1  -5    0.91    0.05
  11   1  -5  132.08    1.68
  13   1  -5    5.48    0.20
  15   1  -5   19.76    0.46
  17   1  -5   45.15    0.88
  19   1  -5   32.50    0.71
  21   1  -5    6.09    0.25
  23   1  -5    1.28    0.27
 -22   2  -5    0.33    0.11
 -20   2  -5   10.23    0.41
 -18   2  -5   37.28    0.87
 -16   2  -5   41.30    0.90
 -14   2  -5   18.71    0.51
 -12   2  -5    0.44    0.09
 -10   2  -5  402.76    6.02
  -8   2  -5    5.29    0.21
  -6   2  -5   21.73    0.49
  -4   2  -5  121.65    1.96
  -2   2  -5  144.89    2.29
   0   2  -5   17.11    0.38
   2   2  -5    7.65    0.14
   4   2  -5  109.45    1.24
   6   2  -5   16.15    0.25
   8   2  -5   12.48    0.26
  10   2  -5   85.95    1.18
  12   2  -5   93.30    1.30
  14   2  -5    7.66    0.27
  16   2  -5    1.86    0.16
  18   2  -5  178.80    2.91
  20   2  -5    1.73    0.17
  22   2  -5   13.27    0.43
  24   2  -5   15.82    0.49
 -21   3  -5    0.98    0.16
 -19   3  -5    1.35    0.18
 -17   3  -5    0.69    0.12
 -15   3  -5    2.38    0.21
 -13   3  -5    0.87    0.13
 -11   3  -5    0.60    0.10
  -9   3  -5    2.39    0.16
  -7   3  -5    0.34    0.07
  -5   3  -5    1.99    0.13
  -3   3  -5    1.17    0.11
  -1   3  -5    2.66    0.10
   1   3  -5    4.93    0.14
   3   3  -5    5.99    0.16
   5   3  -5    6.33    0.17
   7   3  -5    5.72    0.17
   9   3  -5    2.75    0.12
  11   3  -5    0.91    0.09
  13   3  -5    3.76    0.16
  15   3  -5    0.85    0.12
  17   3  -5    0.62    0.11
  19   3  -5    0.30    0.09
  21   3  -5    0.20    0.08
  23   3  -5    0.65    0.14
 -20   4  -5   16.04    0.56
 -18   4  -5   19.30    0.61
 -16   4  -5   21.42    0.62
 -14   4  -5   20.64    0.58
 -12   4  -5    0.55    0.10
 -10   4  -5  248.65    3.89
  -8   4  -5    1.88    0.16
  -6   4  -5   19.38    0.49
  -4   4  -5   64.98    1.19
  -2   4  -5   71.03    1.01
   0   4  -5   27.29    0.46
   2   4  -5    3.50    0.13
   4   4  -5   55.33    0.84
   6   4  -5    1.67    0.11
   8   4  -5   24.82    0.45
  10   4  -5   41.46    0.82
  12   4  -5   50.37    0.80
  14   4  -5    8.99    0.34
  16   4  -5    0.58    0.11
  18   4  -5  119.37    2.10
  20   4  -5    0.16    0.08
  22   4  -5   11.92    0.73
 -19   5  -5    1.27    0.20
 -17   5  -5   42.81    1.01
 -15   5  -5    1.49    0.19
 -13   5  -5   11.97    0.44
 -11   5  -5   38.37    0.87
  -9   5  -5   46.42    0.98
  -7   5  -5   13.27    0.42
  -5   5  -5    2.75    0.21
  -3   5  -5  279.17    3.56
  -1   5  -5    5.88    0.19
   1   5  -5    8.87    0.24
   3   5  -5   73.58    1.05
   5   5  -5   92.93    1.29
   7   5  -5    9.34    0.25
   9   5  -5    1.96    0.25
  11   5  -5   68.16    1.25
  13   5  -5    9.65    0.36
  15   5  -5   12.57    0.43
  17   5  -5   25.70    0.69
  19   5  -5   16.88    0.55
  21   5  -5    4.16    0.48
 -18   6  -5    3.64    0.45
 -16   6  -5    3.83    0.46
 -14   6  -5    2.99    0.30
 -12   6  -5    1.33    0.18
 -10   6  -5    2.97    0.24
  -8   6  -5    4.60    0.25
  -6   6  -5    0.42    0.10
  -4   6  -5    3.55    0.21
  -2   6  -5    3.39    0.20
   0   6  -5    4.99    0.23
   2   6  -5    9.81    0.27
   4   6  -5    1.59    0.16
   6   6  -5   11.32    0.37
   8   6  -5    9.21    0.34
  10   6  -5    4.08    0.23
  12   6  -5    7.07    0.32
  14   6  -5    3.46    0.27
  16   6  -5    1.22    0.17
  18   6  -5    0.72    0.14
  20   6  -5    1.40    0.31
 -15   7  -5    0.90    0.25
 -13   7  -5   15.92    0.81
 -11   7  -5   12.88    0.70
  -9   7  -5   15.72    0.74
  -7   7  -5   12.93    0.45
  -5   7  -5    0.23    0.08
  -3   7  -5  106.70    1.92
  -1   7  -5    0.70    0.16
   1   7  -5   15.06    0.67
   3   7  -5   19.44    0.78
   5   7  -5   23.64    0.89
   7   7  -5   20.18    0.56
   9   7  -5    1.14    0.23
  11   7  -5   28.78    0.73
  13   7  -5    0.29    0.10
  15   7  -5   11.89    0.46
  17   7  -5    9.41    0.63
 -14   8  -5    6.35    0.55
 -12   8  -5   -0.10    0.13
 -10   8  -5   91.56    2.48
   2   8  -5    3.30    0.38
   4   8  -5   16.97    0.78
   6   8  -5    5.89    0.43
   8   8  -5    0.79    0.20
  10   8  -5   22.03    0.91
  12   8  -5   24.32    0.99
  14   8  -5    3.52    0.40
  -2 -10  -4    9.43    0.64
   0 -10  -4   10.93    0.68
  -9  -9  -4   16.55    0.87
  -7  -9  -4   21.59    0.98
  -5  -9  -4    9.39    0.60
  -3  -9  -4    0.29    0.15
  -1  -9  -4   70.18    1.99
   1  -9  -4    0.39    0.18
   9  -9  -4    9.03    0.66
 -14  -8  -4    1.86    0.35
 -12  -8  -4    9.15    0.61
 -10  -8  -4    5.23    0.45
  -8  -8  -4    0.38    0.17
  -6  -8  -4    4.78    0.41
  -4  -8  -4   16.19    0.76
  -2  -8  -4    1.95    0.29
   0  -8  -4    4.75    0.38
   2  -8  -4    6.11    0.42
   6  -8  -4   21.24    0.97
   8  -8  -4    1.92    0.32
  10  -8  -4    7.47    0.57
  12  -8  -4    2.34    0.38
  14  -8  -4    1.27    0.30
 -17  -7  -4    3.52    0.43
 -15  -7  -4   13.51    0.74
 -13  -7  -4    2.99    0.39
 -11  -7  -4    1.23    0.25
  -9  -7  -4   26.39    1.03
  -7  -7  -4   29.36    1.06
  -5  -7  -4    4.61    0.37
  -3  -7  -4    4.15    0.34
  -1  -7  -4   64.58    1.76
   1  -7  -4    9.13    0.49
   3  -7  -4    5.19    0.34
   5  -7  -4   15.61    0.48
   7  -7  -4   13.71    0.70
   9  -7  -4    0.53    0.17
  11  -7  -4    3.86    0.43
  13  -7  -4   27.84    1.15
  15  -7  -4    5.35    0.54
  17  -7  -4    1.04    0.27
 -20  -6  -4    0.35    0.19
 -18  -6  -4    3.87    0.44
 -16  -6  -4   25.60    1.03
 -14  -6  -4   30.02    1.12
 -12  -6  -4    8.18    0.51
 -10  -6  -4    2.04    0.28
  -8  -6  -4   21.06    0.82
  -6  -6  -4    1.38    0.23
  -4  -6  -4   24.25    0.87
  -2  -6  -4   63.55    1.71
   0  -6  -4   64.78    1.70
   2  -6  -4   20.69    0.72
   4  -6  -4    0.62    0.10
   6  -6  -4  320.28    4.99
   8  -6  -4    0.15    0.11
  10  -6  -4   21.27    0.89
  12  -6  -4   32.72    1.18
  14  -6  -4   39.54    1.36
  16  -6  -4   14.02    0.75
  18  -6  -4    0.08    0.14
  20  -6  -4    7.46    0.66
 -19  -5  -4    3.46    0.20
 -17  -5  -4    0.97    0.12
 -15  -5  -4   18.18    0.78
 -13  -5  -4    0.81    0.19
 -11  -5  -4   16.31    0.70
  -9  -5  -4    8.12    0.45
  -7  -5  -4    7.38    0.42
  -5  -5  -4   24.13    0.83
  -3  -5  -4    3.05    0.25
  -1  -5  -4   59.56    1.53
   1  -5  -4    4.83    0.28
   3  -5  -4   12.45    0.56
   5  -5  -4   14.15    0.39
   7  -5  -4   12.00    0.35
   9  -5  -4    9.93    0.52
  11  -5  -4    5.19    0.38
  13  -5  -4   21.19    0.87
  15  -5  -4    2.20    0.32
  17  -5  -4   10.16    0.61
  19  -5  -4    2.20    0.35
  21  -5  -4    4.05    0.49
 -20  -4  -4    1.52    0.21
 -18  -4  -4    1.63    0.16
 -16  -4  -4   17.12    0.45
 -14  -4  -4   22.08    0.51
 -12  -4  -4    0.02    0.04
 -10  -4  -4    9.23    0.46
  -8  -4  -4   18.47    0.67
  -6  -4  -4   12.62    0.51
  -4  -4  -4    1.39    0.18
  -2  -4  -4   54.57    1.41
   0  -4  -4   54.73    1.39
   2  -4  -4    6.85    0.24
   4  -4  -4    3.35    0.16
   6  -4  -4  196.91    3.05
   8  -4  -4    3.28    0.15
  10  -4  -4    6.24    0.38
  12  -4  -4   25.97    0.93
  14  -4  -4   30.89    1.06
  16  -4  -4    1.54    0.26
  18  -4  -4    0.92    0.21
  20  -4  -4    4.92    0.50
  22  -4  -4    4.49    0.49
 -21  -3  -4   27.97    0.94
 -19  -3  -4    9.32    0.46
 -17  -3  -4    3.48    0.19
 -15  -3  -4  127.75    2.16
 -13  -3  -4    2.57    0.16
 -11  -3  -4   21.52    0.47
  -9  -3  -4  112.87    1.84
  -7  -3  -4  127.02    1.98
  -5  -3  -4   41.18    0.72
  -3  -3  -4    3.84    0.13
  -1  -3  -4  558.90    8.33
   1  -3  -4    6.62    0.16
   3  -3  -4   51.59    0.91
   5  -3  -4  151.82    2.36
   7  -3  -4  129.56    2.03
   9  -3  -4   27.33    0.86
  11  -3  -4    4.15    0.30
  13  -3  -4  202.94    4.78
  15  -3  -4    3.43    0.30
  17  -3  -4   11.41    0.61
  19  -3  -4   33.21    1.19
  21  -3  -4   43.20    1.49
  23  -3  -4    6.71    0.55
 -22  -2  -4   29.71    1.02
 -20  -2  -4    0.53    0.15
 -18  -2  -4    1.70    0.23
 -16  -2  -4   14.15    0.40
 -14  -2  -4   14.97    0.33
 -12  -2  -4    9.19    0.23
 -10  -2  -4    1.77    0.10
  -8  -2  -4   11.70    0.19
  -6  -2  -4    0.80    0.08
  -4  -2  -4   26.90    0.51
  -2  -2  -4   37.39    0.66
   0  -2  -4   47.77    0.66
   2  -2  -4   12.31    0.28
   4  -2  -4    1.89    0.08
   6  -2  -4  226.00    3.41
   8  -2  -4    0.89    0.14
  10  -2  -4   14.61    0.55
  12  -2  -4   17.09    0.66
  14  -2  -4   15.33    0.65
  16  -2  -4   12.47    0.60
  18  -2  -4    0.80    0.19
  20  -2  -4    2.61    0.34
  22  -2  -4    0.63    0.20
  24  -2  -4    2.32    0.38
 -23  -1  -4    5.88    0.41
 -21  -1  -4    9.03    0.49
 -19  -1  -4    1.76    0.23
 -17  -1  -4    1.67    0.21
 -15  -1  -4   42.65    0.85
 -13  -1  -4    1.88    0.11
 -11  -1  -4    4.20    0.14
  -9  -1  -4   46.32    0.59
  -7  -1  -4   54.50    0.65
  -5  -1  -4    9.45    0.25
  -3  -1  -4    3.43    0.19
  -1  -1  -4  234.67    3.53
   1  -1  -4    5.57    0.13
   3  -1  -4   15.39    0.33
   5  -1  -4   61.84    1.04
   7  -1  -4   51.15    0.89
   9  -1  -4    6.95    0.32
  11  -1  -4    2.05    0.22
  13  -1  -4   74.93    1.91
  15  -1  -4    2.45    0.28
  17  -1  -4    2.03    0.27
  19  -1  -4   11.13    0.60
  21  -1  -4   15.90    0.78
  23  -1  -4    1.65    0.30
  25  -1  -4    0.43    0.22
 -22   0  -4  148.49    2.55
 -20   0  -4    2.34    0.22
 -18   0  -4    4.63    0.24
 -16   0  -4   70.21    1.30
 -14   0  -4   88.82    1.24
 -12   0  -4   17.47    0.34
 -10   0  -4    8.80    0.21
  -8   0  -4   76.46    1.03
  -6   0  -4    7.19    0.14
  -4   0  -4   63.08    0.72
  -2   0  -4  242.02    3.63
   0   0  -4  259.91    3.90
   2   0  -4   40.47    0.92
   4   0  -4   12.49    0.28
   6   0  -4 1000.00   21.29
   8   0  -4    6.44    0.21
  10   0  -4   46.49    1.22
  12   0  -4  103.83    1.34
  14   0  -4  106.40    1.74
  16   0  -4   32.20    0.66
  18   0  -4    0.64    0.09
  20   0  -4   18.48    0.48
  22   0  -4    4.67    0.49
  24   0  -4    6.14    0.52
 -25   1  -4    1.97    0.36
 -23   1  -4    5.49    0.31
 -21   1  -4    9.56    0.39
 -19   1  -4    2.30    0.21
 -17   1  -4    1.92    0.19
 -15   1  -4   41.89    0.89
 -13   1  -4    1.98    0.17
 -11   1  -4    3.84    0.18
  -9   1  -4   47.16    0.86
  -7   1  -4   54.69    0.95
  -5   1  -4    9.82    0.25
  -3   1  -4    3.93    0.13
  -1   1  -4  237.09    2.89
   1   1  -4    5.60    0.12
   3   1  -4   16.03    0.21
   5   1  -4   61.50    0.70
   7   1  -4   50.12    0.68
   9   1  -4    6.61    0.14
  11   1  -4    1.87    0.12
  13   1  -4   73.50    1.28
  15   1  -4    2.32    0.15
  17   1  -4    2.16    0.15
  19   1  -4   10.96    0.36
  21   1  -4   15.48    0.46
  23   1  -4    1.45    0.16
  25   1  -4    0.12    0.08
 -24   2  -4    0.09    0.16
 -22   2  -4   29.26    0.79
 -20   2  -4    0.63    0.13
 -18   2  -4    2.03    0.20
 -16   2  -4   14.01    0.44
 -14   2  -4   14.77    0.43
 -12   2  -4    9.04    0.31
 -10   2  -4    1.71    0.14
  -8   2  -4   11.34    0.32
  -6   2  -4    0.83    0.09
  -4   2  -4   26.28    0.53
  -2   2  -4   37.87    0.68
   0   2  -4   47.42    0.65
   2   2  -4   11.93    0.22
   4   2  -4    1.80    0.07
   6   2  -4  225.68    2.79
   8   2  -4    0.35    0.05
  10   2  -4   14.09    0.29
  12   2  -4   17.86    0.44
  14   2  -4   16.08    0.42
  16   2  -4   12.48    0.38
  18   2  -4    0.78    0.12
  20   2  -4    3.06    0.21
  22   2  -4    0.49    0.11
  24   2  -4    2.34    0.22
 -23   3  -4   16.78    0.59
 -21   3  -4   27.52    0.76
 -19   3  -4    9.89    0.40
 -17   3  -4    3.29    0.26
 -15   3  -4  127.89    2.25
 -13   3  -4    2.67    0.20
 -11   3  -4   23.05    0.54
  -9   3  -4  113.98    1.90
  -7   3  -4  124.49    2.04
  -5   3  -4   40.69    0.78
  -3   3  -4    4.28    0.17
  -1   3  -4  549.51    6.65
   1   3  -4    6.83    0.17
   3   3  -4   50.92    0.73
   5   3  -4  149.88    1.93
   7   3  -4  129.26    2.05
   9   3  -4   26.94    0.46
  11   3  -4    3.86    0.15
  13   3  -4  204.27    3.34
  15   3  -4    3.59    0.21
  17   3  -4   11.49    0.39
  19   3  -4   31.04    0.76
  21   3  -4   44.83    0.99
  23   3  -4    7.29    0.34
 -22   4  -4   30.91    1.27
 -20   4  -4    1.07    0.18
 -18   4  -4    1.43    0.19
 -16   4  -4   15.89    0.51
 -14   4  -4   20.52    0.57
 -12   4  -4    0.05    0.06
 -10   4  -4    9.57    0.33
  -8   4  -4   18.01    0.46
  -6   4  -4   12.61    0.36
  -4   4  -4    1.85    0.22
  -2   4  -4   54.61    0.80
   0   4  -4   54.49    0.80
   2   4  -4    6.70    0.18
   4   4  -4    3.47    0.13
   6   4  -4  195.26    2.49
   8   4  -4    3.07    0.13
  10   4  -4    6.41    0.20
  12   4  -4   26.68    0.62
  14   4  -4   30.34    0.71
  16   4  -4    1.34    0.16
  18   4  -4    1.16    0.16
  20   4  -4    5.20    0.30
  22   4  -4    5.03    0.31
 -19   5  -4    3.06    0.41
 -17   5  -4    1.19    0.27
 -15   5  -4   18.08    0.61
 -13   5  -4    1.01    0.15
 -11   5  -4   16.94    0.50
  -9   5  -4    7.92    0.31
  -7   5  -4    7.92    0.30
  -5   5  -4   23.81    0.82
  -3   5  -4    3.04    0.13
  -1   5  -4   59.43    0.88
   1   5  -4    4.53    0.16
   3   5  -4   11.89    0.28
   5   5  -4   13.96    0.31
   7   5  -4   12.38    0.30
   9   5  -4   10.46    0.35
  11   5  -4    4.53    0.23
  13   5  -4   20.73    0.58
  15   5  -4    2.09    0.20
  17   5  -4    9.63    0.39
  19   5  -4    2.23    0.22
  21   5  -4    4.37    0.30
 -18   6  -4    4.10    0.48
 -16   6  -4   26.61    1.09
 -14   6  -4   31.41    1.17
 -12   6  -4    8.45    0.53
 -10   6  -4    1.92    0.27
  -8   6  -4   21.10    0.56
  -6   6  -4    1.67    0.17
  -4   6  -4   24.68    0.48
  -2   6  -4   64.20    0.97
   0   6  -4   63.80    0.97
   2   6  -4   20.31    0.42
   4   6  -4    0.59    0.10
   6   6  -4  316.79    7.05
   8   6  -4    0.36    0.10
  10   6  -4   21.94    0.59
  12   6  -4   33.40    0.79
  14   6  -4   38.25    0.90
  16   6  -4   13.90    0.49
  18   6  -4    0.26    0.10
  20   6  -4    8.97    0.63
 -17   7  -4    5.05    0.55
 -15   7  -4   14.33    0.78
 -13   7  -4    2.69    0.37
 -11   7  -4    1.13    0.24
  -9   7  -4   28.39    1.03
  -7   7  -4   28.39    1.02
  -5   7  -4    4.64    0.30
  -3   7  -4    4.51    0.24
  -1   7  -4   64.93    1.23
   1   7  -4   10.07    0.36
   3   7  -4    5.33    0.26
   5   7  -4   16.12    0.69
   7   7  -4   12.90    0.44
   9   7  -4    0.86    0.14
  11   7  -4    3.67    0.28
  13   7  -4   28.06    0.76
  15   7  -4    5.05    0.30
  17   7  -4    0.78    0.16
  19   7  -4    8.68    1.06
 -14   8  -4    2.39    0.38
 -12   8  -4    9.44    0.61
 -10   8  -4    5.81    0.46
   4   8  -4    1.61    0.27
   6   8  -4   22.63    0.89
   8   8  -4    2.30    0.32
  10   8  -4    7.36    0.36
  12   8  -4    2.17    0.23
  14   8  -4    1.96    0.24
  16   8  -4    9.33    0.66
  -4 -10  -3    1.39    0.31
  -2 -10  -3    7.73    0.58
   0 -10  -3    6.16    0.51
  -9  -9  -3    0.22    0.16
  -7  -9  -3    3.38    0.43
  -5  -9  -3    2.78    0.38
  -3  -9  -3    3.89    0.46
  -1  -9  -3    8.92    0.57
   1  -9  -3    1.11    0.25
   3  -9  -3    8.69    0.54
   9  -9  -3    6.07    0.62
  11  -9  -3    2.85    0.43
 -14  -8  -3   13.49    0.77
 -12  -8  -3   16.67    0.84
 -10  -8  -3    9.85    0.62
  -8  -8  -3    1.96    0.31
  -6  -8  -3  110.94    2.93
  -4  -8  -3    1.19    0.24
  -2  -8  -3    5.89    0.44
   0  -8  -3   36.92    1.24
   2  -8  -3   44.81    1.38
   6  -8  -3    2.09    0.34
   8  -8  -3   31.38    1.18
  10  -8  -3    6.61    0.53
  12  -8  -3    7.29    0.55
  14  -8  -3   14.51    0.82
 -17  -7  -3   11.64    0.68
 -15  -7  -3    0.77    0.21
 -13  -7  -3   83.09    2.36
 -11  -7  -3    1.23    0.25
  -9  -7  -3   12.39    0.64
  -7  -7  -3   21.74    0.88
  -5  -7  -3   22.61    0.89
  -3  -7  -3   19.96    0.79
  -1  -7  -3    1.98    0.26
   1  -7  -3   24.08    0.90
   3  -7  -3    1.15    0.20
   5  -7  -3   21.61    0.57
   7  -7  -3   21.29    0.89
   9  -7  -3   24.62    0.99
  11  -7  -3   10.86    0.63
  13  -7  -3    0.66    0.20
  15  -7  -3   74.54    2.20
  17  -7  -3    0.09    0.15
 -20  -6  -3    1.05    0.26
 -18  -6  -3    3.20    0.39
 -16  -6  -3    1.72    0.30
 -14  -6  -3    1.20    0.23
 -12  -6  -3    4.06    0.35
 -10  -6  -3    0.29    0.12
  -8  -6  -3    4.20    0.33
  -6  -6  -3    2.64    0.30
  -4  -6  -3    4.41    0.32
  -2  -6  -3    9.52    0.47
   0  -6  -3   11.39    0.50
   2  -6  -3   11.23    0.37
   4  -6  -3   12.88    0.39
   6  -6  -3    8.33    0.30
   8  -6  -3    1.29    0.22
  10  -6  -3   11.16    0.60
  12  -6  -3    2.24    0.31
  14  -6  -3    2.52    0.34
  16  -6  -3    1.71    0.30
  18  -6  -3    0.30    0.18
  20  -6  -3    2.01    0.36
 -19  -5  -3   23.64    0.61
 -17  -5  -3   10.63    0.36
 -15  -5  -3    0.19    0.07
 -13  -5  -3  211.26    3.31
 -11  -5  -3    2.56    0.14
  -9  -5  -3   14.59    0.62
  -7  -5  -3   61.90    1.67
  -5  -5  -3   76.88    1.97
  -3  -5  -3    8.96    0.43
  -1  -5  -3    9.35    0.43
   1  -5  -3   80.53    1.44
   3  -5  -3   14.14    0.60
   5  -5  -3    4.39    0.19
   7  -5  -3   77.81    1.37
   9  -5  -3   81.31    2.17
  11  -5  -3    8.21    0.47
  13  -5  -3    1.65    0.25
  15  -5  -3  172.90    4.11
  17  -5  -3    2.18    0.32
  19  -5  -3   14.01    0.75
  21  -5  -3   17.91    0.90
 -22  -4  -3    0.77    0.20
 -20  -4  -3   29.91    0.95
 -18  -4  -3    0.86    0.12
 -16  -4  -3   22.14    0.56
 -14  -4  -3   33.31    0.71
 -12  -4  -3   44.91    0.87
 -10  -4  -3   22.32    0.50
  -8  -4  -3    0.91    0.16
  -6  -4  -3  359.51    7.75
  -4  -4  -3    1.79    0.21
  -2  -4  -3   31.99    0.91
   0  -4  -3   86.17    2.02
   2  -4  -3   92.63    1.54
   4  -4  -3   43.37    0.81
   6  -4  -3    0.97    0.09
   8  -4  -3  102.21    1.64
  10  -4  -3    1.89    0.25
  12  -4  -3   21.42    0.80
  14  -4  -3   41.27    1.30
  16  -4  -3   33.50    1.15
  18  -4  -3    7.30    0.51
  20  -4  -3    1.92    0.32
  22  -4  -3   70.31    2.19
 -23  -3  -3    0.64    0.21
 -21  -3  -3    1.17    0.21
 -19  -3  -3    1.61    0.23
 -17  -3  -3    1.38    0.15
 -15  -3  -3    0.73    0.10
 -13  -3  -3    1.61    0.14
 -11  -3  -3    2.46    0.14
  -9  -3  -3    0.20    0.03
  -7  -3  -3    2.50    0.08
  -5  -3  -3    2.16    0.17
  -3  -3  -3    4.01    0.11
  -1  -3  -3    9.63    0.22
   1  -3  -3    1.84    0.10
   3  -3  -3    9.47    0.25
   5  -3  -3    8.74    0.23
   7  -3  -3    4.45    0.15
   9  -3  -3    6.59    0.35
  13  -3  -3    0.82    0.17
  15  -3  -3    0.40    0.13
  17  -3  -3    0.71    0.18
  19  -3  -3    0.16    0.11
  21  -3  -3    0.86    0.23
  23  -3  -3    0.08    0.15
 -22  -2  -3    1.47    0.24
 -20  -2  -3   50.53    1.40
 -18  -2  -3    0.58    0.14
 -16  -2  -3   19.26    0.40
 -14  -2  -3   60.80    0.90
 -12  -2  -3   81.86    1.12
 -10  -2  -3   23.88    0.41
  -8  -2  -3    6.03    0.12
  -6  -2  -3  589.20    6.26
  -4  -2  -3   14.77    0.30
  -2  -2  -3   22.80    0.41
   0  -2  -3  198.59    2.44
   2  -2  -3  225.04    4.82
   4  -2  -3   28.71    0.52
   6  -2  -3    7.15    0.18
   8  -2  -3  189.70    4.03
  10  -2  -3   14.79    0.55
  12  -2  -3   20.60    0.72
  14  -2  -3   74.46    1.94
  16  -2  -3   52.26    1.53
  18  -2  -3    7.84    0.48
  20  -2  -3    1.60    0.28
  22  -2  -3  107.34    2.89
  24  -2  -3    0.10    0.15
 -23  -1  -3   13.11    0.64
 -21  -1  -3   28.21    0.99
 -19  -1  -3   28.59    0.94
 -17  -1  -3   23.09    0.77
 -15  -1  -3    0.06    0.03
 -13  -1  -3  367.07    5.52
 -11  -1  -3    5.25    0.16
  -9  -1  -3   21.27    0.37
  -7  -1  -3  143.16    1.57
  -5  -1  -3  176.37    1.86
  -3  -1  -3   33.00    0.57
  -1  -1  -3    9.51    0.31
   1  -1  -3  183.66    2.79
   3  -1  -3   11.52    0.20
   5  -1  -3   35.99    0.65
   7  -1  -3  140.76    3.13
   9  -1  -3  150.73    3.32
  11  -1  -3   16.54    0.60
  13  -1  -3    3.20    0.10
  15  -1  -3  317.15    4.75
  17  -1  -3    1.55    0.13
  19  -1  -3   20.87    0.50
  21  -1  -3   27.70    1.07
  23  -1  -3   18.62    0.91
  25  -1  -3   10.85    0.71
 -24   0  -3    0.06    0.09
 -22   0  -3   -0.02    0.07
 -20   0  -3    0.16    0.07
 -18   0  -3   -0.02    0.05
 -16   0  -3    0.04    0.05
 -14   0  -3    0.04    0.03
 -12   0  -3    0.19    0.03
 -10   0  -3    0.00    0.02
  -8   0  -3    0.07    0.02
  -6   0  -3    0.05    0.02
  -4   0  -3    0.04    0.01
  -2   0  -3    0.11    0.01
   0   0  -3    0.05    0.02
   4   0  -3    0.03    0.02
   6   0  -3    0.07    0.03
   8   0  -3    0.09    0.02
  10   0  -3    0.02    0.02
  12   0  -3    0.04    0.03
  14   0  -3    0.13    0.04
  16   0  -3    0.07    0.04
  18   0  -3   -0.02    0.04
  20   0  -3   -0.02    0.04
  22   0  -3   -0.01    0.05
  24   0  -3    0.02    0.06
 -25   1  -3   -0.03    0.15
 -23   1  -3   13.90    0.50
 -21   1  -3   29.78    0.76
 -19   1  -3   28.27    0.70
 -17   1  -3   21.64    0.57
 -15   1  -3    0.22    0.07
 -13   1  -3  370.19    5.58
 -11   1  -3    5.61    0.21
  -9   1  -3   21.74    0.47
  -7   1  -3  148.35    2.26
  -5   1  -3  171.53    2.67
  -3   1  -3   32.33    0.57
  -1   1  -3   10.29    0.29
   1   1  -3  183.53    1.98
   3   1  -3   11.22    0.16
   5   1  -3   36.75    0.51
   7   1  -3  142.87    1.55
   9   1  -3  147.99    1.88
  11   1  -3   16.15    0.39
  13   1  -3    3.67    0.17
  15   1  -3  304.95    4.78
  17   1  -3    1.51    0.15
  19   1  -3   20.64    0.54
  21   1  -3   26.26    0.67
  23   1  -3   21.07    0.58
  25   1  -3   11.72    0.73
 -24   2  -3    3.83    0.32
 -22   2  -3    1.90    0.22
 -20   2  -3   50.44    1.06
 -18   2  -3    0.47    0.10
 -16   2  -3   19.59    0.53
 -14   2  -3   60.19    1.15
 -12   2  -3   80.20    1.42
 -10   2  -3   25.18    0.55
  -8   2  -3    5.95    0.21
  -6   2  -3  573.09    8.85
  -4   2  -3   13.97    0.32
  -2   2  -3   21.89    0.44
   0   2  -3  199.17    2.44
   2   2  -3  224.02    2.76
   4   2  -3   28.42    0.43
   6   2  -3    7.13    0.17
   8   2  -3  186.51    2.29
  10   2  -3   14.56    0.29
  12   2  -3   21.26    0.49
  14   2  -3   73.91    1.33
  16   2  -3   52.22    1.03
  18   2  -3    7.96    0.31
  20   2  -3    1.80    0.18
  22   2  -3  105.62    1.94
  24   2  -3    0.14    0.08
 -23   3  -3    0.64    0.23
 -21   3  -3    0.84    0.24
 -19   3  -3    1.65    0.20
 -17   3  -3    1.78    0.19
 -15   3  -3    0.65    0.11
 -13   3  -3    1.38    0.15
 -11   3  -3    2.93    0.18
  -9   3  -3    0.30    0.07
  -7   3  -3    2.41    0.14
  -5   3  -3    2.67    0.13
  -3   3  -3    3.99    0.16
  -1   3  -3    9.36    0.24
   1   3  -3    2.00    0.08
   3   3  -3    9.85    0.21
   5   3  -3    8.57    0.24
   7   3  -3    4.48    0.14
   9   3  -3    6.43    0.18
  11   3  -3    2.90    0.16
  13   3  -3    0.92    0.12
  15   3  -3    0.85    0.11
  17   3  -3    0.77    0.12
  19   3  -3    0.18    0.08
  21   3  -3    0.74    0.13
  23   3  -3    0.32    0.10
 -22   4  -3    0.98    0.27
 -20   4  -3   30.87    1.17
 -18   4  -3    0.82    0.22
 -16   4  -3   23.30    0.67
 -14   4  -3   32.40    0.76
 -12   4  -3   45.05    0.93
 -10   4  -3   22.34    0.55
  -8   4  -3    0.95    0.12
  -6   4  -3  354.84    5.47
  -4   4  -3    1.81    0.14
  -2   4  -3   32.18    0.64
   0   4  -3   85.62    1.17
   2   4  -3   92.14    1.24
   4   4  -3   44.89    0.80
   6   4  -3    0.93    0.08
   8   4  -3  103.85    1.36
  10   4  -3    1.96    0.11
  12   4  -3   22.02    0.55
  14   4  -3   40.61    0.88
  16   4  -3   32.88    0.78
  18   4  -3    7.96    0.34
  20   4  -3    1.55    0.18
  22   4  -3   71.18    1.48
 -21   5  -3   22.43    1.06
 -19   5  -3   23.46    1.03
 -17   5  -3    9.93    0.61
 -15   5  -3    0.03    0.10
 -13   5  -3  212.64    4.88
 -11   5  -3    2.18    0.19
  -9   5  -3   15.40    0.64
  -7   5  -3   61.39    1.16
  -5   5  -3   78.60    1.37
  -3   5  -3    8.59    0.29
  -1   5  -3    9.49    0.24
   1   5  -3   78.94    1.14
   3   5  -3   14.85    0.37
   5   5  -3    4.67    0.16
   7   5  -3   80.25    1.42
   9   5  -3   83.50    1.50
  11   5  -3    8.22    0.32
  13   5  -3    1.88    0.18
  15   5  -3  173.53    2.87
  17   5  -3    2.53    0.24
  19   5  -3   12.67    0.47
  21   5  -3   17.58    0.59
 -18   6  -3    3.13    0.42
 -16   6  -3    1.23    0.27
 -14   6  -3    0.86    0.22
 -12   6  -3    4.11    0.43
 -10   6  -3    0.54    0.15
  -8   6  -3    4.26    0.33
  -6   6  -3    2.83    0.30
  -4   6  -3    4.07    0.29
  -2   6  -3    9.48    0.31
   0   6  -3   11.13    0.34
   2   6  -3   11.64    0.37
   4   6  -3   12.89    0.40
   6   6  -3    8.70    0.32
   8   6  -3    1.47    0.16
  10   6  -3   11.39    0.40
  12   6  -3    2.38    0.22
  14   6  -3    2.31    0.23
  16   6  -3    1.30    0.18
  18   6  -3    0.33    0.12
  20   6  -3    1.91    0.22
 -17   7  -3   11.78    0.72
 -15   7  -3    1.16    0.27
 -13   7  -3   86.55    2.36
 -11   7  -3    1.27    0.24
  -9   7  -3   10.74    0.58
  -7   7  -3   22.96    0.84
  -5   7  -3   24.56    0.84
  -1   7  -3    1.60    0.23
   1   7  -3   25.93    0.94
   3   7  -3    1.09    0.21
   5   7  -3   20.61    0.82
   7   7  -3   20.59    0.58
   9   7  -3   24.17    0.66
  11   7  -3   10.42    0.41
  13   7  -3    0.40    0.12
  15   7  -3   75.22    1.50
  17   7  -3    0.07    0.10
  19   7  -3   10.84    0.82
 -16   8  -3    5.60    0.64
 -14   8  -3   14.75    0.78
 -12   8  -3   17.13    0.82
 -10   8  -3    9.19    0.68
  -6   8  -3  112.69    2.86
  -4   8  -3    1.68    0.26
  -2   8  -3    6.44    0.44
   0   8  -3   37.66    1.24
   2   8  -3   45.36    1.42
   4   8  -3    2.67    0.35
   6   8  -3    2.37    0.34
   8   8  -3   31.06    1.13
  10   8  -3    7.13    0.52
  12   8  -3    8.50    0.58
  14   8  -3   14.20    0.79
  16   8  -3   10.62    0.69
  -1   9  -3    7.91    0.54
   1   9  -3    0.84    0.22
   3   9  -3    9.08    0.58
   5   9  -3    7.95    0.55
   7   9  -3    3.66    0.43
   9   9  -3    6.54    0.52
  11   9  -3    3.21    0.43
  13   9  -3    1.75    0.33
  -4 -10  -2   21.35    1.00
  -2 -10  -2    5.37    0.56
   0 -10  -2    2.04    0.36
   2 -10  -2    6.01    0.61
 -11  -9  -2    7.23    0.57
  -9  -9  -2    0.05    0.14
  -7  -9  -2   10.65    0.67
  -5  -9  -2   19.83    0.92
  -3  -9  -2   20.14    0.91
  -1  -9  -2   12.79    0.69
   1  -9  -2    0.08    0.13
   3  -9  -2  120.28    3.06
   9  -9  -2   15.83    0.86
  11  -9  -2   17.89    0.91
 -14  -8  -2    9.67    0.64
 -12  -8  -2    2.70    0.38
 -10  -8  -2    2.32    0.34
  -8  -8  -2   14.69    0.75
  -6  -8  -2    4.29    0.46
  -4  -8  -2   13.42    0.68
  -2  -8  -2    4.96    0.40
   0  -8  -2    7.77    0.49
   2  -8  -2    4.29    0.35
   4  -8  -2    4.13    0.34
   6  -8  -2    7.87    0.55
   8  -8  -2    5.00    0.50
  10  -8  -2    8.50    0.58
  12  -8  -2    3.73    0.45
  14  -8  -2    9.92    0.67
  16  -8  -2    1.26    0.31
 -19  -7  -2    7.81    0.58
 -17  -7  -2    9.82    0.63
 -15  -7  -2    0.31    0.16
 -13  -7  -2    9.13    0.58
 -11  -7  -2    7.97    0.51
  -9  -7  -2    8.71    0.53
  -7  -7  -2    0.21    0.12
  -5  -7  -2   26.92    1.01
  -3  -7  -2   29.68    1.02
  -1  -7  -2    6.27    0.40
   1  -7  -2    2.54    0.29
   3  -7  -2  107.67    2.63
   5  -7  -2    2.54    0.21
   7  -7  -2    5.97    0.44
   9  -7  -2   21.40    0.89
  11  -7  -2   23.36    0.97
  13  -7  -2    0.50    0.20
  15  -7  -2    3.51    0.44
  17  -7  -2    3.78    0.47
  19  -7  -2    6.23    0.87
 -18  -6  -2   53.32    1.12
 -16  -6  -2    0.26    0.08
 -14  -6  -2   11.43    0.36
 -12  -6  -2   52.50    1.00
 -10  -6  -2   52.37    0.97
  -8  -6  -2   17.87    0.74
  -6  -6  -2    1.35    0.21
  -4  -6  -2  239.56    5.26
  -2  -6  -2    1.62    0.22
   0  -6  -2   32.00    0.99
   2  -6  -2   66.29    1.24
   4  -6  -2   60.94    1.70
   6  -6  -2   21.49    0.54
   8  -6  -2    0.91    0.18
  10  -6  -2  146.41    3.65
  12  -6  -2    1.92    0.29
  14  -6  -2   10.93    0.60
  16  -6  -2   27.08    1.07
  18  -6  -2   33.40    1.26
  20  -6  -2    7.13    0.57
 -21  -5  -2    1.81    0.25
 -19  -5  -2    6.75    0.30
 -17  -5  -2    4.83    0.25
 -15  -5  -2   10.19    0.35
 -13  -5  -2    4.04    0.20
 -11  -5  -2    2.28    0.15
  -9  -5  -2    5.04    0.20
  -7  -5  -2   28.48    0.57
  -5  -5  -2    9.50    0.44
  -3  -5  -2   18.73    0.66
  -1  -5  -2   15.01    0.56
   1  -5  -2    1.96    0.16
   3  -5  -2  107.72    2.70
   5  -5  -2    1.51    0.13
   7  -5  -2   14.94    0.38
   9  -5  -2   10.83    0.53
  11  -5  -2    6.69    0.41
  13  -5  -2   19.68    0.80
  15  -5  -2    3.55    0.38
  17  -5  -2    2.06    0.32
  19  -5  -2    2.19    0.34
  21  -5  -2    5.04    0.53
 -22  -4  -2    1.84    0.27
 -20  -4  -2    3.87    0.32
 -18  -4  -2   25.84    0.65
 -16  -4  -2    2.77    0.20
 -14  -4  -2    0.89    0.11
 -12  -4  -2   43.25    0.85
 -10  -4  -2   44.59    0.85
  -8  -4  -2    3.93    0.16
  -6  -4  -2    8.76    0.18
  -4  -4  -2  157.90    3.47
  -2  -4  -2   12.25    0.46
   0  -4  -2    8.12    0.34
   2  -4  -2   51.53    0.94
   4  -4  -2   46.60    1.15
   6  -4  -2    3.34    0.14
   8  -4  -2    6.34    0.20
  10  -4  -2   91.64    2.34
  12  -4  -2    7.52    0.42
  14  -4  -2    1.24    0.22
  16  -4  -2   20.72    0.85
  18  -4  -2   24.51    0.98
  20  -4  -2    1.00    0.23
  22  -4  -2    0.65    0.21
 -23  -3  -2    1.32    0.23
 -21  -3  -2    3.42    0.35
 -19  -3  -2   45.10    1.32
 -17  -3  -2   52.07    1.03
 -15  -3  -2   11.16    0.34
 -13  -3  -2    6.68    0.24
 -11  -3  -2   44.60    0.65
  -9  -3  -2    2.78    0.10
  -7  -3  -2   48.45    0.68
  -5  -3  -2  182.09    2.21
  -3  -3  -2  203.68    4.29
  -1  -3  -2   46.42    1.16
   1  -3  -2    7.93    0.22
   3  -3  -2  970.40   14.63
   5  -3  -2    5.50    0.17
   7  -3  -2   48.24    0.83
   9  -3  -2  125.52    1.95
  11  -3  -2  116.82    2.82
  13  -3  -2   34.18    1.07
  15  -3  -2    0.94    0.18
  17  -3  -2   22.28    0.86
  19  -3  -2    5.27    0.41
  21  -3  -2    6.93    0.51
  23  -3  -2   25.76    1.10
 -24  -2  -2    5.29    0.42
 -22  -2  -2    3.30    0.36
 -20  -2  -2    0.33    0.12
 -18  -2  -2   31.16    0.99
 -16  -2  -2    0.03    0.04
 -14  -2  -2   11.53    0.27
 -12  -2  -2   23.25    0.41
 -10  -2  -2   22.57    0.38
  -8  -2  -2   22.66    0.36
  -6  -2  -2    0.61    0.04
  -4  -2  -2  186.34    1.95
  -2  -2  -2    3.63    0.10
   0  -2  -2   19.93    0.30
   2  -2  -2   61.74    1.37
   4  -2  -2   55.01    0.89
   6  -2  -2   15.95    0.30
   8  -2  -2    3.74    0.22
  10  -2  -2   93.24    2.23
  12  -2  -2    0.49    0.05
  14  -2  -2   11.82    0.31
  16  -2  -2   10.04    0.29
  18  -2  -2   14.35    0.38
  20  -2  -2    5.37    0.23
  22  -2  -2   -0.01    0.10
  24  -2  -2   17.19    0.88
 -25  -1  -2   31.29    1.31
 -23  -1  -2    0.53    0.17
 -21  -1  -2    0.73    0.13
 -19  -1  -2   15.07    0.45
 -17  -1  -2   17.75    0.48
 -15  -1  -2    1.61    0.13
 -13  -1  -2    3.88    0.17
 -11  -1  -2   18.70    0.33
  -9  -1  -2    3.22    0.11
  -7  -1  -2   10.29    0.19
  -5  -1  -2   80.68    1.04
  -3  -1  -2   90.67    0.97
  -1  -1  -2   15.41    0.28
   1  -1  -2    5.53    0.20
   3  -1  -2  475.28    5.80
   5  -1  -2    4.31    0.19
   7  -1  -2   14.09    0.28
   9  -1  -2   51.85    0.70
  11  -1  -2   49.15    0.68
  13  -1  -2    7.30    0.23
  15  -1  -2    0.72    0.09
  17  -1  -2    8.20    0.28
  19  -1  -2    2.89    0.18
  21  -1  -2    1.37    0.14
  23  -1  -2    8.54    0.33
  25  -1  -2    6.83    0.30
 -24   0  -2   27.68    0.75
 -22   0  -2    9.78    0.40
 -20   0  -2    4.30    0.24
 -18   0  -2  144.71    2.49
 -16   0  -2    2.54    0.17
 -14   0  -2   24.18    0.42
 -12   0  -2  148.87    1.90
 -10   0  -2  152.96    1.94
  -8   0  -2   52.36    0.72
  -6   0  -2    9.62    0.18
  -4   0  -2  749.41    9.10
  -2   0  -2   16.75    0.21
   0   0  -2   77.45    1.64
   2   0  -2  326.44    4.93
   4   0  -2  295.68    3.16
   6   0  -2   48.65    0.63
   8   0  -2   11.06    0.20
  10   0  -2  463.65    7.06
  12   0  -2    6.91    0.22
  14   0  -2   23.43    0.53
  16   0  -2   67.33    1.21
  18   0  -2   80.66    1.46
  20   0  -2   12.10    0.40
  22   0  -2    0.54    0.11
  24   0  -2   77.31    1.47
 -25   1  -2   27.69    0.79
 -23   1  -2    0.64    0.14
 -21   1  -2    0.88    0.14
 -19   1  -2   15.48    0.47
 -17   1  -2   18.56    0.50
 -15   1  -2    1.48    0.15
 -13   1  -2    4.22    0.19
 -11   1  -2   19.03    0.44
  -9   1  -2    3.24    0.14
  -7   1  -2   10.21    0.38
  -5   1  -2   79.83    1.29
  -3   1  -2   89.18    1.96
  -1   1  -2   15.12    0.39
   1   1  -2    5.54    0.10
   3   1  -2  465.01    5.79
   5   1  -2    4.35    0.11
   7   1  -2   14.32    0.25
   9   1  -2   52.06    0.90
  11   1  -2   49.10    0.88
  13   1  -2    7.21    0.25
  15   1  -2    0.56    0.09
  17   1  -2    8.21    0.30
  19   1  -2    2.95    0.20
  21   1  -2    1.19    0.15
  23   1  -2    8.65    0.36
  25   1  -2    6.78    0.56
 -24   2  -2    5.85    0.58
 -22   2  -2    3.19    0.40
 -20   2  -2    0.37    0.10
 -18   2  -2   31.14    0.75
 -16   2  -2    0.03    0.05
 -14   2  -2   11.56    0.36
 -12   2  -2   23.00    0.54
 -10   2  -2   22.41    0.50
  -8   2  -2   22.53    0.47
  -6   2  -2    0.63    0.07
  -4   2  -2  183.07    2.80
  -2   2  -2    3.51    0.12
   0   2  -2   20.26    0.37
   2   2  -2   60.89    0.98
   4   2  -2   55.00    0.74
   6   2  -2   15.79    0.27
   8   2  -2    3.67    0.12
  10   2  -2   89.52    1.55
  12   2  -2    0.52    0.08
  14   2  -2   12.06    0.36
  16   2  -2   10.29    0.34
  18   2  -2   13.41    0.43
  20   2  -2    5.80    0.28
  22   2  -2    0.05    0.07
  24   2  -2   16.44    0.54
 -23   3  -2    0.71    0.22
 -21   3  -2    3.43    0.42
 -19   3  -2   43.64    1.45
 -17   3  -2   55.26    1.62
 -15   3  -2   10.73    0.37
 -13   3  -2    6.66    0.27
 -11   3  -2   44.30    0.86
  -9   3  -2    2.61    0.15
  -7   3  -2   48.08    0.87
  -5   3  -2  178.19    2.77
  -3   3  -2  193.94    3.02
  -1   3  -2   47.58    0.82
   1   3  -2    8.81    0.22
   3   3  -2  949.46   11.91
   5   3  -2    5.71    0.14
   7   3  -2   48.32    0.70
   9   3  -2  124.61    2.03
  11   3  -2  118.40    1.98
  13   3  -2   34.02    0.74
  15   3  -2    0.52    0.09
  17   3  -2   21.51    0.58
  19   3  -2    5.37    0.28
  21   3  -2    6.81    0.33
  23   3  -2   25.30    0.72
 -22   4  -2    2.39    0.37
 -20   4  -2    3.41    0.42
 -18   4  -2   26.17    1.04
 -16   4  -2    2.38    0.33
 -14   4  -2    0.94    0.20
 -12   4  -2   43.02    0.89
 -10   4  -2   44.43    0.88
  -8   4  -2    3.72    0.18
  -6   4  -2    9.24    0.28
  -4   4  -2  156.13    2.43
  -2   4  -2   11.69    0.43
   0   4  -2    7.80    0.19
   2   4  -2   52.26    0.75
   4   4  -2   46.52    0.68
   6   4  -2    3.20    0.11
   8   4  -2    6.55    0.18
  10   4  -2   92.70    1.63
  12   4  -2    7.13    0.28
  14   4  -2    1.00    0.13
  16   4  -2   21.35    0.58
  18   4  -2   24.32    0.66
  20   4  -2    1.21    0.16
  22   4  -2    0.67    0.14
 -21   5  -2    1.15    0.29
 -19   5  -2    6.32    0.51
 -17   5  -2    3.64    0.43
 -15   5  -2    9.84    0.57
 -13   5  -2    3.89    0.39
 -11   5  -2    2.15    0.28
  -9   5  -2    5.36    0.35
  -7   5  -2   28.34    0.64
  -5   5  -2    9.51    0.30
  -3   5  -2   18.11    0.44
  -1   5  -2   14.49    0.31
   1   5  -2    1.94    0.11
   3   5  -2  113.27    1.50
   5   5  -2    1.41    0.14
   7   5  -2   15.10    0.42
   9   5  -2   10.90    0.36
  11   5  -2    6.36    0.28
  13   5  -2   20.56    0.56
  15   5  -2    3.13    0.24
  17   5  -2    1.56    0.19
  19   5  -2    1.95    0.21
  21   5  -2    4.86    0.32
 -20   6  -2    1.11    0.28
 -18   6  -2   55.34    1.78
 -16   6  -2    0.14    0.14
 -14   6  -2   12.50    0.64
 -12   6  -2   52.20    1.55
 -10   6  -2   49.72    1.49
  -8   6  -2   19.56    0.73
  -6   6  -2    1.26    0.20
  -4   6  -2  241.80    5.16
  -2   6  -2    1.35    0.13
   0   6  -2   32.59    0.74
   2   6  -2   65.25    1.22
   4   6  -2   61.69    1.16
   6   6  -2   23.92    0.59
   8   6  -2    0.84    0.13
  10   6  -2  148.77    2.56
  12   6  -2    2.02    0.21
  14   6  -2    9.24    0.38
  16   6  -2   27.76    0.74
  18   6  -2   33.87    0.87
  20   6  -2    7.41    0.38
 -17   7  -2   10.23    0.65
 -15   7  -2    0.25    0.16
 -13   7  -2   10.06    0.59
  -9   7  -2    9.04    0.50
  -7   7  -2    0.20    0.11
  -5   7  -2   30.38    0.96
  -3   7  -2   28.34    1.00
  -1   7  -2    6.23    0.41
   1   7  -2    2.67    0.32
   3   7  -2  109.98    2.74
   5   7  -2    2.08    0.29
   7   7  -2    5.59    0.42
   9   7  -2   22.73    0.90
  11   7  -2   24.95    0.99
  13   7  -2    0.31    0.16
  15   7  -2    3.58    0.45
  17   7  -2    4.16    0.49
  19   7  -2    6.75    0.43
 -16   8  -2    2.09    0.36
 -14   8  -2    9.22    0.61
 -12   8  -2    3.14    0.39
  -6   8  -2    4.36    0.44
  -4   8  -2   14.76    0.69
  -2   8  -2    5.00    0.40
   0   8  -2    8.33    0.52
   2   8  -2    4.47    0.38
   4   8  -2    4.39    0.39
   6   8  -2    8.09    0.52
   8   8  -2    4.50    0.46
  10   8  -2    7.99    0.56
  12   8  -2    2.89    0.39
  14   8  -2   10.45    0.67
  16   8  -2    1.01    0.28
  -7   9  -2   10.15    0.63
  -5   9  -2   21.22    0.92
  -3   9  -2   19.86    0.90
  -1   9  -2   12.96    0.70
   1   9  -2    0.14    0.14
   3   9  -2  124.08    3.17
   5   9  -2   -0.03    0.12
   7   9  -2   13.44    0.73
   9   9  -2   15.68    0.82
  11   9  -2   17.40    0.89
  13   9  -2    8.43    0.64
  -2  10  -2    6.07    0.52
   0  10  -2    1.96    0.35
   2  10  -2    6.74    0.55
   4  10  -2    5.91    0.51
   6  10  -2    0.59    0.22
   8  10  -2    3.57    0.54
  -4 -10  -1    0.73    0.25
  -2 -10  -1    7.79    0.59
   0 -10  -1    1.49    0.31
   2 -10  -1    9.93    0.64
 -11  -9  -1    3.27    0.43
  -9  -9  -1    2.43    0.38
  -7  -9  -1    3.72    0.45
  -5  -9  -1    5.69    0.47
  -3  -9  -1    7.91    0.55
  -1  -9  -1    7.00    0.50
   1  -9  -1    9.04    0.57
   3  -9  -1    6.86    0.48
   9  -9  -1    1.59    0.33
  11  -9  -1    2.14    0.37
  13  -9  -1    1.38    0.32
 -16  -8  -1   69.90    2.12
 -14  -8  -1    0.87    0.25
 -12  -8  -1    7.10    0.54
 -10  -8  -1   18.77    0.87
  -8  -8  -1   22.26    0.95
  -6  -8  -1    5.97    0.45
  -4  -8  -1    6.86    0.48
  -2  -8  -1   29.32    1.10
   0  -8  -1    5.74    0.42
   2  -8  -1    1.69    0.26
   4  -8  -1   40.37    1.28
   6  -8  -1   40.16    1.38
   8  -8  -1    6.51    0.48
  10  -8  -1    0.72    0.23
  12  -8  -1   90.57    2.50
  14  -8  -1    2.25    0.36
  16  -8  -1    8.87    0.65
 -19  -7  -1   11.27    0.69
 -17  -7  -1   10.03    0.38
 -15  -7  -1   12.38    0.41
 -13  -7  -1   14.44    0.43
 -11  -7  -1    0.08    0.05
  -9  -7  -1  116.53    2.98
  -7  -7  -1    0.58    0.16
  -5  -7  -1   17.41    0.74
  -3  -7  -1   29.93    1.03
  -1  -7  -1   29.02    1.00
   1  -7  -1   26.31    0.92
   3  -7  -1    1.61    0.23
   5  -7  -1   38.22    0.83
   7  -7  -1    0.89    0.20
   9  -7  -1   17.98    0.79
  11  -7  -1   20.63    0.87
  13  -7  -1   15.77    0.80
  15  -7  -1    7.54    0.54
  17  -7  -1    1.18    0.28
  19  -7  -1   48.72    1.69
 -18  -6  -1    1.20    0.16
 -16  -6  -1    2.33    0.20
 -14  -6  -1    4.40    0.24
 -12  -6  -1    0.40    0.09
 -10  -6  -1    3.44    0.19
  -8  -6  -1    3.31    0.17
  -6  -6  -1    5.19    0.19
  -4  -6  -1   14.64    0.62
  -2  -6  -1    2.08    0.25
   0  -6  -1   13.79    0.58
   2  -6  -1   15.47    0.60
   4  -6  -1    9.87    0.50
   6  -6  -1   12.29    0.37
   8  -6  -1    7.11    0.44
  10  -6  -1    2.66    0.32
  12  -6  -1    1.73    0.26
  14  -6  -1    2.97    0.35
  16  -6  -1    0.41    0.17
  18  -6  -1    2.55    0.36
  20  -6  -1    0.66    0.23
 -21  -5  -1    0.35    0.13
 -19  -5  -1    8.64    0.37
 -17  -5  -1   28.57    0.70
 -15  -5  -1   37.85    0.82
 -13  -5  -1   18.14    0.48
 -11  -5  -1    3.69    0.19
  -9  -5  -1  289.15    4.57
  -7  -5  -1    5.27    0.20
  -5  -5  -1   12.00    0.31
  -3  -5  -1  113.73    1.45
  -1  -5  -1  123.02    2.85
   1  -5  -1    7.64    0.27
   3  -5  -1    9.76    0.30
   5  -5  -1  109.08    1.77
   7  -5  -1   14.02    0.37
   9  -5  -1   13.44    0.57
  11  -5  -1   59.84    1.64
  13  -5  -1   43.12    1.32
  15  -5  -1    8.93    0.52
  17  -5  -1    1.17    0.24
  19  -5  -1  112.32    2.99
  21  -5  -1    0.28    0.17
 -22  -4  -1   12.72    0.62
 -20  -4  -1   15.18    0.67
 -18  -4  -1    0.28    0.08
 -16  -4  -1  172.20    2.80
 -14  -4  -1    2.38    0.19
 -12  -4  -1   13.88    0.39
 -10  -4  -1   63.49    1.14
  -8  -4  -1   74.25    1.28
  -6  -4  -1   30.31    0.47
  -4  -4  -1    3.05    0.10
  -2  -4  -1  112.84    1.47
   0  -4  -1    1.44    0.17
   2  -4  -1   45.69    0.84
   4  -4  -1   88.46    1.46
   6  -4  -1   92.80    1.54
   8  -4  -1   23.12    0.48
  10  -4  -1    1.06    0.17
  12  -4  -1  270.59    6.04
  14  -4  -1    0.22    0.10
  16  -4  -1   21.96    0.85
  18  -4  -1   24.81    0.98
  20  -4  -1   18.74    0.86
  22  -4  -1   14.85    0.79
 -23  -3  -1    0.37    0.15
 -21  -3  -1    1.16    0.21
 -19  -3  -1    0.69    0.16
 -17  -3  -1    0.86    0.12
 -15  -3  -1    2.22    0.17
 -13  -3  -1    0.22    0.06
 -11  -3  -1    2.06    0.10
  -9  -3  -1    1.44    0.07
  -7  -3  -1    2.26    0.11
  -5  -3  -1    6.39    0.15
  -3  -3  -1    9.84    0.18
  -1  -3  -1    8.84    0.15
   1  -3  -1   12.54    0.29
   3  -3  -1    8.89    0.30
   5  -3  -1    1.76    0.09
   7  -3  -1    9.18    0.23
   9  -3  -1    2.39    0.07
  11  -3  -1    1.42    0.10
  13  -3  -1    1.29    0.10
  15  -3  -1    0.23    0.05
  17  -3  -1    1.60    0.14
  19  -3  -1    0.94    0.11
  21  -3  -1    0.72    0.10
  23  -3  -1    0.56    0.19
 -24  -2  -1   24.81    0.97
 -22  -2  -1   21.39    0.85
 -20  -2  -1   13.21    0.60
 -18  -2  -1    0.26    0.08
 -16  -2  -1  280.76    3.49
 -14  -2  -1    4.05    0.15
 -12  -2  -1   15.90    0.31
 -10  -2  -1  116.76    1.51
  -8  -2  -1  157.24    1.96
  -6  -2  -1   21.29    0.32
  -4  -2  -1   19.98    0.30
  -2  -2  -1  227.47    2.88
   0  -2  -1   22.42    0.41
   2  -2  -1   22.92    0.56
   4  -2  -1  220.58    3.32
   6  -2  -1  209.72    2.23
   8  -2  -1   18.45    0.29
  10  -2  -1    7.70    0.19
  12  -2  -1  443.87    6.61
  14  -2  -1    3.92    0.17
  16  -2  -1   24.32    0.54
  18  -2  -1   43.84    0.89
  20  -2  -1   33.59    0.74
  22  -2  -1   13.08    0.41
  24  -2  -1    0.31    0.09
 -25  -1  -1    0.81    0.23
 -23  -1  -1   32.38    1.08
 -21  -1  -1    0.78    0.13
 -19  -1  -1   21.22    0.57
 -17  -1  -1   45.95    0.92
 -15  -1  -1   66.35    0.95
 -13  -1  -1   28.79    0.58
 -11  -1  -1    3.76    0.15
  -9  -1  -1  598.48    7.39
  -7  -1  -1    9.35    0.18
  -5  -1  -1   35.32    0.48
  -3  -1  -1  235.12    2.92
  -1  -1  -1  240.71    3.59
   1  -1  -1   65.25    1.42
   3  -1  -1    6.81    0.14
   5  -1  -1  260.70    3.13
   7  -1  -1   11.29    0.20
   9  -1  -1   30.14    0.53
  11  -1  -1  119.19    1.90
  13  -1  -1   90.54    1.52
  15  -1  -1   12.69    0.35
  17  -1  -1    3.31    0.18
  19  -1  -1  185.55    3.04
  21  -1  -1    0.11    0.06
  23  -1  -1   12.69    0.42
  25  -1  -1   12.34    0.44
 -26   0  -1   -0.01    0.22
 -24   0  -1    0.04    0.09
 -22   0  -1    0.09    0.08
 -20   0  -1   -0.01    0.06
 -18   0  -1    0.04    0.05
 -16   0  -1    0.17    0.06
 -14   0  -1    0.15    0.05
 -12   0  -1    0.04    0.02
 -10   0  -1    0.03    0.02
  -8   0  -1    0.03    0.02
  -6   0  -1    0.07    0.02
  -4   0  -1    0.06    0.02
  -2   0  -1    0.55    0.05
   0   0  -1    0.04    0.01
   2   0  -1    0.18    0.01
   4   0  -1    0.14    0.04
   6   0  -1    0.04    0.02
   8   0  -1    0.05    0.02
  10   0  -1    0.03    0.03
  12   0  -1    0.10    0.04
  14   0  -1    0.00    0.04
  16   0  -1   -0.01    0.03
  18   0  -1    0.08    0.06
  20   0  -1   -0.02    0.05
  22   0  -1   -0.02    0.06
  24   0  -1    0.02    0.07
 -25   1  -1    1.25    0.29
 -23   1  -1   31.66    1.16
 -21   1  -1    0.84    0.14
 -19   1  -1   21.49    0.58
 -17   1  -1   45.75    0.93
 -15   1  -1   65.54    1.20
 -13   1  -1   28.35    0.61
 -11   1  -1    4.16    0.25
  -9   1  -1  582.53    8.99
  -7   1  -1    9.90    0.24
  -5   1  -1   35.23    0.60
  -3   1  -1  231.68    3.60
  -1   1  -1  232.66    3.56
   1   1  -1   65.78    1.00
   3   1  -1    7.17    0.13
   5   1  -1  260.11    3.14
   7   1  -1   11.32    0.36
   9   1  -1   30.22    0.79
  11   1  -1  117.09    2.67
  13   1  -1   89.22    1.53
  15   1  -1   12.30    0.36
  17   1  -1    3.27    0.20
  19   1  -1  183.46    3.06
  21   1  -1    0.08    0.07
  23   1  -1   12.30    0.44
  25   1  -1   12.85    0.58
 -24   2  -1   26.46    1.11
 -22   2  -1   22.76    0.96
 -20   2  -1   12.72    0.66
 -18   2  -1    0.20    0.12
 -16   2  -1  280.34    4.35
 -14   2  -1    4.09    0.20
 -12   2  -1   15.81    0.41
 -10   2  -1  117.05    1.89
  -8   2  -1  156.02    2.43
  -6   2  -1   20.75    0.42
  -4   2  -1   19.57    0.38
  -2   2  -1  225.26    3.55
   0   2  -1   21.84    0.55
   2   2  -1   22.80    0.40
   4   2  -1  218.96    2.71
   6   2  -1  211.43    2.61
   8   2  -1   18.43    0.60
  10   2  -1    7.55    0.24
  12   2  -1  451.56    9.36
  14   2  -1    3.80    0.19
  16   2  -1   23.45    0.58
  18   2  -1   44.34    0.94
  20   2  -1   33.63    0.80
  22   2  -1   12.51    0.45
  24   2  -1    0.25    0.10
 -23   3  -1    0.26    0.15
 -21   3  -1    1.17    0.26
 -19   3  -1    0.71    0.19
 -17   3  -1    0.52    0.16
 -15   3  -1    1.63    0.24
 -13   3  -1    0.20    0.06
 -11   3  -1    2.04    0.14
  -9   3  -1    1.57    0.13
  -7   3  -1    2.46    0.12
  -5   3  -1    6.22    0.20
  -3   3  -1    9.39    0.24
  -1   3  -1    8.53    0.21
   1   3  -1   12.51    0.23
   3   3  -1    8.87    0.18
   5   3  -1    1.72    0.07
   7   3  -1    9.44    0.27
   9   3  -1    2.25    0.14
  11   3  -1    1.29    0.13
  13   3  -1    1.08    0.12
  15   3  -1    0.17    0.06
  17   3  -1    1.46    0.16
  19   3  -1    1.10    0.15
  21   3  -1    0.63    0.13
  23   3  -1    0.75    0.14
 -22   4  -1   11.97    0.72
 -20   4  -1   14.94    0.77
 -18   4  -1    0.54    0.17
 -16   4  -1  173.30    4.09
 -14   4  -1    2.17    0.27
 -12   4  -1   13.82    0.60
 -10   4  -1   63.77    1.19
  -8   4  -1   77.85    1.31
  -6   4  -1   30.85    0.62
  -4   4  -1    3.48    0.15
  -2   4  -1  110.38    1.85
   0   4  -1    1.43    0.10
   2   4  -1   45.96    0.66
   4   4  -1   87.80    1.17
   6   4  -1   94.92    1.25
   8   4  -1   22.75    0.53
  10   4  -1    1.55    0.14
  12   4  -1  276.93    4.26
  14   4  -1    0.23    0.07
  16   4  -1   21.61    0.59
  18   4  -1   24.66    0.67
  20   4  -1   18.91    0.59
  22   4  -1   14.56    0.52
 -21   5  -1    0.42    0.20
 -19   5  -1    8.72    0.58
 -17   5  -1   29.17    1.10
 -15   5  -1   38.63    1.27
 -13   5  -1   16.98    0.73
 -11   5  -1    3.84    0.30
  -9   5  -1  300.01    6.53
  -7   5  -1    4.88    0.30
  -5   5  -1   11.77    0.47
  -3   5  -1  111.85    1.84
  -1   5  -1  121.47    1.61
   1   5  -1    7.60    0.23
   3   5  -1    9.74    0.31
   5   5  -1  110.09    1.80
   7   5  -1   14.07    0.40
   9   5  -1   12.76    0.39
  11   5  -1   57.61    1.14
  13   5  -1   43.01    0.93
  15   5  -1    8.45    0.35
  17   5  -1    1.21    0.16
  19   5  -1  112.31    2.10
  21   5  -1    0.29    0.12
 -20   6  -1    1.98    0.34
 -18   6  -1    0.95    0.24
 -16   6  -1    2.04    0.32
 -14   6  -1    3.97    0.42
 -12   6  -1    0.54    0.15
 -10   6  -1    3.94    0.31
  -8   6  -1    3.54    0.28
  -6   6  -1    5.26    0.32
  -4   6  -1   14.69    0.55
  -2   6  -1    2.51    0.16
   0   6  -1   14.40    0.61
   2   6  -1   15.76    0.66
   4   6  -1    8.75    0.48
   6   6  -1   12.33    0.59
   8   6  -1    6.28    0.43
  10   6  -1    2.65    0.33
  12   6  -1    1.95    0.30
  14   6  -1    2.56    0.35
  16   6  -1    0.56    0.19
  18   6  -1    2.58    0.30
  20   6  -1    1.13    0.18
 -19   7  -1   11.21    0.89
 -17   7  -1    9.08    0.62
 -15   7  -1   12.35    0.68
 -13   7  -1   14.70    0.71
 -11   7  -1    0.30    0.14
  -9   7  -1  111.98    2.86
  -7   7  -1    0.75    0.17
  -3   7  -1   30.09    1.03
  -1   7  -1   28.26    1.01
   1   7  -1   26.82    0.97
   3   7  -1    1.98    0.28
   5   7  -1   38.14    1.24
   7   7  -1    0.64    0.18
   9   7  -1   17.53    0.80
  11   7  -1   18.30    0.85
  13   7  -1   17.05    0.83
  15   7  -1    7.69    0.57
  17   7  -1    1.21    0.29
  19   7  -1   50.39    2.37
 -16   8  -1   68.11    2.07
 -14   8  -1    0.96    0.24
  -4   8  -1    7.30    0.48
  -2   8  -1   29.52    1.11
   0   8  -1    5.95    0.44
   2   8  -1    1.11    0.24
   4   8  -1   39.85    1.36
   6   8  -1   38.88    1.36
   8   8  -1    7.00    0.51
  10   8  -1    0.83    0.23
  12   8  -1   88.93    2.52
  14   8  -1    2.30    0.38
  16   8  -1    7.83    0.62
  -7   9  -1    2.81    0.38
  -5   9  -1    6.45    0.50
  -3   9  -1    8.11    0.56
  -1   9  -1    7.26    0.52
   1   9  -1    9.38    0.60
   3   9  -1    6.78    0.52
   5   9  -1    1.04    0.26
   7   9  -1    9.48    0.62
   9   9  -1    1.86    0.34
  11   9  -1    2.38    0.39
  13   9  -1    2.32    0.56
  -8  10  -1    5.12    0.55
  -6  10  -1   10.14    0.68
  -4  10  -1    0.80    0.25
  -2  10  -1    7.98    0.60
   0  10  -1    1.05    0.27
   2  10  -1   11.36    0.71
   4  10  -1    7.67    0.59
   6  10  -1    7.75    0.60
  -6 -10   0   11.76    0.92
  -4 -10   0    3.00    0.43
  -2 -10   0    1.47    0.32
   0 -10   0   36.00    1.35
   2 -10   0    1.38    0.30
 -11  -9   0    6.19    0.53
  -9  -9   0    0.46    0.20
  -7  -9   0   61.71    1.93
  -5  -9   0    0.22    0.15
  -3  -9   0   14.59    0.77
  -1  -9   0   16.50    0.81
   1  -9   0   16.52    0.79
   3  -9   0   14.82    0.72
   9  -9   0    0.40    0.19
  11  -9   0    5.69    0.57
  13  -9   0   14.84    0.84
 -16  -8   0    3.55    0.46
 -14  -8   0    0.48    0.10
 -12  -8   0    4.40    0.24
 -10  -8   0   15.26    0.43
  -8  -8   0    2.21    0.34
  -6  -8   0    4.64    0.47
  -4  -8   0    8.77    0.54
  -2  -8   0    2.03    0.30
   0  -8   0   29.41    1.07
   2  -8   0    2.34    0.31
   4  -8   0    8.65    0.50
   6  -8   0    4.43    0.45
   8  -8   0    2.78    0.37
  10  -8   0   15.85    0.78
  12  -8   0    4.60    0.48
  14  -8   0    0.33    0.20
  16  -8   0    3.69    0.48
 -19  -7   0    0.69    0.23
 -17  -7   0    1.12    0.16
 -15  -7   0   21.75    0.60
 -13  -7   0   19.61    0.55
 -11  -7   0    2.57    0.18
  -9  -7   0    6.35    0.27
  -7  -7   0   58.04    1.08
  -5  -7   0    8.72    0.28
  -3  -7   0    2.98    0.15
  -1  -7   0   20.04    0.80
   1  -7   0   20.66    0.80
   3  -7   0    2.30    0.28
   5  -7   0    8.41    0.50
   7  -7   0   54.70    1.15
   9  -7   0    7.31    0.47
  11  -7   0    2.48    0.34
  13  -7   0   19.30    0.86
  15  -7   0   22.23    0.96
  17  -7   0    1.36    0.29
  19  -7   0    1.43    0.31
 -20  -6   0   18.36    0.86
 -18  -6   0    6.07    0.30
 -16  -6   0    2.82    0.23
 -14  -6   0   13.48    0.43
 -12  -6   0    0.36    0.08
 -10  -6   0   22.39    0.56
  -8  -6   0   65.13    1.19
  -6  -6   0   63.27    1.17
  -4  -6   0   30.17    0.62
  -2  -6   0    0.75    0.09
   0  -6   0  450.18    6.73
   2  -6   0    0.50    0.07
   4  -6   0   29.81    0.67
   6  -6   0   64.58    1.20
   8  -6   0   63.41    1.21
  10  -6   0   22.70    0.85
  12  -6   0    0.50    0.16
  14  -6   0   13.63    0.67
  16  -6   0    2.87    0.37
  18  -6   0    5.77    0.47
  20  -6   0   18.72    0.90
 -21  -5   0   12.12    0.62
 -19  -5   0    0.29    0.13
 -17  -5   0   11.01    0.39
 -15  -5   0    7.36    0.30
 -13  -5   0    4.98    0.24
 -11  -5   0   19.35    0.51
  -9  -5   0    3.31    0.18
  -7  -5   0   51.21    0.95
  -5  -5   0    6.62    0.23
  -3  -5   0   15.92    0.38
  -1  -5   0   19.23    0.33
   1  -5   0   19.36    0.32
   3  -5   0   16.10    0.25
   5  -5   0    6.75    0.14
   7  -5   0   48.92    0.72
   9  -5   0    3.44    0.14
  11  -5   0   19.52    0.75
  13  -5   0    5.16    0.37
  15  -5   0    7.95    0.48
  17  -5   0   10.66    0.60
  19  -5   0    0.51    0.19
  21  -5   0   13.56    0.74
 -22  -4   0    9.97    0.56
 -20  -4   0   12.92    0.61
 -18  -4   0    0.37    0.10
 -16  -4   0    8.49    0.32
 -14  -4   0   10.86    0.35
 -12  -4   0    6.31    0.25
 -10  -4   0    0.85    0.10
  -8  -4   0   55.63    1.01
  -6  -4   0   56.17    1.01
  -4  -4   0    9.34    0.22
  -2  -4   0    5.22    0.14
   0  -4   0  298.15    3.61
   2  -4   0    5.47    0.12
   4  -4   0    9.51    0.17
   6  -4   0   56.87    0.68
   8  -4   0   55.31    0.67
  10  -4   0    0.53    0.07
  12  -4   0    5.77    0.36
  14  -4   0   10.62    0.31
  16  -4   0    9.17    0.30
  18  -4   0    0.44    0.08
  20  -4   0   12.56    0.38
  22  -4   0    8.29    0.58
  24  -4   0    0.93    0.30
 -23  -3   0    2.91    0.35
 -21  -3   0   83.68    2.29
 -19  -3   0    0.77    0.17
 -17  -3   0   14.33    0.43
 -15  -3   0   89.78    1.55
 -13  -3   0   82.26    1.14
 -11  -3   0   29.25    0.47
  -9  -3   0    5.36    0.14
  -7  -3   0  506.08    6.08
  -5  -3   0    7.64    0.22
  -3  -3   0   49.26    0.84
  -1  -3   0  226.63    2.75
   1  -3   0  222.72    2.38
   3  -3   0   49.60    0.58
   5  -3   0    7.50    0.13
   7  -3   0  476.34    5.16
   9  -3   0    5.58    0.12
  11  -3   0   28.07    0.58
  13  -3   0   82.94    1.40
  15  -3   0   89.32    1.54
  17  -3   0   15.04    0.41
  19  -3   0    0.73    0.11
  21  -3   0   89.45    1.60
  23  -3   0    2.25    0.20
 -24  -2   0    0.94    0.23
 -22  -2   0    9.06    0.51
 -20  -2   0    9.16    0.49
 -18  -2   0    5.06    0.24
 -16  -2   0    1.25    0.11
 -14  -2   0    7.13    0.20
 -12  -2   0    1.24    0.09
 -10  -2   0   24.34    0.39
  -8  -2   0   35.45    0.52
  -6  -2   0   46.50    0.62
  -4  -2   0   21.37    0.31
  -2  -2   0    1.86    0.08
   0  -2   0  397.50    4.27
   2  -2   0    1.62    0.05
   4  -2   0   21.97    0.28
   6  -2   0   45.89    0.54
   8  -2   0   35.58    0.50
  10  -2   0   24.12    0.37
  12  -2   0    1.06    0.16
  14  -2   0    6.37    0.24
  16  -2   0    1.30    0.13
  18  -2   0    4.78    0.23
  20  -2   0    9.15    0.33
  22  -2   0    8.95    0.35
  24  -2   0    0.67    0.13
 -25  -1   0    2.43    0.33
 -23  -1   0    1.59    0.18
 -21  -1   0   27.02    0.69
 -19  -1   0    0.61    0.10
 -17  -1   0    3.29    0.19
 -15  -1   0   33.98    0.70
 -13  -1   0   33.10    0.52
 -11  -1   0    5.92    0.18
  -9  -1   0    4.55    0.15
  -7  -1   0  218.26    2.63
  -5  -1   0    5.75    0.14
  -3  -1   0   14.75    0.21
  -1  -1   0  105.97    1.57
   1  -1   0  106.09    1.57
   3  -1   0   14.53    0.21
   5  -1   0    5.61    0.11
   7  -1   0  211.16    2.63
   9  -1   0    4.67    0.11
  11  -1   0    5.69    0.15
  13  -1   0   32.88    0.66
  15  -1   0   34.58    0.72
  17  -1   0    2.95    0.18
  19  -1   0    0.72    0.11
  21  -1   0   28.49    0.69
  23  -1   0    1.66    0.18
  25  -1   0    2.30    0.36
 -26   0   0    0.77    0.25
 -24   0   0    2.02    0.33
 -22   0   0   42.66    1.37
 -20   0   0   47.70    1.01
 -18   0   0    9.65    0.34
 -16   0   0    8.80    0.30
 -14   0   0   44.49    0.85
 -12   0   0    1.84    0.08
 -10   0   0   56.18    0.77
  -8   0   0  239.86    2.92
  -6   0   0  269.83    4.05
  -4   0   0   79.65    0.98
  -2   0   0   18.65    0.24
   2   0   0   18.82    0.30
   4   0   0   78.34    1.21
   6   0   0  265.92    4.03
   8   0   0  235.15    5.12
  10   0   0   56.31    0.97
  12   0   0    1.90    0.12
  14   0   0   44.73    0.86
  16   0   0    8.60    0.30
  18   0   0    9.70    0.34
  20   0   0   48.63    1.01
  22   0   0   41.62    0.94
  24   0   0    2.42    0.22
 -25   1   0    2.19    0.34
 -23   1   0    1.39    0.28
 -21   1   0   26.79    1.03
 -19   1   0    0.55    0.16
 -17   1   0    2.84    0.19
 -15   1   0   33.63    0.72
 -13   1   0   31.97    0.67
 -11   1   0    5.69    0.20
  -9   1   0    4.69    0.16
  -7   1   0  219.38    3.24
  -5   1   0    5.83    0.22
  -3   1   0   15.08    0.27
  -1   1   0  102.56    1.60
   1   1   0  105.70    1.57
   3   1   0   14.69    0.28
   5   1   0    5.94    0.16
   7   1   0  210.94    3.25
   9   1   0    4.48    0.22
  11   1   0    5.77    0.21
  13   1   0   33.37    0.68
  15   1   0   34.62    0.73
  17   1   0    3.14    0.20
  19   1   0    0.48    0.10
  21   1   0   28.77    0.72
  23   1   0    1.37    0.17
  25   1   0    2.65    0.28
 -24   2   0    0.67    0.22
 -22   2   0    9.41    0.59
 -20   2   0    9.07    0.54
 -18   2   0    5.39    0.39
 -16   2   0    0.78    0.17
 -14   2   0    8.01    0.28
 -12   2   0    1.26    0.12
 -10   2   0   23.34    0.50
  -8   2   0   36.09    0.66
  -6   2   0   45.54    1.09
  -4   2   0   21.78    0.40
  -2   2   0    1.72    0.07
   0   2   0  407.39    6.05
   2   2   0    1.69    0.05
   4   2   0   22.24    0.42
   6   2   0   45.89    0.80
   8   2   0   36.15    0.92
  10   2   0   24.08    0.52
  12   2   0    1.07    0.11
  14   2   0    7.10    0.27
  16   2   0    1.08    0.13
  18   2   0    5.48    0.26
  20   2   0    8.62    0.36
  22   2   0    8.88    0.38
  24   2   0    0.50    0.13
 -23   3   0    2.53    0.39
 -21   3   0   84.74    2.43
 -19   3   0    0.63    0.17
 -17   3   0   14.68    0.67
 -15   3   0   91.35    2.30
 -13   3   0   80.33    2.07
 -11   3   0   28.89    0.61
  -9   3   0    5.52    0.20
  -7   3   0  499.65    7.40
  -5   3   0    7.39    0.21
  -3   3   0   48.31    0.82
  -1   3   0  225.11    3.35
   1   3   0  223.63    2.75
   3   3   0   49.71    0.85
   5   3   0    6.99    0.22
   7   3   0  486.63    7.41
   9   3   0    5.93    0.22
  11   3   0   28.40    0.62
  13   3   0   81.47    1.46
  15   3   0   88.43    1.60
  17   3   0   14.54    0.46
  19   3   0    0.86    0.14
  21   3   0   90.32    1.70
  23   3   0    2.78    0.26
 -22   4   0   10.19    0.65
 -20   4   0   11.07    0.66
 -18   4   0    0.18    0.13
 -16   4   0    7.82    0.48
 -14   4   0   11.51    0.55
 -12   4   0    5.41    0.35
 -10   4   0    0.78    0.15
  -8   4   0   55.95    1.44
  -6   4   0   57.06    1.00
  -4   4   0    9.45    0.25
  -2   4   0    5.23    0.17
   0   4   0  292.37    3.62
   2   4   0    5.28    0.13
   4   4   0    9.17    0.27
   6   4   0   57.23    1.03
   8   4   0   56.28    1.03
  10   4   0    0.63    0.09
  12   4   0    5.81    0.25
  14   4   0   10.60    0.37
  16   4   0    8.96    0.35
  18   4   0    0.47    0.11
  20   4   0   12.00    0.46
  22   4   0    8.71    0.41
 -21   5   0   12.02    0.73
 -19   5   0    0.87    0.23
 -17   5   0   11.34    0.62
 -15   5   0    7.82    0.48
 -13   5   0    5.16    0.37
 -11   5   0   20.28    0.75
  -9   5   0    3.42    0.26
  -7   5   0   50.91    1.32
  -5   5   0    6.94    0.33
  -3   5   0   15.16    0.51
  -1   5   0   19.12    0.56
   1   5   0   19.27    0.35
   3   5   0   16.19    0.42
   5   5   0    6.54    0.25
   7   5   0   49.01    0.97
   9   5   0    3.30    0.20
  11   5   0   20.86    0.55
  13   5   0    4.59    0.26
  15   5   0    7.15    0.35
  17   5   0   10.85    0.43
  19   5   0    0.70    0.14
  21   5   0   13.48    0.51
 -20   6   0   18.75    0.92
 -18   6   0    6.32    0.50
 -16   6   0    2.55    0.35
 -14   6   0   13.90    0.67
 -12   6   0    0.31    0.13
 -10   6   0   21.41    0.80
  -8   6   0   63.93    1.69
  -6   6   0   64.31    1.64
  -4   6   0   29.34    0.86
   0   6   0  446.21    9.70
   2   6   0    0.79    0.19
   4   6   0   26.62    0.98
   6   6   0   65.61    1.81
   8   6   0   64.47    1.83
  10   6   0   22.41    0.90
  12   6   0    0.47    0.15
  14   6   0   12.80    0.70
  16   6   0    2.53    0.37
  18   6   0    6.09    0.52
  20   6   0   18.95    0.97
 -19   7   0    1.20    0.28
 -17   7   0    1.45    0.30
 -15   7   0   22.93    0.94
 -13   7   0   19.32    0.82
 -11   7   0    2.55    0.31
  -9   7   0    6.55    0.41
  -7   7   0   56.64    1.55
  -3   7   0    3.09    0.34
  -1   7   0   22.83    0.86
   1   7   0   20.50    0.84
   3   7   0    2.45    0.32
   5   7   0    9.10    0.53
   7   7   0   54.81    1.69
   9   7   0    6.72    0.48
  11   7   0    2.43    0.34
  13   7   0   18.43    0.89
  15   7   0   22.60    1.01
  17   7   0    1.43    0.31
 -16   8   0    3.35    0.43
 -14   8   0    0.31    0.18
  -4   8   0    8.37    0.54
  -2   8   0    2.67    0.34
   0   8   0   28.65    1.09
   2   8   0    2.26    0.33
   4   8   0    7.76    0.53
   6   8   0    4.51    0.48
   8   8   0    4.46    0.48
  10   8   0   15.32    0.81
  12   8   0    3.84    0.47
  14   8   0    0.38    0.18
  16   8   0    2.66    0.42
  -7   9   0   63.00    1.93
  -5   9   0    0.54    0.19
  -3   9   0   13.93    0.75
  -1   9   0   16.83    0.83
   1   9   0   16.83    0.84
   3   9   0   13.88    0.76
   5   9   0    0.25    0.16
   7   9   0   60.03    1.94
   9   9   0    0.91    0.25
  11   9   0    6.18    0.62
  -8  10   0    9.79    0.74
  -6  10   0   10.53    0.70
  -4  10   0    3.37    0.45
  -2  10   0    1.65    0.33
   0  10   0   37.35    1.41
   2  10   0    1.42    0.30
   4  10   0    3.63    0.46
   6  10   0   10.03    0.69
  -4 -10   1    7.59    0.60
  -2 -10   1   10.96    0.69
   0 -10   1    1.22    0.27
   2 -10   1   10.88    0.66
 -11  -9   1    2.23    0.19
  -9  -9   1    2.49    0.39
  -7  -9   1    9.82    0.64
  -5  -9   1    0.56    0.21
  -3  -9   1    7.84    0.55
  -1  -9   1    9.37    0.60
   1  -9   1    6.38    0.49
   3  -9   1    7.37    0.52
   9  -9   1    1.94    0.34
  11  -9   1    3.55    0.46
  13  -9   1    0.32    0.22
 -16  -8   1    9.19    0.63
 -14  -8   1    2.08    0.20
 -12  -8   1   87.51    1.65
 -10  -8   1    0.54    0.11
  -8  -8   1    5.77    0.27
  -6  -8   1   40.04    0.85
  -4  -8   1   40.53    0.84
  -2  -8   1    1.21    0.12
   0  -8   1    6.13    0.44
   2  -8   1   32.93    1.12
   4  -8   1    6.50    0.45
   8  -8   1   22.94    0.94
  10  -8   1   18.24    0.84
  12  -8   1    8.11    0.56
  14  -8   1    1.21    0.29
  16  -8   1   67.14    2.08
 -19  -7   1   49.45    1.65
 -17  -7   1    1.08    0.16
 -15  -7   1    7.20    0.33
 -13  -7   1   17.28    0.52
 -11  -7   1   19.03    0.54
  -9  -7   1   17.20    0.50
  -7  -7   1    0.57    0.10
  -5  -7   1   34.26    0.77
  -3  -7   1    1.58    0.14
  -1  -7   1   26.95    0.60
   1  -7   1   29.33    0.62
   3  -7   1   29.72    0.62
   5  -7   1   16.69    0.35
   7  -7   1    0.75    0.08
   9  -7   1  121.16    2.96
  11  -7   1   -0.03    0.11
  13  -7   1   15.07    0.74
  15  -7   1   13.31    0.71
  17  -7   1   10.60    0.65
  19  -7   1   11.16    0.71
 -20  -6   1    0.85    0.21
 -18  -6   1    2.68    0.25
 -16  -6   1    0.14    0.08
 -14  -6   1    3.00    0.24
 -12  -6   1    1.70    0.17
 -10  -6   1    2.57    0.21
  -8  -6   1    7.44    0.29
  -6  -6   1   12.97    0.38
  -4  -6   1    9.38    0.30
  -2  -6   1   15.08    0.40
   0  -6   1   13.81    0.37
   2  -6   1    2.12    0.13
   4  -6   1   14.75    0.32
   6  -6   1    4.38    0.16
   8  -6   1    3.22    0.13
  10  -6   1    3.26    0.16
  12  -6   1    0.35    0.07
  14  -6   1    4.12    0.41
  16  -6   1    2.39    0.34
  18  -6   1    1.22    0.26
  20  -6   1    1.98    0.35
 -21  -5   1    0.18    0.12
 -19  -5   1  113.41    2.87
 -17  -5   1    1.28    0.16
 -15  -5   1    8.29    0.33
 -13  -5   1   42.31    0.90
 -11  -5   1   59.02    1.12
  -9  -5   1   11.93    0.37
  -7  -5   1   13.78    0.39
  -5  -5   1  101.95    1.77
  -3  -5   1    9.74    0.29
  -1  -5   1    7.45    0.24
   1  -5   1  123.78    1.97
   3  -5   1  113.34    1.51
   5  -5   1   12.64    0.27
   7  -5   1    4.83    0.16
   9  -5   1  302.89    3.71
  11  -5   1    3.49    0.17
  13  -5   1   17.45    0.45
  15  -5   1   38.24    1.24
  17  -5   1   29.26    0.66
  19  -5   1    9.08    0.32
  21  -5   1    0.61    0.11
  23  -5   1   21.10    1.10
 -22  -4   1   14.12    0.69
 -20  -4   1   19.58    0.80
 -18  -4   1   24.80    0.90
 -16  -4   1   20.69    0.54
 -14  -4   1    0.39    0.08
 -12  -4   1  268.21    4.22
 -10  -4   1    1.29    0.13
  -8  -4   1   23.83    0.39
  -6  -4   1   94.86    1.57
  -4  -4   1   89.82    1.48
  -2  -4   1   46.09    0.83
   0  -4   1    1.65    0.10
   2  -4   1  122.57    1.53
   4  -4   1    2.87    0.13
   6  -4   1   30.52    0.48
   8  -4   1   74.16    1.03
  10  -4   1   64.03    0.90
  12  -4   1   14.18    0.37
  14  -4   1    2.70    0.16
  16  -4   1  171.80    4.04
  18  -4   1    0.39    0.09
  20  -4   1   15.00    0.45
  22  -4   1   12.01    0.41
  24  -4   1   14.56    0.82
 -23  -3   1    0.53    0.17
 -21  -3   1    0.63    0.17
 -19  -3   1    0.94    0.20
 -17  -3   1    1.75    0.25
 -15  -3   1    0.16    0.05
 -13  -3   1    1.63    0.11
 -11  -3   1    1.37    0.09
  -9  -3   1    2.40    0.10
  -7  -3   1    9.07    0.19
  -5  -3   1    1.84    0.10
  -3  -3   1    8.90    0.24
  -1  -3   1   12.44    0.29
   1  -3   1    8.71    0.18
   3  -3   1   10.20    0.24
   5  -3   1    6.28    0.15
   7  -3   1    2.45    0.09
   9  -3   1    1.42    0.08
  11  -3   1    1.87    0.12
  13  -3   1    0.36    0.07
  15  -3   1    1.87    0.15
  17  -3   1    0.59    0.10
  19  -3   1    0.85    0.12
  21  -3   1    1.33    0.16
  23  -3   1    0.30    0.09
 -24  -2   1    0.33    0.16
 -22  -2   1   12.47    0.62
 -20  -2   1   32.75    0.77
 -18  -2   1   44.87    0.91
 -16  -2   1   22.59    0.54
 -14  -2   1    4.16    0.15
 -12  -2   1  436.64    5.39
 -10  -2   1    7.73    0.18
  -8  -2   1   18.39    0.31
  -6  -2   1  214.03    3.21
  -4  -2   1  223.19    3.32
  -2  -2   1   22.39    0.42
   0  -2   1   22.44    0.34
   2  -2   1  241.62    2.88
   4  -2   1   19.90    0.31
   6  -2   1   21.42    0.33
   8  -2   1  154.42    1.95
  10  -2   1  116.40    1.50
  12  -2   1   16.66    0.40
  14  -2   1    4.55    0.20
  16  -2   1  273.10    4.31
  18  -2   1    0.34    0.08
  20  -2   1   13.54    0.43
  22  -2   1   21.98    0.61
  24  -2   1   25.25    0.68
 -23  -1   1   11.31    0.62
 -21  -1   1    0.00    0.06
 -19  -1   1  191.73    3.05
 -17  -1   1    3.47    0.19
 -15  -1   1   12.06    0.35
 -13  -1   1   90.04    1.22
 -11  -1   1  118.87    1.53
  -9  -1   1   29.83    0.45
  -7  -1   1   11.20    0.25
  -5  -1   1  248.47    3.83
  -3  -1   1    6.79    0.16
  -1  -1   1   63.81    1.42
   1  -1   1  235.33    2.91
   3  -1   1  232.69    2.89
   5  -1   1   34.79    0.48
   7  -1   1    9.86    0.18
   9  -1   1  594.77    7.30
  11  -1   1    3.56    0.11
  13  -1   1   28.86    0.47
  15  -1   1   65.81    1.74
  17  -1   1   46.34    0.93
  19  -1   1   22.66    0.58
  21  -1   1    0.71    0.12
  23  -1   1   27.74    0.73
  25  -1   1    1.66    0.32
 -26   0   1    0.05    0.16
 -24   0   1    0.18    0.17
 -22   0   1    0.01    0.10
 -20   0   1    0.30    0.13
 -18   0   1    0.20    0.10
 -16   0   1    0.04    0.05
 -14   0   1    0.01    0.04
 -12   0   1    0.16    0.03
 -10   0   1    0.03    0.02
  -8   0   1    0.03    0.01
  -6   0   1    0.08    0.02
  -4   0   1    0.23    0.02
  -2   0   1    0.19    0.02
   2   0   1    0.50    0.04
   4   0   1    0.04    0.02
   6   0   1    0.03    0.02
   8   0   1    0.16    0.03
  10   0   1    0.02    0.03
  12   0   1    0.05    0.03
  14   0   1    0.01    0.04
  16   0   1    0.06    0.04
  18   0   1   -0.04    0.04
  20   0   1    0.04    0.06
  22   0   1    0.12    0.08
  24   0   1    0.02    0.07
 -25   1   1   13.29    0.74
 -23   1   1   11.53    0.66
 -21   1   1   -0.05    0.09
 -19   1   1  189.57    4.39
 -17   1   1    3.26    0.28
 -15   1   1   12.06    0.38
 -13   1   1   93.03    1.53
 -11   1   1  120.24    1.91
  -9   1   1   29.52    0.56
  -7   1   1   11.38    0.25
  -5   1   1  246.37    3.85
  -3   1   1    6.74    0.22
  -1   1   1   65.30    1.39
   1   1   1  227.42    5.16
   3   1   1  239.53    3.65
   5   1   1   35.35    0.60
   7   1   1    9.82    0.24
   9   1   1  594.45    9.15
  11   1   1    3.78    0.17
  13   1   1   29.52    0.62
  15   1   1   64.56    1.21
  17   1   1   45.22    0.94
  19   1   1   22.22    0.59
  21   1   1    0.77    0.13
  23   1   1   28.28    0.76
  25   1   1    1.47    0.21
 -24   2   1    0.16    0.14
 -22   2   1   12.15    0.68
 -20   2   1   32.19    1.15
 -18   2   1   44.08    1.37
 -16   2   1   23.17    0.84
 -14   2   1    4.70    0.31
 -12   2   1  440.19    9.42
 -10   2   1    7.63    0.23
  -8   2   1   18.29    0.39
  -6   2   1  213.28    3.19
  -4   2   1  219.61    4.67
  -2   2   1   22.31    0.55
   0   2   1   22.87    0.51
   2   2   1  241.82    3.55
   4   2   1   20.11    0.39
   6   2   1   21.70    0.58
   8   2   1  157.55    2.44
  10   2   1  116.76    1.90
  12   2   1   15.96    0.42
  14   2   1    4.10    0.20
  16   2   1  273.05    4.35
  18   2   1    0.32    0.09
  20   2   1   13.11    0.45
  22   2   1   21.97    0.64
  24   2   1   26.28    0.74
 -23   3   1    0.63    0.19
 -21   3   1    0.63    0.20
 -19   3   1    0.67    0.18
 -17   3   1    1.48    0.24
 -15   3   1    0.38    0.13
 -13   3   1    1.75    0.23
 -11   3   1    1.39    0.19
  -9   3   1    2.51    0.13
  -7   3   1    9.21    0.25
  -5   3   1    1.60    0.13
  -3   3   1    8.81    0.30
  -1   3   1   12.36    0.35
   1   3   1    8.45    0.16
   3   3   1    9.84    0.25
   5   3   1    6.52    0.20
   7   3   1    2.09    0.12
   9   3   1    1.46    0.12
  11   3   1    2.25    0.18
  13   3   1    0.31    0.07
  15   3   1    2.51    0.21
  17   3   1    0.61    0.12
  19   3   1    0.74    0.13
  21   3   1    1.18    0.17
  23   3   1    0.49    0.13
 -22   4   1   14.13    0.78
 -20   4   1   18.26    0.85
 -18   4   1   26.57    1.00
 -16   4   1   19.64    0.82
 -14   4   1    0.16    0.10
 -12   4   1  271.71    6.01
 -10   4   1    1.61    0.21
  -8   4   1   24.97    0.75
  -6   4   1   92.46    2.18
  -4   4   1   87.95    1.42
  -2   4   1   45.14    0.77
   0   4   1    1.62    0.08
   2   4   1  123.72    1.89
   4   4   1    2.95    0.14
   6   4   1   30.26    0.63
   8   4   1   74.32    1.32
  10   4   1   64.31    1.18
  12   4   1   14.40    0.42
  14   4   1    2.51    0.20
  16   4   1  169.71    2.87
  18   4   1    0.37    0.10
  20   4   1   15.27    0.52
  22   4   1   12.03    0.48
 -21   5   1    0.07    0.15
 -19   5   1  120.74    3.05
 -17   5   1    1.22    0.24
 -15   5   1    8.74    0.51
 -13   5   1   42.04    1.29
 -11   5   1   58.67    1.59
  -9   5   1   12.09    0.51
  -7   5   1   13.74    0.52
  -5   5   1  101.42    2.43
  -3   5   1    9.55    0.36
  -1   5   1    7.39    0.28
   1   5   1  122.40    2.91
   3   5   1  114.36    2.75
   5   5   1   13.44    0.58
   7   5   1    5.42    0.37
   9   5   1  297.71    6.64
  11   5   1    3.24    0.35
  13   5   1   18.25    0.80
  15   5   1   36.48    1.31
  17   5   1   28.94    1.14
  19   5   1    9.16    0.62
  21   5   1    0.73    0.24
 -20   6   1    0.66    0.23
 -18   6   1    2.91    0.39
 -16   6   1    0.38    0.17
 -14   6   1    3.45    0.38
 -12   6   1    1.73    0.25
 -10   6   1    3.06    0.31
  -8   6   1    7.40    0.39
  -6   6   1   11.96    0.49
  -4   6   1    9.30    0.39
   0   6   1   14.31    0.63
   2   6   1    2.71    0.32
   4   6   1   14.77    0.67
   6   6   1    5.00    0.38
   8   6   1    3.14    0.36
  10   6   1    3.25    0.39
  12   6   1    0.34    0.15
  14   6   1    4.65    0.49
  16   6   1    1.87    0.32
  18   6   1    1.26    0.27
  20   6   1    2.42    0.41
 -19   7   1   48.65    1.67
 -17   7   1    0.90    0.23
 -15   7   1    7.31    0.51
 -13   7   1   16.04    0.74
 -11   7   1   18.65    0.77
  -9   7   1   17.90    0.70
  -3   7   1    1.43    0.24
  -1   7   1   26.57    0.99
   1   7   1   29.97    1.07
   3   7   1   29.08    1.07
   5   7   1   17.14    0.78
   7   7   1    0.57    0.18
   9   7   1  120.61    3.07
  11   7   1    0.02    0.11
  13   7   1   16.33    0.82
  15   7   1   12.21    0.73
  17   7   1   10.43    0.70
 -16   8   1   10.28    0.63
  -4   8   1   42.21    1.40
  -2   8   1    1.31    0.26
   0   8   1    5.87    0.45
   2   8   1   33.31    1.19
   4   8   1    6.65    0.50
   6   8   1    6.21    0.48
   8   8   1   23.68    1.02
  10   8   1   17.50    0.88
  12   8   1    7.27    0.57
  14   8   1    0.80    0.24
  -7   9   1    8.95    0.61
  -5   9   1    0.97    0.25
  -3   9   1    6.91    0.52
  -1   9   1    9.78    0.63
   1   9   1    6.60    0.52
   3   9   1    8.46    0.60
   5   9   1    5.85    0.51
   7   9   1    2.82    0.40
   9   9   1    2.70    0.41
  11   9   1    3.31    0.46
  -6  10   1    7.76    0.61
  -4  10   1    7.14    0.59
  -2  10   1   11.79    0.74
   0  10   1    1.12    0.29
   2  10   1    9.72    0.68
   4  10   1    0.12    0.16
   6  10   1    9.61    0.78
  -4 -10   2    5.35    0.58
  -2 -10   2    6.36    0.55
   0 -10   2    1.88    0.35
   2 -10   2    6.42    0.54
 -11  -9   2   17.03    0.57
  -9  -9   2   15.10    0.48
  -7  -9   2   12.39    0.42
  -5  -9   2    0.13    0.07
  -3  -9   2  120.26    2.08
  -1  -9   2    0.14    0.07
   1  -9   2   13.07    0.71
   3  -9   2   19.66    0.88
   5  -9   2   21.21    0.90
 -16  -8   2    1.26    0.30
 -14  -8   2    9.60    0.40
 -12  -8   2    3.19    0.25
 -10  -8   2    9.33    0.37
  -8  -8   2    4.77    0.27
  -6  -8   2    7.38    0.31
  -4  -8   2    3.65    0.22
  -2  -8   2    4.65    0.24
   0  -8   2    8.35    0.30
   2  -8   2    5.49    0.23
   4  -8   2   13.40    0.39
   6  -8   2    4.41    0.21
   8  -8   2   15.31    0.73
  10  -8   2    2.19    0.32
  12  -8   2    3.87    0.43
 -19  -7   2    6.57    0.53
 -17  -7   2    4.85    0.30
 -15  -7   2    3.49    0.27
 -13  -7   2    0.25    0.09
 -11  -7   2   24.23    0.65
  -9  -7   2   20.89    0.58
  -7  -7   2    6.32    0.28
  -5  -7   2    2.47    0.20
  -3  -7   2  106.85    1.87
  -1  -7   2    2.59    0.18
   1  -7   2    6.42    0.26
   3  -7   2   29.45    0.65
   5  -7   2   29.65    0.55
   7  -7   2    0.28    0.06
   9  -7   2    8.51    0.30
  11  -7   2    6.69    0.26
  13  -7   2   10.26    0.33
  15  -7   2    0.44    0.19
  17  -7   2    8.94    0.61
 -20  -6   2    7.05    0.49
 -18  -6   2   33.00    0.83
 -16  -6   2   26.83    0.71
 -14  -6   2   10.39    0.39
 -12  -6   2    1.66    0.17
 -10  -6   2  156.07    2.55
  -8  -6   2    0.84    0.12
  -6  -6   2   22.61    0.57
  -4  -6   2   61.03    1.15
  -2  -6   2   65.84    1.21
   0  -6   2   31.55    0.68
   2  -6   2    1.31    0.13
   4  -6   2  230.13    2.99
   6  -6   2    1.29    0.12
   8  -6   2   18.24    0.38
  10  -6   2   50.98    0.99
  12  -6   2   50.13    0.99
  14  -6   2   10.86    0.36
  16  -6   2    0.31    0.08
  18  -6   2   58.08    1.11
  20  -6   2    1.39    0.15
 -21  -5   2    4.91    0.41
 -19  -5   2    2.20    0.29
 -17  -5   2    1.81    0.19
 -15  -5   2    3.81    0.25
 -13  -5   2   19.61    0.54
 -11  -5   2    6.88    0.28
  -9  -5   2   11.40    0.36
  -7  -5   2   14.71    0.41
  -5  -5   2    1.45    0.13
  -3  -5   2  115.10    1.89
  -1  -5   2    1.82    0.15
   1  -5   2   15.01    0.38
   3  -5   2   17.91    0.36
   5  -5   2    9.25    0.23
   7  -5   2   28.39    0.49
   9  -5   2    5.07    0.17
  11  -5   2    2.01    0.16
  13  -5   2    4.11    0.20
  15  -5   2    9.34    0.33
  17  -5   2    5.27    0.25
  19  -5   2    6.36    0.29
  21  -5   2    1.33    0.16
  23  -5   2    0.69    0.27
 -22  -4   2    0.72    0.20
 -20  -4   2    0.60    0.18
 -18  -4   2   25.64    0.92
 -16  -4   2   20.83    0.55
 -14  -4   2    1.14    0.14
 -12  -4   2    7.45    0.28
 -10  -4   2   96.87    1.30
  -8  -4   2    6.52    0.24
  -6  -4   2    3.44    0.17
  -4  -4   2   47.08    0.87
  -2  -4   2   52.79    0.95
   0  -4   2    7.47    0.24
   2  -4   2   13.02    0.27
   4  -4   2  151.24    1.97
   6  -4   2    9.26    0.22
   8  -4   2    3.45    0.13
  10  -4   2   44.19    0.68
  12  -4   2   43.65    0.85
  14  -4   2    0.93    0.11
  16  -4   2    2.43    0.19
  18  -4   2   28.86    1.02
  20  -4   2    3.15    0.22
  22  -4   2    1.89    0.19
  24  -4   2    4.68    0.51
 -25  -3   2   20.73    1.03
 -23  -3   2   25.54    1.00
 -21  -3   2    6.63    0.45
 -19  -3   2    5.91    0.40
 -17  -3   2   20.75    0.78
 -15  -3   2    0.67    0.08
 -13  -3   2   34.58    0.57
 -11  -3   2  120.35    1.59
  -9  -3   2  125.06    2.02
  -7  -3   2   49.45    0.88
  -5  -3   2    5.47    0.19
  -3  -3   2  965.28   14.56
  -1  -3   2    7.90    0.23
   1  -3   2   47.03    0.67
   3  -3   2  198.47    2.46
   5  -3   2  175.45    2.24
   7  -3   2   47.84    0.69
   9  -3   2    2.92    0.11
  11  -3   2   42.08    0.65
  13  -3   2    6.94    0.25
  15  -3   2   10.62    0.34
  17  -3   2   53.36    1.06
  19  -3   2   44.68    0.95
  21  -3   2    3.77    0.24
  23  -3   2    0.97    0.15
 -20  -2   2    5.91    0.40
 -18  -2   2   13.45    0.59
 -16  -2   2    9.54    0.32
 -14  -2   2   11.99    0.27
 -12  -2   2    0.42    0.06
 -10  -2   2   95.57    1.25
  -8  -2   2    3.71    0.15
  -6  -2   2   15.52    0.34
  -4  -2   2   54.24    0.92
  -2  -2   2   60.80    1.01
   0  -2   2   19.96    0.56
   2  -2   2    3.57    0.10
   4  -2   2  182.38    2.78
   6  -2   2    0.62    0.05
   8  -2   2   21.91    0.36
  10  -2   2   22.39    0.38
  12  -2   2   24.08    0.41
  14  -2   2   10.99    0.33
  16  -2   2    0.04    0.05
  18  -2   2   33.50    1.09
  20  -2   2    0.36    0.09
  22  -2   2    2.95    0.24
  24  -2   2    5.45    0.32
 -23  -1   2    9.44    0.56
 -21  -1   2    1.39    0.24
 -19  -1   2    3.22    0.33
 -17  -1   2    7.95    0.30
 -15  -1   2    0.49    0.09
 -13  -1   2    7.25    0.18
 -11  -1   2   47.84    0.69
  -9  -1   2   51.42    0.72
  -7  -1   2   14.44    0.30
  -5  -1   2    4.09    0.12
  -3  -1   2  462.94    7.10
  -1  -1   2    5.68    0.14
   1  -1   2   15.07    0.27
   3  -1   2   90.84    1.13
   5  -1   2   82.19    1.04
   7  -1   2    9.71    0.19
   9  -1   2    3.08    0.10
  11  -1   2   18.19    0.33
  13  -1   2    4.49    0.14
  15  -1   2    1.64    0.15
  17  -1   2   19.03    0.50
  19  -1   2   14.79    0.46
  21  -1   2    0.95    0.14
  23  -1   2    0.36    0.11
  25  -1   2   28.42    1.17
 -26   0   2    1.67    0.32
 -24   0   2   73.00    2.16
 -22   0   2    0.32    0.14
 -20   0   2   14.40    0.65
 -18   0   2   81.97    2.11
 -16   0   2   65.81    1.75
 -14   0   2   24.14    0.54
 -12   0   2    6.82    0.16
 -10   0   2  477.76    5.82
  -8   0   2   10.89    0.19
  -6   0   2   47.04    0.76
  -4   0   2  296.33    6.32
  -2   0   2  327.50    7.13
   0   0   2   78.55    1.68
   2   0   2   16.72    0.28
   4   0   2  718.42   11.07
   6   0   2    9.91    0.23
   8   0   2   51.43    0.89
  10   0   2  153.29    2.40
  12   0   2  146.96    2.36
  14   0   2   23.33    0.55
  16   0   2    3.16    0.27
  18   0   2  155.74    2.52
  20   0   2    4.45    0.26
  22   0   2   12.01    0.43
  24   0   2   26.41    0.74
 -25   1   2    6.41    0.52
 -23   1   2    8.24    0.56
 -21   1   2    1.22    0.23
 -19   1   2    2.85    0.33
 -17   1   2    7.78    0.44
 -15   1   2    0.63    0.15
 -13   1   2    7.39    0.37
 -11   1   2   48.00    0.87
  -9   1   2   52.27    0.89
  -7   1   2   14.49    0.31
  -5   1   2    4.11    0.10
   1   1   2   15.35    0.42
   3   1   2   89.59    1.99
   5   1   2   83.14    1.29
   7   1   2    9.83    0.25
   9   1   2    3.23    0.14
  11   1   2   18.01    0.43
  13   1   2    3.99    0.19
  15   1   2    1.44    0.15
  17   1   2   18.21    0.50
  19   1   2   15.14    0.47
  21   1   2    1.24    0.16
  23   1   2    0.37    0.11
  25   1   2   27.86    1.18
 -24   2   2   16.49    0.84
 -22   2   2   -0.13    0.11
 -20   2   2    6.23    0.44
 -18   2   2   13.34    0.63
 -16   2   2   10.42    0.51
 -14   2   2   11.40    0.52
 -12   2   2    0.54    0.12
 -10   2   2   95.57    1.53
  -8   2   2    4.02    0.22
  -6   2   2   15.60    0.49
  -4   2   2   54.68    1.27
  -2   2   2   62.12    1.37
   2   2   2    3.77    0.20
   4   2   2  182.69    2.79
   6   2   2    0.64    0.07
   8   2   2   22.06    0.47
  10   2   2   22.57    0.74
  12   2   2   22.96    0.79
  14   2   2   10.91    0.35
  16   2   2    0.05    0.05
  18   2   2   31.03    0.75
  20   2   2    0.24    0.09
  22   2   2    2.92    0.25
  24   2   2    5.19    0.33
 -23   3   2   26.38    1.09
 -21   3   2    6.36    0.49
 -19   3   2    5.70    0.43
 -17   3   2   21.14    0.83
 -15   3   2    0.82    0.18
 -13   3   2   34.51    1.06
 -11   3   2  125.49    2.83
  -9   3   2  124.86    2.86
  -7   3   2   48.30    1.23
  -5   3   2    5.49    0.25
  -3   3   2  966.99   20.37
  -1   3   2    7.75    0.25
   1   3   2   48.05    0.79
   3   3   2  195.22    4.35
   5   3   2  181.61    2.77
   7   3   2   48.13    0.87
   9   3   2    2.74    0.15
  11   3   2   43.27    0.86
  13   3   2    6.69    0.27
  15   3   2   10.41    0.37
  17   3   2   54.28    1.11
  19   3   2   45.07    1.00
  21   3   2    3.66    0.29
  23   3   2    1.10    0.17
 -22   4   2    0.34    0.17
 -20   4   2    0.93    0.22
 -18   4   2   25.12    0.97
 -16   4   2   20.63    0.83
 -14   4   2    1.08    0.19
 -12   4   2    6.84    0.39
 -10   4   2   96.87    2.30
  -8   4   2    6.51    0.33
  -6   4   2    3.06    0.20
  -4   4   2   46.34    1.14
  -2   4   2   53.10    1.22
   0   4   2    7.08    0.24
   2   4   2   12.23    0.51
   4   4   2  154.39    2.44
   6   4   2    9.23    0.45
   8   4   2    3.49    0.29
  10   4   2   45.37    1.34
  12   4   2   42.61    1.33
  14   4   2    0.81    0.20
  16   4   2    2.55    0.34
  18   4   2   27.52    1.08
  20   4   2    3.82    0.46
  22   4   2    2.01    0.35
 -21   5   2    5.24    0.53
 -19   5   2    2.15    0.33
 -17   5   2    1.58    0.28
 -15   5   2    3.31    0.36
 -13   5   2   19.20    0.76
 -11   5   2    6.60    0.39
  -9   5   2   10.90    0.48
  -7   5   2   14.45    0.54
  -5   5   2    1.67    0.17
  -3   5   2  113.56    2.52
  -1   5   2    1.78    0.13
   1   5   2   15.45    0.62
   3   5   2   18.08    0.71
   5   5   2    9.27    0.49
   7   5   2   30.16    1.01
   9   5   2    5.30    0.38
  11   5   2    2.10    0.30
  13   5   2    4.20    0.44
  15   5   2    9.88    0.60
  17   5   2    4.44    0.47
  19   5   2    5.87    0.51
  21   5   2    1.30    0.30
 -20   6   2    8.27    0.60
 -18   6   2   34.10    1.25
 -16   6   2   27.29    1.04
 -14   6   2   10.05    0.55
 -12   6   2    1.49    0.24
 -10   6   2  155.98    3.56
  -8   6   2    1.02    0.17
  -6   6   2   22.94    0.73
  -4   6   2   59.65    1.57
   0   6   2   32.20    1.07
   2   6   2    1.59    0.24
   4   6   2  230.88    5.35
   6   6   2    1.40    0.26
   8   6   2   18.67    0.80
  10   6   2   51.92    1.60
  12   6   2   52.69    1.66
  14   6   2   10.09    0.64
  16   6   2    0.11    0.14
  18   6   2   58.37    1.89
  20   6   2    1.51    0.33
 -19   7   2    6.44    0.54
 -17   7   2    4.53    0.48
 -15   7   2    3.08    0.38
 -13   7   2    0.25    0.14
 -11   7   2   23.79    0.88
  -9   7   2   20.30    0.89
  -1   7   2    2.97    0.36
   1   7   2    6.22    0.44
   3   7   2   30.93    1.10
   5   7   2   30.39    1.12
   7   7   2    0.32    0.14
   9   7   2    8.55    0.56
  11   7   2    7.07    0.52
  13   7   2    9.32    0.62
  15   7   2    0.35    0.18
  17   7   2    9.04    0.67
  -4   8   2    4.31    0.45
  -2   8   2    3.75    0.42
   0   8   2    8.75    0.56
   2   8   2    5.20    0.44
   4   8   2   12.74    0.71
   6   8   2    3.13    0.41
   8   8   2   14.19    0.78
  10   8   2    2.13    0.36
  12   8   2    3.22    0.43
  14   8   2   10.11    0.70
  -7   9   2   12.81    0.74
  -5   9   2    0.19    0.15
  -3   9   2  119.02    3.22
  -1   9   2   -0.07    0.11
   1   9   2   12.74    0.74
   3   9   2   20.59    0.96
   5   9   2   21.28    1.00
   7   9   2   10.69    0.69
   9   9   2    0.09    0.14
  11   9   2    5.58    0.58
  -6  10   2    1.27    0.44
  -4  10   2    4.48    0.53
  -2  10   2    7.17    0.59
   0  10   2    1.16    0.30
   2  10   2    5.58    0.58
   4  10   2   20.76    1.06
  -4 -10   3    9.16    1.03
  -2 -10   3    8.00    0.61
   0 -10   3    6.97    0.57
   2 -10   3    7.17    0.56
 -11  -9   3    3.94    0.51
  -9  -9   3    6.96    0.33
  -7  -9   3    4.37    0.27
  -5  -9   3    8.18    0.34
  -3  -9   3    8.44    0.35
  -1  -9   3    0.89    0.13
   1  -9   3    8.98    0.33
   3  -9   3    2.97    0.20
   5  -9   3    2.70    0.18
 -16  -8   3    9.45    0.66
 -14  -8   3   15.61    0.54
 -12  -8   3    6.29    0.33
 -10  -8   3    7.47    0.35
  -8  -8   3   27.70    0.73
  -6  -8   3    2.18    0.20
  -4  -8   3    3.01    0.24
  -2  -8   3   44.92    0.96
   0  -8   3   36.94    0.83
   2  -8   3    6.42    0.28
   4  -8   3    1.37    0.15
   6  -8   3  113.67    1.94
   8  -8   3    2.23    0.23
  10  -8   3   10.36    0.43
  12  -8   3   17.26    0.59
 -17  -7   3    0.12    0.09
 -15  -7   3   70.68    1.46
 -13  -7   3    0.47    0.12
 -11  -7   3   10.71    0.41
  -9  -7   3   25.28    0.66
  -7  -7   3   20.42    0.57
  -5  -7   3   19.84    0.55
  -3  -7   3    0.97    0.13
  -1  -7   3   28.20    0.66
   1  -7   3    1.59    0.16
   3  -7   3   19.18    0.51
   5  -7   3   22.73    0.57
   7  -7   3   21.49    0.54
   9  -7   3   11.70    0.38
  11  -7   3    1.14    0.15
  13  -7   3   83.40    2.07
  15  -7   3    0.79    0.15
 -20  -6   3    2.00    0.32
 -18  -6   3    0.42    0.12
 -16  -6   3    1.63    0.18
 -14  -6   3    1.68    0.18
 -12  -6   3    2.50    0.22
 -10  -6   3   11.40    0.40
  -8  -6   3    2.09    0.18
  -6  -6   3    8.91    0.33
  -4  -6   3   12.73    0.40
  -2  -6   3   10.92    0.36
   0  -6   3   11.80    0.36
   2  -6   3    8.94    0.31
   4  -6   3    4.16    0.17
   6  -6   3    2.97    0.15
   8  -6   3    3.90    0.17
  10  -6   3    0.51    0.09
  12  -6   3    4.29    0.22
  14  -6   3    1.60    0.16
  16  -6   3    1.80    0.23
  18  -6   3    3.98    0.29
 -21  -5   3   18.10    0.81
 -19  -5   3   12.56    0.64
 -17  -5   3    2.59    0.23
 -15  -5   3  168.20    2.84
 -13  -5   3    1.90    0.18
 -11  -5   3    8.30    0.32
  -9  -5   3   85.30    1.51
  -7  -5   3   79.86    1.43
  -5  -5   3    4.34    0.21
  -3  -5   3   13.84    0.40
  -1  -5   3   86.84    1.44
   1  -5   3    9.42    0.30
   3  -5   3    9.05    0.24
   5  -5   3   77.39    1.11
   7  -5   3   62.44    0.92
   9  -5   3   14.95    0.33
  11  -5   3    3.18    0.19
  13  -5   3  208.06    3.33
  15  -5   3    0.24    0.08
  17  -5   3    9.31    0.36
  19  -5   3   23.64    0.63
 -22  -4   3   74.39    2.08
 -20  -4   3    1.63    0.26
 -18  -4   3    7.20    0.45
 -16  -4   3   33.15    0.76
 -14  -4   3   41.77    0.87
 -12  -4   3   21.28    0.43
 -10  -4   3    1.83    0.16
  -8  -4   3   95.37    1.70
  -6  -4   3    1.00    0.11
  -4  -4   3   43.87    0.84
  -2  -4   3   92.11    1.55
   0  -4   3   87.47    1.46
   2  -4   3   31.58    0.52
   4  -4   3    1.81    0.10
   6  -4   3  366.71    5.43
   8  -4   3    0.97    0.09
  10  -4   3   23.64    0.43
  12  -4   3   46.29    0.89
  14  -4   3   32.36    0.72
  16  -4   3   23.08    0.58
  18  -4   3    1.00    0.13
  20  -4   3   25.19    1.02
  22  -4   3    0.72    0.16
 -19  -3   3    0.02    0.09
 -17  -3   3    0.90    0.12
 -15  -3   3    0.66    0.08
 -13  -3   3    1.08    0.10
 -11  -3   3    3.26    0.13
  -9  -3   3    6.24    0.23
  -7  -3   3    4.71    0.19
  -5  -3   3    8.92    0.26
  -3  -3   3    9.49    0.27
  -1  -3   3    1.57    0.12
   1  -3   3    9.58    0.27
   3  -3   3    3.76    0.12
   5  -3   3    2.19    0.09
   7  -3   3    2.55    0.10
   9  -3   3    0.30    0.05
  11  -3   3    2.65    0.12
  13  -3   3    1.37    0.19
  15  -3   3    0.74    0.11
  17  -3   3    1.62    0.16
  19  -3   3    1.39    0.16
  21  -3   3    1.16    0.16
  23  -3   3    0.71    0.16
 -20  -2   3    1.62    0.25
 -18  -2   3    7.13    0.41
 -16  -2   3   53.00    1.02
 -14  -2   3   74.52    1.05
 -12  -2   3   19.93    0.46
 -10  -2   3   14.48    0.36
  -8  -2   3  178.24    2.81
  -6  -2   3    6.98    0.21
  -4  -2   3   28.93    0.55
  -2  -2   3  226.10    3.41
   0  -2   3  197.57    3.02
   2  -2   3   22.64    0.35
   4  -2   3   13.84    0.25
   6  -2   3  594.27    8.91
   8  -2   3    5.63    0.15
  10  -2   3   24.51    0.41
  12  -2   3   81.95    1.12
  14  -2   3   61.46    1.13
  16  -2   3   19.83    0.51
  18  -2   3    0.59    0.10
  20  -2   3   45.88    1.47
  22  -2   3    1.70    0.19
  24  -2   3    3.24    0.40
 -25  -1   3   12.04    0.69
 -23  -1   3   19.73    0.86
 -21  -1   3   26.96    0.99
 -19  -1   3   20.84    0.80
 -17  -1   3    1.47    0.21
 -15  -1   3  313.35    6.78
 -13  -1   3    3.16    0.12
 -11  -1   3   17.26    0.31
  -9  -1   3  147.14    2.29
  -7  -1   3  138.70    2.18
  -5  -1   3   36.58    0.63
  -3  -1   3   12.40    0.25
  -1  -1   3  195.46    2.81
   1  -1   3    9.87    0.31
   3  -1   3   31.88    0.44
   5  -1   3  174.77    2.16
   7  -1   3  143.99    2.23
   9  -1   3   22.72    0.37
  11  -1   3    5.31    0.15
  13  -1   3  363.04    4.52
  15  -1   3    0.32    0.07
  17  -1   3   21.50    0.56
  19  -1   3   27.50    0.69
  21  -1   3   29.38    0.74
  23  -1   3   12.92    0.48
  25  -1   3    0.11    0.16
 -26   0   3   -0.02    0.15
 -24   0   3    0.01    0.12
 -22   0   3   -0.01    0.09
 -20   0   3   -0.05    0.08
 -18   0   3    0.02    0.07
 -16   0   3    0.12    0.08
 -14   0   3   -0.02    0.05
 -12   0   3    0.05    0.03
 -10   0   3    0.07    0.02
  -8   0   3    0.07    0.02
  -6   0   3    0.09    0.03
  -4   0   3    0.04    0.03
   0   0   3    0.06    0.03
   2   0   3    0.09    0.03
   4   0   3    0.01    0.02
   6   0   3    0.16    0.03
   8   0   3    0.05    0.03
  10   0   3    0.01    0.03
  12   0   3    0.08    0.04
  14   0   3    0.19    0.06
  16   0   3   -0.02    0.04
  18   0   3    0.04    0.05
  20   0   3    0.03    0.06
  22   0   3    0.07    0.08
  24   0   3    0.00    0.08
 -25   1   3   11.05    0.68
 -23   1   3   19.61    0.88
 -21   1   3   28.14    1.04
 -19   1   3   19.98    0.82
 -17   1   3    2.11    0.28
 -15   1   3  307.86    6.81
 -13   1   3    3.84    0.27
 -11   1   3   16.07    0.58
  -9   1   3  147.51    2.30
  -7   1   3  142.78    2.16
  -5   1   3   36.88    0.83
   1   1   3   10.21    0.32
   3   1   3   31.30    0.80
   5   1   3  176.27    2.65
   7   1   3  143.56    2.23
   9   1   3   22.11    0.46
  11   1   3    5.28    0.20
  13   1   3  366.18    5.58
  15   1   3    0.10    0.06
  17   1   3   22.03    0.84
  19   1   3   28.91    0.71
  21   1   3   29.39    0.76
  23   1   3   13.13    0.49
  25   1   3    0.49    0.22
 -24   2   3    0.05    0.13
 -22   2   3  111.42    2.86
 -20   2   3    1.90    0.30
 -18   2   3    7.29    0.46
 -16   2   3   53.44    1.52
 -14   2   3   73.29    1.91
 -12   2   3   20.51    0.71
 -10   2   3   14.62    0.54
  -8   2   3  174.75    2.75
  -6   2   3    6.56    0.29
  -4   2   3   28.55    0.75
   2   2   3   22.56    0.65
   4   2   3   13.98    0.48
   6   2   3  596.95    8.98
   8   2   3    5.75    0.20
  10   2   3   24.98    0.54
  12   2   3   82.09    1.42
  14   2   3   61.77    1.15
  16   2   3   19.61    0.53
  18   2   3    0.57    0.11
  20   2   3   44.18    1.03
  22   2   3    1.87    0.21
  24   2   3    3.84    0.31
 -23   3   3    0.31    0.16
 -21   3   3    0.86    0.22
 -19   3   3    0.13    0.11
 -17   3   3    0.99    0.20
 -15   3   3    0.87    0.18
 -13   3   3    1.05    0.19
 -11   3   3    2.78    0.23
  -9   3   3    6.78    0.33
  -7   3   3    4.60    0.25
  -5   3   3    8.78    0.33
  -3   3   3    9.22    0.32
  -1   3   3    1.79    0.11
   1   3   3    9.36    0.40
   3   3   3    3.94    0.25
   5   3   3    2.08    0.12
   7   3   3    2.37    0.13
   9   3   3    0.33    0.11
  11   3   3    2.83    0.30
  13   3   3    1.72    0.25
  15   3   3    0.62    0.17
  17   3   3    1.38    0.25
  19   3   3    1.26    0.25
  21   3   3    1.33    0.27
  23   3   3    0.65    0.24
 -22   4   3   76.79    2.20
 -20   4   3    1.98    0.31
 -18   4   3    7.32    0.49
 -16   4   3   32.02    1.11
 -14   4   3   42.40    1.27
 -12   4   3   22.14    0.78
 -10   4   3    1.56    0.21
  -8   4   3   95.47    2.35
  -6   4   3    1.86    0.16
  -4   4   3   43.12    1.09
  -2   4   3   92.19    2.05
   0   4   3   85.00    1.88
   2   4   3   31.43    0.97
   4   4   3    2.25    0.26
   6   4   3  359.14    7.84
   8   4   3    0.88    0.17
  10   4   3   24.01    0.87
  12   4   3   44.75    1.39
  14   4   3   33.74    1.16
  16   4   3   23.49    0.94
  18   4   3    1.28    0.27
  20   4   3   25.56    1.11
  22   4   3    1.24    0.31
 -21   5   3   17.83    0.88
 -19   5   3   12.94    0.70
 -17   5   3    2.34    0.32
 -15   5   3  166.68    4.03
 -13   5   3    1.76    0.24
 -11   5   3    8.94    0.45
  -9   5   3   82.67    2.06
  -7   5   3   79.72    1.93
  -5   5   3    4.29    0.24
  -3   5   3   14.10    0.46
  -1   5   3   83.03    1.83
   1   5   3    9.83    0.49
   3   5   3    8.53    0.46
   5   5   3   78.25    2.06
   7   5   3   61.75    1.74
   9   5   3   14.64    0.68
  11   5   3    2.34    0.31
  13   5   3  204.49    4.93
  15   5   3    0.19    0.14
  17   5   3    9.61    0.62
  19   5   3   24.32    1.07
  21   5   3   23.79    1.09
 -20   6   3    1.98    0.34
 -18   6   3    0.04    0.13
 -16   6   3    1.50    0.27
 -14   6   3    1.72    0.27
 -12   6   3    2.34    0.28
 -10   6   3   11.02    0.52
  -8   6   3    1.58    0.21
  -6   6   3    8.91    0.40
   0   6   3   10.78    0.56
   2   6   3    9.02    0.51
   4   6   3    4.68    0.37
   6   6   3    2.51    0.32
   8   6   3    3.93    0.43
  10   6   3    0.32    0.14
  12   6   3    5.76    0.45
  14   6   3    1.36    0.28
  16   6   3    2.28    0.37
  18   6   3    4.17    0.51
 -19   7   3    9.91    0.67
 -17   7   3   -0.02    0.14
 -15   7   3   73.74    2.08
 -13   7   3    0.44    0.15
 -11   7   3   10.51    0.54
  -1   7   3   28.60    1.04
   1   7   3    1.74    0.27
   3   7   3   18.19    0.83
   5   7   3   22.88    0.96
   7   7   3   21.40    0.93
   9   7   3   12.94    0.70
  11   7   3    1.30    0.29
  13   7   3   86.60    2.49
  15   7   3    0.72    0.23
  17   7   3   12.22    0.78
  -4   8   3    2.99    0.40
  -2   8   3   43.52    1.50
   0   8   3   38.77    1.37
   2   8   3    6.56    0.50
   4   8   3    1.24    0.27
   6   8   3  111.11    3.03
   8   8   3    2.42    0.38
  10   8   3   10.76    0.69
  12   8   3   16.80    0.90
  14   8   3   14.30    0.84
  -7   9   3    4.95    0.55
  -5   9   3    8.06    0.60
  -3   9   3    9.42    0.63
  -1   9   3    0.92    0.26
   1   9   3    8.14    0.60
   3   9   3    2.03    0.35
   5   9   3    2.10    0.37
   7   9   3    2.95    0.43
   9   9   3    0.34    0.19
  -2  10   3    6.78    0.59
   0  10   3    6.99    0.60
   2  10   3    7.64    0.85
   0 -10   4   10.93    0.72
   2 -10   4    9.20    0.65
   4 -10   4    0.34    0.22
  -9  -9   4    8.67    0.44
  -7  -9   4   13.30    0.48
  -5  -9   4   13.30    0.47
  -3  -9   4   15.87    0.52
  -1  -9   4    0.37    0.10
   1  -9   4   66.49    1.32
   3  -9   4    0.22    0.09
   5  -9   4    7.84    0.33
   7  -9   4   20.93    0.73
   9  -9   4   18.49    0.66
 -16  -8   4    9.32    1.08
 -14  -8   4    1.98    0.26
 -12  -8   4    2.14    0.22
 -10  -8   4    6.35    0.33
  -8  -8   4    2.09    0.21
  -6  -8   4   21.00    0.61
  -4  -8   4    2.06    0.21
  -2  -8   4    6.57    0.30
   0  -8   4    5.88    0.28
   2  -8   4    2.32    0.21
   4  -8   4   16.12    0.49
   6  -8   4    5.39    0.27
   8  -8   4    0.59    0.14
  10  -8   4    5.42    0.35
  12  -8   4    8.57    0.44
 -17  -7   4    0.84    0.16
 -15  -7   4    4.60    0.31
 -13  -7   4   30.02    0.78
 -11  -7   4    3.71    0.29
  -9  -7   4    1.08    0.15
  -7  -7   4   12.77    0.44
  -5  -7   4   15.59    0.49
  -3  -7   4    4.81    0.26
  -1  -7   4    9.95    0.36
   1  -7   4   61.59    1.22
   3  -7   4    4.82    0.25
   5  -7   4    4.59    0.24
   7  -7   4   29.21    0.69
   9  -7   4   27.44    0.90
  11  -7   4    1.28    0.21
  13  -7   4    2.77    0.29
  15  -7   4   15.31    0.62
 -20  -6   4    8.09    0.56
 -18  -6   4    0.29    0.14
 -16  -6   4   14.39    0.50
 -14  -6   4   38.45    0.90
 -12  -6   4   33.11    0.80
 -10  -6   4   21.84    0.60
  -8  -6   4    0.62    0.11
  -6  -6   4  325.70    5.03
  -4  -6   4    0.49    0.10
  -2  -6   4   20.63    0.54
   0  -6   4   64.51    1.22
   2  -6   4   64.47    1.21
   4  -6   4   23.68    0.59
   6  -6   4    1.72    0.13
   8  -6   4   18.30    0.70
  10  -6   4    2.09    0.25
  12  -6   4    8.55    0.44
  14  -6   4   32.46    1.01
  16  -6   4   25.49    0.89
  18  -6   4    4.99    0.36
 -21  -5   4    4.18    0.43
 -19  -5   4    1.91    0.30
 -17  -5   4    9.72    0.39
 -15  -5   4    1.87    0.19
 -13  -5   4   23.28    0.61
 -11  -5   4    4.68    0.24
  -9  -5   4    9.77    0.35
  -7  -5   4   12.52    0.39
  -5  -5   4   13.63    0.41
  -3  -5   4   12.17    0.37
  -1  -5   4    4.77    0.22
   1  -5   4   56.64    1.09
   3  -5   4    3.25    0.18
   5  -5   4   24.25    0.46
   7  -5   4    7.88    0.23
   9  -5   4    7.93    0.23
  11  -5   4   16.14    0.45
  13  -5   4    0.50    0.14
  15  -5   4   18.81    0.72
  17  -5   4    1.38    0.23
  19  -5   4    3.28    0.34
 -18  -4   4    0.95    0.21
 -16  -4   4    1.51    0.16
 -14  -4   4   29.42    0.70
 -12  -4   4   25.66    0.62
 -10  -4   4    6.74    0.27
  -8  -4   4    3.25    0.18
  -6  -4   4  194.17    3.10
  -4  -4   4    3.70    0.18
  -2  -4   4    6.74    0.25
   0  -4   4   55.78    1.02
   2  -4   4   54.09    1.00
   4  -4   4    1.40    0.10
   6  -4   4   12.39    0.28
   8  -4   4   16.82    0.35
  10  -4   4    9.95    0.25
  12  -4   4    0.10    0.05
  14  -4   4   20.16    0.53
  16  -4   4   15.09    0.46
  18  -4   4    1.48    0.23
  20  -4   4    1.08    0.21
 -17  -3   4   11.65    0.54
 -15  -3   4    3.43    0.16
 -13  -3   4  216.32    2.71
 -11  -3   4    3.69    0.19
  -9  -3   4   26.24    0.58
  -7  -3   4  127.76    2.09
  -5  -3   4  152.27    2.40
  -3  -3   4   52.28    0.94
  -1  -3   4    7.33    0.24
   1  -3   4  537.84    8.15
   3  -3   4    3.93    0.12
   5  -3   4   40.15    0.61
   7  -3   4  124.92    2.00
   9  -3   4  114.32    1.51
  11  -3   4   20.70    0.40
  13  -3   4    2.57    0.17
  15  -3   4  136.02    2.20
  17  -3   4    2.93    0.22
  19  -3   4   10.14    0.38
  21  -3   4   28.46    1.00
 -22  -2   4    0.29    0.16
 -20  -2   4    3.02    0.33
 -18  -2   4    0.86    0.18
 -16  -2   4   12.74    0.55
 -14  -2   4   16.14    0.41
 -12  -2   4   18.55    0.36
 -10  -2   4   14.05    0.36
  -8  -2   4    0.42    0.07
  -6  -2   4  222.61    3.44
  -4  -2   4    1.78    0.10
  -2  -2   4   12.04    0.30
   0  -2   4   46.74    0.83
   2  -2   4   37.05    0.53
   4  -2   4   26.47    0.49
   6  -2   4    0.84    0.06
   8  -2   4   10.65    0.28
  10  -2   4    1.93    0.10
  12  -2   4    8.78    0.23
  14  -2   4   15.13    0.42
  16  -2   4   14.11    0.42
  18  -2   4    1.26    0.15
  20  -2   4    0.59    0.12
  22  -2   4   30.70    0.78
 -25  -1   4   -0.01    0.15
 -23  -1   4    1.93    0.31
 -21  -1   4   15.98    0.73
 -19  -1   4   11.35    0.56
 -17  -1   4    1.96    0.25
 -15  -1   4    2.18    0.25
 -13  -1   4   73.83    1.28
 -11  -1   4    1.69    0.11
  -9  -1   4    6.35    0.20
  -7  -1   4   49.23    0.85
  -5  -1   4   61.57    1.02
  -3  -1   4   15.55    0.32
  -1  -1   4    5.79    0.16
   1  -1   4  231.61    3.53
   3  -1   4    4.03    0.09
   5  -1   4    9.56    0.19
   7  -1   4   54.62    0.76
   9  -1   4   47.18    0.83
  11  -1   4    4.02    0.14
  13  -1   4    2.05    0.12
  15  -1   4   46.32    0.90
  17  -1   4    2.04    0.19
  19  -1   4    2.43    0.21
  21  -1   4    9.52    0.56
  23  -1   4    5.21    0.32
  25  -1   4    1.70    0.34
 -26   0   4   19.26    1.05
 -24   0   4    5.28    0.46
 -22   0   4    4.86    0.41
 -20   0   4   20.08    0.82
 -18   0   4    0.71    0.17
 -16   0   4   32.74    1.05
 -14   0   4  105.53    2.56
 -12   0   4  103.33    2.46
 -10   0   4   46.23    0.66
  -8   0   4    6.31    0.17
  -6   0   4  976.08   21.17
  -4   0   4   12.58    0.38
  -2   0   4   40.17    0.97
   0   0   4  263.88    5.53
   2   0   4  236.59    5.01
   4   0   4   63.80    1.01
   6   0   4    6.95    0.19
   8   0   4   74.30    1.24
  10   0   4    8.91    0.26
  12   0   4   16.43    0.42
  14   0   4   87.77    1.53
  16   0   4   69.91    1.30
  18   0   4    4.93    0.25
  20   0   4    2.39    0.31
  22   0   4  145.45    2.55
  24   0   4    0.49    0.14
 -25   1   4    0.27    0.18
 -23   1   4    2.40    0.37
 -21   1   4   15.31    0.74
 -19   1   4   10.81    0.58
 -17   1   4    2.00    0.27
 -15   1   4    1.99    0.25
 -13   1   4   76.49    1.90
 -11   1   4    2.05    0.22
  -9   1   4    6.20    0.18
  -7   1   4   49.07    1.14
  -5   1   4   63.43    1.40
   1   1   4  232.62    4.97
   3   1   4    3.91    0.19
   5   1   4    9.64    0.23
   7   1   4   53.72    0.93
   9   1   4   46.11    0.84
  11   1   4    3.92    0.18
  13   1   4    2.37    0.16
  15   1   4   45.71    0.91
  17   1   4    1.81    0.18
  19   1   4    2.07    0.20
  21   1   4    9.51    0.39
  23   1   4    4.91    0.33
  25   1   4    1.99    0.45
 -24   2   4    2.39    0.38
 -22   2   4    0.23    0.15
 -20   2   4    3.16    0.36
 -18   2   4    1.12    0.23
 -16   2   4   12.37    0.58
 -14   2   4   15.52    0.64
 -12   2   4   17.81    0.66
 -10   2   4   13.53    0.53
  -8   2   4    0.46    0.05
   2   2   4   37.37    0.99
   4   2   4   27.23    0.77
   6   2   4    0.81    0.08
   8   2   4   10.84    0.29
  10   2   4    1.88    0.21
  12   2   4    9.27    0.45
  14   2   4   15.15    0.64
  16   2   4   13.46    0.63
  18   2   4    1.38    0.25
  20   2   4    0.47    0.17
  22   2   4   31.16    1.17
  24   2   4    0.21    0.18
 -23   3   4    8.88    0.59
 -21   3   4   40.12    1.43
 -19   3   4   30.73    1.13
 -17   3   4   13.29    0.63
 -15   3   4    3.28    0.34
 -13   3   4  213.72    4.77
 -11   3   4    3.98    0.28
  -9   3   4   25.47    0.81
  -7   3   4  128.51    2.92
  -5   3   4  149.22    3.33
  -3   3   4   52.12    1.24
   1   3   4  533.24   11.55
   3   3   4    4.15    0.26
   5   3   4   41.32    1.15
   7   3   4  126.43    2.95
   9   3   4  114.55    2.74
  11   3   4   21.52    0.79
  13   3   4    2.83    0.32
  15   3   4  137.25    3.26
  17   3   4    3.65    0.39
  19   3   4    9.38    0.59
  21   3   4   28.18    1.13
  23   3   4   17.33    0.88
 -22   4   4    4.33    0.50
 -20   4   4    5.14    0.44
 -18   4   4    1.12    0.23
 -16   4   4    1.67    0.27
 -14   4   4   30.20    1.02
 -12   4   4   25.34    0.88
 -10   4   4    6.30    0.36
  -8   4   4    3.30    0.24
  -6   4   4  198.58    4.31
  -4   4   4    3.41    0.20
  -2   4   4    7.00    0.27
   0   4   4   54.09    0.95
   2   4   4   54.47    0.94
   4   4   4    1.76    0.24
   6   4   4   11.17    0.54
   8   4   4   17.27    0.70
  10   4   4    9.42    0.51
  12   4   4    0.08    0.09
  14   4   4   21.69    0.88
  16   4   4   16.05    0.77
  18   4   4    1.34    0.27
  20   4   4    1.07    0.27
  22   4   4   31.15    1.27
 -21   5   4    5.01    0.51
 -19   5   4    1.99    0.32
 -17   5   4    9.35    0.56
 -15   5   4    1.52    0.25
 -13   5   4   21.86    0.82
 -11   5   4    5.03    0.34
  -9   5   4    9.93    0.46
  -7   5   4   12.26    0.49
  -5   5   4   14.65    0.50
  -3   5   4   12.37    0.42
   1   5   4   58.16    1.63
   3   5   4    3.32    0.35
   5   5   4   25.80    0.92
   7   5   4    7.55    0.46
   9   5   4    7.63    0.48
  11   5   4   16.82    0.77
  13   5   4    0.60    0.18
  15   5   4   18.71    0.87
  17   5   4    1.19    0.28
  19   5   4    2.77    0.41
  21   5   4    4.21    0.53
 -20   6   4    8.16    0.59
 -18   6   4    0.23    0.16
 -16   6   4   15.30    0.73
 -14   6   4   36.48    1.24
 -12   6   4   31.75    1.07
 -10   6   4   21.19    0.77
  -8   6   4    0.35    0.12
  -6   6   4  322.02    6.93
   0   6   4   64.57    1.82
   2   6   4   62.16    1.82
   4   6   4   23.48    0.93
   6   6   4    1.59    0.26
   8   6   4   19.26    0.86
  10   6   4    2.51    0.33
  12   6   4    8.60    0.58
  14   6   4   31.02    1.22
  16   6   4   25.45    1.11
  18   6   4    4.29    0.52
 -17   7   4    0.98    0.26
 -15   7   4    4.01    0.42
 -13   7   4   29.80    1.05
  -3   7   4    4.92    0.41
  -1   7   4    9.05    0.55
   1   7   4   59.84    1.85
   3   7   4    4.97    0.42
   5   7   4    4.64    0.49
   7   7   4   30.30    1.16
   9   7   4   26.18    1.10
  11   7   4    1.33    0.29
  13   7   4    2.82    0.42
  15   7   4   14.41    0.83
  17   7   4    4.83    0.62
  -4   8   4    1.88    0.31
  -2   8   4    6.66    0.50
   0   8   4    3.84    0.45
   2   8   4    2.40    0.37
   4   8   4   16.54    0.84
   6   8   4    4.19    0.48
   8   8   4    0.39    0.19
  10   8   4    5.40    0.58
  12   8   4    9.07    0.66
  14   8   4    1.52    0.37
  -7   9   4   12.94    0.78
  -5   9   4   13.67    0.79
  -3   9   4   16.57    0.87
  -1   9   4    0.37    0.18
   1   9   4   63.83    2.09
   3   9   4    0.19    0.15
   5   9   4    8.82    0.65
   7   9   4   20.03    1.01
   9   9   4   18.76    0.97
  -9  -9   5    3.64    0.48
  -7  -9   5    6.24    0.36
  -5  -9   5    5.91    0.32
  -3  -9   5    5.07    0.31
  -1  -9   5    5.05    0.30
   1  -9   5    2.81    0.24
   3  -9   5    2.13    0.21
   5  -9   5    2.91    0.24
 -14  -8   5    3.91    0.50
 -12  -8   5   25.49    0.73
 -10  -8   5   22.29    0.66
  -8  -8   5    0.92    0.15
  -6  -8   5    6.20    0.32
  -4  -8   5   19.63    0.58
  -2  -8   5    2.98    0.25
   0  -8   5    2.81    0.24
   2  -8   5   23.43    0.65
   4  -8   5   18.65    0.55
   6  -8   5   10.03    0.39
   8  -8   5    1.31    0.23
  10  -8   5   89.07    2.29
 -17  -7   5    8.88    0.43
 -15  -7   5   11.72    0.47
 -13  -7   5    0.23    0.11
 -11  -7   5   25.32    0.72
  -9  -7   5    1.51    0.19
  -7  -7   5   19.59    0.58
  -5  -7   5   24.24    0.65
  -3  -7   5   19.48    0.56
  -1  -7   5   16.17    0.49
   1  -7   5    0.66    0.12
   3  -7   5  111.36    1.94
   5  -7   5    0.24    0.09
   7  -7   5   12.30    0.42
   9  -7   5   14.90    0.64
  11  -7   5   14.34    0.62
  13  -7   5   15.66    0.67
  15  -7   5    0.82    0.20
 -20  -6   5    0.80    0.27
 -18  -6   5    0.87    0.22
 -16  -6   5    1.23    0.18
 -14  -6   5    3.63    0.28
 -12  -6   5    7.33    0.34
 -10  -6   5    3.90    0.26
  -8  -6   5    9.32    0.36
  -6  -6   5   10.49    0.39
  -4  -6   5    1.76    0.18
  -2  -6   5   10.25    0.37
   0  -6   5    4.71    0.24
   2  -6   5    2.89    0.22
   4  -6   5    3.46    0.21
   6  -6   5    0.23    0.08
   8  -6   5    4.39    0.24
  10  -6   5    3.16    0.22
  12  -6   5    1.34    0.22
  14  -6   5    3.52    0.35
  16  -6   5    3.63    0.36
 -17  -5   5   27.79    1.03
 -15  -5   5   11.60    0.43
 -13  -5   5    9.76    0.38
 -11  -5   5   61.57    1.26
  -9  -5   5    2.38    0.21
  -7  -5   5    9.35    0.34
  -5  -5   5   91.89    1.64
  -3  -5   5   73.02    1.35
  -1  -5   5   10.03    0.34
   1  -5   5    5.54    0.25
   3  -5   5  287.62    4.40
   5  -5   5    2.74    0.19
   7  -5   5   13.65    0.41
   9  -5   5   47.32    1.34
  11  -5   5   38.30    0.83
  13  -5   5   12.59    0.58
  15  -5   5    1.34    0.22
  17  -5   5   39.83    1.30
  19  -5   5    1.47    0.26
 -16  -4   5    0.61    0.25
 -14  -4   5   10.32    0.29
 -12  -4   5   51.16    1.02
 -10  -4   5   41.48    0.87
  -8  -4   5   24.74    0.59
  -6  -4   5    1.75    0.16
  -4  -4   5   60.08    1.09
  -2  -4   5    3.32    0.18
   0  -4   5   25.46    0.60
   2  -4   5   72.26    1.29
   4  -4   5   66.42    0.95
   6  -4   5   19.70    0.39
   8  -4   5    2.02    0.16
  10  -4   5  244.03    3.84
  12  -4   5    0.30    0.08
  14  -4   5   20.53    0.77
  16  -4   5   20.59    0.79
  18  -4   5   20.14    0.81
  20  -4   5   15.10    0.71
 -15  -3   5    0.88    0.18
 -13  -3   5    4.06    0.29
 -11  -3   5    0.53    0.09
  -9  -3   5    3.12    0.17
  -7  -3   5    5.78    0.23
  -5  -3   5    5.84    0.22
  -3  -3   5    5.68    0.22
  -1  -3   5    4.64    0.20
   1  -3   5    2.40    0.14
   3  -3   5    1.38    0.13
   5  -3   5    2.00    0.10
   7  -3   5    0.32    0.05
   9  -3   5    2.29    0.14
  11  -3   5    0.73    0.08
  13  -3   5    1.06    0.11
  15  -3   5    2.18    0.27
  17  -3   5    0.78    0.19
  19  -3   5    1.36    0.23
  21  -3   5    0.68    0.19
 -22  -2   5   12.64    0.67
 -20  -2   5    1.40    0.25
 -18  -2   5  177.80    4.16
 -16  -2   5    1.75    0.23
 -14  -2   5    7.87    0.41
 -12  -2   5   94.74    2.24
 -10  -2   5   86.67    1.46
  -8  -2   5   11.79    0.32
  -6  -2   5   16.52    0.39
  -4  -2   5  119.09    1.81
  -2  -2   5    7.53    0.35
   0  -2   5   17.68    0.40
   2  -2   5  148.06    2.31
   4  -2   5  122.87    1.57
   6  -2   5   22.51    0.37
   8  -2   5    5.39    0.16
  10  -2   5  394.67    5.95
  12  -2   5    0.58    0.07
  14  -2   5   18.68    0.39
  16  -2   5   40.60    0.86
  18  -2   5   37.71    1.20
  20  -2   5   11.15    0.58
  22  -2   5    0.55    0.18
 -25  -1   5   59.68    1.86
 -23  -1   5    1.66    0.30
 -21  -1   5    4.99    0.41
 -19  -1   5   33.58    1.13
 -17  -1   5   43.89    1.33
 -15  -1   5   18.48    0.71
 -13  -1   5    6.01    0.35
 -11  -1   5  117.80    2.86
  -9  -1   5    0.97    0.14
  -7  -1   5   38.30    0.70
  -5  -1   5  153.26    2.38
  -3  -1   5  126.24    1.99
  -1  -1   5   30.56    0.57
   1  -1   5    9.26    0.24
   3  -1   5  566.56    8.47
   5  -1   5    4.35    0.12
   7  -1   5   21.76    0.36
   9  -1   5   91.15    1.23
  11  -1   5   68.92    1.20
  13  -1   5   29.67    0.51
  15  -1   5    0.43    0.07
  17  -1   5   58.76    1.17
  19  -1   5    1.57    0.17
  21  -1   5    7.30    0.49
  23  -1   5   15.59    0.76
 -24   0   5   -0.10    0.10
 -22   0   5   -0.02    0.10
 -20   0   5   -0.09    0.08
 -18   0   5    0.00    0.08
 -16   0   5   -0.04    0.05
 -14   0   5    0.08    0.07
 -12   0   5    0.02    0.06
 -10   0   5    0.10    0.06
  -8   0   5    0.14    0.06
  -6   0   5   -0.03    0.02
  -4   0   5    0.87    0.11
  -2   0   5    0.12    0.05
   0   0   5    0.03    0.02
   2   0   5    0.06    0.02
   4   0   5    0.03    0.02
   6   0   5    0.03    0.03
   8   0   5    0.02    0.03
  10   0   5    0.04    0.04
  12   0   5    0.00    0.04
  14   0   5    0.00    0.04
  16   0   5    0.02    0.04
  18   0   5    0.14    0.07
  20   0   5    0.07    0.08
  22   0   5   -0.02    0.09
  24   0   5    0.37    0.19
 -25   1   5   58.55    2.06
 -23   1   5    1.29    0.28
 -21   1   5    4.89    0.41
 -19   1   5   34.44    1.16
 -17   1   5   42.78    1.36
 -15   1   5   18.79    0.73
 -13   1   5    6.48    0.37
 -11   1   5  124.78    2.99
  -9   1   5    0.89    0.10
  -7   1   5   38.08    0.94
  -5   1   5  152.12    3.33
  -3   1   5  126.10    2.81
   1   1   5    9.05    0.31
   3   1   5  556.93   11.85
   5   1   5    4.55    0.22
   7   1   5   21.79    0.44
   9   1   5   89.95    2.14
  11   1   5   70.14    1.73
  13   1   5   28.75    0.91
  15   1   5    0.42    0.13
  17   1   5   59.53    1.69
  19   1   5    1.76    0.27
  21   1   5    7.67    0.52
  23   1   5   15.60    0.80
 -24   2   5   15.39    0.82
 -22   2   5   12.78    0.71
 -20   2   5    1.91    0.29
 -18   2   5  177.06    4.23
 -16   2   5    1.96    0.26
 -14   2   5    8.23    0.45
 -12   2   5   96.52    2.33
 -10   2   5   86.71    2.11
  -8   2   5   11.97    0.29
   2   2   5  145.61    3.26
   4   2   5  123.32    2.79
   6   2   5   22.87    0.70
   8   2   5    5.59    0.31
  10   2   5  376.32    8.48
  12   2   5    0.90    0.16
  14   2   5   18.10    0.72
  16   2   5   40.48    1.27
  18   2   5   39.00    1.26
  20   2   5   10.28    0.61
  22   2   5    0.42    0.18
  24   2   5   11.58    0.78
 -23   3   5    0.38    0.18
 -21   3   5    0.19    0.15
 -19   3   5    0.86    0.22
 -17   3   5    0.37    0.13
 -15   3   5    0.80    0.18
 -13   3   5    4.02    0.31
 -11   3   5    0.57    0.13
  -9   3   5    2.78    0.23
  -7   3   5    5.57    0.30
  -5   3   5    5.54    0.28
   1   3   5    2.71    0.21
   3   3   5    1.19    0.17
   5   3   5    2.07    0.24
   7   3   5    0.34    0.11
   9   3   5    2.61    0.27
  11   3   5    0.77    0.17
  13   3   5    1.09    0.21
  15   3   5    2.61    0.32
  17   3   5    2.39    0.34
  19   3   5    1.43    0.28
  21   3   5    1.07    0.26
  23   3   5    0.45    0.21
 -22   4   5   12.88    0.73
 -20   4   5    0.35    0.17
 -18   4   5  115.53    3.04
 -16   4   5    0.85    0.20
 -14   4   5    9.60    0.51
 -12   4   5   51.19    1.44
 -10   4   5   40.62    1.20
  -8   4   5   24.12    0.79
  -6   4   5    1.48    0.18
  -4   4   5   62.23    1.43
  -2   4   5    3.42    0.20
   0   4   5   27.84    0.89
   2   4   5   72.14    1.87
   4   4   5   67.56    1.77
   6   4   5   19.14    0.75
   8   4   5    1.96    0.26
  10   4   5  241.68    5.55
  12   4   5    0.38    0.14
  14   4   5   21.77    0.88
  16   4   5   21.28    0.90
  18   4   5   22.06    0.95
  20   4   5   15.93    0.83
  22   4   5    0.07    0.17
 -21   5   5    4.04    0.47
 -19   5   5   17.82    0.84
 -17   5   5   26.29    1.03
 -15   5   5   11.66    0.61
 -13   5   5    9.37    0.51
 -11   5   5   62.90    1.74
  -9   5   5    2.46    0.27
  -7   5   5    9.28    0.42
  -5   5   5   90.54    2.17
  -3   5   5   73.63    1.73
  -1   5   5    9.50    0.49
   1   5   5    6.45    0.40
   3   5   5  284.46    6.32
   5   5   5    3.05    0.34
   7   5   5   13.93    0.66
   9   5   5   47.07    1.47
  11   5   5   38.47    1.31
  13   5   5   11.61    0.65
  15   5   5    1.94    0.32
  17   5   5   41.15    1.48
  19   5   5    2.36    0.39
 -20   6   5    1.62    0.36
 -18   6   5    0.62    0.21
 -16   6   5    0.66    0.19
 -14   6   5    3.42    0.37
 -12   6   5    6.94    0.44
 -10   6   5    4.46    0.32
  -8   6   5    9.16    0.45
  -2   6   5   10.33    0.56
   0   6   5    4.33    0.36
   2   6   5    3.64    0.40
   4   6   5    3.36    0.38
   6   6   5    0.21    0.13
   8   6   5    4.81    0.41
  10   6   5    3.25    0.41
  12   6   5    1.45    0.29
  14   6   5    3.24    0.43
  16   6   5    4.02    0.50
  18   6   5    2.45    0.41
 -17   7   5   10.81    0.64
 -15   7   5   11.07    0.63
 -13   7   5    0.30    0.17
  -3   7   5   19.61    0.87
  -1   7   5   15.53    0.76
   1   7   5    0.64    0.19
   3   7   5  113.35    2.92
   5   7   5    0.34    0.16
   7   7   5   12.56    0.71
   9   7   5   16.52    0.83
  11   7   5   13.11    0.76
  13   7   5   15.40    0.86
  15   7   5    1.08    0.29
  -4   8   5   20.19    0.94
  -2   8   5    3.70    0.46
   0   8   5    3.56    0.45
   2   8   5   23.47    1.04
   4   8   5   19.55    0.93
   6   8   5   10.76    0.68
   8   8   5    1.89    0.35
  10   8   5   88.69    2.62
  12   8   5    0.07    0.15
  -7   9   5    6.44    0.55
  -5   9   5    6.22    0.53
  -3   9   5    5.99    0.61
  -1   9   5    5.09    0.57
   1   9   5    3.13    0.45
   3   9   5    1.50    0.32
   5   9   5    2.69    0.44
   7   9   5    0.39    0.22
  -7  -9   6    0.00    0.15
  -5  -9   6    8.05    0.42
  -3  -9   6   15.94    0.55
  -1  -9   6   16.30    0.54
   1  -9   6    9.82    0.42
   3  -9   6    0.88    0.17
   5  -9   6    7.57    0.57
 -14  -8   6    2.82    0.62
 -12  -8   6    4.59    0.32
 -10  -8   6    2.16    0.24
  -8  -8   6    2.89    0.27
  -6  -8   6    5.02    0.31
  -4  -8   6    3.39    0.28
  -2  -8   6   12.27    0.46
   0  -8   6    2.77    0.24
   2  -8   6   12.70    0.46
   4  -8   6    3.01    0.25
   6  -8   6    2.52    0.23
   8  -8   6   10.39    0.56
  10  -8   6    2.06    0.28
 -17  -7   6   12.29    0.74
 -15  -7   6    9.55    0.43
 -13  -7   6    3.60    0.30
 -11  -7   6    1.44    0.19
  -9  -7   6   57.83    1.23
  -7  -7   6    1.23    0.17
  -5  -7   6    3.68    0.28
  -3  -7   6   20.38    0.59
  -1  -7   6   20.61    0.59
   1  -7   6    1.72    0.19
   3  -7   6   11.58    0.42
   5  -7   6    8.26    0.35
   7  -7   6    7.55    0.34
   9  -7   6    0.41    0.12
  11  -7   6   12.69    0.62
  13  -7   6   10.33    0.57
 -18  -6   6    1.14    0.34
 -16  -6   6   58.22    1.24
 -14  -6   6    0.76    0.15
 -12  -6   6   11.31    0.44
 -10  -6   6   31.86    0.79
  -8  -6   6   37.90    0.88
  -6  -6   6   26.90    0.70
  -4  -6   6    1.52    0.18
  -2  -6   6  188.16    3.13
   0  -6   6    0.56    0.12
   2  -6   6   19.60    0.55
   4  -6   6   55.85    1.14
   6  -6   6   47.00    1.00
   8  -6   6   11.84    0.41
  10  -6   6    1.23    0.22
  12  -6   6   64.29    1.76
  14  -6   6    1.04    0.22
  16  -6   6    7.39    0.48
 -15  -5   6    4.03    0.42
 -13  -5   6    8.47    0.36
 -11  -5   6    0.73    0.13
  -9  -5   6   57.75    1.16
  -7  -5   6    1.57    0.17
  -5  -5   6    7.31    0.30
  -3  -5   6   13.87    0.43
  -1  -5   6    7.60    0.31
   1  -5   6   21.54    0.56
   3  -5   6    3.83    0.22
   5  -5   6    2.57    0.21
   7  -5   6    4.48    0.24
   9  -5   6   12.73    0.42
  11  -5   6    5.85    0.28
  13  -5   6    7.56    0.46
  15  -5   6    2.62    0.33
  17  -5   6    0.80    0.20
 -14  -4   6    1.53    0.24
 -12  -4   6    2.20    0.28
 -10  -4   6   19.00    0.53
  -8  -4   6   25.87    0.62
  -6  -4   6    8.86    0.32
  -4  -4   6    8.79    0.31
  -2  -4   6  115.58    1.99
   0  -4   6    4.38    0.22
   2  -4   6    5.03    0.23
   4  -4   6   49.27    0.98
   6  -4   6   40.32    0.84
   8  -4   6    0.21    0.07
  10  -4   6    4.93    0.34
  12  -4   6   32.41    0.73
  14  -4   6    4.32    0.34
  16  -4   6    1.02    0.21
  18  -4   6    8.54    0.52
  20  -4   6    5.21    0.43
 -19  -3   6   18.01    0.77
 -17  -3   6   47.54    1.42
 -15  -3   6   42.02    1.27
 -13  -3   6   26.42    0.88
 -11  -3   6    1.69    0.22
  -9  -3   6  487.71   10.23
  -7  -3   6    3.55    0.19
  -5  -3   6   19.94    0.49
  -3  -3   6  127.96    2.09
  -1  -3   6  122.55    2.02
   1  -3   6   39.59    0.80
   3  -3   6    5.73    0.23
   5  -3   6   47.71    0.95
   7  -3   6    4.57    0.21
   9  -3   6   16.81    0.45
  11  -3   6   70.14    1.86
  13  -3   6   56.65    1.09
  15  -3   6    5.50    0.38
  17  -3   6    1.73    0.26
  19  -3   6  147.05    3.52
  21  -3   6    0.38    0.17
 -22  -2   6    3.38    0.40
 -20  -2   6    4.16    0.42
 -18  -2   6    0.37    0.14
 -16  -2   6   29.98    0.99
 -12  -2   6    6.67    0.36
 -10  -2   6   21.91    0.72
  -8  -2   6   25.13    0.80
  -6  -2   6   12.28    0.33
  -4  -2   6    0.97    0.10
  -2  -2   6  117.02    1.95
   0  -2   6    0.47    0.07
   2  -2   6   19.63    0.45
   4  -2   6   24.62    0.54
   6  -2   6   19.94    0.47
   8  -2   6   13.14    0.37
  10  -2   6    0.09    0.05
  12  -2   6   37.95    1.11
  14  -2   6    0.61    0.11
  16  -2   6    2.39    0.30
  18  -2   6    8.17    0.49
  20  -2   6    4.64    0.41
  22  -2   6    3.85    0.44
 -25  -1   6    1.61    0.33
 -23  -1   6    3.68    0.44
 -21  -1   6    0.11    0.13
 -19  -1   6    3.76    0.40
 -17  -1   6   16.97    0.73
 -15  -1   6   15.00    0.65
 -11  -1   6    1.14    0.16
  -9  -1   6  177.71    3.90
  -7  -1   6    2.19    0.18
  -5  -1   6    4.90    0.18
  -3  -1   6   51.00    1.31
  -1  -1   6   49.61    0.87
   1  -1   6    8.36    0.25
   3  -1   6    4.80    0.18
   5  -1   6   19.67    0.33
   7  -1   6    2.87    0.11
   9  -1   6    3.08    0.12
  11  -1   6   25.94    0.47
  13  -1   6   19.13    0.53
  15  -1   6    1.25    0.19
  19  -1   6   44.96    1.78
  21  -1   6    0.03    0.12
  23  -1   6    2.18    0.33
 -24   0   6   31.46    1.22
 -22   0   6   22.20    0.95
 -20   0   6    8.18    0.52
 -18   0   6    2.61    0.32
 -16   0   6  153.16    3.52
 -14   0   6    4.13    0.32
 -10   0   6  111.65    2.52
  -8   0   6  135.16    3.01
  -6   0   6   49.78    1.27
  -4   0   6    8.10    0.34
  -2   0   6  576.76   12.46
   0   0   6    4.11    0.13
   2   0   6   49.33    0.83
   4   0   6  166.87    2.09
   6   0   6  135.78    2.93
   8   0   6   27.38    0.75
  10   0   6    5.59    0.28
  12   0   6  177.70    3.85
  14   0   6    4.63    0.22
  16   0   6    8.70    0.32
 -23   1   6    2.92    0.40
 -21   1   6    0.12    0.13
 -19   1   6    3.61    0.40
 -17   1   6   17.16    0.75
 -15   1   6   14.97    0.66
 -13   1   6    7.23    0.41
  -9   1   6  172.77    3.81
  -7   1   6    2.25    0.16
  -5   1   6    4.82    0.24
  -3   1   6   52.09    1.27
   1   1   6    8.36    0.31
   3   1   6    4.93    0.22
   5   1   6   19.32    0.59
   7   1   6    2.99    0.19
   9   1   6    3.09    0.21
  11   1   6   25.81    0.82
  13   1   6   19.74    0.71
  15   1   6    1.22    0.20
  17   1   6    0.96    0.19
  19   1   6   44.87    1.42
 -22   2   6    3.27    0.41
 -20   2   6    4.77    0.41
 -18   2   6    0.37    0.15
 -16   2   6   31.30    1.05
 -14   2   6    1.83    0.25
 -12   2   6    7.37    0.41
 -10   2   6   19.38    0.72
  -8   2   6   24.37    0.68
  -6   2   6   12.19    0.41
   0   2   6    0.30    0.08
   2   2   6   19.46    0.62
   4   2   6   25.03    0.75
   6   2   6   18.88    0.64
   8   2   6   13.17    0.51
  10   2   6    0.18    0.09
  12   2   6   38.24    1.10
  14   2   6    0.89    0.18
  16   2   6    2.56    0.32
  18   2   6    8.77    0.52
  20   2   6    6.03    0.46
  22   2   6    3.07    0.43
 -23   3   6    9.94    0.80
 -21   3   6    0.53    0.19
 -19   3   6   18.49    0.84
 -17   3   6   48.08    1.50
 -15   3   6   43.61    1.35
 -13   3   6   27.02    0.92
 -11   3   6    1.22    0.20
  -9   3   6  487.03   10.19
  -7   3   6    4.09    0.27
   1   3   6   40.16    1.13
   3   3   6    5.45    0.32
   5   3   6   47.75    1.36
   7   3   6    4.00    0.29
   9   3   6   16.43    0.66
  11   3   6   72.89    1.91
  13   3   6   54.84    1.59
  15   3   6    6.04    0.43
  17   3   6    1.55    0.27
  19   3   6  146.10    3.61
  21   3   6    0.35    0.18
 -22   4   6    6.08    0.65
 -20   4   6    0.12    0.14
 -18   4   6    3.28    0.39
 -16   4   6   32.42    1.12
 -14   4   6    1.71    0.26
 -12   4   6    1.98    0.27
 -10   4   6   19.95    0.73
  -8   4   6   26.32    0.84
  -6   4   6    9.07    0.41
  -4   4   6    9.54    0.39
   0   4   6    4.60    0.32
   2   4   6    4.75    0.34
   4   4   6   48.66    1.42
   6   4   6   40.31    1.24
   8   4   6    0.34    0.13
  10   4   6    5.07    0.38
  12   4   6   32.02    1.10
  14   4   6    3.84    0.40
  16   4   6    1.20    0.25
  18   4   6    9.44    0.60
  20   4   6    4.94    0.51
 -19   5   6    9.25    0.60
 -17   5   6    4.08    0.44
 -15   5   6    3.54    0.39
 -13   5   6    8.07    0.48
 -11   5   6    0.66    0.16
  -9   5   6   57.66    1.56
  -7   5   6    1.18    0.18
  -5   5   6    7.55    0.36
  -3   5   6   14.35    0.51
  -1   5   6    7.41    0.45
   1   5   6   22.31    0.84
   3   5   6    4.20    0.35
   5   5   6    2.70    0.33
   7   5   6    5.31    0.40
   9   5   6   12.50    0.65
  11   5   6    6.12    0.46
  13   5   6    7.42    0.52
  15   5   6    2.29    0.35
  17   5   6    0.93    0.24
  19   5   6   19.50    0.96
 -18   6   6    0.78    0.22
 -16   6   6   59.16    1.74
 -14   6   6    0.63    0.19
 -12   6   6   11.52    0.58
 -10   6   6   31.91    1.04
  -8   6   6   37.59    1.18
  -2   6   6  184.54    4.48
   0   6   6    0.65    0.17
   2   6   6   19.04    0.83
   4   6   6   59.79    1.75
   6   6   6   47.80    1.53
   8   6   6   10.35    0.62
  10   6   6    1.01    0.24
  12   6   6   65.20    1.96
  14   6   6    1.33    0.29
  16   6   6    7.61    0.59
  18   6   6   14.03    0.93
 -17   7   6   11.51    0.69
 -15   7   6   10.11    0.62
  -3   7   6   20.37    0.91
  -1   7   6   19.77    0.89
   1   7   6    1.05    0.23
   3   7   6   11.41    0.66
   5   7   6    8.58    0.58
   7   7   6    7.93    0.56
   9   7   6    0.34    0.17
  11   7   6   12.49    0.75
  13   7   6   10.40    0.70
  15   7   6    2.02    0.38
  -4   8   6    2.98    0.42
  -2   8   6   11.63    0.70
   0   8   6    2.67    0.39
   2   8   6   12.03    0.73
   4   8   6    2.69    0.40
   6   8   6    2.43    0.40
   8   8   6   11.75    0.74
  10   8   6    1.54    0.32
  12   8   6    5.93    0.68
  -7   9   6   -0.02    0.13
  -5   9   6    6.95    0.59
  -3   9   6   16.89    0.91
  -1   9   6   14.45    0.86
   1   9   6    9.79    0.69
   3   9   6    0.37    0.22
   5   9   6    7.42    0.61
  -3  -9   7    3.24    0.45
  -1  -9   7    2.12    0.37
   1  -9   7    2.25    0.37
   3  -9   7    0.25    0.20
   5  -9   7    3.31    0.45
 -12  -8   7    0.49    0.22
 -10  -8   7    3.30    0.29
  -8  -8   7   27.91    0.80
  -6  -8   7   20.47    0.65
  -4  -8   7    3.50    0.29
  -2  -8   7    1.44    0.19
   0  -8   7   80.63    1.58
   2  -8   7    1.11    0.18
   4  -8   7    6.16    0.33
   6  -8   7   15.80    0.53
   8  -8   7   12.92    0.66
 -15  -7   7   13.16    0.52
 -13  -7   7   10.12    0.45
 -11  -7   7   10.57    0.45
  -9  -7   7    0.58    0.14
  -7  -7   7   11.40    0.44
  -5  -7   7    1.83    0.20
  -3  -7   7   13.49    0.48
  -1  -7   7   17.40    0.55
   1  -7   7   15.68    0.52
   3  -7   7   11.77    0.44
   5  -7   7    0.95    0.16
   7  -7   7   88.26    1.68
   9  -7   7    0.67    0.15
  11  -7   7   12.68    0.65
  13  -7   7    9.58    0.71
 -16  -6   7    5.80    0.49
 -14  -6   7    0.60    0.21
 -12  -6   7    2.28    0.34
 -10  -6   7    6.12    0.32
  -8  -6   7    6.53    0.32
  -6  -6   7    5.50    0.29
  -4  -6   7    6.15    0.30
  -2  -6   7    3.52    0.27
   0  -6   7    1.36    0.16
   2  -6   7    3.14    0.25
   4  -6   7    0.58    0.12
   6  -6   7    3.83    0.28
   8  -6   7    1.04    0.16
  10  -6   7    1.62    0.19
  12  -6   7    5.53    0.43
  14  -6   7    1.57    0.28
 -15  -5   7   36.47    1.25
 -13  -5   7   32.29    1.14
 -11  -5   7    2.44    0.32
  -9  -5   7   10.06    0.56
  -7  -5   7   33.44    0.77
  -5  -5   7    2.56    0.22
  -3  -5   7    6.81    0.30
  -1  -5   7   54.31    1.11
   1  -5   7   45.30    0.96
   3  -5   7   16.45    0.49
   5  -5   7    2.12    0.28
   7  -5   7  217.37    3.51
   9  -5   7    0.34    0.10
  11  -5   7    9.58    0.38
  13  -5   7   32.53    1.12
  15  -5   7   29.45    1.09
  17  -5   7    5.59    0.45
 -14  -4   7   46.13    1.45
 -12  -4   7    0.64    0.18
 -10  -4   7   24.93    0.90
  -8  -4   7   49.52    1.47
  -6  -4   7   38.63    1.20
  -4  -4   7   19.92    0.53
  -2  -4   7    1.28    0.15
   0  -4   7  242.93    3.80
   2  -4   7    1.48    0.15
   4  -4   7   12.24    0.40
   6  -4   7   43.45    0.91
   8  -4   7   36.17    0.80
  10  -4   7   24.53    0.63
  12  -4   7    0.10    0.06
  14  -4   7   41.60    1.37
  16  -4   7    1.24    0.24
  18  -4   7    9.09    0.56
 -19  -3   7    0.33    0.16
 -17  -3   7    1.21    0.22
 -13  -3   7    1.15    0.21
 -11  -3   7    3.17    0.28
  -9  -3   7    4.85    0.34
  -7  -3   7    0.59    0.15
  -5  -3   7    4.00    0.30
  -3  -3   7    2.24    0.26
  -1  -3   7    1.15    0.13
   1  -3   7    2.04    0.17
   3  -3   7    0.09    0.06
   5  -3   7    2.41    0.20
   7  -3   7    1.83    0.17
   9  -3   7    0.65    0.11
  11  -3   7    1.81    0.17
  13  -3   7    2.02    0.19
  15  -3   7    2.04    0.30
  17  -3   7    1.27    0.24
  19  -3   7    0.65    0.21
  21  -3   7    0.18    0.25
 -22  -2   7   18.00    0.84
 -20  -2   7   26.48    1.02
 -18  -2   7   13.34    0.66
 -16  -2   7    6.83    0.44
 -12  -2   7    0.94    0.17
 -10  -2   7   18.16    0.67
  -8  -2   7  104.65    2.49
  -6  -2   7   74.49    1.92
  -4  -2   7   13.91    0.55
  -2  -2   7    8.87    0.43
   0  -2   7  404.54    8.41
   2  -2   7    3.78    0.27
   4  -2   7   13.50    0.53
   6  -2   7   77.90    1.97
   8  -2   7   66.34    1.72
  10  -2   7   22.86    0.79
  12  -2   7    1.44    0.21
  14  -2   7   66.53    1.88
  22  -2   7   20.69    1.31
 -23  -1   7    0.59    0.21
 -21  -1   7   98.20    2.69
 -19  -1   7    0.63    0.19
 -17  -1   7    5.15    0.39
 -15  -1   7   53.64    1.57
 -11  -1   7   14.11    0.55
  -9  -1   7    5.37    0.32
  -7  -1   7   64.11    1.55
  -5  -1   7    3.78    0.25
  -3  -1   7   23.50    0.76
  -1  -1   7  104.69    2.45
   1  -1   7   97.38    2.33
   3  -1   7   23.45    0.75
   5  -1   7    4.02    0.27
   7  -1   7  377.31    8.20
   9  -1   7    0.03    0.06
  11  -1   7   23.68    0.81
  13  -1   7   41.92    1.21
 -24   0   7   -0.03    0.15
 -22   0   7    0.03    0.12
 -20   0   7    0.18    0.13
 -18   0   7   -0.08    0.08
 -16   0   7    0.15    0.10
 -14   0   7    0.01    0.07
 -10   0   7    0.02    0.06
  -8   0   7    0.07    0.06
  -6   0   7    0.18    0.07
  -4   0   7    0.01    0.05
  -2   0   7    0.04    0.05
   0   0   7    0.11    0.07
   2   0   7    0.02    0.03
   4   0   7    0.03    0.05
   6   0   7    0.12    0.07
   8   0   7   -0.01    0.05
  10   0   7    0.02    0.06
  12   0   7   -0.02    0.06
  14   0   7    0.01    0.07
  16   0   7    0.03    0.10
 -23   1   7    0.71    0.22
 -21   1   7  100.45    2.72
 -19   1   7    0.84    0.21
 -17   1   7    5.61    0.42
 -15   1   7   54.82    1.60
 -13   1   7   43.07    1.32
  -9   1   7    5.42    0.27
  -7   1   7   61.37    1.47
  -5   1   7    3.64    0.22
  -3   1   7   24.89    0.74
  -1   1   7  102.83    2.41
   1   1   7   96.25    2.19
   3   1   7   22.93    0.63
   5   1   7    3.82    0.21
   7   1   7  371.47    8.06
   9   1   7    0.13    0.07
  11   1   7   22.89    0.75
  13   1   7   39.37    1.21
 -22   2   7   18.29    0.89
 -20   2   7   26.76    1.06
 -18   2   7   12.63    0.68
 -16   2   7    6.24    0.44
 -14   2   7   70.50    2.03
 -12   2   7    0.62    0.16
  -8   2   7  101.61    2.35
  -6   2   7   75.65    1.82
   0   2   7  387.30    8.31
   2   2   7    3.62    0.24
   4   2   7   12.09    0.46
   6   2   7   78.21    1.90
   8   2   7   66.80    1.67
  10   2   7   21.94    0.75
  12   2   7    1.49    0.21
  14   2   7   69.32    1.92
  16   2   7    1.66    0.25
 -21   3   7    0.07    0.14
 -19   3   7    0.08    0.11
 -17   3   7    0.63    0.18
 -15   3   7    2.49    0.33
 -13   3   7    1.23    0.21
 -11   3   7    3.61    0.29
  -9   3   7    4.22    0.30
   1   3   7    2.15    0.24
   3   3   7    0.17    0.09
   5   3   7    2.52    0.27
   9   3   7    0.52    0.14
  11   3   7    1.85    0.25
  13   3   7    1.90    0.26
  15   3   7    1.77    0.28
  17   3   7    1.72    0.28
  19   3   7    0.49    0.25
 -20   4   7   14.46    0.79
 -18   4   7   12.29    0.68
 -16   4   7    0.83    0.20
 -14   4   7   45.15    1.46
 -12   4   7    0.73    0.17
 -10   4   7   25.32    0.87
  -8   4   7   51.69    1.40
  -6   4   7   38.18    1.10
   0   4   7  239.29    5.37
   2   4   7    1.57    0.24
   4   4   7   13.46    0.60
   6   4   7   43.25    1.32
   8   4   7   34.39    1.14
  10   4   7   25.23    0.93
  12   4   7    0.50    0.16
  14   4   7   43.36    1.44
  16   4   7    1.54    0.28
  18   4   7    9.61    0.62
  20   4   7   12.73    0.74
 -19   5   7    0.16    0.15
 -17   5   7    3.55    0.42
 -15   5   7   35.66    1.23
 -13   5   7   32.70    1.10
 -11   5   7    2.72    0.32
  -9   5   7   10.23    0.50
  -7   5   7   33.31    0.99
  -5   5   7    2.40    0.25
  -1   5   7   55.00    1.61
   1   5   7   44.51    1.39
   3   5   7   16.90    0.74
   5   5   7    3.05    0.35
   7   5   7  214.57    5.03
   9   5   7    0.21    0.12
  11   5   7   12.02    0.65
  13   5   7   32.60    1.21
  15   5   7   30.33    1.18
  17   5   7    6.35    0.52
  19   5   7    1.03    0.28
 -18   6   7    0.95    0.25
 -16   6   7    5.07    0.44
 -14   6   7    0.65    0.20
 -12   6   7    2.99    0.35
 -10   6   7    6.80    0.42
  -2   6   7    2.86    0.36
   0   6   7    1.79    0.28
   2   6   7    3.02    0.37
   4   6   7    0.50    0.18
   6   6   7    3.80    0.42
   8   6   7    0.94    0.23
  10   6   7    1.57    0.30
  12   6   7    5.23    0.55
  14   6   7    1.83    0.34
  16   6   7    2.88    0.44
 -17   7   7    4.40    0.61
  -3   7   7   13.56    0.74
  -1   7   7   17.98    0.86
   1   7   7   17.48    0.84
   3   7   7   10.89    0.67
   5   7   7    0.66    0.21
   7   7   7   87.35    2.53
   9   7   7    0.52    0.21
  11   7   7   12.85    0.76
  13   7   7   10.82    0.71
  -6   8   7   20.51    0.99
  -4   8   7    3.86    0.48
  -2   8   7    1.49    0.31
   0   8   7   81.93    2.39
   2   8   7    0.74    0.23
   4   8   7    6.19    0.53
   6   8   7   15.33    0.85
   8   8   7   14.02    0.82
  10   8   7    6.21    0.63
  -3   9   7    2.85    0.44
  -1   9   7    1.34    0.31
   1   9   7    1.50    0.33
   3   9   7    0.29    0.22
 -10  -8   8    1.34    0.25
  -8  -8   8    3.04    0.29
  -6  -8   8    3.50    0.30
  -4  -8   8    1.64    0.22
  -2  -8   8    9.77    0.43
   0  -8   8    3.70    0.30
   2  -8   8    0.58    0.14
   4  -8   8    3.72    0.31
   6  -8   8    8.27    0.40
   8  -8   8    1.48    0.36
 -15  -7   8    1.13    0.29
 -13  -7   8    5.82    0.51
 -11  -7   8    7.65    0.58
  -9  -7   8    3.93    0.32
  -7  -7   8    6.48    0.34
  -5  -7   8   36.86    0.91
  -3  -7   8    1.59    0.21
  -1  -7   8    3.54    0.29
   1  -7   8   24.55    0.70
   3  -7   8   18.36    0.59
   5  -7   8    0.86    0.16
   7  -7   8    4.39    0.30
   9  -7   8   11.70    0.46
  11  -7   8    3.18    0.38
 -14  -6   8    0.15    0.15
 -12  -6   8  142.01    3.54
 -10  -6   8    0.35    0.17
  -8  -6   8    7.87    0.53
  -6  -6   8   36.45    1.28
  -4  -6   8   35.64    0.86
  -2  -6   8   17.76    0.55
   0  -6   8    1.94    0.21
   2  -6   8   17.03    0.55
   4  -6   8    0.87    0.15
   6  -6   8   10.12    0.41
   8  -6   8   33.43    0.83
  10  -6   8   24.44    0.68
  12  -6   8    5.03    0.43
  14  -6   8    0.24    0.16
 -15  -5   8    4.34    0.46
 -13  -5   8    4.68    0.41
 -11  -5   8    6.77    0.49
  -9  -5   8    5.99    0.44
  -7  -5   8    2.10    0.30
  -5  -5   8   35.28    1.19
  -3  -5   8    1.73    0.28
  -1  -5   8   15.80    0.71
   1  -5   8    6.92    0.31
   3  -5   8    4.61    0.26
   5  -5   8   14.56    0.48
   7  -5   8    0.70    0.13
   9  -5   8   15.95    0.51
  11  -5   8    1.51    0.19
  13  -5   8    2.95    0.38
  15  -5   8    4.05    0.45
  17  -5   8    3.40    0.47
 -14  -4   8    1.07    0.23
 -12  -4   8   70.72    1.96
 -10  -4   8    1.03    0.21
  -8  -4   8    3.10    0.34
  -6  -4   8   27.14    0.95
  -4  -4   8   26.08    0.94
  -2  -4   8    3.59    0.38
   0  -4   8   11.67    0.58
   2  -4   8   13.63    0.64
   4  -4   8    5.82    0.39
   6  -4   8    0.96    0.20
   8  -4   8   22.63    0.87
  10  -4   8   15.11    0.51
  12  -4   8    1.76    0.19
  14  -4   8    1.49    0.27
  16  -4   8   39.30    1.33
  18  -4   8    0.16    0.17
 -19  -3   8   58.69    1.76
 -17  -3   8    1.93    0.29
 -13  -3   8   45.08    1.36
 -11  -3   8   55.67    1.59
  -9  -3   8   31.34    1.05
  -7  -3   8    3.66    0.30
  -5  -3   8  299.30    6.78
  -3  -3   8    1.03    0.19
  -1  -3   8   30.27    0.99
   1  -3   8  100.33    2.50
   3  -3   8   73.80    1.97
   5  -3   8   18.13    0.73
   7  -3   8    4.26    0.33
   9  -3   8  117.90    2.80
  11  -3   8    1.70    0.25
  13  -3   8    6.58    0.43
 -22  -2   8    4.15    0.46
 -20  -2   8    6.42    0.49
 -18  -2   8    4.85    0.40
 -16  -2   8    6.09    0.43
 -12  -2   8   73.03    1.93
 -10  -2   8    1.02    0.18
  -8  -2   8    3.56    0.29
  -6  -2   8   20.72    0.76
  -4  -2   8   18.06    0.69
  -2  -2   8   15.05    0.61
   0  -2   8    0.20    0.09
   2  -2   8    8.43    0.44
   4  -2   8    1.76    0.24
   6  -2   8    9.68    0.48
   8  -2   8   15.05    0.63
  10  -2   8   12.15    0.57
  12  -2   8    2.25    0.28
  14  -2   8    0.71    0.18
 -23  -1   8    0.48    0.20
 -21  -1   8    0.77    0.23
 -19  -1   8   20.53    0.88
 -17  -1   8    0.60    0.16
 -11  -1   8   19.63    0.71
  -9  -1   8    8.94    0.43
  -7  -1   8    2.55    0.27
  -5  -1   8  105.49    2.59
  -3  -1   8    1.35    0.20
  -1  -1   8    7.28    0.38
   1  -1   8   40.39    1.16
   3  -1   8   29.30    0.92
   5  -1   8    3.09    0.26
   7  -1   8    2.98    0.31
   9  -1   8   40.39    1.17
  11  -1   8    1.35    0.21
  13  -1   8    1.19    0.21
  15  -1   8   11.56    0.58
 -22   0   8   14.80    0.79
 -20   0   8   35.68    1.29
 -18   0   8   28.05    1.08
 -16   0   8   20.14    0.85
 -10   0   8    4.26    0.28
  -8   0   8   11.93    0.48
  -6   0   8  115.09    2.65
  -4   0   8  106.46    2.53
  -2   0   8   38.38    1.10
   0   0   8    7.26    0.37
   2   0   8   57.70    1.54
   4   0   8    4.51    0.30
   6   0   8   23.80    0.81
   8   0   8   91.87    2.29
  10   0   8   67.91    1.78
  12   0   8    6.77    0.41
  14   0   8    3.59    0.31
  16   0   8  194.75    4.48
 -21   1   8    0.99    0.25
 -19   1   8   19.13    0.87
 -17   1   8    0.43    0.16
 -15   1   8    3.28    0.37
 -13   1   8   14.55    0.67
  -9   1   8    9.14    0.40
  -7   1   8    2.56    0.20
  -5   1   8  105.49    2.54
  -3   1   8    0.86    0.15
  -1   1   8    6.94    0.23
   1   1   8   39.95    1.13
  17   1   8    7.52    0.47
 -22   2   8    5.70    0.58
 -20   2   8    5.54    0.47
 -18   2   8    5.17    0.50
 -16   2   8    5.50    0.42
 -14   2   8    0.10    0.09
 -12   2   8   76.31    2.02
  -8   2   8    3.87    0.24
  -6   2   8   21.09    0.68
  -4   2   8   17.11    0.61
   2   2   8    8.12    0.38
   4   2   8    1.61    0.19
   6   2   8   10.33    0.43
   8   2   8   14.41    0.68
 -21   3   8    1.07    0.26
 -19   3   8   59.64    1.84
 -17   3   8    1.73    0.29
 -15   3   8   12.70    0.66
 -13   3   8   44.61    1.40
 -11   3   8   55.50    1.60
  -9   3   8   32.07    1.04
  -7   3   8    3.28    0.23
  -1   3   8   27.65    0.91
   1   3   8   99.73    2.43
   3   3   8   74.87    1.90
   5   3   8   18.60    0.70
   7   3   8    4.23    0.30
   9   3   8  115.96    2.74
  11   3   8    2.43    0.29
 -20   4   8   10.81    0.69
 -18   4   8    8.98    0.58
 -16   4   8    3.37    0.40
 -14   4   8    0.81    0.19
 -12   4   8   72.61    1.95
 -10   4   8    0.98    0.19
  -8   4   8    2.62    0.29
  -6   4   8   26.11    0.85
   0   4   8   11.28    0.55
   2   4   8   13.45    0.62
   4   4   8    5.02    0.36
   6   4   8    1.22    0.22
   8   4   8   22.19    0.85
  10   4   8   16.37    0.72
  12   4   8    1.71    0.27
  14   4   8    1.44    0.27
 -19   5   8    6.75    0.55
 -17   5   8    2.24    0.34
 -15   5   8    3.72    0.42
 -13   5   8    5.60    0.42
 -11   5   8    6.22    0.42
  -9   5   8    6.28    0.39
  -7   5   8    1.98    0.25
  -5   5   8   32.83    1.03
  -1   5   8   14.88    0.69
   1   5   8    7.39    0.47
   3   5   8    4.93    0.39
   5   5   8   15.05    0.71
   7   5   8    0.48    0.16
   9   5   8   15.87    0.75
  11   5   8    1.65    0.29
  13   5   8    2.70    0.37
  15   5   8    4.70    0.50
  17   5   8    2.91    0.56
 -16   6   8   11.74    0.68
 -14   6   8    0.03    0.12
 -12   6   8  135.62    3.37
  -2   6   8   17.82    0.81
   0   6   8    2.22    0.32
   2   6   8   18.15    0.85
   4   6   8    0.51    0.19
   6   6   8    9.83    0.61
   8   6   8   32.08    1.23
  10   6   8   23.56    1.03
  12   6   8    5.68    0.56
  14   6   8   -0.02    0.15
  16   6   8   78.91    2.39
  -5   7   8   36.39    1.35
  -3   7   8    1.83    0.32
  -1   7   8    3.77    0.47
   1   7   8   24.68    1.06
   3   7   8   19.77    0.93
   5   7   8    0.78    0.23
   7   7   8    3.08    0.42
   9   7   8   13.33    0.76
  11   7   8    3.10    0.44
  13   7   8    0.30    0.21
  -6   8   8    2.71    0.41
  -4   8   8    2.24    0.38
  -2   8   8   10.33    0.69
   0   8   8    3.72    0.50
   2   8   8    0.39    0.21
   4   8   8    3.99    0.49
   6   8   8    7.73    0.61
   8   8   8    1.63    0.35
  -8  -8   9    0.62    0.25
  -6  -8   9    2.12    0.27
  -4  -8   9   15.07    0.56
  -2  -8   9   11.34    0.48
   0  -8   9    8.67    0.42
   2  -8   9    1.20    0.20
   4  -8   9   70.99    1.56
   6  -8   9   -0.10    0.15
   8  -8   9    5.80    0.65
 -13  -7   9    9.93    0.68
 -11  -7   9   13.50    0.78
  -9  -7   9    7.17    0.57
  -7  -7   9    9.08    0.63
  -5  -7   9    0.32    0.18
  -3  -7   9   61.24    1.88
  -1  -7   9    0.50    0.14
   1  -7   9    6.79    0.36
   3  -7   9   12.21    0.48
   5  -7   9   11.23    0.46
   7  -7   9   13.56    0.51
   9  -7   9    0.44    0.14
 -14  -6   9    3.78    0.47
 -12  -6   9    5.47    0.48
 -10  -6   9    0.78    0.23
  -8  -6   9    4.10    0.46
  -6  -6   9    2.67    0.36
  -4  -6   9    1.54    0.29
  -2  -6   9    1.84    0.30
   0  -6   9    0.40    0.18
   2  -6   9    3.19    0.39
   4  -6   9    2.16    0.34
   6  -6   9    0.81    0.15
   8  -6   9    2.49    0.25
  10  -6   9    4.41    0.33
  12  -6   9    1.85    0.32
 -13  -5   9    6.89    0.51
 -11  -5   9   43.26    1.44
  -9  -5   9   26.97    1.05
  -7  -5   9    3.96    0.42
  -5  -5   9    3.38    0.39
  -3  -5   9  142.69    3.43
  -1  -5   9    0.71    0.19
   1  -5   9    6.33    0.45
   3  -5   9   33.93    1.18
   5  -5   9   31.01    1.13
   7  -5   9   12.45    0.67
   9  -5   9    2.70    0.36
  11  -5   9   49.86    1.63
  15  -5   9    4.66    0.48
 -14  -4   9    9.23    0.59
 -12  -4   9    0.96    0.22
 -10  -4   9   18.26    0.77
  -8  -4   9    2.24    0.30
  -6  -4   9   16.39    0.74
  -4  -4   9   35.87    1.22
  -2  -4   9   38.50    1.22
   0  -4   9   16.30    0.72
   2  -4   9    0.88    0.20
   4  -4   9  187.57    4.51
   6  -4   9    0.25    0.13
   8  -4   9   17.90    0.78
  10  -4   9   23.32    0.93
  12  -4   9   19.01    0.83
 -19  -3   9    1.35    0.27
 -17  -3   9    0.30    0.16
 -13  -3   9    1.87    0.28
 -11  -3   9    2.14    0.29
  -9  -3   9    1.20    0.22
  -7  -3   9    2.05    0.28
  -5  -3   9    1.42    0.23
  -3  -3   9    0.59    0.17
  -1  -3   9    1.22    0.23
   1  -3   9    0.24    0.11
   3  -3   9    1.30    0.22
   5  -3   9    0.31    0.13
   7  -3   9    0.76    0.18
   9  -3   9    2.54    0.33
  11  -3   9    0.67    0.19
  13  -3   9    1.20    0.24
 -22  -2   9    0.21    0.18
 -20  -2   9    3.17    0.42
 -18  -2   9   33.04    1.22
 -12  -2   9    7.23    0.44
 -10  -2   9   30.21    0.96
  -8  -2   9    1.66    0.25
  -6  -2   9   12.22    0.58
  -4  -2   9   67.22    1.80
  -2  -2   9   58.26    1.61
   0  -2   9   19.04    0.73
   2  -2   9    3.08    0.32
   4  -2   9  302.77    6.70
   6  -2   9    0.44    0.14
   8  -2   9   16.25    0.68
  10  -2   9   44.21    1.35
  12  -2   9   36.20    1.18
  14  -2   9   11.95    0.61
 -21  -1   9    9.33    0.62
 -19  -1   9    2.35    0.34
 -17  -1   9   43.19    1.46
 -11  -1   9   56.52    1.56
  -9  -1   9   36.53    1.11
  -7  -1   9   15.49    0.61
  -5  -1   9    3.14    0.27
  -3  -1   9  270.54    5.85
  -1  -1   9    2.89    0.25
   1  -1   9    7.96    0.43
   3  -1   9   61.88    1.67
   5  -1   9   54.47    1.52
   7  -1   9   26.52    0.91
   9  -1   9    0.61    0.16
  11  -1   9   72.16    2.02
  13  -1   9    1.03    0.20
  15  -1   9   12.42    0.63
 -22   0   9    0.01    0.15
 -20   0   9   -0.02    0.13
 -18   0   9   -0.01    0.09
 -16   0   9   -0.05    0.08
 -10   0   9    0.11    0.09
  -8   0   9   -0.03    0.05
  -6   0   9    0.05    0.07
  -4   0   9   -0.03    0.06
  -2   0   9    0.12    0.07
   0   0   9   -0.04    0.05
   2   0   9   -0.02    0.05
   4   0   9   -0.06    0.05
   6   0   9    0.04    0.07
   8   0   9    0.00    0.07
  10   0   9    0.33    0.14
  12   0   9    0.08    0.09
  14   0   9   -0.01    0.09
  16   0   9   -0.05    0.09
 -21   1   9    9.95    0.66
 -19   1   9    1.99    0.33
 -17   1   9   43.51    1.47
 -15   1   9    0.29    0.13
  -9   1   9   36.34    1.05
  -7   1   9   13.67    0.54
  -5   1   9    3.51    0.26
  -3   1   9  263.05    5.79
  -1   1   9    2.14    0.24
   1   1   9    8.10    0.42
   3   1   9   60.10    1.64
   5   1   9   53.73    1.51
   7   1   9   25.51    0.90
   9   1   9    0.17    0.09
  11   1   9   72.46    2.02
  13   1   9    1.23    0.23
  15   1   9   11.99    0.63
  17   1   9   22.48    0.92
 -20   2   9    2.77    0.40
 -18   2   9   31.84    1.22
 -16   2   9   26.43    1.05
 -14   2   9    5.15    0.41
 -12   2   9    7.11    0.46
  -8   2   9    1.77    0.22
  -6   2   9   13.10    0.53
  -4   2   9   66.19    1.71
  -2   2   9   56.76    1.53
 -19   3   9    1.24    0.28
 -17   3   9    0.23    0.15
 -15   3   9    0.71    0.19
 -13   3   9    2.24    0.31
 -11   3   9    2.07    0.28
  -7   3   9    1.91    0.22
  -5   3   9    1.36    0.19
  -1   3   9    1.09    0.18
   1   3   9    0.26    0.10
   3   3   9    1.70    0.29
 -18   4   9   19.28    0.92
 -16   4   9   14.77    0.75
 -14   4   9    8.78    0.55
 -12   4   9    1.02    0.21
 -10   4   9   16.44    0.69
  -8   4   9    2.44    0.28
  -2   4   9   34.05    1.12
   0   4   9   15.16    0.66
   2   4   9    0.69    0.17
   4   4   9  188.61    4.44
   6   4   9    0.19    0.12
 -17   5   9   26.76    1.12
 -15   5   9    0.07    0.13
 -13   5   9    6.59    0.47
 -11   5   9   43.09    1.37
  -9   5   9   26.74    0.96
  -7   5   9    4.07    0.32
  -3   5   9  140.26    3.39
  -1   5   9    0.89    0.21
   1   5   9    5.33    0.41
   3   5   9   33.43    1.15
   5   5   9   31.46    1.12
   7   5   9   12.34    0.66
   9   5   9    3.36    0.39
 -16   6   9    1.23    0.29
 -14   6   9    3.23    0.39
  -4   6   9    1.81    0.30
  -2   6   9    1.91    0.31
   0   6   9    0.28    0.15
   2   6   9    3.14    0.41
   4   6   9    2.32    0.34
   6   6   9    1.00    0.24
   8   6   9    2.72    0.38
  10   6   9    4.26    0.48
  12   6   9    3.06    0.43
  -5   7   9    0.53    0.20
  -3   7   9   59.66    1.89
  -1   7   9    0.33    0.18
   1   7   9    7.10    0.55
   3   7   9   11.88    0.72
   5   7   9   10.99    0.70
   7   7   9   13.35    0.78
   9   7   9    0.52    0.22
  11   7   9   17.49    0.93
  -6   8   9    3.07    0.45
  -4   8   9   14.98    0.85
  -2   8   9   12.07    0.76
   0   8   9    8.11    0.64
   2   8   9    1.20    0.30
   4   8   9   71.04    2.24
   6   8   9   -0.11    0.15
  -9  -7  10    7.92    0.60
  -7  -7  10    8.50    0.61
  -5  -7  10    2.03    0.36
  -3  -7  10    7.68    0.57
  -1  -7  10    5.95    0.51
   1  -7  10    2.71    0.40
   3  -7  10    0.94    0.27
   5  -7  10   10.69    0.68
   7  -7  10    7.44    0.40
   9  -7  10    1.62    0.33
 -14  -6  10   14.63    0.81
 -12  -6  10   16.04    0.83
 -10  -6  10    1.21    0.29
  -8  -6  10   91.25    2.61
  -6  -6  10    0.26    0.17
  -4  -6  10   11.60    0.69
  -2  -6  10   37.56    1.34
   0  -6  10   26.71    1.08
   2  -6  10    6.74    0.52
   4  -6  10    1.31    0.28
   6  -6  10   41.70    1.41
   8  -6  10    0.33    0.19
  10  -6  10    3.81    0.47
 -13  -5  10    0.47    0.21
 -11  -5  10    2.50    0.36
  -9  -5  10    7.44    0.53
  -7  -5  10    4.11    0.45
  -5  -5  10   10.54    0.62
  -3  -5  10    2.09    0.32
  -1  -5  10    1.99    0.32
   1  -5  10    3.62    0.41
   3  -5  10    9.66    0.60
   5  -5  10    5.19    0.44
   7  -5  10    5.03    0.52
   9  -5  10    3.20    0.42
  11  -5  10    0.84    0.25
 -12  -4  10    5.73    0.45
 -10  -4  10    3.68    0.42
  -8  -4  10   47.17    1.51
  -6  -4  10    1.04    0.22
  -4  -4  10    3.49    0.40
  -2  -4  10   26.95    1.05
   0  -4  10   20.85    0.87
   2  -4  10    0.11    0.11
   4  -4  10    4.07    0.43
   6  -4  10   20.04    0.85
   8  -4  10    1.69    0.29
  10  -4  10    0.27    0.17
  12  -4  10    8.46    0.57
 -19  -3  10   10.61    0.67
 -11  -3  10    5.18    0.40
  -9  -3  10   47.17    1.47
  -7  -3  10   48.55    1.49
  -5  -3  10   21.97    0.87
  -3  -3  10    4.20    0.36
  -1  -3  10   28.66    1.09
   1  -3  10    1.59    0.26
   3  -3  10   19.66    0.82
   5  -3  10   58.36    1.71
   7  -3  10   40.59    1.32
   9  -3  10    6.89    0.47
  11  -3  10    1.97    0.30
  13  -3  10  143.05    3.50
 -20  -2  10    0.56    0.21
 -18  -2  10    2.23    0.36
 -10  -2  10    0.09    0.10
  -8  -2  10   46.63    1.45
  -6  -2  10    0.11    0.10
  -4  -2  10    9.20    0.51
  -2  -2  10   13.78    0.64
   0  -2  10    8.91    0.50
   2  -2  10    9.96    0.53
   4  -2  10    0.16    0.11
   6  -2  10   23.87    0.89
   8  -2  10    0.57    0.17
  10  -2  10    1.74    0.27
  12  -2  10    7.72    0.50
  14  -2  10    5.26    0.43
 -19  -1  10    2.46    0.37
 -17  -1  10    0.25    0.14
  -9  -1  10   16.68    0.69
  -7  -1  10   18.64    0.73
  -5  -1  10    5.66    0.38
  -3  -1  10    3.46    0.30
  -1  -1  10   10.37    0.53
   1  -1  10    0.67    0.17
   3  -1  10    4.41    0.34
   5  -1  10   19.16    0.80
   7  -1  10   14.36    0.66
   9  -1  10    1.33    0.24
  11  -1  10    0.89    0.21
  13  -1  10   46.50    1.48
  15  -1  10    0.06    0.14
 -20   0  10    2.33    0.38
 -18   0  10   10.58    0.65
 -16   0  10   30.57    1.17
  -8   0  10  230.36    5.26
  -6   0  10    1.23    0.21
  -4   0  10   24.42    0.85
  -2   0  10   93.65    2.34
   0   0  10   60.84    1.68
   2   0  10   17.69    0.72
   4   0  10    6.08    0.39
   6   0  10  113.33    2.75
   8   0  10    3.52    0.37
  10   0  10    5.46    0.40
  12   0  10   42.22    1.35
  14   0  10   27.90    1.06
  16   0  10   10.88    0.62
 -19   1  10    2.10    0.34
 -17   1  10    0.35    0.16
 -15   1  10   48.75    1.57
  -7   1  10   17.52    0.67
  -5   1  10    6.16    0.37
  -3   1  10    3.16    0.27
  -1   1  10   11.39    0.53
   1   1  10    0.70    0.16
   3   1  10    4.11    0.33
   5   1  10   20.62    0.80
   7   1  10   13.86    0.64
   9   1  10    1.38    0.23
  11   1  10    0.95    0.21
  13   1  10   48.11    1.50
  15   1  10    0.02    0.11
  17   1  10    1.90    0.32
 -18   2  10    2.41    0.36
 -16   2  10    6.61    0.50
 -14   2  10    7.56    0.51
  -6   2  10    0.16    0.10
  -4   2  10    9.67    0.47
  -2   2  10   14.93    0.61
   0   2  10    9.51    0.49
   2   2  10    9.01    0.49
  16   2  10    3.12    0.40
  18   2  10    0.58    0.22
 -19   3  10   10.59    0.87
 -17   3  10    0.30    0.17
 -15   3  10  149.76    3.67
 -13   3  10    1.08    0.24
 -11   3  10    5.42    0.41
  -5   3  10   21.35    0.78
  -3   3  10    4.23    0.31
 -18   4  10    0.83    0.25
 -16   4  10    6.19    0.50
 -14   4  10    8.73    0.56
 -12   4  10    5.90    0.44
 -10   4  10    3.44    0.37
  -8   4  10   46.19    1.43
 -15   5  10   18.89    0.89
 -13   5  10    0.94    0.22
 -11   5  10    2.01    0.30
  -9   5  10    5.98    0.42
  -3   5  10    1.94    0.30
  -1   5  10    2.31    0.33
   1   5  10    3.46    0.39
  -4   6  10   12.81    0.70
  -2   6  10   34.31    1.29
   0   6  10   24.43    1.04
   2   6  10    7.73    0.55
   4   6  10    0.99    0.26
  -7   7  10    8.91    0.63
  -5   7  10    1.71    0.33
  -3   7  10    8.14    0.60
  -1   7  10    4.95    0.54
   1   7  10    3.45    0.47
   3   7  10    1.00    0.27
   5   7  10   11.84    0.73
  -4   8  10    6.30    0.92
  -2   8  10    2.36    0.42
   0   8  10    1.16    0.32
   2   8  10    8.53    0.68
  -3  -7  11    7.47    0.76
  -1  -7  11    0.23    0.18
   1  -7  11   52.99    1.84
   3  -7  11    0.30    0.25
 -12  -6  11    1.27    0.31
 -10  -6  11    2.54    0.40
  -8  -6  11    1.75    0.33
  -6  -6  11    0.72    0.24
  -4  -6  11    1.40    0.29
  -2  -6  11    0.46    0.20
   0  -6  11    1.82    0.32
   2  -6  11    0.63    0.22
   4  -6  11    1.10    0.28
   6  -6  11    3.63    0.46
   8  -6  11    1.07    0.28
  10  -6  11    2.21    0.39
 -13  -5  11    9.81    0.64
 -11  -5  11    0.24    0.19
  -9  -5  11    4.29    0.48
  -7  -5  11   24.12    1.03
  -5  -5  11   19.55    0.91
  -3  -5  11   11.31    0.67
  -1  -5  11    1.16    0.27
   1  -5  11  133.23    3.42
   3  -5  11    0.30    0.17
   5  -5  11    7.22    0.55
   7  -5  11   26.47    1.10
   9  -5  11   23.03    1.02
  11  -5  11    5.22    0.57
 -12  -4  11   12.11    0.68
 -10  -4  11    8.23    0.55
  -8  -4  11    0.99    0.25
  -6  -4  11   92.31    2.48
  -4  -4  11    1.76    0.31
  -2  -4  11    5.56    0.46
   0  -4  11   24.32    1.00
   2  -4  11   22.06    0.94
   4  -4  11   16.33    0.81
   6  -4  11    0.66    0.20
   8  -4  11   37.81    1.40
  10  -4  11    0.51    0.20
  12  -4  11   11.33    0.69
 -11  -3  11    1.39    0.27
  -9  -3  11    0.99    0.22
  -7  -3  11    0.97    0.23
  -5  -3  11    0.33    0.15
  -3  -3  11    0.04    0.11
  -1  -3  11    0.75    0.19
   1  -3  11    1.08    0.24
   3  -3  11    0.06    0.12
   5  -3  11    1.33    0.25
   7  -3  11    1.38    0.27
   9  -3  11    1.22    0.25
  11  -3  11    1.59    0.28
  13  -3  11    0.81    0.24
 -18  -2  11    0.00    0.12
 -10  -2  11    5.68    0.42
  -8  -2  11    3.20    0.37
  -6  -2  11  145.32    3.46
  -4  -2  11    1.39    0.24
  -2  -2  11    3.73    0.40
   0  -2  11   38.63    1.27
   2  -2  11   37.28    1.25
   4  -2  11   17.13    0.78
   6  -2  11    1.64    0.27
   8  -2  11   66.18    1.92
  10  -2  11    1.09    0.25
  12  -2  11    9.01    0.58
  14  -2  11   24.54    1.02
 -19  -1  11   12.41    0.75
 -17  -1  11    4.54    0.49
  -9  -1  11   14.29    0.66
  -7  -1  11   39.02    1.26
  -5  -1  11   35.98    1.17
  -3  -1  11   14.62    0.67
  -1  -1  11    1.33    0.23
   1  -1  11  213.66    5.02
   3  -1  11    0.15    0.10
   5  -1  11   14.47    0.68
   7  -1  11   34.19    1.18
   9  -1  11   27.13    1.03
  11  -1  11   14.55    0.74
  13  -1  11    0.45    0.19
  15  -1  11    8.77    0.58
 -18   0  11    0.16    0.14
 -16   0  11    0.07    0.11
  -8   0  11   -0.13    0.07
  -6   0  11    0.06    0.09
  -4   0  11   -0.02    0.07
  -2   0  11    0.07    0.09
   0   0  11    0.43    0.14
   2   0  11   -0.03    0.08
   4   0  11    0.03    0.09
   6   0  11   -0.01    0.09
   8   0  11    0.02    0.09
  10   0  11   -0.02    0.10
  12   0  11    0.04    0.10
  14   0  11    0.06    0.14
  16   0  11   -0.03    0.13
 -17   1  11    4.57    0.48
 -15   1  11    2.08    0.33
  -7   1  11   37.76    1.19
  -5   1  11   35.50    1.13
  -3   1  11   15.37    0.66
  -1   1  11    1.18    0.21
   1   1  11  215.44    5.01
   3   1  11    0.10    0.10
   5   1  11   14.57    0.68
   7   1  11   31.98    1.15
   9   1  11   25.39    1.00
  11   1  11   15.95    0.76
  13   1  11    0.84    0.23
  15   1  11    9.76    0.61
  17   1  11    0.64    0.23
 -18   2  11    0.01    0.14
 -16   2  11    7.52    0.55
 -14   2  11   37.15    1.32
  -6   2  11  139.68    3.33
  -4   2  11    1.20    0.21
  -2   2  11    4.33    0.34
   0   2  11   37.92    1.23
   2   2  11   36.92    1.21
   4   2  11   17.73    0.76
   6   2  11    1.57    0.25
   8   2  11   65.13    1.89
  10   2  11    0.90    0.20
  12   2  11    9.32    0.58
  14   2  11   23.90    1.02
  16   2  11   17.14    0.85
 -17   3  11    0.90    0.25
 -15   3  11    1.51    0.29
 -13   3  11    0.30    0.15
 -11   3  11    0.81    0.20
  -5   3  11    0.63    0.17
  -3   3  11    0.08    0.09
  -1   3  11    1.10    0.20
 -16   4  11    9.65    0.64
 -14   4  11   19.58    0.90
 -12   4  11   10.41    0.62
 -10   4  11    8.93    0.55
  -8   4  11    0.80    0.19
  -4   4  11    0.98    0.20
 -15   5  11    4.04    0.47
 -13   5  11   10.08    0.62
 -11   5  11    0.34    0.17
  -7   7  11    8.37    0.64
  -5   7  11    6.84    0.57
  -6  -6  12    1.61    0.33
  -4  -6  12   10.05    0.68
  -2  -6  12    0.09    0.15
   0  -6  12    8.92    0.64
   2  -6  12   24.18    1.08
   4  -6  12   12.32    0.83
 -11  -5  12   14.23    0.80
  -9  -5  12    0.50    0.21
  -7  -5  12    6.98    0.55
  -5  -5  12    3.98    0.47
  -3  -5  12    1.60    0.31
  -1  -5  12    7.72    0.58
   1  -5  12    0.63    0.22
   3  -5  12    7.86    0.59
   5  -5  12    1.08    0.29
   7  -5  12    2.66    0.42
   9  -5  12    3.79    0.50
 -12  -4  12    8.78    0.60
 -10  -4  12    9.05    0.60
  -8  -4  12    2.54    0.37
  -6  -4  12    5.64    0.48
  -4  -4  12    7.60    0.56
  -2  -4  12    1.32    0.30
   0  -4  12    2.09    0.35
   2  -4  12   15.86    0.81
   4  -4  12    8.48    0.59
   6  -4  12    1.18    0.28
   8  -4  12    0.57    0.22
  10  -4  12   30.55    1.21
  12  -4  12    0.32    0.20
 -11  -3  12  102.76    2.79
  -9  -3  12    0.17    0.15
  -7  -3  12   14.56    0.74
  -5  -3  12   45.91    1.52
  -3  -3  12   27.85    1.11
  -1  -3  12    9.90    0.61
   1  -3  12    3.50    0.42
   3  -3  12   55.72    1.72
   5  -3  12    0.73    0.23
   7  -3  12    4.18    0.48
   9  -3  12   24.73    1.06
  11  -3  12   18.56    0.91
  13  -3  12    8.21    0.61
 -10  -2  12    5.68    0.45
  -8  -2  12    4.73    0.41
  -6  -2  12    0.04    0.12
  -4  -2  12    4.36    0.45
  -2  -2  12    1.02    0.22
   0  -2  12    7.64    0.51
   2  -2  12    8.59    0.55
   4  -2  12    6.47    0.48
   6  -2  12    1.71    0.30
   8  -2  12    0.37    0.18
  10  -2  12   32.31    1.22
  12  -2  12    0.00    0.15
  14  -2  12    2.48    0.39
 -17  -1  12    4.81    0.51
  -9  -1  12    0.16    0.13
  -7  -1  12    3.50    0.40
  -5  -1  12   16.75    0.76
  -3  -1  12   10.18    0.57
  -1  -1  12    1.85    0.29
   1  -1  12    1.93    0.30
   3  -1  12   17.48    0.79
   5  -1  12    0.65    0.19
   7  -1  12    0.97    0.23
   9  -1  12    8.31    0.56
  11  -1  12    6.16    0.49
  13  -1  12    2.29    0.37
  15  -1  12    0.00    0.16
  -8   0  12   18.69    0.79
  -6   0  12    4.06    0.40
  -4   0  12   27.25    1.02
  -2   0  12    1.46    0.25
   0   0  12   19.92    0.83
   2   0  12   54.61    1.65
   4   0  12   35.31    1.22
   6   0  12    6.42    0.46
   8   0  12    2.19    0.32
  10   0  12  152.92    3.76
  12   0  12    0.20    0.14
  14   0  12    7.37    0.55
 -17   1  12    5.65    0.84
 -15   1  12    3.87    0.45
  -7   1  12    2.87    0.33
  -5   1  12   16.91    0.73
  -3   1  12   10.77    0.57
  -1   1  12    1.73    0.26
   1   1  12    1.51    0.26
   3   1  12   19.20    0.81
   5   1  12    0.40    0.16
   7   1  12    1.05    0.24
   9   1  12    7.91    0.54
  11   1  12    5.38    0.46
  13   1  12    2.38    0.38
  15   1  12    0.16    0.15
 -16   2  12    0.47    0.21
 -14   2  12    1.03    0.25
  -6   2  12    0.13    0.12
  -4   2  12    4.56    0.37
  -2   2  12    1.08    0.22
   0   2  12    7.02    0.47
   2   2  12   10.11    0.56
   4   2  12    7.49    0.50
   6   2  12    2.15    0.32
   8   2  12    0.53    0.18
  10   2  12   31.07    1.18
  12   2  12    0.10    0.14
  14   2  12    1.95    0.35
 -15   3  12   13.38    0.76
 -13   3  12    1.23    0.27
  -5   3  12   47.25    1.43
  -3   3  12   31.12    1.08
  -1   3  12    9.13    0.54
   1   3  12    2.91    0.35
   3   3  12   54.88    1.65
   5   3  12    1.16    0.23
  11   3  12   20.41    0.93
 -14   4  12    0.56    0.21
 -12   4  12    8.60    0.57
 -10   4  12    8.70    0.56
  -4   4  12    7.13    0.48
  -2   4  12    1.27    0.25
 -13   5  12    0.57    0.23
  -7  -5  13    0.33    0.21
  -5  -5  13    2.62    0.41
  -3  -5  13   14.97    0.83
  -1  -5  13   15.61    0.85
   1  -5  13    8.52    0.64
   3  -5  13    1.92    0.43
 -10  -4  13   13.98    0.78
  -8  -4  13   12.30    0.74
  -6  -4  13    8.92    0.62
  -4  -4  13    0.20    0.18
  -2  -4  13   93.77    2.62
   0  -4  13    0.35    0.19
   2  -4  13    7.79    0.60
   4  -4  13   15.62    0.84
   6  -4  13   11.35    0.73
   8  -4  13   12.10    0.82
  -9  -3  13   -0.04    0.15
  -7  -3  13    0.29    0.18
  -5  -3  13    0.04    0.14
  -3  -3  13    0.53    0.22
  -1  -3  13    0.07    0.15
   1  -3  13    0.40    0.20
   3  -3  13    0.99    0.26
   5  -3  13    0.45    0.21
   7  -3  13    0.48    0.21
   9  -3  13    1.27    0.32
 -10  -2  13   22.04    1.07
  -8  -2  13   19.14    0.88
  -6  -2  13   10.37    0.62
  -4  -2  13    0.76    0.23
  -2  -2  13  135.05    3.48
   0  -2  13    0.98    0.24
   2  -2  13    6.82    0.51
   4  -2  13   27.57    1.10
   6  -2  13   19.90    0.94
   8  -2  13    8.03    0.58
  10  -2  13    1.51    0.31
  12  -2  13    6.57    0.90
  -9  -1  13   72.39    2.06
  -7  -1  13    1.65    0.30
  -5  -1  13    3.10    0.38
  -3  -1  13   22.02    0.95
  -1  -1  13   24.08    1.01
   1  -1  13   15.20    0.76
   3  -1  13    0.32    0.17
   5  -1  13   49.51    1.62
   7  -1  13    0.61    0.20
   9  -1  13   10.96    0.68
  11  -1  13   18.64    0.92
  -8   0  13   -0.02    0.12
  -6   0  13   -0.13    0.10
  -4   0  13   -0.03    0.11
  -2   0  13   -0.06    0.11
   0   0  13    0.05    0.11
   2   0  13    0.01    0.10
   4   0  13   -0.03    0.11
   6   0  13    0.12    0.12
   8   0  13    0.03    0.13
  10   0  13   -0.05    0.13
  12   0  13    0.28    0.18
  -7   1  13    1.43    0.26
  -5   1  13    2.42    0.32
  -3   1  13   25.09    0.97
  -1   1  13   25.96    1.01
   1   1  13   14.21    0.72
   3   1  13    0.52    0.18
   5   1  13   47.23    1.59
   7   1  13    0.76    0.21
   9   1  13   11.24    0.68
  11   1  13   19.99    0.93
 -14   2  13    0.60    0.23
  -6   2  13    8.61    0.56
  -4   2  13    1.15    0.25
  -2   2  13  137.28    3.41
   0   2  13    0.17    0.13
   2   2  13    6.79    0.49
   4   2  13   26.89    1.08
   6   2  13   21.85    0.96
   8   2  13    9.19    0.61
  10   2  13    1.61    0.32
 -13   3  13    0.76    0.24
  -3   3  13    0.69    0.21
  -1   3  13    0.05    0.11
   1   3  13    0.39    0.16
   3   3  13    0.97    0.25
   5   3  13    0.54    0.20
   7   3  13    0.40    0.17
   9   3  13    1.03    0.25
 -12   4  13    7.45    0.56
 -10   4  13   13.80    0.74
  -2   4  13   91.61    2.48
   0   4  13    0.16    0.15
   2   4  13    8.54    0.57
   4   4  13   15.35    0.80
  -1   5  13   15.30    0.77
  -6  -4  14    5.71    0.65
  -4  -4  14   -0.01    0.18
  -2  -4  14    3.03    0.51
   0  -4  14    7.19    0.93
  -9  -3  14    2.37    0.38
  -7  -3  14   15.51    0.87
  -5  -3  14    0.57    0.23
  -3  -3  14   12.31    0.75
  -1  -3  14   28.52    1.21
   1  -3  14   16.84    0.89
   3  -3  14    4.58    0.54
   5  -3  14    0.87    0.30
  -8  -2  14    6.19    0.59
  -6  -2  14    3.66    0.46
  -4  -2  14    3.19    0.43
  -2  -2  14    0.03    0.15
   0  -2  14    9.44    0.63
   2  -2  14    0.39    0.19
   4  -2  14    1.28    0.30
   6  -2  14    5.31    0.54
  -7  -1  14    4.24    0.46
  -5  -1  14    0.23    0.17
  -3  -1  14    2.46    0.38
  -1  -1  14   10.42    0.64
   1  -1  14    5.81    0.50
   3  -1  14    1.04    0.27
   5  -1  14    0.57    0.22
   7  -1  14   26.70    1.13
  -6   0  14   20.12    0.90
  -4   0  14    7.86    0.55
  -2   0  14    2.63    0.36
   0   0  14   41.92    1.39
   2   0  14    0.95    0.24
   4   0  14    3.71    0.44
   6   0  14   21.87    1.00
   8   0  14   17.70    0.91
  -5   1  14    0.26    0.17
  -3   1  14    2.36    0.34
  -1   1  14   10.47    0.63
   1   1  14    6.01    0.49
   3   1  14    1.09    0.26
   5   1  14    0.44    0.20
   7   1  14   27.42    1.15
  -4   2  14    3.02    0.38
  -2   2  14    0.02    0.14
   0   2  14    8.27    0.57
   2   2  14    0.46    0.19
   4   2  14    0.92    0.25
   6   2  14    5.30    0.54
  -3   3  14   12.13    0.70
  -1   3  14   30.71    1.17
   1   3  14   17.70    0.86
   3   3  14    4.76    0.51
   5   3  14    0.45    0.21
  -2   4  14    2.86    0.40
   0   4  14    7.60    0.56
   2   4  14    0.42    0.21
  -8  -2  15    1.33    0.34
  -6  -2  15   12.85    0.78
  -4  -2  15   12.85    0.78
  -2  -2  15    9.73    0.69
  -7  -1  15    0.57    0.24
  -5  -1  15   76.04    2.28
  -3  -1  15    0.06    0.16
  -1  -1  15    4.81    0.54
   1  -1  15   16.90    0.88
  -6   0  15   -0.14    0.16
  -4   0  15    0.11    0.17
  -2   0  15    0.14    0.15
   0   0  15    0.06    0.15
   2   0  15   -0.05    0.14
  -5   1  15   78.95    2.25
  -3   1  15    0.03    0.16
  -1   1  15    5.13    0.53
   1   1  15   16.96    0.87
  -4   2  15   15.02    0.80
  -2   2  15    8.03    0.61
   0   2  15    1.30    0.30
  -3   3  15    0.01    0.18
  -1   3  15    0.17    0.29
   0   0   0    0.00    0.00
;
_shelx_hkl_checksum              21137
_publcif_info_exptl_table_max_cols 4
_publcif_info_exptl_table_use_headnotes n
_publcif_funding_html
;
;
loop_
_space_group_symop_operation_xyz
'x, y, z'
'x, -y, z+1/2'
'x+1/2, y+1/2, z'
'x+1/2, -y+1/2, z+1/2'
loop_
_atom_site_label
_atom_site_type_symbol
_atom_site_fract_x
_atom_site_fract_y
_atom_site_fract_z
_atom_site_U_iso_or_equiv
_atom_site_adp_type
_atom_site_occupancy
_atom_site_site_symmetry_order
_atom_site_calc_flag
_atom_site_refinement_flags_posn
_atom_site_refinement_flags_adp
_atom_site_refinement_flags_occupancy
_atom_site_disorder_assembly
_atom_site_disorder_group
Li1 Li 0.8347(16) 0.679(2) 0.498(3) 0.027(6) Uani 1 1 d . . . . .
Li2 Li 0.625(2) 0.828(2) 0.405(4) 0.039(10) Uani 1 1 d . . . . .
Li3 Li 0.4787(16) 0.8268(11) 0.699(4) 0.014(5) Uani 1 1 d . . . . .
Li4 Li 0.2679(11) 0.6617(18) 0.639(3) 0.015(5) Uani 1 1 d . . . . .
Cd Cd 0.54874(11) 0.34736(6) 0.5638(2) 0.02106(14) Uani 1 1 d . . . . .
Sn1 Sn 0.90772(2) 0.83959(7) 0.84366(3) 0.01293(19) Uani 1 1 d . . . . .
Sn2 Sn 0.69288(2) 0.67320(7) 0.77412(4) 0.01259(17) Uani 1 1 d . . . . .
S1 S 1.00959(8) 0.80885(18) 1.00890(16) 0.0160(3) Uani 1 1 d . . . . .
S2 S 0.94103(10) 0.66013(18) 0.65885(17) 0.0160(3) Uani 1 1 d . . . . .
S3 S 0.87228(10) 0.83835(19) 0.30415(18) 0.0178(3) Uani 1 1 d . . . . .
S4 S 0.80192(9) 0.66569(18) 0.93812(16) 0.0141(3) Uani 1 1 d . . . . .
S5 S 0.72681(9) 0.8370(2) 0.58809(18) 0.0173(3) Uani 1 1 d . . . . .
S6 S 0.66230(8) 0.34428(17) 0.73087(16) 0.0156(3) Uani 1 1 d . . . . .
S7 S 0.58956(8) 0.83567(19) 0.86668(17) 0.0158(3) Uani 1 1 d . . . . .
loop_
_atom_site_aniso_label
_atom_site_aniso_U_11
_atom_site_aniso_U_22
_atom_site_aniso_U_33
_atom_site_aniso_U_23
_atom_site_aniso_U_13
_atom_site_aniso_U_12
Li1 0.028(10) 0.042(11) 0.010(8) 0.007(6) 0.004(6) -0.008(6)
Li2 0.045(15) 0.032(11) 0.039(18) -0.005(6) 0.003(11) 0.003(6)
Li3 0.011(7) 0.013(7) 0.018(9) 0.004(6) 0.000(6) -0.005(6)
Li4 0.006(7) 0.019(8) 0.022(10) -0.004(5) 0.007(6) -0.005(5)
Cd 0.0208(2) 0.02254(19) 0.0200(3) -0.0002(3) 0.00275(18) 0.0003(3)
Sn1 0.0121(3) 0.0131(3) 0.0136(4) 0.0003(2) 0.0007(2) -0.0006(2)
Sn2 0.0114(3) 0.0138(2) 0.0126(3) 0.0000(2) 0.0007(2) -0.00088(19)
S1 0.0146(6) 0.0177(6) 0.0152(7) 0.0003(6) -0.0019(5) 0.0003(5)
S2 0.0190(7) 0.0152(6) 0.0141(7) -0.0015(5) 0.0033(6) -0.0005(5)
S3 0.0198(8) 0.0151(6) 0.0184(7) -0.0007(5) 0.0007(6) -0.0015(5)
S4 0.0120(5) 0.0170(6) 0.0133(7) 0.0007(5) -0.0001(5) -0.0017(5)
S5 0.0181(7) 0.0195(7) 0.0146(7) 0.0034(5) 0.0024(6) -0.0024(5)
S6 0.0158(7) 0.0138(6) 0.0172(7) -0.0011(5) 0.0000(6) -0.0010(5)
S7 0.0147(6) 0.0161(6) 0.0167(7) 0.0001(5) 0.0031(5) 0.0019(5)
loop_
_atom_type_symbol
_atom_type_description
_atom_type_scat_dispersion_real
_atom_type_scat_dispersion_imag
_atom_type_scat_source
Li Li -0.0003 0.0001 'International Tables Vol C Tables 4.2.6.8 and 6.1.1.4'
S S 0.1246 0.1234 'International Tables Vol C Tables 4.2.6.8 and 6.1.1.4'
Cd Cd -0.8075 1.2024 'International Tables Vol C Tables 4.2.6.8 and 6.1.1.4'
Sn Sn -0.6537 1.4246 'International Tables Vol C Tables 4.2.6.8 and 6.1.1.4'
loop_
_geom_angle_atom_site_label_1
_geom_angle_atom_site_label_2
_geom_angle_atom_site_label_3
_geom_angle
_geom_angle_site_symmetry_1
_geom_angle_site_symmetry_3
_geom_angle_publ_flag
S2 Li1 S3 111.0(10) . . ?
S2 Li1 S5 109.9(11) . . ?
S3 Li1 S5 112.1(9) . . ?
S2 Li1 S4 105.4(8) . 2_564 ?
S3 Li1 S4 107.5(11) . 2_564 ?
S5 Li1 S4 110.7(10) . 2_564 ?
S6 Li2 S7 117.1(18) 2_564 2_574 ?
S6 Li2 S5 112.3(14) 2_564 . ?
S7 Li2 S5 105.0(10) 2_574 . ?
S6 Li2 S1 114.4(10) 2_564 4_464 ?
S7 Li2 S1 103.2(13) 2_574 4_464 ?
S5 Li2 S1 103.4(16) . 4_464 ?
S1 Li3 S2 108.9(13) 4_464 3_455 ?
S1 Li3 S3 114.4(7) 4_464 4_465 ?
S2 Li3 S3 108.0(11) 3_455 4_465 ?
S1 Li3 S7 113.0(11) 4_464 . ?
S2 Li3 S7 106.3(7) 3_455 . ?
S3 Li3 S7 105.8(13) 4_465 . ?
S3 Li4 S5 110.7(8) 4_465 3_445 ?
S3 Li4 S6 105.9(10) 4_465 3_455 ?
S5 Li4 S6 110.1(7) 3_445 3_455 ?
S3 Li4 S4 112.1(7) 4_465 4_464 ?
S5 Li4 S4 110.6(10) 3_445 4_464 ?
S6 Li4 S4 107.3(7) 3_455 4_464 ?
S1 Cd S2 111.90(8) 4_464 3_445 ?
S1 Cd S6 110.25(7) 4_464 . ?
S2 Cd S6 107.28(9) 3_445 . ?
S1 Cd S7 112.14(9) 4_464 2_564 ?
S2 Cd S7 108.04(5) 3_445 2_564 ?
S6 Cd S7 106.99(7) . 2_564 ?
S3 Sn1 S2 115.70(7) 2_575 . ?
S3 Sn1 S1 112.57(5) 2_575 . ?
S2 Sn1 S1 108.39(6) . . ?
S3 Sn1 S4 109.86(6) 2_575 . ?
S2 Sn1 S4 106.96(5) . . ?
S1 Sn1 S4 102.39(6) . . ?
S5 Sn2 S6 112.15(7) . . ?
S5 Sn2 S7 109.90(6) . . ?
S6 Sn2 S7 111.30(6) . . ?
S5 Sn2 S4 110.38(6) . . ?
S6 Sn2 S4 105.19(5) . . ?
S7 Sn2 S4 107.74(7) . . ?
Li3 S1 Sn1 116.4(7) 4_565 . ?
Li3 S1 Li2 116.9(9) 4_565 4_565 ?
Sn1 S1 Li2 107.7(10) . 4_565 ?
Li3 S1 Cd 105.8(4) 4_565 4_565 ?
Sn1 S1 Cd 104.59(6) . 4_565 ?
Li2 S1 Cd 103.8(5) 4_565 4_565 ?
Sn1 S2 Li1 107.8(6) . . ?
Sn1 S2 Li3 116.0(9) . 3_545 ?
Li1 S2 Li3 110.9(7) . 3_545 ?
Sn1 S2 Cd 105.67(6) . 3 ?
Li1 S2 Cd 105.1(6) . 3 ?
Li3 S2 Cd 110.7(7) 3_545 3 ?
Sn1 S3 Li4 107.5(3) 2_574 4_564 ?
Sn1 S3 Li1 112.0(5) 2_574 . ?
Li4 S3 Li1 110.6(9) 4_564 . ?
Sn1 S3 Li3 108.5(4) 2_574 4_564 ?
Li4 S3 Li3 103.9(10) 4_564 4_564 ?
Li1 S3 Li3 113.8(8) . 4_564 ?
Sn2 S4 Sn1 106.39(6) . . ?
Sn2 S4 Li4 110.2(5) . 4_565 ?
Sn1 S4 Li4 108.7(4) . 4_565 ?
Sn2 S4 Li1 109.8(6) . 2_565 ?
Sn1 S4 Li1 113.4(6) . 2_565 ?
Li4 S4 Li1 108.3(10) 4_565 2_565 ?
Sn2 S5 Li4 111.3(7) . 3 ?
Sn2 S5 Li1 110.1(6) . . ?
Li4 S5 Li1 106.2(8) 3 . ?
Sn2 S5 Li2 113.7(9) . . ?
Li4 S5 Li2 111.8(8) 3 . ?
Li1 S5 Li2 103.2(12) . . ?
Li2 S6 Sn2 115.2(8) 2_565 . ?
Li2 S6 Li4 107.0(9) 2_565 3_545 ?
Sn2 S6 Li4 113.5(3) . 3_545 ?
Li2 S6 Cd 106.7(10) 2_565 . ?
Sn2 S6 Cd 105.93(6) . . ?
Li4 S6 Cd 108.0(6) 3_545 . ?
Sn2 S7 Li2 109.1(10) . 2_575 ?
Sn2 S7 Li3 106.2(7) . . ?
Li2 S7 Li3 108.1(10) 2_575 . ?
Sn2 S7 Cd 110.26(6) . 2_565 ?
Li2 S7 Cd 115.5(10) 2_575 2_565 ?
Li3 S7 Cd 107.2(7) . 2_565 ?
loop_
_geom_bond_atom_site_label_1
_geom_bond_atom_site_label_2
_geom_bond_distance
_geom_bond_site_symmetry_2
_geom_bond_publ_flag
Li1 S2 2.41(3) . ?
Li1 S3 2.41(3) . ?
Li1 S5 2.42(3) . ?
Li1 S4 2.527(18) 2_564 ?
Li2 S6 2.29(4) 2_564 ?
Li2 S7 2.43(2) 2_574 ?
Li2 S5 2.51(4) . ?
Li2 S1 2.53(4) 4_464 ?
Li3 S1 2.27(3) 4_464 ?
Li3 S2 2.431(12) 3_455 ?
Li3 S3 2.49(3) 4_465 ?
Li3 S7 2.51(3) . ?
Li4 S3 2.41(3) 4_465 ?
Li4 S5 2.410(13) 3_445 ?
Li4 S6 2.478(19) 3_455 ?
Li4 S4 2.50(3) 4_464 ?
Cd S1 2.5336(16) 4_464 ?
Cd S2 2.536(2) 3_445 ?
Cd S6 2.537(2) . ?
Cd S7 2.541(2) 2_564 ?
Sn1 S3 2.3459(13) 2_575 ?
Sn1 S2 2.3834(18) . ?
Sn1 S1 2.3878(16) . ?
Sn1 S4 2.4611(16) . ?
Sn2 S5 2.3423(19) . ?
Sn2 S6 2.3781(12) . ?
Sn2 S7 2.3802(16) . ?
Sn2 S4 2.4598(18) . ?
loop_
_publcif_info_tables.block_id
_publcif_info_tables.reference_item
{0bc4741f-97a0-46fa-93c2-365fea8f7252} '_publcif_info_datablock.publ_exptl'
loop_
_publcif_info_cif.paper_type
CE
loop_
_publcif_info_datablock.id
_publcif_info_datablock.publ_exptl
_publcif_info_datablock.publ_geom
_publcif_info_datablock.structure
{0bc4741f-97a0-46fa-93c2-365fea8f7252} y y y
loop_
_publcif_info_exptl_table_extra_item
sin_theta_over_lambda_max
loop_
_publcif_info_exptl_table_header_item
?
