#------------------------------------------------------------------------------
#$Date: 2021-06-04 03:59:31 +0300 (Fri, 04 Jun 2021) $
#$Revision: 265754 $
#$URL: file:///home/coder/svn-repositories/cod/cif/4/00/39/4003921.cif $
#------------------------------------------------------------------------------
#
# This file is available in the Crystallography Open Database (COD),
# http://www.crystallography.net/
#
# All data on this site have been placed in the public domain by the
# contributors.
#
data_4003921
loop_
_publ_author_name
'Chen, Wen-Fa'
'Liu, Bin-Wen'
'Pei, Shao-Min'
'Yan, Qiu-Nan'
'Jiang, Xiao-Ming'
'Guo, Guo-Cong'
_publ_section_title
;
 ASb5S8 (A = K, Rb, and Cs): Thermal Switching of Infrared Nonlinear
 Optical Properties across the Crystal/Glass Transformation
;
_journal_issue                   10
_journal_name_full               'Chemistry of Materials'
_journal_page_first              3729
_journal_page_last               3735
_journal_paper_doi               10.1021/acs.chemmater.1c00794
_journal_volume                  33
_journal_year                    2021
_chemical_formula_moiety         'Cs1 S8 Sb5'
_chemical_formula_sum            'Cs S8 Sb5'
_chemical_formula_weight         998.14
_chemical_melting_point          ?
_chemical_name_common            CsSb5S8
_space_group_crystal_system      monoclinic
_space_group_IT_number           14
_space_group_name_Hall           '-P 2yn'
_space_group_name_H-M_alt        'P 1 21/n 1'
_audit_creation_method           SHELXL-2013
_cell_angle_alpha                90
_cell_angle_beta                 104.688(3)
_cell_angle_gamma                90
_cell_formula_units_Z            4
_cell_length_a                   11.7811(3)
_cell_length_b                   8.8645(2)
_cell_length_c                   15.8103(4)
_cell_measurement_reflns_used    10668
_cell_measurement_temperature    293(2)
_cell_measurement_theta_max      30.0160
_cell_measurement_theta_min      1.9350
_cell_volume                     1597.17(7)
_computing_cell_refinement       'CrysAlisPro v40.67a'
_computing_data_collection       'CrysAlisPro v40.67a'
_computing_data_reduction        'CrysAlisPro v40.67a'
_computing_publication_material  'SHELXL-2013 (Sheldrick, 2013)'
_computing_structure_refinement  'SHELXL-2013 (Sheldrick, 2013)'
_computing_structure_solution    'SHELXL-2013 (Sheldrick, 2013)'
_diffrn_ambient_temperature      293(2)
_diffrn_detector_area_resol_mean 28.5714
_diffrn_measured_fraction_theta_full 0.999
_diffrn_measured_fraction_theta_max 0.999
_diffrn_measurement_device_type  'Rigaku Pilatus CCD'
_diffrn_measurement_method       CCD_Profile_fitting
_diffrn_radiation_type           MoK\a
_diffrn_radiation_wavelength     0.71073
_diffrn_reflns_av_R_equivalents  0.0221
_diffrn_reflns_av_unetI/netI     0.0191
_diffrn_reflns_Laue_measured_fraction_full 0.999
_diffrn_reflns_Laue_measured_fraction_max 0.999
_diffrn_reflns_limit_h_max       14
_diffrn_reflns_limit_h_min       -14
_diffrn_reflns_limit_k_max       8
_diffrn_reflns_limit_k_min       -10
_diffrn_reflns_limit_l_max       19
_diffrn_reflns_limit_l_min       -19
_diffrn_reflns_number            12303
_diffrn_reflns_point_group_measured_fraction_full 0.999
_diffrn_reflns_point_group_measured_fraction_max 0.999
_diffrn_reflns_theta_full        25.242
_diffrn_reflns_theta_max         25.493
_diffrn_reflns_theta_min         1.939
_exptl_absorpt_coefficient_mu    11.605
_exptl_absorpt_correction_T_max  1.00000
_exptl_absorpt_correction_T_min  0.65584
_exptl_absorpt_correction_type   multi-scan
_exptl_absorpt_process_details   SADABS
_exptl_crystal_colour            red
_exptl_crystal_density_diffrn    4.151
_exptl_crystal_density_meas      ?
_exptl_crystal_description       lamellar
_exptl_crystal_F_000             1752
_exptl_crystal_size_max          0.129
_exptl_crystal_size_mid          0.124
_exptl_crystal_size_min          0.074
_refine_diff_density_max         0.614
_refine_diff_density_min         -1.003
_refine_diff_density_rms         0.168
_refine_ls_extinction_method     none
_refine_ls_goodness_of_fit_ref   1.044
_refine_ls_matrix_type           full
_refine_ls_number_parameters     127
_refine_ls_number_reflns         2970
_refine_ls_number_restraints     0
_refine_ls_restrained_S_all      1.044
_refine_ls_R_factor_all          0.0182
_refine_ls_R_factor_gt           0.0164
_refine_ls_shift/su_max          0.001
_refine_ls_shift/su_mean         0.000
_refine_ls_structure_factor_coef Fsqd
_refine_ls_weighting_details
;
 w=1/[\s^2^(Fo^2^)+(0.0202P)^2^]
 where P=(Fo^2^+2Fc^2^)/3
;
_refine_ls_weighting_scheme      calc
_refine_ls_wR_factor_gt          0.0376
_refine_ls_wR_factor_ref         0.0382
_reflns_Friedel_coverage         0.000
_reflns_number_gt                2766
_reflns_number_total             2970
_reflns_threshold_expression     'I > 2\s(I)'
_cod_data_source_file            cm1c00794_si_004.cif
_cod_data_source_block           CsSb5S8
_cod_depositor_comments
;
The following automatic conversions were performed:

data item '_chemical_melting_point' value 'not measured' was changed
to '?' -- the value is undefined or not given.

data item '_exptl_crystal_density_meas' value 'not measured' was
changed to '?' -- the value is perceived as not measured.

Automatic conversion script
Id: cif_fix_values 7556 2019-12-06 15:28:31Z antanas 

 Adding full bibliography for 4003920--4003922.cif.
;
_cod_original_sg_symbol_H-M      'P 21/n'
_cod_database_code               4003921
_shelx_space_group_comment
;
The symmetry employed for this shelxl refinement is uniquely defined
by the following loop, which should always be used as a source of
symmetry information in preference to the above space-group names.
They are only intended as comments.
;
_shelxl_version_number           2013-2
_shelx_res_file
;
TITL A in P2(1)/n
CELL 0.71073  11.7811   8.8645  15.8103  90.000 104.688  90.000
ZERR   4.00   0.0003   0.0002   0.0004   0.000   0.003   0.000
LATT  1
SYMM 0.5-X, 0.5+Y, 0.5-Z
SFAC S SB CS
UNIT 32 20 4
acta
L.S. 4
BOND
FMAP 2
PLAN 20
omit -3 51.0
omit -1 0 5
omit -2 1 7
omit 3 1 2
WGHT    0.020200
FVAR       0.07838
CS1   3    0.236225    0.862252    0.002517    11.00000    0.03556    0.03507 =
         0.02700   -0.00320    0.00515   -0.00363
SB1   2    0.622022    0.943049    0.225331    11.00000    0.01689    0.02041 =
         0.02007   -0.00279    0.00213   -0.00216
SB2   2    0.615385    0.571699    0.116006    11.00000    0.01540    0.01821 =
         0.02129    0.00073    0.00513    0.00097
SB3   2    0.386366    0.610468    0.254497    11.00000    0.01599    0.01670 =
         0.02053   -0.00336    0.00569   -0.00091
SB4   2    0.402218    1.234327    0.144813    11.00000    0.01545    0.01838 =
         0.02383   -0.00270    0.00504   -0.00174
SB5   2    0.393563    0.955331    0.401191    11.00000    0.01580    0.02425 =
         0.02128   -0.00592    0.00318    0.00191
S1    1    0.414169    0.951008    0.220292    11.00000    0.01820    0.01786 =
         0.02139   -0.00042    0.00602   -0.00160
S2    1    0.114165    0.835686    0.213339    11.00000    0.03676    0.01686 =
         0.02809   -0.00002    0.01740    0.00015
S3    1    0.406093    0.508610    0.071664    11.00000    0.01569    0.01922 =
         0.01808    0.00087    0.00367   -0.00088
S4    1    0.594301    0.841857    0.075084    11.00000    0.04008    0.01858 =
         0.01976    0.00025    0.00994   -0.00293
S5    1    0.899296    1.123684    0.227740    11.00000    0.01514    0.02259 =
         0.01578    0.00035    0.00343    0.00137
S6    1    0.614028    1.217517    0.171917    11.00000    0.01675    0.01624 =
         0.04054    0.00123    0.01109   -0.00103
S7    1    0.599059    1.021960    0.435519    11.00000    0.02130    0.03909 =
         0.02087   -0.00723    0.00874   -0.00823
S8    1    0.411106    0.676276    0.411615    11.00000    0.03012    0.02353 =
         0.02159   -0.00299    0.01143   -0.00378

HKLF 4

REM  A in P2(1)/n
REM R1 =  0.0164 for    2766 Fo > 4sig(Fo)  and  0.0182 for all    2970 data
REM    127 parameters refined using      0 restraints

END

WGHT      0.0161      0.0000

REM Highest difference peak  0.614,  deepest hole -1.003,  1-sigma level  0.168
Q1    1   0.5166  0.8762  0.3201  11.00000  0.05    0.61
Q2    1   0.5078  1.0199  0.4163  11.00000  0.05    0.50
Q3    1   0.2444  0.6446  0.2023  11.00000  0.05    0.48
Q4    1   0.5054  0.9657  0.2656  11.00000  0.05    0.47
Q5    1   0.2393  0.7823  0.0647  11.00000  0.05    0.47
Q6    1   0.7124  1.1913  0.2882  11.00000  0.05    0.46
Q7    1   0.5210  0.8251  0.4086  11.00000  0.05    0.46
Q8    1   0.2062  0.8153  0.0423  11.00000  0.05    0.46
Q9    1   0.1814  0.9297 -0.0232  11.00000  0.05    0.46
Q10   1   1.0019  1.1217  0.2543  11.00000  0.05    0.46
Q11   1   0.2456  0.7599  0.2412  11.00000  0.05    0.45
Q12   1   0.4877  0.6955  0.3748  11.00000  0.05    0.45
Q13   1   0.5050  0.9130  0.3744  11.00000  0.05    0.45
Q14   1   0.2590  0.5594  0.3997  11.00000  0.05    0.43
Q15   1   0.5576  0.7971  0.4605  11.00000  0.05    0.43
Q16   1   0.7368  0.6487  0.1997  11.00000  0.05    0.42
Q17   1   0.2960  0.9974  0.1154  11.00000  0.05    0.42
Q18   1   0.2773  0.8268  0.2977  11.00000  0.05    0.42
Q19   1   0.5391  0.9321  0.4567  11.00000  0.05    0.42
Q20   1   0.3177  0.7983  0.4553  11.00000  0.05    0.42
;
_shelx_res_checksum              62181
_shelx_hkl_file
;
   0   0  -2  220.77    4.10
   0   0  -3    0.51    0.16
   0   0   3    0.22    0.15
   0   0   4   40.31    1.30
   0   0  -4   39.72    1.25
   0   0  -5   -0.04    0.11
   0   0  -5    0.10    0.15
   0   0  -6  656.54   12.17
   0   0  -6  648.53   11.98
   0   0   6  660.91   12.15
   0   0  -7    0.15    0.17
   0   0   7    0.05    0.20
   0   0  -7    0.08    0.18
   0   0  -8 1000.88   18.43
   0   0  -8 1028.14   18.13
   0   0   8  987.96   18.29
   0   0  -9    0.06    0.21
   0   0   9    0.07    0.22
   0   0   9    0.45    0.25
   0   0  -9    0.05    0.19
   0   0  10   43.47    2.04
   0   0 -10   45.71    2.04
   0   0 -10   45.48    1.75
   0   0  10   47.14    1.93
   0   0  11    0.26    0.30
   0   0  11    0.13    0.26
   0   0 -11    0.43    0.27
   0   0  12  153.61    4.67
   0   0  12  153.67    4.22
   0   0 -12  157.04    3.96
   0   0 -12  142.49    5.05
   0   0  13   -0.10    0.34
   0   0  13   -0.07    0.38
   0   0 -13    0.27    0.46
   0   0  14   70.85    3.14
   0   0  14   66.65    2.58
   0   0 -14   66.86    3.50
   0   0  15    0.48    0.45
   0   0  15   -0.12    0.35
   0   0 -15   -0.49    0.60
   0   0  16   -0.13    0.52
   0   0 -16    0.71    0.64
   0   0  16   -0.13    0.48
   0   0  17   -0.14    0.42
   0   0  17    0.40    0.43
   0   0 -17    0.19    0.57
   0   0  18   49.20    2.98
   0   0  18   50.26    2.99
   0   0 -18   51.86    3.56
   0   0  19   -0.95    0.71
   0   0  19   -0.31    0.64
   0   0 -19    0.21    0.74
   0   1   0    0.06    0.07
   0  -1   0    0.16    0.09
   0   1   1  109.24    2.32
   0  -1  -1  109.90    2.33
   0  -1  -2  156.19    3.03
   0   1  -2  158.79    3.05
   0  -1  -2  156.55    3.34
   0  -1   3   23.28    0.81
   0   1  -3   24.82    0.80
   0  -1  -3   23.66    0.85
   0  -1  -3   24.51    0.74
   0  -1  -3   25.62    1.09
   0   1  -4   45.48    1.28
   0  -1   4   45.96    1.36
   0  -1  -4   47.68    1.41
   0  -1  -4   47.85    1.45
   0  -1  -4   47.27    1.16
   0  -1  -4   46.18    1.70
   0  -1   5 1935.45   34.56
   0   1  -5 2017.19   34.38
   0  -1  -5 1937.33   34.60
   0  -1  -5 2135.09   34.76
   0  -1  -5 2078.02   34.03
   0  -1  -5 1944.86   35.25
   0  -1  -6  131.57    3.29
   0   1  -6  130.98    3.00
   0  -1   6  129.38    3.23
   0  -1  -6  132.14    3.27
   0  -1  -6  130.30    2.61
   0  -1  -6  129.38    3.74
   0   1  -7   23.52    1.03
   0  -1  -7   24.44    1.24
   0  -1   7   25.20    1.27
   0  -1  -7   25.35    1.25
   0  -1  -7   27.42    0.83
   0  -1  -7   26.28    1.54
   0   1  -8  113.86    2.90
   0  -1  -8  108.77    3.24
   0  -1   8  114.46    3.32
   0  -1  -8  115.71    3.26
   0  -1   8  115.84    2.44
   0  -1  -8  115.55    3.80
   0  -1  -9   87.45    2.87
   0  -1   9   88.79    2.96
   0   1  -9   90.94    2.52
   0  -1  -9   92.30    2.92
   0   1   9   87.02    2.94
   0  -1   9   90.49    2.07
   0  -1  -9   92.09    3.45
   0  -1  10   21.22    1.38
   0   1 -10   22.62    1.13
   0  -1 -10   22.92    1.34
   0   1  10   19.36    1.33
   0  -1 -10   22.41    1.37
   0  -1  10   22.84    0.65
   0  -1  10   23.21    0.75
   0  -1 -10   24.07    1.74
   0   1  11  150.97    4.51
   0  -1 -11  159.24    4.24
   0   1 -11  153.93    3.82
   0  -1  11  151.35    4.37
   0  -1 -11  153.81    5.16
   0   1  12   28.77    1.77
   0  -1 -12   28.09    1.50
   0   1 -12   26.35    1.29
   0  -1  12   26.78    1.61
   0  -1 -12   31.21    2.22
   0   1  13  458.94   10.31
   0   1 -13  444.52    8.99
   0  -1  13  455.90    9.77
   0  -1 -13  445.61    9.38
   0  -1 -13  448.80   11.20
   0   1  14   26.88    1.88
   0   1 -14   27.29    1.37
   0  -1  14   28.70    1.71
   0  -1 -14   31.16    1.60
   0  -1 -14   29.82    2.31
   0   1  15    0.96    0.51
   0  -1  15    0.69    0.40
   0  -1 -15    1.31    0.70
   0  -1  15   -0.12    0.37
   0   1  16    1.93    0.64
   0  -1  16    2.44    0.60
   0  -1  16    1.38    0.61
   0  -1 -16    2.27    0.81
   0   1 -16    2.75    0.89
   0   1  17    4.54    0.93
   0  -1  17    5.22    0.79
   0  -1  17    4.43    0.91
   0  -1 -17    6.15    1.22
   0   1 -17    6.30    1.26
   0   1  18   19.95    1.89
   0  -1  18   19.07    1.82
   0  -1  18   21.66    1.92
   0   1 -18   19.71    2.20
   0  -1 -18   22.23    2.33
   0   1  19   11.62    1.54
   0  -1  19   10.99    1.49
   0  -1 -19   11.01    1.72
   0   1 -19   10.94    1.77
   0  -1  19    9.63    1.38
   0  -2   0  368.91    7.04
   0  -2   1  101.04    2.51
   0   2  -2    9.22    0.41
   0  -2  -2    9.49    0.41
   0  -2  -2    8.65    0.61
   0   2  -3    2.06    0.23
   0  -2  -3    1.92    0.24
   0  -2  -3    2.46    0.37
   0   2  -4   36.80    1.22
   0  -2  -4   34.84    1.19
   0  -2   4   35.42    1.25
   0  -2  -4   38.04    1.59
   0  -2   5    9.44    0.64
   0  -2  -5    8.91    0.61
   0   2  -5   10.36    0.63
   0   2  -5    9.82    0.65
   0  -2  -5    9.49    0.57
   0  -2  -5    9.74    0.84
   0  -2  -6  968.94   17.51
   0   2  -6  977.29   17.53
   0  -2  -6  994.55   17.53
   0   2  -6  981.95   17.31
   0  -2  -6  969.67   17.12
   0  -2  -6  958.74   18.41
   0   2  -7  127.53    3.19
   0  -2  -7  138.58    3.48
   0  -2   7  131.78    3.41
   0  -2  -7  129.30    3.42
   0   2  -7  132.90    3.46
   0  -2  -7  136.21    2.99
   0  -2  -7  131.34    4.08
   0  -2   8   12.99    0.92
   0  -2  -8   12.41    0.90
   0   2  -8   11.92    0.77
   0  -2   8   12.77    0.95
   0   2   8   13.45    0.97
   0  -2  -8   14.69    0.98
   0   2  -8   13.50    0.95
   0  -2  -8   12.03    0.64
   0  -2  -8   15.61    1.28
   0  -2  -9  205.13    5.06
   0   2  -9  201.82    4.61
   0  -2   9  213.94    5.13
   0   2  -9  211.77    5.08
   0  -2  -9  201.11    5.01
   0  -2   9  207.68    5.18
   0   2   9  209.05    5.18
   0  -2  -9  204.11    4.19
   0  -2  -9  193.07    5.81
   0  -2 -10  148.07    4.16
   0  -2  10  153.34    4.31
   0   2 -10  148.21    3.69
   0  -2  10  146.98    4.28
   0   2  10  145.69    4.24
   0  -2 -10  150.16    4.15
   0  -2 -10  146.84    3.21
   0  -2 -10  142.93    4.88
   0   2 -11   61.63    2.11
   0  -2  11   63.61    2.63
   0  -2 -11   61.18    2.51
   0   2  11   62.65    2.60
   0  -2  11   61.37    2.60
   0  -2 -11   60.64    1.52
   0  -2  11   66.67    1.79
   0  -2 -11   58.41    3.02
   0  -2 -12   13.52    1.17
   0   2 -12   13.58    0.93
   0  -2  12   13.15    1.22
   0   2  12   12.51    1.18
   0  -2  12   12.18    1.18
   0  -2  12   14.92    0.75
   0  -2  12   14.73    0.67
   0  -2 -12   12.84    1.45
   0  -2 -13   25.55    1.62
   0  -2  13   28.45    1.80
   0   2 -13   26.95    1.35
   0   2  13   26.84    1.81
   0  -2  13   25.70    1.76
   0  -2  13   27.13    0.84
   0  -2  13   27.73    0.97
   0  -2 -13   24.71    2.08
   0  -2  14   55.46    2.77
   0   2  14   55.88    2.76
   0  -2 -14   56.39    2.41
   0  -2  14   56.05    2.61
   0   2 -14   50.77    2.00
   0  -2  14   52.90    2.67
   0  -2 -14   54.31    3.22
   0   2  15  175.39    5.59
   0  -2  15  173.72    5.57
   0  -2  15  176.55    5.22
   0  -2  15  188.56    5.68
   0   2  15  168.05    5.44
   0  -2 -15  171.16    6.32
   0  -2  16    0.77    0.50
   0   2  16    0.77    0.50
   0  -2  16    0.69    0.45
   0   2  16    0.75    0.52
   0  -2 -16    1.08    0.73
   0  -2  16    0.88    0.52
   0   2  17   39.67    2.54
   0  -2  17   41.33    2.61
   0  -2  17   45.18    2.30
   0   2  17   42.84    2.62
   0  -2  17   42.59    2.60
   0  -2 -17   42.75    3.11
   0  -2  18   82.74    3.87
   0   2  18   73.42    3.69
   0   2  18   74.33    3.64
   0  -2  18   74.34    3.64
   0  -2 -18   77.44    4.32
   0  -2  19   10.79    1.45
   0  -3   0    0.14    0.17
   0  -3  -1 1196.85   21.46
   0  -3   1 1210.31   21.46
   0  -3  -2  527.25    9.08
   0  -3   2  519.94    9.09
   0   3   2  524.06    9.11
   0   3  -2  516.17    9.09
   0  -3   2  525.33    9.07
   0  -3   3   14.45    0.62
   0   3   3   14.32    0.62
   0  -3  -3   13.21    0.59
   0   3  -3   13.52    0.61
   0   3   4  164.12    3.54
   0  -3   4  162.52    3.54
   0   3  -4  163.35    3.53
   0  -3  -4  163.51    3.52
   0  -3   4  168.49    3.89
   0  -3  -4  169.78    4.34
   0   3   5   56.99    1.78
   0  -3   5   57.48    1.78
   0  -3  -5   58.59    1.78
   0   3  -5   59.00    1.78
   0  -3   5   56.88    1.91
   0  -3  -5   59.35    2.34
   0  -3   6   24.05    1.21
   0   3   6   25.80    1.18
   0   3  -6   26.74    1.20
   0  -3  -6   25.36    1.15
   0  -3   6   25.26    1.18
   0  -3  -6   25.65    1.19
   0  -3  -6   23.02    1.49
   0  -3   7    6.34    0.63
   0   3   7    4.91    0.56
   0  -3  -7    5.40    0.57
   0  -3   7    7.03    0.65
   0   3  -7    6.05    0.61
   0  -3  -7    5.97    0.55
   0  -3  -7    5.05    0.77
   0   3   7    5.38    0.81
   0  -3  -8   18.82    1.16
   0  -3  -8   20.72    1.17
   0   3  -8   20.65    1.17
   0  -3   8   18.54    1.16
   0   3   8   19.76    1.19
   0  -3  -8   20.58    1.03
   0   3   8   19.91    1.48
   0  -3  -8   18.83    1.49
   0  -3  -9   47.02    1.97
   0  -3   9   48.73    2.03
   0  -3  -9   46.11    1.94
   0   3   9   45.77    1.99
   0   3  -9   47.47    1.97
   0   3  -9   47.00    1.79
   0  -3   9   50.05    2.07
   0  -3  -9   46.53    1.65
   0  -3  -9   44.88    2.47
   0  -3 -10  148.51    4.13
   0  -3  10  152.95    4.24
   0  -3  10  152.99    4.31
   0   3  10  146.06    4.25
   0   3 -10  141.75    3.75
   0  -3 -10  145.29    3.49
   0  -3 -10  137.53    4.87
   0  -3 -11  166.71    4.60
   0  -3  11  161.89    4.65
   0   3  11  163.68    4.72
   0  -3  11  168.80    4.79
   0   3 -11  164.91    4.13
   0  -3 -11  161.96    3.74
   0  -3 -11  148.04    5.33
   0  -3 -12   96.32    3.38
   0  -3  12  103.14    3.62
   0  -3  12   94.61    3.52
   0   3 -12   99.47    2.99
   0   3  12  102.99    3.61
   0  -3 -12   99.77    2.55
   0  -3 -12   95.30    4.20
   0  -3  13   65.31    2.90
   0  -3 -13   62.81    2.72
   0  -3  13   65.54    2.89
   0   3  13   63.46    2.84
   0   3 -13   62.00    2.27
   0  -3  13   63.76    1.98
   0  -3 -13   61.30    1.74
   0  -3  13   63.97    1.97
   0  -3 -13   58.08    3.30
   0  -3  13   65.40    2.84
   0   3  13   64.98    2.87
   0  -3  14   11.45    1.24
   0   3  14   10.91    1.20
   0  -3  14   11.03    1.20
   0  -3  14   10.89    0.68
   0  -3  14   10.47    0.72
   0   3  14    9.48    1.11
   0  -3 -14    9.24    1.40
   0  -3  14   10.82    1.18
   0  -3  15   17.43    1.55
   0   3  15   16.80    1.55
   0  -3  15   19.27    1.65
   0  -3  15   16.74    0.74
   0   3  15   14.85    1.44
   0  -3  15   17.62    1.55
   0  -3 -15   15.25    1.82
   0   3  16    3.45    0.80
   0  -3  16    3.33    0.78
   0  -3  16    4.36    0.83
   0  -3 -16    5.37    1.20
   0   3  16    4.26    0.85
   0  -3  16    3.25    0.77
   0   3  17    4.55    0.93
   0  -3  17    6.22    1.12
   0  -3  17    4.48    0.86
   0  -3 -17    6.04    1.28
   0  -3  17    5.36    1.03
   0   3  17    3.91    0.89
   0  -3  18    7.17    1.19
   0   3  18    9.68    1.36
   0   3  18    6.16    1.10
   0  -3 -18    7.55    1.48
   0  -3  18    7.25    1.17
   0  -4   0   41.81    1.83
   0  -4  -1  113.77    3.36
   0  -4   1  114.69    3.40
   0   4   2    1.57    0.16
   0   4  -2    1.84    0.16
   0  -4  -2    1.66    0.15
   0  -4   2    1.38    0.14
   0   4   2    1.66    0.16
   0  -4  -3   33.70    1.00
   0   4   3   33.22    1.02
   0   4  -3   33.19    1.01
   0  -4   3   34.25    1.02
   0   4   3   32.58    1.01
   0  -4   3   33.59    0.99
   0  -4  -4  958.84   16.58
   0  -4   4  940.58   16.61
   0  -4   4  950.32   17.41
   0   4  -4  933.26   16.59
   0   4   4  960.91   16.65
   0   4   4  926.84   17.88
   0   4   4  953.42   16.63
   0  -4   4  957.40   16.59
   0  -4   5    2.98    0.37
   0   4  -5    2.70    0.34
   0  -4   5    2.74    0.44
   0   4   5    1.81    0.31
   0  -4  -5    2.02    0.33
   0   4   5    2.70    0.56
   0  -4  -5    2.28    0.53
   0  -4   6   21.76    1.23
   0  -4  -6   21.00    1.04
   0   4   6   20.07    1.04
   0   4  -6   20.70    1.03
   0  -4   6   20.08    1.04
   0  -4  -6   21.38    1.22
   0  -4  -6   19.96    1.45
   0   4   6   20.79    1.44
   0   4   7    1.19    0.31
   0  -4   7    1.39    0.36
   0  -4  -7    0.86    0.28
   0  -4   7    1.18    0.32
   0   4  -7    0.77    0.28
   0  -4  -7    1.71    0.40
   0   4   7    1.01    0.45
   0  -4  -7    1.01    0.47
   0  -4   8  243.06    5.83
   0  -4   8  247.26    5.64
   0  -4  -8  243.55    5.51
   0   4   8  234.39    5.58
   0   4  -8  240.58    5.52
   0  -4  -8  240.89    5.60
   0  -4  -8  245.75    6.74
   0  -4  -9   29.33    1.57
   0  -4   9   27.03    1.48
   0   4  -9   27.39    1.43
   0  -4  -9   29.16    1.47
   0   4   9   24.73    1.43
   0  -4  -9   27.41    1.40
   0  -4  -9   27.32    1.94
   0  -4 -10   36.70    1.84
   0  -4  10   34.15    1.81
   0  -4  10   35.31    1.80
   0   4  10   34.31    1.78
   0  -4 -10   36.72    1.61
   0  -4 -10   34.36    2.31
   0  -4  10   36.23    1.79
   0  -4 -11    2.26    0.56
   0  -4  11    1.81    0.52
   0  -4  11    2.60    0.58
   0   4  11    2.61    0.58
   0  -4 -11    3.19    0.48
   0  -4 -11    3.10    0.87
   0  -4  11    2.52    0.56
   0   4  11    1.72    0.49
   0  -4  12   87.14    3.29
   0   4  12   78.68    3.13
   0  -4  12   89.37    3.31
   0  -4 -12   86.35    2.60
   0   4  12   85.09    3.21
   0  -4  12   86.80    3.22
   0  -4 -12   81.52    3.92
   0  -4  13    3.58    0.73
   0   4  13    4.01    0.74
   0  -4  13    3.32    0.69
   0  -4 -13    4.21    0.53
   0  -4  13    4.53    0.62
   0   4  13    4.73    0.80
   0  -4 -13    5.61    1.10
   0  -4  13    5.77    0.85
   0  -4  14   16.31    1.51
   0  -4  14   18.03    1.51
   0   4  14   15.85    1.42
   0  -4  14   16.29    1.04
   0  -4 -14   11.56    1.55
   0   4  14   16.16    1.43
   0  -4  14   16.41    1.46
   0  -4  15  132.84    4.73
   0   4  15  128.73    4.58
   0  -4  15  132.50    4.67
   0  -4  15  132.46    3.42
   0  -4 -15  120.10    5.31
   0  -4  15  124.96    4.48
   0   4  15  140.55    4.73
   0   4  16   83.72    3.70
   0  -4  16   85.95    3.72
   0  -4  16   83.87    3.70
   0  -4  16   86.54    3.66
   0  -4 -16   75.24    4.19
   0   4  16   83.09    3.65
   0   4  17   98.66    4.13
   0  -4  17   91.84    4.00
   0  -4  17   95.82    3.99
   0  -4  17   94.98    3.98
   0  -4 -17   86.36    4.59
   0   4  17   87.90    3.90
   0   4  18    1.30    0.67
   0  -4  18    1.29    0.71
   0  -4 -18    2.91    1.01
   0  -4  18    1.39    0.65
   0   4  18    1.56    0.65
   0  -5   0    0.16    0.29
   0  -5   1    2.73    0.55
   0  -5  -1    1.69    0.49
   0  -5  -2   44.80    2.13
   0   5   2   45.69    2.10
   0  -5  -3  149.89    2.98
   0   5  -3  148.63    3.00
   0   5   3  155.24    3.06
   0   5   3  154.04    4.42
   0  -5   3  151.50    2.98
   0  -5   4   20.14    1.26
   0  -5   4   20.48    0.83
   0   5   4   20.83    0.85
   0  -5  -4   20.96    0.82
   0   5  -4   21.11    0.83
   0  -5   4   20.46    0.80
   0   5   4   21.22    0.85
   0   5   4   20.21    1.42
   0   5  -5   75.94    2.05
   0  -5   5   74.30    2.05
   0  -5  -5   75.20    2.03
   0  -5   5   71.63    2.63
   0   5   5   74.10    2.10
   0   5   5   72.91    2.05
   0   5   5   72.75    2.92
   0  -5   5   73.76    2.03
   0  -5   6  114.27    3.55
   0  -5  -6  115.50    2.93
   0   5  -6  117.63    2.96
   0   5   6  113.43    3.00
   0  -5   6  118.46    3.01
   0  -5  -6  117.30    3.63
   0   5   6  113.65    2.99
   0  -5   6  119.35    2.99
   0  -5   7   74.59    2.75
   0  -5  -7   76.92    2.30
   0  -5   7   74.46    2.36
   0   5   7   75.53    2.39
   0   5  -7   74.83    2.31
   0  -5  -7   73.49    2.75
   0  -5   7   71.71    2.30
   0  -5  -7   69.82    3.16
   0   5   7   74.50    2.36
   0  -5   8  150.26    4.34
   0  -5  -8  152.62    3.85
   0   5  -8  145.87    3.82
   0   5   8  150.71    3.97
   0  -5   8  151.46    3.97
   0  -5  -8  156.03    4.34
   0  -5  -8  156.89    5.19
   0   5   8  146.78    3.93
   0  -5   8  151.06    3.93
   0  -5   9   13.87    1.16
   0   5   9   12.04    0.99
   0   5  -9   12.46    0.95
   0  -5  -9   12.54    0.94
   0  -5   9   13.56    1.04
   0  -5  -9   12.67    1.05
   0   5   9   13.17    1.01
   0  -5  -9   13.89    1.47
   0  -5   9   12.79    0.99
   0   5  10  118.46    3.69
   0  -5  10  119.43    3.68
   0  -5 -10  119.87    3.66
   0  -5 -10  119.40    4.71
   0   5  10  121.18    3.69
   0  -5  10  120.75    3.65
   0  -5  11    0.83    0.46
   0  -5  11    0.66    0.39
   0   5  11    0.75    0.38
   0  -5 -11    0.64    0.37
   0  -5  11    0.64    0.39
   0   5  11    0.90    0.45
   0  -5 -11    0.15    0.45
   0  -5  12   37.92    2.15
   0   5  12   43.63    2.19
   0  -5  12   39.22    2.09
   0  -5 -12   38.65    1.81
   0  -5  12   40.17    2.07
   0   5  12   38.72    2.06
   0  -5 -12   42.39    2.82
   0  -5  13   58.82    2.77
   0  -5  13   55.40    2.63
   0   5  13   52.38    2.56
   0  -5  13   56.39    2.36
   0  -5 -13   57.62    2.21
   0   5  13   54.52    2.59
   0  -5  13   57.21    2.62
   0  -5 -13   49.08    3.18
   0  -5  14    2.52    0.69
   0  -5  14    2.82    0.68
   0   5  14    1.76    0.57
   0  -5  14    1.91    0.53
   0   5  14    2.46    0.61
   0  -5 -14    1.44    0.68
   0  -5  14    1.78    0.56
   0  -5  15    1.00    0.66
   0  -5  15    0.58    0.50
   0   5  15    0.59    0.49
   0  -5  15    0.34    0.33
   0  -5 -15    0.19    0.69
   0  -5  15    0.68    0.46
   0   5  15    0.81    0.45
   0   5  16   72.33    3.37
   0  -5  16   76.60    3.47
   0  -5  16   73.14    3.50
   0   5  16   67.80    3.25
   0  -5 -16   64.65    3.94
   0  -5  16   77.45    3.42
   0   5  17   29.12    2.14
   0  -5  17   25.56    2.03
   0  -5  17   25.10    2.08
   0  -5 -17   25.00    2.51
   0  -5  17   25.75    2.00
   0   5  17   25.62    2.02
   0   5  18   52.43    3.01
   0  -5  18   50.99    2.94
   0   5  18   48.49    2.89
   0  -5  18   50.20    2.88
   0  -6   0  175.45    5.19
   0  -6   1  188.43    5.42
   0  -6  -1  183.51    5.36
   0  -6  -2  275.25    7.07
   0  -6  -3  314.04    7.84
   0   6  -4   70.01    1.72
   0  -6  -4   70.27    1.69
   0  -6   4   64.19    2.63
   0   6   4   68.96    1.74
   0  -6  -5  355.82    6.82
   0   6   5  365.32    6.96
   0  -6   5  353.31    8.17
   0   6  -5  359.91    6.88
   0  -6   5  360.19    6.85
   0   6   5  363.45    6.97
   0   6   6    4.11    0.47
   0  -6   6    3.05    0.61
   0  -6   6    3.96    0.45
   0   6  -6    4.04    0.45
   0  -6  -6    3.86    0.68
   0  -6   6    4.25    0.46
   0   6   6    3.72    0.44
   0  -6   7  258.76    6.58
   0   6  -7  265.18    5.62
   0  -6   7  259.28    5.67
   0   6   7  259.20    5.73
   0  -6  -7  271.56    5.62
   0  -6  -7  274.71    6.82
   0  -6   7  262.15    5.64
   0   6   7  258.51    5.72
   0  -6   8  225.93    6.00
   0   6   8  230.62    5.34
   0  -6   8  230.86    5.29
   0  -6  -8  230.23    5.17
   0   6  -8  226.59    5.16
   0  -6  -8  228.01    6.08
   0   6   8  226.68    5.30
   0  -6   8  224.52    5.20
   0   6   9    0.33    0.29
   0  -6   9    1.07    0.32
   0  -6  -9    1.09    0.35
   0   6  -9    0.93    0.31
   0  -6   9    0.75    0.43
   0  -6  -9    0.64    0.38
   0  -6  -9    1.14    0.66
   0  -6   9    0.67    0.30
   0   6   9    0.64    0.33
   0  -6  10   58.87    2.73
   0  -6  10   63.18    2.45
   0   6  10   63.80    2.49
   0  -6 -10   65.92    2.75
   0  -6  10   61.72    2.38
   0  -6 -10   61.18    3.37
   0   6  10   65.74    2.49
   0  -6  11    1.59    0.47
   0   6  11    0.41    0.34
   0  -6 -11    1.24    0.47
   0   6  11    0.64    0.36
   0  -6  11    0.85    0.36
   0  -6 -11    2.26    0.77
   0  -6  12   30.17    1.95
   0   6  12   26.64    1.71
   0  -6  12   28.60    1.74
   0  -6 -12   28.07    1.69
   0  -6  12   29.12    1.72
   0  -6 -12   27.56    2.36
   0   6  12   30.27    1.77
   0  -6  13   33.32    2.14
   0   6  13   32.16    1.95
   0  -6  13   37.28    2.07
   0  -6  13   31.80    1.89
   0  -6 -13   30.63    2.57
   0   6  13   31.47    1.91
   0  -6  13   35.55    1.98
   0  -6  14   36.63    2.30
   0  -6  14   36.72    2.13
   0   6  14   36.65    2.16
   0  -6  14   35.97    2.02
   0  -6  14   36.15    2.10
   0  -6 -14   32.52    2.69
   0   6  14   38.69    2.18
   0  -6  15    0.77    0.53
   0  -6  15    0.11    0.42
   0   6  15    0.11    0.48
   0  -6  15    0.35    0.38
   0  -6  15    0.11    0.39
   0   6  15   -0.11    0.47
   0  -6 -15    0.39    0.74
   0  -6  16    0.36    0.50
   0   6  16    0.24    0.55
   0  -6  16    1.24    0.65
   0  -6 -16    0.41    0.62
   0  -6  16    0.81    0.52
   0   6  16    0.96    0.58
   0   6  17   28.76    2.11
   0  -6  17   33.41    2.28
   0  -6  17   30.94    2.36
   0  -6  17   31.18    2.14
   0   6  17   31.49    2.21
   0  -6  18   -0.27    0.50
   0  -6  18   -0.26    0.50
   0  -7   0    0.23    0.37
   0  -7   1   78.14    3.38
   0  -7  -1   80.32    3.44
   0  -7  -2   16.93    1.54
   0  -7  -3   92.89    3.82
   0  -7   4  125.64    4.16
   0  -7  -4  121.54    4.52
   0  -7  -5   35.53    1.11
   0   7  -5   37.52    1.17
   0  -7   5   32.78    1.96
   0  -7  -5   39.04    2.41
   0  -7   6   96.55    3.56
   0  -7  -6   93.82    2.36
   0   7  -6   91.65    2.37
   0  -7  -6   92.01    3.64
   0   7   6   89.02    2.41
   0  -7   7   42.51    2.28
   0   7  -7   41.61    1.52
   0  -7  -7   42.98    1.52
   0  -7  -7   43.06    2.38
   0   7   7   43.20    1.60
   0  -7   7   39.94    1.50
   0   7  -8    0.81    0.30
   0   7   8    0.65    0.31
   0  -7   8    0.51    0.39
   0  -7  -8    0.77    0.46
   0   7   8    0.81    0.29
   0  -7   8    0.49    0.24
   0  -7   9  133.08    4.47
   0   7  -9  139.28    3.64
   0   7   9  139.22    3.78
   0  -7  -9  135.23    4.55
   0   7   9  131.15    3.72
   0  -7   9  132.86    3.63
   0  -7  10   61.24    2.89
   0   7  10   61.67    2.40
   0  -7  10   60.68    2.33
   0  -7 -10   58.99    2.83
   0  -7  10   64.08    2.35
   0   7  10   64.04    2.42
   0  -7  11  120.38    4.31
   0  -7  11  114.90    3.63
   0   7  11  124.87    3.79
   0  -7 -11  120.13    4.20
   0   7  11  116.82    3.67
   0  -7  11  114.86    3.58
   0  -7  12  239.38    6.19
   0   7  12  249.39    6.33
   0  -7 -12  264.43    6.82
   0  -7  12  245.49    6.17
   0   7  12  242.55    6.25
   0  -7  13   32.77    2.21
   0   7  13   38.88    2.09
   0  -7  13   32.13    1.92
   0  -7  13   33.15    2.11
   0  -7  13   34.24    1.92
   0  -7 -13   34.60    2.78
   0   7  13   34.88    1.98
   0  -7  14    3.89    0.88
   0  -7  14    3.69    0.77
   0   7  14    4.04    0.79
   0  -7  14    3.81    0.80
   0  -7 -14    4.38    1.17
   0  -7  14    3.58    0.75
   0   7  14    2.74    0.71
   0  -7  15    4.40    0.89
   0   7  15    6.38    1.01
   0  -7  15    5.85    1.07
   0   7  15    6.92    1.03
   0  -7 -15    6.85    1.38
   0  -7  16    2.53    0.74
   0  -7  16    3.27    0.85
   0   7  16    2.24    0.75
   0  -7  17   13.57    1.46
   0   7  17   10.73    1.33
   0  -8   0    1.58    0.65
   0  -8  -1  338.07    8.95
   0  -8  -2    8.90    1.23
   0  -8  -3    0.82    0.54
   0  -8   3    0.43    0.41
   0  -8  -4   80.20    3.72
   0  -8   4   73.19    3.21
   0  -8  -5    0.15    0.53
   0  -8  -5    1.29    0.61
   0  -8   5    0.22    0.40
   0  -8   6   86.02    3.56
   0  -8  -6   83.79    4.00
   0  -8  -6   94.67    3.93
   0  -8   7   65.25    3.05
   0  -8  -7   69.65    3.32
   0  -8   8    7.09    1.05
   0  -8  -8    6.93    1.09
   0  -8   9   26.94    1.94
   0  -8  -9   28.29    2.04
   0   8   9   25.35    1.33
   0  -8  10  111.10    4.28
   0  -8 -10  119.16    4.46
   0   8  10  115.50    3.41
   0  -8  11    2.43    0.72
   0  -8 -11    0.99    0.60
   0   8  11    1.67    0.50
   0  -8 -12   73.84    3.33
   0  -8  12   70.61    3.41
   0   8  12   68.72    2.72
   0  -8  13    7.81    1.17
   0  -8  13    6.84    1.08
   0   8  13    9.16    1.03
   0  -8  14   13.67    1.55
   0  -8  14   15.05    1.56
   0   8  14   14.90    1.33
   0  -8  15    0.87    0.62
   0  -8  16   66.39    3.54
   0  -9   0    0.30    0.55
   0  -9  -1   22.55    1.99
   0  -9  -2   54.40    3.16
   0  -9   3   27.85    2.02
   0  -9  -3   28.73    2.22
   0  -9  -3   31.22    2.40
   0  -9  -4    1.74    0.77
   0  -9  -4    2.54    0.80
   0  -9   4    3.33    0.76
   0  -9  -5   59.33    3.41
   0  -9  -5   63.39    3.36
   0  -9   5   61.59    3.10
   0  -9   6   89.95    3.86
   0  -9  -6   87.33    4.26
   0  -9  -6   96.44    4.22
   0  -9  -7  146.84    5.76
   0  -9   7  140.15    5.07
   0  -9  -7  156.35    5.54
   0  -9  -8    0.54    0.63
   0  -9  -8    1.32    0.63
   0  -9   8    0.39    0.47
   0  -9  -9   -0.15    0.59
   0  -9   9    0.13    0.48
   0  -9  10   34.52    2.34
   0  -9 -10   36.92    2.50
   0  -9  10   30.68    2.36
   0  -9  11    9.23    1.35
   0  -9 -11    9.37    1.31
   0  -9  11    7.72    1.20
   0  -9  12    2.53    0.82
   0  -9  13   13.71    1.62
   0  -9  14    4.01    0.97
   0 -10   0  131.56    5.35
   0 -10  -1   59.97    3.47
   0 -10  -1   52.15    3.26
   0 -10  -2    3.40    0.96
   0 -10  -2    2.88    0.91
   0 -10   3   83.68    3.80
   0 -10  -3   81.75    4.10
   0 -10  -3   79.25    4.10
   0 -10  -4    5.99    1.24
   0 -10   4    8.23    1.18
   0 -10  -4    6.32    1.21
   0 -10   5   20.84    1.86
   0 -10  -5   19.99    2.06
   0 -10  -5   14.79    1.79
   0 -10  -6    0.18    0.61
   0 -10  -6    1.17    0.70
   0 -10   6    1.14    0.57
   0 -10  -7    8.12    1.42
   0 -10   7    7.66    1.32
   0 -10  -7    9.50    1.43
   0 -10   7    8.12    1.24
   0 -10  -8    9.37    1.52
   0 -10  -8    7.61    1.33
   0 -10   8    7.99    1.36
   0 -10   8    7.93    1.21
   0 -10  -9   17.62    2.09
   0 -10   9   16.72    1.72
   0 -10   9   15.06    1.80
   0 -10  -9   18.27    1.96
   0 -10  10   56.43    3.15
   0 -10  10   56.15    3.40
   0 -10 -10   54.79    3.27
   0 -10  11   93.39    4.46
   0 -11   0    0.38    0.75
   0 -11   1   17.52    2.01
   0 -11  -1   16.68    2.00
   0 -11  -2   21.23    2.20
   0 -11  -2   19.71    2.16
   0 -11  -3    5.11    1.23
   0 -11  -3    5.91    1.25
   0 -11  -4    7.51    1.41
   0 -11  -4    5.47    1.24
   0 -11  -5   59.17    3.66
  -1   0  19   85.99    4.08
   1   0 -19   88.98    4.78
  -1   0  19   86.43    4.03
  -1   0  18   -0.29    0.62
   1   0 -18    0.39    0.60
  -1   0  18    0.14    0.47
  -1   0  17    7.38    1.15
  -1   0  17    9.06    1.25
   1   0 -17    6.93    1.32
  -1   0  16    0.64    0.50
  -1   0  16    0.12    0.38
   1   0 -16   -0.17    0.52
  -1   0  15    2.48    0.64
   1   0 -15    1.88    0.71
  -1   0  15    1.73    0.62
   1   0 -14    0.14    0.24
  -1   0  14   -0.11    0.41
   1   0 -14   -0.14    0.48
  -1   0  14    0.32    0.32
  -1   0  13   35.71    2.06
   1   0 -13   35.98    1.43
  -1   0  13   30.45    1.89
   1   0 -13   34.92    2.32
  -1   0  12    0.36    0.32
  -1   0  12    1.33    0.35
  -1   0  12    0.44    0.28
  -1   0  11   66.48    2.67
  -1   0  11   69.42    2.20
  -1   0  11   61.80    2.55
  -1   0  10    0.30    0.26
   1   0 -10   -0.20    0.23
   1   0 -10    0.18    0.17
  -1   0  10    0.26    0.20
  -1   0  10    0.36    0.23
   1   0  -9   37.19    1.67
  -1   0   9   37.85    1.76
  -1   0   9   37.30    1.40
   1   0  -9   37.77    1.30
  -1   0   9   33.47    1.64
  -1   0   8    0.52    0.29
   1   0  -8    0.53    0.26
  -1   0   8    0.38    0.20
   1   0  -7  209.42    4.78
  -1   0   7  209.77    4.87
   1   0  -7  222.18    4.30
  -1   0   7  210.50    4.37
  -1   0   7  208.67    4.82
  -1   0   6    0.17    0.15
   1   0  -6    0.51    0.20
  -1   0   6    0.31    0.18
  -1   0   6    0.20    0.14
   1   0  -6    0.15    0.11
  -1   0   6    0.21    0.14
   1   0  -5   11.17    0.65
  -1   0   5   10.94    0.66
  -1   0   5   10.90    0.66
  -1   0   5   11.04    0.65
   1   0  -4   -0.03    0.10
  -1   0   4   -0.03    0.12
  -1   0   4    0.08    0.13
   1   0  -4    0.03    0.12
  -1   0   4    0.37    0.11
  -1   0   4    0.14    0.11
   1   0  -3  513.27    9.15
  -1   0   3  515.28    9.19
  -1   0   3  511.84    9.16
   1   0  -3  511.77    9.17
   1   0  -3  516.34    9.16
  -1   0   3  514.23    9.17
   1   0  -2    0.31    0.10
   1   0  -2    0.06    0.07
  -1   0   2    0.12    0.09
   1   0  -1    4.24    0.29
  -1   0   0    0.61    0.11
   1   0   0    1.18    0.15
   1   0   0    0.23    0.10
  -1   0   0    0.78    0.14
  -1   0  -1  162.66    3.32
   1   0   1  159.12    3.33
  -1   0  -1  161.93    3.27
  -1   0  -2    0.38    0.17
  -1   0  -2    0.15    0.12
  -1   0  -3  258.09    5.46
   1   0   3  254.28    5.15
  -1   0  -4    0.17    0.22
   1   0   4    0.23    0.21
  -1   0  -4    0.52    0.15
   1   0   4    0.49    0.18
   1   0   5   23.66    1.22
  -1   0  -5   25.26    1.21
   1   0   5   24.42    0.92
  -1   0  -5   25.52    0.84
   1   0   6    0.18    0.23
  -1   0  -6    0.26    0.23
   1   0   6    0.10    0.14
  -1   0  -7   42.85    1.75
   1   0   7   41.80    1.84
   1   0   7   41.05    1.22
   1   0   8    0.14    0.25
  -1   0  -8    0.12    0.25
   1   0   8    0.25    0.14
   1   0   9   11.06    0.97
  -1   0  -9    8.99    0.86
   1   0   9    9.89    0.48
  -1   0 -10    0.07    0.25
   1   0  10    0.31    0.29
   1   0  10    0.22    0.11
  -1   0 -10   -0.21    0.28
  -1   0 -11  427.27    8.92
   1   0  11  418.31    9.23
  -1   0 -11  404.85    9.97
   1   0  12    0.35    0.35
  -1   0 -12    0.07    0.31
  -1   0 -12    0.13    0.39
   1   0  13  117.10    4.14
   1   0  13  115.79    3.87
  -1   0 -13  116.75    3.56
  -1   0 -13  114.83    4.65
   1   0  14   -0.12    0.37
   1   0  14   -0.09    0.30
  -1   0 -14   -0.16    0.45
   1   0  15   89.99    3.74
   1   0  15   86.22    3.28
   1   0  16    0.13    0.52
  -1   0 -16    0.18    0.58
   1   0  17   35.83    2.46
  -1   0 -17   37.27    2.94
   1   0  18   -0.15    0.63
  -1   0 -18    0.41    0.65
   1   0  18    1.32    0.51
  -1   1  19   39.32    2.68
  -1  -1  19   40.28    2.72
   1   1 -19   37.46    3.07
  -1  -1  19   39.91    2.66
   1  -1 -19   37.77    3.05
  -1  -1  18    0.44    0.51
  -1   1  18    0.15    0.46
   1   1 -18    0.39    0.62
  -1  -1  18   -0.28    0.57
   1  -1 -18   -0.19    0.70
  -1   1  17   16.50    1.66
   1   1 -17   19.14    2.03
   1  -1 -17   14.99    1.80
  -1  -1  17   16.60    1.63
  -1   1  16  131.66    4.79
  -1  -1  16  136.32    3.85
   1  -1 -16  123.69    5.23
  -1  -1  16  134.79    4.81
  -1   1  15    0.12    0.41
  -1  -1  15    0.88    0.40
   1  -1 -15   -0.16    0.48
  -1  -1  15    0.69    0.44
  -1   1  14  166.87    5.19
   1   1 -14  161.00    3.90
  -1  -1  14  170.27    4.41
   1  -1 -14  166.12    4.09
   1  -1 -14  159.34    5.78
  -1  -1  14  161.64    5.09
  -1   1  13   92.89    3.50
   1  -1 -13   92.81    2.72
  -1  -1  13   87.49    2.88
   1   1 -13   89.50    2.50
  -1  -1  13   88.73    3.38
   1  -1 -13   82.02    3.84
  -1   1  12   11.01    1.07
   1  -1 -12   10.85    0.83
   1   1 -12   11.71    0.76
  -1  -1  12   10.23    0.88
  -1  -1  12   10.42    1.02
   1  -1 -12    9.86    1.25
  -1   1  11  130.60    4.04
   1   1 -11  128.95    3.13
  -1  -1  11  129.80    3.64
   1  -1 -11  136.25    3.49
   1  -1 -11  125.63    4.50
  -1  -1  11  130.87    4.00
  -1   1  10    9.47    0.90
   1  -1 -10    8.82    0.84
   1  -1 -10   11.32    0.83
  -1  -1  10    9.39    0.81
   1   1 -10   10.96    0.66
  -1  -1  10   10.80    0.93
   1  -1 -10    7.45    0.97
  -1  -1   9    1.07    0.31
   1  -1  -9    1.10    0.31
   1  -1  -9    1.12    0.35
   1   1  -9    1.78    0.27
  -1   1   9    1.05    0.32
  -1  -1   9    1.18    0.13
  -1  -1   9    1.15    0.31
   1  -1  -9    1.02    0.40
   1  -1  -8  325.68    6.74
  -1  -1   8  320.92    6.75
   1   1  -8  326.10    6.29
   1  -1  -8  330.59    6.97
  -1   1   8  330.03    7.09
  -1  -1   8  333.86    5.90
  -1  -1   8  328.56    7.03
   1  -1  -8  332.49    7.67
   1   1  -7  175.76    3.63
  -1  -1   7  175.63    3.92
   1  -1  -7  178.29    3.96
   1  -1  -7  177.27    4.17
  -1   1   7  175.18    4.24
  -1  -1   7  178.13    3.41
  -1  -1   7  171.78    4.19
   1  -1  -7  179.30    4.70
   1  -1  -6   21.36    0.90
   1   1  -6   21.39    0.78
  -1  -1   6   22.09    0.89
  -1  -1   6   23.06    1.11
   1  -1  -6   22.48    1.05
  -1   1   6   20.93    1.04
  -1  -1   6   21.61    0.72
   1  -1  -6   21.76    1.25
  -1  -1   6   22.54    1.06
   1  -1  -5 1768.12   30.38
  -1  -1   5 1826.92   30.84
  -1   1   5 1822.59   30.80
   1  -1  -5 1807.23   30.74
   1   1  -5 1799.39   30.25
  -1  -1   5 1811.57   30.25
  -1  -1   5 1769.81   30.76
  -1  -1   4    1.49    0.18
   1  -1  -4    1.49    0.24
  -1   1   4    1.48    0.23
   1   1  -4    1.71    0.25
  -1  -1   4    1.47    0.24
  -1  -1   4    1.44    0.19
   1  -1  -4    1.36    0.27
  -1  -1   4    1.40    0.22
   1  -1  -3  236.87    4.60
  -1  -1   3  240.62    4.64
   1   1  -3  239.89    4.63
  -1  -1   3  237.19    4.41
  -1   1   3  243.43    4.66
  -1  -1   3  242.04    4.56
   1  -1  -3  245.75    4.89
   1  -1  -3  247.08    4.63
  -1  -1   3  247.18    4.64
   1   1  -2    3.79    0.27
   1  -1  -2    3.89    0.27
  -1  -1   2    4.37    0.28
   1   1  -2    3.80    0.29
   1  -1  -2    4.65    0.33
   1  -1  -2    3.69    0.26
  -1  -1   2    3.81    0.27
   1   1  -1   47.44    1.24
   1   1  -1   47.20    1.24
   1  -1   0   11.05    0.47
  -1   1   0   10.15    0.44
  -1  -1   0   10.21    0.50
   1   1   0    9.98    0.49
  -1   1  -1   68.09    1.64
   1  -1   1   71.33    1.67
  -1  -1  -1   69.80    1.70
   1   1   1   71.87    1.78
  -1  -1  -2    0.47    0.18
  -1   1  -2    0.32    0.14
  -1  -1  -2    0.41    0.14
  -1  -1  -2    0.20    0.15
   1   1   2    0.19    0.19
  -1  -1  -3  422.51    7.95
  -1   1  -3  419.45    7.80
   1   1   3  410.70    7.61
  -1  -1  -3  419.38    7.66
   1   1   3  442.26    8.29
  -1  -1  -3  410.32    8.17
  -1  -1  -4    1.19    0.27
   1   1   4    0.86    0.18
  -1  -1  -4    0.75    0.18
   1   1   4    0.65    0.30
  -1  -1  -4    0.93    0.28
   1  -1   5    1.50    0.32
   1   1   5    1.12    0.27
  -1  -1  -5    0.83    0.28
   1   1   5    0.94    0.18
  -1  -1  -5    1.33    0.24
  -1  -1  -5    0.67    0.28
   1   1   6   60.20    2.07
   1  -1   6   58.75    2.15
  -1  -1  -6   63.92    2.20
   1   1   6   59.20    1.54
  -1  -1  -6   61.69    1.77
   1  -1   6   58.04    1.63
  -1  -1  -6   59.88    2.36
   1   1   7  501.32    9.79
   1  -1   7  493.71   10.02
  -1  -1  -7  492.84   10.00
  -1  -1  -7  475.03    9.12
   1   1   7  484.47    8.75
   1  -1   7  486.07    9.00
  -1  -1  -7  494.29   10.43
  -1  -1  -8    0.51    0.30
   1  -1   8    0.77    0.37
   1   1   8    0.19    0.22
   1  -1   8    0.31    0.19
  -1  -1  -8    0.27    0.18
   1   1   8    0.46    0.14
   1  -1   9   59.43    2.53
  -1  -1  -9   58.57    2.42
  -1  -1  -9   55.00    2.25
   1  -1   9   63.67    1.89
  -1  -1  -9   59.74    1.58
  -1  -1  -9   66.88    2.93
  -1  -1 -10   66.26    2.62
   1  -1  10   65.85    2.74
   1  -1  10   64.68    1.89
  -1  -1 -10   70.31    3.17
  -1   1 -11   54.62    2.13
  -1  -1 -11   52.24    2.32
   1  -1  11   53.41    2.52
   1  -1  11   56.02    1.55
  -1  -1 -11   59.29    2.99
   1  -1  12    3.80    0.72
  -1  -1 -12    4.07    0.68
  -1   1 -12    2.80    0.53
   1  -1  12    3.24    0.27
  -1  -1 -12    4.09    0.86
   1   1  13   32.58    2.03
  -1  -1 -13   32.88    1.81
  -1   1 -13   34.49    1.69
   1  -1  13   33.02    1.98
  -1  -1 -13   35.11    2.45
   1   1  14    2.42    0.68
   1  -1  14    2.03    0.58
  -1  -1 -14    2.20    0.78
   1   1  15   76.13    3.42
   1  -1  15   76.36    3.16
  -1   1 -15   75.30    3.90
  -1  -1 -15   73.93    3.88
   1   1  16   85.25    3.78
   1  -1  16   86.54    3.44
  -1  -1 -16   84.83    4.30
  -1   1 -16   80.73    4.23
   1   1  17   22.37    1.93
   1  -1  17   23.89    1.99
   1  -1  17   18.86    1.57
  -1  -1 -17   19.19    2.10
  -1   1 -17   21.89    2.25
   1   1  18   41.14    2.70
   1  -1  18   41.04    2.72
   1  -1  18   35.95    2.16
  -1  -1 -18   41.47    3.18
  -1   1 -18   37.27    3.02
   1  -1  18   35.99    2.51
  -1  -2  19    1.37    0.65
  -1   2  19    1.52    0.80
  -1  -2  19    2.38    0.78
   1  -2 -19    1.44    0.86
  -1   2  19    0.89    0.67
  -1  -2  18  165.05    5.84
  -1   2  18  180.72    6.02
  -1   2  18  167.77    5.78
   1  -2 -18  160.22    6.50
  -1  -2  18  178.76    5.92
  -1   2  17   31.26    2.23
  -1  -2  17   28.04    2.11
  -1  -2  17   28.40    1.65
  -1   2  17   30.32    2.17
  -1  -2  17   27.52    2.05
   1  -2 -17   23.32    2.27
  -1   2  16    5.59    0.96
  -1  -2  16    5.87    0.99
  -1  -2  16    4.96    0.74
   1  -2 -16    5.08    1.12
  -1  -2  16    4.33    0.88
  -1   2  16    6.19    1.00
  -1   2  15    5.33    0.94
  -1  -2  15    5.34    0.92
  -1  -2  15    4.16    0.68
   1  -2 -15    4.12    1.00
  -1   2  15    5.88    0.92
  -1  -2  15    4.73    0.82
  -1   2  14  131.92    4.55
   1   2 -14  139.90    3.50
  -1  -2  14  138.30    4.63
   1  -2 -14  134.15    3.83
  -1  -2  14  130.96    4.07
  -1   2  14  141.35    4.62
  -1  -2  14  140.22    4.60
  -1  -2  13   99.79    3.70
  -1   2  13  100.07    3.69
   1   2 -13  103.50    2.82
   1  -2 -13  106.05    3.31
  -1  -2  13   96.17    3.36
  -1  -2  13  105.05    3.73
   1  -2 -13   94.89    4.20
  -1   2  13  100.74    3.66
   1  -2 -12  176.84    4.66
  -1  -2  12  175.08    4.81
   1   2 -12  180.35    4.12
  -1  -2  12  179.02    5.12
  -1   2  12  172.92    5.05
  -1  -2  12  172.59    3.50
  -1  -2  12  178.80    3.51
  -1   2  12  172.27    5.01
   1  -2 -12  166.88    5.67
  -1  -2  12  175.48    5.03
   1  -2 -11    9.31    0.87
  -1  -2  11    9.65    0.91
  -1  -2  11    9.42    0.96
   1   2 -11    9.48    0.70
  -1   2  11    9.89    0.98
  -1  -2  11    8.57    0.53
   1  -2 -11   10.65    1.25
  -1  -2  11   11.00    1.00
  -1   2  11    8.31    0.88
   1  -2 -10  434.43    8.84
  -1  -2  10  418.41    8.85
  -1   2  10  425.51    9.20
  -1  -2  10  425.58    9.21
   1   2 -10  440.60    9.04
   1   2 -10  434.27    8.31
   1  -2 -10  428.25    9.00
  -1  -2  10  435.13    8.02
   1  -2 -10  430.75    7.67
  -1  -2  10  437.16    9.20
   1  -2 -10  406.57    9.96
  -1   2  10  424.23    9.14
  -1  -2   9  444.31    8.61
   1  -2  -9  429.84    8.56
  -1   2   9  423.54    8.92
   1   2  -9  433.60    8.17
   1  -2  -9  422.34    8.72
  -1  -2   9  428.66    8.95
   1   2  -9  433.73    8.78
  -1  -2   9  425.88    7.99
   1  -2  -9  419.97    7.70
  -1   2   9  408.40    8.83
   1  -2  -9  401.14    9.61
  -1  -2   9  424.14    8.87
  -1  -2   8    3.85    0.46
   1  -2  -8    4.10    0.48
   1   2  -8    4.23    0.42
   1  -2  -8    4.16    0.52
   1   2  -8    4.24    0.52
  -1  -2   8    4.05    0.52
  -1   2   8    4.33    0.55
   1  -2  -8    4.22    0.35
  -1  -2   8    4.10    0.39
  -1  -2   8    3.71    0.51
   1  -2  -8    3.18    0.62
  -1   2   8    3.54    0.49
   1  -2  -7  172.67    3.88
   1  -2  -7  167.73    4.03
  -1   2   7  171.54    4.14
   1   2  -7  162.26    4.02
  -1  -2   7  176.12    4.18
  -1  -2   7  174.51    3.73
  -1   2   7  167.40    4.09
  -1  -2   7  169.68    4.11
   1  -2  -7  171.24    4.72
   1   2  -6 1138.94   20.21
  -1   2   6 1141.73   20.30
   1  -2  -6 1144.22   20.21
  -1  -2   6 1157.85   20.31
  -1  -2   6 1150.82   19.99
   1  -2  -6 1088.91   20.97
  -1   2   6 1133.26   20.87
  -1  -2   6 1169.23   20.28
  -1   2   6 1136.43   20.24
  -1   2   5   17.47    0.89
  -1  -2   5   18.74    0.91
   1   2  -5   20.74    0.92
  -1   2   5   19.11    0.92
  -1  -2   5   19.83    0.94
   1  -2  -5   19.88    0.90
  -1  -2   5   18.47    0.83
  -1   2   5   17.45    0.87
   1  -2  -5   18.55    1.11
  -1   2   5   19.80    1.13
  -1  -2   5   20.34    0.93
  -1   2   4   41.48    1.33
   1  -2  -4   41.33    1.28
  -1  -2   4   42.93    1.32
  -1  -2   4   41.25    1.32
  -1  -2   4   39.03    1.27
  -1   2   4   40.61    1.31
   1   2  -4   43.25    1.31
  -1   2   4   40.95    1.57
   1  -2  -4   43.34    1.62
  -1  -2   4   40.53    1.29
  -1   2   4   39.72    1.29
   1   2  -3    7.66    0.43
  -1   2   3    7.27    0.44
  -1  -2   3    7.73    0.45
   1  -2  -3    7.19    0.43
   1   2  -3    7.38    0.43
  -1   2   3    8.52    0.47
   1  -2  -3    7.86    0.44
  -1  -2   3    8.17    0.46
  -1   2   3    7.35    0.58
  -1  -2   3    7.60    0.44
   1  -2  -3    9.00    0.62
  -1   2   3    7.32    0.43
   1   2  -2  244.56    4.44
   1   2  -2  238.92    4.44
  -1  -2   2  246.70    4.46
  -1   2   2  231.29    4.43
   1  -2  -2  240.26    4.43
   1  -2  -2  242.68    4.46
  -1   2   2  234.49    4.86
   1   2  -2  237.11    4.42
   1  -2  -2  242.67    4.44
   1   2  -2  242.63    5.01
  -1   2   1    1.05    0.12
  -1  -2   1    0.87    0.11
   1   2  -1    0.70    0.26
  -1  -2   1    0.73    0.21
  -1  -2   0  172.87    3.83
  -1  -2   0  175.02    3.77
   1  -2   0  172.93    3.68
   1  -2   1  279.70    5.46
  -1  -2  -1  279.33    5.58
   1   2   1  276.72    5.64
  -1   2  -2  945.36   16.58
  -1  -2  -2  953.04   16.70
  -1  -2  -2  928.95   16.95
   1   2   2  939.53   16.92
  -1   2  -3   63.96    1.84
  -1  -2  -3   63.40    1.87
  -1  -2  -3   62.99    2.14
   1   2   3   67.96    2.17
  -1   2  -4    0.04    0.15
   1  -2   4    0.04    0.15
  -1  -2  -4    0.35    0.18
   1   2   4    0.35    0.27
  -1  -2  -5  173.16    4.23
   1  -2   5  187.52    4.27
  -1   2  -5  178.43    4.06
  -1  -2  -5  182.37    3.96
   1   2   5  187.70    4.73
  -1  -2  -5  173.55    4.66
  -1  -2  -6    0.27    0.22
   1  -2   6    0.21    0.21
  -1   2  -6    0.04    0.17
  -1  -2  -6    0.76    0.22
   1   2   6    0.23    0.31
  -1  -2  -6    0.08    0.23
  -1   2  -7  131.22    3.40
   1  -2   7  136.72    3.73
  -1  -2  -7  134.92    3.69
  -1  -2  -7  133.94    3.20
  -1  -2  -7  135.08    4.25
   1   2   7  133.47    4.08
  -1  -2  -8  174.97    4.61
   1  -2   8  172.71    4.62
  -1   2  -8  173.40    4.21
  -1  -2  -8  175.46    4.43
  -1   2  -8  180.26    4.48
  -1  -2  -8  170.93    3.92
  -1  -2  -8  179.30    5.26
   1  -2   9    3.13    0.58
  -1  -2  -9    3.30    0.60
  -1   2  -9    3.20    0.55
  -1   2  -9    3.40    0.49
  -1  -2  -9    2.47    0.50
   1  -2   9    3.09    0.41
  -1  -2  -9    3.25    0.41
  -1  -2  -9    3.08    0.67
   1  -2  10  306.86    7.51
  -1  -2 -10  310.38    7.35
  -1   2 -10  305.59    6.66
  -1  -2 -10  300.43    6.29
   1  -2  10  310.70    6.25
  -1  -2 -10  298.72    8.03
  -1  -2 -11   34.61    1.95
  -1   2 -11   34.35    1.60
   1  -2  11   34.30    2.04
   1  -2  11   34.33    1.38
  -1  -2 -11   34.22    1.26
  -1  -2 -11   33.18    2.26
   1  -2  12  111.89    4.11
  -1  -2 -12  111.88    3.86
  -1   2 -12  111.60    3.32
   1  -2  12  118.46    4.00
   1  -2  12  116.49    3.02
  -1  -2 -12  107.15    2.42
  -1  -2 -12  115.14    4.64
   1  -2  13   44.15    2.43
   1   2  13   41.86    2.34
   1  -2  13   43.72    2.37
   1  -2  13   44.28    1.54
  -1  -2 -13   43.08    2.80
   1  -2  14   10.26    1.20
   1  -2  14    7.57    1.04
   1   2  14    8.72    1.11
   1  -2  14    8.96    0.47
   1  -2  14    8.64    0.50
  -1  -2 -14    8.67    1.42
   1   2  15    8.28    1.10
   1  -2  15    8.74    1.16
   1  -2  15    8.51    1.12
  -1  -2 -15    8.87    1.46
   1   2  16    9.26    1.26
   1  -2  16   10.68    1.33
   1  -2  16    8.83    1.13
  -1  -2 -16    9.83    1.51
   1  -2  17   26.26    2.07
   1   2  17   27.52    2.12
   1  -2  17   26.83    1.94
   1  -2  17   24.74    1.99
  -1  -2 -17   23.56    2.36
   1   2  17   29.60    2.17
   1   2  18   17.03    1.77
   1  -2  18   14.80    1.69
   1  -2  18   16.91    1.57
   1   2  18   17.25    1.72
   1  -2  18   13.77    1.58
  -1  -2 -18   13.13    1.85
  -1   2 -18   17.33    2.09
  -1   3  19    2.11    0.76
  -1  -3  19    2.57    0.81
  -1   3  19    3.10    0.86
  -1  -3  19    3.09    0.87
   1  -3 -19    2.90    1.03
  -1   3  18    1.14    0.68
  -1  -3  18    0.71    0.63
  -1  -3  18    0.70    0.53
  -1   3  18    0.84    0.65
   1  -3 -18    0.20    0.63
  -1   3  17   67.50    3.34
  -1  -3  17   64.57    3.28
  -1  -3  17   63.69    2.81
  -1   3  17   63.32    3.20
   1  -3 -17   61.06    3.71
  -1  -3  17   71.64    3.36
  -1   3  16    8.70    1.18
  -1  -3  16   11.51    1.34
  -1  -3  16    9.44    1.08
  -1   3  16    9.84    1.21
   1  -3 -16    6.99    1.26
  -1  -3  16   10.45    1.26
  -1  -3  15   97.04    3.61
  -1  -3  15   97.26    3.86
  -1   3  15   96.45    3.83
  -1  -3  15   92.34    2.11
  -1   3  15   95.01    3.78
  -1  -3  15  103.41    3.90
  -1  -3  14    7.31    0.94
  -1  -3  14    7.99    1.03
  -1   3  14   10.12    1.15
  -1  -3  14    8.48    0.59
  -1  -3  14    8.39    0.58
  -1  -3  14    8.81    1.04
   1  -3 -14    9.53    1.41
  -1   3  14    8.90    1.07
   1  -3 -13   66.81    2.61
  -1  -3  13   72.79    2.85
  -1   3  13   64.66    2.87
  -1  -3  13   69.61    2.97
   1  -3 -13   62.40    1.58
  -1  -3  13   67.60    2.00
  -1   3  13   68.55    2.92
   1  -3 -13   61.54    3.36
  -1  -3  13   68.64    2.91
   1  -3 -12    4.67    0.69
  -1  -3  12    4.43    0.69
  -1  -3  12    4.05    0.69
  -1   3  12    4.56    0.72
  -1  -3  12    3.13    0.44
   1  -3 -12    3.65    0.38
  -1  -3  12    4.01    0.69
  -1   3  12    4.55    0.69
   1  -3 -12    4.94    0.93
   1  -3 -11    4.46    0.63
  -1  -3  11    4.24    0.62
  -1  -3  11    4.08    0.67
  -1   3  11    4.94    0.70
  -1  -3  11    4.55    0.51
   1  -3 -11    4.84    0.44
   1  -3 -11    5.30    0.94
  -1   3  11    6.05    0.77
  -1  -3  11    6.38    0.78
   1  -3 -10   83.87    2.70
  -1  -3  10   82.99    2.73
  -1   3  10   81.35    2.89
  -1  -3  10   81.17    2.91
   1  -3 -10   83.90    2.79
   1   3 -10   86.58    2.83
   1  -3 -10   81.62    2.23
  -1  -3  10   82.21    2.44
  -1   3  10   74.66    2.77
   1  -3 -10   81.14    3.45
  -1  -3  10   78.32    2.83
   1  -3  -9    7.45    0.71
  -1   3   9    7.90    0.78
  -1  -3   9    8.73    0.82
   1  -3  -9    8.33    0.78
   1   3  -9    8.34    0.78
   1  -3  -9    8.63    0.63
  -1  -3   9    8.46    0.69
   1  -3  -9    7.41    0.95
  -1   3   9    8.45    0.79
  -1  -3   9    8.63    0.81
  -1  -3   8    0.72    0.26
  -1  -3   8    0.23    0.20
  -1   3   8    0.81    0.29
   1   3  -8    0.53    0.24
   1  -3  -8    0.47    0.24
   1  -3  -8    0.48    0.22
  -1   3   8    0.46    0.20
  -1   3   8    0.42    0.37
   1  -3  -8    0.28    0.32
  -1  -3   8    0.62    0.24
   1   3  -7   39.03    1.56
   1  -3  -7   41.89    1.59
  -1  -3   7   42.28    1.66
  -1   3   7   38.94    1.60
  -1  -3   7   41.35    1.58
  -1   3   7   44.51    2.08
  -1  -3   7   39.18    1.59
   1  -3  -7   43.80    2.10
  -1   3   7   37.14    1.56
  -1  -3   6  166.25    3.86
   1   3  -6  162.31    3.78
  -1   3   6  161.86    3.85
   1  -3  -6  165.08    3.77
  -1  -3   6  159.91    3.82
  -1   3   6  155.80    4.34
  -1   3   6  160.88    3.80
  -1  -3   6  162.38    3.80
   1  -3  -6  162.47    4.48
  -1  -3   5  158.57    3.58
   1  -3  -5  159.28    3.52
  -1   3   5  150.28    3.55
  -1  -3   5  154.36    3.67
   1   3  -5  157.66    3.52
   1  -3  -5  159.88    4.22
  -1   3   5  157.85    3.56
  -1   3   5  157.13    4.18
  -1  -3   5  160.71    3.56
  -1  -3   4  157.11    3.31
  -1   3   4  147.82    3.30
  -1   3   4  153.56    3.29
   1   3  -4  147.74    3.23
  -1  -3   4  148.05    3.33
   1  -3  -4  147.84    3.23
  -1   3   4  148.95    3.87
  -1   3   4  152.23    3.28
  -1  -3   4  153.84    3.28
   1  -3  -4  152.53    3.94
  -1   3   3   74.65    1.83
  -1  -3   3   77.73    1.86
   1  -3  -3   77.52    1.81
   1   3  -3   77.99    1.82
  -1   3   3   75.38    2.37
  -1   3   3   76.25    1.84
  -1  -3   3   79.45    1.85
   1   3  -3   78.80    2.49
   1  -3  -2   21.41    0.68
  -1  -3   2   21.15    0.69
  -1   3   2   21.32    0.68
   1   3  -2   22.30    0.68
   1   3  -2   22.33    1.16
  -1   3   2   21.36    1.08
   1  -3  -1 1405.12   23.54
  -1   3   1 1385.69   23.53
  -1  -3   1 1407.82   23.54
   1  -3  -1 1371.41   24.62
   1   3  -1 1393.25   24.74
   1  -3  -1 1414.13   23.54
  -1  -3   1 1383.20   24.79
   1   3  -1 1399.75   23.53
  -1  -3   0  261.10    5.71
  -1   3   0  255.21    5.54
   1  -3   0  264.47    5.57
   1  -3   1 1629.26   27.99
  -1  -3  -1 1637.06   28.19
   1   3   1 1614.36   28.27
  -1   3  -1 1556.11   28.15
  -1  -3  -2  271.89    5.90
   1   3   2  282.13    6.09
  -1  -3  -3  137.25    3.53
  -1  -3  -3  140.63    3.84
   1   3   3  140.37    3.76
   1  -3   4  138.25    3.53
  -1  -3  -4  139.02    3.53
   1   3   4  144.36    3.94
  -1  -3  -4  137.83    3.95
   1  -3   5  106.94    2.98
  -1   3  -5  105.73    2.87
  -1  -3  -5  101.06    2.88
  -1  -3  -5   96.23    3.33
  -1   3  -6  191.77    4.51
  -1  -3  -6  202.74    4.57
  -1  -3  -7 1099.12   20.18
   1  -3   7 1115.58   20.18
  -1  -3  -7 1125.50   19.91
  -1   3  -7 1065.67   19.78
  -1   3  -7 1096.63   19.88
  -1  -3  -7 1114.57   19.76
  -1  -3  -7 1054.71   21.03
   1  -3   8  120.92    3.63
  -1  -3  -8  123.05    3.62
  -1  -3  -8  118.94    3.42
  -1   3  -8  120.38    3.43
  -1   3  -8  123.83    3.36
  -1  -3  -8  119.40    3.21
  -1  -3  -8  119.40    4.22
  -1  -3  -9  364.06    8.06
   1  -3   9  366.68    8.17
  -1  -3  -9  364.12    7.84
  -1   3  -9  355.68    7.62
  -1   3  -9  362.57    7.84
  -1  -3  -9  359.02    7.40
  -1  -3  -9  354.40    8.97
  -1  -3 -10    0.91    0.42
   1  -3  10    0.61    0.34
  -1   3 -10    1.04    0.36
  -1  -3 -10    0.74    0.27
  -1  -3 -10    0.76    0.50
  -1  -3 -11    3.53    0.67
   1  -3  11    4.78    0.80
   1  -3  11    3.36    0.65
  -1   3 -11    2.42    0.47
  -1  -3 -11    2.78    0.45
  -1  -3 -11    1.65    0.61
   1  -3  12   -0.11    0.41
   1  -3  12    0.19    0.40
   1   3  12    0.29    0.33
  -1  -3 -12    0.15    0.26
  -1  -3 -12    0.15    0.47
   1  -3  12    0.19    0.22
   1  -3  13   13.33    1.40
   1   3  13   15.72    1.41
   1  -3  13   16.84    1.44
   1  -3  13   15.61    0.98
  -1  -3 -13   14.77    0.87
  -1  -3 -13   12.43    1.59
   1   3  14   53.44    2.73
   1  -3  14   56.02    2.79
   1  -3  14   55.37    2.94
  -1  -3 -14   54.14    3.32
   1   3  15   75.24    3.42
   1  -3  15   79.26    3.48
   1  -3  15   78.34    3.56
  -1  -3 -15   74.16    4.03
   1  -3  16   24.57    1.97
   1   3  16   27.36    2.06
   1  -3  16   24.30    1.95
   1  -3  16   25.89    1.95
  -1  -3 -16   26.18    2.41
   1  -3  17    1.94    0.77
   1   3  17    1.82    0.66
   1  -3  17    2.10    0.71
   1  -3  17    1.76    0.63
   1   3  17    1.92    0.59
  -1  -3 -17    2.19    0.88
   1  -3  18   18.23    1.76
   1   3  18   18.85    1.80
   1  -3  18   17.55    1.67
   1  -3  18   17.64    1.76
  -1  -3 -18   19.63    2.21
   1   3  18   15.43    1.68
  -1  -4  18   -0.14    0.57
  -1   4  18   -0.14    0.62
  -1   4  18   -0.14    0.54
   1  -4 -18    0.20    0.79
  -1  -4  18    0.41    0.52
  -1  -4  17    1.86    0.68
  -1   4  17    3.85    0.88
  -1  -4  17    2.07    0.67
  -1   4  17    1.30    0.62
   1  -4 -17    1.92    0.89
  -1  -4  17    4.52    0.91
  -1  -4  16   -0.12    0.47
  -1   4  16   -0.12    0.50
  -1  -4  16    0.11    0.45
  -1  -4  16   -0.12    0.44
  -1   4  16    0.37    0.44
   1  -4 -16   -0.18    0.55
  -1  -4  15   10.80    1.21
  -1  -4  15   12.77    1.32
  -1   4  15   13.34    1.38
  -1  -4  15   14.16    0.90
  -1   4  15   11.45    1.26
   1  -4 -15   13.80    1.70
  -1  -4  15   12.62    1.33
  -1  -4  14    0.78    0.43
  -1  -4  14    1.94    0.57
  -1   4  14    1.19    0.52
  -1  -4  14    0.91    0.35
   1  -4 -14    0.33    0.59
  -1  -4  14    1.05    0.44
  -1   4  14    1.48    0.55
  -1  -4  13  215.17    5.72
   1  -4 -13  204.94    5.47
  -1  -4  13  216.43    5.91
  -1   4  13  206.80    5.85
   1  -4 -13  203.36    4.61
  -1  -4  13  218.61    5.03
  -1   4  13  206.14    5.79
  -1  -4  13  213.91    5.83
  -1  -4  12  337.70    7.69
   1  -4 -12  324.98    7.50
  -1  -4  12  338.41    7.93
  -1   4  12  332.62    7.89
  -1  -4  12  322.41    7.10
   1  -4 -12  326.89    6.81
  -1   4  12  326.53    7.80
   1  -4 -12  314.39    8.83
  -1  -4  12  334.39    7.84
   1  -4 -11  120.96    3.65
  -1  -4  11  121.35    3.75
  -1  -4  11  127.46    3.94
  -1   4  11  118.36    3.84
  -1  -4  11  120.72    3.49
   1  -4 -11  122.23    3.28
  -1  -4  11  124.90    3.84
  -1   4  11  119.03    3.81
   1  -4 -11  122.43    4.67
   1  -4 -10  123.94    3.65
   1  -4 -10  129.03    3.67
  -1   4  10  124.72    3.78
  -1  -4  10  123.15    3.77
   1   4 -10  129.64    3.68
   1  -4 -10  121.87    3.36
  -1  -4  10  126.31    3.57
  -1  -4  10  126.72    3.75
   1  -4 -10  125.29    4.60
  -1   4  10  124.39    3.75
  -1  -4   9    8.24    0.79
  -1   4   9    7.38    0.76
   1  -4  -9    6.77    0.71
   1   4  -9    8.81    0.79
  -1  -4   9    7.73    0.77
   1  -4  -9    8.45    0.75
  -1   4   9    6.74    0.72
   1  -4  -9    6.00    0.92
  -1  -4   9    7.53    0.74
  -1  -4   8   24.79    1.32
  -1   4   8   24.51    1.30
   1   4  -8   25.61    1.28
   1  -4  -8   23.96    1.24
  -1  -4   8   22.19    1.26
  -1   4   8   23.51    1.61
  -1  -4   8   23.33    1.25
  -1   4   8   22.83    1.26
   1  -4  -8   21.60    1.61
  -1  -4   7   13.08    0.87
   1   4  -7   12.23    0.82
   1  -4  -7   13.26    0.85
  -1   4   7   14.48    0.91
  -1  -4   7   14.04    0.95
  -1   4   7   12.22    1.12
   1  -4  -7   12.61    1.16
  -1   4   7   13.58    0.89
  -1  -4   7   11.70    0.81
  -1  -4   6  158.01    3.70
   1   4  -6  152.57    3.60
  -1   4   6  157.42    3.70
   1  -4  -6  150.32    3.59
  -1  -4   6  154.06    3.96
  -1  -4   6  157.69    3.66
  -1   4   6  151.60    3.66
  -1   4   6  148.97    4.41
   1  -4  -6  162.08    4.61
  -1   4   5  433.81    8.30
   1   4  -5  439.07    8.21
  -1  -4   5  429.91    8.76
   1  -4  -5  446.89    8.23
  -1  -4   5  441.08    8.29
  -1   4   5  431.89    9.27
   1   4  -5  431.34    9.35
  -1  -4   5  422.40    8.24
  -1   4   5  437.59    8.27
   1   4  -4 1903.78   32.73
   1  -4  -4 1921.09   32.72
   1   4  -4 1889.27   34.10
  -1   4   4 1952.64   32.79
  -1  -4   4 1947.00   32.76
  -1   4   4 1865.18   33.96
   1   4  -3  524.10    9.24
   1  -4  -3  511.13    9.21
   1   4  -3  531.16   10.61
  -1   4   3  520.82   10.47
   1   4  -2    3.29    0.52
   1  -4  -2    4.11    0.55
  -1  -4   2    3.99    0.58
  -1   4   2    3.98    0.56
  -1  -4   1   10.36    0.91
   1  -4  -1   10.08    0.83
   1  -4   0   12.61    0.93
  -1  -4   0   13.38    1.01
  -1   4  -1   11.28    0.90
  -1  -4  -1    9.99    0.88
  -1  -4  -2  391.91    8.27
  -1   4  -2  393.70    8.35
  -1  -4  -3   15.59    1.06
  -1   4  -3   13.40    1.04
   1  -4   4   30.82    1.49
  -1  -4  -4   30.10    1.13
  -1   4  -4   28.60    1.13
  -1  -4  -4   33.19    1.59
  -1  -4  -5    2.20    0.34
  -1   4  -5    1.57    0.31
   1  -4   5    2.60    0.46
  -1  -4  -5    2.40    0.45
  -1  -4  -5    1.37    0.51
   1  -4   6  523.68   10.65
  -1   4  -6  529.05   10.13
  -1  -4  -6  529.98   10.11
  -1  -4  -6  541.24   10.64
  -1  -4  -6  502.42   11.42
   1  -4   7    6.34    0.73
  -1   4  -7    5.83    0.61
  -1  -4  -7    5.81    0.61
  -1  -4  -7    6.24    0.68
  -1  -4  -7    6.28    0.89
  -1  -4  -8   18.20    1.27
  -1  -4  -8   17.37    1.11
  -1   4  -8   17.72    1.11
  -1  -4  -8   18.64    1.18
  -1  -4  -8   17.81    1.55
  -1  -4  -9    4.59    0.70
   1  -4   9    4.93    0.72
  -1   4  -9    4.51    0.63
   1  -4   9    4.84    0.65
  -1  -4  -9    4.87    0.64
  -1  -4  -9    5.73    0.67
  -1  -4  -9    4.21    0.85
   1  -4  10    1.17    0.43
   1   4  10    1.04    0.37
   1  -4  10    1.11    0.40
  -1  -4 -10    1.57    0.40
  -1  -4 -10    0.97    0.56
   1  -4  11   32.67    1.96
   1   4  11   35.11    1.93
   1  -4  11   37.11    1.97
  -1  -4 -11   35.82    1.65
  -1  -4 -11   34.31    2.43
   1  -4  12  158.74    4.95
   1  -4  12  151.18    4.68
   1   4  12  145.28    4.62
  -1  -4 -12  153.90    4.03
  -1  -4 -12  147.01    5.60
   1  -4  13   16.60    1.52
   1  -4  13   15.78    1.40
   1   4  13   13.07    1.26
  -1  -4 -13   13.67    0.98
   1  -4  13   14.97    1.04
  -1  -4 -13   13.45    1.64
   1   4  14   70.88    3.14
   1  -4  14   66.54    3.07
   1  -4  14   62.62    3.18
  -1  -4 -14   70.65    3.85
   1  -4  15   16.43    1.67
   1  -4  15   17.72    1.59
   1   4  15   16.06    1.53
   1  -4  15   16.96    1.05
  -1  -4 -15   12.80    1.73
   1   4  15   16.04    1.50
   1  -4  15   14.97    1.47
   1   4  16    3.25    0.80
   1  -4  16    3.33    0.80
   1  -4  16    2.03    0.76
   1  -4  16    4.00    0.84
  -1  -4 -16    2.15    0.90
   1   4  16    2.29    0.70
   1   4  17   18.26    1.74
   1  -4  17   14.51    1.59
   1  -4  17   15.14    1.69
   1  -4  17   15.44    1.57
   1   4  17   19.38    1.78
  -1  -4 -17   15.38    1.99
   1   4  18   10.36    1.44
   1  -4  18   11.71    1.49
   1   4  18    7.11    1.21
   1  -4  18   10.39    1.36
  -1  -5  18    7.68    1.21
  -1   5  18    7.74    1.25
  -1  -5  18    7.08    1.17
  -1   5  18    8.96    1.28
  -1   5  17  155.98    5.39
  -1  -5  17  157.54    5.41
  -1  -5  17  152.60    5.29
  -1  -5  17  161.11    5.35
   1  -5 -17  144.24    6.13
  -1   5  17  160.92    5.40
  -1  -5  16    1.10    0.55
  -1   5  16    0.37    0.46
  -1  -5  16    0.84    0.54
   1  -5 -16    0.76    0.64
  -1  -5  16    0.94    0.57
  -1   5  16    1.67    0.62
  -1  -5  15    0.99    0.56
  -1  -5  15    2.28    0.66
  -1   5  15    1.37    0.57
  -1  -5  15    2.10    0.51
  -1   5  15    2.01    0.65
  -1  -5  15    2.64    0.67
   1  -5 -15    1.26    0.68
  -1  -5  14   41.41    2.25
  -1  -5  14   42.13    2.30
  -1   5  14   42.79    2.33
  -1  -5  14   43.38    2.00
  -1   5  14   39.56    2.24
  -1  -5  14   40.11    2.23
   1  -5 -14   36.29    2.73
  -1  -5  13   13.79    1.26
  -1   5  13   16.44    1.39
  -1  -5  13   16.11    1.38
  -1  -5  13   14.67    1.19
   1  -5 -13   15.95    1.10
   1  -5 -13   14.47    1.66
  -1  -5  13   17.21    1.38
  -1   5  13   16.88    1.40
  -1  -5  12   33.74    1.90
  -1  -5  12   35.61    1.96
  -1   5  12   37.40    2.01
  -1  -5  12   33.93    1.80
   1  -5 -12   35.13    1.70
  -1  -5  12   38.32    1.98
   1  -5 -12   32.44    2.41
  -1   5  12   36.15    1.96
  -1  -5  11  237.82    6.00
  -1   5  11  230.97    5.97
  -1  -5  11  240.28    5.97
   1  -5 -11  242.52    5.75
  -1   5  11  229.22    5.92
  -1  -5  11  240.68    5.95
   1  -5 -11  226.38    7.07
  -1  -5  10   33.76    1.83
  -1   5  10   37.61    1.83
  -1  -5  10   37.59    1.83
   1  -5 -10   35.02    1.68
  -1  -5  10   34.12    1.81
   1  -5 -10   35.59    1.75
  -1  -5  10   35.71    1.75
  -1   5  10   36.65    1.79
   1  -5 -10   35.14    2.34
  -1  -5   9  575.76   11.99
   1   5  -9  602.51   11.59
  -1   5   9  595.55   11.77
  -1  -5   9  598.76   11.77
   1  -5  -9  604.94   11.55
   1  -5  -9  601.84   11.97
  -1   5   9  573.22   11.68
  -1  -5   9  600.18   11.69
   1  -5  -9  578.05   13.17
   1  -5  -8   84.93    2.57
  -1  -5   8   82.03    2.67
   1   5  -8   91.24    2.65
  -1   5   8   83.93    2.68
  -1  -5   8   89.24    2.97
  -1   5   8   83.59    2.65
   1  -5  -8   84.73    3.54
  -1  -5   8   82.67    2.63
   1  -5  -7  312.14    6.36
  -1   5   7  301.18    6.48
  -1  -5   7  303.83    6.45
   1   5  -7  306.22    6.35
  -1  -5   7  302.66    6.99
  -1  -5   7  313.60    6.46
  -1   5   7  301.64    6.45
   1  -5  -7  296.02    7.70
  -1  -5   6   33.30    1.65
   1  -5  -6   34.55    1.30
   1   5  -6   34.63    1.32
  -1   5   6   34.14    1.92
  -1   5   6   33.81    1.36
  -1  -5   6   33.69    1.33
   1  -5  -5    3.59    0.37
   1   5  -5    4.52    0.41
  -1  -5   5    3.76    0.55
   1   5  -5    3.26    0.63
  -1   5   5    3.61    0.64
  -1   5   5    3.22    0.37
   1   5  -4    1.30    0.22
   1  -5  -4    0.88    0.19
   1   5  -4    1.10    0.41
  -1   5   4    0.56    0.32
   1  -5  -3    5.25    0.74
   1   5  -3    6.15    0.80
  -1   5   3    7.32    0.82
   1   5  -2   26.17    1.58
   1  -5  -2   26.67    1.56
  -1   5   2   26.85    1.55
  -1  -5   2   26.37    1.61
  -1  -5   1  171.88    4.88
   1  -5  -1  176.99    4.80
  -1  -5   0  276.98    6.81
   1  -5   0  279.23    6.61
  -1   5  -1  668.79   13.36
  -1  -5  -1  675.50   13.64
  -1  -5  -2  112.15    3.73
  -1   5  -2  103.15    3.46
   1  -5   2  109.68    2.19
   1   5   2  109.77    2.26
  -1   5  -2  107.29    2.23
  -1  -5  -2  111.44    2.22
  -1  -5  -2  106.44    3.47
  -1  -5  -3   12.50    0.59
   1  -5   3   12.79    0.59
  -1   5  -3   13.27    0.62
  -1  -5  -3   12.76    1.06
  -1   5  -3   12.19    1.10
   1  -5   4   12.64    1.04
  -1   5  -4   13.98    0.72
  -1  -5  -4   14.26    0.72
   1  -5   4   13.58    0.70
  -1  -5  -4   11.85    1.05
  -1   5  -4   13.97    1.20
   1  -5   5   84.59    2.93
  -1   5  -5   83.56    2.32
  -1  -5  -5   87.68    2.34
   1  -5   5   85.73    2.34
  -1  -5  -5   83.95    3.02
  -1   5  -5   80.37    3.17
   1  -5   6    0.92    0.34
  -1  -5  -6    0.79    0.27
   1  -5   6    1.05    0.29
  -1   5  -6    0.71    0.25
  -1  -5  -6    1.50    0.46
   1  -5   7   18.51    1.32
  -1  -5  -7   16.58    1.00
  -1   5  -7   14.53    0.96
   1   5   7   17.34    1.06
   1  -5   7   15.86    1.01
  -1  -5  -7   17.23    1.26
  -1  -5  -7   16.97    1.54
   1  -5   8  142.02    4.35
  -1  -5  -8  146.15    3.80
   1  -5   8  143.17    3.88
   1   5   8  140.45    3.88
  -1   5  -8  140.19    3.77
  -1  -5  -8  142.21    4.22
  -1  -5  -8  139.99    5.02
  -1   5  -9  125.70    3.56
  -1  -5  -9  117.86    3.48
   1  -5   9  119.27    3.60
   1   5   9  121.36    3.64
  -1  -5  -9  120.60    3.78
  -1  -5  -9  121.27    4.72
   1  -5  10   36.52    2.04
   1   5  10   37.35    1.89
   1  -5  10   36.03    1.85
  -1  -5 -10   39.24    1.92
  -1  -5 -10   35.84    2.52
   1  -5  11  188.57    5.48
   1   5  11  180.21    5.07
   1  -5  11  176.66    5.02
  -1  -5 -11  184.96    4.90
   1  -5  12    6.22    0.96
   1  -5  12    5.53    0.87
   1   5  12    6.45    0.88
  -1  -5 -12    6.35    0.78
  -1  -5 -12    3.99    0.96
   1   5  13   37.91    2.18
   1  -5  13   42.34    2.28
   1  -5  13   40.64    2.39
   1   5  13   40.07    2.20
   1  -5  13   39.71    2.18
  -1  -5 -13   40.67    2.92
   1   5  14    9.70    1.16
   1  -5  14   10.70    1.22
   1  -5  14   11.75    1.36
  -1  -5 -14    9.87    1.49
   1  -5  14    9.69    1.13
   1   5  14   10.81    1.18
   1   5  15    1.07    0.55
   1  -5  15    0.59    0.48
   1  -5  15    2.97    0.85
   1  -5  15    1.15    0.56
   1   5  15    1.76    0.57
  -1  -5 -15    0.78    0.76
   1   5  16   43.27    2.56
   1  -5  16   47.09    2.67
   1  -5  16   37.50    2.62
   1  -5  16   46.11    2.60
  -1  -5 -16   37.00    3.03
   1   5  16   43.07    2.57
   1  -5  17   23.12    1.93
   1   5  17   25.74    2.06
   1  -5  17   21.80    2.08
   1   5  17   23.60    1.98
   1  -5  17   22.63    1.90
   1  -5  18    4.28    0.99
   1  -5  18    6.37    1.14
  -1   6  18    4.13    0.95
  -1  -6  18    3.82    0.94
  -1   6  18    2.72    0.79
  -1   6  17    6.10    1.12
  -1   6  17    7.85    1.20
  -1  -6  17    6.47    1.03
  -1   6  16    4.51    0.88
  -1  -6  16    5.61    0.99
  -1  -6  16    4.56    0.93
  -1  -6  16    4.80    0.89
  -1   6  16    7.46    1.09
   1  -6 -16    4.51    1.14
  -1  -6  15    1.17    0.53
  -1   6  15    1.14    0.58
  -1  -6  15    1.22    0.56
  -1  -6  15    1.04    0.46
  -1  -6  15    0.66    0.49
  -1   6  15    1.34    0.59
   1  -6 -15    0.75    0.68
  -1  -6  14  170.91    5.41
  -1   6  14  176.31    5.34
  -1  -6  14  182.58    5.38
  -1  -6  14  180.51    5.13
  -1  -6  14  179.24    5.31
   1  -6 -14  173.29    6.48
  -1   6  14  175.14    5.33
  -1  -6  13    2.17    0.58
  -1   6  13    2.72    0.64
  -1  -6  13    1.90    0.58
  -1  -6  13    1.58    0.53
  -1   6  13    2.95    0.64
   1  -6 -13    2.38    0.82
  -1  -6  13    1.67    0.54
  -1  -6  12   18.05    1.36
  -1   6  12   18.88    1.41
  -1  -6  12   16.74    1.40
   1  -6 -12   21.50    1.45
  -1   6  12   18.13    1.37
  -1  -6  12   20.12    1.41
   1  -6 -12   21.23    2.00
  -1  -6  11    3.45    0.63
  -1  -6  11    7.12    0.91
  -1   6  11    4.53    0.70
   1  -6 -11    4.81    0.74
  -1  -6  11    4.53    0.77
  -1  -6  11    6.76    0.79
  -1   6  11    5.08    0.73
   1  -6 -11    3.81    0.92
  -1   6  10    0.44    0.39
  -1  -6  10    0.54    0.36
   1  -6 -10    0.75    0.29
   1  -6 -10    0.44    0.40
  -1  -6  10    0.29    0.39
  -1  -6  10    0.68    0.35
  -1   6  10    0.29    0.31
   1  -6 -10    0.57    0.54
  -1  -6   9   12.92    1.16
   1  -6  -9   14.18    0.96
   1   6  -9   12.19    0.91
  -1   6   9   11.89    0.96
   1  -6  -9   12.93    1.18
  -1  -6   9   12.63    0.96
  -1   6   9   12.46    0.98
   1   6  -8   16.39    0.98
   1  -6  -8   14.93    0.94
  -1  -6   8   14.66    1.20
  -1  -6   8   14.29    0.95
  -1   6   8   15.09    1.01
   1  -6  -7    8.22    0.65
   1   6  -7    8.59    0.67
  -1  -6   7    7.26    0.85
  -1   6   7    7.92    0.68
  -1  -6   7    9.00    0.71
   1  -6  -6    2.45    0.35
  -1  -6   6    2.98    0.58
   1   6  -6    2.85    0.38
   1   6  -5    0.11    0.19
   1  -6  -5    0.05    0.19
  -1  -6   5    0.08    0.29
   1  -6  -4  182.02    5.38
   1  -6  -3  101.55    3.69
  -1   6   2  273.84    6.90
   1  -6  -2  279.76    7.00
   1  -6  -1  106.06    3.69
  -1  -6   1  102.59    3.77
  -1  -6   0    1.02    0.45
   1  -6   0    0.56    0.37
  -1  -6  -1   35.03    2.06
  -1  -6  -2   54.33    2.63
  -1  -6  -2   49.23    2.40
  -1  -6  -3  169.23    5.24
   1  -6   3  163.93    3.22
  -1   6  -3  169.98    3.28
  -1  -6  -3  166.60    3.24
   1   6   3  166.45    3.33
  -1  -6  -3  169.46    5.00
   1  -6   3  163.94    3.21
   1   6   3  168.53    3.32
   1  -6   4   46.69    2.21
   1  -6   4   45.69    1.36
   1   6   4   45.67    1.40
  -1  -6  -4   45.15    1.34
  -1   6  -4   46.65    1.38
  -1  -6  -4   45.63    2.31
   1   6   4   46.02    1.39
   1  -6   4   46.72    1.34
  -1  -6  -5    3.25    0.37
   1   6   5    3.17    0.40
  -1   6  -5    3.52    0.41
   1  -6   5    3.78    0.41
   1  -6   5    3.55    0.65
  -1  -6  -5    2.39    0.59
   1  -6   5    3.89    0.40
   1   6   5    3.41    0.40
   1  -6   6  521.86   11.33
   1   6   6  534.98   10.19
  -1   6  -6  551.22   10.10
   1  -6   6  528.79   10.11
  -1  -6  -6  531.85   10.04
  -1  -6  -6  540.48   11.54
   1  -6   6  516.95   10.03
   1  -6   7   61.16    2.66
  -1   6  -7   60.18    2.02
   1   6   7   61.24    2.10
  -1  -6  -7   58.24    1.98
   1  -6   7   56.00    2.00
  -1  -6  -7   57.15    2.65
   1  -6   7   58.39    2.00
   1   6   8    2.36    0.46
   1  -6   8    2.11    0.58
  -1   6  -8    2.93    0.49
   1  -6   8    2.85    0.51
  -1  -6  -8    2.79    0.49
  -1  -6  -8    2.89    0.65
   1  -6   8    2.86    0.48
   1  -6   9   93.05    3.54
  -1   6  -9   97.66    2.96
   1   6   9   88.92    2.99
  -1  -6  -9   94.36    2.90
   1  -6   9   86.80    2.93
  -1  -6  -9   93.80    3.46
   1   6   9   92.67    3.01
  -1  -6  -9   90.38    4.16
   1  -6   9   90.41    2.92
   1  -6  10   13.66    1.09
   1   6  10   12.05    1.07
  -1  -6 -10   17.40    1.38
   1   6  10   15.37    1.16
  -1  -6 -10   12.88    1.62
   1  -6  10   13.26    1.07
   1  -6  11  187.01    5.71
   1  -6  11  202.25    5.30
   1   6  11  191.93    5.27
  -1  -6 -11  202.74    5.50
   1   6  11  189.11    5.22
  -1  -6 -11  185.87    6.66
   1  -6  11  192.52    5.17
   1  -6  12   16.78    1.58
   1  -6  12   17.44    1.37
   1   6  12   20.70    1.49
  -1  -6 -12   18.75    1.43
   1   6  12   18.51    1.42
  -1  -6 -12   19.59    2.07
   1  -6  12   20.47    1.45
   1   6  13    1.72    0.60
   1  -6  13    1.88    0.58
   1  -6  13    1.25    0.57
  -1  -6 -13    0.56    0.73
   1  -6  13    0.86    0.46
   1   6  13    1.09    0.47
   1  -6  14   99.72    3.78
   1   6  14  102.70    3.84
   1  -6  14  102.32    4.18
   1  -6  14   96.42    3.67
  -1  -6 -14   96.72    4.83
   1   6  14   92.49    3.68
   1  -6  15    0.12    0.45
   1   6  15    0.36    0.47
   1  -6  15    0.14    0.56
   1  -6  15    0.67    0.49
   1   6  15    0.23    0.41
  -1  -6 -15    0.41    0.65
   1  -6  16   -0.12    0.54
   1   6  16    0.51    0.61
   1  -6  16    1.07    0.67
   1   6  16    0.50    0.52
   1  -6  16    1.07    0.63
   1  -6  17    5.58    1.00
   1   6  17    7.50    1.18
   1  -6  17    6.86    1.27
   1   6  17    7.08    1.12
   1  -6  17    6.95    1.06
  -1   7  17   32.47    2.24
  -1  -7  16   34.31    2.34
  -1   7  16   34.38    2.22
  -1  -7  15   90.47    3.82
  -1   7  15   92.92    3.62
   1  -7 -15   84.75    4.54
  -1  -7  14   97.05    3.89
  -1  -7  14   97.61    3.74
  -1  -7  14   93.90    3.49
  -1   7  14   98.58    3.63
   1  -7 -14   89.49    4.57
  -1  -7  13    4.10    0.84
  -1  -7  13    4.82    0.76
  -1   7  13    3.79    0.74
   1  -7 -12   20.79    1.57
  -1  -7  12   18.37    1.58
  -1  -7  12   17.90    1.32
  -1   7  12   17.23    1.34
  -1  -7  11    3.10    0.71
  -1  -7  11    2.53    0.72
   1  -7 -11    3.51    0.72
  -1   7  11    2.07    0.53
  -1  -7  11    2.57    0.55
  -1  -7  10   16.21    1.40
   1   7 -10   16.42    1.09
  -1  -7  10   15.18    1.46
   1  -7 -10   16.53    1.42
  -1   7  10   16.26    1.16
  -1  -7  10   16.22    1.12
  -1  -7   9   90.05    3.48
   1   7  -9   97.69    2.85
   1  -7  -9   88.72    3.57
  -1  -7   9   90.35    3.68
  -1   7   9   93.85    2.91
   1  -7  -8    6.85    0.97
   1   7  -8    6.27    0.61
   1  -7  -7   12.91    0.78
   1   7  -7   14.49    0.84
  -1  -7   7   13.50    1.24
  -1  -7   6   70.07    2.94
  -1  -7   5   21.03    1.53
   1  -7  -5   19.66    1.68
   1  -7  -4   18.25    1.58
   1  -7  -3   86.85    3.57
   1  -7  -2  178.09    5.52
  -1  -7   1   -0.24    0.43
   1  -7  -1   -0.11    0.39
  -1  -7   0  102.34    4.01
   1  -7   0  105.19    3.93
  -1  -7  -1   82.97    3.46
  -1  -7  -1   83.80    3.61
  -1  -7  -2   19.01    1.56
  -1  -7  -2   22.62    1.79
  -1  -7  -3  228.78    6.76
  -1  -7  -3  230.23    6.53
   1  -7   4   84.19    3.27
  -1  -7  -4   82.35    3.66
  -1  -7  -4   79.42    1.79
  -1   7  -4   81.37    1.84
  -1  -7  -4   81.65    3.46
   1   7   4   79.70    1.89
   1  -7   5   90.02    3.51
  -1  -7  -5   91.32    2.24
   1   7   5   93.41    2.36
  -1   7  -5   98.24    2.32
  -1  -7  -5   95.93    3.75
   1   7   5   92.44    2.35
   1  -7   5   92.34    2.25
   1  -7   6   66.88    2.93
   1   7   6   63.43    2.00
   1  -7   6   66.04    1.96
  -1   7  -6   68.71    1.96
  -1  -7  -6   68.99    1.94
  -1  -7  -6   62.41    2.97
   1   7   6   66.41    2.01
   1  -7   6   63.20    1.90
   1  -7   7   33.78    2.04
   1  -7   7   32.01    1.38
   1   7   7   32.75    1.44
  -1   7  -7   31.55    1.35
  -1  -7  -7   35.96    2.16
   1   7   7   34.36    1.44
   1  -7   7   32.53    1.36
  -1   7  -8    1.86    0.39
   1  -7   8    1.61    0.40
   1  -7   8    2.05    0.62
   1   7   8    2.95    0.48
  -1  -7  -8    1.48    0.62
   1   7   8    1.58    0.38
   1  -7   8    1.86    0.39
   1  -7   9    0.11    0.41
   1  -7   9    0.37    0.30
  -1   7  -9    0.29    0.29
   1   7   9    0.40    0.29
  -1  -7  -9    0.11    0.43
   1  -7   9    0.24    0.31
   1   7   9    0.06    0.25
   1  -7  10    7.50    0.82
   1   7  10    7.96    0.85
  -1  -7 -10    7.73    1.07
   1  -7  10    8.05    0.81
   1   7  10    9.08    0.88
   1   7  11   83.48    3.04
   1  -7  11   77.62    2.89
  -1  -7 -11   81.33    3.38
   1  -7  11   78.78    2.86
   1   7  11   84.84    3.05
   1  -7  12   10.38    1.29
   1  -7  12   12.21    1.13
   1   7  12   10.52    1.10
  -1  -7 -12   11.36    1.25
   1   7  12   12.22    1.16
   1  -7  12   11.90    1.14
   1   7  13    1.87    0.60
   1  -7  13    1.31    0.46
   1  -7  13    2.15    0.72
   1  -7  13    2.18    0.57
  -1  -7 -13    2.78    0.92
   1   7  13    2.03    0.59
   1   7  14    1.27    0.50
   1  -7  14    0.20    0.40
   1  -7  14    1.96    0.69
   1   7  14    0.73    0.49
   1  -7  14    0.78    0.51
  -1  -7 -14    1.25    0.84
   1  -7  15   19.75    1.62
   1  -7  15   21.53    1.95
   1   7  15   15.92    1.51
   1  -7  16   22.81    1.78
   1  -7  16   25.54    2.21
   1   7  16   20.08    1.75
   1  -7  17   11.21    1.37
   1   7  17   12.44    1.43
  -1  -8  15   25.78    2.06
  -1  -8  14    0.52    0.60
  -1  -8  14   -0.63    0.69
  -1  -8  13    2.58    0.77
   1  -8 -12    1.19    0.57
  -1  -8  12    1.31    0.61
  -1  -8  11   53.82    2.79
  -1  -8  11   57.62    3.03
   1  -8 -11   51.65    2.78
   1  -8 -10    0.37    0.52
  -1  -8  10    1.21    0.64
  -1  -8  10    0.70    0.55
  -1  -8   9  256.05    7.02
   1  -8  -9  252.47    7.22
  -1  -8   9  254.38    7.38
  -1  -8   8  105.08    4.00
   1  -8  -8  116.43    4.36
  -1  -8   8  103.58    4.28
  -1  -8   7   73.41    3.23
   1  -8  -7   76.87    3.71
  -1  -8   7   74.22    3.52
  -1  -8   6    0.44    0.41
   1  -8  -6    0.42    0.59
  -1  -8   5   42.13    2.34
   1  -8  -5   44.93    2.71
   1  -8  -4    3.72    0.83
   1  -8  -3   17.15    1.64
   1  -8  -2   29.90    2.13
  -1  -8   1   51.89    2.85
  -1  -8   1   48.90    2.83
   1  -8  -1   45.37    2.65
  -1  -8   0   59.70    3.10
  -1  -8   0   65.20    3.29
   1  -8   1   99.20    3.79
  -1  -8  -1  102.68    4.18
  -1  -8  -1  100.30    4.23
  -1  -8  -2   30.52    2.17
  -1  -8  -2   29.96    2.21
  -1  -8  -3    4.30    0.93
  -1  -8  -3    1.73    0.63
  -1  -8  -4   44.11    2.82
   1  -8   4   46.47    2.51
  -1  -8  -4   51.33    2.85
   1  -8   5   28.83    1.98
  -1  -8  -5   28.49    2.25
  -1   8  -5   31.10    0.91
  -1  -8  -5   31.96    2.22
  -1  -8  -6    4.30    0.97
  -1   8  -6    4.78    0.43
   1  -8   6    5.88    0.94
  -1  -8  -6    4.57    0.92
   1   8   6    4.42    0.43
   1  -8   7    0.23    0.39
  -1  -8  -7   -0.13    0.53
   1   8   7    0.21    0.22
   1  -8   8    3.61    0.82
  -1  -8  -8    2.89    0.77
   1   8   8    3.97    0.53
   1  -8   9    0.62    0.50
  -1  -8  -9    0.26    0.56
   1   8   9    0.47    0.33
   1  -8  10    0.32    0.31
   1  -8  10    0.39    0.53
  -1  -8 -10    0.52    0.52
   1   8  10    0.20    0.34
   1  -8  11   22.01    1.38
  -1  -8 -11   23.96    1.89
   1   8  11   21.08    1.37
   1  -8  12   52.39    2.31
   1  -8  12   58.01    3.10
   1   8  12   55.74    2.42
   1  -8  13    0.14    0.52
   1   8  13    0.09    0.34
   1  -8  14    4.62    1.05
   1  -8  14    4.98    0.96
   1   8  14    3.06    0.69
   1  -8  15    0.78    0.70
  -1  -9  15    4.61    1.03
  -1  -9  14    4.70    1.05
  -1  -9  13   12.15    1.59
  -1  -9  12    0.89    0.64
  -1  -9  12    0.27    0.44
  -1  -9  11    2.71    0.81
   1  -9 -11    2.23    0.75
  -1  -9  11    2.37    0.74
   1  -9 -10    1.13    0.64
  -1  -9  10    1.07    0.67
  -1  -9  10    1.17    0.54
   1  -9  -9    5.98    1.23
   1  -9  -9    6.04    1.09
  -1  -9   9    6.18    1.12
  -1  -9   9    7.17    1.10
   1  -9  -8   -0.34    0.61
   1  -9  -8    0.73    0.55
  -1  -9   8   -0.15    0.44
  -1  -9   8    1.02    0.57
   1  -9  -7   12.09    1.59
  -1  -9   7    7.69    1.23
   1  -9  -7    8.17    1.25
  -1  -9   7    8.62    1.16
   1  -9  -6  138.93    5.44
  -1  -9   6  148.91    5.12
  -1  -9   6  155.08    5.64
  -1  -9   5   73.67    3.36
  -1  -9   5   73.05    3.69
   1  -9  -5   65.22    3.52
  -1  -9   4  119.24    4.46
  -1  -9   4  122.35    4.94
   1  -9  -4  120.81    4.86
   1  -9  -3    4.44    1.01
   1  -9  -2   15.86    1.68
   1  -9  -1    3.62    0.89
  -1  -9   1    1.38    0.60
  -1  -9   0   32.44    2.43
  -1  -9   0   36.63    2.57
   1  -9   1   34.47    2.25
  -1  -9  -1   39.98    2.67
  -1  -9  -1   33.18    2.47
  -1  -9  -2   56.16    3.20
  -1  -9  -2   58.68    3.36
  -1  -9  -3   51.86    3.05
  -1  -9  -3   48.03    3.06
   1  -9   4  136.53    4.89
  -1  -9  -4  140.66    5.30
  -1  -9  -4  133.64    5.42
  -1  -9  -5    0.17    0.62
  -1  -9  -5    0.15    0.55
   1  -9   5    0.39    0.49
   1  -9   6  161.56    5.41
  -1  -9  -6  149.78    5.95
  -1  -9  -6  152.15    5.63
  -1  -9  -7    2.18    0.86
  -1  -9  -7    2.41    0.78
   1  -9   7    1.31    0.65
  -1  -9  -8   11.15    1.66
   1  -9   8   11.14    1.38
  -1  -9  -8    9.89    1.39
   1  -9   9  112.99    4.49
  -1  -9  -9  104.04    4.48
  -1  -9 -10    2.94    0.84
   1  -9  10    2.16    0.77
  -1  -9 -11    5.33    1.05
   1  -9  13    1.38    0.72
   1  -9  13    1.73    0.76
  -1 -10  12   29.74    2.47
  -1 -10  11   97.63    4.30
   1 -10 -11  106.48    4.60
  -1 -10  11   98.48    4.63
  -1 -10  10   52.72    3.03
  -1 -10  10   52.57    3.29
   1 -10 -10   57.31    3.32
  -1 -10   9   17.08    1.74
   1 -10  -9   15.16    1.95
  -1 -10   9   16.18    1.86
   1 -10  -9   13.02    1.70
  -1 -10   8   28.38    2.18
   1 -10  -8   28.52    2.52
   1 -10  -8   28.55    2.39
  -1 -10   8   28.33    2.44
  -1 -10   7   10.30    1.37
   1 -10  -7   11.67    1.56
  -1 -10   7   12.43    1.66
   1 -10  -7   14.25    1.79
   1 -10  -6    3.49    0.98
  -1 -10   6    4.62    0.95
  -1 -10   6    4.55    1.05
   1 -10  -6    4.48    1.06
  -1 -10   5   81.06    3.78
   1 -10  -5   91.98    4.29
  -1 -10   5   87.04    4.33
   1 -10  -5   81.77    4.15
  -1 -10   4   36.56    2.45
  -1 -10   4   37.50    2.79
   1 -10  -4   34.46    2.63
  -1 -10   3   66.72    3.80
   1 -10  -3   71.98    3.79
   1 -10  -2    1.47    0.66
  -1 -10   1    5.24    1.12
  -1 -10   0    1.05    0.66
   1 -10   0    0.55    0.56
  -1 -10  -1    5.94    1.23
   1 -10   1    6.23    1.04
  -1 -10  -1    3.47    0.98
  -1 -10  -2   31.82    2.54
  -1 -10  -2   36.27    2.75
  -1 -10  -3    5.59    1.20
  -1 -10  -3    5.16    1.17
   1 -10   4   16.54    1.69
  -1 -10  -4   15.76    1.82
  -1 -10  -4   14.42    1.80
  -1 -10  -5    1.69    0.81
  -1 -10  -5    1.36    0.84
   1 -10   5    1.58    0.68
  -1 -10  -6    0.38    0.58
  -1 -10  -6    0.85    0.71
   1 -10   6    1.88    0.73
  -1 -10  -7    1.99    0.96
  -1 -10  -7    4.25    1.09
   1 -10   7    2.91    0.83
  -1 -10  -8    0.61    0.80
  -1 -10  -8    0.17    0.70
   1 -10   8    0.59    0.63
  -1 -10  -9   -0.17    0.63
   1 -10   9    1.06    0.70
  -1 -10 -10    0.33    0.58
   1 -10  11   16.92    1.84
   1 -11  -5    0.75    0.85
   1 -11  -5    0.56    0.68
   1 -11  -4   12.29    1.70
   1 -11  -4    9.32    1.48
  -1 -11   3   72.15    3.70
   1 -11  -3   69.87    3.97
   1 -11  -3   68.19    3.87
   1 -11  -2    1.98    0.79
   1 -11  -1   16.69    1.80
  -1 -11   1   15.23    1.94
   1 -11   0  134.30    5.26
  -1 -11   0  143.97    5.92
   1 -11   1    5.19    1.06
  -1 -11  -1    5.58    1.23
  -1 -11  -2   17.68    2.04
  -1 -11  -2   25.12    2.42
  -1 -11  -3    3.42    1.02
  -2   0  19    0.61    0.70
  -2   0  19    0.29    0.39
  -2   0  18    8.67    1.26
  -2   0  18    7.60    1.17
   2   0 -18    7.36    1.36
  -2   0  17    0.27    0.49
  -2   0  17    0.52    0.53
   2   0 -17    0.35    0.59
  -2   0  16  427.75   10.48
  -2   0  16  453.47   10.55
   2   0 -16  423.19   11.28
  -2   0  15   -0.12    0.31
   2   0 -15   -0.15    0.45
  -2   0  15    0.11    0.32
  -2   0  14   19.59    1.54
   2   0 -14   17.44    0.83
  -2   0  14   19.88    1.55
   2   0 -14   16.88    1.67
  -2   0  13    0.39    0.28
   2   0 -13    0.03    0.16
  -2   0  12   98.03    3.49
   2   0 -12   97.28    2.34
  -2   0  12   98.71    3.45
   2   0 -11    0.40    0.17
  -2   0  11    0.08    0.26
  -2   0  11    0.08    0.24
   2   0 -10    2.91    0.50
  -2   0  10    4.50    0.64
   2   0 -10    3.84    0.32
  -2   0  10    3.57    0.56
   2   0  -9    0.10    0.09
   2   0  -9    0.06    0.17
  -2   0   9    0.07    0.18
  -2   0   9   -0.07    0.21
  -2   0   9    0.06    0.13
  -2   0   8 1629.98   28.95
  -2   0   8 1652.62   28.99
   2   0  -8 1682.45   28.81
   2   0  -8 1621.24   27.64
  -2   0   8 1628.48   28.89
  -2   0   7    0.15    0.18
   2   0  -7    0.54    0.18
   2   0  -7    0.10    0.07
   2   0  -7    0.19    0.19
  -2   0   7    0.10    0.17
   2   0  -7    0.07    0.07
  -2   0   7    0.05    0.12
   2   0  -6  488.22    9.25
  -2   0   6  488.22    9.31
  -2   0   6  485.81    9.30
   2   0  -6  473.34    9.16
   2   0  -6  480.69    8.44
  -2   0   6  478.24    8.49
  -2   0   6  483.64    9.26
  -2   0   5    0.07    0.11
   2   0  -5    0.07    0.13
   2   0  -5    0.03    0.12
   2   0  -5    0.19    0.11
  -2   0   5    0.02    0.11
   2   0  -5    0.21    0.15
  -2   0   5   -0.04    0.15
   2   0  -4  215.89    4.35
   2   0  -4  210.98    4.35
  -2   0   4  212.02    4.35
   2   0  -4  213.46    4.20
  -2   0   4  197.92    4.22
   2   0  -4  212.05    4.33
  -2   0   4  212.95    4.39
  -2   0   3    0.10    0.12
   2   0  -3    0.19    0.13
  -2   0   3    0.24    0.18
   2   0  -3    0.20    0.18
   2   0  -3    0.30    0.14
  -2   0   2   30.97    0.86
   2   0  -2   31.64    0.88
   2   0  -2   33.13    1.20
   2   0  -1    0.02    0.11
   2   0  -1    0.14    0.20
   2   0   0   81.06    2.17
  -2   0   0   79.30    2.26
   2   0   0   86.26    2.33
  -2   0   0   84.73    1.75
   2   0   0   88.15    1.78
  -2   0  -1    0.22    0.20
   2   0   1    0.19    0.18
  -2   0  -1    0.19    0.22
   2   0   2 1341.30   23.12
  -2   0  -2 1313.41   23.04
   2   0   2 1296.10   22.93
  -2   0  -2 1279.22   22.89
  -2   0  -3    0.05    0.24
  -2   0  -3    0.16    0.20
   2   0   3    0.13    0.20
  -2   0  -4  455.92    9.31
   2   0   4  476.03    9.01
  -2   0  -4  458.68    8.85
   2   0   5    0.61    0.32
  -2   0  -5   -0.06    0.25
   2   0   5    0.04    0.20
  -2   0  -5   -0.04    0.16
  -2   0  -6  262.11    5.95
  -2   0  -6  278.57    5.21
   2   0   6  267.93    5.38
   2   0   7    0.24    0.27
  -2   0  -7    0.28    0.31
   2   0   7    0.41    0.22
   2   0   8  492.85   10.64
  -2   0  -8  483.56   10.29
   2   0   8  504.69    9.44
   2   0   9    0.18    0.30
  -2   0  -9    0.15    0.28
   2   0   9    0.89    0.24
   2   0  10  376.64    8.85
  -2   0 -10  383.68    8.50
   2   0  10  377.69    7.25
   2   0  11    0.20    0.33
  -2   0 -11    0.08    0.32
   2   0  11    0.17    0.16
   2   0  12  340.48    8.09
   2   0  12  313.09    5.96
   2   0  13    0.11    0.39
   2   0  13    0.20    0.13
   2   0  14  105.35    3.94
   2   0  15   -0.26    0.50
   2   0  15    0.11    0.43
  -2   0 -15    0.17    0.56
   2   0  16   51.76    2.94
  -2   0 -16   61.71    3.70
   2   0  17    0.15    0.49
  -2   0 -17   -0.20    0.59
   2   0  18   24.87    2.16
  -2   0 -18   25.77    2.52
  -2  -1  19    4.27    0.99
  -2   1  19    6.38    1.14
   2  -1 -19    2.36    0.96
  -2  -1  19    3.24    0.82
   2   1 -19    4.80    1.20
  -2   1  18    8.37    1.24
   2   1 -18    8.36    1.45
  -2  -1  18    6.91    1.14
   2  -1 -18    7.03    1.33
  -2   1  17   23.13    1.90
  -2  -1  17   20.40    1.75
   2  -1 -17   24.05    2.21
  -2   1  16    1.74    0.53
   2  -1 -16    2.46    0.83
  -2  -1  16    2.19    0.64
  -2   1  15   -0.23    0.45
  -2  -1  15   -0.10    0.22
   2  -1 -15    0.16    0.52
   2   1 -14  282.96    5.69
  -2   1  14  277.64    7.36
   2  -1 -14  284.89    5.77
  -2  -1  14  287.16    6.06
  -2  -1  14  292.40    7.42
   2  -1 -14  270.14    8.05
   2   1 -13   36.57    1.28
  -2   1  13   38.39    2.12
   2  -1 -13   36.85    1.35
  -2  -1  13   38.99    1.51
  -2  -1  13   37.46    2.07
   2  -1 -13   32.30    2.25
   2   1 -12  148.42    3.24
  -2   1  12  142.92    4.45
  -2  -1  12  147.97    3.59
   2  -1 -12  145.55    3.38
  -2  -1  12  147.20    4.43
   2  -1 -12  132.87    4.81
  -2   1  11  853.54   16.27
   2   1 -11  842.65   14.63
  -2  -1  11  822.06   15.08
   2  -1 -11  840.81   14.86
  -2  -1  11  821.12   16.13
   2  -1 -10   -0.06    0.26
   2   1 -10    0.44    0.16
  -2   1  10    0.07    0.20
   2  -1 -10    0.42    0.19
  -2  -1  10   -0.04    0.18
  -2  -1  10    0.29    0.20
   2  -1 -10    0.10    0.30
   2  -1  -9    0.03    0.15
  -2  -1   9    0.49    0.19
   2   1  -9    0.11    0.10
  -2   1   9    0.07    0.21
  -2  -1   9    0.27    0.21
   2  -1  -9    0.76    0.29
  -2  -1   9    0.14    0.12
  -2  -1   9   -0.06    0.19
   2  -1  -9   -0.09    0.23
  -2  -1   8   89.24    2.25
   2  -1  -8   89.65    2.25
  -2  -1   8   85.61    2.75
  -2   1   8   89.31    2.78
   2  -1  -8   91.29    2.70
  -2  -1   8   87.89    2.05
   2  -1  -8   88.92    1.94
   2  -1  -8   83.30    3.00
  -2  -1   8   87.99    2.72
   2  -1  -7    0.36    0.14
  -2  -1   7    0.57    0.15
  -2   1   7    0.51    0.21
   2  -1  -7    0.63    0.24
   2   1  -7    0.19    0.23
  -2  -1   7    0.16    0.20
   2  -1  -7    0.77    0.15
  -2  -1   7    0.48    0.16
  -2  -1   7    0.39    0.22
   2  -1  -7    0.13    0.21
   2  -1  -6   73.31    1.67
  -2   1   6   74.04    2.22
   2  -1  -6   72.39    2.12
  -2  -1   6   73.05    2.21
   2   1  -6   72.35    2.16
  -2  -1   6   69.95    1.81
   2  -1  -6   75.56    1.73
  -2  -1   6   70.17    2.16
   2  -1  -6   68.60    2.36
  -2  -1   5  685.12   11.80
   2   1  -5  692.20   12.50
  -2  -1   5  678.56   12.49
   2  -1  -5  683.87   12.42
  -2  -1   5  685.67   12.18
   2   1  -5  698.07   12.11
   2  -1  -5  689.27   12.00
   2  -1  -5  642.95   12.68
  -2  -1   5  696.26   12.52
   2  -1  -5  693.50   12.46
   2  -1  -4  153.86    3.27
   2   1  -4  144.56    3.24
  -2  -1   4  143.15    3.22
   2  -1  -4  145.78    3.00
   2   1  -4  147.46    3.10
  -2  -1   4  145.68    3.16
   2  -1  -4  141.04    3.19
   2  -1  -4  143.35    3.30
   2  -1  -3 1509.17   25.41
  -2  -1   3 1514.34   25.44
   2  -1  -3 1505.60   25.04
   2   1  -3 1500.63   25.45
  -2  -1   3 1452.28   25.51
   2  -1  -3 1422.36   25.36
   2  -1  -3 1510.87   25.44
  -2   1   3 1446.45   25.33
   2  -1  -2   26.82    0.80
  -2   1   2   27.66    0.81
   2   1  -2   26.85    0.99
  -2   1   2   28.01    0.80
   2  -1  -2   27.56    0.78
   2   1  -2   27.29    0.93
   2  -1  -1   28.04    0.89
  -2  -1   1   26.53    1.03
   2   1  -1   28.33    1.04
   2   1   0  191.96    4.12
  -2  -1   0  204.70    4.19
   2   1   0  198.66    3.95
   2  -1   1  479.07    8.67
  -2  -1  -1  459.51    8.73
  -2  -1  -1  464.49    8.75
   2   1   1  466.85    8.64
   2   1   2   32.12    1.30
   2  -1   2   34.30    1.27
  -2  -1  -2   34.07    1.30
   2   1   2   31.07    1.18
  -2  -1  -2   29.01    1.19
   2   1   2   33.48    1.30
  -2  -1  -3  350.26    7.12
  -2   1  -3  344.56    6.93
  -2  -1  -3  346.24    6.92
   2  -1   3  350.50    6.72
   2   1   3  342.74    6.78
   2   1   3  359.96    7.21
  -2   1  -4   74.78    2.28
  -2  -1  -4   79.99    2.51
   2  -1   4   77.10    2.13
   2   1   4   71.91    2.07
  -2  -1  -4   79.52    2.27
   2   1   4   74.72    2.47
  -2   1  -5  726.05   13.69
   2   1   5  752.77   14.03
   2  -1   5  723.57   14.05
  -2  -1  -5  739.22   14.03
   2   1   5  726.73   13.21
   2  -1   5  735.95   13.34
  -2  -1  -5  731.25   13.57
  -2   1  -6  165.86    4.15
  -2  -1  -6  168.62    4.49
   2   1   6  167.40    4.39
   2  -1   6  165.26    4.50
   2  -1   6  167.07    3.87
   2   1   6  150.34    3.60
  -2  -1  -6  166.05    4.05
  -2  -1  -7  212.67    5.49
   2  -1   7  204.83    5.52
   2   1   7  216.39    5.38
  -2   1  -7  212.77    5.06
  -2  -1  -7  209.48    4.85
   2   1   7  200.31    4.41
   2  -1   7  210.08    4.75
  -2   1  -8    6.32    0.71
   2  -1   8    5.56    0.83
   2   1   8    6.35    0.78
  -2  -1  -8    5.64    0.83
   2  -1   8    5.22    0.59
   2   1   8    6.64    0.51
  -2  -1  -8    6.70    0.61
  -2  -1  -9   96.37    3.43
   2   1   9   96.46    3.35
   2  -1   9   93.52    3.54
   2  -1   9   95.90    2.83
  -2  -1  -9   97.89    2.60
   2   1   9   91.54    2.39
  -2  -1 -10   11.76    1.14
   2  -1  10    8.86    1.04
   2   1  10    8.38    0.93
  -2  -1 -10    9.84    0.64
   2  -1  10    8.84    0.74
   2   1  10    9.90    0.60
   2   1  11  131.05    4.19
  -2  -1 -11  129.07    4.12
   2  -1  11  124.52    4.37
   2   1  11  119.88    2.79
   2  -1  11  124.54    3.18
  -2  -1 -11  126.85    4.66
   2  -1  12   86.68    3.56
   2  -1  12   87.16    2.35
  -2  -1 -12   85.72    3.87
   2  -1  13    4.18    0.82
   2  -1  13    3.99    0.40
  -2  -1 -13    5.23    1.01
   2  -1  14   95.86    3.75
  -2  -1 -14   95.14    4.34
   2   1  15   56.08    2.94
   2  -1  15   55.40    2.83
  -2  -1 -15   46.90    3.15
   2   1  16   16.79    1.66
   2  -1  16   18.75    1.67
  -2  -1 -16   19.21    2.06
   2  -1  17   93.32    4.20
   2   1  17  102.40    4.34
   2  -1  17  102.82    4.06
  -2  -1 -17   96.65    4.86
   2   1  18   11.91    1.53
   2  -1  18    9.54    1.38
   2  -1  18   12.13    1.40
  -2  -1 -18   12.02    1.80
  -2   1 -18    9.93    1.66
  -2  -2  19    6.26    1.23
  -2   2  19    5.62    1.13
  -2   2  19    6.05    1.11
  -2  -2  19    6.25    1.16
   2  -2 -19    6.17    1.32
  -2   2  18    2.28    0.68
  -2  -2  18    3.15    0.82
   2  -2 -18    1.13    0.74
  -2   2  18    3.59    0.80
  -2  -2  18    4.43    0.92
  -2  -2  17    5.22    1.01
  -2   2  17    5.17    1.01
  -2  -2  17    6.43    0.72
  -2   2  17    5.41    0.94
  -2  -2  17    7.24    1.03
   2  -2 -17    4.99    1.10
  -2  -2  16   13.09    1.40
  -2   2  16   12.14    1.35
  -2  -2  16   12.16    0.94
  -2   2  16   13.17    1.37
  -2  -2  16   12.00    1.31
   2  -2 -16   11.10    1.55
  -2   2  15    0.11    0.48
  -2  -2  15    0.12    0.41
  -2  -2  15    0.13    0.28
  -2   2  15    0.79    0.39
   2  -2 -15   -0.32    0.58
  -2  -2  15    0.56    0.38
  -2  -2  14   12.54    1.23
  -2   2  14   16.17    1.39
  -2  -2  14   13.03    1.01
  -2  -2  14   13.24    1.29
  -2   2  14   12.46    1.21
   2  -2 -14    9.97    1.35
  -2   2  13  170.64    5.12
  -2  -2  13  166.94    5.08
  -2  -2  13  172.61    4.46
   2  -2 -13  174.07    4.26
  -2  -2  13  169.94    5.04
   2  -2 -13  151.81    5.49
  -2   2  13  171.32    5.07
   2  -2 -12    0.68    0.33
  -2  -2  12    0.31    0.34
  -2  -2  12    0.72    0.38
  -2   2  12    1.61    0.43
  -2  -2  12    0.53    0.19
   2  -2 -12    1.13    0.54
  -2  -2  12    1.23    0.41
  -2   2  12    1.40    0.41
   2  -2 -11    2.05    0.42
  -2  -2  11    1.98    0.41
  -2   2  11    1.55    0.46
  -2  -2  11    2.87    0.55
  -2  -2  11    1.84    0.28
   2  -2 -11    1.94    0.59
  -2  -2  11    1.35    0.41
  -2   2  11    2.30    0.49
  -2  -2  10  522.22   10.23
   2  -2 -10  535.98   10.24
   2   2 -10  540.37   10.77
  -2   2  10  543.22   11.00
  -2  -2  10  537.26   11.00
   2  -2 -10  538.47   10.78
  -2  -2  10  538.80    9.82
   2  -2 -10  523.61    9.42
   2  -2 -10  541.55    9.44
  -2   2  10  541.37   10.94
   2  -2 -10  488.85   11.53
  -2  -2  10  548.26   10.96
   2  -2  -9   49.65    1.65
  -2  -2   9   50.34    1.67
  -2   2   9   47.02    2.02
  -2  -2   9   47.29    2.00
   2   2  -9   49.79    1.93
  -2   2   9   48.65    2.02
   2  -2  -9   48.59    1.91
  -2  -2   9   47.81    2.04
  -2  -2   9   49.08    1.56
  -2  -2   9   45.65    1.95
  -2   2   9   50.08    2.02
   2  -2  -9   47.04    2.31
   2  -2  -8   28.09    1.12
  -2   2   8   27.95    1.43
  -2  -2   8   27.33    1.42
   2  -2  -8   28.84    1.35
   2   2  -8   30.47    1.39
  -2  -2   8   30.21    1.45
  -2   2   8   30.43    1.46
  -2  -2   8   28.80    1.14
  -2   2   8   27.35    1.38
  -2  -2   8   28.36    1.40
   2  -2  -8   30.02    1.69
  -2  -2   7  133.02    3.07
   2   2  -7  137.95    3.46
  -2   2   7  134.96    3.54
  -2  -2   7  135.41    3.55
   2  -2  -7  135.55    3.44
  -2   2   7  135.30    3.55
  -2  -2   7  140.11    3.59
  -2  -2   7  140.27    3.26
   2  -2  -7  138.46    3.96
  -2   2   7  136.26    3.51
  -2  -2   7  139.27    3.54
  -2  -2   6  564.16   10.28
  -2   2   6  563.09   10.77
  -2  -2   6  582.66   10.80
  -2  -2   6  571.69   10.79
   2   2  -6  575.40   10.73
   2  -2  -6  569.74   10.72
   2   2  -6  570.75   10.66
   2  -2  -6  566.43   10.65
  -2   2   6  559.34   10.77
  -2  -2   6  590.66   10.62
  -2  -2   6  582.58   10.77
   2  -2  -6  552.71   11.18
  -2   2   6  568.54   11.06
  -2   2   6  549.95   10.73
  -2  -2   5  115.57    2.83
   2  -2  -5  115.88    2.79
  -2   2   5  104.39    2.76
   2   2  -5  115.18    2.81
   2  -2  -5  109.04    2.78
   2   2  -5  112.16    2.77
  -2  -2   5  115.01    2.86
  -2  -2   5  111.60    2.83
   2   2  -5  113.31    2.77
   2  -2  -5  112.74    2.78
  -2   2   5  112.34    2.82
  -2   2   5  121.27    3.16
   2  -2  -5  119.96    3.13
   2  -2  -4    2.70    0.33
   2  -2  -4    3.27    0.34
  -2   2   4    2.92    0.32
   2   2  -4    3.43    0.35
  -2  -2   4    3.06    0.34
   2   2  -4    3.14    0.34
  -2  -2   4    2.92    0.37
   2  -2  -4    3.16    0.34
   2   2  -4    2.77    0.31
   2  -2  -4    2.86    0.36
  -2   2   4    3.21    0.40
   2   2  -3    1.45    0.30
  -2  -2   3    1.29    0.21
  -2   2   3    1.83    0.24
   2   2  -3    0.91    0.23
  -2  -2   3    1.54    0.28
  -2   2   3    1.25    0.24
   2  -2  -3    1.05    0.22
   2  -2  -3    1.75    0.24
   2   2  -3    1.61    0.24
  -2  -2   2  545.37    9.78
  -2   2   2  537.91    9.78
   2  -2  -2  553.60    9.92
   2   2  -2  558.74   10.24
  -2   2   2  549.78    9.94
   2   2  -2  559.44   10.25
   2  -2  -1   56.89    1.62
  -2  -2   1   57.42    1.81
   2   2  -1   55.16    1.75
   2  -2  -1   56.90    1.55
   2  -2   0   17.01    0.81
  -2  -2   0   17.63    0.92
   2   2   0   16.52    0.87
  -2   2   0   17.00    0.77
   2  -2   1    4.29    0.42
  -2   2  -1    4.72    0.44
  -2  -2  -1    4.45    0.46
   2   2   1    5.14    0.49
  -2   2  -2  270.47    5.55
   2  -2   2  265.56    5.60
   2   2   2  265.39    5.58
  -2  -2  -2  273.47    5.69
   2   2   2  276.94    5.81
  -2  -2  -3    2.77    0.41
  -2   2  -3    4.43    0.47
  -2  -2  -3    2.95    0.40
   2   2   3    3.62    0.42
   2   2   3    3.15    0.47
  -2  -2  -4  111.96    3.11
  -2   2  -4  115.76    3.00
   2   2   4  105.87    2.82
  -2  -2  -4  107.47    2.94
   2   2   4  117.06    3.36
   2  -2   5   66.40    2.28
  -2  -2  -5   66.31    2.30
  -2   2  -5   62.13    2.11
   2   2   5   61.61    1.95
  -2  -2  -5   65.67    2.10
   2   2   5   67.71    2.56
   2  -2   6  170.80    4.43
  -2   2  -6  173.20    4.20
  -2  -2  -6  166.97    4.40
  -2  -2  -6  164.05    4.03
   2   2   6  160.34    3.84
   2   2   6  179.36    4.83
   2  -2   7   92.19    3.11
  -2  -2  -7   96.18    3.16
  -2   2  -7   93.61    2.86
   2   2   7   90.55    2.51
  -2  -2  -7   98.69    2.80
   2  -2   7   94.55    2.64
  -2  -2  -8   39.88    1.97
   2  -2   8   40.25    2.02
  -2   2  -8   39.25    1.73
   2  -2   8   38.20    1.52
  -2  -2  -8   35.96    1.59
   2   2   8   35.44    1.38
  -2  -2  -8   37.21    2.17
   2  -2   9    1.75    0.51
  -2  -2  -9    1.44    0.46
  -2   2  -9    1.62    0.45
   2  -2   9    1.92    0.40
  -2  -2  -9    1.46    0.38
  -2  -2  -9    2.53    0.66
   2  -2  10  139.67    4.73
  -2   2 -10  142.60    4.05
  -2  -2 -10  142.95    4.55
  -2  -2 -10  146.53    3.89
   2  -2  10  150.00    3.79
  -2  -2 -10  144.71    5.03
   2  -2  11    1.77    0.58
   2  -2  11    1.66    0.44
  -2  -2 -11    0.74    0.30
  -2  -2 -11    1.49    0.60
   2  -2  12    0.99    0.62
   2  -2  12    0.85    0.37
  -2  -2 -12    1.06    0.29
  -2  -2 -12    1.31    0.62
   2  -2  13   65.72    3.22
   2  -2  13   68.87    2.29
  -2  -2 -13   70.32    3.64
   2  -2  14   21.62    1.82
  -2  -2 -14   22.77    2.09
   2  -2  15    0.51    0.50
   2   2  15    0.13    0.50
   2  -2  15    0.13    0.44
  -2  -2 -15    0.18    0.48
   2  -2  16   32.90    2.28
   2   2  16   32.90    2.28
   2  -2  16   28.45    2.13
  -2  -2 -16   30.73    2.62
   2   2  17   33.53    2.40
   2  -2  17   28.70    2.22
   2  -2  17   31.21    2.23
  -2  -2 -17   33.62    2.86
   2   2  18   38.25    2.64
   2  -2  18   43.32    2.81
   2  -2  18   36.76    2.45
  -2   3  19   59.77    3.32
  -2  -3  19   61.40    3.36
  -2  -3  19   57.87    3.23
  -2   3  19   61.28    3.32
   2  -3 -19   49.76    3.52
  -2   3  18  166.97    5.80
  -2  -3  18  169.64    5.84
  -2   3  18  176.80    5.86
  -2  -3  18  166.74    5.73
  -2   3  17   17.55    1.69
  -2  -3  17   22.14    1.88
  -2  -3  17   18.62    1.32
   2  -3 -17   18.31    2.02
  -2  -3  17   18.47    1.68
  -2   3  17   21.52    1.80
  -2  -3  16    1.00    0.51
  -2   3  16    0.62    0.47
  -2  -3  16    0.57    0.34
   2  -3 -16    0.69    0.57
  -2   3  16    1.43    0.60
  -2  -3  16    0.24    0.46
  -2  -3  15   52.32    2.35
  -2   3  15   56.39    2.79
  -2  -3  15   55.87    2.81
  -2  -3  15   51.35    1.42
  -2  -3  15   54.09    2.70
   2  -3 -15   47.61    3.05
  -2   3  15   57.00    2.77
  -2  -3  14    1.93    0.52
  -2  -3  14    2.89    0.67
  -2   3  14    1.70    0.55
  -2  -3  14    1.87    0.32
   2  -3 -14    1.06    0.59
  -2  -3  14    2.69    0.63
  -2   3  14    1.55    0.49
   2  -3 -13   67.20    2.45
  -2  -3  13   71.27    2.62
  -2   3  13   68.71    2.91
  -2  -3  13   71.67    2.97
  -2  -3  13   67.19    2.03
   2  -3 -13   62.65    1.51
   2  -3 -13   63.14    1.54
  -2   3  13   65.45    2.82
   2  -3 -13   66.72    3.36
  -2  -3  13   69.94    2.90
  -2  -3  12   75.07    2.57
   2  -3 -12   69.77    2.45
  -2   3  12   72.98    2.92
  -2  -3  12   71.93    2.93
   2  -3 -12   71.73    1.87
  -2  -3  12   71.43    2.19
   2  -3 -12   64.12    3.25
  -2  -3  12   76.63    2.94
  -2   3  12   68.32    2.81
  -2  -3  11    0.75    0.29
   2  -3 -11   -0.06    0.22
  -2  -3  11    0.08    0.30
  -2   3  11    0.24    0.30
  -2  -3  11    0.05    0.19
   2  -3 -11    0.03    0.17
  -2   3  11    0.63    0.32
  -2  -3  11    0.40    0.25
   2  -3 -11    0.24    0.40
  -2  -3  10  137.84    3.60
   2  -3 -10  140.09    3.59
  -2   3  10  137.69    4.02
  -2  -3  10  139.68    4.06
   2   3 -10  142.26    3.89
   2  -3 -10  140.29    3.87
  -2  -3  10  137.90    3.52
   2  -3 -10  132.88    4.54
  -2  -3  10  134.91    3.95
  -2   3  10  137.48    3.97
  -2  -3   9  150.99    3.68
  -2   3   9  140.80    3.97
  -2  -3   9  146.36    4.05
   2  -3  -9  140.85    3.84
   2   3  -9  147.91    3.88
  -2  -3   9  145.57    3.69
   2  -3  -9  139.50    4.50
  -2  -3   9  150.98    4.01
  -2   3   9  140.67    3.92
  -2  -3   8   20.04    1.03
  -2   3   8   20.27    1.20
  -2   3   8   19.71    1.17
  -2  -3   8   21.05    1.22
   2   3  -8   20.52    1.14
   2  -3  -8   20.84    1.13
  -2  -3   8   20.31    1.21
  -2  -3   8   19.28    1.08
  -2   3   8   19.94    1.16
  -2   3   8   19.76    1.36
  -2  -3   8   20.04    1.16
   2  -3  -8   23.11    1.51
  -2  -3   7  510.92    9.71
  -2  -3   7  512.71   10.04
   2  -3  -7  523.06    9.88
   2   3  -7  516.29    9.87
  -2   3   7  501.41    9.99
  -2   3   7  518.87   10.03
  -2  -3   7  504.98    9.95
  -2   3   7  493.04    9.94
  -2  -3   7  512.60    9.98
  -2   3   7  532.38   10.63
   2  -3  -7  492.60   10.61
  -2   3   6   28.90    1.26
  -2  -3   6   27.13    1.24
   2  -3  -6   30.93    1.25
   2   3  -6   27.79    1.20
   2   3  -6   28.59    1.22
  -2  -3   6   29.60    1.21
  -2  -3   6   30.32    1.37
  -2  -3   6   30.39    1.28
  -2   3   6   28.59    1.25
  -2   3   6   26.48    1.45
   2  -3  -6   30.67    1.56
   2  -3  -5  168.09    3.68
   2   3  -5  166.89    3.69
  -2   3   5  157.72    3.68
  -2  -3   5  162.96    3.71
   2   3  -5  168.15    3.67
   2  -3  -5  159.63    3.66
  -2  -3   5  157.64    3.99
  -2   3   5  156.70    3.69
   2  -3  -5  161.69    4.14
  -2   3   5  159.72    4.12
   2   3  -4   37.56    1.24
   2  -3  -4   36.39    1.23
  -2  -3   4   34.27    1.20
   2   3  -4   35.76    1.22
  -2   3   4   35.13    1.21
   2  -3  -4   36.04    1.23
  -2  -3   4   34.81    1.51
  -2   3   4   33.64    1.47
   2   3  -4   34.47    1.19
   2   3  -4   36.59    1.61
   2  -3  -4   34.88    1.20
   2  -3  -3   37.07    1.18
   2   3  -3   38.95    1.20
  -2   3   3   37.88    1.17
  -2  -3   3   37.96    1.19
  -2  -3   3   37.66    1.57
   2  -3  -3   38.83    1.19
   2   3  -3   38.71    1.62
  -2   3   3   37.80    1.48
   2   3  -3   36.64    1.16
  -2  -3   2   20.05    0.74
  -2   3   2   18.66    0.72
   2  -3  -2   17.63    0.94
   2   3  -2   18.97    1.08
   2  -3  -1   32.03    1.29
  -2  -3   1   33.71    1.48
   2  -3  -1   34.05    1.33
  -2   3   0   20.13    1.02
   2  -3   0   19.31    0.99
  -2  -3   0   21.12    1.15
   2  -3   1  159.35    3.78
  -2  -3  -1  154.49    3.94
   2   3   1  151.06    3.90
  -2   3  -1  152.02    3.75
   2  -3   2   23.24    1.17
  -2   3  -2   24.08    1.15
  -2  -3  -2   23.10    1.24
   2   3   2   23.76    1.29
  -2   3  -3  269.11    5.81
  -2  -3  -3  266.41    6.00
   2   3   3  274.59    6.22
  -2   3  -4    0.15    0.20
  -2  -3  -4    0.39    0.28
   2   3   4    0.65    0.35
  -2  -3  -5  223.21    5.36
  -2   3  -5  221.82    5.17
  -2  -3  -5  224.97    5.21
  -2  -3  -5  213.11    5.75
   2   3   5  232.17    5.81
  -2  -3  -6    0.81    0.36
   2  -3   6    1.14    0.35
  -2   3  -6    0.69    0.27
  -2  -3  -6    0.52    0.26
  -2  -3  -6    0.57    0.36
   2   3   6    1.04    0.41
  -2  -3  -7    0.66    0.34
   2  -3   7    0.53    0.30
  -2   3  -7   -0.06    0.25
  -2  -3  -7    0.29    0.26
  -2  -3  -7    0.21    0.36
   2   3   7   -0.10    0.31
   2  -3   8    0.41    0.32
  -2  -3  -8    0.40    0.34
  -2   3  -8    0.45    0.32
  -2  -3  -8    0.47    0.25
  -2  -3  -8    1.13    0.51
   2  -3   9    9.21    1.00
  -2   3  -9   10.48    0.92
  -2  -3  -9    9.35    1.01
  -2  -3  -9    8.62    0.79
  -2  -3  -9    8.44    1.12
   2  -3  10  129.04    4.43
  -2  -3 -10  135.89    3.80
  -2  -3 -10  139.10    5.03
   2  -3  11   73.34    3.21
   2  -3  11   69.85    2.37
  -2  -3 -11   62.70    2.37
  -2  -3 -11   66.30    3.39
   2  -3  12  194.40    5.95
  -2  -3 -12  178.10    4.66
   2  -3  12  192.04    4.71
  -2  -3 -12  173.98    6.16
   2  -3  13  164.61    5.61
  -2  -3 -13  159.38    4.06
   2  -3  13  170.70    4.38
  -2  -3 -13  169.41    6.15
   2  -3  14    1.18    0.60
   2   3  14    1.79    0.61
   2  -3  14    1.28    0.62
  -2  -3 -14    0.35    0.52
   2  -3  15   -0.13    0.44
   2   3  15   -0.13    0.55
   2  -3  15   -0.14    0.46
  -2  -3 -15   -0.18    0.55
   2  -3  16    3.36    0.85
   2   3  16    3.41    0.84
   2  -3  16    2.05    0.81
  -2  -3 -16    2.89    0.94
   2   3  17    7.37    1.22
   2  -3  17    9.41    1.35
   2  -3  17    9.66    1.35
  -2  -3 -17    9.10    1.54
   2  -3  18  114.23    4.70
   2  -3  18  115.97    4.68
  -2   4  19    1.48    0.75
  -2  -4  19    1.03    0.68
  -2   4  18    0.85    0.64
  -2  -4  18   -0.57    0.61
   2  -4 -18    0.96    0.75
  -2  -4  18   -0.28    0.54
  -2   4  18   -0.14    0.57
  -2  -4  17    0.67    0.60
  -2   4  17    1.06    0.58
   2  -4 -17    0.55    0.64
  -2   4  17    1.83    0.67
  -2  -4  17    2.23    0.72
  -2   4  16   12.93    1.42
  -2  -4  16   15.09    1.50
  -2  -4  16   11.43    1.20
   2  -4 -16   12.50    1.64
  -2  -4  16   13.17    1.39
  -2   4  16   12.69    1.39
  -2  -4  15  127.58    4.13
  -2  -4  15  125.35    4.49
  -2   4  15  123.14    4.44
  -2  -4  15  127.03    3.31
  -2  -4  15  127.18    4.48
  -2   4  15  126.07    4.45
   2  -4 -15  123.66    5.14
  -2  -4  14   74.88    2.87
  -2  -4  14   74.62    3.20
  -2   4  14   74.79    3.18
  -2  -4  14   72.66    2.38
  -2  -4  14   70.62    3.06
  -2   4  14   67.85    3.03
   2  -4 -14   67.10    3.55
   2  -4 -13   27.47    1.54
  -2  -4  13   29.17    1.66
  -2   4  13   27.76    1.80
  -2  -4  13   30.02    1.87
   2  -4 -13   27.53    1.21
  -2  -4  13   29.53    1.46
  -2   4  13   27.60    1.77
  -2  -4  13   29.17    1.81
   2  -4 -13   25.90    2.08
   2  -4 -12  248.27    5.86
  -2  -4  12  245.33    5.95
  -2  -4  12  244.57    6.37
  -2   4  12  246.66    6.38
   2  -4 -12  242.15    5.39
  -2  -4  12  257.31    5.82
  -2   4  12  241.88    6.31
   2  -4 -12  239.35    7.17
  -2  -4  12  256.27    6.41
   2  -4 -11   25.90    1.41
  -2  -4  11   26.45    1.60
  -2   4  11   26.99    1.62
   2  -4 -11   24.31    1.24
  -2  -4  11   24.39    1.37
  -2  -4  11   25.98    1.57
  -2   4  11   25.22    1.54
   2  -4 -11   28.02    2.01
  -2  -4  10   27.00    1.42
   2  -4 -10   26.94    1.44
  -2   4  10   26.02    1.51
   2   4 -10   28.40    1.48
  -2  -4  10   25.05    1.50
  -2  -4  10   27.82    1.47
  -2   4  10   25.32    1.49
  -2  -4  10   26.71    1.52
   2  -4 -10   28.49    1.96
   2   4  -9    1.11    0.36
  -2  -4   9    0.99    0.31
  -2  -4   9    1.38    0.36
  -2   4   9    1.06    0.34
   2  -4  -9    1.39    0.38
  -2  -4   9    0.98    0.37
  -2  -4   9    0.90    0.31
  -2   4   9    1.12    0.34
  -2   4   9    1.03    0.48
   2  -4  -9    1.56    0.50
  -2  -4   8    5.26    0.59
   2   4  -8    4.28    0.53
   2  -4  -8    4.57    0.54
  -2  -4   8    4.65    0.60
  -2   4   8    4.66    0.71
  -2  -4   8    3.73    0.50
  -2   4   8    5.72    0.63
   2  -4  -8    3.57    0.66
  -2  -4   7  180.58    4.43
   2   4  -7  183.76    4.29
   2  -4  -7  191.85    4.32
  -2   4   7  182.43    4.42
  -2  -4   7  186.66    4.49
  -2  -4   7  183.81    4.73
  -2   4   7  192.03    5.09
  -2  -4   7  184.02    4.38
  -2   4   7  179.02    4.38
   2  -4  -7  183.34    5.13
  -2  -4   6  204.94    4.68
   2   4  -6  220.61    4.66
   2  -4  -6  211.30    4.61
  -2   4   6  196.16    4.61
  -2  -4   6  204.33    5.14
  -2   4   6  212.35    5.37
   2   4  -6  213.09    5.48
  -2   4   6  205.40    4.66
   2  -4  -6  207.78    5.39
   2  -4  -5    6.42    0.52
  -2  -4   5    7.46    0.57
  -2   4   5    6.83    0.55
   2   4  -5    7.01    0.54
  -2  -4   5    7.93    0.78
   2   4  -5    7.60    0.83
  -2   4   5    7.91    0.81
  -2   4   4    8.20    0.53
   2   4  -4    7.76    0.51
   2  -4  -4    6.35    0.49
  -2  -4   4    7.79    0.53
  -2  -4   4    7.73    0.77
   2   4  -4    8.22    0.84
  -2   4   4    7.43    0.76
   2  -4  -3    4.33    0.56
   2   4  -3    3.54    0.59
  -2   4   3    4.17    0.34
   2   4  -3    4.49    0.36
   2  -4  -3    5.87    0.41
  -2  -4   3    4.12    0.34
  -2  -4   3    3.54    0.54
   2  -4  -3    4.31    0.35
   2   4  -3    3.69    0.33
  -2   4   3    4.22    0.58
  -2  -4   2    0.35    0.12
  -2   4   2    0.08    0.09
   2  -4  -2    0.21    0.11
   2   4  -2    0.78    0.34
   2  -4  -2    0.28    0.26
   2  -4  -2    0.19    0.11
   2   4  -2    1.00    0.17
  -2   4   1    5.09    0.32
  -2  -4   1    5.04    0.33
  -2  -4   1    5.45    0.67
   2  -4  -1    5.06    0.58
  -2   4   0  179.53    4.48
   2  -4   0  178.90    4.37
  -2  -4   0  177.69    4.64
   2  -4   0  181.29    4.44
   2  -4   1   10.10    0.81
  -2  -4  -1   11.07    0.91
  -2   4  -1    9.30    0.82
   2   4   1    8.93    0.86
   2  -4   2  514.24   10.34
  -2  -4  -2  536.02   10.64
   2   4   2  522.09   10.69
  -2   4  -2  512.04   10.50
  -2  -4  -3   16.39    1.16
  -2   4  -3   14.70    1.10
   2   4   3   17.96    1.26
  -2  -4  -4   34.62    1.71
   2   4   4   33.77    1.83
  -2  -4  -4   34.94    1.92
   2  -4   5    1.20    0.36
  -2  -4  -5    1.06    0.38
   2   4   5    1.43    0.47
  -2  -4  -5    1.55    0.49
  -2   4  -6   63.55    2.34
  -2  -4  -6   64.31    2.45
   2   4   6   64.09    2.80
  -2  -4  -6   60.53    2.84
  -2  -4  -7  186.06    5.02
  -2   4  -7  182.51    4.76
  -2  -4  -7  187.66    4.87
  -2  -4  -7  186.60    5.68
   2  -4   8  127.45    4.06
  -2  -4  -8  126.93    3.79
  -2  -4  -8  132.34    4.71
   2  -4   9    2.54    0.59
  -2  -4  -9    1.15    0.38
  -2  -4  -9    1.60    0.63
   2  -4  10   29.82    1.89
  -2  -4 -10   30.65    1.63
  -2  -4 -10   31.29    2.29
   2  -4  11   40.92    2.33
  -2  -4 -11   41.08    1.91
  -2  -4 -11   42.21    2.73
   2  -4  12   28.25    2.00
   2  -4  12   27.62    1.48
  -2  -4 -12   24.81    1.48
  -2  -4 -12   26.89    2.27
   2  -4  13   64.86    3.24
   2  -4  13   60.90    2.86
   2   4  13   58.73    2.84
   2  -4  13   61.49    2.34
  -2  -4 -13   58.17    3.44
   2  -4  14   24.70    1.83
   2   4  14   26.31    1.89
   2  -4  14   22.42    1.97
  -2  -4 -14   21.28    2.16
   2   4  15   26.14    1.96
   2  -4  15   23.84    1.87
   2  -4  15   22.01    2.03
  -2  -4 -15   25.27    2.36
   2  -4  16   70.32    3.40
   2   4  16   71.54    3.43
   2  -4  16   73.52    3.77
  -2  -4 -16   63.41    3.92
   2   4  17   12.58    1.51
   2  -4  17   10.51    1.39
   2  -4  17   14.93    1.75
   2  -4  17   11.73    1.41
   2  -4  18   26.18    2.28
  -2   5  18   12.47    1.50
  -2  -5  18   10.11    1.35
   2  -5 -18    9.09    1.58
  -2  -5  17    5.48    0.98
  -2   5  17    5.04    1.01
   2  -5 -17    5.86    1.26
  -2  -5  16    8.03    1.09
  -2   5  16    7.88    1.08
  -2  -5  16    8.85    1.13
   2  -5 -16    7.93    1.38
  -2  -5  15    7.16    0.98
  -2   5  15    8.26    1.09
  -2  -5  15    7.80    0.84
  -2  -5  15    8.80    1.10
  -2   5  15    7.69    1.03
   2  -5 -15    8.89    1.39
  -2  -5  14   -0.18    0.34
  -2   5  14    0.64    0.46
  -2  -5  14   -0.07    0.29
   2  -5 -14    0.80    0.59
  -2   5  14   -0.32    0.41
  -2  -5  14   -0.10    0.43
  -2  -5  13   11.47    1.08
  -2   5  13   10.30    1.11
  -2  -5  13   10.12    0.98
   2  -5 -13   10.93    0.90
  -2  -5  13   11.29    1.12
  -2   5  13   11.41    1.15
   2  -5 -13   12.52    1.52
  -2   5  12   49.19    2.33
   2  -5 -12   48.81    2.01
  -2  -5  12   43.33    2.09
  -2   5  12   50.04    2.34
   2  -5 -12   41.08    2.65
  -2  -5  12   47.12    2.24
  -2  -5  11   99.85    3.27
  -2  -5  11   95.61    3.27
   2  -5 -11   97.71    3.11
  -2   5  11   90.56    3.22
   2  -5 -11   92.28    3.97
  -2  -5  11   92.79    3.21
  -2  -5  10  205.59    5.23
   2   5 -10  206.23    5.06
   2  -5 -10  209.15    5.07
  -2  -5  10  203.48    5.39
  -2  -5  10  210.73    5.25
   2  -5 -10  188.69    6.07
  -2   5  10  201.24    5.22
  -2  -5   9  107.64    3.35
   2   5  -9  105.78    3.11
   2  -5  -9  106.76    3.10
  -2  -5   9  104.58    3.54
  -2  -5   9  107.89    3.23
  -2   5   9  104.35    3.24
   2  -5  -9  105.14    4.00
  -2  -5   8  240.99    5.89
   2   5  -8  252.05    5.54
   2  -5  -8  254.57    5.54
  -2  -5   8  244.83    6.21
  -2  -5   8  249.05    5.65
  -2   5   8  240.29    5.62
   2  -5  -8  236.43    6.57
   2  -5  -7  115.18    3.04
  -2  -5   7  110.15    3.39
   2   5  -7  120.61    3.11
  -2  -5   7  113.16    3.74
  -2   5   7  115.13    3.87
   2  -5  -6    1.16    0.27
   2   5  -6    0.67    0.23
  -2  -5   6    0.83    0.35
  -2   5   6    0.75    0.40
   2   5  -5    3.70    0.68
  -2  -5   5    4.11    0.44
  -2  -5   5    3.47    0.62
  -2   5   5    3.23    0.59
   2   5  -4    4.26    0.72
  -2  -5   4    4.56    0.40
  -2   5   4    4.69    0.39
  -2  -5   4    5.61    0.73
  -2   5   4    4.81    0.69
  -2   5   3  278.28    5.44
   2   5  -3  294.01    5.44
  -2  -5   3  294.97    5.48
   2  -5  -3  283.92    6.76
   2   5  -3  291.91    7.00
  -2   5   3  290.46    6.77
   2  -5  -2  105.80    2.22
   2   5  -2  107.62    2.23
  -2  -5   2  108.10    2.23
  -2   5   2  103.45    2.20
   2  -5  -2  106.99    3.38
   2   5  -2  104.69    2.20
   2  -5  -1   -0.07    0.23
  -2  -5   1    0.26    0.34
  -2  -5   1    0.15    0.09
  -2   5   1    0.04    0.08
   2  -5  -1    0.06    0.08
  -2  -5   1    0.17    0.25
   2  -5  -1    0.08    0.08
   2   5  -1    0.08    0.08
   2  -5   0   57.64    2.24
  -2  -5   0   58.74    2.45
   2  -5   0   52.18    2.24
  -2  -5   0   56.93    2.50
  -2  -5  -1   67.86    2.82
  -2   5  -1   69.37    2.63
   2  -5   1   69.94    2.52
  -2  -5  -1   69.30    2.73
   2   5   1   69.93    2.75
   2  -5   2  229.75    5.65
  -2  -5  -2  217.16    5.82
  -2   5  -2  235.35    5.85
   2   5   2  240.15    6.00
  -2  -5  -3  209.27    5.52
  -2   5  -3  203.70    5.45
   2   5   3  206.19    5.61
  -2   5  -4    1.13    0.44
  -2  -5  -4    1.36    0.43
   2  -5   5   42.73    2.04
  -2  -5  -5   45.71    2.19
  -2   5  -5   42.32    2.21
   2  -5   6   52.68    2.36
  -2  -5  -6   49.90    2.32
  -2  -5  -6   50.65    2.68
   2  -5   7    0.18    0.31
  -2   5  -7    0.56    0.29
  -2  -5  -7    0.28    0.23
  -2  -5  -7    0.17    0.26
  -2  -5  -7    0.64    0.39
  -2  -5  -8  128.52    3.66
  -2   5  -8  132.19    3.70
  -2  -5  -8  136.21    4.19
  -2  -5  -8  131.64    4.93
   2  -5   9  181.52    5.35
  -2  -5  -9  184.24    5.10
  -2  -5  -9  172.48    5.99
   2  -5  10   75.53    3.23
  -2  -5 -10   76.51    2.96
  -2  -5 -10   74.91    3.79
   2  -5  11   20.77    1.67
   2  -5  11   18.11    1.38
  -2  -5 -11   16.88    1.31
  -2  -5 -11   19.70    1.91
   2  -5  12   22.78    1.84
   2  -5  12   24.70    1.69
   2   5  12   25.12    1.72
  -2  -5 -12   25.77    1.61
  -2  -5 -12   23.56    2.21
   2  -5  13   28.29    1.88
   2   5  13   27.49    1.88
   2  -5  13   31.74    2.22
  -2  -5 -13   29.92    2.53
   2  -5  14    3.40    0.77
   2   5  14    1.97    0.60
   2  -5  14    3.34    0.91
  -2  -5 -14    2.10    0.86
   2  -5  15    0.36    0.42
   2   5  15    0.99    0.55
   2  -5  15    0.47    0.69
  -2  -5 -15    1.00    0.70
   2  -5  16    2.32    0.77
   2   5  16    3.57    0.91
   2  -5  16    2.66    0.87
   2  -5  16    2.51    0.75
   2   5  16    2.97    0.85
  -2  -5 -16    2.30    0.95
   2  -5  17    2.32    0.78
   2   5  17    3.08    0.86
   2  -5  17    2.75    0.98
   2  -5  17    2.52    0.83
   2   5  17    4.25    0.91
  -2  -6  18   52.26    2.88
  -2   6  18   49.49    2.89
   2  -6 -17    5.23    1.19
  -2  -6  17    4.08    0.88
  -2   6  17    3.94    0.86
  -2  -6  16   68.75    3.11
  -2  -6  16   73.17    3.25
  -2   6  16   69.28    3.21
   2  -6 -16   64.65    3.84
  -2  -6  15   18.01    1.52
  -2  -6  15   20.19    1.47
  -2  -6  15   20.61    1.64
  -2   6  15   20.83    1.66
  -2  -6  14    0.40    0.40
  -2  -6  14    0.55    0.45
  -2  -6  14   -0.10    0.45
  -2  -6  13    9.76    1.09
   2  -6 -13   10.37    1.02
  -2   6  13    9.80    1.08
   2  -6 -13    8.13    1.30
  -2  -6  13   10.11    1.08
  -2  -6  12   13.35    1.21
   2  -6 -12   11.47    1.08
  -2  -6  12   12.53    1.22
  -2   6  12   14.41    1.23
   2  -6 -12   14.55    1.65
  -2  -6  12   12.40    1.13
  -2  -6  11   32.66    1.84
  -2  -6  11   30.81    1.89
   2  -6 -11   31.23    1.79
   2  -6 -11   28.23    2.18
  -2   6  11   31.53    1.73
  -2  -6  11   33.89    1.77
  -2  -6  10   31.44    1.79
   2   6 -10   34.13    1.64
   2  -6 -10   35.96    1.68
  -2  -6  10   32.05    1.95
  -2   6  10   31.77    1.69
  -2  -6   9   10.06    1.00
  -2  -6   9    9.81    1.07
   2  -6  -9    9.79    0.82
   2   6  -9   10.41    0.87
  -2  -6   8    2.00    0.57
  -2  -6   8    2.04    0.50
   2   6  -8    2.15    0.40
   2  -6  -8    2.26    0.40
  -2  -6   7    8.21    1.00
  -2  -6   7    6.87    0.83
   2   6  -7    8.48    0.68
   2  -6  -7    8.57    0.67
  -2  -6   6   49.42    2.46
   2  -6  -5   70.62    2.96
  -2  -6   5   68.13    2.95
   2  -6  -4   35.10    1.96
  -2  -6   4   30.24    1.88
  -2   6   4   30.02    1.80
   2  -6  -3    3.17    0.64
  -2   6   3    3.58    0.67
  -2  -6   2    9.38    1.05
   2  -6  -2    7.69    0.89
  -2  -6   1   14.47    1.28
   2  -6  -1   13.24    1.17
  -2  -6   1   17.24    1.43
   2  -6   0   28.07    1.61
  -2  -6   0   27.51    1.77
  -2  -6   0   24.63    1.76
  -2   6  -1   50.11    2.36
  -2  -6  -1   49.93    2.55
  -2  -6  -1   46.35    2.36
   2  -6   1   47.67    2.22
  -2  -6  -2    3.07    0.67
  -2  -6  -2    1.99    0.52
   2  -6   2    1.59    0.42
  -2   6  -2    2.26    0.25
  -2  -6  -2    2.17    0.24
  -2  -6  -3   54.56    2.58
  -2  -6  -3   53.14    1.51
  -2   6  -3   53.59    1.54
  -2  -6  -4    1.21    0.44
  -2  -6  -4    1.64    0.29
  -2   6  -4    1.88    0.31
  -2  -6  -5    0.30    0.37
   2  -6   5    0.18    0.32
  -2  -6  -5    0.43    0.24
  -2   6  -5    0.36    0.25
   2  -6   6   20.36    1.51
  -2  -6  -6   23.98    1.69
  -2  -6  -6   20.71    1.09
  -2   6  -6   20.44    1.08
   2  -6   7   51.19    2.52
  -2  -6  -7   51.58    2.54
  -2  -6  -7   51.60    1.90
  -2   6  -7   48.75    1.88
   2  -6   8  212.10    5.98
  -2  -6  -8  200.14    4.90
  -2   6  -8  203.19    4.94
   2  -6   8  201.46    5.03
  -2  -6  -8  200.34    5.77
   2  -6   9   11.27    0.98
   2   6   9   14.18    1.10
  -2  -6  -9   11.16    1.18
  -2  -6  -9   13.31    1.62
   2  -6  10   18.48    1.58
   2   6  10   15.55    1.23
   2  -6  10   16.51    1.25
  -2  -6 -10   16.96    1.42
  -2  -6 -10   17.61    1.85
   2  -6  11    1.23    0.57
   2  -6  11    1.47    0.47
   2   6  11    1.61    0.47
  -2  -6 -11    0.71    0.48
  -2  -6 -11    0.88    0.69
   2  -6  12    4.02    0.88
   2   6  12    2.14    0.59
   2  -6  12    2.83    0.62
  -2  -6 -12    2.84    0.66
  -2  -6 -12    2.21    0.83
   2  -6  13   51.33    2.53
   2   6  13   49.72    2.53
   2  -6  13   52.56    2.96
  -2  -6 -13   50.13    3.39
   2  -6  14    3.51    0.74
   2   6  14    4.08    0.83
   2  -6  14    4.54    0.96
   2  -6  14    3.40    0.73
  -2  -6 -14    4.23    1.10
   2   6  14    4.10    0.79
   2   6  15   13.29    1.43
   2  -6  15   11.48    1.32
   2  -6  15   16.56    1.80
   2  -6  15   12.73    1.36
   2   6  15   11.96    1.33
  -2  -6 -15   13.61    1.90
   2   6  16   80.15    3.62
   2  -6  16   78.23    3.54
   2  -6  16   87.79    4.26
   2  -6  16   75.22    3.45
   2   6  16   79.67    3.59
   2  -6  17   10.85    1.36
   2   6  17   10.18    1.38
   2  -6  17    9.79    1.53
   2   6  17    9.05    1.29
   2  -6  17    8.95    1.23
   2  -7 -16   19.22    2.14
  -2  -7  15   26.50    1.94
  -2  -7  15   28.78    1.93
   2  -7 -15   30.07    2.59
  -2  -7  14    8.87    1.13
  -2  -7  14    9.66    1.18
  -2  -7  13   36.51    2.25
  -2  -7  12   31.49    1.98
   2  -7 -12   31.45    1.94
  -2  -7  12   30.47    2.04
  -2  -7  11    1.04    0.57
   2  -7 -11    1.66    0.59
  -2  -7  11    1.00    0.50
  -2  -7  10   55.90    2.62
  -2  -7  10   55.74    2.82
   2   7 -10   60.38    2.21
  -2  -7   9    7.09    0.93
  -2  -7   9    8.42    1.15
   2   7  -9    8.27    0.73
  -2  -7   8    1.42    0.61
  -2  -7   8    1.24    0.45
  -2  -7   7  176.86    5.60
  -2  -7   7  175.95    5.13
   2  -7  -6   39.91    2.37
  -2  -7   6   37.19    2.30
   2  -7  -5  143.38    4.88
  -2  -7   5  153.05    5.08
   2  -7  -4  473.81   10.83
  -2  -7   4  468.90   10.99
   2  -7  -3  158.85    5.03
   2  -7  -2  186.65    5.60
  -2  -7   2  194.04    5.99
  -2  -7   1    0.37    0.37
   2  -7  -1   -0.10    0.45
  -2  -7   1    0.82    0.46
   2  -7   0   14.17    1.24
  -2  -7   0   12.41    1.30
  -2  -7   0   12.92    1.39
   2  -7   1  146.96    4.62
  -2  -7  -1  150.34    5.01
  -2  -7  -1  160.23    5.29
  -2  -7  -2  119.41    4.52
   2  -7   2  122.50    4.08
   2   7   2  113.24    2.22
   2   7   2  118.53    2.20
  -2  -7  -3  482.91   11.52
  -2  -7  -3  481.04    8.51
   2   7   3  475.45    8.62
   2  -7   3  480.46    8.46
  -2   7  -3  485.49    8.54
  -2  -7  -3  488.74   11.15
   2   7   3  492.73    8.62
   2  -7   3  472.01    8.45
  -2  -7  -4  259.23    7.42
  -2  -7  -4  254.49    4.89
  -2   7  -4  247.18    4.91
   2  -7   4  246.41    4.85
   2   7   4  246.29    4.98
  -2  -7  -4  248.80    6.95
   2  -7   4  242.38    4.82
  -2  -7  -5    2.97    0.74
   2  -7   5    3.85    0.75
  -2  -7  -5    3.03    0.38
   2  -7   5    3.10    0.39
   2   7   5    2.71    0.38
  -2   7  -5    3.02    0.39
   2  -7   6    8.22    1.06
  -2  -7  -6    8.77    1.12
   2  -7   6    8.07    0.66
  -2   7  -6    9.20    0.69
   2   7   6    8.14    0.68
  -2  -7  -7    0.24    0.47
   2  -7   7   -0.05    0.21
   2  -7   7    0.33    0.35
  -2   7  -7    0.54    0.26
   2   7   7    0.11    0.22
   2  -7   8   10.72    1.24
   2  -7   8   10.42    0.86
   2   7   8   10.93    0.91
  -2   7  -8   11.09    0.88
  -2  -7  -8   12.59    1.34
   2   7   9    7.84    0.83
   2  -7   9    9.77    0.87
  -2  -7  -9   10.93    1.26
   2  -7   9   10.31    0.88
   2   7  10   21.29    1.39
   2  -7  10   19.53    1.30
  -2  -7 -10   19.05    1.62
   2  -7  10   16.82    1.19
   2  -7  11   14.21    1.53
   2  -7  11   12.80    1.11
   2   7  11   14.95    1.23
  -2  -7 -11   16.96    1.53
   2   7  11   14.60    1.21
   2  -7  11   14.80    1.16
   2  -7  12    4.43    0.96
   2  -7  12    6.23    0.86
   2   7  12    4.11    0.71
  -2  -7 -12    6.86    1.06
   2   7  12    5.22    0.78
   2  -7  12    5.44    0.80
   2  -7  13   14.85    1.34
   2   7  13   15.71    1.40
   2  -7  13   17.09    1.71
   2  -7  13   15.17    1.33
   2   7  13   14.33    1.33
  -2  -7 -13   12.34    1.78
   2  -7  14   10.55    1.21
   2   7  14   11.35    1.23
   2  -7  14   14.15    1.64
   2  -7  15    2.71    0.75
   2  -7  15    3.69    0.99
   2   7  15    2.66    0.75
   2  -7  16   26.18    1.98
   2  -7  16   29.22    2.47
   2   7  16   28.31    2.06
  -2  -8  15    9.62    1.27
  -2  -8  14   17.61    1.67
  -2  -8  13    0.52    0.65
  -2  -8  13    1.21    0.61
   2  -8 -12    0.59    0.52
  -2  -8  12    0.93    0.58
  -2  -8  12    0.12    0.48
  -2  -8  11   16.68    1.51
  -2  -8  11   17.51    1.66
   2  -8 -11   15.29    1.50
  -2  -8  10  167.53    5.24
  -2  -8  10  160.76    5.54
   2  -8 -10  162.09    5.37
  -2  -8   9   39.32    2.30
  -2  -8   9   37.81    2.46
   2  -8  -8   32.77    2.36
  -2  -8   8   29.98    1.98
  -2  -8   8   29.25    2.17
   2  -8  -7   42.14    2.62
  -2  -8   7   37.97    2.50
  -2  -8   7   37.93    2.22
   2  -8  -6    1.47    0.59
  -2  -8   6    2.34    0.74
  -2  -8   6    3.56    0.72
   2  -8  -5    3.23    0.77
  -2  -8   5    3.57    0.87
  -2  -8   4   20.60    1.82
   2  -8  -4   16.05    1.57
   2  -8  -3    1.87    0.65
   2  -8  -2  490.67   11.48
   2  -8  -1   16.10    1.41
  -2  -8   1   14.13    1.50
   2  -8  -1   13.07    1.38
  -2  -8   1   13.83    1.53
   2  -8   0   13.24    1.30
  -2  -8   0   12.57    1.43
   2  -8   1  111.79    4.10
  -2  -8  -1  118.20    4.59
  -2  -8  -1  119.45    4.73
   2  -8   2  153.10    5.07
  -2  -8  -2  168.67    5.59
  -2  -8  -2  154.82    5.61
  -2  -8  -3    1.80    0.71
  -2  -8  -3    3.65    0.83
  -2  -8  -4    4.80    1.02
  -2   8  -4    5.26    0.31
  -2  -8  -4    5.70    1.01
   2   8   4    5.34    0.35
   2  -8   5   19.67    1.63
  -2  -8  -5   21.13    1.99
  -2   8  -5   20.07    0.82
  -2  -8  -5   20.78    1.82
   2   8   5   20.85    0.88
   2  -8   6   39.86    2.38
   2  -8   6   35.90    1.31
  -2  -8  -6   38.21    2.46
   2   8   6   40.14    1.45
   2  -8   7   92.54    3.83
   2  -8   7   89.39    2.53
  -2  -8  -7   98.98    4.11
   2   8   7   91.51    2.63
   2  -8   8  123.81    4.61
   2  -8   8  116.38    3.21
  -2  -8  -8  126.89    4.75
   2   8   8  119.06    3.32
   2  -8   9   44.94    2.68
   2  -8   9   43.36    1.83
  -2  -8  -9   47.82    2.76
   2   8   9   45.52    1.93
   2  -8  10   -0.07    0.33
  -2  -8 -10   -0.13    0.51
   2   8  10    0.22    0.33
   2  -8  11    5.73    1.01
   2  -8  11    3.89    0.64
  -2  -8 -11    7.39    1.13
   2   8  11    6.54    0.79
   2  -8  12   23.22    2.03
   2   8  12   21.13    1.52
   2  -8  13    3.99    0.98
   2   8  13    2.18    0.61
   2  -8  14    2.88    0.97
  -2  -9  14   34.55    2.51
  -2  -9  13   76.88    3.60
  -2  -9  13   69.93    3.62
  -2  -9  12   12.63    1.42
  -2  -9  12   10.54    1.46
   2  -9 -11    1.81    0.72
  -2  -9  11    1.07    0.62
  -2  -9  11    1.53    0.66
   2  -9 -10    6.49    1.24
  -2  -9  10    8.84    1.35
   2  -9 -10    7.55    1.18
  -2  -9  10    6.56    1.05
   2  -9  -9   -0.66    0.64
  -2  -9   9   -0.15    0.52
   2  -9  -9    0.14    0.50
  -2  -9   9    0.50    0.46
   2  -9  -8   -0.16    0.64
  -2  -9   8   -0.16    0.54
  -2  -9   8    0.25    0.38
   2  -9  -7   17.84    1.81
  -2  -9   7   13.24    1.40
  -2  -9   7   13.07    1.62
  -2  -9   6   17.49    1.62
  -2  -9   6   18.85    1.86
   2  -9  -6   20.23    1.86
   2  -9  -5    3.81    0.89
  -2  -9   5    2.81    0.85
   2  -9  -4    9.46    1.31
  -2  -9   4   10.78    1.41
   2  -9  -3    2.81    0.79
   2  -9  -2    0.14    0.42
  -2  -9   1    1.92    0.76
  -2  -9   1    2.95    0.84
   2  -9  -1    1.60    0.62
  -2  -9   0    7.22    1.25
  -2  -9   0    3.90    0.92
   2  -9   0    5.80    0.93
  -2  -9  -1    0.81    0.57
   2  -9   1    1.12    0.54
  -2  -9  -1    1.40    0.63
   2  -9   2   12.94    1.42
  -2  -9  -2   14.74    1.65
  -2  -9  -2   12.26    1.59
  -2  -9  -3   37.61    2.58
  -2  -9  -3   31.85    2.52
  -2  -9  -4   17.97    1.93
  -2  -9  -4   18.66    1.86
   2  -9   5   11.34    1.37
  -2  -9  -5   11.65    1.62
  -2  -9  -5   11.35    1.48
  -2  -9  -6   48.06    3.24
   2  -9   6   52.85    2.94
  -2  -9  -6   55.10    3.16
   2  -9   7   87.49    3.88
  -2  -9  -7   77.46    4.24
  -2  -9  -7   90.45    4.13
  -2  -9  -8    5.33    1.25
  -2  -9  -8    6.93    1.20
   2  -9   8    4.53    0.96
  -2  -9  -9    0.46    0.53
   2  -9   9   -0.29    0.55
  -2  -9 -10   42.74    2.79
  -2  -9 -11    0.15    0.54
  -2 -10  12    0.17    0.66
  -2 -10  12    0.43    0.59
   2 -10 -11    5.97    1.18
  -2 -10  11    4.78    1.17
  -2 -10  11    5.06    1.01
   2 -10 -10    1.83    0.85
   2 -10 -10    0.96    0.67
  -2 -10  10    1.38    0.89
  -2 -10  10    0.56    0.57
   2 -10  -9   19.82    2.09
  -2 -10   9   20.55    1.86
   2 -10  -9   19.80    1.98
  -2 -10   9   17.30    1.97
  -2 -10   8  106.16    4.40
   2 -10  -8  104.01    4.60
  -2 -10   8  108.60    4.86
   2 -10  -8   95.88    4.60
  -2 -10   7   46.77    2.76
  -2 -10   7   43.85    3.03
   2 -10  -7   41.00    2.88
   2 -10  -6    0.17    0.58
  -2 -10   6    0.28    0.48
  -2 -10   6   -0.18    0.59
  -2 -10   5   75.17    3.58
  -2 -10   5   71.88    3.94
   2 -10  -5   74.29    3.83
   2 -10  -4    0.64    0.56
  -2 -10   4    0.53    0.69
   2 -10  -3   22.44    1.89
   2 -10  -3   16.51    1.82
   2 -10  -2    2.76    0.81
  -2 -10   1   92.39    4.40
   2 -10  -1   84.99    3.87
  -2 -10   0    0.54    0.65
   2 -10   0    0.55    0.57
  -2 -10   0   -0.17    0.61
   2 -10   1   40.06    2.59
  -2 -10  -1   35.95    2.72
  -2 -10  -1   38.36    2.86
   2 -10   2   46.60    2.84
  -2 -10  -2   49.11    3.16
  -2 -10  -2   44.60    3.13
  -2 -10  -3    6.75    1.35
  -2 -10  -3    8.05    1.39
   2 -10   4   63.93    3.38
  -2 -10  -4   64.14    3.70
  -2 -10  -4   71.98    4.02
   2 -10   5   73.06    3.62
  -2 -10  -5   68.78    3.81
  -2 -10  -5   69.91    4.09
  -2 -10  -6   18.93    2.16
   2 -10   6   16.43    1.72
  -2 -10  -6   16.48    1.87
  -2 -10  -7   17.67    2.15
   2 -10   7   14.44    1.66
  -2 -10  -7   14.91    1.81
   2 -10   8   40.35    2.74
  -2 -10  -8   43.06    2.98
  -2 -10  -9    1.36    0.80
  -2 -10 -10    0.50    0.64
   2 -11  -6   32.51    2.66
   2 -11  -5    0.35    0.62
   2 -11  -4    0.35    0.59
   2 -11  -2   34.57    2.54
   3   0 -20   -0.20    0.62
  -3   0  19  401.03   10.36
   3   0 -19  386.33   11.10
  -3   0  18    0.29    0.50
  -3   0  18    0.70    0.62
   3   0 -18   -0.18    0.63
  -3   0  17   17.94    1.68
   3   0 -17   16.45    1.83
  -3   0  17   16.77    1.61
  -3   0  16    1.00    0.46
  -3   0  16   -0.12    0.33
   3   0 -16    0.47    0.52
  -3   0  15   24.31    1.81
  -3   0  15   25.32    1.82
   3   0 -15   20.93    1.88
   3   0 -14   -0.05    0.12
  -3   0  14    0.75    0.42
   3   0 -14    0.39    0.49
  -3   0  14    0.31    0.34
  -3   0  13   38.64    2.14
   3   0 -13   39.66    1.05
  -3   0  13   39.14    2.14
   3   0 -12    0.17    0.11
  -3   0  12    0.27    0.28
  -3   0  11  415.95    9.22
  -3   0  11  413.70    9.15
  -3   0  11  407.22    9.08
  -3   0  10   -0.07    0.20
  -3   0  10    0.23    0.24
   3   0 -10   -0.06    0.24
  -3   0   9   21.02    1.30
   3   0  -9   24.36    1.35
   3   0  -9   25.17    1.32
   3   0  -9   21.28    0.72
  -3   0   9   23.33    1.33
  -3   0   8    2.14    0.40
   3   0  -8    1.48    0.35
   3   0  -8   -0.06    0.20
   3   0  -8    0.26    0.13
  -3   0   8    0.30    0.14
  -3   0   8    0.24    0.22
  -3   0   7   79.96    2.50
   3   0  -7   78.14    2.45
   3   0  -7   82.09    2.46
   3   0  -7   79.51    2.03
  -3   0   7   82.11    2.08
  -3   0   7   81.20    2.53
   3   0  -7   79.28    2.44
  -3   0   6    0.23    0.16
   3   0  -6   -0.04    0.15
   3   0  -6   -0.04    0.15
  -3   0   6    0.04    0.17
   3   0  -6    0.13    0.17
   3   0  -6    0.09    0.14
   3   0  -5   11.85    0.74
   3   0  -5   13.28    0.79
  -3   0   5   13.20    0.79
  -3   0   5   11.92    0.76
   3   0  -5   12.25    0.75
   3   0  -5   13.73    0.79
   3   0  -4    0.37    0.10
  -3   0   4    0.18    0.08
  -3   0   4   -0.04    0.18
   3   0  -4    0.34    0.25
  -3   0   4    0.15    0.15
  -3   0   3  109.16    2.35
   3   0  -3  111.64    2.42
  -3   0   3  105.83    2.96
   3   0  -3  111.99    2.98
   3   0  -2    0.65    0.19
  -3   0   2   -0.03    0.14
   3   0  -2    0.15    0.28
   3   0  -1  187.21    4.09
  -3   0   1  185.38    4.04
   3   0  -1  181.13    4.40
  -3   0   1  179.07    4.38
   3   0   0    0.05    0.24
   3   0   0    0.05    0.33
  -3   0   0    0.49    0.36
  -3   0   0    0.02    0.11
   3   0   0    0.40    0.14
   3   0   1  113.06    3.19
  -3   0  -1  118.57    3.30
  -3   0  -1  119.27    2.68
   3   0   2   -0.06    0.21
  -3   0  -2   -0.06    0.27
   3   0   2    0.06    0.29
  -3   0  -2    0.17    0.18
  -3   0  -2    0.29    0.16
  -3   0  -3  250.98    5.79
  -3   0  -3  235.18    5.57
   3   0   3  236.68    5.63
  -3   0  -3  257.12    5.39
  -3   0  -4    0.21    0.28
  -3   0  -4   -0.06    0.22
   3   0   4   -0.06    0.28
  -3   0  -4   -0.05    0.19
  -3   0  -5    1.18    0.40
   3   0   5    2.40    0.53
  -3   0  -5    1.79    0.36
   3   0   5    0.84    0.32
  -3   0  -5    2.11    0.42
  -3   0  -6    0.16    0.35
   3   0   6    0.36    0.35
   3   0   6    0.06    0.24
  -3   0  -6    0.42    0.26
  -3   0  -6    0.52    0.28
  -3   0  -7   88.99    3.18
   3   0   7   91.08    3.43
  -3   0  -7   92.23    2.68
   3   0   7   88.19    2.80
  -3   0  -7   93.76    3.28
  -3   0  -8    0.26    0.33
   3   0   8   -0.10    0.34
   3   0   8   -0.06    0.26
  -3   0  -8    0.10    0.27
  -3   0  -9    3.79    0.69
   3   0   9    4.83    0.57
  -3   0  -9    5.11    0.82
  -3   0 -10    0.65    0.43
   3   0  10    0.11    0.30
   3   0  10   -0.05    0.23
  -3   0 -10    0.12    0.34
   3   0  11    1.87    0.62
   3   0  11    2.41    0.41
   3   0  12    0.48    0.49
   3   0  12    0.20    0.21
   3   0  13   52.93    2.84
   3   0  13   52.58    1.65
   3   0  14    0.13    0.47
   3   0  15   14.49    1.54
   3   0  16   -0.13    0.58
   3   0  17   -0.15    0.55
   3  -1 -20    1.20    0.86
   3   1 -20    0.62    0.66
   3  -1 -19    0.75    0.69
  -3  -1  19    2.09    0.72
   3   1 -19    0.96    0.67
  -3   1  18   21.37    1.90
   3  -1 -18   18.94    2.04
   3   1 -18   19.39    2.02
  -3  -1  18   17.30    1.73
  -3   1  17    0.40    0.38
  -3  -1  17    0.66    0.40
   3  -1 -17   -0.17    0.53
  -3   1  16   80.01    3.54
   3  -1 -16   71.36    3.73
  -3  -1  16   79.83    3.51
  -3   1  15    1.62    0.60
  -3  -1  15    1.03    0.48
  -3   1  14   42.41    2.35
   3  -1 -14   44.75    1.23
  -3  -1  14   40.63    2.29
   3  -1 -14   44.76    2.72
  -3   1  13  198.63    5.60
   3  -1 -13  182.34    5.88
  -3  -1  13  186.15    5.44
  -3  -1  12    1.51    0.51
  -3   1  12    2.27    0.53
  -3  -1  12    2.11    0.28
  -3  -1  12    1.69    0.46
   3  -1 -12    1.81    0.56
  -3  -1  11    5.11    0.38
   3  -1 -11    4.41    0.32
  -3   1  11    5.45    0.76
  -3  -1  11    4.79    0.73
  -3  -1  11    5.24    0.35
   3  -1 -11    5.43    0.84
  -3  -1  11    5.70    0.76
   3  -1 -10   34.49    0.96
  -3  -1  10   34.44    1.05
  -3  -1  10   35.26    1.79
   3  -1 -10   35.89    1.68
  -3   1  10   31.50    1.69
   3  -1 -10   33.67    0.93
  -3  -1  10   33.06    1.20
  -3  -1  10   32.29    1.69
   3  -1 -10   30.53    1.83
  -3  -1   9  129.41    2.75
   3  -1  -9  137.06    2.67
  -3  -1   9  136.23    3.83
   3   1  -9  131.44    3.68
   3  -1  -9  129.98    3.60
   3  -1  -9  132.05    2.92
  -3  -1   9  131.30    3.14
  -3  -1   9  129.73    3.74
  -3  -1   8    0.40    0.12
   3  -1  -8    0.54    0.12
  -3  -1   8    0.37    0.21
   3  -1  -8    0.48    0.25
   3   1  -8    0.72    0.30
  -3  -1   8    1.27    0.28
   3   1  -8    0.75    0.19
   3  -1  -8    0.49    0.20
   3  -1  -8    1.05    0.32
  -3  -1   8    0.53    0.22
   3  -1  -7   12.22    0.45
   3  -1  -7   12.92    0.87
   3   1  -7   12.31    0.85
  -3  -1   7   12.83    0.88
   3   1  -7   11.82    0.65
  -3  -1   7   12.22    0.74
   3  -1  -7   13.04    0.75
   3  -1  -7   11.58    0.89
   3  -1  -7   12.87    0.86
  -3  -1   7   12.42    0.88
  -3  -1   6   86.39    1.79
   3  -1  -6   90.03    1.77
   3  -1  -6   91.78    2.54
  -3  -1   6   91.60    2.59
   3   1  -6   90.57    2.57
   3   1  -6   94.10    2.31
   3  -1  -6   92.87    2.39
  -3  -1   6   89.97    2.44
   3  -1  -6   82.12    2.55
   3  -1  -6   84.16    2.48
   3  -1  -5    4.24    0.24
   3   1  -5    3.71    0.42
   3  -1  -5    4.49    0.46
  -3  -1   5    3.77    0.42
   3  -1  -5    4.03    0.41
   3   1  -5    3.94    0.40
  -3  -1   5    4.69    0.47
   3  -1  -5    4.71    0.46
   3  -1  -5    4.62    0.47
   3  -1  -4   17.42    0.62
  -3  -1   4   19.22    0.93
   3  -1  -4   18.15    0.87
   3   1  -4   17.98    0.90
  -3  -1   4   20.56    1.00
   3  -1  -4   17.86    0.78
  -3   1   3   11.58    0.52
  -3  -1   3   11.10    0.65
   3   1  -3   11.67    0.74
  -3  -1   3   10.12    0.71
   3   1  -3   11.43    0.59
   3  -1  -3   13.22    0.50
  -3  -1   2   17.18    0.77
  -3   1   2   16.15    0.70
   3   1  -2   17.30    0.71
   3  -1  -2   17.64    0.73
   3   1  -2   16.78    0.93
   3  -1  -2   16.82    0.86
  -3  -1   2   15.18    0.70
  -3  -1   1 1135.82   19.45
  -3   1   1 1137.41   19.60
  -3  -1   1 1101.25   19.65
   3  -1  -1 1130.96   19.60
  -3  -1   1 1105.91   20.04
   3  -1  -1 1139.16   19.85
   3   1  -1 1113.21   20.02
   3   1   0    2.03    0.34
   3  -1   0    3.06    0.37
   3  -1   0    2.23    0.37
   3   1   0    3.06    0.45
  -3  -1   0    2.25    0.38
   3   1   0    2.53    0.31
   3   1   1  504.68    9.63
   3  -1   1  498.45    9.42
  -3  -1  -1  494.44    9.62
   3   1   1  489.13    9.23
  -3  -1  -1  472.78    9.16
   3   1   2    1.03    0.29
  -3   1  -2    0.14    0.20
  -3  -1  -2    0.52    0.27
   3  -1   2    0.25    0.20
   3   1   2    0.44    0.25
   3  -1   2    0.22    0.22
  -3  -1  -2    0.16    0.24
  -3  -1  -2    0.56    0.22
   3   1   2    0.26    0.23
  -3  -1  -3    5.83    0.66
  -3   1  -3    5.88    0.61
   3   1   3    4.69    0.55
   3  -1   3    6.42    0.60
  -3  -1  -3    4.86    0.59
  -3  -1  -3    4.27    0.53
   3   1   3    5.01    0.58
  -3   1  -4   10.91    0.88
  -3  -1  -4   10.64    0.93
   3   1   4    9.60    0.76
   3  -1   4   11.91    0.85
  -3  -1  -4   10.32    0.87
   3   1   4   10.83    0.89
  -3  -1  -4    9.80    0.84
  -3   1  -5  209.33    5.26
   3  -1   5  206.76    5.51
   3   1   5  212.24    5.54
  -3  -1  -5  213.04    5.54
   3  -1   5  216.46    5.11
  -3  -1  -5  225.64    5.40
   3   1   5  228.54    5.02
  -3  -1  -5  224.53    5.49
  -3   1  -6   16.46    1.16
  -3  -1  -6   16.10    1.26
   3   1   6   16.80    1.27
   3  -1   6   14.50    1.24
   3  -1   6   16.06    1.08
  -3  -1  -6   14.34    1.08
   3   1   6   14.15    0.94
  -3  -1  -6   15.74    1.21
   3  -1   7  499.12   11.13
  -3  -1  -7  508.42   10.95
   3   1   7  522.03   11.03
  -3   1  -7  508.06   10.52
   3  -1   7  499.94   10.34
   3   1   7  502.74    9.84
  -3  -1  -7  514.00   10.36
  -3  -1  -7  494.16   10.88
  -3  -1  -8  238.59    6.26
  -3   1  -8  231.87    5.82
   3   1   8  224.63    6.14
   3  -1   8  224.54    6.32
   3  -1   8  225.36    5.56
  -3  -1  -8  229.97    5.45
   3   1   8  225.44    5.08
  -3   1  -9   61.49    2.52
   3   1   9   57.28    2.71
   3  -1   9   59.92    2.88
  -3  -1  -9   61.74    2.76
  -3  -1  -9   54.20    2.06
   3   1   9   57.41    1.94
   3  -1   9   58.83    2.29
   3   1  10    0.54    0.41
   3  -1  10    0.48    0.42
   3   1  10    0.84    0.27
   3  -1  10    0.39    0.33
  -3  -1 -10    0.61    0.26
   3  -1  11    1.13    0.60
   3   1  11    1.00    0.52
   3  -1  11    1.56    0.42
   3   1  11    1.25    0.31
   3  -1  12    0.51    0.54
   3   1  12    0.35    0.40
   3  -1  12    0.64    0.34
   3   1  12    0.45    0.24
  -3   1 -12    1.37    0.63
   3  -1  13   34.59    2.32
   3  -1  13   36.29    1.46
   3   1  13   34.57    1.27
  -3   1 -13   38.96    2.61
   3  -1  14  161.29    5.49
  -3   1 -14  150.13    5.75
   3  -1  15   48.53    2.81
  -3   1 -15   50.12    3.26
   3  -1  16   40.67    2.63
  -3   1 -16   48.64    3.29
   3  -1  17   -1.05    0.70
   3   1  17   -0.15    0.55
   3  -1  17   -0.14    0.52
   3  -1  18    0.71    0.67
   3  -2 -20    2.40    0.97
  -3   2  19    1.34    0.67
  -3  -2  19    2.08    0.78
   3  -2 -19    1.90    0.86
  -3   2  18    5.44    0.96
  -3  -2  18    7.02    1.11
   3  -2 -18    4.49    1.09
  -3   2  17    8.26    1.17
   3  -2 -17    6.62    1.22
  -3   2  17    6.16    1.02
  -3  -2  17    9.23    1.18
  -3   2  16   43.28    2.57
  -3  -2  16   46.97    2.66
  -3  -2  16   44.56    1.61
  -3   2  16   47.89    2.66
  -3  -2  16   49.83    2.70
   3  -2 -16   47.92    3.01
  -3  -2  15    8.87    1.14
  -3   2  15   10.88    1.24
  -3  -2  15    8.88    0.69
  -3  -2  15   12.16    1.27
  -3   2  15   12.00    1.26
   3  -2 -15    7.94    1.25
  -3   2  14  145.76    4.73
  -3  -2  14  144.08    4.73
  -3  -2  14  141.08    3.53
   3  -2 -14  133.83    5.06
  -3  -2  14  146.90    4.73
  -3   2  14  141.50    4.68
  -3  -2  13  150.48    3.73
   3  -2 -13  155.94    3.57
  -3  -2  13  150.69    4.77
  -3   2  13  164.21    4.89
  -3  -2  13  150.75    3.31
  -3   2  13  155.56    4.77
  -3  -2  13  158.07    4.82
  -3  -2  12   92.83    2.67
   3  -2 -12   96.04    2.58
  -3  -2  12   91.09    3.39
  -3   2  12   99.42    3.51
  -3  -2  12   98.22    2.48
   3  -2 -12   88.83    3.71
  -3  -2  12   95.46    3.43
  -3   2  12   96.55    3.43
  -3  -2  11   25.27    1.12
   3  -2 -11   22.70    1.06
  -3   2  11   25.75    1.59
  -3   2  11   24.78    1.57
  -3  -2  11   23.12    1.52
   3  -2 -11   23.32    0.94
  -3  -2  11   24.03    1.07
   3  -2 -11   21.04    1.63
  -3   2  11   22.76    1.48
  -3  -2  11   23.24    1.49
  -3  -2  10   33.22    1.25
   3  -2 -10   33.31    1.25
  -3   2  10   31.92    1.72
  -3  -2  10   33.20    1.74
   3   2 -10   34.63    1.66
   3  -2 -10   35.00    1.67
   3  -2 -10   34.19    1.20
  -3  -2  10   33.66    1.33
  -3  -2  10   35.71    1.78
   3  -2 -10   33.64    1.95
  -3   2  10   33.07    1.73
   3  -2  -9   31.60    1.13
  -3   2   9   32.02    1.63
  -3  -2   9   32.08    1.63
   3   2  -9   31.06    1.54
   3   2  -9   28.68    1.45
   3  -2  -9   29.93    1.48
   3  -2  -9   31.45    1.14
  -3  -2   9   31.42    1.29
  -3  -2   9   32.27    1.60
  -3   2   9   31.82    1.60
   3  -2  -9   25.41    1.62
  -3  -2   8   77.73    1.96
  -3   2   8   76.69    2.59
   3   2  -8   76.72    2.50
   3  -2  -8   78.88    2.54
  -3  -2   8   76.61    2.58
   3   2  -8   78.76    2.48
   3  -2  -8   76.03    2.45
  -3  -2   8   81.95    2.33
   3  -2  -8   75.03    2.03
  -3   2   8   73.85    2.53
   3  -2  -8   74.24    2.73
  -3  -2   8   76.57    2.54
  -3   2   7   27.33    1.33
   3   2  -7   29.08    1.35
   3  -2  -7   28.46    1.32
  -3  -2   7   27.33    1.33
  -3  -2   7   27.73    0.98
   3   2  -7   30.33    1.36
   3  -2  -7   29.45    1.35
  -3  -2   7   28.74    1.26
   3   2  -7   28.05    1.30
   3  -2  -7   29.87    1.51
   3  -2  -7   29.29    1.34
   3   2  -6  209.19    4.73
  -3  -2   6  213.72    4.82
  -3   2   6  211.46    4.80
   3   2  -6  220.14    4.81
   3  -2  -6  212.50    4.80
   3  -2  -6  217.32    4.74
   3   2  -6  210.79    4.65
  -3  -2   6  212.29    4.77
   3  -2  -6  211.87    4.94
   3   2  -6  207.14    4.71
   3  -2  -6  216.25    4.76
  -3   2   6  217.16    4.85
   3  -2  -5  235.60    4.70
   3   2  -5  238.33    5.11
   3  -2  -5  235.28    5.11
   3   2  -5  234.27    5.05
   3  -2  -5  239.20    5.07
  -3  -2   5  240.70    5.13
  -3   2   5  243.24    5.14
  -3  -2   5  243.74    5.27
   3   2  -5  238.85    5.15
  -3   2   5  255.93    5.19
   3   2  -5  236.83    5.07
   3  -2  -5  242.27    5.10
   3  -2  -5  251.11    5.19
   3  -2  -4  596.82   10.57
  -3  -2   4  589.63   10.87
  -3   2   4  569.94   10.84
   3   2  -4  593.15   11.07
  -3  -2   4  590.63   11.16
   3   2  -4  590.48   11.07
  -3   2   4  587.77   10.77
   3  -2  -4  581.39   10.83
   3   2  -4  585.70   10.80
   3  -2  -4  591.28   10.74
   3  -2  -3    4.57    0.39
  -3  -2   3    5.16    0.44
  -3   2   3    4.34    0.41
   3   2  -3    4.03    0.47
  -3  -2   3    4.69    0.52
  -3   2   3    4.67    0.38
   3   2  -3    4.96    0.49
   3  -2  -2   13.68    0.72
   3   2  -2   14.35    0.80
  -3   2   2   13.66    0.71
   3   2  -2   13.18    0.85
  -3   2   2   14.40    0.63
  -3  -2   2   13.98    0.82
   3  -2  -2   14.08    0.62
  -3  -2   1  135.32    3.26
   3  -2  -1  134.86    3.14
  -3   2   1  131.99    2.84
  -3   2   1  131.76    3.11
  -3  -2   1  132.62    3.44
   3   2  -1  130.12    3.36
   3  -2   0  178.36    4.02
  -3  -2   0  178.31    4.29
   3   2   0  177.35    4.03
  -3   2   0  175.19    3.71
  -3  -2  -1   52.26    1.93
   3   2   1   52.60    1.82
  -3  -2  -2   96.06    2.81
   3  -2   2   95.50    2.73
  -3   2  -2   95.69    2.69
   3   2   2   97.02    2.76
  -3  -2  -2   92.80    2.81
   3   2   2   96.25    2.81
  -3  -2  -2   93.92    2.80
  -3  -2  -3    2.68    0.46
  -3   2  -3    2.64    0.44
   3   2   3    2.33    0.40
  -3  -2  -3    1.96    0.41
  -3  -2  -3    2.48    0.45
   3   2   3    2.05    0.45
  -3   2  -4  937.78   17.18
  -3  -2  -4  940.05   17.41
   3   2   4  905.03   16.98
  -3  -2  -4  934.42   17.22
   3  -2   4  937.01   16.96
   3   2   4  937.52   17.56
  -3   2  -5   25.42    1.38
  -3  -2  -5   25.60    1.46
   3  -2   5   21.55    1.34
   3  -2   5   25.90    1.26
   3   2   5   24.90    1.24
  -3  -2  -5   24.19    1.33
   3   2   5   25.41    1.54
  -3   2  -6   29.64    1.54
  -3  -2  -6   30.54    1.70
   3  -2   6   29.86    1.68
   3   2   6   28.51    1.34
   3  -2   6   29.65    1.40
  -3  -2  -6   27.38    1.46
   3   2   6   29.43    1.72
   3  -2   7   14.87    1.25
  -3  -2  -7   15.82    1.26
  -3   2  -7   15.01    1.12
   3   2   7   14.36    0.93
  -3  -2  -7   15.36    1.12
   3  -2   7   15.45    1.02
  -3  -2  -8  140.89    4.44
   3  -2   8  142.21    4.61
  -3   2  -8  142.03    4.11
   3  -2   8  142.81    3.81
   3   2   8  137.19    3.54
  -3  -2  -8  133.63    3.98
  -3  -2  -9  348.34    8.38
   3  -2   9  347.25    8.64
  -3   2  -9  344.13    7.82
  -3  -2  -9  345.44    7.77
   3  -2   9  348.77    7.52
   3   2   9  325.43    6.97
   3  -2  10   55.34    2.88
   3  -2  10   58.79    2.31
  -3  -2 -10   52.34    2.22
   3   2  10   55.45    1.91
   3  -2  11   24.10    1.92
  -3  -2 -11   23.61    1.34
   3  -2  11   26.82    1.57
   3   2  11   21.60    1.10
   3  -2  12  497.73   11.75
  -3  -2 -12  469.57    9.55
   3  -2  12  494.33   10.14
   3  -2  13  115.69    4.62
   3  -2  13  111.74    3.39
   3  -2  14    5.44    1.03
   3  -2  15    6.49    1.12
   3  -2  16   50.45    2.94
   3  -2  16   55.50    3.14
  -3   2 -16   59.74    3.64
   3  -2  17   10.60    1.45
   3   2  17    7.43    1.27
   3  -2  17    8.68    1.31
  -3   2 -17   11.06    1.69
   3  -2  18   29.04    2.30
   3  -3 -19   10.03    1.60
  -3  -3  19   11.50    1.46
  -3   3  19   10.45    1.40
  -3   3  18   56.37    3.06
   3  -3 -18   49.71    3.30
  -3  -3  18   55.19    3.02
   3  -3 -17   90.29    4.36
  -3   3  17   83.52    3.74
  -3  -3  17   88.08    3.82
  -3  -3  16    0.74    0.34
   3  -3 -16    0.97    0.63
  -3   3  16    1.71    0.63
  -3  -3  16    0.98    0.51
  -3  -3  15   70.95    2.53
  -3  -3  15   67.90    1.94
   3  -3 -15   66.94    3.51
  -3   3  15   74.70    3.27
  -3  -3  15   74.64    3.26
  -3  -3  14   15.81    1.11
  -3  -3  14   14.08    0.84
   3  -3 -14   15.84    1.62
  -3   3  14   15.39    1.37
  -3  -3  14   15.21    1.37
   3  -3 -13    0.38    0.30
  -3  -3  13    0.41    0.27
   3  -3 -13    0.80    0.22
  -3  -3  13    0.72    0.27
   3  -3 -13    0.36    0.17
   3  -3 -13    0.26    0.46
  -3   3  13    1.17    0.38
  -3  -3  13    0.78    0.37
  -3  -3  12    3.18    0.50
   3  -3 -12    2.82    0.47
  -3  -3  12    3.22    0.47
   3  -3 -12    3.62    0.38
   3  -3 -12    2.76    0.70
  -3   3  12    4.11    0.67
  -3  -3  12    3.03    0.59
  -3  -3  11  100.06    2.84
   3  -3 -11  102.68    2.83
  -3   3  11  103.25    3.52
  -3  -3  11  102.92    3.53
  -3  -3  11  103.40    2.92
   3  -3 -11  103.76    2.56
   3  -3 -11   92.66    3.72
  -3   3  11  100.02    3.43
  -3  -3  11  101.84    3.43
   3   3 -10    1.63    0.39
   3  -3 -10    2.08    0.45
  -3  -3  10    1.33    0.30
  -3   3  10    1.00    0.38
  -3  -3  10    0.93    0.39
  -3  -3  10    1.49    0.36
   3  -3 -10    1.57    0.50
  -3   3  10    1.70    0.41
  -3  -3  10    1.92    0.42
  -3  -3   9  660.88   12.14
  -3  -3   9  639.43   12.90
  -3   3   9  655.67   12.93
   3   3  -9  682.15   12.73
   3  -3  -9  680.06   12.72
  -3  -3   9  642.82   12.52
   3  -3  -9  629.81   13.35
  -3  -3   9  657.50   12.87
  -3   3   9  650.82   12.87
  -3  -3   8  184.84    4.24
   3   3  -8  199.56    4.68
   3  -3  -8  196.69    4.66
  -3   3   8  189.76    4.74
   3   3  -8  190.03    4.63
   3  -3  -8  192.27    4.66
  -3  -3   8  196.47    4.80
  -3  -3   8  189.40    4.64
  -3   3   8  180.34    4.69
  -3   3   8  195.79    4.99
   3  -3  -8  191.65    5.11
   3   3  -7  470.84    9.27
   3  -3  -7  485.91    9.31
  -3   3   7  462.27    9.39
  -3  -3   7  469.52    9.43
   3   3  -7  468.43    9.28
   3  -3  -7  465.21    9.30
  -3  -3   7  473.80    9.51
  -3   3   7  488.91    9.74
   3  -3  -7  466.30    9.75
  -3   3   6    6.88    0.61
   3  -3  -6    6.49    0.58
  -3  -3   6    6.75    0.60
   3   3  -6    8.52    0.65
   3  -3  -6    6.36    0.60
   3   3  -6    6.20    0.57
  -3  -3   6    6.82    0.68
   3   3  -6    6.41    0.56
   3  -3  -6    6.88    0.59
  -3   3   6    6.42    0.66
   3  -3  -6    6.97    0.68
   3   3  -5    0.60    0.28
   3   3  -5    0.12    0.16
   3  -3  -5    0.04    0.15
  -3  -3   5    0.08    0.16
  -3   3   5    0.56    0.20
  -3  -3   5    0.41    0.26
  -3   3   5    0.15    0.22
   3  -3  -5    0.11    0.15
   3   3  -5    0.04    0.15
   3  -3  -5    0.25    0.20
  -3  -3   4   96.37    2.50
  -3   3   4   93.61    2.47
  -3  -3   4  103.92    3.01
  -3   3   4   94.20    2.65
   3   3  -4  102.84    2.97
   3   3  -4   93.87    2.45
   3  -3  -4   98.76    2.50
   3   3  -3    3.82    0.51
   3  -3  -3    3.91    0.42
  -3  -3   3    4.11    0.39
  -3   3   3    4.03    0.39
   3  -3  -3    3.83    0.43
   3   3  -3    2.90    0.45
  -3   3   3    4.15    0.45
   3  -3  -2  171.48    4.00
   3   3  -2  174.12    4.29
   3  -3  -2  174.05    3.91
  -3  -3   2  175.06    4.37
   3  -3  -1 1409.02   24.41
  -3  -3   1 1376.88   24.76
  -3  -3   1 1387.60   24.91
   3   3  -1 1358.00   24.72
   3  -3  -1 1393.34   24.19
  -3  -3   0  129.01    3.62
   3  -3   0  136.80    3.44
  -3  -3   0  139.46    3.76
   3   3   0  138.95    3.61
  -3   3   0  128.42    3.28
   3  -3   1   68.30    2.22
  -3  -3  -1   62.88    2.33
   3   3   1   65.75    2.28
  -3   3  -1   65.58    2.11
   3  -3   2   13.00    0.92
  -3   3  -2   11.98    0.85
   3   3   2   11.20    0.86
  -3  -3  -2   11.82    0.93
   3   3   2   12.31    0.95
  -3   3  -3   40.45    1.72
  -3  -3  -3   45.57    1.92
   3   3   3   40.65    1.74
   3   3   3   43.85    1.94
  -3   3  -4   81.17    2.65
  -3  -3  -4   84.65    2.83
  -3  -3  -4   82.28    2.77
   3   3   4   77.71    2.58
   3   3   4   80.54    2.92
   3  -3   5   45.00    2.01
  -3  -3  -5   46.68    2.08
  -3   3  -5   45.24    1.91
  -3  -3  -5   48.56    2.05
   3   3   5   48.35    1.90
   3   3   5   48.03    2.24
  -3  -3  -6   77.90    2.85
   3  -3   6   79.29    2.88
  -3   3  -6   78.80    2.69
  -3  -3  -6   72.35    2.64
   3   3   6   73.30    2.49
   3   3   6   79.57    3.11
   3  -3   7   35.57    1.92
  -3  -3  -7   35.12    1.90
  -3   3  -7   38.51    1.82
   3   3   7   34.42    1.58
  -3  -3  -7   36.21    1.78
   3  -3   8   10.28    1.07
   3   3   8    9.34    0.79
  -3  -3  -8    9.94    0.93
   3  -3   8   10.16    0.88
   3  -3   9  143.14    4.66
   3  -3   9  143.21    3.85
  -3  -3  -9  129.89    3.98
   3  -3  10    9.19    1.14
  -3  -3 -10    8.54    0.91
   3  -3  10    9.81    0.90
   3  -3  11   56.31    2.98
  -3  -3 -11   49.46    2.26
   3  -3  11   56.24    2.28
   3  -3  12    3.69    0.92
   3  -3  12    2.82    0.60
  -3  -3 -12    3.96    0.67
   3  -3  13   18.88    1.85
   3  -3  13   20.35    1.42
   3  -3  14   15.26    1.71
   3  -3  15   17.15    1.83
  -3  -3 -15   17.94    2.01
   3  -3  16    1.95    0.74
   3   3  16    1.56    0.66
   3  -3  16    1.95    0.82
  -3  -3 -16    2.73    1.00
   3  -3  17  124.36    4.93
   3   3  17  126.29    5.00
   3  -3  17  130.04    5.20
   3  -3  18    9.41    1.41
   3  -4 -19    1.15    0.72
  -3  -4  19   -0.15    0.63
  -3   4  19    0.15    0.59
   3  -4 -18    0.55    0.76
  -3   4  18    1.25    0.73
  -3  -4  18    0.56    0.59
   3  -4 -17    2.42    0.84
  -3   4  17    1.43    0.57
  -3  -4  17    0.91    0.56
  -3  -4  16    0.66    0.40
   3  -4 -16    0.16    0.52
  -3   4  16    0.12    0.43
  -3  -4  16    0.49    0.49
  -3  -4  15   92.09    3.15
  -3  -4  15   91.55    2.74
  -3   4  15   89.48    3.67
  -3  -4  15   87.68    3.62
   3  -4 -15   88.07    4.12
  -3  -4  14   32.71    1.69
  -3  -4  14   35.10    1.59
  -3   4  14   32.48    2.03
  -3  -4  14   32.99    2.03
   3  -4 -14   34.80    2.43
  -3  -4  13    0.20    0.27
  -3  -4  13    0.12    0.30
   3  -4 -13    0.04    0.22
   3  -4 -13    0.13    0.45
  -3   4  13    0.19    0.34
  -3  -4  13    0.68    0.38
   3  -4 -12  128.22    3.53
  -3  -4  12  126.12    3.62
  -3   4  12  122.99    4.04
  -3  -4  12  124.26    4.03
   3  -4 -12  123.25    4.60
  -3  -4  11    4.45    0.58
  -3  -4  11    3.97    0.59
   3  -4 -11    3.19    0.74
  -3  -4  11    4.84    0.67
  -3   4  11    4.25    0.63
  -3  -4  10   79.42    2.51
   3   4 -10   81.90    2.74
   3  -4 -10   74.69    2.64
  -3   4  10   77.21    2.84
  -3  -4  10   78.23    2.88
  -3  -4  10   82.38    2.78
  -3  -4  10   75.49    2.78
  -3   4  10   70.85    2.71
   3  -4 -10   76.87    3.22
   3   4  -9    3.82    0.56
   3  -4  -9    3.02    0.49
  -3   4   9    2.28    0.47
  -3  -4   9    2.16    0.46
  -3  -4   9    2.94    0.46
  -3  -4   9    3.11    0.52
  -3   4   9    2.51    0.57
   3  -4  -9    1.98    0.56
  -3   4   8   36.20    1.66
  -3  -4   8   35.77    1.67
   3   4  -8   37.70    1.62
   3  -4  -8   39.99    1.64
  -3  -4   8   37.16    1.56
  -3  -4   8   39.55    1.84
  -3   4   8   38.11    1.93
   3  -4  -8   35.93    1.92
   3  -4  -7    6.41    0.63
  -3  -4   7    6.48    0.65
   3   4  -7    7.59    0.67
   3  -4  -7    6.72    0.63
  -3   4   7    7.42    0.70
   3   4  -7    8.38    0.70
  -3  -4   7    7.30    0.78
  -3   4   7    6.53    0.77
   3  -4  -7    5.97    0.74
   3   4  -7    7.99    0.90
  -3  -4   6  265.05    5.69
   3   4  -6  267.41    5.62
   3  -4  -6  268.67    5.65
  -3   4   6  263.38    5.67
  -3  -4   6  263.38    6.29
   3   4  -6  259.36    6.39
  -3   4   6  259.33    6.19
   3  -4  -5   27.08    1.17
  -3  -4   5   27.72    1.19
  -3   4   5   27.63    1.19
   3   4  -5   27.65    1.17
  -3  -4   5   29.50    1.59
  -3   4   5   26.16    1.39
   3  -4  -5   28.74    1.18
   3   4  -5   28.23    1.17
   3   4  -5   28.19    1.57
   3   4  -4  183.40    4.01
   3  -4  -4  183.83    4.01
  -3  -4   4  181.77    4.01
  -3   4   4  177.03    4.00
  -3  -4   4  191.83    4.94
   3   4  -4  186.34    3.97
   3  -4  -4  186.02    4.01
   3   4  -4  189.56    4.85
  -3   4   4  193.48    4.59
   3  -4  -3  280.38    6.09
  -3  -4   3  279.35    5.53
  -3   4   3  281.81    5.55
   3   4  -3  288.63    6.50
   3  -4  -3  288.91    6.17
   3   4  -3  267.91    5.50
  -3   4   3  282.88    6.18
   3  -4  -3  278.09    5.52
  -3  -4   2  567.60   10.40
  -3   4   2  571.87   10.41
   3  -4  -2  579.57   11.13
   3  -4  -2  591.44   11.13
  -3  -4   2  561.00   11.62
   3  -4  -1   33.18    1.52
  -3  -4   1   34.19    1.75
   3  -4  -1   34.71    1.51
  -3   4   0  301.12    6.60
   3  -4   0  305.06    6.66
  -3  -4   0  303.65    7.03
  -3   4  -1    1.85    0.43
   3  -4   1    1.90    0.41
  -3  -4  -1    1.22    0.40
   3   4   1    0.84    0.38
   3  -4   2  189.90    4.80
  -3  -4  -2  191.89    5.08
  -3   4  -2  186.10    4.79
   3   4   2  198.69    5.09
  -3   4  -3  342.81    7.53
  -3  -4  -3  349.48    7.92
   3   4   3  360.33    8.02
  -3   4  -4 1002.57   18.89
  -3  -4  -4 1025.02   19.30
   3   4   4 1036.17   19.54
  -3  -4  -5  371.14    8.34
  -3   4  -5  369.32    8.08
  -3  -4  -5  366.06    8.34
   3   4   5  384.53    8.78
   3  -4   6   85.65    3.14
  -3  -4  -6   86.72    3.08
   3  -4   7    0.73    0.39
  -3  -4  -7    0.73    0.42
   3  -4   8   29.35    1.85
  -3  -4  -8   32.15    1.78
   3  -4   9    2.57    0.62
  -3  -4  -9    3.16    0.62
   3  -4  10  179.06    5.57
  -3  -4 -10  172.88    4.91
   3  -4  10  176.06    4.75
   3  -4  11   39.62    2.43
   3  -4  11   37.65    1.84
  -3  -4 -11   37.04    1.96
   3  -4  12   60.31    3.22
   3  -4  12   59.63    2.43
  -3  -4 -12   59.82    2.57
  -3  -4 -12   55.10    3.33
   3  -4  13   89.05    4.09
  -3  -4 -13   83.46    4.27
   3  -4  14    7.12    1.25
  -3  -4 -14    7.21    1.33
   3  -4  15   47.12    2.72
   3   4  15   51.36    2.85
   3  -4  15   51.40    3.21
  -3  -4 -15   46.03    3.27
   3  -4  16    0.27    0.60
   3   4  16    0.28    0.58
   3  -4  16    0.86    0.65
  -3  -4 -16    0.20    0.68
   3  -4  17    3.17    0.91
   3   4  17    4.30    0.97
   3  -4  17    4.80    1.14
   3  -4  18    2.76    0.91
  -3  -5  19   28.14    2.25
  -3   5  18   16.29    1.68
  -3  -5  18   20.33    1.83
   3  -5 -18   14.20    1.84
  -3  -5  17   64.54    3.20
  -3   5  17   68.97    3.32
   3  -5 -17   61.80    3.65
  -3  -5  16   68.97    2.85
  -3   5  16   69.15    3.24
  -3  -5  16   73.11    3.33
   3  -5 -16   70.54    3.80
  -3  -5  15   47.48    2.25
  -3  -5  15   45.21    2.06
  -3   5  15   46.78    2.52
  -3  -5  15   50.09    2.60
   3  -5 -15   44.37    2.90
  -3  -5  14    2.51    0.57
  -3  -5  14    2.45    0.53
  -3   5  14    2.83    0.68
  -3  -5  14    2.93    0.70
   3  -5 -14    2.69    0.81
   3  -5 -13   19.90    1.22
  -3  -5  13   19.51    1.36
  -3  -5  13   18.16    1.45
  -3   5  13   18.66    1.48
   3  -5 -13   16.38    1.65
  -3  -5  12    9.20    0.90
  -3  -5  12   10.90    1.03
  -3   5  12   11.11    1.07
   3  -5 -12    8.34    1.16
  -3  -5  11   20.75    1.31
  -3  -5  11   20.77    1.44
   3  -5 -11   19.16    1.64
  -3  -5  10    4.93    0.66
   3  -5 -10    5.91    0.70
  -3  -5  10    5.37    0.77
   3  -5 -10    4.59    0.83
  -3  -5   9   20.90    1.29
   3  -5  -9   22.01    1.25
   3   5  -9   18.50    1.17
  -3  -5   9   24.21    1.56
   3  -5  -9   21.99    1.65
   3   5  -8  103.07    2.97
   3  -5  -8   97.46    2.89
  -3  -5   8  103.44    3.16
  -3   5   8  102.43    3.09
  -3  -5   8  102.99    3.10
  -3  -5   8   95.97    3.44
  -3   5   8  103.56    3.59
  -3   5   7  125.98    3.40
  -3  -5   7  126.69    3.41
  -3  -5   7  127.99    4.04
  -3   5   7  126.64    4.00
  -3   5   6    1.64    0.31
   3   5  -6    1.93    0.34
  -3  -5   6    1.34    0.29
  -3  -5   6    1.83    0.50
  -3   5   6    0.86    0.36
  -3   5   5  124.37    3.07
  -3  -5   5  120.55    3.04
   3  -5  -5  122.50    3.02
   3   5  -5  121.07    2.99
  -3  -5   5  126.29    4.00
   3   5  -5  126.85    4.00
  -3   5   5  125.23    3.76
   3   5  -4   14.21    1.19
   3  -5  -4   13.21    1.05
  -3  -5   4   12.78    0.72
  -3   5   4   13.97    0.75
   3   5  -4   13.91    0.74
   3  -5  -4   13.48    0.73
  -3  -5   4   14.24    1.19
   3  -5  -4   12.76    0.71
   3   5  -4   14.25    0.73
  -3   5   4   13.04    1.04
   3   5  -3  451.30    8.34
   3  -5  -3  445.69    8.34
  -3  -5   3  446.36    8.34
  -3   5   3  449.17    8.33
   3   5  -3  472.27    9.89
   3  -5  -3  446.20    8.32
   3  -5  -3  458.94    9.48
   3   5  -3  449.56    8.30
  -3   5   3  454.90    9.47
  -3  -5   2   25.87    0.96
  -3   5   2   27.27    0.99
   3  -5  -2   27.39    1.46
   3  -5  -2   26.78    1.47
   3  -5  -2   23.40    0.91
   3  -5  -1  172.88    4.58
  -3  -5   1  176.25    5.00
   3  -5  -1  177.73    4.62
  -3   5   0  115.06    3.56
   3  -5   0  117.71    3.55
  -3  -5   0  118.93    3.89
  -3   5  -1    1.40    0.43
   3  -5   1    2.84    0.52
  -3  -5  -1    1.08    0.41
   3   5   1    3.78    0.67
  -3   5  -2    0.54    0.34
   3  -5   2    0.15    0.22
  -3  -5  -2    0.09    0.29
   3   5   2    0.52    0.37
  -3  -5  -3  525.32   11.30
  -3   5  -3  524.65   11.07
  -3  -5  -4    8.25    0.93
  -3   5  -4    9.32    1.00
   3  -5   5  256.75    6.60
  -3  -5  -5  264.68    6.72
  -3  -5  -6   27.88    1.77
   3  -5   7    8.39    1.00
  -3  -5  -7    9.50    1.04
   3  -5   8   11.26    1.19
  -3  -5  -8   12.37    1.19
   3  -5   9   90.77    3.61
  -3  -5  -9   86.98    3.31
  -3  -5  -9   79.22    3.87
   3  -5  10    3.83    0.82
  -3  -5 -10    4.10    0.73
  -3  -5 -10    5.22    1.12
   3  -5  11  312.67    8.48
  -3  -5 -11  328.90    7.86
  -3  -5 -11  319.07    9.30
   3  -5  12   46.01    2.75
  -3  -5 -12   45.83    2.32
  -3  -5 -12   49.35    3.19
   3  -5  13    8.98    1.33
  -3  -5 -13   12.03    1.66
   3  -5  14   23.37    1.84
   3   5  14   24.67    1.87
   3  -5  14   27.34    2.30
   3  -5  15   58.04    3.00
   3   5  15   58.88    3.05
   3  -5  15   59.24    3.50
  -3  -5 -15   60.67    3.81
   3  -5  16   -0.80    0.66
   3   5  16    0.27    0.64
   3  -5  16    0.36    0.69
   3  -5  17    3.48    1.02
   3  -5  18    8.40    1.49
   3  -6 -17   45.55    3.14
   3  -6 -16   31.13    2.58
  -3  -6  15    9.02    1.06
  -3  -6  15   10.83    1.11
   3  -6 -15   10.10    1.46
  -3  -6  14   61.38    2.64
  -3  -6  14   60.66    2.66
   3  -6 -14   56.90    3.27
  -3  -6  13   -0.09    0.35
  -3  -6  13   -0.10    0.38
   3  -6 -13   -0.24    0.37
   3  -6 -13    0.74    0.58
  -3  -6  12  178.39    4.99
  -3  -6  12  178.55    5.29
   3  -6 -12  175.90    5.94
  -3  -6  11  170.52    4.86
  -3  -6  11  180.96    5.28
  -3  -6  10   54.53    2.37
   3  -6 -10   58.01    2.21
  -3  -6  10   56.13    2.67
  -3  -6   9  162.11    4.71
   3   6  -9  168.14    4.28
   3  -6  -9  173.94    4.27
  -3  -6   9  172.90    5.21
  -3  -6   8   80.02    2.96
  -3  -6   8   88.73    3.44
  -3  -6   7   38.54    2.19
  -3   6   6  125.53    3.19
  -3  -6   6  126.92    3.24
  -3  -6   6  126.72    4.30
   3  -6  -5    0.81    0.38
  -3   6   5    0.90    0.24
  -3  -6   5    0.85    0.24
  -3  -6   5    0.52    0.38
  -3   6   5    0.53    0.42
   3  -6  -4   31.42    1.79
  -3   6   4   30.41    1.12
  -3  -6   4   31.25    1.14
   3   6  -4   30.64    1.10
  -3  -6   4   27.84    1.85
  -3   6   4   30.79    1.79
  -3   6   3   50.44    1.44
  -3  -6   3   54.06    1.49
   3   6  -3   51.95    1.46
   3  -6  -3   50.42    1.45
   3   6  -3   53.28    1.44
   3  -6  -3   52.87    2.38
   3  -6  -2  198.86    3.97
  -3  -6   2  197.90    3.97
  -3   6   2  205.50    3.98
   3   6  -2  201.58    4.00
   3  -6  -2  215.21    5.47
   3  -6  -2  208.49    3.97
   3   6  -2  196.79    3.94
   3  -6  -2  207.24    5.52
  -3   6   1   26.56    0.89
   3  -6  -1   26.80    1.58
  -3  -6   1   25.87    0.87
  -3  -6   1   24.87    1.73
   3  -6  -1   24.78    0.84
   3  -6  -1   26.09    1.62
   3  -6   0  232.08    5.96
  -3  -6   0  232.60    6.37
   3  -6   1   29.44    1.73
  -3   6  -1   30.94    1.81
  -3  -6  -1   32.02    1.97
   3  -6   2    6.64    0.84
  -3  -6  -2    9.78    1.10
  -3  -6  -3   11.99    1.22
  -3  -6  -4    0.11    0.39
   3  -6   5    1.57    0.53
  -3  -6  -5    1.63    0.53
   3  -6   6    3.35    0.71
  -3  -6  -6    3.58    0.75
  -3  -6  -7    5.78    0.91
  -3  -6  -8   48.25    2.52
   3  -6   9    2.38    0.67
  -3  -6  -9    2.65    0.67
  -3  -6  -9    3.12    0.91
   3  -6  10   99.37    4.11
  -3  -6 -10  106.37    3.94
  -3  -6 -10  105.55    4.78
   3  -6  11   27.47    2.08
  -3  -6 -11   29.83    1.95
  -3  -6 -11   22.96    2.26
   3  -6  12   21.61    1.92
   3  -6  12   21.00    1.58
   3   6  12   19.52    1.54
  -3  -6 -12   23.18    1.72
  -3  -6 -12   24.93    2.37
   3  -6  13    1.17    0.51
   3   6  13    1.55    0.59
   3  -6  13    1.06    0.65
  -3  -6 -13    1.18    0.77
   3  -6  14   36.34    2.26
   3   6  14   39.88    2.39
   3  -6  14   39.94    2.81
  -3  -6 -14   42.51    3.20
   3  -6  15    7.40    1.12
   3   6  15    7.68    1.13
   3  -6  15    7.33    1.30
   3   6  16   49.73    2.84
   3  -6  16   42.30    2.60
   3  -6  16   53.07    3.44
   3  -6  16   45.79    2.64
   3  -6  17    6.74    1.34
   3  -7 -16   -0.18    0.68
  -3  -7  15    2.74    0.69
  -3  -7  15    3.35    0.78
  -3  -7  14    0.23    0.52
  -3  -7  13   13.51    1.31
  -3  -7  13   15.59    1.48
  -3  -7  12    8.39    1.02
  -3  -7  12    9.84    1.20
  -3  -7  11  103.10    3.68
  -3  -7  11   97.87    3.93
  -3  -7  10    5.77    0.97
  -3  -7  10    6.78    0.90
  -3  -7   9    0.12    0.39
  -3  -7   9    0.19    0.32
  -3  -7   8   13.88    1.41
  -3  -7   8   10.55    1.07
   3  -7  -7   83.66    3.56
  -3  -7   7   91.75    3.76
   3  -7  -6   66.83    3.01
  -3  -7   6   63.38    3.08
   3  -7  -5  149.56    4.78
  -3  -7   5  137.19    4.85
  -3  -7   4  113.15    4.28
   3  -7  -4  110.14    3.97
   3  -7  -3   60.29    2.66
   3  -7  -3   61.40    2.80
   3  -7  -2    8.37    0.97
  -3  -7   2    7.91    0.36
   3  -7  -2    9.80    1.09
   3  -7  -1   11.43    1.12
   3   7  -1   11.82    0.42
  -3  -7   1   10.61    0.38
  -3  -7   1   10.06    1.21
   3  -7   0   35.21    2.01
  -3  -7   0   33.09    0.83
  -3   7   0   34.06    0.84
   3  -7   0   32.33    0.79
   3   7   0   32.56    0.86
   3  -7   1    7.52    0.96
  -3  -7  -1    5.87    0.98
   3  -7   2  155.61    4.83
  -3  -7  -2  150.33    5.12
  -3  -7  -3   12.37    1.44
  -3  -7  -3   13.80    1.40
  -3  -7  -4   18.91    1.79
  -3  -7  -4   18.12    1.62
  -3  -7  -4   15.96    0.85
  -3   7  -4   15.85    0.85
   3  -7   5   15.89    1.45
  -3  -7  -5   14.56    1.46
  -3   7  -5   15.67    0.90
   3  -7   6   68.42    3.07
  -3  -7  -6   66.82    3.17
   3  -7   7   86.33    3.66
  -3  -7  -7   93.20    3.83
  -3   7  -7   84.22    2.65
  -3  -7  -8   13.01    1.42
   3  -7   8   11.50    0.94
   3  -7   9   33.62    2.25
  -3  -7  -9   33.83    2.24
   3  -7   9   32.98    1.71
   3   7   9   36.86    1.84
   3  -7  10   16.14    1.59
  -3  -7 -10   14.48    1.49
   3  -7  10   14.47    1.17
   3   7  10   15.98    1.26
   3  -7  11   10.99    1.39
  -3  -7 -11    9.43    1.23
   3  -7  11   10.47    1.05
   3   7  11    9.76    1.06
   3  -7  12   13.70    1.25
   3   7  12   13.83    1.30
   3  -7  12   13.14    1.56
   3  -7  13    0.51    0.41
   3   7  13    0.74    0.48
   3  -7  13    0.31    0.63
  -3  -7 -13    0.42    0.67
   3  -7  14   32.30    2.05
   3  -7  14   30.18    2.44
   3   7  14   28.65    2.01
   3  -7  15   55.39    2.83
   3  -7  15   60.85    3.62
   3   7  15   57.55    2.95
   3  -7  16   22.73    1.88
   3   7  16   25.58    2.05
  -3  -8  14    0.91    0.59
  -3  -8  14    0.12    0.44
  -3  -8  13   14.03    1.38
  -3  -8  13   11.39    1.40
   3  -8 -12    0.59    0.48
  -3  -8  12   -0.41    0.51
  -3  -8  12    0.44    0.45
  -3  -8  11    0.14    0.50
  -3  -8  11    0.22    0.43
  -3  -8  10   27.68    1.90
  -3  -8  10   28.96    2.19
   3  -8  -9    9.67    1.32
  -3  -8   9   10.44    1.35
  -3  -8   9    9.57    1.17
   3  -8  -8    0.27    0.47
  -3  -8   8    0.42    0.47
  -3  -8   8    0.65    0.46
   3  -8  -7   12.55    1.42
  -3  -8   7   11.14    1.38
   3  -8  -6   12.37    1.36
  -3  -8   6   11.16    1.38
  -3  -8   5   23.45    1.97
   3  -8  -5   23.65    1.84
   3  -8  -4    0.12    0.40
  -3  -8   4    0.28    0.45
   3  -8  -3    2.03    0.59
   3  -8  -3    2.47    0.68
   3  -8  -2   90.57    3.59
   3  -8  -2   92.30    3.73
   3  -8  -1   53.47    2.68
  -3  -8   1   55.24    3.04
   3  -8   0   19.00    1.58
  -3  -8   0   16.13    1.64
  -3  -8   0   17.50    1.76
   3  -8   1  128.02    4.50
  -3  -8  -1  128.62    4.88
  -3  -8  -1  117.72    4.86
   3  -8   2   31.91    2.09
  -3  -8  -2   32.36    2.31
  -3  -8  -2   34.66    2.48
  -3  -8  -3   14.84    1.69
  -3  -8  -3   12.26    1.45
  -3   8  -3   12.80    0.54
   3  -8   3   12.06    0.47
  -3  -8  -4   12.06    1.53
  -3  -8  -4   10.51    1.37
  -3   8  -4   11.14    0.61
   3  -8   4   11.17    0.57
  -3  -8  -5    2.67    0.88
  -3  -8  -5    2.13    0.69
   3  -8   5    2.08    0.64
   3  -8   5    2.33    0.32
   3  -8   6   34.20    2.24
  -3  -8  -6   34.77    2.40
   3  -8   6   29.79    1.28
   3  -8   7   41.72    2.57
   3  -8   7   37.54    1.57
   3  -8   8   22.60    1.26
  -3  -8  -8   19.84    1.84
   3  -8   9  199.25    5.01
  -3  -8  -9  210.05    6.56
   3  -8  10   25.19    2.07
   3  -8  10   23.03    1.43
  -3  -8 -10   27.68    2.16
   3   8  10   26.05    1.56
   3  -8  11   41.17    2.72
   3  -8  11   38.58    1.94
  -3  -8 -11   42.72    2.68
   3   8  11   38.21    2.00
   3  -8  12    1.89    0.75
   3   8  12    3.28    0.71
   3  -8  13    0.66    0.62
  -3  -9  14   28.54    2.13
  -3  -9  14   25.62    2.16
  -3  -9  13   30.54    2.15
  -3  -9  13   24.03    2.16
  -3  -9  12   57.97    2.98
  -3  -9  12   57.87    3.28
   3  -9 -11    8.75    1.43
   3  -9 -11    7.22    1.18
  -3  -9  11    9.96    1.40
  -3  -9  11    7.19    1.09
   3  -9 -10    7.14    1.26
  -3  -9  10    8.64    1.31
  -3  -9  10    5.58    0.99
   3  -9  -9    7.97    1.27
  -3  -9   9   11.38    1.31
  -3  -9   9    8.70    1.34
   3  -9  -8    5.36    1.07
  -3  -9   8    3.76    0.84
  -3  -9   8    5.24    1.10
  -3  -9   7   50.22    2.76
  -3  -9   7   53.66    3.19
   3  -9  -7   59.82    3.20
  -3  -9   6   35.29    2.58
   3  -9  -6   27.75    2.18
  -3  -9   5   16.99    1.81
   3  -9  -5   17.02    1.68
   3  -9  -4   52.03    2.76
  -3  -9   4   55.40    3.22
   3  -9  -4   50.31    2.87
   3  -9  -3    4.26    0.83
   3  -9  -3    2.14    0.69
   3  -9  -2   52.77    2.79
   3  -9  -1   13.56    1.42
  -3  -9   1   14.01    1.63
  -3  -9   1   13.63    1.68
   3  -9   0   17.47    1.62
  -3  -9   0   20.75    1.95
  -3  -9   0   19.04    1.90
   3  -9   1   54.66    2.91
  -3  -9  -1   58.34    3.30
  -3  -9  -1   48.93    3.14
  -3  -9  -2    3.80    1.03
   3  -9   2    2.84    0.73
  -3  -9  -2    2.56    0.79
  -3  -9  -3   18.66    1.89
  -3  -9  -3   18.46    1.94
  -3  -9  -4   42.52    3.00
  -3  -9  -4   43.60    2.87
  -3  -9  -5    1.11    0.65
  -3  -9  -5    2.40    0.82
   3  -9   5    0.81    0.55
  -3  -9  -6   51.08    3.42
   3  -9   6   56.86    3.09
  -3  -9  -6   56.61    3.27
  -3  -9  -7   18.41    2.10
   3  -9   7   22.57    1.96
  -3  -9  -7   17.65    1.87
  -3  -9  -8    5.24    1.07
   3  -9   8    6.12    1.10
  -3  -9  -9    0.79    0.68
   3  -9  10    1.09    0.56
  -3  -9 -10    0.16    0.55
  -3 -10  12    0.69    0.78
  -3 -10  12    0.96    0.67
   3 -10 -11    2.30    0.86
  -3 -10  11    1.04    0.72
   3 -10 -11    0.95    0.78
  -3 -10  11    2.21    0.76
   3 -10 -10   -0.17    0.65
  -3 -10  10    0.53    0.66
   3 -10 -10    0.63    0.66
  -3 -10  10    0.28    0.52
   3 -10  -9   -0.17    0.56
  -3 -10   9    0.83    0.58
  -3 -10   9    0.35    0.54
  -3 -10   8   48.61    2.82
  -3 -10   8   46.76    3.13
   3 -10  -8   42.95    2.89
   3 -10  -7   -0.16    0.65
  -3 -10   7    0.90    0.72
  -3 -10   7    0.82    0.60
   3 -10  -6    6.87    1.22
   3 -10  -6    5.11    1.05
  -3 -10   6    5.49    1.02
  -3 -10   6    6.28    1.23
   3 -10  -5   34.62    2.38
  -3 -10   5   38.10    2.83
   3 -10  -5   36.61    2.59
   3 -10  -4    0.76    0.61
   3 -10  -4    0.27    0.50
  -3 -10   4    0.18    0.60
   3 -10  -3   15.62    1.59
   3 -10  -2    0.14    0.46
   3 -10  -1    4.76    0.97
  -3 -10   1    3.96    1.03
   3 -10   0   39.82    2.58
  -3 -10   0   34.31    2.71
  -3 -10   0   40.94    2.98
  -3 -10  -1    1.12    0.78
  -3 -10  -1    0.90    0.68
   3 -10   1    0.29    0.50
  -3 -10  -2   -0.19    0.67
   3 -10   2    0.29    0.52
  -3 -10  -2   -0.36    0.72
  -3 -10  -3   52.89    3.35
  -3 -10  -3   55.25    3.59
  -3 -10  -4    6.13    1.36
  -3 -10  -4    7.56    1.39
   3 -10   5   94.18    4.19
  -3 -10  -5   82.97    4.28
  -3 -10  -5   87.22    4.63
  -3 -10  -6   22.10    2.35
   3 -10   6   21.32    1.99
  -3 -10  -6   26.03    2.37
  -3 -10  -7   10.78    1.57
  -3 -10  -8   85.63    4.30
  -3 -10  -9   13.80    1.76
  -3 -10 -10   10.10    1.56
   3 -11  -7    0.17    0.61
   3 -11  -6   11.58    1.58
   3 -11  -5   22.19    2.17
   4   0 -20    7.63    1.42
  -4   0  19    0.15    0.45
   4   0 -19    0.18    0.62
  -4   0  18    1.41    0.68
   4   0 -18    1.55    0.74
  -4   0  17   -0.13    0.53
   4   0 -17    0.16    0.54
  -4   0  16    8.47    1.08
   4   0 -16    9.14    1.31
   4   0 -15    0.14    0.39
  -4   0  15    0.11    0.35
  -4   0  14   57.95    2.83
   4   0 -14   51.70    2.82
  -4   0  14   58.92    2.78
  -4   0  13    0.83    0.41
  -4   0  13    0.59    0.31
  -4   0  12  219.35    5.99
  -4   0  12  222.91    5.92
  -4   0  11    0.35    0.32
   4   0 -11    0.06    0.13
  -4   0  11    0.34    0.27
  -4   0  10   51.80    2.24
   4   0 -10   49.25    1.46
   4   0  -9    0.12    0.22
  -4   0   9    0.07    0.22
   4   0  -9   -0.06    0.21
   4   0  -9    0.30    0.16
   4   0  -9   -0.12    0.22
  -4   0   9    0.42    0.20
   4   0  -8  513.00   10.33
  -4   0   8  515.24   10.41
   4   0  -8  526.30   10.24
   4   0  -8  502.84    9.73
  -4   0   8  516.53    9.81
   4   0  -8  526.24   10.30
   4   0  -7    0.16    0.27
  -4   0   7    0.23    0.21
   4   0  -7   -0.05    0.27
   4   0  -7    0.05    0.19
  -4   0   7    0.09    0.19
   4   0  -7    0.31    0.23
  -4   0   6 1357.39   23.64
  -4   0   6 1284.37   23.61
   4   0  -6 1299.63   23.60
   4   0  -6 1360.65   23.58
  -4   0   5    0.13    0.09
  -4   0   5    0.23    0.21
   4   0  -5    0.17    0.24
  -4   0   5    0.15    0.17
  -4   0   4  562.61   10.11
   4   0  -4  556.13   10.20
  -4   0   4  570.95   11.22
   4   0  -4  563.22   11.16
  -4   0   4  586.24   10.75
   4   0  -3    0.01    0.07
  -4   0   3    0.48    0.18
   4   0  -3   -0.04    0.14
  -4   0   3    0.19    0.23
   4   0  -3   -0.06    0.26
  -4   0   2 1356.79   24.22
   4   0  -2 1423.57   24.37
   4   0  -2 1365.52   24.99
  -4   0   1    0.39    0.29
   4   0  -1    0.21    0.23
  -4   0   1    0.14    0.27
   4   0  -1    0.41    0.34
   4   0  -1    0.49    0.13
   4   0   0 3716.85   61.69
  -4   0   0 3625.72   61.99
   4   0   0 3550.04   61.95
  -4   0   0 3565.00   60.44
   4   0   1   -0.20    0.28
  -4   0  -1    0.15    0.27
  -4   0  -1    0.35    0.16
   4   0   2 1121.25   20.45
  -4   0  -2 1074.24   20.25
  -4   0  -2 1087.27   20.37
   4   0   2 1082.29   20.40
  -4   0  -2 1104.27   19.45
  -4   0  -3    0.15    0.28
   4   0   3    0.25    0.29
   4   0   3    0.22    0.30
  -4   0  -3    0.07    0.25
  -4   0  -3    0.05    0.16
  -4   0  -4   72.38    2.75
  -4   0  -4   65.46    2.54
   4   0   4   66.52    2.61
  -4   0  -4   73.59    2.47
  -4   0  -5    0.51    0.34
   4   0   5   -0.08    0.28
  -4   0  -5   -0.07    0.26
  -4   0  -5   -0.07    0.25
  -4   0  -6 1421.69   26.48
   4   0   6 1429.05   26.89
  -4   0  -6 1418.00   25.89
   4   0   6 1425.12   26.00
  -4   0  -6 1457.01   26.24
   4   0   7    0.11    0.35
  -4   0  -7    0.28    0.39
   4   0   7    0.15    0.30
  -4   0  -7    1.17    0.42
  -4   0  -7    0.13    0.22
  -4   0  -8    1.18    0.41
   4   0   8    0.93    0.47
   4   0   8    0.36    0.30
  -4   0  -8    1.60    0.50
   4   0   9    0.12    0.48
   4   0   9    0.35    0.29
  -4   0  -9    0.22    0.36
   4   0  10  100.04    4.06
   4   0  10  102.06    3.15
  -4   0 -10  103.07    4.08
   4   0  11    0.40    0.44
   4   0  11    0.68    0.30
  -4   0 -11    0.94    0.62
   4   0  12   51.67    2.91
   4   0  12   45.53    1.85
  -4   0 -12   51.56    3.02
   4   0  13    0.14    0.46
   4   0  13    0.05    0.27
  -4   0 -13    0.31    0.67
   4   0  14   15.40    1.65
  -4   0 -14   15.33    1.77
   4   0  15   -0.15    0.54
  -4   0 -15    0.18    0.54
   4   0  16  108.40    4.59
  -4   0 -16  116.83    5.26
  -4   0 -17   -0.20    0.76
   4  -1 -20   14.39    1.83
   4   1 -20   19.07    2.12
   4  -1 -19   51.65    3.34
  -4  -1  19   56.19    3.17
   4   1 -19   57.33    3.53
   4   1 -18   -0.34    0.54
   4  -1 -18    0.67    0.64
  -4  -1  18    0.56    0.62
  -4  -1  17   79.72    3.60
   4  -1 -17   68.77    3.68
  -4  -1  16   19.76    1.67
   4  -1 -16   18.44    1.79
  -4  -1  15   43.14    2.43
   4  -1 -15   39.28    2.56
  -4  -1  14    3.73    0.75
  -4  -1  14    4.16    0.74
   4  -1 -14    3.89    0.83
  -4  -1  13  189.75    5.61
  -4  -1  13  187.59    5.44
   4  -1 -13  182.28    5.69
  -4  -1  12    8.50    0.96
  -4  -1  12   11.08    0.59
   4  -1 -12   10.36    0.43
  -4  -1  12   10.23    1.04
   4  -1 -12   11.70    1.20
  -4  -1  11  131.90    4.11
  -4  -1  11  127.52    3.16
   4  -1 -11  130.97    2.88
   4  -1 -11  125.66    4.19
  -4  -1  11  131.73    4.06
  -4  -1  10   16.83    1.24
   4   1 -10   14.20    0.75
  -4  -1  10   16.30    0.98
   4  -1 -10   16.65    0.86
   4  -1 -10   14.73    1.21
   4  -1  -9   10.58    0.88
  -4  -1   9    8.40    0.84
   4   1  -9    8.35    0.81
  -4  -1   9    9.66    0.78
   4   1  -9    9.00    0.61
   4  -1  -9    9.35    0.72
   4   1  -9    7.29    0.73
   4  -1  -9    8.23    0.84
   4  -1  -9    9.08    0.82
  -4  -1   8  118.22    3.43
   4  -1  -8  116.35    3.30
   4   1  -8  120.58    3.38
   4  -1  -8  114.06    3.17
  -4  -1   8  118.34    3.26
   4   1  -8  114.21    2.91
   4  -1  -8  118.57    3.35
   4  -1  -8  109.19    3.33
  -4  -1   7  480.72    8.25
  -4  -1   7  471.73    8.17
   4   1  -7  479.36    9.47
   4  -1  -7  484.98    9.45
  -4  -1   7  480.21    9.53
   4   1  -7  470.33    9.11
   4  -1  -7  465.92    9.45
  -4  -1   7  469.82    9.53
   4  -1  -7  481.40    9.44
   4  -1  -7  450.62    9.36
   4  -1  -6  107.63    2.21
  -4  -1   6  107.98    2.27
  -4  -1   6  109.52    3.03
   4  -1  -6  108.82    3.07
   4   1  -6  106.33    2.89
  -4  -1   6  105.19    3.09
   4  -1  -6  106.15    2.96
   4  -1  -6  107.60    2.84
  -4  -1   5  344.70    6.43
   4  -1  -5  346.72    6.36
  -4  -1   5  359.49    7.18
   4  -1  -5  353.31    7.27
   4   1  -5  350.49    7.18
  -4  -1   5  339.95    7.37
   4  -1  -5  340.23    6.63
   4  -1  -4   32.47    1.09
  -4   1   4   33.75    1.06
  -4  -1   4   34.56    1.15
  -4  -1   4   33.87    1.38
   4   1  -4   35.36    1.52
   4  -1  -4   35.38    1.52
  -4  -1   4   30.66    1.49
   4  -1  -4   34.19    0.99
   4   1  -4   33.32    1.17
  -4   1   3   84.32    2.13
   4   1  -3   86.16    2.09
  -4  -1   3   86.35    2.25
   4  -1  -3   85.18    2.19
   4  -1  -3   87.98    2.63
   4   1  -3   88.26    2.70
  -4   1   3   89.10    2.64
  -4  -1   3   81.73    2.69
   4  -1  -2  160.25    3.64
  -4  -1   2  160.58    3.70
  -4   1   2  161.11    3.61
   4  -1  -2  157.10    4.00
   4   1  -2  158.12    4.12
  -4  -1   2  158.17    3.41
   4   1  -1  448.83    8.80
   4  -1  -1  439.00    8.63
  -4  -1   1  441.94    8.70
   4  -1  -1  463.99    9.00
   4   1  -1  451.23    9.12
  -4   1   1  435.16    8.99
  -4  -1   1  441.02    9.20
   4   1  -1  437.78    8.17
   4  -1   0    3.00    0.44
   4   1   0    3.65    0.50
  -4  -1   0    3.26    0.51
  -4   1   0    4.09    0.54
   4  -1   0    3.88    0.53
   4   1   0    3.33    0.37
  -4  -1   0    3.18    0.36
   4  -1   1  631.28   12.22
   4   1   1  626.29   12.38
  -4   1  -1  636.88   12.28
  -4  -1  -1  633.26   12.58
   4   1   1  642.68   11.79
  -4  -1  -1  622.60   11.68
  -4  -1  -2   10.58    0.92
   4   1   2   10.57    0.94
  -4   1  -2    9.49    0.83
   4  -1   2   10.35    0.91
   4  -1   2   11.70    0.93
   4   1   2    9.87    0.88
  -4  -1  -2   10.62    0.95
  -4  -1  -2   13.90    0.87
   4   1   2   10.40    0.80
  -4   1  -3  108.42    3.30
   4   1   3  104.40    3.46
  -4  -1  -3  104.43    3.39
   4  -1   3  101.35    3.40
  -4  -1  -3  108.94    3.51
   4   1   3  102.62    3.23
   4  -1   3  104.56    3.23
  -4  -1  -3  109.19    3.13
   4   1   3  109.68    3.16
  -4   1  -4  134.95    4.00
  -4  -1  -4  138.98    4.23
   4  -1   4  142.81    4.03
  -4  -1  -4  141.08    4.25
   4   1   4  139.56    3.93
  -4  -1  -4  151.28    4.05
  -4  -1  -5  781.32   15.53
  -4  -1  -5  766.62   15.37
   4  -1   5  788.97   15.14
   4   1   5  776.25   14.85
  -4  -1  -5  806.53   15.19
  -4  -1  -6    3.77    0.72
   4   1   6    4.34    0.75
  -4   1  -6    3.90    0.64
   4  -1   6    4.23    0.74
   4  -1   6    4.23    0.71
   4   1   6    3.61    0.58
  -4  -1  -6    4.31    0.67
  -4  -1  -6    4.33    0.69
  -4   1  -7  117.94    3.90
   4  -1   7  123.89    4.39
   4   1   7  121.13    4.28
  -4  -1  -7  124.46    4.24
   4  -1   7  119.38    3.86
   4   1   7  126.89    3.62
  -4  -1  -7  122.00    3.86
  -4  -1  -7  130.55    4.19
   4   1   8   79.28    3.42
   4  -1   8   86.68    3.62
  -4  -1  -8   77.84    2.90
   4   1   8   76.72    2.65
   4  -1   8   86.79    3.08
  -4  -1  -8   84.59    3.38
   4  -1   9   12.14    1.34
   4   1   9   12.89    1.33
  -4  -1  -9   11.53    0.99
   4   1   9   12.91    0.97
   4  -1   9   10.24    1.01
  -4  -1  -9   10.14    1.17
   4   1  10   76.35    3.41
   4  -1  10   74.48    3.50
  -4  -1 -10   73.30    2.59
   4   1  10   69.78    2.41
   4  -1  10   73.23    2.76
  -4  -1 -10   68.19    3.28
  -4   1 -10   71.79    3.28
   4   1  11  611.59   13.58
   4  -1  11  610.57   13.82
   4   1  11  583.69   11.62
   4  -1  11  599.54   12.13
  -4  -1 -11  606.98   13.75
  -4   1 -11  627.12   13.68
   4   1  12   36.87    2.40
   4  -1  12   41.82    2.64
   4  -1  12   38.15    1.80
   4   1  12   35.97    1.56
  -4   1 -12   39.24    2.55
  -4  -1 -12   35.89    2.49
   4  -1  13   79.36    3.79
  -4  -1 -13   70.90    3.75
  -4   1 -13   71.48    3.69
   4  -1  14   71.50    3.64
  -4  -1 -14   72.49    3.88
  -4   1 -14   77.83    3.98
   4  -1  15   38.18    2.63
  -4  -1 -15   32.80    2.67
  -4   1 -15   38.39    2.86
   4  -1  16    1.26    0.73
  -4  -1 -16    0.77    0.67
  -4   1 -16    1.36    0.74
   4  -1  17    8.73    1.37
  -4   1 -17    4.96    1.24
  -4  -1 -17    7.30    1.44
   4  -1  18    8.26    1.34
   4  -2 -20    0.57    0.69
   4  -2 -19   -0.18    0.57
  -4   2  19   -0.15    0.58
  -4  -2  19    0.45    0.60
   4  -2 -18  147.20    5.78
  -4   2  18  148.33    5.36
  -4  -2  18  157.50    5.47
   4  -2 -17  125.13    5.10
  -4  -2  17  130.20    4.79
  -4   2  17  123.08    4.69
   4  -2 -16    0.90    0.55
  -4   2  16    1.96    0.60
  -4  -2  16    1.23    0.50
   4  -2 -15  108.22    4.45
  -4  -2  15  111.64    4.15
  -4   2  15  107.24    4.06
  -4  -2  14   39.29    1.16
  -4  -2  14   38.80    1.26
   4  -2 -14   39.24    2.45
  -4   2  14   39.65    2.24
  -4  -2  14   40.56    2.27
   4  -2 -13   48.91    1.27
  -4  -2  13   54.08    1.49
  -4   2  13   51.03    2.54
  -4  -2  13   50.61    2.56
  -4  -2  13   50.60    1.77
   4  -2 -13   47.27    1.24
   4  -2 -13   51.07    2.71
  -4   2  13   48.72    2.43
  -4  -2  13   53.03    2.53
  -4  -2  12    9.28    0.59
   4  -2 -12   10.51    0.54
  -4   2  12   10.27    1.05
  -4  -2  12   10.59    1.08
   4  -2 -12    9.32    0.63
  -4  -2  12    8.25    0.72
   4  -2 -12    8.36    1.04
  -4   2  12    7.69    0.93
  -4  -2  12   10.80    1.08
  -4  -2  11    5.85    0.44
   4  -2 -11    5.82    0.43
  -4   2  11    4.86    0.71
  -4  -2  11    4.79    0.72
   4  -2 -11    5.53    0.56
  -4  -2  11    6.32    0.64
   4  -2 -11    5.18    0.80
  -4   2  11    6.47    0.83
   4  -2 -10   43.66    1.28
  -4  -2  10   43.98    1.30
   4  -2 -10   45.12    1.18
  -4  -2  10   44.02    2.06
  -4   2  10   41.24    2.02
   4  -2 -10   43.37    1.64
  -4  -2  10   41.89    1.71
   4  -2 -10   45.02    2.19
  -4  -2   9  394.55    7.22
   4  -2  -9  392.52    7.09
   4   2  -9  390.58    8.27
  -4   2   9  389.05    8.46
   4   2  -9  391.10    8.32
   4  -2  -9  390.54    8.36
   4  -2  -9  404.72    8.32
  -4  -2   9  377.80    8.44
   4  -2  -9  391.34    7.81
  -4  -2   9  407.10    8.03
   4  -2  -9  376.13    8.57
   4  -2  -8   12.26    0.56
   4   2  -8   11.53    0.88
   4  -2  -8   11.59    0.89
  -4  -2   8   11.12    0.90
  -4   2   8    9.62    0.84
   4  -2  -8   10.65    0.87
   4   2  -8   11.05    0.88
  -4  -2   8   10.76    0.55
   4  -2  -8   11.73    0.78
  -4  -2   8   11.07    0.84
   4   2  -8   11.97    0.80
   4  -2  -8   11.77    0.95
   4   2  -8   13.00    0.93
   4  -2  -8   12.67    0.93
   4  -2  -7   10.67    0.54
   4   2  -7   11.63    0.85
   4  -2  -7   10.70    0.82
  -4  -2   7    8.49    0.74
  -4   2   7   10.53    0.83
   4   2  -7   10.80    0.80
   4  -2  -7   10.10    0.79
   4   2  -7   11.41    0.80
   4  -2  -7   10.45    0.73
  -4  -2   7   10.13    0.82
   4  -2  -7   10.12    0.80
   4  -2  -7    9.63    0.77
   4   2  -7   10.09    0.78
   4  -2  -6  134.01    2.88
   4  -2  -6  123.64    3.39
  -4  -2   6  131.39    3.46
  -4   2   6  130.82    3.45
   4   2  -6  132.08    3.42
   4   2  -6  129.19    3.40
   4  -2  -6  135.01    3.33
  -4  -2   6  134.25    3.57
   4  -2  -6  128.71    3.39
   4   2  -6  124.25    3.34
   4  -2  -6  131.61    3.28
   4  -2  -5   14.16    0.69
  -4  -2   5   12.58    0.85
  -4   2   5   12.41    0.84
   4   2  -5   12.88    0.89
   4  -2  -5   13.78    0.85
  -4  -2   5   14.46    0.97
   4  -2  -5   13.35    0.85
   4   2  -5   14.89    0.90
   4   2  -5   12.92    0.83
  -4   2   5   15.76    0.77
   4  -2  -5   14.17    0.75
   4  -2  -4  114.57    2.72
  -4  -2   4  110.80    2.98
  -4   2   4  114.66    3.02
  -4  -2   4  110.03    3.24
   4  -2  -4  115.91    3.05
   4   2  -4  113.92    3.18
  -4   2   4  117.32    2.61
   4   2  -4  116.44    2.99
   4   2  -3   13.94    0.82
   4  -2  -3   15.05    0.61
   4  -2  -3   14.11    0.77
  -4   2   3   13.30    0.74
   4   2  -3   15.97    1.01
   4  -2  -3   14.79    0.91
  -4   2   3   14.45    0.61
  -4   2   2   33.58    1.29
   4  -2  -2   33.38    1.43
   4   2  -2   32.37    1.53
  -4  -2   2   35.37    1.39
  -4   2   1  101.28    2.77
  -4   2   1  106.48    2.34
  -4  -2   1  101.59    2.77
  -4  -2   1  103.02    2.88
   4  -2  -1  102.44    2.77
   4   2  -1  108.09    3.12
  -4  -2   1  103.11    3.15
   4  -2  -1  101.59    2.93
   4   2  -1  111.14    2.80
   4  -2   0  384.21    7.67
  -4   2   0  357.77    7.57
   4  -2   0  381.92    7.78
  -4  -2   0  387.77    8.12
   4   2   0  380.25    7.59
   4  -2   1   42.73    1.73
  -4  -2  -1   42.53    1.89
   4   2   1   42.01    1.66
  -4  -2  -1   43.50    1.70
  -4   2  -2   49.86    1.94
   4  -2   2   52.30    2.02
  -4  -2  -2   48.32    2.00
   4   2   2   48.35    1.98
   4  -2   2   46.43    1.87
  -4  -2  -2   49.48    2.08
   4   2   2   51.58    1.99
  -4  -2  -2   47.54    1.91
  -4  -2  -3   19.46    1.26
   4  -2   3   19.19    1.23
  -4   2  -3   19.58    1.22
   4   2   3   19.74    1.22
   4  -2   3   20.33    1.18
  -4  -2  -3   18.55    1.26
   4   2   3   21.11    1.27
  -4  -2  -3   17.55    1.18
  -4  -2  -4    5.59    0.72
  -4   2  -4    5.00    0.65
   4   2   4    4.04    0.59
   4  -2   4    5.34    0.62
  -4  -2  -4    5.32    0.69
  -4  -2  -4    4.61    0.65
   4   2   4    5.19    0.71
  -4  -2  -5   22.50    1.51
  -4   2  -5   20.47    1.35
   4  -2   5   22.04    1.30
   4   2   5   19.91    1.23
  -4  -2  -5   21.97    1.43
  -4  -2  -5   21.14    1.43
   4   2   5   20.30    1.44
  -4  -2  -6  893.39   17.81
  -4   2  -6  918.85   17.57
   4  -2   6  942.04   18.08
   4  -2   6  912.31   17.25
   4   2   6  876.79   17.05
  -4  -2  -6  904.28   17.61
  -4  -2  -6  932.93   17.96
   4   2   6  952.02   17.93
  -4  -2  -7  132.42    4.36
  -4   2  -7  135.95    4.16
   4  -2   7  135.36    4.55
  -4  -2  -7  134.35    4.22
   4  -2   7  134.10    3.93
   4   2   7  129.03    3.71
  -4  -2  -7  137.07    4.49
   4  -2   8   92.18    3.78
  -4  -2  -8   88.96    3.37
   4   2   8   97.05    2.98
   4  -2   8   96.33    3.23
  -4  -2  -8   94.95    3.77
   4  -2   9   85.97    3.78
  -4  -2  -9   85.80    3.21
   4   2   9   83.91    2.72
   4  -2   9   89.61    3.16
  -4  -2  -9   82.22    3.63
   4  -2  10  234.57    7.13
  -4  -2 -10  236.21    6.07
   4   2  10  230.63    5.46
   4  -2  10  242.54    6.21
  -4  -2 -10  247.57    7.16
   4  -2  11   36.72    2.49
   4  -2  11   36.25    1.98
  -4  -2 -11   34.13    1.79
   4   2  11   29.97    1.47
  -4  -2 -11   33.11    2.37
   4  -2  12    0.30    0.52
   4  -2  12    0.17    0.43
   4   2  12    0.16    0.29
  -4  -2 -12    0.27    0.31
  -4  -2 -12   -0.16    0.52
   4  -2  13   40.89    2.74
  -4  -2 -13   35.57    2.64
   4  -2  14   11.84    1.55
  -4   2 -14   10.66    1.51
  -4  -2 -14   10.79    1.53
   4  -2  15   95.41    4.40
  -4   2 -15   97.73    4.68
  -4  -2 -15   98.22    4.74
   4  -2  16    0.33    0.64
  -4  -2 -16    0.99    0.75
  -4   2 -16   -0.19    0.62
   4  -2  17   23.07    2.20
   4  -2  18   18.27    1.96
   4  -3 -20    1.68    0.84
   4  -3 -19   -0.36    0.67
  -4  -3  19    0.15    0.73
  -4   3  19   -0.30    0.66
   4  -3 -18   24.37    2.28
  -4  -3  18   26.55    2.09
  -4   3  18   24.14    2.00
   4  -3 -17    3.85    1.00
  -4   3  17    5.01    0.90
  -4  -3  17    5.87    0.98
   4  -3 -16    1.36    0.63
  -4   3  16    1.11    0.56
  -4  -3  16    0.62    0.47
  -4  -3  15   15.93    0.96
  -4  -3  15   14.02    0.90
   4  -3 -15   14.06    1.56
  -4  -3  15   18.18    1.55
  -4   3  15   14.66    1.39
  -4  -3  14   62.66    2.12
  -4  -3  14   66.70    2.20
  -4   3  14   60.23    2.85
   4  -3 -14   65.73    3.23
  -4  -3  14   65.95    2.99
  -4  -3  13   60.84    1.98
   4  -3 -13   58.01    1.90
  -4   3  13   58.79    2.77
  -4  -3  13   58.71    2.76
  -4  -3  13   58.24    2.10
   4  -3 -13   60.67    2.98
  -4   3  13   58.32    2.70
   4  -3 -12  150.00    3.60
  -4  -3  12  159.15    3.72
  -4   3  12  149.59    4.67
  -4  -3  12  151.90    4.72
  -4  -3  12  158.95    4.04
   4  -3 -12  152.94    3.68
   4  -3 -12  153.99    4.96
   4  -3 -11    7.74    0.60
  -4   3  11    6.98    0.85
  -4  -3  11    8.84    0.95
   4  -3 -11    9.12    0.68
  -4  -3  11    7.37    0.74
   4  -3 -11    8.86    1.02
  -4  -3  10  188.78    4.14
  -4   3  10  185.91    5.02
  -4  -3  10  179.47    4.98
   4  -3 -10  189.62    4.28
  -4  -3  10  187.92    4.69
   4  -3 -10  179.23    5.16
  -4  -3   9    3.56    0.42
   4   3  -9    3.18    0.53
   4  -3  -9    3.86    0.57
  -4  -3   9    4.16    0.62
  -4   3   9    3.57    0.58
   4   3  -9    3.94    0.58
   4  -3  -9    3.62    0.57
  -4  -3   9    3.26    0.52
   4  -3  -9    3.92    0.63
   4  -3  -9    3.64    0.47
  -4  -3   8    5.85    0.66
   4  -3  -8    5.85    0.65
   4   3  -8    5.17    0.60
   4  -3  -8    7.20    0.72
  -4   3   8    6.27    0.68
   4   3  -8    6.37    0.66
  -4  -3   8    7.72    0.77
   4  -3  -8    6.49    0.67
   4   3  -8    7.40    0.70
   4  -3  -8    5.87    0.68
   4  -3  -7   29.56    1.18
  -4  -3   7   28.76    1.45
  -4   3   7   30.09    1.46
   4   3  -7   31.97    1.46
   4  -3  -7   28.87    1.42
  -4  -3   7   31.02    1.57
   4  -3  -7   30.80    1.43
   4   3  -7   31.18    1.43
   4  -3  -7   29.91    1.46
   4   3  -6   33.67    1.46
   4  -3  -6   34.44    1.48
  -4  -3   6   34.17    1.49
  -4   3   6   34.23    1.49
   4  -3  -6   35.28    1.31
   4   3  -6   34.50    1.59
  -4  -3   6   39.41    1.77
   4   3  -6   34.99    1.65
   4  -3  -6   34.72    1.45
   4   3  -6   34.73    1.45
  -4   3   6   36.24    1.53
   4  -3  -6   34.46    1.48
   4  -3  -5  498.29    9.30
  -4  -3   5  472.48    9.44
  -4   3   5  487.71    9.48
   4   3  -5  483.02    9.84
  -4  -3   5  483.34   10.01
  -4   3   5  503.85    9.41
   4   3  -5  505.63    9.87
   4  -3  -5  484.27    9.41
   4   3  -5  469.55    9.37
   4  -3  -4   99.01    2.65
   4   3  -4   97.76    2.92
  -4   3   4   98.53    2.70
  -4  -3   4   95.07    2.67
   4   3  -4   99.50    3.02
  -4  -3   4  100.17    3.16
  -4   3   4   94.95    2.56
   4   3  -3  245.84    5.63
   4  -3  -3  260.55    5.44
   4   3  -3  246.27    5.80
  -4  -3   3  250.94    5.81
   4  -3  -3  250.75    5.13
  -4   3   3  249.44    5.17
   4  -3  -2  318.86    6.59
   4   3  -2  308.96    6.96
   4  -3  -2  314.72    6.19
  -4  -3   2  316.86    6.91
   4  -3  -1   15.47    0.96
  -4  -3   1   16.60    1.08
  -4   3   1   14.77    0.81
  -4   3   1   14.73    0.93
   4   3  -1   15.41    1.07
  -4  -3   1   15.40    1.14
   4  -3   0  155.86    3.96
  -4   3   0  144.98    3.81
  -4  -3   0  149.10    4.23
  -4   3   0  148.77    3.58
   4   3   0  158.53    4.00
  -4  -3  -1  118.21    3.61
  -4   3  -1  112.05    3.03
   4   3   1  116.36    3.36
   4  -3   2  240.15    5.71
  -4  -3  -2  242.33    5.81
   4   3   2  229.54    5.73
  -4  -3  -2  249.30    6.03
   4   3   2  249.10    5.82
   4  -3   3  130.41    3.90
  -4   3  -3  134.38    3.82
  -4  -3  -3  140.97    4.02
   4   3   3  139.87    3.91
  -4  -3  -3  136.94    4.06
   4   3   3  144.23    4.11
  -4  -3  -3  133.26    4.05
  -4   3  -4  116.48    3.53
  -4  -3  -4  116.59    3.67
   4   3   4  115.03    3.49
  -4  -3  -4  116.33    3.69
   4   3   4  125.30    3.86
  -4  -3  -4  114.68    3.78
  -4   3  -5  287.15    6.81
  -4  -3  -5  296.29    7.11
   4   3   5  282.37    6.66
  -4  -3  -5  287.12    6.99
   4  -3   5  311.22    6.76
   4   3   5  300.99    7.28
  -4  -3  -5  299.22    7.37
   4  -3   6   12.44    1.14
   4  -3   6   11.52    0.96
  -4  -3  -6    9.87    0.99
   4   3   6   10.47    0.92
   4   3   6   10.71    1.14
  -4  -3  -6    7.66    1.00
   4  -3   7  216.97    6.04
   4  -3   7  219.80    5.43
  -4  -3  -7  212.96    5.73
   4   3   7  212.11    5.27
  -4  -3  -7  213.72    6.21
   4  -3   8   32.80    2.09
   4   3   8   34.71    1.67
   4  -3   8   34.06    1.74
  -4  -3  -8   34.74    1.93
  -4  -3  -8   34.32    2.21
   4  -3   9   81.27    3.54
   4   3   9   72.33    2.56
   4  -3   9   74.60    2.76
  -4  -3  -9   68.30    2.90
  -4  -3  -9   73.49    3.45
   4  -3  10   43.29    2.64
  -4  -3 -10   36.01    2.06
   4   3  10   39.42    1.77
   4  -3  10   44.18    2.09
  -4  -3 -10   37.74    2.50
   4  -3  11    6.64    1.15
   4  -3  11    4.64    0.77
  -4  -3 -11    5.93    0.87
  -4  -3 -11    6.10    1.12
   4  -3  12   20.02    1.91
   4  -3  12   16.27    1.39
  -4  -3 -12   15.63    1.30
  -4  -3 -12   15.35    1.70
   4  -3  13    2.13    0.78
   4  -3  14    0.67    0.68
   4  -3  15   14.91    1.77
   4  -3  16    0.17    0.64
   4  -3  17   18.27    1.95
   4  -3  18   -0.17    0.63
   4  -4 -19    3.58    0.99
   4  -4 -18   32.03    2.56
   4  -4 -17   74.05    3.84
   4  -4 -16    7.31    1.21
  -4  -4  15   82.16    2.75
  -4  -4  15   83.91    2.74
   4  -4 -15   89.31    3.96
  -4  -4  14  124.50    3.54
  -4  -4  14  126.28    3.64
   4  -4 -14  124.78    4.72
  -4  -4  13   10.03    0.84
  -4  -4  13    9.86    0.91
   4  -4 -13    9.82    1.22
  -4  -4  12   26.15    1.33
  -4   4  12   23.86    1.65
  -4  -4  12   24.30    1.66
  -4  -4  12   26.01    1.50
   4  -4 -12   25.53    1.23
   4  -4 -12   25.29    1.82
  -4  -4  11   32.82    1.47
  -4   4  11   35.45    1.91
  -4  -4  11   28.72    1.75
  -4  -4  11   33.02    1.71
   4  -4 -11   35.06    2.05
  -4  -4  10   40.86    1.64
  -4   4  10   35.31    1.85
  -4  -4  10   39.61    1.94
  -4  -4  10   40.86    1.93
   4  -4 -10   39.22    2.12
   4   4  -9   14.32    1.04
   4  -4  -9   15.50    1.06
  -4  -4   9   14.18    0.92
   4   4  -9   15.30    1.07
   4  -4  -9   17.35    1.16
  -4   4   9   13.84    1.08
  -4  -4   9   14.48    1.11
  -4  -4   9   16.43    1.21
  -4   4   9   15.17    1.21
   4  -4  -9   15.32    1.22
   4   4  -8    4.60    0.59
  -4   4   8    4.91    0.62
   4  -4  -8    3.63    0.54
  -4  -4   8    4.55    0.59
  -4  -4   8    3.59    0.61
   4  -4  -8    5.37    0.72
  -4   4   8    4.97    0.71
   4   4  -7    1.68    0.48
  -4  -4   7    1.70    0.39
  -4   4   7    2.15    0.40
   4   4  -7    1.63    0.37
   4  -4  -7    2.08    0.39
  -4  -4   7    1.73    0.46
   4  -4  -7    2.32    0.38
   4   4  -7    1.31    0.36
  -4   4   7    2.03    0.45
   4   4  -6  302.04    6.42
   4  -4  -6  299.26    6.46
  -4  -4   6  306.35    6.52
  -4   4   6  302.44    6.50
   4  -4  -6  309.40    6.49
  -4  -4   6  313.27    7.24
  -4   4   6  317.44    6.80
   4   4  -6  297.91    6.36
   4   4  -6  311.01    7.15
   4  -4  -6  306.61    6.44
   4   4  -5    0.50    0.34
  -4   4   5    0.42    0.21
   4   4  -5    0.84    0.25
   4  -4  -5    1.12    0.28
  -4  -4   5    1.06    0.28
   4  -4  -5    0.91    0.29
  -4  -4   5    0.88    0.35
  -4   4   5    0.60    0.29
   4  -4  -5    1.09    0.31
   4   4  -5    1.23    0.29
   4   4  -4   70.39    2.57
   4  -4  -4   64.23    2.21
   4  -4  -4   71.67    2.33
  -4  -4   4   69.91    2.14
  -4   4   4   72.42    2.17
  -4  -4   4   72.10    2.75
   4  -4  -4   65.43    2.06
  -4   4   4   70.13    2.29
  -4   4   3    0.86    0.24
  -4  -4   3    0.57    0.22
   4  -4  -3    0.83    0.30
   4  -4  -3    1.32    0.31
  -4  -4   3    1.25    0.39
  -4   4   3    0.84    0.30
   4  -4  -2  672.90   12.94
   4   4  -2  663.29   13.30
  -4  -4   2  677.25   13.48
   4  -4  -2  685.13   12.67
   4  -4  -1   93.61    2.91
   4   4  -1   93.63    3.13
  -4  -4   1   96.04    3.31
  -4  -4   1   91.26    3.16
  -4   4   0  104.51    3.04
   4  -4   0  103.42    3.17
  -4  -4   0  104.09    3.43
  -4  -4   0  107.27    3.57
   4   4   0  104.98    3.32
   4  -4   1   26.68    1.48
  -4  -4  -1   29.02    1.70
  -4   4  -1   25.70    1.37
   4   4   1   27.82    1.58
   4  -4   2  115.16    3.56
   4   4   2  107.33    3.50
  -4  -4  -2  113.48    3.75
  -4   4  -2  111.93    3.36
   4   4   2  118.05    3.70
  -4   4  -3   72.12    2.62
   4   4   3   71.31    2.70
  -4  -4  -3   71.34    2.86
   4   4   3   76.39    2.90
   4   4   4   80.62    2.92
  -4  -4  -4   82.19    3.13
  -4  -4  -4   81.68    3.29
   4   4   4   86.78    3.26
  -4  -4  -5   36.61    1.99
   4   4   5   36.25    1.80
  -4  -4  -5   34.68    2.09
   4  -4   6  328.89    7.96
  -4  -4  -6  333.64    7.90
   4   4   6  319.49    7.37
  -4  -4  -6  326.03    8.34
   4  -4   7   10.78    1.15
  -4  -4  -7   11.45    1.12
  -4  -4  -7    9.77    1.20
   4  -4   8   11.76    1.25
  -4  -4  -8   12.83    1.20
  -4  -4  -8    9.67    1.25
   4  -4   9   13.20    1.37
  -4  -4  -9   13.53    1.24
   4  -4  10   70.35    3.38
  -4  -4 -10   68.96    2.96
   4  -4  11   39.94    2.61
  -4  -4 -11   40.42    2.23
   4  -4  12   51.28    3.10
  -4  -4 -12   51.23    2.57
   4  -4  13    5.19    1.09
   4  -4  14  103.79    4.77
   4  -4  15  128.67    5.48
   4  -4  16   22.51    1.99
   4  -4  16   27.24    2.46
   4  -4  17   34.25    2.76
   4  -4  18    9.58    1.54
   4  -5 -19    1.09    0.76
   4  -5 -18   44.58    3.06
   4  -5 -17    4.45    1.07
   4  -5 -16   14.04    1.64
  -4  -5  15    8.80    0.92
  -4  -5  15    8.86    0.94
  -4  -5  14    2.13    0.50
  -4  -5  14    2.59    0.56
   4  -5 -14    3.03    0.82
  -4  -5  13    8.15    0.94
   4  -5 -13    7.31    1.09
  -4  -5  12   13.09    1.01
  -4  -5  12   11.82    1.12
   4  -5 -12   15.52    1.46
  -4  -5  11   15.79    1.10
  -4   5  11   13.66    1.21
  -4  -5  11   15.59    1.26
  -4  -5  11   14.88    1.26
   4  -5 -11   16.55    1.45
  -4  -5  10   70.52    2.53
  -4   5  10   70.44    2.71
  -4  -5  10   67.49    2.68
  -4  -5  10   72.34    2.90
   4  -5 -10   74.04    3.08
  -4   5   9   53.33    2.21
  -4  -5   9   51.74    2.17
  -4  -5   9   52.28    2.11
  -4  -5   9   55.92    2.52
  -4   5   9   52.91    2.48
  -4   5   8    1.20    0.37
  -4  -5   8    0.70    0.33
   4   5  -8    0.79    0.32
   4  -5  -8    0.69    0.32
  -4  -5   8    0.75    0.40
  -4   5   8    0.58    0.34
  -4   5   7  131.21    3.53
  -4  -5   7  130.44    3.52
   4   5  -7  124.95    3.39
   4  -5  -7  125.72    3.40
  -4  -5   7  135.24    4.26
  -4   5   7  126.12    3.89
   4  -5  -6  334.75    7.26
  -4  -5   6  327.14    6.90
  -4   5   6  324.83    6.89
   4   5  -6  326.97    6.82
   4  -5  -6  323.40    6.81
  -4  -5   6  333.68    7.98
  -4   5   6  345.19    7.55
   4  -5  -6  335.90    6.83
   4   5  -6  328.76    6.77
   4  -5  -5   24.69    1.42
   4  -5  -5   23.20    1.33
   4   5  -5   23.60    1.11
   4  -5  -5   22.23    1.10
  -4  -5   5   22.91    1.12
  -4   5   5   24.35    1.15
  -4  -5   5   22.09    1.58
   4   5  -5   23.41    1.09
   4  -5  -5   23.92    1.12
  -4   5   5   24.30    1.41
   4   5  -4   22.21    1.49
   4  -5  -4   22.02    1.30
   4  -5  -4   19.89    1.00
  -4  -5   4   20.29    1.01
  -4   5   4   20.80    1.02
  -4  -5   4   22.88    1.59
   4  -5  -4   21.75    1.03
   4   5  -4   20.36    0.98
   4  -5  -4   22.28    1.32
  -4   5   4   22.87    1.34
  -4  -5   3   74.44    2.19
  -4   5   3   79.76    2.24
   4  -5  -3   79.79    2.75
   4  -5  -3   80.54    2.69
  -4  -5   3   76.10    3.09
  -4   5   3   80.27    2.71
  -4  -5   2    8.91    0.62
   4  -5  -2    8.11    0.82
   4  -5  -2    8.19    0.78
  -4  -5   2    8.12    0.96
   4  -5  -1   62.23    2.41
  -4  -5   1   59.37    2.67
  -4  -5   1   56.93    2.62
  -4  -5   0    1.74    0.50
  -4   5   0    2.20    0.48
   4  -5   0    2.33    0.48
  -4  -5   0    1.96    0.54
   4   5   0    2.89    0.57
  -4   5  -1   35.92    1.81
   4  -5   1   38.03    1.90
  -4  -5  -1   37.92    2.11
  -4  -5  -1   38.60    2.11
   4   5   1   40.00    2.05
   4  -5   2   24.43    1.52
  -4  -5  -2   22.11    1.60
  -4   5  -2   24.36    1.50
  -4   5  -3    0.49    0.36
  -4  -5  -3    0.20    0.31
   4  -5   3    0.53    0.32
  -4   5  -4    2.13    0.55
  -4  -5  -4    1.84    0.52
  -4  -5  -5    0.62    0.42
   4  -5   6    1.23    0.47
  -4  -5  -6    0.32    0.40
   4  -5   7  125.15    4.41
  -4  -5  -7  132.03    4.44
   4  -5   8  182.34    5.71
  -4  -5  -8  189.58    5.58
   4  -5   9   13.48    1.41
  -4  -5  -9   15.53    1.40
   4  -5  10  195.59    6.23
  -4  -5 -10  197.15    5.78
   4  -5  11   24.16    2.02
  -4  -5 -11   24.22    1.77
   4  -5  12   13.47    1.61
  -4  -5 -12   14.62    1.41
   4  -5  13   20.46    2.02
   4  -5  14    1.07    0.83
   4  -5  15   10.85    1.34
   4  -5  15   13.75    1.81
   4  -5  16   50.72    2.92
   4   5  16   45.14    2.82
   4  -5  16   48.38    3.35
   4  -5  17    2.34    1.00
   4  -6 -18   -0.18    0.59
   4  -6 -17   22.21    2.14
   4  -6 -16   30.31    2.41
  -4  -6  15    4.63    0.74
  -4  -6  15    5.48    0.83
   4  -6 -15    5.21    1.08
  -4  -6  14    1.69    0.58
   4  -6 -14    1.60    0.69
  -4  -6  13   78.92    2.94
  -4  -6  13   82.43    3.27
   4  -6 -13   74.20    3.56
  -4  -6  12    8.98    0.95
  -4  -6  12    8.20    1.05
  -4  -6  11   10.19    0.99
  -4  -6  11   12.08    1.26
  -4  -6  10    4.79    0.70
  -4  -6  10    4.86    0.86
  -4  -6   9    9.38    0.94
  -4   6   9    7.27    0.81
  -4  -6   9    7.97    0.82
  -4  -6   9    9.10    1.10
  -4   6   8  382.15    8.04
  -4  -6   8  373.11    8.05
  -4  -6   8  394.74    9.28
  -4   6   7   91.17    2.74
  -4  -6   7   89.86    2.75
   4   6  -7   88.44    2.63
  -4  -6   7   89.30    3.59
   4  -6  -6    0.17    0.32
  -4   6   6    0.19    0.22
  -4  -6   6   -0.05    0.24
   4  -6  -6    0.15    0.25
   4   6  -6    0.13    0.21
   4  -6  -6    0.36    0.23
  -4  -6   6    0.11    0.39
  -4   6   6    0.09    0.36
   4  -6  -5  212.97    5.70
   4  -6  -5  223.87    5.62
  -4   6   5  216.52    4.77
  -4  -6   5  218.15    4.79
   4   6  -5  218.07    4.76
   4  -6  -5  219.39    4.76
  -4  -6   5  215.84    6.24
   4  -6  -5  218.17    4.73
   4   6  -5  222.81    4.72
  -4   6   5  231.49    5.83
   4  -6  -4   12.46    1.06
   4   6  -4   13.19    0.76
  -4  -6   4   12.47    0.75
   4  -6  -4   11.70    0.72
  -4   6   4   12.57    0.75
  -4  -6   4   10.94    1.22
   4  -6  -4   11.36    1.05
   4  -6  -4   12.29    0.73
   4   6  -4   12.05    0.71
  -4   6   4   13.27    1.16
   4  -6  -3  162.51    3.70
   4  -6  -3  169.83    4.76
  -4  -6   3  168.34    3.74
  -4   6   3  167.43    3.76
  -4  -6   3  164.09    5.28
   4  -6  -3  173.72    3.73
   4   6  -3  163.10    3.67
  -4   6   3  177.04    4.81
   4  -6  -3  176.92    4.79
  -4  -6   2   13.35    0.76
  -4   6   2   15.74    0.81
   4  -6  -2   16.64    1.25
   4  -6  -2   16.42    1.22
  -4  -6   2   16.28    1.45
   4  -6  -1  315.34    7.47
  -4  -6   1  306.22    7.99
  -4  -6   1  315.60    8.08
   4  -6   0  355.69    8.22
  -4  -6   0  362.89    8.82
  -4  -6   0  340.09    8.69
  -4   6  -1   39.48    2.07
  -4  -6  -1   33.78    2.19
   4  -6   1   40.47    2.09
  -4  -6  -1   42.42    2.37
  -4  -6  -2   85.07    3.63
   4  -6   2   84.80    3.27
  -4  -6  -2   87.93    3.58
   4  -6   3  198.61    5.61
  -4  -6  -3  192.40    5.85
  -4  -6  -4    2.32    0.68
  -4  -6  -5  322.58    8.32
  -4  -6  -6   11.28    1.26
   4  -6   7  248.50    6.97
  -4  -6  -7  253.26    7.07
   4  -6   8  193.45    6.02
  -4  -6  -8  196.49    5.98
   4  -6   9    1.84    0.65
  -4  -6  -9    1.92    0.66
   4  -6  10    2.22    0.73
  -4  -6 -10    2.89    0.74
   4  -6  11    1.32    0.63
  -4  -6 -11    3.35    0.79
   4  -6  12    3.74    0.91
   4  -6  13   14.67    1.75
   4  -6  14    7.20    1.35
   4  -6  14    6.68    1.05
   4   6  14    7.35    1.11
   4  -6  15   -0.19    0.61
   4  -6  15   -0.13    0.65
   4   6  15    0.13    0.58
   4  -6  16    0.40    0.48
  -4  -7  15   17.13    1.54
  -4  -7  14    0.12    0.44
  -4  -7  14    0.39    0.41
  -4  -7  13  103.00    3.68
  -4  -7  13  107.34    4.10
  -4  -7  12  171.42    4.99
  -4  -7  12  163.10    5.40
  -4  -7  11   10.18    1.12
  -4  -7  11   11.86    1.33
  -4  -7  10   34.76    2.26
  -4  -7  10   33.37    1.92
  -4  -7   9    4.79    0.92
  -4  -7   9    6.84    0.89
   4  -7  -8    0.11    0.45
  -4  -7   8   -0.25    0.40
   4  -7  -7    0.53    0.41
  -4  -7   7    0.76    0.49
  -4   7   7    0.46    0.26
  -4  -7   7    0.52    0.31
   4  -7  -6   87.95    3.41
  -4   7   6   80.36    2.41
  -4  -7   6   81.46    2.43
   4  -7  -6   90.60    3.25
  -4  -7   6   90.23    3.80
  -4   7   5  224.68    4.77
  -4  -7   5  214.70    4.77
   4   7  -5  224.71    4.72
   4  -7  -5  227.80    5.97
  -4  -7   5  227.96    6.70
   4  -7  -5  229.62    6.18
   4  -7  -4    3.89    0.69
  -4   7   4    3.83    0.43
  -4  -7   4    4.58    0.46
   4   7  -4    4.72    0.45
   4  -7  -4    3.94    0.41
   4  -7  -4    4.64    0.74
  -4  -7   4    5.96    0.99
  -4   7   3   88.85    2.19
   4  -7  -3   85.13    3.28
  -4  -7   3   87.05    2.19
   4   7  -3   91.71    2.21
   4  -7  -3   87.40    2.15
   4   7  -3   87.76    2.15
   4  -7  -3   84.19    3.28
   4  -7  -3   87.35    2.14
  -4   7   2    2.72    0.30
   4   7  -2    2.25    0.30
   4  -7  -2    2.10    0.28
  -4  -7   2    2.38    0.29
   4   7  -2    2.34    0.30
   4  -7  -2    2.19    0.28
   4  -7  -1   58.67    2.70
  -4   7   1   66.09    1.72
  -4  -7   1   60.58    1.65
  -4  -7   1   64.38    3.16
  -4  -7   1   57.54    3.06
   4  -7  -1   58.86    1.61
   4  -7   0   44.65    2.31
  -4  -7   0   42.03    2.51
  -4  -7   0   38.01    1.26
  -4  -7  -1    5.43    0.95
   4  -7   1    5.56    0.87
   4  -7   2   16.10    1.40
  -4  -7  -2   13.45    1.44
  -4  -7  -3    4.32    0.91
   4  -7   3    4.14    0.75
  -4  -7  -4  244.59    7.13
  -4  -7  -5  254.67    7.34
  -4  -7  -6   41.34    2.55
  -4  -7  -7   24.22    1.97
   4  -7   8    0.26    0.40
  -4  -7  -8    0.14    0.48
   4  -7   9    1.25    0.61
  -4  -7  -9    1.89    0.71
   4  -7  10   52.10    3.03
  -4  -7 -10   45.41    2.71
   4  -7  11   -0.15    0.47
  -4  -7 -11    0.13    0.51
   4  -7  12  154.12    5.71
   4  -7  12  137.02    4.52
   4   7  12  146.62    4.72
   4  -7  13  130.62    4.54
   4   7  13  138.15    4.72
   4  -7  14   10.10    1.55
   4  -7  14   12.14    1.33
   4  -7  15    1.08    0.58
  -4  -8  14   -0.13    0.49
  -4  -8  14   -0.33    0.45
  -4  -8  13   -0.14    0.53
  -4  -8  13    0.32    0.46
  -4  -8  12    5.44    1.03
  -4  -8  12    5.59    0.92
  -4  -8  11    5.08    1.09
  -4  -8  11    5.17    0.91
   4  -8 -10  214.58    6.70
  -4  -8  10  228.92    6.96
  -4  -8  10  222.87    6.28
   4  -8  -9   12.31    1.43
  -4  -8   9   14.22    1.57
  -4  -8   9   15.49    1.39
   4  -8  -8   26.63    1.97
  -4  -8   8   26.36    2.11
   4  -8  -7  186.34    5.74
  -4  -8   7  175.40    6.03
   4  -8  -7  176.55    5.33
   4  -8  -6    3.17    0.77
   4  -8  -6    3.54    0.73
  -4  -8   6    5.20    1.02
   4  -8  -5   13.75    1.31
  -4  -8   5   14.45    1.58
   4  -8  -5   14.62    1.42
   4  -8  -4   12.67    1.26
  -4  -8   4   13.03    1.50
   4  -8  -4   10.46    1.18
   4  -8  -3    0.11    0.36
   4  -8  -3    0.43    0.38
   4  -8  -2    7.87    1.04
  -4   8   2    4.87    0.25
   4  -8  -1  270.31    6.87
  -4  -8   1  269.26    7.48
   4  -8   0   86.92    3.52
  -4   8   0   78.48    1.61
  -4  -8   0   89.79    3.96
   4   8   0   77.77    1.67
   4  -8   1  186.85    5.79
  -4   8  -1  187.41    3.74
   4  -8   2  127.23    4.56
  -4  -8  -2  124.83    4.92
  -4  -8  -3    3.40    0.85
   4  -8   3    2.55    0.69
  -4  -8  -4    0.30    0.52
  -4  -8  -5    5.04    0.99
   4  -8   6   14.00    1.49
  -4  -8  -6   16.21    1.68
  -4  -8  -7   12.27    1.53
  -4  -8  -8    8.43    1.28
   4  -8   8    7.17    0.76
   4  -8   9    4.91    1.08
  -4  -8  -9    6.53    1.21
   4  -8   9    3.84    0.64
   4  -8  10  160.63    5.88
  -4  -8 -10  169.86    5.88
   4  -8  10  156.25    4.50
   4  -8  11    2.76    0.84
  -4  -8 -11    2.51    0.82
   4  -8  12   10.85    1.57
  -4  -9  14    2.71    0.85
  -4  -9  13   43.44    2.54
  -4  -9  13   44.92    2.86
  -4  -9  12   10.08    1.27
   4  -9 -12    7.64    1.28
  -4  -9  12    8.19    1.32
   4  -9 -11    3.82    0.97
  -4  -9  11    2.87    0.85
  -4  -9  11    2.32    0.70
   4  -9 -10   92.24    4.15
  -4  -9  10   91.22    3.79
  -4  -9  10   97.73    4.43
   4  -9  -9    1.29    0.68
  -4  -9   9    0.49    0.59
  -4  -9   9    0.60    0.56
   4  -9  -9    0.58    0.50
   4  -9  -8    0.83    0.59
   4  -9  -8    0.23    0.47
  -4  -9   8   -0.12    0.41
  -4  -9   8    0.81    0.61
   4  -9  -7  145.86    4.89
  -4  -9   7  138.97    5.46
   4  -9  -7  135.28    5.06
   4  -9  -6   70.22    3.23
  -4  -9   6   72.98    3.79
   4  -9  -6   67.84    3.34
   4  -9  -5  118.79    4.36
  -4  -9   5  122.17    5.04
   4  -9  -5  115.00    4.46
   4  -9  -4    0.26    0.50
  -4  -9   4    0.82    0.72
   4  -9  -4    0.97    0.51
   4  -9  -3   14.47    1.45
   4  -9  -2   96.53    3.97
   4  -9  -1   12.94    1.39
  -4  -9   1   10.55    1.47
  -4  -9   0    0.99    0.69
   4  -9   0    0.64    0.50
   4  -9   1   22.03    1.83
  -4  -9  -1   23.54    2.12
   4  -9   2   21.41    1.83
  -4  -9  -2   16.68    1.87
   4  -9   3   27.73    2.12
  -4  -9  -3   24.52    2.19
  -4  -9  -4    0.66    0.60
  -4  -9  -5   17.90    1.94
   4  -9   6   31.38    2.37
  -4  -9  -6   31.69    2.51
  -4  -9  -7   33.33    2.86
  -4  -9  -7   41.12    2.83
  -4  -9  -8    0.33    0.67
   4  -9   9    1.27    0.77
  -4  -9  -9    1.50    0.77
  -4  -9 -10    6.28    1.21
  -4 -10  13    2.69    0.83
  -4 -10  12   48.89    2.87
   4 -10 -11   43.34    2.97
  -4 -10  11   45.12    2.70
   4 -10 -11   41.17    2.54
  -4 -10  11   44.00    3.03
  -4 -10  10   37.02    2.49
   4 -10 -10   39.06    2.49
  -4 -10  10   43.34    3.04
   4 -10 -10   37.21    2.69
  -4 -10   9   10.89    1.42
   4 -10  -9   12.14    1.42
  -4 -10   9   12.29    1.70
   4 -10  -9   12.35    1.55
   4 -10  -8    0.62    0.60
  -4 -10   8    1.83    0.87
   4 -10  -8    2.50    0.70
  -4 -10   8    1.64    0.69
   4 -10  -7    4.50    0.99
  -4 -10   7    6.41    1.26
   4 -10  -7    4.36    0.94
   4 -10  -6   11.47    1.49
   4 -10  -6    8.92    1.22
  -4 -10   6    9.89    1.53
   4 -10  -5   65.83    3.32
  -4 -10   5   71.40    3.97
   4 -10  -5   74.43    3.64
   4 -10  -4  105.03    4.34
  -4 -10   4  103.61    4.88
   4 -10  -3   25.79    2.06
   4 -10  -2   13.03    1.49
   4 -10  -1   10.34    1.34
  -4 -10   1   12.58    1.70
   4 -10   0   23.09    1.98
  -4 -10   0   20.98    2.16
   4 -10   1   82.73    3.89
  -4 -10  -1   88.44    4.44
  -4 -10  -2    4.24    1.07
   4 -10   2    3.07    0.86
   4 -10   3  125.63    5.02
  -4 -10  -3  136.23    5.64
  -4 -10  -4    7.71    1.44
  -4 -10  -4    9.17    1.50
  -4 -10  -5    0.37    0.61
  -4 -10  -6    9.90    1.56
  -4 -10  -7    6.03    1.31
  -4 -10  -8    9.54    1.54
   4 -11  -7    7.50    1.33
   4 -11  -6    0.16    0.54
   5   0 -20    1.85   38.56
   5   0 -19   40.92    2.90
   5   0 -18    0.82    0.66
   5   0 -17    0.46    0.44
   5   0 -16   -0.14    0.51
  -5   0  15  192.92    5.92
   5   0 -15  174.57    5.77
  -5   0  14    0.45    0.32
   5   0 -14    0.58    0.44
  -5   0  13    5.19    0.85
  -5   0  12   -0.10    0.39
   5   0 -12    0.03    0.15
  -5   0  11   26.99    1.68
   5   0 -11   26.16    1.12
  -5   0  10    0.32    0.23
   5   0 -10    0.05    0.21
  -5   0  10    0.05    0.17
   5   0  -9    5.56    0.67
  -5   0   9    3.69    0.59
   5   0  -9    3.59    0.57
   5   0  -9    4.02    0.52
  -5   0   9    4.46    0.54
   5   0  -9    3.70    0.53
  -5   0   8    0.21    0.24
   5   0  -8    0.13    0.20
  -5   0   8   -0.06    0.24
   5   0  -8    0.52    0.33
   5   0  -8    0.06    0.17
  -5   0   7  329.79    7.22
   5   0  -7  336.23    7.25
  -5   0   7  318.89    7.19
   5   0  -7  331.25    7.11
   5   0  -6   -0.27    0.30
  -5   0   6    0.07    0.25
  -5   0   6    0.24    0.25
  -5   0   5   41.32    1.32
   5   0  -5   44.11    1.40
  -5   0   5   39.78    1.92
   5   0  -5   40.69    1.92
  -5   0   5   44.85    1.80
   5   0  -4    0.14    0.09
  -5   0   4   -0.07    0.18
   5   0  -4    0.15    0.29
  -5   0   4    0.16    0.27
  -5   0   3  113.86    3.02
   5   0  -3  120.57    3.17
   5   0  -3  113.50    3.66
   5   0  -3  116.31    2.25
  -5   0   2    0.06    0.08
  -5   0   2    0.16    0.20
   5   0  -2   -0.17    0.24
   5   0  -2   -0.08    0.33
   5   0  -2    0.04    0.09
  -5   0   1  398.75    8.33
   5   0  -1  421.07    8.58
  -5   0   1  401.44    8.97
   5   0  -1  408.39    8.95
   5   0  -1  391.27    7.23
  -5   0   0   -0.20    0.28
   5   0   0    0.52    0.32
  -5   0   0    0.26    0.28
  -5   0   0    0.19    0.14
   5   0   1   25.59    1.55
  -5   0  -1   22.41    1.52
  -5   0  -1   25.67    1.09
   5   0   2    0.54    0.35
   5   0   2   -0.09    0.35
  -5   0  -2    0.09    0.29
  -5   0  -2    0.05    0.16
  -5   0  -3  165.71    4.76
   5   0   3  169.67    5.04
  -5   0  -3  164.59    4.82
   5   0   3  166.50    4.86
  -5   0  -3  165.93    4.17
  -5   0  -4    0.09    0.30
   5   0   4   -0.10    0.31
   5   0   4   -0.09    0.35
  -5   0  -4    0.53    0.33
  -5   0  -4   -0.06    0.22
  -5   0  -5  102.37    3.64
  -5   0  -5   96.84    3.43
   5   0   5   96.88    3.49
  -5   0  -5  103.10    3.30
  -5   0  -6    0.10    0.35
   5   0   6   -0.09    0.36
  -5   0  -6    0.09    0.27
  -5   0  -6    0.25    0.35
   5   0   7  211.74    6.42
  -5   0  -7  210.93    5.60
   5   0   7  217.83    5.79
  -5   0  -7  217.07    5.91
   5   0   8    0.09    0.37
  -5   0  -8    0.32    0.37
   5   0   9    1.63    0.64
   5   0   9    2.02    0.54
  -5   0  -9    0.23    0.40
   5   0  10    0.28    0.50
   5   0  10    0.56    0.36
  -5   0 -10    0.13    0.38
   5   0  11  223.21    7.00
   5   0  11  216.21    5.61
  -5   0 -11  232.90    6.92
   5   0  12   -0.15    0.47
   5   0  12   -0.15    0.40
  -5   0 -12   -0.44    0.53
   5   0  13   64.82    3.49
  -5   0 -13   59.65    3.37
   5   0  14   -0.49    0.64
  -5   0 -14    0.17    0.62
   5   0  15   23.03    2.13
  -5   0 -15   23.72    2.27
   5   0  16    0.17    0.61
  -5   0 -16    0.19    0.59
   5  -1 -20    0.18   22.14
   5   1 -20   -0.37    0.78
   5   1 -19    1.39    0.78
   5  -1 -19    0.50    0.61
   5  -1 -18   13.76    1.64
   5   1 -18   13.28    1.64
   5  -1 -17   23.73    2.01
   5  -1 -16  102.28    4.27
  -5  -1  15   59.84    3.00
   5  -1 -15   56.23    3.00
  -5  -1  14  193.16    5.87
   5  -1 -14  203.59    6.12
  -5  -1  13   36.77    2.15
  -5  -1  13   39.33    1.36
   5  -1 -13   36.02    1.15
   5  -1 -13   37.25    2.17
  -5  -1  12    1.95    0.58
   5  -1 -12    1.30    0.29
  -5  -1  12    1.05    0.30
   5  -1 -12    0.98    0.43
  -5  -1  11    0.18    0.25
  -5  -1  11    0.17    0.25
   5  -1 -11    0.42    0.24
   5   1 -11    1.09    0.28
   5  -1 -11    0.26    0.33
  -5  -1  10  144.01    4.25
   5   1 -10  143.25    3.54
  -5  -1  10  144.64    3.97
   5  -1 -10  142.75    3.74
   5  -1 -10  141.19    4.15
  -5  -1   9  249.69    6.05
   5   1  -9  245.71    5.88
   5  -1  -9  246.40    5.82
  -5  -1   9  247.47    5.93
   5   1  -9  244.17    5.41
   5  -1  -9  241.36    5.73
   5  -1  -9  254.98    5.92
   5   1  -9  238.10    5.80
   5  -1  -9  240.55    5.78
   5   1  -8  139.17    3.88
  -5  -1   8  137.03    3.94
  -5  -1   8  142.67    4.08
   5   1  -8  143.68    3.69
   5  -1  -8  144.89    3.98
   5  -1  -8  139.33    3.84
   5  -1  -8  138.93    3.70
  -5  -1   7  581.84   10.29
   5  -1  -7  579.43   10.26
  -5  -1   7  581.03   11.47
  -5  -1   7  564.66   11.74
   5  -1  -7  581.49   11.65
   5   1  -7  559.94   11.29
   5  -1  -7  575.80   11.34
   5  -1  -7  590.42   10.96
  -5  -1   6  112.37    2.61
   5  -1  -6  109.95    2.57
  -5  -1   6  110.59    3.25
  -5  -1   6  111.01    3.50
   5  -1  -6  104.74    3.39
   5   1  -6  109.48    3.28
   5  -1  -6  111.20    2.68
  -5   1   5  256.34    5.18
  -5  -1   5  278.15    5.47
   5  -1  -5  269.66    5.43
  -5  -1   5  263.21    5.99
   5   1  -5  261.22    6.19
   5  -1  -5  255.66    6.27
  -5  -1   5  271.66    6.48
   5  -1  -5  277.58    5.09
   5   1  -5  267.22    5.40
   5   1  -4    6.86    0.49
  -5   1   4    8.25    0.56
  -5  -1   4    8.54    0.63
   5  -1  -4    9.28    0.66
   5  -1  -4    8.03    0.84
   5   1  -4    8.82    0.84
  -5   1   4   10.41    0.88
  -5  -1   4    5.80    0.74
  -5  -1   3  115.21    3.02
  -5   1   3  108.74    2.83
   5  -1  -3  112.61    2.99
   5  -1  -3  109.45    3.42
  -5   1   3  107.87    3.37
   5   1  -3  109.21    3.46
   5   1  -2   44.49    1.78
  -5  -1   2   44.83    1.75
   5  -1  -2   43.23    1.72
   5  -1  -2   41.94    1.95
   5   1  -2   40.91    1.98
  -5  -1   2   42.71    1.37
   5   1  -2   43.07    1.34
  -5   1   1    5.88    0.62
   5   1  -1    5.02    0.63
  -5  -1   1    6.24    0.67
   5  -1  -1    5.20    0.60
   5  -1  -1    4.86    0.70
   5   1  -1    4.88    0.69
  -5  -1   1    5.53    0.74
  -5   1   1    5.52    0.28
  -5   1   1    3.87    0.59
   5   1  -1    6.39    0.48
  -5   1   0   36.64    1.65
   5   1   0   38.37    1.83
  -5  -1   0   37.87    1.75
   5  -1   0   37.71    1.77
  -5  -1   0   38.08    2.00
  -5   1   0   37.24    1.85
   5   1   0   37.40    1.40
  -5   1   0   37.17    1.13
  -5  -1   0   36.10    1.35
   5   1   1  196.98    5.27
   5  -1   1  204.87    5.23
  -5  -1  -1  201.16    5.54
  -5   1  -1  198.94    5.26
   5   1   1  202.01    4.59
  -5   1  -1  198.60    4.21
  -5  -1  -1  198.74    4.53
   5   1   2   45.23    2.17
   5  -1   2   42.39    2.07
  -5  -1  -2   39.36    2.12
   5  -1   2   39.54    1.98
   5   1   2   40.25    2.02
  -5   1  -2   39.14    1.95
   5   1   2   38.91    1.67
  -5  -1  -2   40.82    1.66
  -5   1  -3    8.87    0.91
   5   1   3   11.84    1.13
  -5  -1  -3   12.36    1.13
   5  -1   3   10.79    1.08
  -5  -1  -3   14.10    1.26
   5  -1   3   11.03    1.07
   5   1   3   11.78    1.09
  -5  -1  -3   11.64    0.91
   5   1   3   11.37    0.92
   5   1   4   17.98    1.46
  -5   1  -4   19.97    1.40
   5  -1   4   18.94    1.50
  -5  -1  -4   21.46    1.52
   5  -1   4   20.32    1.46
   5   1   4   21.17    1.44
  -5  -1  -4   19.03    1.49
  -5  -1  -4   22.61    1.36
  -5   1  -5  597.88   12.94
  -5  -1  -5  642.12   13.39
   5  -1   5  622.90   13.11
  -5  -1  -5  630.73   13.26
   5   1   5  625.15   12.81
  -5  -1  -5  661.40   12.96
  -5   1  -6   23.89    1.66
  -5  -1  -6   31.31    1.97
   5  -1   6   29.80    1.82
  -5  -1  -6   29.87    1.84
   5   1   6   28.23    1.66
  -5  -1  -6   26.56    1.68
   5   1   7  122.50    4.56
   5  -1   7  125.41    4.62
  -5  -1  -7  126.68    4.17
   5   1   7  126.50    3.92
   5  -1   7  128.42    4.20
  -5  -1  -7  123.66    4.22
  -5   1  -7  126.44    4.06
   5   1   8    4.42    0.86
   5  -1   8    3.32    0.77
   5  -1   8    4.50    0.80
   5   1   8    4.21    0.69
  -5  -1  -8    3.83    0.68
  -5   1  -8    6.62    0.88
  -5  -1  -8    4.27    0.77
   5   1   9   31.05    2.22
   5  -1   9   31.79    2.27
  -5  -1  -9   29.41    1.74
   5   1   9   29.15    1.65
   5  -1   9   33.69    1.93
  -5  -1  -9   33.09    2.14
  -5   1  -9   25.95    1.84
   5   1  10   32.33    2.31
   5  -1  10   30.39    2.29
   5   1  10   32.63    1.70
  -5  -1 -10   32.83    1.80
   5  -1  10   34.51    1.93
  -5  -1 -10   36.21    2.35
  -5   1 -10   36.17    2.30
   5   1  11   14.80    1.61
   5  -1  11   17.91    1.78
   5   1  11   16.86    1.19
  -5  -1 -11   17.31    1.26
   5  -1  11   17.36    1.37
  -5  -1 -11   16.46    1.64
  -5   1 -11   16.57    1.64
   5   1  12   16.06    1.70
   5  -1  12   16.93    1.82
   5   1  12   16.60    1.18
   5  -1  12   16.17    1.30
  -5  -1 -12   17.40    1.75
  -5   1 -12   20.65    1.90
   5  -1  13  103.23    4.59
  -5  -1 -13  106.95    4.67
  -5   1 -13  101.86    4.54
   5  -1  14    2.98    0.93
  -5  -1 -14    1.38    0.70
  -5   1 -14    1.56    0.80
   5  -1  15    7.27    1.25
  -5  -1 -15    9.37    1.50
  -5   1 -15   11.71    1.66
   5  -1  16   71.87    3.89
  -5  -1 -16   68.49    4.03
  -5   1 -16   74.89    4.20
   5  -1  17   12.91    1.71
   5  -1  18   23.74    2.29
   5  -2 -20   49.04    3.27
   5  -2 -19    4.90    1.08
   5  -2 -18   15.58    1.75
   5  -2 -17   13.55    1.56
   5  -2 -16   15.71    1.61
  -5   2  15    0.12    0.41
  -5  -2  15    0.12    0.42
  -5  -2  15    0.14    0.17
   5  -2 -15    0.65    0.55
  -5   2  14   12.43    1.29
  -5  -2  14   15.77    1.45
  -5  -2  14   11.69    0.83
   5  -2 -14   14.31    1.42
  -5   2  13   54.94    2.69
  -5  -2  13   55.80    2.71
  -5  -2  13   56.37    2.15
   5  -2 -13   62.14    1.89
   5  -2 -13   60.72    2.84
  -5   2  12  476.91   10.62
  -5  -2  12  479.19   10.60
  -5  -2  12  485.70    9.83
   5  -2 -12  468.98    9.40
   5  -2 -12  472.06   10.56
  -5  -2  11    3.44    0.26
  -5  -2  11    3.51    0.64
  -5   2  11    3.05    0.58
  -5  -2  11    3.31    0.56
   5  -2 -11    3.15    0.52
   5  -2 -11    2.88    0.60
  -5  -2  10    1.13    0.43
  -5   2  10    1.61    0.45
  -5  -2  10    1.09    0.19
  -5  -2  10    1.23    0.39
   5  -2 -10    1.17    0.37
   5   2 -10    1.06    0.32
   5  -2 -10    0.77    0.33
  -5  -2   9  139.31    2.97
  -5  -2   9  151.42    4.23
  -5   2   9  141.17    4.16
   5   2  -9  143.26    4.03
   5  -2  -9  141.88    4.05
   5   2  -9  144.93    3.97
   5  -2  -9  144.31    3.98
   5   2  -9  139.47    3.71
  -5  -2   9  147.48    4.08
   5  -2  -9  146.75    3.88
   5  -2  -9  147.79    4.05
   5  -2  -9  149.68    4.07
   5   2  -9  149.64    4.06
   5   2  -8  238.02    5.58
   5  -2  -8  230.17    5.56
  -5  -2   8  239.54    5.69
  -5   2   8  231.55    5.67
   5   2  -8  230.36    5.38
   5  -2  -8  234.09    5.46
  -5  -2   8  235.64    5.70
   5  -2  -8  232.93    5.37
   5  -2  -8  231.14    5.53
   5   2  -8  234.94    5.52
   5  -2  -7  281.87    6.34
  -5  -2   7  287.29    6.42
  -5   2   7  282.79    6.41
   5   2  -7  274.23    6.27
   5  -2  -7  281.46    6.29
  -5  -2   7  279.47    6.57
   5  -2  -7  292.01    5.97
   5  -2  -7  278.89    6.30
   5   2  -7  278.26    6.27
  -5  -2   6  183.34    4.63
  -5   2   6  184.25    4.66
   5   2  -6  180.68    4.66
   5  -2  -6  184.68    4.57
  -5  -2   6  189.48    4.91
   5   2  -6  187.84    4.43
   5  -2  -6  187.21    4.56
   5   2  -6  181.54    4.50
   5  -2  -6  193.16    4.05
  -5  -2   5  145.94    3.46
   5  -2  -5  145.85    3.34
  -5  -2   5  139.79    3.78
  -5   2   5  147.63    3.85
   5   2  -5  150.79    4.04
  -5  -2   5  146.22    4.16
   5  -2  -5  140.64    3.82
   5   2  -5  146.92    3.64
   5   2  -4  696.10   12.77
   5  -2  -4  705.18   11.97
   5  -2  -4  682.46   12.63
  -5  -2   4  703.44   12.78
  -5   2   4  658.92   12.54
   5   2  -4  670.07   13.40
   5  -2  -4  679.10   13.18
  -5  -2   4  678.45   13.57
  -5   2   4  694.79   12.00
  -5  -2   3    1.63    0.35
  -5  -2   3    2.04    0.38
   5  -2  -3    1.44    0.30
  -5   2   3    1.71    0.33
   5   2  -3    1.24    0.40
   5  -2  -3    1.36    0.36
  -5   2   3    1.76    0.18
   5  -2  -2   83.74    2.48
  -5  -2   2   83.29    2.55
  -5   2   2   80.30    2.42
   5   2  -2   80.18    2.83
   5  -2  -2   75.09    2.60
  -5  -2   2   79.16    2.40
  -5  -2   1   14.34    0.91
   5  -2  -1   14.15    0.96
  -5  -2   1   15.57    1.03
  -5   2   1   15.42    0.98
   5   2  -1   14.56    1.13
   5  -2  -1   16.47    1.11
  -5  -2   1   14.71    1.16
   5   2  -1   16.33    0.92
  -5   2   1   18.01    0.69
   5  -2   0  122.24    3.50
  -5   2   0  121.12    3.46
  -5  -2   0  123.11    3.54
   5  -2   0  122.01    3.58
  -5  -2   0  132.25    3.97
   5   2   0  132.81    3.35
   5  -2   1  195.74    5.04
  -5  -2  -1  201.20    5.41
   5   2   1  212.19    4.89
   5  -2   2   76.91    2.81
   5  -2   2   78.90    2.75
   5   2   2   76.75    2.86
  -5  -2  -2   79.15    3.00
   5   2   2   78.04    2.64
  -5  -2  -2   78.13    2.64
   5  -2   3   91.11    3.20
  -5  -2  -3   86.57    3.12
  -5   2  -3   84.83    3.01
   5  -2   3   84.93    2.97
   5   2   3   86.51    3.07
  -5  -2  -3   87.33    3.26
   5   2   3   87.47    2.94
  -5  -2  -3   86.76    2.95
   5  -2   4  274.96    7.11
  -5  -2  -4  282.90    7.08
  -5   2  -4  285.19    6.91
   5  -2   4  289.58    6.83
   5   2   4  288.28    6.87
  -5  -2  -4  286.87    7.21
   5   2   4  298.76    6.98
  -5  -2  -4  301.09    6.97
  -5  -2  -5   17.90    1.43
   5  -2   5   22.08    1.44
   5   2   5   19.87    1.36
  -5  -2  -5   19.91    1.52
   5   2   5   20.24    1.45
  -5  -2  -5   18.55    1.38
  -5  -2  -6  378.41    9.09
   5   2   6  373.97    8.45
   5  -2   6  381.49    8.71
  -5  -2  -6  404.10    9.07
   5  -2   7   63.66    3.14
  -5  -2  -7   61.08    2.90
   5  -2   7   63.42    2.72
   5   2   7   68.25    2.60
  -5  -2  -7   68.68    3.01
   5  -2   8   17.52    1.69
  -5  -2  -8   17.81    1.50
   5  -2   8   19.85    1.52
   5   2   8   21.07    1.37
  -5  -2  -8   19.19    1.62
   5  -2   9   63.02    3.33
   5  -2   9   65.01    2.87
  -5  -2  -9   65.97    2.90
   5   2   9   62.71    2.46
  -5  -2  -9   58.85    3.05
   5  -2  10    4.09    0.91
   5  -2  10    4.69    0.83
  -5  -2 -10    4.00    0.75
   5   2  10    4.67    0.68
  -5  -2 -10    4.90    0.99
   5  -2  11   43.83    2.83
   5   2  11   39.65    1.89
  -5  -2 -11   40.08    2.10
   5  -2  11   46.30    2.36
  -5  -2 -11   43.72    2.73
   5  -2  12   14.70    1.68
   5   2  12   11.94    1.00
   5  -2  12   13.48    1.30
  -5  -2 -12   11.27    1.10
  -5  -2 -12   15.83    1.72
   5  -2  13    4.43    1.07
  -5   2 -13    2.38    0.77
  -5  -2 -13    2.67    0.93
   5  -2  14  119.13    5.14
  -5  -2 -14  120.51    5.26
  -5   2 -14  128.80    5.30
   5  -2  15    0.35    0.61
  -5  -2 -15    0.75    0.68
  -5   2 -15    0.37    0.65
   5  -2  16    9.39    1.50
  -5  -2 -16    6.29    1.32
  -5   2 -16    7.57    1.42
   5  -2  17   46.94    3.17
   5  -2  18   39.22    2.95
   5  -3 -20    1.04    0.63
   5  -3 -19    2.65    0.87
   5  -3 -18   -0.16    0.55
   5  -3 -17   77.12    3.75
   5  -3 -16   74.63    3.59
  -5  -3  15    5.19    0.42
  -5  -3  15    4.76    0.65
   5  -3 -15    5.02    0.94
  -5  -3  14   17.05    0.84
  -5   3  14   18.22    1.57
  -5  -3  14   15.85    1.46
  -5  -3  14   16.83    1.18
   5  -3 -14   17.64    1.57
  -5  -3  13    0.89    0.25
   5  -3 -13    0.89    0.19
  -5   3  13    0.84    0.44
  -5  -3  13    0.94    0.45
  -5  -3  13    1.30    0.43
   5  -3 -13    0.54    0.46
  -5  -3  12   25.19    1.06
   5  -3 -12   25.18    1.02
   5  -3 -12   26.08    0.94
  -5   3  12   25.91    1.73
  -5  -3  12   24.97    1.71
   5  -3 -12   24.30    1.30
  -5  -3  12   24.03    1.43
   5  -3 -12   26.19    1.72
  -5  -3  11    4.36    0.43
  -5   3  11    2.34    0.55
  -5  -3  11    1.98    0.53
   5  -3 -11    2.55    0.31
  -5  -3  11    2.65    0.54
   5  -3 -11    2.74    0.48
   5  -3 -11    3.88    0.67
  -5  -3  10   30.32    1.20
   5  -3 -10   34.24    1.18
  -5  -3  10   31.78    1.76
  -5   3  10   29.56    1.70
   5  -3 -10   27.93    1.40
  -5  -3  10   32.29    1.68
   5  -3 -10   33.98    1.78
  -5  -3   9   -0.07    0.29
  -5   3   9    0.07    0.26
   5  -3  -9    0.16    0.15
   5   3  -9    0.54    0.28
   5  -3  -9    0.07    0.24
  -5  -3   9    0.07    0.26
   5  -3  -9    0.33    0.27
   5  -3  -9    0.20    0.28
   5  -3  -9    0.53    0.27
   5   3  -9    0.33    0.25
   5  -3  -8    7.40    0.56
   5   3  -8    7.39    0.74
   5  -3  -8    5.76    0.70
  -5  -3   8    6.62    0.73
  -5   3   8    7.72    0.79
   5   3  -8    6.64    0.71
   5  -3  -8    6.90    0.70
  -5  -3   8    8.79    0.87
   5   3  -8    6.48    0.77
   5  -3  -8    7.80    0.78
   5   3  -8    6.00    0.68
   5  -3  -8    7.05    0.71
   5  -3  -7  492.63    9.24
   5   3  -7  485.56    9.80
   5  -3  -7  473.95    9.82
  -5  -3   7  474.89    9.87
  -5   3   7  485.31    9.90
   5   3  -7  489.45    9.98
   5  -3  -7  491.22    9.76
  -5  -3   7  493.24   10.30
   5  -3  -7  476.89    9.76
   5   3  -7  488.42    9.77
   5   3  -7  505.62   10.07
   5  -3  -7  489.62    9.56
   5  -3  -6  223.87    4.76
  -5  -3   6  216.89    5.17
  -5   3   6  212.87    5.16
   5   3  -6  209.54    5.32
  -5  -3   6  215.57    5.57
   5  -3  -6  218.76    5.20
   5   3  -6  224.73    5.30
   5  -3  -6  215.40    5.08
   5   3  -6  208.80    5.02
  -5   3   6  226.71    4.84
   5   3  -5   16.91    1.09
   5  -3  -5   17.03    0.94
  -5  -3   5   16.61    1.04
  -5   3   5   15.87    1.03
   5   3  -5   14.24    1.08
  -5  -3   5   17.03    1.24
   5  -3  -5   17.33    1.11
  -5   3   5   16.22    0.86
   5   3  -4   19.94    1.16
   5  -3  -4   22.81    1.14
  -5  -3   4   19.43    1.11
  -5   3   4   19.20    1.11
   5   3  -4   20.37    1.32
  -5  -3   4   21.58    1.42
  -5   3   4   20.96    0.92
   5  -3  -4   20.70    0.90
   5  -3  -3   14.44    0.93
   5   3  -3   12.04    1.03
  -5  -3   3   12.91    0.97
   5  -3  -3   12.07    0.65
  -5   3   3   11.48    0.65
  -5   3   2  186.59    4.55
   5   3  -2  189.10    5.06
  -5  -3   2  200.18    4.85
  -5   3   1  696.47   12.85
  -5   3   1  713.53   13.51
  -5  -3   1  708.63   13.67
  -5  -3   1  697.73   13.64
   5   3  -1  710.00   14.05
  -5  -3   1  721.83   14.26
   5   3  -1  723.60   13.54
   5  -3   0  105.36    3.23
  -5   3   0  104.53    3.19
  -5  -3   0  107.64    3.32
  -5  -3   0  106.48    3.58
   5  -3   0  107.77    3.31
  -5   3   0  108.81    2.81
   5   3   0  109.06    3.21
   5  -3   1 2187.83   37.86
   5   3   1 2056.29   38.02
  -5  -3  -1 2156.33   38.40
   5   3   1 2184.37   37.75
   5  -3   2  172.88    4.73
   5   3   2  171.96    4.82
   5  -3   2  175.04    4.66
  -5  -3  -2  171.41    4.98
   5   3   2  175.68    4.68
   5  -3   3   11.74    1.05
  -5  -3  -3   11.76    1.09
  -5   3  -3    8.11    0.86
   5   3   3    9.97    0.98
   5  -3   3   10.74    0.98
  -5  -3  -3   12.63    1.15
   5   3   3   11.97    1.07
  -5  -3  -3   12.29    1.08
   5  -3   4   94.50    3.41
   5   3   4   87.46    3.16
   5  -3   4   91.48    3.11
  -5  -3  -4   93.35    3.44
   5   3   4   92.03    3.31
  -5  -3  -4   91.50    3.35
   5   3   5   19.19    1.35
   5  -3   5   19.37    1.33
  -5  -3  -5   17.16    1.40
   5   3   5   19.29    1.49
  -5  -3  -5   19.73    1.50
   5   3   6  344.69    7.94
   5  -3   6  369.63    8.07
  -5  -3  -6  339.25    8.43
  -5  -3  -6  348.43    8.65
   5  -3   7  364.02    9.06
   5   3   7  356.86    8.06
   5  -3   7  366.93    8.22
  -5  -3  -7  350.57    8.65
  -5  -3  -7  348.57    8.89
   5  -3   8   56.35    2.99
   5   3   8   48.06    2.17
   5  -3   8   55.63    2.49
  -5  -3  -8   51.95    2.63
  -5  -3  -8   53.19    2.84
   5  -3   9  451.94   11.09
  -5  -3  -9  444.33   10.35
   5   3   9  437.17    9.46
  -5  -3  -9  442.84   10.90
   5  -3  10   -0.15    0.51
  -5  -3 -10    0.57    0.47
   5   3  10    0.30    0.32
  -5  -3 -10   -0.14    0.50
   5  -3  11    0.33    0.52
   5   3  11    1.45    0.46
  -5  -3 -11    1.29    0.56
  -5  -3 -11    0.30    0.41
   5  -3  12    3.06    0.89
  -5  -3 -12    4.36    0.80
  -5  -3 -12    1.94    0.75
   5  -3  13   34.34    2.68
  -5  -3 -13   34.20    2.61
   5  -3  14   28.11    2.47
  -5  -3 -14   29.62    2.52
   5  -3  15    1.49    0.86
  -5   3 -15    1.49    0.78
  -5  -3 -15    1.33    0.77
   5  -3  16   11.14    1.68
   5  -3  17    4.65    1.16
   5  -4 -20    0.88    0.79
   5  -4 -19   41.81    2.90
   5  -4 -18    4.76    1.00
   5  -4 -17    7.49    1.22
   5  -4 -16   34.71    2.42
  -5  -4  15    9.98    0.80
  -5  -4  15    7.17    0.85
   5  -4 -15    8.84    1.24
  -5  -4  14    0.30    0.28
  -5   4  14    0.46    0.35
  -5  -4  14    0.80    0.40
  -5  -4  14    0.08    0.30
   5  -4 -14    0.24    0.35
  -5   4  13   66.63    3.00
  -5  -4  13   67.16    3.02
   5  -4 -13   70.24    2.05
  -5  -4  13   71.56    2.73
   5  -4 -13   68.99    3.09
  -5  -4  12  319.83    6.65
  -5   4  12  313.75    7.77
  -5  -4  12  327.24    7.87
   5  -4 -12  315.50    6.44
   5  -4 -12  315.11    6.84
  -5  -4  12  317.84    7.45
   5  -4 -12  327.03    7.96
  -5  -4  11  326.16    6.74
   5  -4 -11  323.86    6.58
  -5   4  11  324.03    7.72
  -5  -4  11  314.84    7.68
   5  -4 -11  324.62    6.98
  -5  -4  11  315.91    7.55
   5  -4 -11  328.18    7.80
  -5  -4  10  121.96    3.86
  -5   4  10  120.31    3.84
  -5  -4  10  118.77    3.19
   5  -4 -10  121.19    3.13
   5  -4 -10  124.88    3.48
  -5  -4  10  122.95    3.91
   5  -4 -10  122.67    3.87
   5  -4  -9    2.87    0.42
  -5  -4   9    2.57    0.50
  -5   4   9    3.16    0.57
   5   4  -9    3.17    0.51
   5  -4  -9    3.39    0.55
  -5  -4   9    2.53    0.58
  -5   4   9    2.13    0.47
   5   4  -9    2.03    0.42
   5  -4  -9    2.53    0.49
   5  -4  -8   97.66    2.78
  -5  -4   8   93.58    3.09
  -5   4   8  100.05    3.17
   5   4  -8   95.47    3.00
   5  -4  -8   95.14    3.02
  -5  -4   8   95.65    3.43
   5  -4  -8   94.67    3.00
   5   4  -8   93.60    2.95
  -5   4   8  103.85    3.15
   5  -4  -7    5.13    0.55
   5   4  -7    4.74    0.70
   5   4  -7    5.04    0.59
   5  -4  -7    4.74    0.61
  -5  -4   7    4.46    0.59
  -5   4   7    5.29    0.63
  -5  -4   7    5.98    0.80
   5   4  -7    4.83    0.59
   5  -4  -7    4.07    0.55
  -5   4   7    4.63    0.58
   5  -4  -6  539.76   10.44
   5  -4  -6  519.07   10.49
  -5  -4   6  519.05   10.54
  -5   4   6  560.30   10.66
  -5  -4   6  549.00   11.52
   5   4  -6  551.16   11.08
  -5   4   6  540.38   10.53
   5  -4  -6  532.38   10.48
   5   4  -6  519.03   10.41
   5  -4  -5  106.32    3.03
   5   4  -5   99.14    3.25
   5  -4  -5  100.76    2.85
  -5  -4   5  105.10    3.02
  -5   4   5  100.69    3.01
   5   4  -5  101.83    3.37
  -5  -4   5   95.21    3.50
  -5   4   5  105.44    2.92
   5  -4  -5  100.54    2.91
   5  -4  -4  836.38   15.35
  -5  -4   4  821.17   15.20
  -5   4   4  801.12   15.21
   5   4  -4  809.44   15.93
  -5  -4   4  825.73   16.31
  -5   4   4  820.03   15.00
   5  -4  -4  817.26   14.99
   5  -4  -3  430.34    8.72
   5   4  -3  416.37    9.16
   5  -4  -3  403.83    8.17
  -5  -4   3  417.08    9.17
  -5   4   3  418.55    8.26
   5  -4  -2    6.64    0.72
   5   4  -2    8.81    0.93
  -5  -4   2    6.91    0.82
  -5  -4   1   15.79    1.21
   5  -4  -1   17.10    1.17
   5   4  -1   14.88    1.21
  -5  -4   1   16.14    1.33
   5   4  -1   15.03    1.13
  -5   4   0    6.95    0.67
  -5  -4   0    7.26    0.85
   5  -4   0    7.65    0.80
  -5   4   0    8.32    0.81
  -5  -4   0    6.95    0.91
   5   4   0    5.88    0.74
  -5   4  -1   42.82    1.95
  -5  -4  -1   42.42    2.22
   5   4   1   42.91    2.08
  -5   4  -1   37.04    1.68
   5   4   1   42.13    2.01
   5  -4   2  440.86    9.54
   5   4   2  416.36    9.49
  -5  -4  -2  454.08   10.02
   5   4   2  440.91    9.56
  -5   4  -2  429.03    9.06
   5  -4   3   61.48    2.57
   5   4   3   53.17    2.39
  -5  -4  -3   52.52    2.57
   5   4   3   54.40    2.50
   5  -4   4   97.65    3.53
   5   4   4   90.83    3.25
  -5  -4  -4   94.11    3.58
  -5  -4  -4   88.67    3.51
  -5  -4  -5    4.92    0.82
  -5  -4  -5    6.03    0.91
  -5  -4  -6  143.56    4.64
  -5  -4  -6  131.99    4.74
   5  -4   7    2.23    0.64
  -5  -4  -7    1.75    0.55
  -5  -4  -7    2.04    0.64
   5  -4   8    3.29    0.79
  -5  -4  -8    3.09    0.71
  -5  -4  -8    2.85    0.77
   5  -4   9   23.17    1.91
  -5  -4  -9   18.51    1.60
  -5  -4  -9   17.93    1.74
   5  -4  10   -0.15    0.46
  -5  -4 -10    0.12    0.56
  -5  -4 -10    0.46    0.54
   5  -4  11   42.96    2.90
  -5  -4 -11   42.27    2.47
  -5  -4 -11   45.56    2.98
   5  -4  12  210.81    7.17
  -5  -4 -12  197.78    6.07
  -5  -4 -12  217.05    7.21
   5  -4  13   47.59    3.21
  -5  -4 -13   44.28    3.09
   5  -4  14   32.17    2.71
  -5  -4 -14   28.90    2.57
   5  -4  15    0.19    0.58
   5  -4  16    6.39    1.36
   5  -5 -19   44.16    2.99
   5  -5 -18    0.48    0.54
   5  -5 -17   98.81    4.34
   5  -5 -16    6.16    1.07
  -5  -5  15   13.75    1.05
  -5  -5  15   14.62    1.24
   5  -5 -15   14.10    1.52
  -5  -5  14   59.68    2.60
   5  -5 -14   57.42    2.95
  -5  -5  13   16.94    1.12
   5  -5 -13   17.54    1.05
  -5   5  13   14.11    1.34
  -5  -5  13   15.50    1.39
  -5  -5  13   16.29    1.35
   5  -5 -13   15.06    1.45
  -5  -5  12    7.33    0.76
  -5   5  12    7.17    0.94
  -5  -5  12    7.18    0.94
   5  -5 -12    6.73    0.68
  -5  -5  12    8.59    1.01
   5  -5 -12    7.13    0.98
  -5  -5  11  584.31   11.57
  -5   5  11  578.98   12.26
  -5  -5  11  574.83   12.22
   5  -5 -11  588.49   11.41
  -5  -5  11  608.23   12.59
   5  -5 -11  593.32   12.56
  -5   5  10   64.43    2.60
  -5  -5  10   62.98    2.57
   5  -5 -10   61.92    2.21
  -5  -5  10   61.67    2.29
  -5  -5  10   65.60    2.85
   5  -5  -9  161.29    4.15
  -5  -5   9  164.16    4.48
   5   5  -9  157.03    4.27
  -5   5   9  163.31    4.50
  -5  -5   9  162.62    4.96
  -5   5   9  159.54    4.63
   5  -5  -8  113.83    3.31
  -5  -5   8  114.98    3.44
  -5   5   8  112.56    3.41
   5   5  -8  109.45    3.29
   5  -5  -8  115.03    3.36
  -5  -5   8  124.12    4.15
   5  -5  -8  109.21    3.27
  -5   5   8  119.68    3.64
   5   5  -8  116.93    3.29
   5  -5  -7    0.38    0.30
  -5  -5   7    0.06    0.24
  -5   5   7    0.06    0.22
   5   5  -7    0.28    0.27
   5  -5  -7    0.46    0.30
  -5  -5   7    0.92    0.41
  -5   5   7   -0.07    0.28
   5  -5  -7    0.28    0.25
   5   5  -7    0.49    0.30
   5  -5  -6   67.66    2.44
   5  -5  -6   65.09    2.42
   5   5  -6   64.57    2.22
   5  -5  -6   63.21    2.22
  -5  -5   6   70.18    2.32
  -5   5   6   70.46    2.35
  -5  -5   6   68.34    2.96
  -5   5   6   72.63    2.55
   5  -5  -6   66.19    2.20
   5   5  -6   60.35    2.13
   5  -5  -5  138.43    3.89
  -5  -5   5  135.14    3.56
  -5   5   5  139.34    3.60
  -5  -5   5  145.09    4.59
   5  -5  -5  136.79    3.78
   5  -5  -5  133.66    3.51
   5   5  -5  128.39    3.46
  -5   5   5  143.62    3.86
   5  -5  -4    6.98    0.77
  -5  -5   4    9.00    0.73
  -5   5   4    8.80    0.73
  -5  -5   4    9.59    1.09
   5  -5  -4    8.39    0.78
  -5   5   4    9.46    0.84
  -5  -5   3  132.77    3.48
  -5   5   3  136.05    3.51
   5  -5  -3  139.13    3.99
   5  -5  -3  132.27    3.67
  -5  -5   3  141.15    4.46
  -5   5   3  137.86    3.75
   5  -5  -2   47.85    2.10
  -5  -5   2   43.39    2.27
   5  -5  -1   52.93    2.28
  -5  -5   1   52.01    2.58
  -5  -5   1   53.41    2.54
   5  -5   0  253.42    6.26
  -5  -5   0  244.36    6.55
  -5   5   0  244.11    5.87
  -5  -5   0  245.12    6.73
  -5  -5  -1   17.43    1.44
   5  -5   1   20.91    1.45
  -5  -5  -1   18.11    1.52
  -5   5  -1   18.07    1.23
  -5  -5  -2  167.79    5.24
  -5   5  -2  160.49    4.55
  -5  -5  -3   86.16    3.55
  -5   5  -3   85.45    3.10
   5  -5   4    7.14    0.94
  -5  -5  -4    7.31    1.02
  -5   5  -4    7.67    0.93
  -5  -5  -5    0.23    0.37
  -5  -5  -6    0.70    0.53
   5  -5   7  434.81   10.54
  -5  -5  -7  436.19   10.40
  -5  -5  -7  451.36   11.05
   5  -5   8   78.42    3.56
  -5  -5  -8   79.00    3.44
  -5  -5  -8   78.44    3.79
   5  -5   9   14.92    1.58
  -5  -5  -9   13.16    1.38
   5  -5  10   57.74    3.21
  -5  -5 -10   55.16    2.85
  -5  -5 -10   54.51    3.29
   5  -5  11   40.88    2.79
  -5  -5 -11   41.04    2.47
  -5  -5 -11   37.44    2.81
   5  -5  12    0.17    0.68
  -5  -5 -12    0.36    0.61
   5  -5  13    0.18    0.59
  -5  -5 -13   -0.57    0.64
   5  -5  14   20.39    2.18
  -5  -5 -14   23.79    2.36
   5  -5  15   45.09    3.30
   5  -6 -18    0.16    0.64
   5  -6 -17   12.66    1.59
   5  -6 -16   53.38    3.13
  -5  -6  15    0.51    0.52
   5  -6 -15    0.42    0.51
  -5  -6  14   21.26    1.42
  -5  -6  14   22.74    1.69
   5  -6 -14   22.99    1.89
  -5  -6  13   36.10    1.84
  -5  -6  13   39.01    2.25
   5  -6 -13   36.33    1.73
  -5  -6  12    2.12    0.64
  -5  -6  12    2.51    0.54
   5  -6 -12    2.24    0.49
  -5  -6  11   17.40    1.25
   5  -6 -11   20.55    1.29
  -5   6  11   17.60    1.35
  -5  -6  11   16.39    1.31
  -5  -6  11   18.62    1.59
  -5   6  10   15.58    1.19
  -5  -6  10   15.12    1.18
  -5  -6  10   15.30    1.18
   5  -6 -10   17.84    1.20
  -5  -6  10   14.15    1.39
   5  -6  -9   37.40    1.82
  -5   6   9   38.18    1.84
  -5  -6   9   37.01    1.82
   5   6  -9   37.33    1.73
  -5  -6   9   36.16    2.22
   5  -6  -8   43.10    1.97
  -5   6   8   45.23    1.94
  -5  -6   8   40.84    1.86
   5   6  -8   40.34    1.76
   5  -6  -8   42.13    1.80
  -5  -6   8   47.31    2.55
   5  -6  -7   12.02    1.08
  -5  -6   7   10.43    0.85
  -5   6   7   10.11    0.83
   5  -6  -7    9.68    0.92
   5   6  -7    9.73    0.81
   5  -6  -7    9.73    0.81
  -5  -6   7   10.93    1.23
   5  -6  -7   10.33    0.82
   5   6  -7   10.91    0.84
  -5   6   7   10.55    1.07
   5  -6  -6  255.07    6.23
   5  -6  -6  242.15    6.11
  -5  -6   6  247.00    5.58
  -5   6   6  251.20    5.62
   5   6  -6  246.19    5.49
   5  -6  -6  246.98    5.51
  -5  -6   6  254.57    6.98
  -5   6   6  250.98    6.20
   5  -6  -6  246.27    5.46
   5   6  -6  238.20    5.40
   5  -6  -5   19.63    1.35
   5   6  -5   19.22    1.07
   5  -6  -5   20.31    1.09
  -5  -6   5   19.30    1.07
  -5   6   5   21.06    1.12
  -5  -6   5   20.47    1.69
   5  -6  -5   22.60    1.43
   5  -6  -5   20.69    1.08
   5   6  -5   18.56    1.02
  -5   6   5   19.04    1.36
   5  -6  -4    4.23    0.65
   5  -6  -4    6.06    0.79
  -5  -6   4    5.80    0.57
  -5   6   4    6.01    0.58
  -5  -6   4    5.79    0.94
   5  -6  -4    4.89    0.53
   5   6  -4    4.65    0.51
  -5   6   4    6.12    0.77
  -5  -6   3  182.10    4.30
  -5   6   3  187.00    4.35
   5  -6  -3  190.61    5.20
   5  -6  -3  188.79    4.96
  -5  -6   3  182.65    5.68
  -5   6   3  188.90    5.00
  -5  -6   2   36.83    1.48
  -5   6   2   38.16    1.52
   5  -6  -2   40.68    2.07
  -5  -6   2   38.92    2.31
   5  -6  -1  127.16    4.04
  -5  -6   1  118.53    4.42
  -5  -6   1  122.96    4.43
   5  -6   0   49.97    2.41
  -5  -6   0   53.54    2.78
  -5  -6   0   52.10    2.71
  -5   6  -1    8.11    0.94
  -5  -6  -1    6.13    0.97
  -5  -6  -1    8.12    1.08
   5  -6   1    5.64    0.84
  -5  -6  -2  359.90    9.37
   5  -6   2  380.61    9.02
  -5  -6  -2  386.44    9.48
   5  -6   3  145.20    4.77
  -5  -6  -3  153.21    5.20
  -5  -6  -4   14.95    1.49
  -5  -6  -5    0.13    0.49
  -5  -6  -6   44.71    2.62
   5  -6   7   43.44    2.58
  -5  -6  -7   44.98    2.64
   5  -6   8   39.42    2.50
  -5  -6  -8   39.52    2.47
   5  -6   9   22.77    1.96
  -5  -6  -9   20.52    1.80
  -5  -6  -9   23.77    2.21
   5  -6  10    3.19    0.87
  -5  -6 -10    3.73    0.90
  -5  -6 -10    5.21    1.13
   5  -6  11   83.52    4.08
  -5  -6 -11   82.58    3.74
  -5  -6 -11   87.48    4.45
   5  -6  12   95.02    4.48
  -5  -6 -12   88.16    4.59
   5  -6  13    0.19    0.59
  -5  -6 -13    0.81    0.79
   5  -6  14    0.39    0.79
   5  -6  15   -0.66    0.67
  -5  -7  15   97.96    3.93
  -5  -7  14   54.20    2.51
  -5  -7  14   57.82    2.95
  -5  -7  13    3.02    0.80
  -5  -7  13    2.15    0.57
  -5  -7  12    3.69    0.86
  -5  -7  12    3.08    0.65
   5  -7 -12    3.68    0.68
  -5  -7  11   39.88    2.45
   5  -7 -11   38.75    1.99
  -5  -7  11   40.28    2.11
  -5  -7  10   43.49    2.59
   5  -7 -10   47.65    2.20
  -5  -7  10   40.65    2.15
  -5  -7  10   43.11    2.04
   5  -7  -9   41.93    2.31
  -5  -7   9   38.11    2.46
   5  -7  -9   40.67    2.07
  -5   7   9   47.30    2.01
  -5  -7   9   40.77    1.89
   5  -7  -8   31.29    1.96
  -5  -7   8   36.25    2.35
  -5   7   8   32.28    1.57
  -5  -7   8   34.34    1.65
   5  -7  -8   34.34    1.90
   5  -7  -7    0.59    0.41
  -5   7   7    0.68    0.31
  -5  -7   7    0.96    0.34
   5  -7  -7    0.45    0.38
   5  -7  -7    0.71    0.31
  -5  -7   7    0.66    0.50
   5  -7  -6   10.96    1.09
  -5   7   6   11.18    0.83
  -5  -7   6   10.31    0.81
   5  -7  -6   10.81    0.80
  -5  -7   6   10.41    1.29
   5  -7  -6   12.43    1.18
   5  -7  -5   79.87    3.08
  -5  -7   5   70.68    2.21
  -5   7   5   70.40    2.21
   5  -7  -5   73.87    2.19
  -5  -7   5   73.28    3.48
   5  -7  -5   72.79    2.95
   5   7  -5   71.75    2.15
   5  -7  -4   -0.09    0.34
   5  -7  -4    0.66    0.44
  -5  -7   4    0.25    0.23
  -5   7   4    0.34    0.22
   5   7  -4    0.12    0.22
   5  -7  -4    0.40    0.24
  -5  -7   4    0.13    0.49
   5  -7  -4    0.31    0.25
   5   7  -4   -0.08    0.27
   5  -7  -3  247.42    5.24
  -5  -7   3  250.19    5.29
  -5   7   3  254.31    5.33
   5  -7  -3  261.49    6.68
  -5  -7   3  263.38    7.47
   5  -7  -3  255.82    5.25
   5   7  -3  245.02    5.21
  -5  -7   2  127.36    3.13
  -5   7   2  129.77    3.16
   5  -7  -2  126.10    4.23
   5  -7  -2  119.75    3.02
  -5  -7   2  127.88    4.77
   5  -7  -1   19.87    1.55
  -5  -7   1   21.80    1.04
  -5   7   1   21.20    1.04
  -5  -7   1   21.85    1.84
  -5  -7   1   17.63    1.69
   5  -7   0   57.52    2.71
  -5  -7   0   51.60    2.90
  -5  -7   0   49.45    2.87
   5  -7   1   18.65    1.53
  -5  -7  -1   14.82    1.55
  -5  -7  -1   18.76    1.71
   5  -7   2  127.04    4.48
  -5  -7  -2  127.62    4.91
  -5  -7  -2  132.14    4.92
   5  -7   3  115.07    4.28
  -5  -7  -3  114.05    4.54
   5  -7   4   43.70    2.54
  -5  -7  -4   42.06    2.66
  -5  -7  -5   64.06    3.33
  -5  -7  -6   51.16    2.97
   5  -7   7    8.37    1.20
  -5  -7  -7    9.13    1.31
   5  -7   8   -0.14    0.57
  -5  -7  -8    0.15    0.55
   5  -7   9   13.75    1.62
  -5  -7  -9   11.80    1.49
   5  -7  10   23.08    2.09
  -5  -7 -10   20.29    1.89
   5  -7  11    3.67    0.99
  -5  -7 -11    7.88    1.24
   5  -7  12   42.65    2.97
   5  -7  13    0.56    0.58
   5  -7  14    0.72    0.63
  -5  -8  14    9.97    1.17
  -5  -8  14   11.75    1.45
  -5  -8  13    6.67    1.11
  -5  -8  13    6.35    0.94
  -5  -8  12   19.22    1.55
  -5  -8  12   18.16    1.82
   5  -8 -12   20.02    1.50
   5  -8 -11   57.99    3.06
  -5  -8  11   64.19    2.90
  -5  -8  11   61.16    3.31
   5  -8 -11   63.03    2.78
   5  -8 -10    8.24    1.16
  -5  -8  10   11.02    1.45
  -5  -8  10    7.19    1.00
   5  -8 -10    8.92    1.07
   5  -8  -9   87.90    3.73
   5  -8  -9  100.29    3.64
  -5  -8   9   99.75    4.30
   5  -8  -8   13.52    1.29
  -5  -8   8   16.75    1.72
   5  -8  -8   14.60    1.43
   5  -8  -7  132.21    4.36
  -5   8   7  121.38    3.31
  -5  -8   7  134.40    5.12
   5  -8  -7  125.69    4.43
   5  -8  -6   46.18    2.41
  -5   8   6   41.07    1.57
  -5  -8   6   49.15    2.93
   5  -8  -6   42.65    2.36
   5  -8  -5   56.34    2.70
  -5   8   5   50.59    1.69
  -5  -8   5   52.21    3.08
   5  -8  -5   55.53    2.70
   5  -8  -4   11.42    1.19
  -5   8   4    9.05    0.62
  -5  -8   4   11.21    1.43
   5  -8  -4   11.24    1.21
   5  -8  -3   47.17    2.51
  -5   8   3   44.41    1.42
   5  -8  -3   44.83    1.37
  -5  -8   2    7.14    1.19
   5  -8  -2    8.78    1.08
   5  -8  -2    7.71    0.51
  -5   8   2    8.42    0.56
   5  -8  -1    8.66    1.12
  -5  -8   1    7.20    1.23
  -5  -8   1    7.61    1.21
  -5   8   1    7.77    0.55
  -5  -8   0    5.11    1.09
   5  -8   0    9.17    1.18
  -5   8   0    7.13    0.56
  -5  -8   0    7.48    1.21
   5  -8   1  107.00    4.17
  -5  -8  -1  114.61    4.71
  -5  -8  -1  105.36    4.62
  -5  -8  -2   59.71    3.40
   5  -8   2   59.53    3.03
  -5  -8  -2   64.82    3.44
  -5  -8  -3    2.65    0.82
  -5  -8  -3    2.80    0.89
   5  -8   3    1.57    0.60
  -5  -8  -4    2.88    0.91
  -5  -8  -4    3.29    0.85
   5  -8   4    3.93    0.87
  -5  -8  -5    2.12    0.82
  -5  -8  -5    3.17    0.86
  -5  -8  -6   11.33    1.49
   5  -8   7    0.59    0.55
  -5  -8  -7    1.61    0.73
   5  -8   8   40.60    2.73
  -5  -8  -8   41.55    2.83
   5  -8   9   13.58    1.66
  -5  -8  -9   15.49    1.76
   5  -8  10    4.34    1.12
  -5  -8 -10    5.92    1.18
  -5  -9  14    2.49    0.92
   5  -9 -13    0.15    0.67
  -5  -9  13    0.48    0.68
  -5  -9  13    0.24    0.50
   5  -9 -12    8.33    1.29
  -5  -9  12    8.24    1.36
  -5  -9  12    6.79    1.04
   5  -9 -11   11.65    1.48
  -5  -9  11   10.86    1.29
  -5  -9  11   12.10    1.60
   5  -9 -11   12.43    1.30
   5  -9 -10    4.40    0.94
  -5  -9  10    3.81    0.83
   5  -9 -10    2.35    0.66
  -5  -9  10    3.13    0.91
   5  -9  -9   30.34    2.04
  -5  -9   9   33.30    2.18
  -5  -9   9   31.07    2.48
   5  -9  -9   34.96    2.32
   5  -9  -8    3.94    0.87
  -5  -9   8    4.70    1.07
   5  -9  -8    4.77    0.89
   5  -9  -7    1.40    0.63
   5  -9  -7    3.79    0.81
  -5  -9   7    3.03    0.90
   5  -9  -6  118.74    4.34
  -5  -9   6  109.65    4.85
   5  -9  -6  107.76    4.25
   5  -9  -5    0.98    0.55
  -5  -9   5    0.34    0.54
   5  -9  -5    0.24    0.49
   5  -9  -4  136.36    4.79
  -5  -9   4  122.82    5.22
   5  -9  -3   44.44    2.56
   5  -9  -2   37.37    2.34
  -5  -9   2   42.44    2.91
   5  -9  -1   22.27    1.84
  -5  -9   1   26.00    2.29
  -5  -9   1   20.90    2.10
   5  -9   0   29.96    2.15
  -5  -9   0   31.65    2.50
  -5  -9   0   29.96    2.46
  -5  -9  -1    0.18    0.54
   5  -9   1    0.13    0.38
  -5  -9  -1    0.34    0.52
   5  -9   2   32.92    2.33
  -5  -9  -2   36.77    2.72
  -5  -9  -2   40.64    2.90
  -5  -9  -3    3.48    0.98
  -5  -9  -3    2.07    0.78
   5  -9   3    2.57    0.79
  -5  -9  -4  122.83    5.47
   5  -9   4  128.32    5.04
  -5  -9  -4  130.13    5.34
  -5  -9  -5   65.21    3.90
  -5  -9  -5   76.41    3.98
  -5  -9  -6  262.22    8.27
  -5  -9  -7   10.44    1.53
  -5  -9  -8   24.58    2.27
  -5  -9  -9    6.83    1.30
  -5  -9 -10    4.52    1.13
  -5 -10  12    1.45    0.71
  -5 -10  11   48.46    2.83
   5 -10 -10    4.45    0.91
  -5 -10  10    3.63    0.89
   5 -10 -10    5.39    1.13
   5 -10  -9   34.75    2.30
  -5 -10   9   28.78    2.19
  -5 -10   9   28.93    2.58
   5 -10  -9   30.37    2.33
   5 -10  -8   51.29    2.88
  -5 -10   8   58.60    3.57
   5 -10  -8   50.56    2.97
   5 -10  -7    2.39    0.75
  -5 -10   7    1.87    0.91
   5 -10  -7    1.61    0.63
   5 -10  -6    2.36    0.78
  -5 -10   6    2.25    0.89
   5 -10  -6    1.62    0.67
   5 -10  -5   66.50    3.34
  -5 -10   5   65.12    3.83
  -5 -10   4    0.75    0.66
   5 -10  -4   -0.28    0.59
   5 -10  -3   43.33    2.67
   5 -10  -2   21.91    1.94
  -5 -10   2   23.99    2.31
   5 -10  -1   13.92    1.58
  -5 -10   1   17.15    1.97
  -5 -10   1   14.50    1.86
  -5 -10   0   11.93    1.68
   5 -10   0   11.49    1.44
  -5 -10   0   11.51    1.66
  -5 -10  -1    6.66    1.30
  -5 -10  -1    7.35    1.32
   5 -10   1    6.98    1.20
  -5 -10  -2   -0.20    0.78
  -5 -10  -2    0.19    0.61
   5 -10   2   -0.45    0.63
  -5 -10  -3    2.28    0.90
   5 -10   3    2.80    0.85
  -5 -10  -4    2.09    0.86
  -5 -10  -5    6.67    1.33
   5 -11  -7    0.31    0.69
   6   0 -21   -0.18    0.63
   6   0 -20   24.18    2.27
   6   0 -19   -0.16    0.52
   6   0 -18   12.18    1.51
  -6   0  17    0.29    0.39
   6   0 -17   -0.14    0.50
  -6   0  16  147.46    5.30
   6   0 -16  163.10    5.45
  -6   0  15   -0.25    0.45
   6   0 -15   -0.12    0.42
  -6   0  14  231.22    6.62
   6   0 -14  229.87    6.41
  -6   0  13    1.09    0.46
   6   0 -13    0.28    0.20
  -6   0  12  265.78    6.95
   6   0 -12  266.76    5.76
  -6   0  11    0.66    0.35
   6   0 -11    0.11    0.26
  -6   0  10  293.34    7.08
   6   0 -10  294.04    6.52
  -6   0  10  282.83    6.51
  -6   0   9    0.57    0.33
   6   0  -9    0.48    0.33
  -6   0   9   -0.14    0.25
  -6   0   8  118.63    3.66
  -6   0   8  111.65    3.57
   6   0  -8  118.17    3.64
   6   0  -8  115.62    3.53
  -6   0   7    0.08    0.27
   6   0  -7    0.32    0.34
  -6   0   7    0.07    0.24
  -6   0   7    0.10    0.10
  -6   0   6   55.56    1.65
   6   0  -6   55.97    1.72
  -6   0   6   57.63    2.49
   6   0  -6   57.74    2.47
  -6   0   6   55.77    2.25
   6   0  -5    0.04    0.09
  -6   0   5    0.12    0.19
   6   0  -5    0.09    0.18
  -6   0   5    0.27    0.29
   6   0  -5    0.34    0.34
  -6   0   4   13.52    0.87
   6   0  -4   13.26    0.94
  -6   0   4   15.20    1.28
   6   0  -4   14.01    1.23
  -6   0   3    0.05    0.23
   6   0  -3    0.56    0.29
   6   0  -3    0.09    0.34
   6   0  -3    0.25    0.09
  -6   0   2  457.13    9.23
   6   0  -2  453.50    9.43
   6   0  -2  455.27   10.08
  -6   0   2  445.42    7.86
   6   0  -2  441.06    7.89
  -6   0   1    0.41    0.31
   6   0  -1    1.03    0.41
   6   0  -1    0.29    0.41
  -6   0   1    0.40    0.35
  -6   0   0 2416.66   41.56
   6   0   0 2416.19   41.90
  -6   0   0 2417.66   42.41
  -6   0   0 2298.17   40.07
   6   0   1    0.09    0.30
  -6   0  -1    0.16    0.32
  -6   0  -1    0.31    0.36
  -6   0  -1    0.20    0.17
   6   0   2  201.76    5.71
  -6   0  -2  190.38    5.63
   6   0   2  197.16    5.69
  -6   0  -2  199.82    4.63
   6   0   3    0.65    0.38
   6   0   3   -0.30    0.45
  -6   0  -3    0.10    0.29
  -6   0  -3   -0.06    0.22
  -6   0  -4    0.49    0.35
   6   0   4    0.23    0.31
  -6   0  -4    0.10    0.31
   6   0   4    0.10    0.36
  -6   0  -4   -0.14    0.23
  -6   0  -5    0.21    0.29
   6   0   5    0.10    0.38
  -6   0  -5    0.16    0.26
  -6   0  -6   30.44    1.91
   6   0   6   31.34    1.95
  -6   0  -6   33.09    1.86
   6   0   7   -0.14    0.41
   6   0   7    0.20    0.38
  -6   0  -7   -0.10    0.31
  -6   0  -7    0.29    0.34
  -6   0  -8  872.62   17.80
   6   0   8  906.22   17.96
  -6   0  -8  901.36   18.19
   6   0   9    0.15    0.45
   6   0   9    0.20    0.41
  -6   0  -9    0.94    0.50
   6   0  10   48.73    3.01
   6   0  10   42.82    2.25
  -6   0 -10   53.26    2.83
   6   0  11   -0.32    0.52
   6   0  11    0.37    0.43
  -6   0 -11    0.42    0.58
   6   0  12   12.13    1.65
  -6   0 -12    9.62    1.36
   6   0  13    0.70    0.66
  -6   0 -13   -0.65    0.67
   6   0  14    7.98    1.39
  -6   0 -14    4.70    1.13
   6   0  15   -0.18    0.75
  -6   0 -15   -0.94    0.78
   6   0  16   93.46    4.61
   6  -1 -21   -0.36    0.65
   6  -1 -20   93.90    4.45
   6   1 -20   98.83    4.65
   6  -1 -19    0.16    0.53
   6   1 -19   -0.16    0.57
   6   1 -18    2.29    0.82
   6  -1 -18    1.92    0.67
  -6  -1  17   23.62    2.00
   6  -1 -17   27.37    2.09
  -6  -1  16   19.67    1.76
   6  -1 -16   20.49    1.77
  -6  -1  15   30.97    2.13
   6  -1 -15   30.67    2.08
  -6  -1  14  138.63    4.80
   6  -1 -14  145.82    4.75
  -6  -1  13   29.79    1.95
   6   1 -13   28.49    1.26
   6  -1 -13   29.13    1.29
  -6  -1  13   28.39    1.37
   6  -1 -13   32.78    1.97
  -6  -1  12  320.37    7.86
   6   1 -12  310.10    6.59
   6  -1 -12  313.72    6.75
  -6  -1  12  314.10    6.95
   6  -1 -12  323.99    7.67
  -6  -1  11  340.88    8.19
  -6  -1  11  338.50    7.66
   6   1 -11  345.03    7.26
   6  -1 -11  344.68    7.50
   6  -1 -11  355.10    7.93
  -6  -1  10    0.52    0.32
   6   1 -10    1.48    0.36
  -6  -1  10    1.02    0.46
   6  -1 -10    0.42    0.33
   6  -1 -10    0.48    0.30
  -6  -1   9  122.79    3.83
   6   1  -9  122.75    3.55
  -6  -1   9  124.77    3.94
   6  -1  -9  120.63    3.77
   6  -1  -9  126.94    3.47
  -6  -1   8   15.07    0.64
   6  -1  -8   14.24    0.62
  -6  -1   8   16.54    1.19
  -6  -1   8   12.93    1.16
   6   1  -8   13.74    1.08
   6  -1  -8   16.21    1.23
   6  -1  -8   15.61    1.11
   6  -1  -8   15.16    0.91
   6  -1  -7   63.07    1.81
  -6  -1   7   62.60    1.82
  -6  -1   7   65.39    2.51
   6  -1  -7   60.51    2.55
  -6  -1   7   64.60    2.76
   6   1  -7   63.01    2.49
   6  -1  -7   59.59    1.81
  -6   1   6   48.95    1.47
   6  -1  -6   45.89    1.63
  -6  -1   6   47.57    1.65
  -6  -1   6   46.02    2.02
   6  -1  -6   46.44    2.22
  -6  -1   6   45.36    2.30
   6   1  -6   42.58    2.09
  -6   1   6   44.11    2.06
   6  -1  -6   49.04    1.34
   6   1  -6   46.09    1.55
   6   1  -5 1469.81   24.73
  -6   1   5 1442.58   24.86
  -6  -1   5 1416.39   25.21
   6  -1  -5 1425.38   25.22
  -6  -1   5 1420.32   26.63
   6  -1  -5 1426.62   26.41
   6   1  -5 1411.20   26.22
  -6   1   5 1347.12   26.07
  -6  -1   4  247.17    5.59
  -6   1   4  250.60    5.36
   6  -1  -4  252.15    5.64
  -6  -1   4  253.00    6.59
   6  -1  -4  252.59    6.40
  -6   1   4  227.31    6.10
   6   1  -4  245.11    6.30
  -6  -1   3  549.55   10.74
   6  -1  -3  548.65   10.78
   6  -1  -3  529.25   11.45
   6   1  -3  523.28   11.43
   6   1  -3  535.35    9.82
  -6   1   2   27.57    1.38
   6   1  -2   30.05    1.59
  -6  -1   2   31.37    1.59
   6  -1  -2   31.17    1.61
   6  -1  -2   29.21    1.78
   6   1  -2   29.32    1.78
  -6  -1   2   27.72    1.10
   6   1  -2   29.00    1.10
  -6   1   1   24.50    1.39
   6   1  -1   23.82    1.50
  -6  -1   1   26.91    1.53
   6  -1  -1   28.03    1.58
  -6  -1   1   26.25    1.78
   6  -1  -1   29.23    1.78
  -6   1   1   26.30    1.68
   6   1  -1   26.22    1.71
   6   1  -1   26.71    1.13
  -6   1   1   25.90    0.75
   6  -1   0    4.22    0.66
   6   1   0    4.36    0.69
  -6   1   0    4.39    0.62
  -6  -1   0    4.08    0.64
  -6  -1   0    4.92    0.84
  -6   1   0    4.03    0.35
   6   1   0    3.97    0.47
  -6   1  -1   97.77    3.34
   6   1   1   96.74    3.57
  -6  -1  -1  104.01    3.53
   6  -1   1  101.91    3.60
  -6  -1  -1  111.73    4.01
  -6   1  -1   95.71    3.56
  -6   1  -1  100.88    2.61
   6   1   1  108.07    2.97
  -6  -1  -1  103.70    2.87
   6   1   2  160.39    4.98
   6  -1   2  160.03    4.95
   6  -1   2  161.78    4.98
  -6  -1  -2  169.63    5.25
  -6   1  -2  156.29    4.85
   6   1   2  153.95    4.85
  -6   1  -2  161.03    3.91
   6   1   2  165.54    4.19
  -6  -1  -2  164.40    4.13
   6   1   3  785.58   16.48
   6  -1   3  808.47   16.51
   6  -1   3  810.45   16.37
  -6  -1  -3  818.61   16.70
   6   1   3  769.13   16.13
  -6   1  -3  810.27   16.08
  -6   1  -3  808.72   15.08
  -6  -1  -3  822.66   15.36
  -6   1  -4   23.08    1.64
   6   1   4   24.28    1.81
   6  -1   4   29.23    1.97
  -6  -1  -4   27.05    1.82
   6  -1   4   26.05    1.81
  -6  -1  -4   30.88    2.01
   6   1   4   25.95    1.75
  -6  -1  -4   27.19    1.55
  -6   1  -4   26.06    1.43
  -6  -1  -5   -0.11    0.32
   6   1   5   -0.10    0.39
  -6  -1  -5    0.76    0.35
  -6   1  -5    0.30    0.27
  -6  -1  -6   43.50    2.43
   6   1   6   42.61    2.23
   6  -1   6   43.11    2.35
  -6   1  -6   41.68    2.10
  -6  -1  -6   47.75    2.33
   6   1   7   -0.28    0.40
  -6  -1  -7    0.54    0.41
   6  -1   7    0.43    0.45
   6   1   7   -0.10    0.37
  -6  -1  -7    0.21    0.42
  -6   1  -7    1.16    0.45
   6  -1   8   13.61    1.55
   6   1   8   15.11    1.59
  -6  -1  -8   14.60    1.33
   6   1   8   16.99    1.39
   6  -1   8   14.92    1.41
  -6  -1  -8   15.70    1.45
  -6   1  -8   17.36    1.48
   6   1   9    1.36    0.61
   6  -1   9   -0.15    0.49
   6   1   9    0.91    0.46
  -6  -1  -9    0.82    0.44
   6  -1   9    0.32    0.43
  -6  -1  -9    0.12    0.41
  -6   1  -9    0.35    0.41
   6   1  10    2.82    0.78
   6  -1  10    3.82    0.95
   6   1  10    2.65    0.61
  -6  -1 -10    2.30    0.57
  -6  -1 -10    2.00    0.67
  -6   1 -10    3.35    0.75
   6   1  11   68.83    3.67
   6  -1  11   68.12    3.70
   6   1  11   73.92    2.86
  -6  -1 -11   69.66    3.51
  -6   1 -11   78.45    3.67
   6   1  12   25.09    2.24
   6  -1  12   25.07    2.26
  -6  -1 -12   24.14    2.10
  -6   1 -12   29.03    2.27
   6  -1  13   96.98    4.59
  -6  -1 -13   98.41    4.48
  -6   1 -13   96.71    4.49
   6  -1  14    6.43    1.25
  -6  -1 -14    4.41    1.10
  -6   1 -14    5.93    1.22
   6  -1  15    2.94    1.02
  -6  -1 -15    3.21    1.01
  -6   1 -15    3.50    1.02
   6  -1  16   19.87    2.15
   6  -1  17    2.64    0.95
   6  -2 -21   -0.88    0.83
   6  -2 -20    9.49    1.45
   6  -2 -19    1.75    0.88
   6  -2 -18   11.66    1.43
  -6   2  17   28.88    2.21
  -6  -2  17   27.16    2.15
   6  -2 -17   33.18    2.31
  -6   2  16   12.26    1.38
  -6  -2  16   11.05    1.31
   6  -2 -16   13.17    1.46
  -6   2  15   74.43    3.39
  -6  -2  15   74.60    3.38
  -6  -2  15   70.01    2.27
   6  -2 -15   73.18    3.27
  -6   2  14    1.88    0.58
  -6  -2  14    2.23    0.67
  -6  -2  14    2.01    0.48
   6  -2 -14    1.40    0.52
  -6  -2  13   43.44    2.39
  -6   2  13   42.26    2.36
  -6  -2  13   42.58    1.99
   6  -2 -13   46.82    2.33
  -6   2  12    3.02    0.64
  -6  -2  12    3.72    0.73
   6  -2 -12    2.61    0.53
   6  -2 -12    2.63    0.61
  -6  -2  11   96.67    3.52
  -6   2  11  100.88    3.59
  -6  -2  11  100.93    3.46
   6   2 -11   97.47    2.97
   6  -2 -11   99.60    3.25
   6  -2 -11  104.49    3.39
  -6  -2  10  465.08    8.29
   6  -2 -10  454.21    8.17
  -6  -2  10  462.80    8.19
  -6  -2  10  475.81   10.16
  -6   2  10  450.98   10.07
   6  -2 -10  456.86    9.82
   6   2 -10  456.34    9.43
  -6  -2  10  464.52   10.07
   6  -2 -10  482.47    9.67
   6  -2  -9   23.72    0.88
  -6  -2   9   24.20    0.93
  -6  -2   9   24.27    1.52
  -6   2   9   24.52    1.53
   6  -2  -9   25.58    1.53
   6   2  -9   24.74    1.39
  -6  -2   9   23.71    1.55
   6  -2  -9   26.08    1.32
   6  -2  -8  147.10    3.28
  -6  -2   8  147.37    3.38
  -6  -2   8  153.42    4.30
  -6   2   8  143.50    4.24
   6  -2  -8  152.18    4.30
   6   2  -8  158.15    4.24
  -6  -2   8  148.53    4.48
   6  -2  -8  150.82    4.17
   6   2  -8  151.69    4.16
   6  -2  -8  151.58    3.67
   6  -2  -7  372.75    7.38
  -6  -2   7  391.53    7.53
  -6  -2   7  391.51    8.43
  -6   2   7  390.06    8.46
   6  -2  -7  368.93    8.38
   6   2  -7  380.28    8.43
  -6  -2   7  380.00    8.77
   6  -2  -7  378.49    8.23
   6   2  -7  387.96    8.23
   6   2  -7  396.72    7.97
   6  -2  -7  391.50    7.41
   6  -2  -6  581.86   11.16
  -6  -2   6  616.40   11.32
  -6  -2   6  598.83   12.01
  -6   2   6  606.65   12.07
   6  -2  -6  590.64   12.12
   6   2  -6  609.55   12.24
  -6  -2   6  589.07   12.49
   6   2  -6  621.18   11.51
   6  -2  -5    5.08    0.51
   6   2  -5    5.02    0.54
  -6  -2   5    5.40    0.56
   6  -2  -5    5.29    0.30
   6   2  -5    4.99    0.70
   6  -2  -5    5.26    0.69
  -6  -2   5    5.12    0.75
  -6   2   5    5.29    0.50
  -6  -2   5    4.37    0.59
  -6   2   5    5.02    0.63
   6  -2  -4    2.55    0.40
  -6  -2   4    1.73    0.37
  -6   2   4    2.15    0.37
   6   2  -4    2.46    0.57
   6  -2  -4    3.03    0.57
  -6  -2   4    2.19    0.53
  -6  -2   3   73.47    2.47
   6  -2  -3   69.96    2.37
  -6   2   3   70.51    2.33
   6  -2  -3   75.36    2.77
   6   2  -3   73.07    2.89
  -6  -2   3   75.91    2.32
   6  -2  -2  267.07    6.17
  -6   2   2  268.49    6.09
  -6  -2   2  273.24    6.26
   6  -2  -2  264.90    6.53
   6   2  -2  276.93    6.86
   6   2  -2  284.93    5.83
  -6  -2   2  279.12    5.93
   6  -2  -1    0.75    0.34
  -6   2   1    1.17    0.20
  -6  -2   1    0.31    0.20
  -6  -2   1    0.28    0.28
  -6   2   1    0.51    0.30
  -6  -2   1    0.10    0.31
   6   2  -1    0.36    0.37
   6  -2  -1    0.31    0.33
   6   2  -1    0.87    0.27
   6  -2   0    6.25    0.74
  -6  -2   0    5.63    0.73
  -6   2   0    4.43    0.65
  -6  -2   0    6.50    0.88
   6   2   0    5.35    0.58
   6  -2   1   91.60    3.23
  -6  -2  -1   94.65    3.28
  -6   2  -1   84.84    3.08
   6   2   1   95.65    3.46
  -6  -2  -1   91.65    3.55
   6   2   1   96.45    2.93
   6  -2   2  148.24    4.58
   6  -2   2  155.70    4.59
   6   2   2  152.09    4.67
  -6  -2  -2  145.12    4.81
   6   2   2  155.06    4.18
  -6  -2  -2  153.06    4.16
   6  -2   3    2.24    0.55
   6   2   3    1.78    0.58
  -6  -2  -3    2.12    0.58
   6  -2   3    2.14    0.56
   6   2   3    2.69    0.54
  -6  -2  -3    2.17    0.47
   6  -2   4   18.20    1.54
  -6  -2  -4   19.23    1.60
   6  -2   4   19.92    1.50
   6   2   4   18.91    1.47
   6   2   4   20.39    1.43
  -6  -2  -4   19.13    1.36
   6  -2   5    4.03    0.75
   6   2   5    4.64    0.76
  -6  -2  -5    4.67    0.85
  -6  -2  -5    2.50    0.58
   6   2   5    3.75    0.70
  -6  -2  -6   39.39    2.40
   6  -2   6   37.82    2.19
   6   2   6   42.36    2.16
  -6  -2  -6   39.33    2.18
   6  -2   7   67.95    3.43
  -6  -2  -7   76.46    3.39
   6   2   7   68.82    2.84
  -6  -2  -7   64.21    3.00
   6  -2   8   28.47    2.25
  -6  -2  -8   30.09    2.03
  -6  -2  -8   30.37    2.05
   6  -2   9   38.84    2.67
  -6  -2  -9   38.90    2.29
  -6  -2  -9   33.26    2.25
   6  -2  10   20.18    1.99
  -6  -2 -10   20.74    1.62
  -6  -2 -10   24.98    1.98
  -6   2 -10   24.32    1.90
   6  -2  11    0.85    0.68
  -6  -2 -11    0.61    0.45
  -6   2 -11    0.28    0.44
  -6  -2 -11   -0.15    0.45
   6  -2  12   -0.18    0.62
  -6  -2 -12   -0.09    0.34
  -6  -2 -12    0.16    0.45
  -6   2 -12    0.30    0.46
   6  -2  13   16.75    1.93
  -6  -2 -13   15.21    1.77
  -6   2 -13   15.38    1.77
   6  -2  14   61.14    3.65
  -6  -2 -14   55.45    3.43
  -6   2 -14   59.77    3.56
   6  -2  15    0.19    0.65
  -6  -2 -15   -0.19    0.63
  -6   2 -15   -0.19    0.67
   6  -2  16   13.68    1.84
   6  -3 -20  157.91    5.91
   6  -3 -19    6.87    1.24
   6  -3 -18   99.26    4.29
   6  -3 -17    3.51    0.84
  -6   3  16   53.81    2.95
  -6  -3  16   50.82    2.87
   6  -3 -16   55.32    2.88
  -6   3  15    1.88    0.65
  -6  -3  15    2.38    0.71
  -6  -3  15    2.05    0.56
   6  -3 -15    1.39    0.58
  -6   3  14    7.34    1.06
  -6  -3  14    7.34    1.05
  -6  -3  14    9.32    0.98
   6  -3 -14    9.27    1.08
  -6  -3  13  249.34    4.87
  -6   3  13  244.70    6.78
  -6  -3  13  253.30    6.84
  -6  -3  13  257.10    6.36
   6  -3 -13  260.13    6.64
  -6  -3  12   44.12    2.33
  -6   3  12   44.01    2.33
   6  -3 -12   45.85    2.03
  -6  -3  12   46.64    2.21
   6  -3 -12   44.20    2.17
  -6  -3  11   90.07    2.29
  -6   3  11   93.67    3.40
  -6  -3  11   90.13    3.34
   6  -3 -11   91.14    3.01
  -6  -3  11   89.35    3.24
   6  -3 -11   95.74    3.20
  -6  -3  10   11.48    1.08
  -6   3  10   11.09    1.07
   6   3 -10   12.85    1.03
   6  -3 -10   12.09    1.02
  -6  -3  10   11.12    1.07
   6  -3 -10   12.19    0.98
  -6  -3   9    9.18    0.93
  -6   3   9    9.63    0.95
   6   3  -9   11.38    1.01
   6  -3  -9    9.38    0.89
  -6  -3   9    9.98    1.04
   6   3  -9   11.46    1.01
   6  -3  -9   11.66    0.89
   6   3  -8  104.77    3.30
   6  -3  -8  103.85    3.34
  -6  -3   8  112.20    3.51
  -6   3   8  108.60    3.48
   6   3  -8  110.15    3.45
   6  -3  -8  104.17    3.29
  -6  -3   8  106.89    3.66
   6  -3  -8  102.66    3.29
   6   3  -8  105.24    3.29
   6  -3  -8  110.12    2.99
   6   3  -8  115.17    3.43
  -6  -3   7   57.26    2.31
  -6   3   7   58.02    2.32
   6   3  -7   54.43    2.34
   6  -3  -7   56.92    2.28
  -6  -3   7   56.61    2.54
   6  -3  -7   54.11    2.17
   6   3  -7   58.22    2.21
   6   3  -7   58.46    2.25
   6   3  -6   20.43    1.22
  -6  -3   6   20.70    1.28
  -6   3   6   20.33    1.28
   6   3  -6   19.74    1.37
   6  -3  -6   18.09    1.23
  -6  -3   6   17.92    1.38
   6   3  -5   15.84    1.07
  -6  -3   5   15.49    1.02
  -6  -3   5   16.51    1.13
  -6   3   5   16.90    1.14
   6   3  -5   15.08    1.20
  -6  -3   5   15.19    1.29
   6  -3  -5   17.11    1.19
  -6   3   5   18.34    0.81
   6  -3  -5   14.15    0.70
  -6  -3   4    3.02    0.50
   6  -3  -4    2.95    0.46
   6   3  -4    2.78    0.59
  -6  -3   4    4.86    0.75
   6  -3  -4    3.22    0.57
  -6   3   4    3.85    0.35
   6  -3  -3   39.52    1.74
  -6  -3   3   41.82    1.83
  -6   3   3   35.53    1.63
   6   3  -3   42.80    2.12
   6  -3  -3   40.93    1.92
  -6  -3   3   40.45    1.82
  -6   3   3   41.57    1.23
  -6  -3   2  206.43    5.10
  -6   3   2  192.40    4.89
   6  -3  -2  195.64    4.94
   6   3  -2  194.73    5.43
   6  -3  -2  204.54    5.23
  -6  -3   2  197.27    4.98
   6   3  -2  205.31    4.88
  -6   3   1  605.46   10.92
  -6  -3   1  583.65   11.84
   6  -3  -1  597.22   11.98
  -6  -3   1  597.22   12.02
  -6   3   1  574.83   11.82
   6   3  -1  597.77   12.51
   6  -3  -1  603.51   12.20
  -6  -3   1  585.67   12.68
   6   3  -1  614.25   11.74
  -6  -3   0    0.92    0.41
  -6   3   0    0.75    0.25
   6  -3   0    0.53    0.32
  -6   3   0    0.78    0.34
  -6  -3   0    1.12    0.44
   6   3   0    0.71    0.31
   6  -3   1  205.58    5.45
  -6  -3  -1  206.81    5.48
  -6   3  -1  197.77    5.31
   6   3   1  203.50    5.64
  -6  -3  -1  219.06    6.01
   6   3   1  209.59    5.23
   6  -3   2   18.37    1.39
   6   3   2   19.83    1.49
   6  -3   2   21.03    1.44
  -6  -3  -2   18.88    1.54
   6   3   2   19.31    1.36
   6  -3   3    0.58    0.34
   6   3   3    0.74    0.44
  -6  -3  -3    0.22    0.33
   6   3   3    0.59    0.38
  -6  -3  -3    0.09    0.28
   6  -3   4   52.62    2.59
  -6  -3  -4   50.96    2.63
   6   3   4   52.02    2.42
  -6  -3  -4   49.00    2.38
  -6  -3  -5    5.05    0.88
  -6  -3  -5    5.41    0.84
  -6  -3  -6   15.82    1.47
  -6  -3  -6   14.93    1.39
   6  -3   7   37.87    2.48
  -6  -3  -7   36.69    2.36
  -6  -3  -7   42.59    2.46
   6  -3   8   16.41    1.68
  -6  -3  -8   13.71    1.46
  -6  -3  -8   17.40    1.61
   6  -3   9   26.65    2.23
  -6  -3  -9   28.22    2.07
  -6  -3  -9   26.96    2.10
   6  -3  10   49.98    3.19
  -6  -3 -10   53.67    2.84
  -6  -3 -10   54.79    3.09
   6  -3  11   25.95    2.29
  -6  -3 -11   24.72    1.85
  -6  -3 -11   23.23    2.09
   6  -3  12  205.85    7.25
  -6  -3 -12  213.93    6.08
  -6  -3 -12  200.08    6.87
   6  -3  13    0.19    0.65
  -6  -3 -13   -0.17    0.61
   6  -3  14    1.54    0.83
  -6   3 -14    1.43    0.74
  -6  -3 -14    2.93    0.92
   6  -3  15   35.26    2.87
  -6   3 -15   39.70    2.99
   6  -3  16    4.32    1.18
   6  -4 -19   19.08    1.91
   6  -4 -18   18.63    1.85
   6  -4 -17   10.67    1.36
   6  -4 -16   64.28    3.17
  -6   4  15  127.54    4.68
  -6  -4  15  128.81    4.70
  -6  -4  15  128.74    4.06
   6  -4 -15  127.10    4.55
  -6  -4  14   16.13    0.90
  -6   4  14   14.15    1.40
  -6  -4  14   13.74    1.39
  -6  -4  14   17.49    1.35
   6  -4 -14   15.79    1.43
  -6  -4  13   32.68    1.38
  -6   4  13   34.04    2.10
  -6  -4  13   37.34    2.19
  -6  -4  13   34.86    1.98
   6  -4 -13   35.30    2.04
  -6   4  12    0.51    0.42
  -6  -4  12    0.51    0.40
  -6  -4  12    0.22    0.21
   6  -4 -12    0.91    0.28
   6  -4 -12    0.13    0.30
  -6  -4  12    0.65    0.46
   6  -4 -12    0.09    0.35
   6  -4 -11    5.47    0.55
  -6  -4  11    5.38    0.56
  -6   4  11    5.60    0.81
  -6  -4  11    5.30    0.77
  -6  -4  11    6.18    0.87
   6  -4 -11    4.95    0.69
   6  -4 -11    6.26    0.79
   6  -4 -10   73.15    2.22
  -6  -4  10   67.61    2.77
  -6   4  10   70.22    2.81
  -6  -4  10   70.86    2.96
   6  -4 -10   69.72    2.57
   6  -4 -10   74.23    2.68
   6  -4  -9   18.80    1.04
  -6  -4   9   18.18    1.31
  -6   4   9   20.60    1.39
   6  -4  -9   16.88    1.20
  -6  -4   9   18.60    1.47
   6  -4  -8  100.67    2.82
   6   4  -8   92.48    3.03
   6  -4  -8   89.57    3.04
  -6  -4   8   92.95    3.13
  -6   4   8   89.97    3.11
   6  -4  -8   97.58    3.15
  -6  -4   8   99.51    3.63
   6   4  -8   90.68    2.96
  -6   4   8   97.96    2.89
   6  -4  -7   58.74    2.09
   6  -4  -7   58.34    2.26
  -6  -4   7   57.09    2.30
  -6   4   7   59.48    2.37
  -6  -4   7   58.43    2.72
   6  -4  -7   59.16    2.38
   6  -4  -7   57.32    2.23
   6   4  -7   57.24    2.21
  -6   4   7   62.22    2.11
   6   4  -7   62.45    2.49
   6  -4  -6    5.63    0.63
   6  -4  -6    7.24    0.62
   6   4  -6    4.61    0.69
  -6  -4   6    6.88    0.74
  -6   4   6    6.29    0.73
  -6  -4   6    5.31    0.84
   6  -4  -6    5.64    0.75
  -6   4   6    5.70    0.58
   6  -4  -6    5.79    0.70
   6   4  -6    4.80    0.61
   6  -4  -5   94.48    2.94
  -6  -4   5   86.70    2.90
  -6   4   5   89.59    2.95
  -6  -4   5   90.68    3.52
  -6   4   5   96.88    2.62
   6  -4  -5   91.05    2.54
   6  -4  -4  351.66    7.48
  -6  -4   4  336.74    8.29
   6  -4  -4  327.11    6.69
  -6   4   4  336.82    6.77
  -6  -4   3    0.17    0.29
  -6   4   3    0.72    0.25
   6   4  -2   36.12    1.81
  -6  -4   2   39.99    2.00
  -6  -4   1   10.81    1.02
  -6  -4   1   11.77    1.08
  -6   4   1   11.17    0.99
  -6  -4   1   12.06    1.22
   6   4  -1   13.12    1.07
  -6   4   0    0.05    0.21
  -6  -4   0   -0.35    0.31
   6  -4   0    0.25    0.30
  -6  -4   0    0.44    0.43
   6   4   0    0.31    0.30
   6  -4   1   27.90    1.68
  -6  -4  -1   29.19    1.94
  -6   4  -1   27.80    1.40
   6   4   1   28.27    1.67
  -6   4  -2    3.02    0.52
   6  -4   2    3.22    0.64
   6   4   2    4.32    0.72
   6  -4   3    8.02    0.97
  -6  -4  -3    9.50    1.15
   6  -4   4  248.00    6.81
  -6  -4  -4  259.28    7.09
  -6  -4  -5   12.11    1.32
  -6  -4  -5   10.63    1.22
  -6  -4  -6    4.90    0.87
  -6  -4  -6    2.94    0.75
   6  -4   7  101.93    4.19
  -6  -4  -7  105.56    4.14
  -6  -4  -7   99.12    4.11
   6  -4   8   14.20    1.58
  -6  -4  -8   14.19    1.47
  -6  -4  -8   16.77    1.65
   6  -4   9   -0.16    0.57
  -6  -4  -9   -0.13    0.50
  -6  -4  -9   -0.15    0.42
   6  -4  10   20.68    2.02
  -6  -4 -10   19.77    1.77
  -6  -4 -10   20.07    1.90
   6  -4  11    5.36    1.17
  -6  -4 -11    5.26    1.00
  -6  -4 -11    3.78    0.97
   6  -4  12   76.82    4.19
  -6  -4 -12   76.54    4.04
   6  -4  13   67.63    3.95
  -6  -4 -13   61.92    3.67
   6  -4  14   -0.20    0.64
  -6  -4 -14    0.19    0.61
   6  -4  15    0.20    0.70
   6  -5 -18    0.88    0.74
   6  -5 -17   53.55    3.01
   6  -5 -16   75.98    3.53
  -6  -5  15   -0.10    0.43
   6  -5 -15   -0.12    0.43
  -6  -5  14   25.23    1.34
  -6   5  14   28.18    1.96
  -6  -5  14   24.00    1.84
  -6  -5  14   29.01    1.85
   6  -5 -14   26.44    1.89
  -6  -5  13   47.11    1.91
  -6   5  13   45.84    2.45
  -6  -5  13   52.24    2.60
  -6  -5  13   49.16    2.50
   6  -5 -13   47.45    2.46
   6  -5 -12    1.80    0.39
  -6  -5  12    1.07    0.37
  -6   5  12    2.22    0.60
  -6  -5  12    2.00    0.58
  -6  -5  12    2.22    0.65
   6  -5 -12    2.03    0.60
   6  -5 -11   38.49    1.66
  -6  -5  11   40.47    2.28
  -6  -5  11   35.13    1.65
  -6   5  11   38.60    2.09
  -6  -5  11   38.56    2.07
   6  -5 -10   48.85    1.92
  -6   5  10   47.31    2.24
  -6  -5  10   45.53    2.20
  -6  -5  10   51.82    2.62
   6  -5  -9  102.92    3.09
  -6  -5   9  101.43    3.38
  -6  -5   9  107.21    3.96
  -6   5   9  106.81    3.39
   6  -5  -8  382.06    8.07
  -6  -5   8  363.35    8.23
  -6   5   8  380.63    8.33
  -6  -5   8  385.53    9.27
   6   5  -8  366.28    8.05
  -6   5   8  395.60    8.28
   6  -5  -7   84.41    2.74
   6  -5  -7   79.39    2.75
   6   5  -7   84.54    2.76
   6  -5  -7   80.82    2.73
  -6  -5   7   81.41    2.79
  -6   5   7   83.17    2.85
  -6  -5   7   86.42    3.55
  -6   5   7   83.50    2.77
   6  -5  -7   84.83    2.74
   6   5  -7   78.70    2.66
   6  -5  -6   18.13    1.21
  -6  -5   6   17.89    1.15
  -6   5   6   19.78    1.24
  -6  -5   6   18.08    1.55
  -6   5   6   17.48    1.14
   6   5  -6   17.37    1.09
   6  -5  -6   18.06   24.21
   6  -5  -6   17.18    1.10
   6  -5  -5  106.54    3.35
  -6  -5   5  102.39    3.16
  -6   5   5  103.28    3.19
  -6  -5   5  105.98    4.03
  -6   5   5  106.61    3.08
   6  -5  -5  102.72    3.03
   6  -5  -4   44.29    2.03
  -6  -5   4   42.31    1.83
  -6   5   4   43.18    1.86
  -6  -5   4   46.74    2.53
   6  -5  -4   41.45    1.71
  -6   5   4   44.95    1.80
   6  -5  -3   21.68    1.42
  -6   5   3   21.76    1.21
   6  -5  -2   -0.17    0.29
  -6  -5   2    0.10    0.30
   6  -5  -1   16.07    1.28
  -6  -5   1   17.49    1.56
  -6  -5   1   16.10    1.39
  -6  -5   0  133.21    4.50
  -6   5   0  137.57    3.86
  -6  -5   0  143.46    4.89
  -6  -5  -1    6.72    0.95
  -6  -5  -1    5.66    0.93
  -6   5  -1    7.41    0.82
   6  -5   2  160.01    4.92
  -6  -5  -2  163.83    5.37
  -6   5  -2  153.08    4.40
   6  -5   3  274.40    7.28
  -6  -5  -3  288.39    7.75
  -6   5  -3  270.76    6.72
   6  -5   4   24.79    1.85
  -6  -5  -4   25.73    1.96
  -6  -5  -5    8.30    1.14
  -6  -5  -6   69.08    3.34
   6  -5   7    0.14    0.41
  -6  -5  -7    0.40    0.47
  -6  -5  -7   -0.14    0.41
   6  -5   8   45.34    2.78
  -6  -5  -8   39.49    2.52
  -6  -5  -8   39.46    2.67
   6  -5   9   21.05    1.97
  -6  -5  -9   18.55    1.78
  -6  -5  -9   22.67    2.06
   6  -5  10    3.67    0.98
  -6  -5 -10    1.69    0.70
  -6  -5 -10    1.51    0.76
   6  -5  11   33.52    2.69
  -6  -5 -11   38.02    2.52
  -6  -5 -11   38.11    2.83
   6  -5  12   16.11    1.97
  -6  -5 -12   11.72    1.66
   6  -5  13    1.60    0.78
  -6  -5 -13    2.11    0.84
   6  -5  14    1.04    0.84
   6  -6 -16   68.11    3.37
  -6  -6  15    0.67    0.52
  -6  -6  14    7.36    1.07
  -6  -6  14    6.43    0.80
  -6  -6  13   14.13    1.11
  -6  -6  13   16.99    1.55
  -6   6  13   13.56    1.33
  -6  -6  13   14.54    1.37
   6  -6 -12    6.27    0.74
  -6  -6  12    6.62    1.01
  -6  -6  12    5.68    0.76
  -6   6  12    6.28    0.89
  -6  -6  12    6.53    0.93
   6  -6 -11   15.42    1.12
  -6  -6  11   13.29    1.40
  -6   6  11   15.14    1.28
  -6  -6  11   14.03    1.24
  -6  -6  11   12.70    1.06
  -6  -6  10    1.62    0.59
  -6   6  10    0.25    0.28
  -6  -6  10    0.84    0.38
   6  -6 -10    0.72    0.33
   6  -6  -9   89.35    3.00
  -6  -6   9   79.65    2.92
  -6   6   9   83.43    2.98
  -6  -6   9   88.86    3.75
   6  -6  -8    1.44    0.42
  -6  -6   8    0.57    0.27
  -6   6   8    0.36    0.28
  -6  -6   8    0.76    0.56
   6   6  -8    0.68    0.33
  -6   6   8    0.32    0.33
   6  -6  -7   16.23    1.21
   6  -6  -7   16.40    1.21
   6   6  -7   15.38    1.07
  -6  -6   7   15.30    1.10
   6  -6  -7   16.23    1.10
  -6   6   7   15.40    1.11
  -6  -6   7   17.02    1.58
  -6   6   7   19.29    1.33
   6  -6  -7   15.79    1.07
   6   6  -7   15.59    1.05
   6  -6  -6    5.17    0.73
  -6  -6   6    6.74    0.71
  -6   6   6    5.41    0.65
   6   6  -6    5.02    0.62
   6  -6  -6    4.27    0.59
  -6  -6   6    5.38    0.96
  -6   6   6    5.67    0.74
   6  -6  -6    5.63    0.64
   6   6  -6    5.78    0.64
   6  -6  -6    6.08    0.75
   6  -6  -5   28.48    1.66
  -6  -6   5   23.68    1.31
  -6   6   5   27.71    1.41
  -6  -6   5   24.42    1.91
   6  -6  -5   24.02    1.27
   6   6  -5   24.57    1.27
   6  -6  -5   25.32    1.46
  -6   6   5   28.86    1.58
   6  -6  -4   13.44    1.15
  -6  -6   4   10.99    0.87
  -6   6   4   13.15    0.96
  -6  -6   4   13.59    1.44
  -6   6   4   12.45    1.05
  -6  -6   3   55.79    2.09
  -6   6   3   52.51    2.04
   6  -6  -3   54.81    2.48
  -6  -6   3   51.98    2.76
  -6   6   3   55.21    2.26
   6  -6  -2   11.46    1.12
  -6  -6   2   11.31    1.28
   6  -6  -1    5.31    0.81
  -6  -6   1    8.67    1.19
  -6  -6   1    8.83    1.11
  -6  -6   0    2.29    0.67
  -6  -6   0    2.69    0.75
   6  -6   0    2.89    0.67
  -6  -6  -1   92.42    3.82
  -6   6  -1   85.95    3.17
  -6  -6  -1   97.40    4.09
  -6  -6  -2  158.23    5.41
  -6  -6  -2  168.70    5.68
   6  -6   3   36.15    2.23
  -6  -6  -3   34.11    2.37
   6  -6   4   49.64    2.70
  -6  -6  -4   50.68    2.91
  -6  -6  -5   74.56    3.60
  -6  -6  -6    3.58    0.85
   6  -6   7   92.92    4.10
  -6  -6  -7   98.89    4.23
   6  -6   8  128.89    5.11
  -6  -6  -8  141.37    5.20
   6  -6   9   32.29    2.43
  -6  -6  -9   29.91    2.32
   6  -6  10   84.18    4.18
  -6  -6 -10   91.82    4.11
  -6  -6 -10   86.40    4.41
   6  -6  11    2.15    0.85
  -6  -6 -11    1.81    0.79
  -6  -6 -11    1.70    0.90
   6  -6  12   15.51    1.91
  -6  -6 -12   17.92    2.10
   6  -6  13   73.90    4.27
  -6  -7  15   10.15    1.29
  -6  -7  14    0.52    0.59
  -6  -7  13    1.61    0.65
  -6  -7  13    1.39    0.48
  -6  -7  12  142.21    4.38
  -6  -7  12  151.03    5.28
  -6   7  12  145.77    4.53
  -6  -7  12  134.76    4.44
   6  -7 -11   82.81    3.05
  -6  -7  11   86.47    3.86
  -6  -7  11   79.75    3.10
  -6   7  11   83.46    3.13
  -6  -7  11   83.45    3.13
   6  -7 -10   64.28    2.86
   6  -7 -10   62.73    2.61
  -6  -7  10   62.49    3.24
  -6   7  10   60.97    2.53
  -6  -7  10   60.19    2.51
   6  -7  -9   72.99    3.01
   6  -7  -9   72.80    2.86
  -6  -7   9   79.54    3.66
  -6   7   9   71.43    2.67
   6  -7  -8    1.31    0.52
  -6   7   8    0.97    0.38
  -6  -7   8    1.10    0.42
   6  -7  -8    0.98    0.45
   6  -7  -8    0.49    0.31
  -6  -7   8   -0.14    0.53
   6  -7  -7   23.30    1.56
  -6   7   7   19.53    1.22
  -6  -7   7   18.85    1.19
   6  -7  -7   22.40    1.25
  -6  -7   7   22.57    1.95
   6  -7  -7   19.50    1.45
   6   7  -7   20.65    1.18
   6  -7  -6   60.39    2.65
  -6  -7   6   55.08    2.10
  -6   7   6   61.47    2.20
   6  -7  -6   59.24    2.09
  -6  -7   6   54.98    3.07
   6   7  -6   55.78    2.02
   6  -7  -6   60.17    2.57
   6  -7  -5   15.07    1.30
   6  -7  -5   14.54    0.94
  -6  -7   5   11.59    0.89
  -6   7   5   15.13    1.00
  -6  -7   5   15.24    1.61
   6   7  -5   13.32    0.90
   6  -7  -5   14.23    1.20
   6  -7  -4  423.60    9.43
   6  -7  -4  397.79    8.07
  -6  -7   4  394.59    8.13
  -6   7   4  412.78    8.23
  -6  -7   4  414.19   10.38
   6   7  -4  386.44    8.00
  -6  -7   3  335.82    7.18
  -6   7   3  355.12    7.28
   6  -7  -3  334.19    8.31
  -6  -7   3  336.59    9.06
   6  -7  -2  162.77    4.96
  -6  -7   2  144.12    3.81
  -6   7   2  155.61    3.94
  -6  -7   2  154.09    5.49
  -6  -7   2  149.36    5.31
   6  -7  -1   36.18    2.16
  -6  -7   1   39.04    2.58
  -6  -7   1   35.90    2.42
   6  -7   0   12.74    1.29
  -6  -7   0   10.67    1.38
  -6  -7   0   11.38    1.39
  -6  -7  -1    4.53    0.92
  -6  -7  -1    2.84    0.80
   6  -7   1    2.97    0.75
  -6  -7  -2   42.60    2.72
  -6  -7  -2   45.95    2.86
  -6  -7  -3   27.29    2.21
  -6  -7  -3   29.25    2.29
   6  -7   4   72.20    3.42
  -6  -7  -4   76.36    3.76
  -6  -7  -5   28.34    2.28
  -6  -7  -6    0.16    0.47
   6  -7   7   43.86    2.79
  -6  -7  -7   41.53    2.82
   6  -7   8   31.85    2.42
  -6  -7  -8   29.58    2.35
   6  -7   9   44.60    2.96
  -6  -7  -9   46.22    2.94
   6  -7  10    0.34    0.58
  -6  -7 -10    0.48    0.56
   6  -7  11   11.44    1.64
  -6  -8  14    7.66    1.26
  -6  -8  13    7.83    1.27
  -6  -8  13    6.16    0.92
   6  -8 -12   26.53    2.01
  -6  -8  12   26.35    1.84
  -6  -8  12   30.30    2.33
   6  -8 -11    0.36    0.48
  -6  -8  11    0.46    0.58
   6  -8 -11   -0.10    0.44
  -6  -8  11   -0.10    0.42
   6  -8 -10  161.49    5.23
   6  -8 -10  163.84    4.97
  -6  -8  10  163.84    5.85
   6  -8  -9    2.65    0.69
   6  -8  -9    3.01    0.72
  -6   8   9    1.67    0.46
  -6  -8   9    3.11    0.92
   6  -8  -8  119.14    4.09
  -6   8   8  110.79    3.32
  -6  -8   8  104.80    4.61
   6  -8  -8  117.15    4.14
   6  -8  -7    8.79    1.08
   6  -8  -7    9.20    1.12
  -6   8   7    9.91    0.84
  -6  -8   7    7.69    1.26
   6  -8  -6   50.53    2.55
  -6   8   6   47.54    1.84
  -6  -8   6   52.79    3.14
   6  -8  -6   49.68    2.47
   6  -8  -5    0.90    0.48
  -6  -8   5    0.95    0.66
   6  -8  -5   -0.33    0.48
  -6   8   5    0.77    0.29
   6  -8  -4   26.75    1.89
  -6  -8   4   27.79    2.28
  -6   8   4   26.62    1.24
  -6   8   3   24.11    1.15
   6  -8  -3   25.15    1.83
   6  -8  -2  125.78    4.46
  -6   8   2  119.65    3.15
  -6  -8   2  128.73    5.11
  -6  -8   2  121.15    4.95
   6  -8  -1   16.87    1.58
  -6   8   1   17.85    1.02
  -6  -8   1   18.07    1.82
  -6  -8   1   17.79    1.80
   6  -8   0   12.93    1.39
  -6  -8   0   15.11    1.75
  -6  -8   0   16.28    1.76
   6  -8   1  148.70    5.21
  -6  -8  -1  155.45    5.79
  -6  -8  -1  146.25    5.61
  -6  -8  -2  143.79    5.61
   6  -8   2  146.47    5.24
  -6  -8  -2  154.92    5.80
  -6  -8  -3   12.33    1.63
  -6  -8  -3   11.03    1.55
  -6  -8  -4   15.54    1.78
  -6  -8  -4   16.50    1.86
  -6  -8  -5   15.81    1.87
  -6  -8  -5   20.15    2.03
  -6  -8  -6    7.66    1.29
   6  -8   7   70.06    3.67
  -6  -8  -7   72.65    3.87
   6  -8   8   12.26    1.59
  -6  -8  -8   14.78    1.78
   6  -8   9   46.59    3.10
  -6  -8  -9   50.79    3.23
  -6  -8 -10    2.23    0.90
  -6  -9  14    4.12    1.02
  -6  -9  13   54.44    3.33
  -6  -9  12    1.69    0.74
  -6  -9  12    1.18    0.56
  -6  -9  11    6.29    1.25
  -6  -9  11    5.53    0.95
   6  -9 -10    3.18    0.81
  -6  -9  10    3.43    0.97
   6  -9 -10    3.93    0.81
  -6  -9  10    4.09    0.82
   6  -9  -9    3.86    0.90
  -6  -9   9    2.93    0.94
   6  -9  -9    3.09    0.76
   6  -9  -8    8.94    1.19
   6  -9  -8   10.96    1.27
  -6  -9   8    9.01    1.42
   6  -9  -7    0.83    0.55
   6  -9  -7    2.37    0.72
  -6  -9   7    1.22    0.71
   6  -9  -6    8.41    1.15
  -6  -9   6    7.70    1.34
   6  -9  -6    9.77    1.21
  -6  -9   5    2.11    0.87
   6  -9  -5    2.21    0.71
  -6  -9   4   -0.18    0.56
   6  -9  -4   -0.13    0.40
   6  -9  -3    0.13    0.43
  -6  -9   2    0.17    0.52
  -6  -9   2   -0.18    0.59
   6  -9  -2    0.13    0.46
  -6  -9   1   11.67    1.59
   6  -9  -1   10.28    1.31
  -6  -9   1    9.78    1.50
   6  -9   0   24.82    1.98
  -6  -9   0   22.69    2.20
  -6  -9   0   26.83    2.37
  -6  -9  -1    1.08    0.70
   6  -9   1    0.43    0.52
  -6  -9  -1    0.18    0.57
   6  -9   2   41.69    2.71
  -6  -9  -2   40.51    2.93
  -6  -9  -2   41.66    3.00
   6  -9   3   79.85    3.83
  -6  -9  -3   78.57    4.15
  -6  -9  -3   70.88    4.01
  -6  -9  -4    9.98    1.57
  -6  -9  -4    8.67    1.44
  -6  -9  -5    4.72    1.16
  -6  -9  -5    5.94    1.23
  -6  -9  -6   41.24    3.16
  -6  -9  -6   40.97    3.00
  -6  -9  -7  100.80    4.83
  -6  -9  -8   15.40    1.92
  -6  -9  -9   -0.19    0.73
  -6 -10  12    0.13    0.56
  -6 -10  11   41.93    2.62
   6 -10 -10   29.50    2.16
  -6 -10  10   31.12    2.27
   6 -10  -9   17.71    1.71
  -6 -10   9   15.62    1.62
   6 -10  -8   23.46    1.91
   6 -10  -7   24.98    2.02
  -6 -10   6    9.66    1.59
   6 -10  -6   11.18    1.38
   6 -10  -5   57.50    3.08
  -6 -10   5   56.76    3.62
  -6 -10   4    0.39    0.71
   6 -10  -4    0.70    0.54
   6 -10  -3   26.70    2.14
   6 -10  -2   25.81    2.14
  -6 -10   2   33.08    2.76
   6 -10  -1   43.01    2.76
  -6 -10   1   46.10    3.24
  -6 -10   1   44.77    3.22
   6 -10   0   38.29    2.60
  -6 -10   0   40.20    3.01
  -6 -10   0   35.66    2.89
  -6 -10  -1    0.20    0.63
   6 -10   1   -0.16    0.59
  -6 -10  -1   -0.20    0.56
   7   0 -21   49.14    3.15
   7   0 -20    0.16    0.51
   7   0 -19  232.02    7.33
  -7   0  18    0.94    0.55
   7   0 -18    0.28    0.52
  -7   0  17  120.33    4.80
   7   0 -17  118.13    4.60
  -7   0  16   -0.27    0.54
   7   0 -16   -0.12    0.45
  -7   0  15   16.18    1.58
   7   0 -15   16.45    1.48
  -7   0  14   -0.49    0.52
   7   0 -14    0.10    0.38
  -7   0  13  107.67    4.02
   7   0 -13  109.69    3.14
   7   0 -13  105.35    3.64
  -7   0  12    0.21    0.36
   7   0 -12    0.06    0.34
  -7   0  11   24.24    1.65
  -7   0  11   21.30    1.38
   7   0 -11   20.81    1.34
  -7   0  10    0.56    0.34
   7   0 -10    0.79    0.45
  -7   0  10    0.16    0.31
  -7   0   9  281.93    6.91
  -7   0   9  267.78    6.79
   7   0  -9  285.63    6.86
  -7   0   8    0.04    0.11
  -7   0   8    0.17    0.26
  -7   0   8    0.18    0.32
   7   0  -8    0.09    0.33
  -7   0   7   39.98    2.00
  -7   0   7   38.87    2.11
   7   0  -7   36.55    2.06
   7   0  -7   40.30    1.28
   7   0  -6    0.12    0.11
   7   0  -6    0.10    0.21
  -7   0   6    0.08    0.17
  -7   0   6   -0.10    0.30
   7   0  -6   -0.10    0.42
  -7   0   6    0.24    0.21
  -7   0   5   30.13    1.37
   7   0  -5   28.47    1.42
  -7   0   5   30.38    1.92
   7   0  -5   31.01    1.92
  -7   0   4    0.34    0.26
   7   0  -4    0.07    0.23
   7   0  -4    0.71    0.47
  -7   0   4    0.65    0.38
   7   0  -3   45.48    2.08
  -7   0   3   48.48    2.03
   7   0  -3   46.92    2.45
  -7   0   2    0.80    0.15
  -7   0   2    0.36    0.33
   7   0  -2    0.08    0.27
   7   0  -2   -0.11    0.40
  -7   0   1  205.00    5.35
   7   0  -1  198.56    5.53
  -7   0   1  205.51    6.01
   7   0  -1  204.43    5.96
  -7   0   0    0.08    0.32
   7   0   0   -0.10    0.28
  -7   0   0   -0.12    0.39
  -7   0   0    0.27    0.17
  -7   0  -1    1.09    0.44
   7   0   1    1.16    0.47
  -7   0  -1    1.97    0.57
   7   0   1    1.11    0.54
  -7   0  -1    1.30    0.30
  -7   0  -2    0.29    0.32
   7   0   2    0.11    0.32
  -7   0  -2   -0.12    0.37
   7   0   2    0.11    0.39
  -7   0  -2   -0.05    0.18
   7   0   3    0.72    0.47
   7   0   3    1.24    0.59
  -7   0  -3    1.65    0.60
  -7   0  -3    2.22    0.46
  -7   0  -4    0.24    0.31
  -7   0  -4   -0.07    0.24
   7   0   5   12.67    1.41
  -7   0  -5   12.52    1.31
  -7   0  -5   12.74    1.10
  -7   0  -6    0.35    0.37
  -7   0  -6    0.74    0.36
  -7   0  -7   26.91    1.89
  -7   0  -7   27.11    1.81
   7   0   8    0.16    0.45
  -7   0  -8   -0.34    0.40
   7   0   9   21.65    2.02
  -7   0  -9   23.33    1.83
   7   0  10    0.17    0.51
  -7   0 -10    0.13    0.43
   7   0  11   85.47    4.34
  -7   0 -11   87.15    3.98
   7   0  12   -0.18    0.71
  -7   0 -12    0.31    0.59
   7   0  13   52.85    3.45
  -7   0 -13   50.59    3.17
   7   0  14    0.19    0.61
  -7   0 -14   -0.18    0.56
   7   0  15   27.20    2.56
  -7   0 -15   23.94    2.34
   7   1 -21   17.53    1.98
   7  -1 -20    5.35    1.06
   7   1 -20    4.84    1.12
   7  -1 -19   19.42    1.91
   7   1 -19   19.40    1.94
  -7  -1  18   41.02    2.76
   7  -1 -18   39.81    2.57
   7   1 -18   38.45    2.58
  -7  -1  17   11.74    1.46
   7  -1 -17   11.03    1.33
  -7  -1  16    1.92    0.71
   7  -1 -16    1.64    0.57
  -7  -1  15   12.03    1.38
   7  -1 -15   10.63    1.19
  -7  -1  14   22.07    1.76
  -7  -1  14   22.99    1.30
   7  -1 -14   22.86    1.62
  -7  -1  13    0.34    0.36
  -7  -1  13    0.07    0.28
   7   1 -13    0.06    0.26
   7  -1 -13    0.09    0.39
  -7  -1  12   17.66    1.48
   7   1 -12   16.01    1.13
  -7  -1  12   16.34    1.22
   7  -1 -12   15.30    1.16
   7  -1 -12   14.19    1.14
  -7  -1  11   85.70    3.10
   7   1 -11   79.40    2.75
   7  -1 -11   78.18    2.87
   7  -1 -11   81.82    2.76
  -7  -1  10   48.24    2.36
  -7  -1  10   52.49    2.44
   7   1 -10   52.97    2.22
   7  -1 -10   49.57    2.28
   7  -1 -10   49.67    1.94
  -7  -1   9   53.74    1.37
  -7  -1   9   57.10    2.61
   7   1  -9   53.09    2.34
   7  -1  -9   54.20    2.47
   7  -1  -9   56.91    1.91
  -7  -1   8   86.81    2.25
   7  -1  -8   84.52    2.26
  -7  -1   8   87.02    3.20
  -7  -1   8   97.70    3.60
   7   1  -8   91.39    3.26
   7  -1  -8   90.41    3.35
   7   1  -8   84.95    2.51
   7  -1  -8   89.07    2.36
   7   1  -7    2.28    0.36
  -7   1   7    2.69    0.35
  -7  -1   7    2.21    0.35
   7  -1  -7    3.23    0.43
  -7  -1   7    1.41    0.44
   7  -1  -7    1.91    0.55
   7   1  -7    2.26    0.57
  -7  -1   7    3.42    0.71
   7  -1  -7    2.58    0.28
   7   1  -6    7.56    0.56
  -7   1   6    7.56    0.60
   7  -1  -6    6.63    0.66
  -7  -1   6    9.18    0.74
  -7  -1   6    7.73    1.01
   7  -1  -6    6.34    0.89
   7   1  -6    6.02    0.86
  -7   1   6    6.37    0.87
  -7  -1   6    7.64    0.82
   7  -1  -5  386.15    8.11
  -7  -1   5  404.61    8.12
  -7   1   5  377.91    7.77
   7  -1  -5  401.78    9.16
  -7  -1   5  382.60    9.35
   7   1  -5  384.28    9.02
  -7   1   5  356.74    8.83
   7  -1  -4   37.49    1.77
  -7  -1   4   36.91    1.77
   7  -1  -4   35.12    2.10
  -7  -1   4   40.00    2.34
  -7   1   4   36.39    2.08
   7   1  -4   39.84    2.20
   7   1  -4   39.18    1.27
   7   1  -3  228.21    5.80
   7  -1  -3  235.23    5.83
  -7  -1   3  233.13    5.76
   7  -1  -3  228.93    6.37
   7   1  -3  228.24    6.37
   7   1  -3  239.37    4.78
  -7  -1   2    0.08    0.32
  -7  -1   2    0.14    0.15
   7   1  -2   -0.08    0.23
  -7   1   2   -0.07    0.25
   7  -1  -2   -0.10    0.37
   7   1  -2    0.63    0.43
   7   1  -2    0.66    0.23
   7   1  -1  116.51    3.94
  -7   1   1  111.16    3.57
   7  -1  -1  116.57    3.89
  -7  -1   1  122.06    3.86
   7  -1  -1  120.17    4.20
  -7  -1   1  120.82    4.43
  -7   1   1  111.67    4.08
   7   1  -1  117.86    4.23
   7   1  -1  123.17    3.02
  -7   1   1  118.29    2.40
  -7  -1   0    3.71    0.68
   7   1   0    4.55    0.75
  -7   1   0    4.06    0.66
   7  -1   0    6.26    0.87
  -7  -1   0    4.09    0.80
  -7   1   0    3.96    0.37
  -7   1   0    3.92    0.73
   7   1   0    4.65    0.53
  -7  -1  -1    2.03    0.54
   7   1   1    5.67    0.87
  -7   1  -1    2.90    0.61
   7  -1   1    2.31    0.60
   7  -1   1    3.64    0.76
   7   1   1    3.52    0.73
  -7  -1  -1    2.13    0.64
  -7   1  -1    3.69    0.73
  -7   1  -1    3.06    0.39
   7   1   1    4.73    0.56
  -7  -1  -1    2.81    0.43
  -7   1  -2    9.36    1.06
   7   1   2   10.94    1.23
   7  -1   2    9.94    1.15
  -7  -1  -2   10.01    1.12
   7  -1   2    8.65    1.12
  -7  -1  -2    9.74    1.22
  -7   1  -2    9.86    1.15
   7   1   2    9.08    1.17
  -7   1  -2    9.28    0.73
  -7  -1  -2    8.13    0.76
   7   1   3  125.43    4.61
   7  -1   3  119.67    4.45
  -7  -1  -3  128.75    4.69
  -7   1  -3  128.19    4.45
  -7   1  -3  129.41    3.54
  -7  -1  -3  119.64    3.65
   7   1   4   56.62    2.99
   7  -1   4   62.85    3.09
  -7  -1  -4   60.20    3.05
  -7  -1  -4   60.91    2.49
  -7   1  -4   62.36    2.40
   7   1   5  145.10    5.22
   7  -1   5  147.85    5.22
  -7  -1  -5  143.63    4.98
  -7  -1  -5  139.24    4.34
  -7   1  -5  142.25    4.24
  -7  -1  -6   50.70    2.77
  -7  -1  -6   54.91    2.54
  -7   1  -6   53.33    2.46
  -7  -1  -7    3.61    0.76
  -7  -1  -7    4.27    0.79
  -7   1  -7    5.56    0.87
   7   1   8   68.37    3.66
   7  -1   8   68.41    3.65
  -7  -1  -8   69.08    3.17
  -7  -1  -8   69.61    3.18
  -7   1  -8   68.41    3.12
   7   1   9   42.48    2.85
   7  -1   9   38.95    2.74
  -7  -1  -9   35.36    2.22
  -7   1  -9   35.38    2.29
  -7  -1  -9   37.51    2.38
   7   1  10   -0.34    0.63
   7  -1  10    0.68    0.64
  -7  -1 -10    0.69    0.54
  -7  -1 -10    0.11    0.45
  -7   1 -10    1.19    0.61
   7   1  11   31.93    2.55
   7  -1  11   28.91    2.47
  -7   1 -11   30.25    2.27
   7   1  12    1.63    0.84
   7  -1  12    1.64    0.84
  -7  -1 -12    1.43    0.80
  -7   1 -12    1.38    0.76
   7  -1  13    2.81    0.95
  -7  -1 -13    1.70    0.75
  -7   1 -13    1.31    0.72
   7  -1  14  115.04    5.30
  -7   1 -14  117.21    5.13
  -7  -1 -14  120.47    5.24
   7  -1  15    3.75    1.15
  -7   1 -15    3.37    1.00
   7  -2 -19    5.26    1.06
  -7   2  18   97.95    4.44
  -7  -2  18  103.90    4.53
   7  -2 -18  107.59    4.36
  -7   2  17    0.59    0.57
  -7  -2  17   -0.15    0.55
   7  -2 -17    0.89    0.55
  -7   2  16    0.41    0.50
  -7  -2  16    0.14    0.54
   7  -2 -16   -0.35    0.41
  -7   2  15   12.68    1.41
  -7  -2  15   14.60    1.51
  -7  -2  15   12.00    1.00
   7  -2 -15   12.41    1.26
  -7  -2  14    0.37    0.44
  -7   2  14    0.49    0.41
  -7  -2  14    1.56    0.50
   7  -2 -14    0.10    0.36
  -7  -2  13  170.40    5.35
  -7   2  13  159.40    5.25
  -7  -2  13  174.28    4.94
   7  -2 -13  176.80    4.95
  -7  -2  12   14.30    1.32
  -7   2  12   11.27    1.18
  -7  -2  12   13.13    1.24
   7   2 -12   10.50    0.94
   7  -2 -12   10.61    1.06
   7  -2 -12   13.40    1.10
  -7  -2  11   46.68    2.42
  -7   2  11   54.04    2.57
  -7  -2  11   49.05    2.47
   7   2 -11   47.41    2.09
   7  -2 -11   54.81    2.40
   7  -2 -11   52.58    2.10
   7  -2 -10  301.03    5.72
  -7  -2  10  298.71    5.81
  -7  -2  10  302.08    7.42
  -7   2  10  302.52    7.44
   7  -2 -10  301.05    7.33
  -7  -2  10  292.85    7.57
   7   2 -10  300.72    7.02
   7  -2 -10  308.57    6.54
  -7  -2   9   89.50    2.33
   7  -2  -9   83.35    2.26
  -7  -2   9   79.45    3.09
  -7   2   9   78.64    3.10
  -7  -2   9   85.07    3.42
   7  -2  -9   88.30    3.28
   7   2  -9   79.49    2.98
   7   2  -9   87.49    2.78
   7  -2  -9   89.03    2.48
   7  -2  -8    2.14    0.37
   7   2  -8    1.72    0.38
  -7  -2   8    2.78    0.40
  -7  -2   8    2.03    0.48
  -7   2   8    2.82    0.59
   7   2  -8    2.52    0.56
  -7  -2   8    2.22    0.61
   7  -2  -8    1.83    0.52
   7  -2  -8    2.64    0.34
   7  -2  -7    1.49    0.32
   7   2  -7    1.62    0.35
  -7  -2   7    1.75    0.37
   7   2  -7    2.11    0.54
  -7  -2   7    1.39    0.52
   7  -2  -7    0.99    0.46
  -7  -2   7    1.57    0.44
  -7   2   7    1.42    0.47
   7  -2  -6   65.48    2.21
   7   2  -6   69.89    2.21
  -7  -2   6   70.40    2.31
   7  -2  -6   67.60    2.80
   7   2  -6   61.59    2.73
  -7  -2   6   70.33    3.08
  -7   2   6   65.32    2.08
  -7  -2   6   67.39    2.66
  -7   2   6   66.24    2.65
   7  -2  -5   38.12    1.68
  -7   2   5   40.38    1.62
  -7  -2   5   37.83    1.71
   7  -2  -5   40.35    2.10
   7   2  -5   39.66    2.14
  -7  -2   5   39.98    2.28
   7  -2  -4   46.80    1.96
  -7   2   4   47.62    1.87
  -7  -2   4   48.71    2.02
   7  -2  -4   45.86    2.27
   7   2  -4   47.93    2.42
  -7  -2   4   45.47    2.46
   7  -2  -3   11.03    0.94
  -7   2   3   11.25    0.92
  -7  -2   3   12.51    1.02
   7  -2  -3   12.23    1.16
   7   2  -3   10.75    1.16
  -7  -2   3   12.50    0.86
   7   2  -3   14.62    0.87
  -7   2   2  396.31    8.63
  -7  -2   2  408.89    8.87
   7  -2  -2  403.12    8.88
   7  -2  -2  395.07    9.23
   7   2  -2  396.79    9.51
  -7  -2   2  404.62    8.23
   7   2  -2  423.56    8.18
  -7  -2   1   24.05    1.27
  -7  -2   1   28.24    1.66
  -7   2   1   20.96    1.41
   7  -2  -1   26.64    1.62
   7  -2  -1   25.87    1.71
   7   2  -1   26.73    1.83
  -7  -2   1   27.07    1.92
   7   2  -1   27.46    1.31
  -7   2   1   27.27    0.85
  -7   2   1   25.66    0.84
  -7  -2   0   49.79    2.32
  -7   2   0   44.53    2.15
   7  -2   0   45.41    2.26
  -7  -2   0   43.32    2.49
   7   2   0   46.20    1.88
  -7   2   0   47.76    1.44
  -7  -2  -1   93.64    3.48
  -7   2  -1   95.06    3.38
   7  -2   1   91.17    3.52
  -7  -2  -1   96.29    3.92
   7   2   1   96.01    3.02
   7  -2   2  160.42    5.08
  -7  -2  -2  156.24    5.34
   7   2   2  168.36    4.49
  -7  -2  -2  152.12    4.31
   7  -2   3   53.05    2.75
  -7  -2  -3   53.18    2.91
   7   2   3   55.36    2.37
  -7  -2  -3   53.54    2.31
   7  -2   4  150.87    5.17
  -7  -2  -4  149.64    5.29
   7   2   4  155.42    4.50
  -7  -2  -4  138.52    4.36
   7  -2   5   36.03    2.44
  -7  -2  -5   40.74    2.16
  -7  -2  -6  135.56    4.97
  -7   2  -6  132.31    4.20
  -7  -2  -6  138.13    4.53
  -7  -2  -7    4.64    0.94
  -7   2  -7    5.14    0.82
  -7  -2  -7    4.85    0.86
   7  -2   8   20.77    1.98
  -7  -2  -8   16.42    1.58
  -7  -2  -8   19.62    1.66
  -7   2  -8   17.85    1.51
   7  -2   9  123.59    5.19
  -7  -2  -9  131.25    4.72
  -7  -2  -9  127.95    4.78
  -7   2  -9  137.79    4.76
   7  -2  10  269.26    8.47
  -7  -2 -10  277.84    7.48
  -7  -2 -10  257.78    7.70
  -7   2 -10  284.93    7.84
   7  -2  11   16.72    1.96
  -7  -2 -11   16.89    1.53
  -7  -2 -11   14.49    1.63
  -7   2 -11   16.69    1.70
   7  -2  12   30.47    2.63
  -7  -2 -12   30.18    2.38
  -7   2 -12   32.22    2.45
   7  -2  13   55.46    3.59
  -7  -2 -13   60.83    3.52
  -7   2 -13   66.96    3.68
   7  -2  14    8.37    1.51
  -7  -2 -14   12.67    1.70
  -7   2 -14   10.11    1.56
   7  -2  15    4.37    1.19
  -7   2 -15    3.47    1.15
   7  -3 -18    5.51    1.01
  -7   3  17   57.28    3.19
  -7  -3  17   64.27    3.35
   7  -3 -17   59.84    2.99
  -7   3  16    4.63    0.95
  -7  -3  16    4.89    1.00
   7  -3 -16    3.30    0.76
  -7   3  15  220.38    6.62
  -7  -3  15  212.36    6.53
  -7  -3  15  223.23    5.85
   7  -3 -15  217.72    6.12
  -7   3  14   35.91    2.28
  -7  -3  14   34.81    2.23
  -7  -3  14   34.31    2.04
   7  -3 -14   36.40    2.03
  -7  -3  13   20.70    0.67
  -7  -3  13   21.14    0.69
  -7  -3  13   22.55    1.72
  -7   3  13   21.17    1.68
  -7  -3  13   23.31    1.65
   7  -3 -13   23.78    1.53
   7  -3 -12   11.29    0.54
  -7  -3  12   10.82    0.57
  -7  -3  12   12.21    0.63
  -7  -3  12    9.06    1.09
  -7   3  12   10.04    1.13
   7  -3 -12   11.03    1.10
  -7  -3  12   10.09    1.11
   7  -3 -12   10.50    0.97
  -7  -3  11   16.80    0.85
   7  -3 -11   14.87    0.74
  -7  -3  11   14.82    0.76
  -7  -3  11   14.96    1.33
  -7   3  11   15.86    1.35
   7   3 -11   15.27    1.19
   7  -3 -11   16.67    1.30
  -7  -3  11   16.46    1.43
   7  -3 -11   19.99    1.23
   7  -3 -10   90.58    2.42
  -7  -3  10   98.53    2.58
  -7  -3  10   93.89    3.43
  -7   3  10   91.17    3.40
   7   3 -10   92.38    3.20
   7  -3 -10   90.53    3.25
  -7  -3  10   98.28    3.65
   7   3 -10   95.48    3.22
   7  -3 -10   95.85    2.86
   7  -3  -9  160.00    3.77
  -7  -3   9  166.75    3.93
  -7  -3   9  161.23    4.77
  -7   3   9  161.10    4.80
   7   3  -9  157.57    4.63
   7  -3  -9  161.68    4.66
  -7  -3   9  165.42    5.09
   7   3  -9  168.10    4.52
   7  -3  -9  164.84    3.95
   7  -3  -8   19.08    1.02
  -7  -3   8   18.42    1.06
  -7  -3   8   18.78    1.36
  -7   3   8   16.53    1.28
   7  -3  -8   17.09    1.31
  -7  -3   8   15.58    1.39
   7   3  -8   17.26    1.19
   7  -3  -7  356.31    7.42
  -7  -3   7  363.95    7.60
   7   3  -7  377.62    7.84
  -7  -3   7  357.06    8.22
  -7   3   7  371.56    8.31
   7  -3  -7  343.86    8.18
  -7  -3   7  351.20    8.73
   7   3  -6   16.86    1.11
   7  -3  -6   15.75    1.03
  -7  -3   6   19.80    1.19
  -7  -3   6   18.34    1.30
  -7   3   6   17.37    1.27
   7  -3  -6   14.96    1.22
  -7  -3   6   17.58    1.50
   7  -3  -6   16.92    0.70
   7  -3  -5   25.89    1.39
  -7  -3   5   27.49    1.45
   7  -3  -5   27.22    1.65
  -7  -3   5   28.44    1.90
   7  -3  -4    1.37    0.37
  -7  -3   4    2.71    0.50
  -7   3   4    1.85    0.40
  -7  -3   4    2.35    0.60
  -7   3   4    2.23    0.20
   7  -3  -3   88.82    3.02
  -7  -3   3   95.39    3.15
  -7   3   3   89.95    2.98
   7   3  -3   95.52    2.91
  -7  -3   3   92.93    3.03
  -7   3   3   94.13    1.98
   7  -3  -2  161.86    4.57
  -7  -3   2  170.50    4.70
  -7   3   2  161.25    4.48
  -7  -3   2  167.88    4.47
   7   3  -2  169.25    4.32
   7  -3  -1  101.97    3.47
  -7   3   1  107.99    2.54
  -7  -3   1   99.67    3.25
  -7   3   1   97.97    3.33
  -7  -3   1  106.75    3.55
  -7  -3   1  106.49    4.02
   7   3  -1  101.37    3.16
  -7   3   0    0.84    0.25
   7  -3   0    1.78    0.48
  -7  -3   0    1.20    0.50
   7   3   0    0.82    0.36
   7  -3   1    0.19    0.28
  -7  -3  -1    0.98    0.53
   7   3   1    1.59    0.46
   7  -3   2    0.63    0.37
  -7  -3  -2   -0.13    0.34
   7   3   2   -0.08    0.35
   7  -3   3    6.13    0.92
  -7  -3  -3    7.83    1.12
   7   3   3    6.42    0.83
  -7  -3  -3    5.88    0.81
   7  -3   4    0.25    0.38
  -7  -3  -4    1.07    0.50
  -7  -3  -4    1.37    0.47
   7  -3   5  199.98    6.33
  -7  -3  -5  203.86    6.41
  -7  -3  -5  200.16    5.82
  -7  -3  -6   22.12    1.90
  -7  -3  -6   23.05    1.75
  -7  -3  -7   37.07    2.52
  -7  -3  -7   53.03    2.78
   7  -3   8   50.92    3.17
  -7  -3  -8   46.87    2.84
  -7  -3  -8   48.48    2.76
   7  -3   9   82.52    4.20
  -7  -3  -9   83.18    3.80
  -7  -3  -9   84.24    3.83
   7  -3  10    4.15    1.07
  -7  -3 -10    3.33    0.84
  -7  -3 -10    3.42    0.86
   7  -3  11    0.37    0.62
  -7  -3 -11    0.89    0.62
  -7  -3 -11    0.16    0.58
   7  -3  12    0.19    0.75
  -7   3 -12   -0.32    0.66
  -7  -3 -12   -0.17    0.53
   7  -3  13   49.20    3.38
  -7   3 -13   47.72    3.12
  -7  -3 -13   44.48    3.05
  -7   3 -14   20.86    2.18
  -7  -3 -14   24.24    2.31
  -7   4  17   15.19    1.66
  -7  -4  17   15.69    1.69
   7  -4 -17   14.50    1.49
  -7   4  16    0.14    0.50
  -7  -4  16    0.27    0.44
   7  -4 -16    0.69    0.51
  -7   4  15   11.53    1.36
  -7  -4  15   12.23    1.38
  -7  -4  15   13.07    1.30
   7  -4 -15   13.42    1.30
  -7   4  14   82.98    3.60
  -7  -4  14   88.75    3.68
  -7  -4  14   88.88    3.47
   7  -4 -14   83.43    3.28
  -7  -4  13  103.18    2.68
  -7  -4  13  101.92    3.92
  -7   4  13  106.70    3.99
  -7  -4  13  103.72    3.84
   7  -4 -13  104.87    3.58
  -7  -4  12    0.52    0.37
  -7   4  12    0.63    0.46
  -7  -4  12    0.39    0.22
  -7  -4  12    0.11    0.37
   7  -4 -12    0.24    0.31
  -7  -4  11    8.66    1.01
  -7   4  11    8.34    1.02
  -7  -4  11    9.84    1.16
   7  -4 -11    9.80    0.92
  -7  -4  10   71.40    2.95
  -7   4  10   71.38    2.96
  -7  -4  10   76.84    3.25
  -7  -4   9   28.95    1.73
  -7   4   9   27.99    1.71
  -7  -4   8   48.88    2.25
  -7   4   8   49.17    2.27
  -7  -4   8   54.23    2.70
   7  -4  -7   47.18    1.65
   7   4  -7   48.18    2.15
  -7   4   7   46.99    2.18
  -7  -4   7   47.56    2.18
  -7  -4   7   45.24    2.51
  -7   4   7   49.59    1.69
  -7  -4   6  144.87    4.29
  -7   4   6  151.67    4.37
  -7  -4   6  150.27    5.03
   7  -4  -6  148.62    3.47
  -7   4   6  157.88    3.58
  -7  -4   5  231.31    5.63
  -7  -4   5  206.99    5.52
  -7   4   5  224.56    5.67
  -7  -4   5  223.71    6.47
  -7   4   5  224.62    4.72
  -7  -4   4  600.19   12.07
   7  -4  -4  582.11   11.93
  -7  -4   4  588.95   13.08
  -7   4   4  593.35   10.84
   7  -4  -3  192.09    5.07
  -7  -4   3  190.66    5.15
   7   4  -3  187.44    4.97
  -7  -4   3  192.77    5.23
  -7   4   3  185.62    4.07
   7  -4  -2  172.04    4.81
   7   4  -2  175.11    4.68
  -7  -4   2  162.59    4.80
  -7  -4   1   28.07    1.70
   7  -4  -1   27.64    1.70
  -7  -4   1   30.22    2.07
   7   4  -1   28.71    1.64
  -7  -4   0   58.20    2.56
   7  -4   0   58.00    2.60
  -7  -4   0   56.34    2.92
  -7   4   0   57.92    2.01
   7   4   0   54.99    2.41
   7  -4   1   50.05    2.47
  -7  -4  -1   49.29    2.73
   7   4   1   45.85    2.22
  -7   4  -1   49.22    1.91
   7  -4   2  102.04    3.81
  -7  -4  -2   99.01    4.10
  -7   4  -2   99.37    3.12
   7  -4   3  209.70    6.16
  -7  -4  -3  208.38    6.46
   7  -4   4  535.31   12.29
  -7  -4  -4  551.62   12.70
   7  -4   5   75.15    3.50
  -7  -4  -5   79.61    3.68
  -7  -4  -5   74.98    3.36
  -7  -4  -6    0.43    0.46
  -7  -4  -6   -0.13    0.44
  -7  -4  -7   20.26    1.86
  -7  -4  -7   19.90    1.78
   7  -4   8    4.76    1.02
  -7  -4  -8    4.16    0.92
  -7  -4  -8    5.80    1.03
   7  -4   9    0.70    0.63
  -7  -4  -9   -0.15    0.67
  -7  -4  -9    0.60    0.50
   7  -4  10   30.69    2.56
  -7  -4 -10   27.44    2.22
  -7  -4 -10   28.39    2.31
   7  -4  11   14.18    1.83
  -7  -4 -11    8.61    1.25
  -7  -4 -11   13.13    1.65
   7  -4  12   18.37    2.13
  -7  -4 -12   18.86    2.00
   7  -4  13    2.05    0.90
  -7  -4 -13    3.12    0.98
  -7   4 -14    0.74    0.84
  -7   5  16   44.54    2.68
  -7  -5  16   38.87    2.55
  -7   5  15    0.51    0.50
  -7  -5  15   -0.13    0.51
  -7  -5  15   -0.11    0.42
   7  -5 -15    0.33    0.43
  -7   5  14    5.48    0.95
  -7  -5  14    6.61    1.05
  -7  -5  14    5.79    0.95
   7  -5 -14    8.43    1.04
  -7  -5  13    0.69    0.47
  -7   5  13    0.45    0.44
  -7  -5  13    0.45    0.37
  -7  -5  13    0.82    0.33
  -7  -5  12   23.77    1.81
  -7  -5  12   21.09    1.22
  -7   5  12   24.84    1.76
  -7  -5  12   20.48    1.60
   7  -5 -11   11.47    0.89
  -7  -5  11    9.11    1.19
  -7  -5  11   11.55    1.16
  -7   5  11    9.83    1.08
  -7  -5  10    1.22    0.56
   7  -5 -10    1.21    0.37
  -7  -5  10    1.19    0.42
  -7   5  10    1.48    0.48
   7  -5  -9  348.65    7.42
  -7  -5   9  324.10    7.80
  -7   5   9  325.50    7.83
  -7  -5   9  343.50    8.74
   7  -5  -8    4.53    0.60
  -7  -5   8    4.85    0.70
   7  -5  -8    4.69    0.65
  -7   5   8    5.09    0.71
  -7  -5   8    2.85    0.78
  -7   5   8    5.23    0.66
   7  -5  -7    2.22    0.42
   7  -5  -7    2.82    0.54
  -7  -5   7    2.40    0.50
  -7   5   7    2.36    0.52
  -7  -5   7    3.13    0.75
  -7   5   7    2.01    0.41
   7  -5  -6    0.91    0.29
   7  -5  -6    1.45    0.44
  -7  -5   6    0.93    0.41
  -7   5   6    0.40    0.30
  -7  -5   6    1.01    0.51
  -7   5   6    0.88    0.32
   7  -5  -5    7.02    0.81
  -7  -5   5    6.59    0.76
  -7   5   5    6.92    0.79
  -7  -5   5    5.12    0.94
  -7   5   5    5.29    0.59
  -7  -5   4   20.84    1.34
  -7   5   4   21.04    1.37
  -7  -5   4   22.39    1.82
  -7   5   4   22.79    1.17
  -7  -5   3   36.66    2.11
  -7   5   3   37.32    1.55
  -7  -5   2   15.42    1.38
   7  -5  -1  599.56   12.43
  -7  -5   1  585.01   13.30
  -7  -5   1  561.46   12.45
  -7  -5   0    1.27    0.53
  -7   5   0    0.80    0.37
   7  -5   0    0.20    0.37
  -7  -5   0    0.41    0.52
  -7  -5  -1  114.82    4.17
   7  -5   1  115.56    4.13
  -7  -5  -1  119.02    4.63
  -7   5  -1  113.55    3.47
   7  -5   2    4.43    0.81
  -7   5  -2    3.62    0.62
  -7  -5  -2    5.32    0.97
   7  -5   3   77.91    3.44
  -7  -5  -3   83.19    3.82
  -7   5  -3   76.77    2.90
   7  -5   4    1.14    0.54
  -7  -5  -4    0.43    0.44
   7  -5   5    1.61    0.64
  -7  -5  -5    2.20    0.71
  -7  -5  -6   49.49    2.95
  -7  -5  -7   46.81    2.87
  -7  -5  -7   45.39    2.82
   7  -5   8    4.54    1.03
  -7  -5  -8    7.73    1.23
  -7  -5  -8    6.03    1.13
   7  -5   9  186.27    6.62
  -7  -5  -9  175.74    6.19
  -7  -5  -9  177.63    6.34
   7  -5  10   -0.19    0.62
  -7  -5 -10   -0.16    0.68
  -7  -5 -10    0.17    0.59
   7  -5  11    4.12    1.16
  -7  -5 -11    2.54    0.92
  -7  -5 -11    3.37    0.97
   7  -5  12   22.69    2.39
  -7  -5 -12   19.60    2.11
  -7  -6  15    0.74    0.60
  -7   6  15    1.65    0.70
  -7  -6  15    1.50    0.68
  -7   6  14  224.96    6.59
  -7  -6  14  223.02    6.57
  -7  -6  13    1.68    0.68
  -7  -6  13    1.06    0.42
  -7   6  13    0.66    0.52
  -7  -6  13    0.87    0.54
  -7  -6  12   45.44    2.65
  -7  -6  12   41.03    2.29
  -7  -6  12   43.35    1.97
  -7   6  12   43.54    2.33
   7  -6 -11  157.46    4.29
  -7  -6  11  158.61    5.40
  -7   6  11  154.64    4.78
  -7  -6  11  150.33    4.72
   7  -6 -10    0.74    0.41
   7  -6 -10    0.15    0.29
  -7  -6  10    0.44    0.36
  -7   6  10    0.36    0.38
  -7  -6  10    0.54    0.49
   7  -6  -9   52.41    2.24
   7  -6  -9   51.06    2.22
  -7  -6   9   48.70    2.26
  -7   6   9   49.65    2.29
  -7  -6   9   51.01    2.89
  -7   6   9   49.44    2.20
   7  -6  -8    1.00    0.36
   7  -6  -8    0.79    0.38
  -7  -6   8    0.08    0.31
  -7   6   8    0.64    0.37
  -7  -6   8   -0.14    0.42
  -7   6   8    1.06    0.39
   7  -6  -7    3.26    0.58
  -7  -6   7    2.61    0.53
  -7   6   7    2.89    0.57
   7  -6  -7    2.80    0.61
  -7  -6   7    3.19    0.81
  -7   6   7    3.16    0.58
   7  -6  -6  183.83    5.09
  -7  -6   6  175.72    4.79
  -7   6   6  179.76    4.84
  -7  -6   6  180.85    6.04
  -7   6   6  198.06    4.82
   7   6  -6  175.53    4.59
   7  -6  -6  183.79    4.67
   7  -6  -5    1.98    0.53
  -7  -6   5    2.77    0.55
  -7   6   5    2.66    0.55
  -7  -6   5    1.27    0.64
  -7   6   5    2.04    0.49
   7  -6  -5    2.23    0.49
   7  -6  -4   36.75    2.02
  -7  -6   4   31.82    1.67
  -7   6   4   35.64    1.78
  -7  -6   4   33.96    2.39
  -7   6   4   34.54    1.68
   7  -6  -3   10.86    1.12
  -7  -6   3    9.82    1.20
  -7   6   3   12.61    0.99
  -7  -6   2    7.68    1.04
  -7  -6   2    7.09    1.15
  -7  -6   1    0.98    0.51
  -7  -6   1    0.15    0.47
  -7  -6   0   17.50    1.58
  -7  -6   0   17.28    1.72
  -7  -6  -1    0.13    0.44
  -7   6  -1    0.87    0.39
   7  -6   1    0.69    0.45
  -7  -6  -1    0.15    0.45
  -7  -6  -2    0.79    0.46
   7  -6   2    0.48    0.47
  -7  -6  -2    0.60    0.57
   7  -6   3    0.63    0.53
  -7  -6  -3    0.46    0.58
   7  -6   4   76.07    3.56
  -7  -6  -4   73.81    3.76
   7  -6   5    0.14    0.45
  -7  -6  -5    0.31    0.47
  -7  -6  -6  104.94    4.57
  -7  -6  -7   37.39    2.68
   7  -6   8    0.16    0.47
  -7  -6  -8   -0.16    0.61
   7  -6   9    4.36    1.06
  -7  -6  -9    4.76    1.08
   7  -6  10    3.16    0.96
  -7  -6 -10    5.31    1.13
   7  -6  11   41.15    3.13
  -7  -6 -11   44.76    3.16
  -7  -7  15   19.74    1.81
  -7  -7  14   41.18    2.64
  -7  -7  13    3.86    0.89
  -7  -7  13    4.10    0.69
  -7   7  13    2.81    0.68
  -7  -7  13    2.98    0.73
  -7  -7  12    1.73    0.51
  -7   7  12    1.70    0.54
  -7  -7  12    1.08    0.49
   7  -7 -11   86.45    3.33
   7  -7 -11   84.03    3.08
  -7  -7  11   88.33    4.03
  -7   7  11   84.39    3.25
  -7  -7  11   82.46    3.21
   7  -7 -10    0.47    0.46
  -7   7  10    0.35    0.38
  -7  -7  10    0.09    0.34
   7  -7 -10   -0.09    0.33
  -7  -7  10    0.75    0.64
   7  -7  -9   15.03    1.27
  -7  -7   9   13.55    1.14
  -7   7   9   13.55    1.14
  -7  -7   9   18.25    1.79
   7  -7  -9   14.94    1.25
   7  -7  -8    2.65    0.58
   7  -7  -8    2.83    0.61
  -7  -7   8    2.77    0.56
  -7   7   8    1.37    0.47
  -7  -7   8    2.30    0.73
   7  -7  -7   22.91    1.60
  -7  -7   7   21.19    1.36
  -7   7   7   22.51    1.40
  -7  -7   7   24.89    2.14
   7  -7  -7   26.74    1.59
   7  -7  -6  168.14    4.98
   7  -7  -6  158.96    4.20
  -7  -7   6  157.90    4.30
  -7   7   6  161.52    4.36
  -7  -7   6  164.12    5.89
   7  -7  -6  166.45    4.62
   7   7  -6  157.85    4.15
   7  -7  -5   23.90    1.66
  -7  -7   5   18.98    1.21
  -7   7   5   20.27    1.27
  -7  -7   5   19.00    1.91
   7   7  -5   18.75    1.16
  -7   7   5   20.65    1.41
   7  -7  -4   25.29    1.76
  -7  -7   4   25.69    1.45
  -7   7   4   28.38    1.53
  -7  -7   4   26.01    2.19
  -7   7   4   28.60    1.67
  -7   7   3    2.16    0.50
   7  -7  -3    3.28    0.73
  -7  -7   3    1.95    0.48
  -7  -7   3    1.65    0.71
  -7   7   3    2.39    0.59
  -7  -7   2    0.28    0.46
  -7  -7   2    0.48    0.58
   7  -7  -2    0.57    0.49
  -7  -7   1    0.84    0.56
   7  -7  -1    1.29    0.56
  -7  -7   1    0.96    0.58
  -7  -7   0   12.21    1.55
  -7  -7   0   10.60    1.37
  -7  -7  -1   51.08    2.96
  -7  -7  -1   47.25    3.01
  -7  -7  -2   97.29    4.29
   7  -7   2   96.16    4.04
  -7  -7  -2  109.78    4.69
  -7  -7  -3   16.31    1.73
   7  -7   3   15.03    1.54
  -7  -7  -3   13.35    1.65
   7  -7   4    0.99    0.64
  -7  -7  -4    0.50    0.63
   7  -7   5   18.96    1.86
  -7  -7  -5   19.26    1.95
  -7  -7  -6   18.05    1.93
  -7  -7  -7   54.01    3.32
   7  -7   8   21.65    2.11
  -7  -7  -8   18.45    1.99
   7  -7   9   24.01    2.31
  -7  -7  -9   28.08    2.42
  -7  -7 -10    9.10    1.46
  -7  -8  14    2.79    0.97
  -7  -8  13    3.64    0.92
  -7  -8  12    0.16    0.56
  -7  -8  12   -0.20    0.42
  -7  -8  11    0.49    0.64
  -7  -8  11    0.83    0.49
  -7   8  11    0.89    0.46
  -7  -8  10    3.83    0.98
   7  -8 -10    4.34    0.81
  -7   8  10    3.93    0.67
   7  -8  -9   83.89    3.33
  -7   8   9   80.47    2.92
  -7  -8   9   89.26    4.26
   7  -8  -8   44.89    2.38
  -7   8   8   43.49    1.99
  -7  -8   8   48.29    3.08
   7  -8  -8   43.48    2.28
   7  -8  -7    7.64    0.98
  -7  -8   7    7.39    1.29
   7  -8  -7    7.28    1.02
  -7   8   7    7.22    0.79
  -7  -8   6    0.68    0.66
   7  -8  -6   -0.11    0.38
  -7   8   6    0.88    0.35
  -7  -8   5    8.83    1.40
   7  -8  -5    7.91    1.05
  -7   8   5    7.72    0.76
  -7  -8   4    7.34    1.32
   7  -8  -4    8.02    1.08
  -7   8   4    8.14    0.75
  -7  -8   3    1.57    0.71
   7  -8  -3    3.25    0.75
  -7   8   3    2.44    0.48
  -7  -8   2    1.40    0.67
   7  -8  -2    0.13    0.40
  -7   8   2    0.30    0.31
  -7  -8   2   -0.17    0.52
   7  -8  -1   56.38    3.01
  -7   8   1   54.12    2.12
  -7  -8   1   55.75    3.38
  -7  -8   1   57.54    3.27
   7  -8   0   63.09    3.23
  -7  -8   0   70.52    3.84
  -7  -8   0   62.95    3.50
  -7  -8  -1  109.08    4.90
  -7  -8  -1  107.52    4.71
  -7  -8  -2    6.64    1.27
  -7  -8  -2    5.86    1.22
   7  -8   3   47.84    2.87
  -7  -8  -3   54.95    3.33
  -7  -8  -3   46.00    3.13
  -7  -8  -4    7.15    1.29
   7  -8   4    7.27    1.20
  -7  -8  -4    6.30    1.29
  -7  -8  -5   10.33    1.54
   7  -8   5    8.52    1.32
  -7  -8  -5   10.16    1.53
  -7  -8  -6    0.92    0.74
  -7  -8  -7   39.29    2.98
  -7  -8  -8   29.34    2.53
  -7  -8  -9   75.00    4.14
  -7  -8 -10    0.93    0.75
  -7  -9  14   22.00    2.18
  -7  -9  13   -0.17    0.70
  -7  -9  12   33.65    2.67
  -7  -9  12   29.86    2.05
  -7  -9  11    5.25    1.20
  -7  -9  11    4.26    0.88
   7  -9 -10   13.30    1.36
  -7  -9  10   14.15    1.80
   7  -9  -9   29.91    2.05
  -7  -9   9   31.88    2.66
   7  -9  -8   12.50    1.34
  -7  -9   8   10.80    1.59
  -7  -9   7    3.13    0.95
   7  -9  -7    1.91    0.61
  -7  -9   6    0.74    0.59
   7  -9  -6    0.61    0.51
   7  -9  -5   17.97    1.66
  -7  -9   5   21.53    2.19
  -7  -9   4    2.05    0.88
   7  -9  -4    1.81    0.68
   7  -9  -3   10.60    1.33
   7  -9  -2   29.34    2.20
  -7  -9   2   32.97    2.67
  -7  -9   2   35.65    2.68
  -7  -9   1    7.03    1.25
  -7  -9   1    5.30    1.17
   7  -9  -1    6.42    1.10
  -7  -9   0    2.85    0.92
  -7  -9   0    3.44    0.98
   7  -9   0    2.34    0.82
  -7  -9  -1    0.18    0.52
  -7  -9  -1   -0.39    0.68
  -7  -9  -2    1.66    0.77
  -7  -9  -2    0.96    0.70
  -7  -9  -3    8.64    1.45
  -7  -9  -3   11.04    1.67
  -7  -9  -4    1.55    0.87
   7  -9   4    2.26    0.78
  -7  -9  -4    2.73    0.98
  -7  -9  -5    2.93    1.01
  -7  -9  -6    1.18    0.77
  -7 -10  11   12.99    1.50
  -7 -10  10   13.58    1.56
   7 -10  -9   -0.25    0.53
   7 -10  -8   29.46    2.17
   7 -10  -7    2.94    0.83
   7 -10  -6   14.84    1.61
   7 -10  -5   28.99    2.20
   7 -10  -4   12.11    1.46
   7 -10  -3   60.07    3.28
   7 -10  -2   -0.15    0.50
  -8   0  18   56.53    3.26
   8   0 -18   56.26    3.03
  -8   0  17    0.15    0.55
   8   0 -17    0.12    0.44
  -8   0  16  105.66    4.42
   8   0 -16  108.21    4.05
  -8   0  15    0.27    0.36
   8   0 -15    0.10    0.40
  -8   0  14   34.96    2.28
   8   0 -14   37.48    2.03
  -8   0  13   -0.12    0.44
   8   0 -13   -0.08    0.33
  -8   0  12  148.69    4.99
   8   0 -12  154.07    4.49
   8   0 -12  160.86    4.35
  -8   0  11    0.75    0.43
   8   0 -11    0.18    0.39
  -8   0  11    0.18    0.33
  -8   0  10   27.21    1.79
  -8   0  10   25.77    1.70
   8   0 -10   23.07    1.60
  -8   0   9    0.38    0.15
  -8   0   9    0.90    0.44
  -8   0   9    0.20    0.34
   8   0  -9    0.59    0.46
  -8   0   8 1176.65   20.73
  -8   0   8 1170.28   22.58
  -8   0   8 1175.06   22.82
   8   0  -8 1161.72   22.70
   8   0  -8 1207.46   20.60
   8   0  -7    0.06    0.11
  -8   0   7    0.38    0.27
   8   0  -7    0.53    0.49
  -8   0   7    0.22    0.35
  -8   0   6   48.87    1.86
   8   0  -6   50.80    2.02
  -8   0   6   50.09    2.64
   8   0  -6   47.53    2.56
   8   0  -6   53.18    1.19
  -8   0   5    0.12    0.25
   8   0  -5    0.42    0.30
  -8   0   5   -0.12    0.35
   8   0  -5    0.11    0.41
  -8   0   4    0.80    0.36
   8   0  -4    0.16    0.27
  -8   0   4    0.12    0.36
  -8   0   3    0.44    0.35
   8   0  -3    0.09    0.31
  -8   0   2  183.58    4.93
   8   0  -2  175.00    5.12
  -8   0   2  174.00    3.46
  -8   0   1    0.09    0.33
   8   0  -1    0.10    0.29
  -8   0   1    0.13    0.38
  -8   0   0 1598.17   28.80
   8   0   0 1594.28   29.28
  -8   0   0 1596.84   29.81
  -8   0   0 1524.26   27.04
   8   0   1    0.47    0.44
  -8   0  -1   -0.13    0.37
  -8   0  -1    0.23    0.22
   8   0   2   36.03    2.29
  -8   0  -2   38.21    2.40
  -8   0  -2   38.22    1.65
   8   0   3   -0.13    0.46
  -8   0  -3    0.52    0.50
  -8   0  -3    0.07    0.22
   8   0   4  182.15    6.06
  -8   0  -4  184.73    5.97
  -8   0  -4  183.19    4.91
   8   0   5    0.29    0.42
  -8   0  -5    0.79    0.44
  -8   0  -5    0.09    0.35
   8   0   6  127.57    5.13
  -8   0  -6  133.50    4.88
  -8   0  -6  142.38    4.49
  -8   0  -7    0.26    0.47
  -8   0  -7    0.32    0.39
   8   0   8   32.42    2.50
  -8   0  -8   33.33    2.12
   8   0   9   -0.17    0.66
  -8   0  -9   -0.50    0.49
   8   0  10   10.22    1.52
  -8   0 -10   13.10    1.48
   8   0  11    1.13    0.79
  -8   0 -11   -0.44    0.54
   8   0  12  220.55    7.78
  -8   0 -12  222.08    7.16
   8   0  13   -0.20    0.73
  -8   0 -13    0.34    0.61
   8   0  14    0.41    0.72
  -8   0 -14    0.18    0.55
   8   1 -19    9.38    1.36
  -8  -1  18    4.10    0.97
   8   1 -18    3.20    0.84
  -8  -1  17   44.05    2.80
   8  -1 -17   40.55    2.39
  -8  -1  16    1.00    0.52
   8  -1 -16    0.64    0.49
  -8  -1  15    0.13    0.51
   8  -1 -15    0.19    0.43
  -8  -1  14   78.61    3.57
  -8  -1  14   87.86    3.05
   8  -1 -14   88.60    3.22
  -8  -1  13  238.41    6.92
  -8  -1  13  244.15    6.30
   8  -1 -13  259.47    6.19
  -8  -1  12    4.64    0.81
   8   1 -12    5.45    0.76
   8  -1 -12    4.12    0.71
  -8  -1  12    5.48    0.82
   8  -1 -12    4.90    0.65
  -8  -1  11   26.73    1.82
  -8  -1  11   25.41    1.74
   8   1 -11   26.03    1.63
   8  -1 -11   25.26    1.66
   8  -1 -11   27.78    1.38
  -8  -1  10    8.49    0.40
  -8  -1  10    8.80    1.01
  -8  -1  10    9.48    1.12
   8   1 -10   10.36    1.09
   8  -1 -10    7.93    1.01
   8  -1 -10    8.32    0.68
   8  -1  -9    2.18    0.33
  -8  -1   9    2.81    0.34
   8   1  -9    2.04    0.37
  -8  -1   9    2.86    0.63
   8   1  -9    2.41    0.60
  -8  -1   9    2.00    0.63
   8  -1  -9    2.01    0.59
   8  -1  -9    2.36    0.35
  -8  -1   8    4.26    0.48
   8  -1  -8    3.28    0.44
  -8   1   8    3.55    0.40
  -8  -1   8    3.97    0.71
   8  -1  -8    3.77    0.70
  -8  -1   8    3.11    0.74
   8   1  -8    3.54    0.74
   8  -1  -8    3.92    0.32
   8   1  -8    3.88    0.46
  -8   1   7  120.74    3.13
  -8  -1   7  124.84    3.32
   8   1  -7  130.27    3.03
   8  -1  -7  120.86    3.38
  -8  -1   7  125.45    4.55
   8   1  -7  127.74    4.33
  -8   1   7  117.38    4.22
   8  -1  -7  136.58    4.49
  -8  -1   7  125.96    4.14
  -8  -1   6  164.15    4.21
  -8   1   6  160.14    3.99
   8  -1  -6  164.67    4.33
  -8  -1   6  169.98    5.49
  -8   1   6  155.35    5.06
   8  -1  -6  169.01    5.21
   8  -1  -5  159.32    4.44
  -8   1   5  159.26    4.17
  -8  -1   5  172.75    4.45
  -8  -1   5  168.00    5.51
  -8   1   5  155.15    5.13
   8   1  -5  166.47    3.54
   8  -1  -4    9.92    0.95
  -8  -1   4    8.82    0.90
  -8  -1   4    9.58    1.21
  -8   1   4    6.83    0.98
   8   1  -4    9.17    0.56
   8   1  -3   94.73    3.44
   8  -1  -3   98.36    3.46
  -8  -1   3  103.26    3.43
   8   1  -3  104.40    2.55
  -8   1   2    8.71    0.90
   8   1  -2    9.36    1.03
   8  -1  -2    8.68    0.97
  -8  -1   2   10.82    1.08
   8   1  -2   10.41    0.66
  -8  -1   2    8.87    0.63
  -8  -1   1    5.79    0.86
   8   1  -1    5.28    0.82
  -8   1   1    4.11    0.70
   8  -1  -1    5.28    0.81
  -8  -1   1    4.75    0.91
  -8   1   1    4.29    0.82
   8   1  -1    5.63    0.55
   8   1   0   86.06    3.56
   8  -1   0   90.86    3.56
  -8  -1   0   87.79    3.87
  -8   1   0   81.30    3.61
   8   1   0   88.27    2.60
  -8   1   0   88.04    2.22
   8   1   1   44.62    2.52
   8  -1   1   39.11    2.32
  -8  -1  -1   44.50    2.67
  -8   1  -1   41.83    2.50
  -8   1  -1   41.92    1.54
  -8  -1  -1   42.35    1.74
   8   1   2    5.30    0.93
   8  -1   2    3.71    0.78
  -8  -1  -2    4.56    0.90
  -8   1  -2    3.08    0.77
  -8   1  -2    4.75    0.56
  -8  -1  -2    3.61    0.54
   8   1   3    2.46    0.72
  -8  -1  -3    2.35    0.70
  -8   1  -3    1.51    0.38
  -8  -1  -3    3.05    0.55
   8   1   4   23.35    1.98
   8  -1   4   21.83    1.88
  -8  -1  -4   24.69    1.98
  -8   1  -4   23.53    1.43
  -8  -1  -4   20.51    1.42
   8   1   5  676.60   15.39
   8  -1   5  682.76   15.34
  -8  -1  -5  695.48   15.08
  -8   1  -5  671.02   13.61
  -8  -1  -5  664.32   13.81
   8   1   6   64.90    3.52
   8  -1   6   63.45    3.45
  -8  -1  -6   68.99    3.35
  -8  -1  -6   70.55    2.97
  -8   1  -6   63.13    2.75
  -8  -1  -7    4.00    0.85
  -8  -1  -7    2.39    0.66
  -8   1  -7    3.48    0.73
   8   1   8   66.21    3.72
   8  -1   8   65.96    3.67
  -8  -1  -8   68.03    3.31
  -8  -1  -8   73.91    3.27
  -8   1  -8   65.74    3.04
   8   1   9    9.86    1.51
   8  -1   9   11.21    1.55
  -8  -1  -9    8.59    1.19
  -8  -1  -9    8.73    1.17
  -8   1  -9    9.63    1.24
   8   1  10   35.03    2.75
   8  -1  10   33.20    2.67
  -8  -1 -10   34.22    2.24
  -8  -1 -10   37.21    2.46
  -8   1 -10   33.21    2.31
   8   1  11  195.27    7.14
   8  -1  11  198.81    7.13
  -8  -1 -11  189.54    6.42
  -8   1 -11  199.99    6.47
   8  -1  12    6.77    1.35
  -8  -1 -12    8.74    1.32
  -8   1 -12    8.63    1.34
   8  -1  13   62.41    3.88
  -8  -1 -13   68.57    3.73
  -8   1 -13   71.47    3.83
   8  -1  14   60.84    3.95
  -8  -1 -14   67.25    3.79
  -8   1 -14   68.16    3.86
  -8   2  18   86.98    4.16
  -8  -2  18   83.41    4.03
  -8   2  17   38.96    2.62
  -8  -2  17   34.08    2.46
  -8   2  16    0.14    0.56
  -8  -2  16    0.14    0.52
   8  -2 -16   -0.31    0.38
  -8  -2  15  212.97    6.56
  -8   2  15  202.54    6.49
  -8  -2  15  205.59    5.47
   8  -2 -15  220.79    5.86
  -8  -2  14   31.50    2.14
  -8   2  14   32.00    2.16
  -8  -2  14   29.72    1.82
   8  -2 -14   33.10    1.82
  -8  -2  13    6.91    1.02
  -8   2  13    6.71    1.02
  -8  -2  13   10.06    1.13
   8  -2 -13    8.31    0.87
  -8  -2  12   15.71    1.43
  -8   2  12   18.19    1.55
  -8  -2  12   18.42    1.52
   8   2 -12   15.48    1.24
   8  -2 -12   17.90    1.40
   8  -2 -12   18.58    1.18
  -8  -2  11   62.15    1.44
  -8  -2  11   56.70    2.72
  -8   2  11   57.71    2.76
  -8  -2  11   64.47    2.98
   8  -2 -11   63.98    2.75
   8   2 -11   66.44    2.41
   8  -2 -11   63.61    2.12
   8  -2 -10   15.06    0.78
  -8  -2  10   15.51    0.81
  -8  -2  10   12.80    1.25
  -8   2  10   13.32    1.28
  -8  -2  10   17.30    1.55
   8  -2 -10   12.00    1.24
   8   2 -10   13.44    1.01
   8  -2 -10   15.27    0.88
   8  -2  -9   34.16    1.40
  -8  -2   9   32.04    1.38
  -8  -2   9   31.17    1.92
  -8   2   9   36.54    2.07
  -8  -2   9   29.43    2.07
   8   2  -9   32.96    1.54
   8  -2  -9   35.04    1.21
   8   2  -8   14.95    0.98
   8  -2  -8   13.54    0.93
  -8  -2   8   15.47    1.52
  -8  -2   8   13.66    1.26
  -8   2   8   13.77    1.26
   8   2  -7   63.98    2.12
  -8  -2   7   65.93    2.32
   8  -2  -7   62.70    2.28
  -8  -2   7   67.16    3.22
  -8   2   7   62.19    2.05
  -8  -2   7   61.70    2.72
  -8   2   7   66.72    2.82
   8  -2  -6    1.80    0.43
  -8  -2   6    1.76    0.43
  -8  -2   6    1.54    0.55
  -8  -2   6    1.62    0.49
  -8   2   6    1.48    0.37
  -8   2   6    1.56    0.47
  -8   2   5   27.26    1.40
  -8  -2   5   26.94    1.51
   8  -2  -5   28.29    1.56
  -8  -2   5   23.39    1.89
   8  -2  -4    4.70    0.68
  -8   2   4    4.73    0.64
  -8  -2   4    5.00    0.73
  -8  -2   4    4.89    0.93
   8   2  -4    5.89    0.56
  -8   2   3   25.38    1.47
  -8  -2   3   25.23    1.58
   8  -2  -3   24.40    1.56
  -8  -2   3   26.04    1.28
   8   2  -3   25.20    1.21
  -8   2   2  158.69    4.61
  -8  -2   2  164.11    4.84
   8  -2  -2  168.79    4.97
   8   2  -2  173.98    4.11
  -8  -2   2  165.22    4.14
   8  -2  -1    6.18    0.89
  -8  -2   1    8.02    0.74
  -8  -2   1    8.36    1.00
  -8   2   1    7.21    0.90
  -8  -2   1    7.55    1.14
  -8   2   1    7.69    0.39
  -8   2   1    8.02    0.41
   8   2  -1    9.27    0.79
   8  -2   0  121.00    4.30
  -8  -2   0  124.62    4.84
  -8   2   0  126.66    2.90
   8   2   0  127.61    3.58
   8  -2   1  126.35    4.54
  -8   2  -1  134.59    3.28
   8   2   1  134.47    3.84
   8  -2   2   34.89    2.27
  -8  -2  -2   35.38    2.48
  -8   2  -2   38.81    1.62
   8   2   2   41.31    1.95
  -8  -2  -2   35.59    1.81
  -8  -2  -3   11.98    1.45
  -8   2  -3   13.66    1.00
  -8  -2  -3   11.21    1.04
   8   2   3   13.86    1.14
   8  -2   4   21.26    1.88
  -8  -2  -4   17.74    1.78
  -8   2  -4   23.54    1.41
  -8  -2  -4   21.07    1.50
   8  -2   5    5.99    1.14
  -8  -2  -5    7.40    1.18
  -8   2  -5    6.60    0.84
  -8  -2  -5    7.58    0.97
   8  -2   6  483.60   12.32
  -8  -2  -6  511.39   12.22
  -8   2  -6  514.28   11.03
  -8  -2  -6  499.79   11.27
  -8  -2  -7   20.21    1.88
  -8   2  -7   23.31    1.70
  -8  -2  -7   19.90    1.67
   8  -2   8   41.74    2.92
  -8  -2  -8   45.54    2.75
  -8   2  -8   47.23    2.56
  -8  -2  -8   48.89    2.70
   8  -2   9   65.05    3.79
  -8  -2  -9   70.92    3.43
  -8   2  -9   77.35    3.46
  -8  -2  -9   68.42    3.36
   8  -2  10   83.40    4.37
  -8  -2 -10   81.48    3.68
  -8   2 -10   84.37    3.83
  -8  -2 -10   83.24    3.86
   8  -2  11    0.77    0.75
  -8  -2 -11    0.15    0.51
  -8  -2 -11   -0.12    0.55
  -8   2 -11    0.15    0.54
   8  -2  12    0.39    0.74
  -8  -2 -12    0.16    0.63
  -8   2 -12    0.48    0.59
   8  -2  13   54.94    3.63
  -8  -2 -13   49.41    3.18
  -8   2 -13   49.63    3.20
  -8   2 -14    1.81    0.89
  -8   3  18   94.54    4.37
  -8  -3  18  101.51    4.49
  -8   3  17   17.32    1.77
  -8  -3  17   14.71    1.63
  -8   3  16    1.29    0.56
  -8  -3  16    2.56    0.79
  -8   3  15    2.97    0.77
  -8  -3  15    2.55    0.77
  -8  -3  15    4.01    0.76
   8  -3 -15    1.57    0.56
  -8  -3  14   17.35    1.59
  -8   3  14   18.35    1.68
  -8  -3  14   15.89    1.50
   8  -3 -14   16.97    1.30
  -8  -3  13   46.80    2.58
  -8   3  13   39.96    2.40
  -8  -3  13   47.66    2.57
   8  -3 -13   48.75    2.11
  -8  -3  12   24.59    0.91
  -8  -3  12   25.03    1.00
  -8  -3  12   27.02    1.88
  -8   3  12   25.65    1.84
  -8  -3  12   22.19    1.79
   8  -3 -12   25.87    1.40
   8  -3 -11    0.80    0.26
  -8  -3  11    0.48    0.24
  -8  -3  11    0.53    0.35
  -8   3  11    0.96    0.49
  -8  -3  11    0.12    0.54
   8  -3 -11    0.80    0.30
   8  -3 -10  266.44    5.66
  -8  -3  10  272.14    5.78
  -8  -3  10  261.43    6.96
  -8   3  10  263.67    6.99
  -8  -3  10  266.63    7.40
   8   3 -10  280.84    6.53
   8  -3  -9   80.75    2.45
  -8  -3   9   81.61    2.53
  -8  -3   9   73.78    3.09
  -8   3   9   76.91    3.15
  -8  -3   9   78.91    3.50
   8   3  -9   85.85    2.86
   8  -3  -8    6.75    0.67
   8   3  -8    6.76    0.76
   8  -3  -8    6.96    0.45
  -8  -3   8    6.82    0.72
  -8  -3   8    8.01    1.10
  -8  -3   8    7.54    0.94
  -8   3   8    6.38    0.87
   8  -3  -7  123.54    3.52
  -8  -3   7  132.40    3.66
  -8  -3   7  124.20    4.63
  -8  -3   7  124.53    4.08
  -8   3   7  129.56    4.18
   8  -3  -6    5.44    0.67
  -8  -3   6    3.81    0.59
  -8  -3   6    4.86    0.90
  -8  -3   6    4.55    0.74
  -8   3   6    4.47    0.73
   8  -3  -5    0.93    0.36
  -8  -3   5    1.83    0.47
  -8   3   5    1.65    0.44
  -8  -3   5    1.43    0.60
   8  -3  -4    0.62    0.34
  -8  -3   4    0.94    0.38
  -8   3   4    0.28    0.27
  -8  -3   4    0.40    0.40
   8   3  -4    0.48    0.30
  -8   3   3    0.68    0.37
   8  -3  -3    0.08    0.30
  -8  -3   3    0.07    0.27
  -8  -3   3   -0.08    0.28
   8   3  -3    0.06    0.27
   8  -3  -2  172.64    4.99
  -8  -3   2  173.08    4.63
  -8   3   2  173.08    3.29
   8   3  -2  182.77    4.57
   8  -3  -1   26.53    1.73
  -8  -3   1   24.16    1.47
  -8   3   1   27.07    0.98
  -8  -3   1   24.17    1.97
   8   3  -1   25.53    1.44
   8  -3   0   69.79    3.06
  -8  -3   0   71.19    3.51
   8   3   0   79.19    2.79
  -8   3   0   71.87    2.08
   8  -3   1  154.35    5.09
  -8  -3  -1  159.08    5.63
   8   3   1  166.73    4.62
   8  -3   2    5.29    0.93
  -8  -3  -2    5.45    1.00
   8   3   2    7.95    0.91
   8  -3   3   14.27    1.49
  -8  -3  -3   13.22    1.58
   8  -3   4   98.17    4.19
  -8  -3  -4   93.45    4.26
  -8  -3  -4   92.05    3.53
   8  -3   5    5.76    1.07
  -8  -3  -5    2.83    0.87
  -8  -3  -5    4.13    0.80
   8  -3   6   21.24    2.03
  -8  -3  -6   22.41    2.04
  -8  -3  -6   20.84    1.68
  -8  -3  -7    1.42    0.68
  -8  -3  -7    2.12    0.68
   8  -3   8    0.36    0.54
  -8  -3  -8    0.15    0.56
  -8   3  -8    0.12    0.41
  -8  -3  -8    0.13    0.49
   8  -3   9    1.85    0.86
  -8  -3  -9    3.10    0.91
  -8   3  -9    3.06    0.81
  -8  -3  -9    1.99    0.69
   8  -3  10    0.19    0.64
  -8  -3 -10    0.43    0.54
  -8   3 -10    0.28    0.44
  -8  -3 -10    0.61    0.63
   8  -3  11   59.22    3.71
  -8  -3 -11   64.71    3.27
  -8   3 -11   59.01    3.33
  -8  -3 -11   68.02    3.61
   8  -3  12    0.61    0.72
  -8  -3 -12   -0.34    0.66
  -8   3 -12   -0.17    0.67
   8  -3  13   29.34    2.73
  -8   3 -13   34.59    2.73
  -8  -3 -13   32.97    2.64
  -8   3 -14    0.94    0.68
  -8   4  18    3.01    0.85
  -8  -4  18    3.93    0.95
  -8   4  17   54.82    3.14
  -8  -4  17   54.08    3.09
  -8   4  16    0.56    0.57
  -8  -4  16    0.14    0.60
  -8   4  15    2.81    0.80
  -8  -4  15    2.39    0.74
  -8  -4  15    3.86    0.86
  -8  -4  14    0.76    0.54
  -8   4  14    0.51    0.41
  -8  -4  14    0.84    0.47
  -8  -4  13    0.14    0.20
  -8  -4  13    0.12    0.43
  -8   4  13    0.35    0.40
  -8  -4  13    0.24    0.43
   8  -4 -13    0.46    0.33
  -8  -4  12  197.00    6.00
  -8  -4  12  187.30    4.27
  -8  -4  12  180.50    5.60
  -8   4  12  190.23    5.71
   8  -4 -11   17.37    0.99
  -8  -4  11   17.94    1.07
  -8  -4  11   17.68    1.62
  -8  -4  11   18.87    1.54
  -8   4  11   18.57    1.54
   8  -4 -10    0.89    0.33
  -8  -4  10    0.12    0.26
  -8  -4  10    0.75    0.49
  -8  -4  10    0.70    0.40
  -8   4  10    0.71    0.41
   8  -4  -9   31.16    1.30
   8  -4  -9   29.47    1.47
  -8  -4   9   30.06    1.53
  -8  -4   9   28.81    1.81
  -8   4   9   28.91    1.83
  -8  -4   9   29.43    2.10
   8  -4  -8   29.67    1.52
  -8  -4   8   34.44    1.68
  -8  -4   8   28.85    1.80
  -8   4   8   29.21    1.81
  -8  -4   8   27.40    2.04
   8  -4  -8   30.85    1.20
   8  -4  -7   12.77    1.00
  -8  -4   7   11.67    1.03
  -8  -4   7   10.96    1.08
  -8   4   7   10.93    1.10
  -8  -4   7   11.95    1.39
   8  -4  -7   11.74    0.64
   8  -4  -6    0.59    0.32
  -8  -4   6    0.61    0.39
  -8  -4   6    0.63    0.37
  -8   4   6    0.28    0.31
  -8  -4   6    0.27    0.47
   8  -4  -5    4.61    0.68
  -8  -4   5    5.07    0.75
  -8  -4   5    5.54    0.99
  -8   4   5    5.50    0.39
   8  -4  -4  136.83    4.22
  -8  -4   4  140.56    5.11
  -8   4   4  143.16    2.99
   8   4  -4  143.51    4.12
  -8  -4   3    4.59    0.75
   8  -4  -3    4.27    0.71
   8   4  -3    5.35    0.74
  -8   4   3    4.96    0.40
   8  -4  -2  103.85    3.65
  -8  -4   2   96.61    4.16
  -8  -4   2   99.99    3.51
   8   4  -2  100.88    3.35
  -8  -4   1    5.97    0.82
   8  -4  -1    6.35    0.89
  -8  -4   1    6.53    1.08
   8   4  -1    6.56    0.82
  -8   4   0   57.90    1.96
   8  -4   0   60.34    2.81
  -8  -4   0   55.23    2.55
  -8  -4   0   59.33    3.20
  -8   4  -1    3.91    0.56
   8  -4   1    4.20    0.79
  -8  -4  -1    2.93    0.84
   8  -4   2   34.50    2.23
  -8  -4  -2   37.20    2.53
  -8   4  -2   32.95    1.61
   8  -4   3   41.82    2.56
  -8  -4  -3   42.98    2.78
   8  -4   4  135.02    5.07
  -8  -4  -4  140.11    5.37
   8  -4   5   56.15    3.17
  -8  -4  -5   52.60    3.15
   8  -4   6   10.12    1.41
  -8  -4  -6    8.27    1.32
  -8  -4  -6    9.53    1.23
  -8  -4  -7   40.17    2.76
  -8  -4  -7   36.22    2.42
   8  -4   8  136.35    5.73
  -8  -4  -8  150.13    5.72
  -8  -4  -8  149.93    5.40
   8  -4   9    3.63    1.02
  -8  -4  -9    1.98    0.88
  -8  -4  -9    3.49    0.92
   8  -4  10    1.80    0.88
  -8  -4 -10    0.47    0.62
  -8  -4 -10    1.12    0.67
   8  -4  11   50.20    3.46
  -8  -4 -11   48.85    2.98
  -8  -4 -11   51.50    3.22
   8  -4  12    4.82    1.26
  -8   4 -12    6.79    1.27
  -8  -4 -12    2.99    0.94
  -8   4 -13   -0.18    0.67
  -8   5  17    0.30    0.54
  -8  -5  17    0.73    0.61
  -8   5  16   16.01    1.67
  -8  -5  16   14.31    1.56
  -8  -5  15    0.25    0.48
  -8   5  15   -0.40    0.58
  -8  -5  15    0.26    0.51
  -8  -5  14    5.75    1.01
  -8   5  14    5.03    0.95
  -8  -5  14    5.58    0.97
  -8  -5  13   12.13    0.90
  -8  -5  13   13.93    1.48
  -8  -5  13   13.40    1.38
  -8   5  13   12.87    1.36
  -8  -5  12   88.75    3.82
  -8  -5  12   80.95    2.63
  -8  -5  12   80.95    3.39
  -8   5  12   82.82    3.43
  -8  -5  11    1.21    0.56
  -8  -5  11    1.57    0.55
  -8   5  11    1.27    0.48
   8  -5 -10    8.64    0.81
  -8  -5  10    8.94    1.25
  -8   5  10    7.51    0.97
  -8  -5  10    6.64    0.90
   8  -5  -9   37.08    1.60
  -8  -5   9   36.26    2.42
  -8  -5   9   39.03    2.09
  -8   5   9   38.18    2.08
   8  -5  -8    0.39    0.27
  -8  -5   8    0.09    0.33
  -8   5   8    0.55    0.43
  -8  -5   8    0.14    0.51
   8  -5  -7    2.82    0.42
  -8  -5   7    2.05    0.51
  -8   5   7    2.20    0.56
  -8  -5   7    2.11    0.72
  -8   5   7    2.61    0.43
   8  -5  -6   51.37    2.27
  -8  -5   6   43.78    2.19
  -8   5   6   46.17    2.25
  -8  -5   6   43.33    2.71
  -8   5   6   49.27    1.68
   8  -5  -5   44.90    2.19
  -8  -5   5   43.51    2.18
  -8   5   5   47.36    2.27
  -8  -5   5   43.39    2.72
  -8   5   5   49.78    1.68
   8  -5  -4  104.15    3.68
  -8  -5   4  105.66    4.45
  -8   5   4  107.60    2.79
   8  -5  -3  110.92    3.84
  -8   5   3  112.77    2.91
   8  -5  -2   36.12    2.10
  -8  -5   2   32.55    2.39
  -8  -5   2   33.45    2.05
  -8  -5   1    5.92    0.93
   8  -5  -1    5.18    0.86
  -8  -5   1    6.62    1.11
  -8   5   0   10.49    0.88
   8  -5   0   12.80    1.29
  -8  -5   0   12.64    1.30
  -8   5  -1    1.16    0.40
   8  -5   1    0.24    0.42
  -8  -5  -1    1.55    0.72
   8  -5   2   29.22    2.09
  -8  -5  -2   33.31    2.46
  -8   5  -2   30.60    1.64
  -8   5  -3    1.64    0.50
   8  -5   3    1.47    0.59
  -8  -5  -3    1.43    0.75
   8  -5   4   10.85    1.39
  -8  -5  -4   14.62    1.66
   8  -5   5    3.59    0.90
  -8  -5  -5    4.45    1.00
   8  -5   6    4.30    1.01
  -8  -5  -6    5.90    1.16
  -8  -5  -7   16.02    1.83
   8  -5   8   50.17    3.26
  -8  -5  -8   45.88    3.09
  -8  -5  -8   47.53    2.97
   8  -5   9   49.66    3.37
  -8  -5  -9   51.67    3.29
  -8  -5  -9   48.55    3.08
   8  -5  10  209.95    7.54
  -8  -5 -10  193.10    6.90
  -8  -5 -10  195.66    6.87
   8  -5  11    7.21    1.46
  -8  -5 -11    5.90    1.20
  -8   6  16   41.73    2.64
  -8  -6  16   38.61    2.53
  -8  -6  15    3.51    0.86
  -8   6  15    2.21    0.73
  -8  -6  15    1.15    0.61
  -8  -6  14    7.53    1.20
  -8   6  14    6.41    1.10
  -8  -6  14    5.59    0.97
  -8  -6  13   11.44    1.44
  -8   6  13    9.47    1.18
  -8  -6  13   10.11    1.22
  -8  -6  12   15.76    1.66
  -8  -6  12   16.89    1.21
  -8   6  12   14.97    1.41
  -8  -6  12   14.47    1.38
  -8  -6  11   15.74    1.68
  -8  -6  11   18.60    1.48
  -8   6  11   18.45    1.49
  -8  -6  10    3.40    0.93
   8  -6 -10    4.29    0.70
  -8  -6  10    3.58    0.71
  -8   6  10    3.46    0.74
   8  -6  -9    1.64    0.46
   8  -6  -9    1.64    0.50
  -8  -6   9    2.10    0.56
  -8   6   9    1.50    0.52
  -8  -6   9    1.79    0.69
   8  -6  -8  110.93    3.67
  -8  -6   8   99.08    3.53
  -8   6   8  103.15    3.63
  -8  -6   8  108.94    4.60
  -8   6   8  116.09    3.32
   8  -6  -8  111.62    3.25
  -8  -6   7   95.84    3.39
  -8   6   7  102.49    3.52
  -8  -6   7  104.17    4.47
   8  -6  -7  101.70    3.02
  -8   6   7  103.22    3.05
  -8  -6   6   75.20    2.92
  -8   6   6   76.19    2.96
  -8  -6   6   76.34    3.80
  -8   6   6   79.48    2.56
  -8  -6   5    3.13    0.62
  -8   6   5    4.00    0.68
  -8  -6   5    3.55    0.91
  -8   6   5    3.50    0.56
  -8  -6   4   50.75    2.30
  -8   6   4   55.40    2.42
  -8  -6   4   56.13    3.22
  -8   6   4   57.66    2.09
   8  -6  -3  152.03    4.89
  -8  -6   3  153.76    5.17
  -8   6   3  161.78    4.11
   8  -6  -2   14.83    1.39
  -8  -6   2   18.68    1.89
  -8  -6   2   15.98    1.51
   8  -6  -1  102.95    3.96
  -8  -6   1  101.15    4.52
  -8  -6   1   96.64    3.95
   8  -6   0  101.38    3.97
  -8  -6   0   97.53    4.42
  -8  -6   0   91.61    3.88
  -8  -6  -1   36.13    2.35
  -8   6  -1   37.52    1.88
   8  -6   1   36.33    2.36
  -8  -6  -1   37.83    2.68
  -8  -6  -2   68.70    3.34
   8  -6   2   61.17    3.20
   8  -6   3    9.26    1.26
  -8  -6  -3    9.10    1.34
   8  -6   4    0.74    0.56
  -8  -6  -4    0.52    0.63
   8  -6   5  252.08    7.76
  -8  -6  -5  257.83    8.09
   8  -6   6   20.25    1.99
  -8  -6  -6   23.18    2.19
  -8  -6  -7   40.94    2.92
   8  -6   8    3.09    1.01
  -8  -6  -8    5.26    1.17
   8  -6   9   17.73    2.04
  -8  -6  -9   14.20    1.78
  -8  -6 -10    4.93    1.16
  -8  -7  15    1.19    0.64
  -8   7  15    1.15    0.72
  -8  -7  14    2.27    0.74
  -8   7  14    3.62    0.88
  -8  -7  13    6.81    1.18
  -8   7  13    5.40    0.91
  -8  -7  13    5.62    0.92
  -8  -7  12   39.50    2.70
  -8   7  12   38.59    2.24
  -8  -7  12   38.10    2.22
  -8  -7  12   35.83    1.97
  -8  -7  11   34.96    2.55
  -8   7  11   33.14    2.01
  -8  -7  11   30.63    1.92
  -8  -7  10    0.16    0.61
   8  -7 -10    0.54    0.39
  -8  -7  10    0.74    0.44
  -8   7  10    0.57    0.43
   8  -7  -9   40.54    2.14
  -8  -7   9   37.51    2.68
  -8  -7   9   36.17    1.96
  -8   7   9   34.92    1.96
  -8  -7   8    4.08    0.99
   8  -7  -8    4.42    0.77
  -8  -7   8    4.72    0.74
  -8   7   8    5.78    0.82
   8  -7  -7   86.25    3.39
  -8  -7   7   80.88    4.06
  -8  -7   7   76.42    2.90
  -8   7   7   87.61    3.11
   8  -7  -6   18.61    1.53
  -8  -7   6   20.74    2.00
  -8  -7   6   18.24    1.31
  -8   7   6   19.29    1.33
   8  -7  -5   13.21    1.29
  -8  -7   5   12.18    1.08
  -8   7   5   12.10    1.10
  -8  -7   5   13.38    1.66
  -8  -7   4   14.28    1.15
  -8   7   4   17.28    1.28
  -8  -7   4   16.35    1.82
  -8  -7   3   23.86    1.48
  -8   7   3   28.16    1.63
  -8  -7   3   26.45    2.06
  -8  -7   2   13.50    1.68
  -8  -7   2   12.43    1.46
  -8  -7   1    0.14    0.54
   8  -7  -1    0.25    0.40
  -8  -7   1    0.17    0.52
   8  -7   0   72.41    3.40
  -8  -7   0   70.68    3.85
  -8  -7   0   70.35    3.51
  -8  -7  -1  129.98    5.03
   8  -7   1  132.00    4.91
  -8  -7  -1  134.72    5.51
  -8  -7  -2   18.93    1.86
   8  -7   2   19.10    1.83
  -8  -7  -2   22.37    2.17
  -8  -7  -3   98.68    4.40
   8  -7   3   99.76    4.35
  -8  -7  -3  102.06    4.78
   8  -7   4  146.96    5.54
  -8  -7  -4  138.39    5.46
  -8  -7  -4  152.55    5.99
   8  -7   5   28.20    2.31
  -8  -7  -5   32.40    2.64
   8  -7   6   23.51    2.19
  -8  -7  -6   22.82    2.25
  -8  -7  -7    5.80    1.31
  -8  -7  -8    1.13    0.69
  -8  -7  -9   23.98    2.35
  -8  -7 -10   33.21    2.78
  -8  -8  14    1.66    0.82
  -8  -8  13    5.23    1.13
  -8  -8  12   21.86    2.15
  -8  -8  12   20.51    1.59
  -8  -8  11   28.33    2.44
  -8  -8  10   17.32    1.93
  -8   8  10   17.23    1.39
   8  -8  -9   29.44    1.94
  -8  -8   9   31.23    2.54
  -8   8   9   29.39    1.75
  -8  -8   8    3.38    0.97
   8  -8  -8    2.18    0.65
  -8   8   8    3.08    0.62
   8  -8  -7  105.84    3.99
  -8  -8   7   95.35    4.62
  -8   8   7  101.48    3.34
  -8  -8   6    0.18    0.60
   8  -8  -6    0.24    0.41
  -8   8   6   -0.07    0.36
  -8  -8   5    0.54    0.61
  -8   8   5    0.14    0.39
   8  -8  -5   -0.12    0.44
   8  -8  -4   76.82    3.46
  -8  -8   4   77.39    4.13
  -8   8   4   74.63    2.71
  -8   8   3    3.45    0.59
  -8  -8   3    2.99    0.92
  -8   8   2  124.60    3.81
  -8  -8   2  128.39    5.45
  -8  -8   2  122.86    5.00
  -8  -8   1  171.56    6.42
  -8  -8   1  153.91    5.80
  -8  -8   0   10.84    1.56
   8  -8   0    9.79    1.27
  -8  -8   0    8.99    1.51
   8  -8   1   15.48    1.66
  -8  -8  -1   16.44    1.96
  -8  -8  -1   16.25    1.80
   8  -8   2   57.66    3.21
  -8  -8  -2   55.89    3.52
  -8  -8  -2   52.16    3.25
  -8  -8  -3    7.27    1.28
   8  -8   3    6.91    1.23
  -8  -8  -3    7.54    1.41
   8  -8   4   13.13    1.64
  -8  -8  -4   12.71    1.66
  -8  -8  -4    9.55    1.55
  -8  -8  -5    8.90    1.49
   8  -8   5   10.21    1.46
  -8  -8  -5    9.61    1.57
  -8  -8  -6   46.18    3.22
  -8  -8  -6   49.65    3.42
  -8  -8  -7    0.40    0.67
  -8  -8  -8    4.99    1.25
  -8  -9  10   23.94    2.36
  -8  -9   9    2.11    0.93
   8  -9  -9    1.87    0.67
   8  -9  -8   18.47    1.65
  -8  -9   8   14.07    1.86
   8  -9  -7   65.41    3.18
  -8  -9   7   57.23    3.66
   8  -9  -6   87.20    3.79
  -8  -9   6   83.10    4.44
   8  -9  -5  105.89    4.31
  -8  -9   5   97.84    4.90
   8  -9  -4    3.30    0.86
  -8  -9   4    4.33    1.20
   8  -9  -3    1.97    0.73
  -8  -9   2   23.12    2.34
  -8  -9   2   24.56    2.24
  -8  -9   1    4.24    1.01
  -8  -9   1    4.42    1.24
  -8  -9   0    2.87    0.94
  -8  -9   0    0.60    0.73
   8  -9   1   20.36    1.95
  -8  -9  -1   19.09    2.19
  -8  -9  -1   20.79    2.17
  -8  -9  -2   11.32    1.63
  -8  -9  -2   15.52    1.97
  -8  -9  -3    2.83    1.01
   8 -10  -8   26.65    2.10
   8 -10  -7    4.52    0.93
  -9   0  18    0.16    0.57
  -9   0  17   15.79    1.69
  -9   0  16    0.30    0.48
  -9   0  15   61.65    3.21
   9   0 -15   65.71    2.76
  -9   0  14    0.54    0.49
   9   0 -14   -0.41    0.37
  -9   0  13   37.28    2.40
   9   0 -13   37.99    1.86
  -9   0  12    0.73    0.42
   9   0 -12    0.13    0.27
  -9   0  11  116.84    4.32
  -9   0  11  118.79    4.18
   9   0 -11  120.94    3.29
  -9   0  10    0.17    0.13
  -9   0  10    0.11    0.32
   9   0 -10    0.04    0.17
  -9   0  10   -0.11    0.35
   9   0 -10   -0.04    0.18
  -9   0   9   13.87    0.76
  -9   0   9   14.33    1.37
  -9   0   9   15.13    1.44
   9   0  -9   13.44    0.69
   9   0  -9   14.20    0.76
  -9   0   8    0.04    0.24
  -9   0   8    0.11    0.29
  -9   0   8   -0.12    0.40
   9   0  -8    0.02    0.15
  -9   0   7    1.11    0.51
  -9   0   7    0.63    0.45
   9   0  -6    0.44    0.31
  -9   0   6    0.48    0.32
  -9   0   6   -0.13    0.41
  -9   0   5   64.88    2.45
   9   0  -5   63.99    2.61
  -9   0   5   63.29    3.17
  -9   0   4    0.15    0.33
   9   0  -4    0.09    0.34
  -9   0   4    0.53    0.42
  -9   0   3  152.15    4.46
   9   0  -3  154.55    4.79
  -9   0   2    0.19    0.14
   9   0  -2    0.11    0.35
   9   0  -1  126.97    4.47
  -9   0   1  131.02    4.90
   9   0   0    1.20    0.53
  -9   0   0   -0.14    0.53
   9   0   1  133.43    4.80
  -9   0  -1  134.70    5.05
  -9   0  -1  129.60    3.40
  -9   0  -2   -0.14    0.46
  -9   0  -2    0.41    0.29
   9   0   3  280.11    7.94
  -9   0  -3  263.37    7.84
  -9   0  -3  267.11    6.27
   9   0   4   -0.15    0.48
  -9   0  -4    0.15    0.30
  -9   0  -4   -0.14    0.46
   9   0   5    2.04    0.71
  -9   0  -5    2.86    0.75
  -9   0  -5    3.05    0.65
   9   0   6    0.33    0.50
  -9   0  -6    0.43    0.46
  -9   0  -6   -0.10    0.37
  -9   0  -7   66.12    3.38
  -9   0  -7   65.36    2.96
  -9   0  -8    0.24    0.47
   9   0   9   14.03    1.79
  -9   0  -9   16.07    1.58
   9   0  10    0.39    0.59
  -9   0 -10   -0.28    0.51
   9   0  11  106.15    5.20
  -9   0 -11  111.33    4.65
   9   0  12   -0.21    0.72
  -9   0 -12    0.97    0.77
  -9   0 -13   -0.52    0.72
  -9   1  18    0.16    0.62
  -9  -1  18    0.49    0.55
  -9  -1  17   13.25    1.60
  -9  -1  16  157.07    5.67
  -9  -1  15    3.47    0.79
  -9  -1  14   29.94    2.15
  -9  -1  14   27.89    1.76
   9  -1 -14   29.19    1.64
  -9  -1  13  134.49    4.91
  -9  -1  13  140.81    4.55
   9  -1 -13  142.79    3.93
  -9  -1  12   41.22    2.43
  -9  -1  12   39.96    2.27
   9  -1 -12   43.46    1.76
  -9  -1  11   23.92    1.81
  -9  -1  11   22.54    1.73
   9  -1 -11   25.07    1.18
  -9  -1  10   45.12    2.49
  -9  -1  10   49.65    2.65
   9  -1 -10   47.40    1.51
   9   1 -10   51.18    1.81
   9   1  -9    4.80    0.51
  -9  -1   9    4.99    0.50
   9  -1  -9    4.34    0.52
  -9   1   9    4.94    0.47
  -9  -1   9    5.50    0.87
  -9  -1   9    2.98    0.75
   9  -1  -9    5.32    0.33
   9  -1  -9    4.87    0.34
  -9  -1   8  171.06    4.16
   9  -1  -8  169.19    4.25
  -9   1   8  172.83    4.04
  -9  -1   8  179.13    5.74
  -9  -1   8  171.44    5.29
  -9  -1   7   42.73    1.76
   9  -1  -7   41.29    1.82
  -9   1   7   36.66    1.57
  -9  -1   7   35.76    2.12
  -9  -1   7   40.99    2.53
  -9   1   7   39.44    2.38
  -9   1   6    9.97    0.85
  -9  -1   6    8.16    0.81
   9  -1  -6    8.87    0.89
  -9  -1   6    8.65    1.20
  -9   1   6    9.75    1.21
   9   1  -6    9.60    0.57
  -9  -1   5  149.27    4.15
   9  -1  -5  147.20    4.31
  -9   1   5  136.64    3.95
  -9  -1   5  140.11    5.15
  -9   1   5  135.02    4.92
   9   1  -5  142.12    3.11
  -9  -1   4  123.17    3.82
   9  -1  -4  116.39    3.91
  -9  -1   4  122.37    4.75
  -9   1   4  122.39    4.59
   9   1  -4  117.36    2.75
   9   1  -3   11.93    1.19
   9  -1  -3   12.48    1.20
  -9  -1   3   11.28    1.09
   9   1  -3   12.25    0.70
  -9  -1   2    1.27    0.30
   9   1  -2    0.87    0.48
   9  -1  -2    1.58    0.53
   9   1  -2    1.25    0.29
  -9  -1   1  184.39    4.30
   9   1  -1  188.39    5.80
   9  -1  -1  185.97    5.66
  -9  -1   1  189.42    6.29
  -9   1   1  196.97    6.23
   9   1   0    9.41    1.18
   9  -1   0   10.23    1.22
  -9  -1   0    6.25    1.11
  -9   1   0    7.48    1.15
  -9   1   0    9.67    0.60
   9   1   1   12.30    1.38
   9  -1   1   17.28    1.59
  -9  -1  -1   12.86    1.52
  -9   1  -1   13.82    1.54
  -9   1  -1   14.38    0.86
   9   1   2    4.37    0.91
   9  -1   2    3.68    0.84
  -9  -1  -2    4.51    0.98
  -9   1  -2    3.55    0.49
  -9   1  -2    4.30    0.96
  -9  -1  -2    4.70    0.63
   9   1   3   10.99    1.37
   9  -1   3   11.00    1.33
  -9  -1  -3   11.44    1.44
  -9   1  -3   10.27    0.90
  -9  -1  -3   11.28    1.01
   9   1   4    1.56    0.65
   9  -1   4    0.45    0.46
  -9  -1  -4    0.59    0.56
  -9   1  -4    0.83    0.38
  -9  -1  -4    1.01    0.45
   9   1   5  136.20    5.39
   9  -1   5  128.98    5.18
  -9  -1  -5  128.13    4.98
  -9   1  -5  129.55    4.07
  -9  -1  -5  124.94    4.16
   9   1   6   51.18    3.23
   9  -1   6   54.38    3.26
  -9  -1  -6   52.76    3.04
  -9   1  -6   52.10    2.49
  -9  -1  -6   51.45    2.55
  -9  -1  -7  306.05    8.52
  -9   1  -7  296.95    7.68
  -9  -1  -7  299.10    7.78
  -9  -1  -8   50.39    2.92
  -9  -1  -8   49.17    2.68
  -9   1  -8   47.62    2.63
   9   1   9    0.57    0.69
   9  -1   9    0.37    0.65
  -9  -1  -9    1.04    0.54
  -9  -1  -9    1.53    0.72
  -9   1  -9    0.26    0.45
   9   1  10    0.59    0.84
   9  -1  10    0.38    0.70
  -9  -1 -10    0.42    0.49
  -9   1 -10    0.14    0.47
   9   1  11    2.82    0.96
   9  -1  11    2.78    1.00
  -9  -1 -11    3.00    0.83
  -9   1 -11    2.40    0.79
   9  -1  12    9.56    1.64
  -9  -1 -12    8.78    1.35
  -9   1 -12   10.28    1.47
  -9   1 -13    1.88    0.83
  -9  -1 -13    1.19    0.66
  -9   2  18   10.60    1.53
  -9   2  17    6.39    1.16
  -9  -2  17    5.28    1.08
  -9  -2  16    9.06    1.31
  -9   2  16    7.61    1.23
  -9  -2  15    1.11    0.67
  -9   2  15    0.70    0.56
  -9  -2  15    0.85    0.47
  -9  -2  14   69.24    3.40
  -9   2  14   73.83    3.50
  -9  -2  14   78.61    3.21
  -9  -2  13    3.09    0.74
  -9   2  13    1.68    0.60
  -9  -2  13    2.03    0.66
  -9  -2  12   51.91    2.76
  -9   2  12   49.74    2.73
  -9  -2  12   49.01    2.69
   9  -2 -12   55.35    1.93
  -9  -2  11    0.16    0.16
  -9  -2  11    0.46    0.35
  -9   2  11    1.06    0.48
  -9  -2  11    0.13    0.46
   9  -2 -11    0.19    0.21
  -9  -2  10   28.12    1.20
   9  -2 -10   26.66    1.18
  -9  -2  10   29.46    1.95
  -9   2  10   25.14    1.82
  -9  -2  10   23.78    1.92
   9   2 -10   26.96    1.41
   9  -2 -10   28.15    1.00
   9   2  -9   15.05    1.00
   9  -2  -9   15.54    0.99
  -9  -2   9   18.85    1.08
  -9  -2   9   13.97    1.51
  -9  -2   9   17.21    1.49
  -9   2   9   15.04    1.42
  -9  -2   8    0.06    0.28
   9  -2  -8    0.50    0.31
  -9  -2   8    0.56    0.51
  -9  -2   8    0.32    0.39
  -9   2   8    0.22    0.35
   9  -2  -7   96.78    3.19
  -9  -2   7  110.01    3.29
  -9   2   7   98.80    2.94
  -9  -2   7   94.28    3.68
  -9   2   7  104.98    3.87
  -9  -2   7  102.80    4.37
   9  -2  -6  366.08    8.21
  -9  -2   6  355.85    8.10
  -9   2   6  356.46    7.78
  -9  -2   6  369.21    9.78
   9   2  -6  375.99    7.40
   9  -2  -5  194.45    5.43
  -9  -2   5  206.33    5.44
  -9   2   5  197.99    5.10
  -9  -2   5  199.63    6.60
   9   2  -5  213.50    4.65
  -9   2   4   63.26    2.49
   9  -2  -4   60.69    2.69
  -9  -2   4   62.31    2.66
  -9  -2   4   58.55    3.28
   9   2  -4   66.63    2.09
  -9  -2   3    0.11    0.21
   9  -2  -3    0.10    0.32
   9   2  -3    0.19    0.22
   9  -2  -2    4.24    0.80
   9   2  -2    4.39    0.55
  -9  -2   1    4.89    0.61
   9  -2  -1    5.12    0.91
  -9  -2   1    5.39    1.07
   9   2  -1    6.14    0.68
  -9   2   1    5.70    0.28
  -9   2   1    6.54    0.31
   9  -2   0    6.32    1.01
  -9  -2   0    6.41    1.15
  -9   2   0    4.88    0.42
   9   2   0    6.18    0.74
   9  -2   1   40.01    2.51
  -9  -2  -1   41.76    2.82
  -9   2  -1   42.46    1.57
   9   2   1   45.36    2.01
   9  -2   2  317.06    8.78
  -9  -2  -2  328.61    9.31
  -9   2  -2  332.06    6.97
   9   2   2  330.41    7.53
   9  -2   3   42.72    2.72
  -9  -2  -3   41.53    2.79
  -9   2  -3   41.12    1.83
  -9  -2  -3   43.07    2.12
   9  -2   4    2.16    0.78
  -9   2  -4    1.26    0.46
  -9  -2  -4    1.67    0.53
   9  -2   5    3.53    0.92
  -9  -2  -5    3.15    0.90
  -9   2  -5    3.75    0.67
  -9  -2  -5    2.32    0.62
   9  -2   6   19.44    1.97
  -9  -2  -6   17.33    1.83
  -9   2  -6   16.80    1.38
  -9  -2  -6   15.25    1.43
  -9  -2  -7    0.92    0.64
  -9   2  -7    0.53    0.43
  -9  -2  -7    0.60    0.50
  -9  -2  -8    9.49    1.35
  -9   2  -8    9.87    1.21
  -9  -2  -8   13.17    1.44
   9  -2   9   90.72    4.60
  -9  -2  -9   86.61    3.99
  -9   2  -9   87.72    3.76
  -9  -2  -9   83.14    3.81
   9  -2  10    4.30    1.10
  -9  -2 -10    4.57    0.98
  -9  -2 -10    5.11    1.05
  -9   2 -10    4.44    0.95
   9  -2  11   44.98    3.28
  -9  -2 -11   37.51    2.47
  -9   2 -11   41.03    2.69
  -9  -2 -11   38.74    2.70
   9  -2  12  110.64    5.38
  -9   2 -12  122.05    4.99
  -9  -2 -12  109.03    4.84
  -9  -2 -13    2.44    0.85
  -9   2 -13    2.41    0.89
  -9   3  17    2.50    0.79
  -9  -3  17    2.02    0.72
  -9  -3  16    6.64    1.13
  -9   3  16    5.36    1.05
  -9  -3  15    0.45    0.49
  -9  -3  15    0.42    0.44
  -9   3  15    0.42    0.43
  -9  -3  14    1.34    0.55
  -9  -3  14    0.13    0.49
  -9   3  14   -0.13    0.40
  -9  -3  13    1.17    0.68
  -9  -3  13    0.89    0.51
  -9   3  13    0.51    0.47
  -9  -3  12    0.54    0.51
  -9  -3  12    0.60    0.42
  -9   3  12    0.36    0.37
  -9  -3  11  104.52    2.85
  -9  -3  11  104.32    4.30
  -9  -3  11   99.68    3.91
  -9   3  11  103.84    4.00
   9   3 -10   88.70    2.94
  -9  -3  10   80.49    2.58
   9  -3 -10   80.05    2.54
  -9  -3  10   75.14    3.29
  -9   3  10   81.10    3.41
  -9  -3  10   86.33    3.87
   9   3  -9   39.76    1.81
  -9  -3   9   35.85    1.68
   9  -3  -9   36.30    1.67
  -9  -3   9   34.52    2.12
  -9   3   9   37.18    2.21
  -9  -3   9   34.78    2.40
   9  -3  -9   34.55    0.93
  -9  -3   8   30.12    1.58
   9  -3  -8   30.22    1.59
  -9  -3   8   29.44    2.23
  -9  -3   8   30.00    1.93
  -9   3   8   29.56    1.93
  -9  -3   7  279.61    6.56
   9  -3  -7  267.94    6.50
  -9  -3   7  276.35    8.05
  -9  -3   7  272.94    7.19
  -9   3   7  284.43    7.31
   9  -3  -6    1.85    0.47
  -9  -3   6    1.98    0.53
  -9  -3   6    1.31    0.47
  -9   3   6    1.39    0.42
  -9   3   6    2.06    0.55
  -9  -3   6    2.51    0.78
   9  -3  -5    0.17    0.36
  -9  -3   5    0.59    0.42
  -9   3   5    0.07    0.31
  -9  -3   5    0.15    0.48
   9   3  -5    0.77    0.34
   9  -3  -4   66.79    2.81
  -9  -3   4   66.76    3.50
   9   3  -4   65.40    2.34
   9  -3  -3  112.01    3.96
  -9  -3   3  109.09    3.45
   9   3  -3  115.95    3.37
   9  -3  -2   35.55    2.14
   9   3  -2   38.49    1.77
  -9  -3   2   37.33    1.83
  -9  -3   1  552.11   11.56
   9  -3  -1  555.22   12.55
  -9  -3   1  563.54   13.59
   9   3  -1  593.06   11.61
  -9   3   1  569.26   10.05
  -9  -3   0  162.84    4.64
   9  -3   0  172.87    5.57
  -9  -3   0  168.79    6.11
  -9   3   0  165.45    3.71
   9   3   0  167.62    4.66
  -9   3   0  172.95    3.76
   9  -3   1  660.97   15.09
  -9  -3  -1  677.68   15.96
   9   3   1  693.84   13.94
  -9   3  -1  721.85   13.04
   9  -3   2    0.14    0.49
  -9  -3  -2    0.17    0.59
  -9   3  -2    0.11    0.22
   9  -3   3   77.99    3.82
  -9  -3  -3   82.49    4.18
  -9   3  -3   88.10    2.87
   9  -3   4  141.04    5.46
  -9  -3  -4  134.12    5.57
  -9  -3  -4  146.58    4.70
  -9   3  -4  150.97    4.26
   9  -3   5    4.68    1.10
  -9  -3  -5    6.21    1.21
  -9  -3  -5    5.95    0.96
  -9   3  -5    6.84    0.87
   9  -3   6  119.88    5.19
  -9  -3  -6  120.38    5.13
  -9   3  -6  129.40    4.23
  -9  -3  -6  120.20    4.45
  -9  -3  -7  217.40    7.34
  -9  -3  -7  231.23    6.82
  -9  -3  -8   48.28    3.05
  -9   3  -8   56.57    2.89
  -9  -3  -8   48.15    2.83
   9  -3   9   75.12    4.23
  -9  -3  -9   81.58    3.94
  -9   3  -9   78.28    3.60
  -9  -3  -9   70.09    3.56
   9  -3  10   -0.20    0.76
  -9  -3 -10   -0.15    0.54
  -9   3 -10    0.14    0.54
  -9  -3 -10    0.15    0.51
   9  -3  11   50.98    3.58
  -9   3 -11   55.23    3.21
  -9  -3 -11   48.50    3.08
  -9   3 -12   27.75    2.40
  -9  -3 -12   22.15    2.15
  -9   3 -13   28.26    2.51
  -9   4  17    3.70    0.99
  -9  -4  17    2.90    0.87
  -9   4  16   43.04    2.77
  -9  -4  16   41.81    2.69
  -9  -4  15   37.65    2.42
  -9  -4  15   33.60    2.34
  -9   4  15   32.18    2.32
  -9  -4  14    0.41    0.50
  -9  -4  14    0.13    0.49
  -9   4  14    0.66    0.55
  -9  -4  13   77.44    3.61
  -9  -4  13   72.33    3.39
  -9   4  13   74.10    3.43
  -9  -4  12  243.06    7.33
  -9  -4  12  246.60    7.01
  -9   4  12  252.51    7.07
  -9  -4  11   53.19    3.01
  -9  -4  11   53.33    2.71
  -9   4  11   54.24    2.75
   9  -4 -10    1.66    0.42
  -9  -4  10    1.59    0.45
  -9  -4  10    1.74    0.67
  -9  -4  10    1.77    0.59
  -9   4  10    1.79    0.56
   9  -4  -9   31.48    1.61
  -9  -4   9   33.77    1.72
  -9  -4   9   36.68    2.50
  -9  -4   9   33.42    2.04
  -9   4   9   31.62    2.01
  -9  -4   8   11.05    1.00
  -9  -4   8   12.28    1.47
  -9  -4   8   10.64    1.17
  -9   4   8   13.20    1.31
   9  -4  -7   13.89    1.11
  -9  -4   7   12.10    1.48
  -9  -4   7   11.83    1.20
  -9   4   7    9.74    1.11
   9  -4  -6  315.83    7.44
  -9  -4   6  308.10    7.78
  -9   4   6  315.63    7.89
  -9  -4   6  325.79    8.98
   9  -4  -5  106.68    3.65
  -9  -4   5  111.79    4.66
   9   4  -5  108.18    3.46
   9  -4  -4  244.91    6.53
  -9  -4   4  254.86    7.75
   9   4  -4  260.06    6.22
  -9  -4   3    3.78    0.71
   9  -4  -3    3.43    0.70
   9   4  -3    2.90    0.60
   9  -4  -2   21.11    1.61
  -9  -4   2   20.53    1.95
  -9   4   2   19.23    0.74
   9   4  -2   16.41    1.28
   9  -4  -1  120.27    4.39
  -9  -4   1  129.63    4.14
  -9  -4   1  130.71    5.24
   9  -4   0  140.62    4.90
  -9   4   0  143.91    3.48
  -9  -4   0  134.89    4.37
  -9  -4   0  140.72    5.55
   9  -4   1    8.75    1.18
  -9  -4  -1   11.81    1.57
  -9   4  -1   10.25    0.82
   9  -4   2  100.23    4.23
  -9  -4  -2  105.18    4.71
  -9   4  -2   97.10    3.00
   9  -4   3    9.11    1.30
  -9  -4  -3    9.57    1.45
   9  -4   4   53.78    3.18
  -9  -4  -4   49.74    3.22
   9  -4   5   95.12    4.47
  -9  -4  -5   91.88    4.52
   9  -4   6   79.82    4.17
  -9  -4  -6   84.51    4.29
  -9  -4  -7   24.08    2.28
  -9  -4  -7   23.18    1.99
  -9  -4  -8   17.42    1.96
  -9  -4  -8   17.58    1.76
   9  -4   9    2.04    0.92
  -9  -4  -9    0.17    0.65
  -9   4  -9    0.54    0.49
  -9  -4  -9    0.46    0.64
   9  -4  10    8.38    1.56
  -9  -4 -10    5.93    1.18
  -9   4 -10    7.45    1.20
  -9  -4 -10    5.67    1.19
  -9  -4 -11    3.23    0.94
  -9   4 -11    2.37    0.88
  -9   4 -12   70.55    3.86
  -9   5  17  131.50    5.13
  -9  -5  17  124.45    5.00
  -9   5  16   32.14    2.37
  -9  -5  16   27.91   55.15
  -9  -5  15    0.42    0.53
  -9   5  15    0.56    0.53
  -9  -5  15    0.14    0.52
  -9  -5  14   23.20    1.99
  -9  -5  14   22.24    1.86
  -9   5  14   24.20    1.96
  -9  -5  13    1.47    0.83
  -9  -5  13    2.31    0.68
  -9   5  13    0.87    0.57
  -9  -5  12    9.92    1.38
  -9  -5  12   10.49    1.24
  -9   5  12    9.48    1.22
  -9  -5  11  120.49    4.36
  -9   5  11  125.09    4.45
   9  -5 -10    7.04    0.80
  -9  -5  10    7.09    1.23
  -9   5  10    8.65    1.10
  -9  -5  10    6.75    0.97
   9  -5  -9  195.81    5.15
  -9  -5   9  202.76    6.66
  -9  -5   9  192.91    5.67
  -9   5   9  195.76    5.75
   9  -5  -8  153.44    4.39
  -9  -5   8  146.53    5.53
  -9  -5   8  142.24    4.63
  -9   5   8  143.81    4.69
   9  -5  -7   21.95    1.50
  -9  -5   7   19.47    1.55
  -9   5   7   21.70    1.62
  -9  -5   7   24.41    2.11
   9  -5  -6   31.32    1.84
  -9  -5   6   32.70    1.96
  -9   5   6   32.68    1.99
  -9  -5   6   32.26    2.44
  -9   5   6   34.00    1.15
   9  -5  -5    8.25    0.99
  -9  -5   5    6.91    0.94
  -9   5   5    6.97    0.95
  -9  -5   5    6.63    1.22
  -9   5   5    9.14    0.55
   9  -5  -4    0.82    0.47
  -9  -5   4    0.98    0.70
  -9   5   4    0.66    0.23
  -9  -5   3   -0.11    0.37
   9  -5  -3    0.22    0.36
  -9   5   3    0.53    0.22
  -9  -5   2    2.78    0.65
   9  -5  -2    3.32    0.73
  -9  -5   2    1.67    0.70
  -9   5   2    3.23    0.42
  -9  -5   1    6.68    0.97
   9  -5  -1    7.71    1.07
  -9  -5   1    6.24    1.20
   9  -5   0  211.10    6.50
  -9  -5   0  221.43    6.30
  -9  -5   0  228.61    7.42
   9  -5   1   60.01    3.10
  -9   5  -1   60.57    2.24
  -9  -5  -1   54.96    2.79
  -9  -5  -1   56.90    3.42
   9  -5   2   50.12    2.89
  -9  -5  -2   48.07    3.16
  -9   5  -2   47.34    2.06
   9  -5   3   57.20    3.24
  -9  -5  -3   63.81    3.70
  -9   5  -3   62.14    2.49
   9  -5   4    2.06    0.79
  -9  -5  -4    2.57    0.93
   9  -5   5   69.81    3.79
  -9  -5  -5   72.78    4.01
   9  -5   6   -0.18    0.63
  -9  -5  -6    0.19    0.68
  -9  -5  -7  130.30    5.61
  -9  -5  -8   47.59    3.30
   9  -5   9    2.09    0.99
  -9  -5  -9    2.09    0.90
  -9  -5 -10   13.30    1.83
  -9  -5 -10   12.60    1.64
  -9   5 -12    6.37    1.28
  -9   6  16   11.41    1.50
  -9  -6  16   10.35    1.41
  -9  -6  15    9.07    1.38
  -9  -6  15   12.75    1.49
  -9   6  15    9.44    1.31
  -9  -6  14   17.44    1.81
  -9   6  14   18.93    1.73
  -9  -6  14   17.27    1.64
  -9  -6  13   23.40    2.11
  -9  -6  13   22.45    1.84
  -9   6  13   24.80    1.94
  -9  -6  12   20.55    1.98
  -9  -6  12   20.10    1.64
  -9   6  12   20.31    1.67
  -9  -6  11   11.67    1.26
  -9   6  11   12.97    1.34
   9  -6 -10   29.42    1.70
  -9  -6  10   27.62    2.30
  -9  -6  10   28.47    1.88
  -9   6  10   25.29    1.81
   9  -6  -9  108.94    3.66
  -9  -6   9  105.47    4.68
  -9  -6   9  106.06    3.83
  -9   6   9  108.66    3.90
   9  -6  -8    0.91    0.47
  -9  -6   8    0.50    0.55
  -9  -6   8    0.88    0.46
  -9   6   8    0.91    0.50
   9  -6  -7   23.42    1.62
  -9  -6   7   20.37    1.99
  -9  -6   7   20.06    1.51
  -9   6   7   22.45    1.60
   9  -6  -6   88.09    3.42
  -9  -6   6   88.06    4.29
  -9  -6   6   86.78    3.33
  -9   6   6   87.26    3.37
   9  -6  -5    8.66    1.07
  -9  -6   5    7.50    1.28
  -9  -6   5    6.67    0.91
  -9   6   5    7.20    0.97
   9  -6  -4   60.45    2.88
  -9  -6   4   60.77    2.69
  -9  -6   4   63.18    3.59
   9  -6  -3   56.86    2.85
  -9  -6   3   51.81    2.78
   9  -6  -2  129.98    4.68
  -9  -6   2  136.44    5.49
  -9  -6   2  124.16    4.61
   9  -6  -1  146.54    5.09
  -9  -6   1  146.86    5.81
  -9  -6   1  140.46    4.99
   9  -6   0   12.86    1.43
  -9  -6   0   15.61    1.85
  -9  -6   0   12.07    1.40
  -9  -6  -1    5.92    1.01
   9  -6   1    5.20    1.02
  -9  -6  -1    2.76    1.00
   9  -6   2   50.38    2.98
  -9  -6  -2   53.46    2.93
  -9  -6  -2   53.82    3.40
   9  -6   3   29.10    2.29
  -9  -6  -3   32.93    2.32
  -9  -6  -3   28.15    2.48
   9  -6   4   10.20    1.48
  -9  -6  -4    9.65    1.55
   9  -6   5    1.36    0.73
  -9  -6  -5    4.25    1.09
   9  -6   6   36.85    2.80
  -9  -6  -6   41.41    3.09
  -9  -6  -7   19.73    2.20
  -9  -6  -8    4.37    1.14
  -9  -6  -9    1.00    0.88
  -9  -6 -10   18.53    2.23
  -9   7  16    2.67    0.89
  -9  -7  15   16.36    1.81
  -9   7  15   18.07    1.71
  -9  -7  14   84.73    4.14
  -9   7  14   79.08    3.59
  -9  -7  13   11.64    1.59
  -9   7  13   13.26    1.42
  -9  -7  12    1.36    0.80
  -9   7  12    0.23    0.47
  -9  -7  12    0.34    0.49
  -9  -7  11   81.71    4.13
  -9  -7  11   74.18    3.17
  -9   7  11   74.54    3.21
  -9  -7  10    0.52    0.68
  -9  -7  10    0.30    0.41
  -9   7  10    0.31    0.47
  -9  -7   9   27.30    2.39
  -9  -7   9   26.39    1.74
  -9   7   9   26.16    1.77
  -9  -7   8    1.60    0.84
  -9  -7   8    0.56    0.44
  -9   7   8    0.19    0.39
  -9  -7   7    8.25    1.40
  -9  -7   7    7.05    0.92
  -9   7   7    7.65    0.96
  -9  -7   6   32.94    2.63
  -9  -7   6   31.07    1.83
  -9   7   6   34.54    1.96
   9  -7  -5  132.69    4.58
  -9  -7   5  133.26    5.56
  -9  -7   5  120.93    4.03
  -9   7   5  127.46    4.16
   9  -7  -4   27.60    1.98
  -9  -7   4   25.74    1.66
  -9   7   4   25.92    1.69
  -9  -7   4   29.62    2.52
  -9  -7   3  147.87    4.56
  -9   7   3  157.45    4.71
   9  -7  -3  161.55    5.34
  -9  -7   3  155.97    5.50
  -9  -7   2    0.56    0.57
   9  -7  -2    0.78    0.53
  -9  -7   2    1.12    0.73
  -9  -7   1    1.29    0.68
   9  -7  -1    2.46    0.80
  -9  -7   1    2.27    0.83
   9  -7   0   57.44    3.15
  -9  -7   0   56.51    3.56
  -9  -7   0   60.45    3.25
  -9  -7  -1    0.74    0.58
   9  -7   1   -0.15    0.47
  -9  -7  -1    0.77    0.73
  -9  -7  -2   51.24    3.05
   9  -7   2   51.24    3.07
  -9  -7  -2   51.70    3.41
   9  -7   3   42.66    2.83
  -9  -7  -3   38.76    2.70
  -9  -7  -3   42.58    3.14
   9  -7   4   83.52    4.15
  -9  -7  -4   76.41    3.91
   9  -7   5    4.74    1.11
  -9  -7  -5    5.82    1.36
  -9  -7  -6    1.83    0.96
  -9  -7  -7    5.39    1.29
  -9  -7  -8    0.62    0.84
  -9  -7  -9    8.76    1.64
  -9  -8  14    4.09    1.12
  -9  -8  13    4.68    1.17
  -9  -8  12    0.37    0.81
  -9  -8  11    2.41    0.99
  -9  -8  10    0.94    0.83
  -9  -8   9   51.44    3.39
  -9   8   9   48.18    2.37
  -9  -8   8   14.85    1.89
  -9   8   8   11.80    1.17
  -9  -8   7   23.97    2.38
  -9   8   7   27.80    1.71
  -9  -8   6    5.01    1.17
  -9   8   6    5.44    0.80
  -9  -8   5   89.09    4.60
  -9   8   5   86.99    3.17
  -9  -8   4    1.37    0.86
  -9   8   4    2.10    0.57
  -9   8   3   10.33    1.06
   9  -8  -3   10.88    1.39
   9  -8  -2   31.70    2.31
  -9   8   2   33.21    1.87
  -9  -8   2   33.66    2.78
  -9  -8   2   33.66    2.49
   9  -8  -1   30.52    2.30
  -9  -8   1   28.40    2.57
  -9  -8   1   30.76    2.42
  -9  -8   0    5.20    1.12
   9  -8   0    4.53    1.00
  -9  -8   0    4.26    1.16
  -9  -8  -1    5.78    1.19
   9  -8   1    4.90    1.04
  -9  -8  -1    3.48    1.12
  -9  -8  -2    1.01    0.70
   9  -8   2    1.14    0.68
  -9  -8  -2    0.62    0.75
  -9  -8  -3   16.74    1.87
   9  -8   3   13.92    1.70
  -9  -8  -3   14.13    1.95
  -9  -8  -4   32.03    2.61
  -9  -8  -4   35.80    3.03
  -9  -8  -5    0.18    0.66
  -9  -8  -5    0.64    0.78
   9  -9  -2   32.00    2.40
  -9  -9   2   36.20    2.74
  -9  -9   1    3.18    0.93
   9  -9  -1    4.49    0.99
  -9  -9   0   24.44    2.32
  -9  -9  -1   30.52    2.59
 -10   0  17   -0.16    0.57
 -10   0  16  116.99    4.84
 -10   0  15    0.15    0.47
 -10   0  14   10.68    1.33
 -10   0  13    0.14    0.39
 -10   0  12    2.49    0.77
 -10   0  11    0.38    0.36
 -10   0  11   -0.12    0.50
 -10   0  10   63.75    1.84
 -10   0  10   63.10    3.14
 -10   0   9    0.22    0.24
 -10   0   9    0.49    0.35
 -10   0   9    0.51    0.45
  10   0  -9    0.15    0.12
 -10   0   8   38.06    1.62
 -10   0   8   38.54    2.48
 -10   0   8   40.34    2.40
 -10   0   7   -0.41    0.50
 -10   0   7    0.12    0.33
 -10   0   6  234.07    5.68
  10   0  -6  228.93    5.96
 -10   0   6  246.92    7.27
  10   0  -5    0.28    0.36
 -10   0   5   -0.23    0.50
 -10   0   5    0.71    0.41
  10   0  -4  342.34    8.27
 -10   0   4  333.41    9.15
  10   0  -3    0.65    0.46
  10   0  -2   15.69    1.47
 -10   0   1    0.15    0.17
  10   0  -1    0.62    0.47
 -10   0   1    0.15    0.49
  10   0   0  929.29   19.52
 -10   0   0  978.57   20.27
  10   0   1    0.83    0.58
 -10   0  -1    0.16    0.42
 -10   0  -1    0.10    0.24
  10   0   2  477.92   11.65
 -10   0  -2  482.61   11.88
 -10   0  -2  459.01    9.47
  10   0   3    0.15    0.35
 -10   0  -3    0.78    0.63
 -10   0  -3    0.07    0.30
  10   0   4   35.59    2.59
 -10   0  -4   38.65    2.66
 -10   0  -4   35.48    1.87
  10   0   5    0.17    0.51
 -10   0  -5    0.09    0.34
 -10   0  -5   -0.16    0.53
  10   0   6  229.44    7.56
 -10   0  -6  230.06    7.25
 -10   0  -6  217.80    6.09
  10   0   7   -0.73    0.74
 -10   0  -7    0.66    0.53
 -10   0  -8  164.74    5.34
 -10   0  -9   -0.13    0.54
  10   0  10  153.09    6.43
 -10   0 -10  165.51    5.67
 -10   0 -11    0.15    0.66
 -10   0 -12    9.61    1.44
 -10  -1  17    6.19    1.17
 -10   1  17    7.03    1.26
 -10  -1  16    0.61    0.58
 -10  -1  15    7.10    1.13
 -10  -1  14  118.22    4.15
 -10  -1  14  115.17    4.64
 -10  -1  13   13.21    1.35
 -10  -1  13   11.34    1.37
 -10  -1  12   68.57    3.19
 -10  -1  12   64.68    3.24
 -10  -1  11  227.17    4.44
 -10  -1  11  220.25    6.68
 -10  -1  10   89.46    3.85
 -10  -1  10   92.11    3.85
 -10  -1   9    7.89    0.69
  10  -1  -9    8.58    0.75
 -10   1   9    8.28    0.68
 -10  -1   9    8.64    1.25
 -10  -1   9    9.41    1.18
 -10   1   8   65.13    2.18
 -10  -1   8   64.59    2.25
  10  -1  -8   60.93    2.31
 -10  -1   8   58.37    2.95
 -10  -1   8   62.70    3.25
 -10  -1   7    3.99    0.60
  10  -1  -7    3.13    0.61
 -10  -1   7    2.66    0.67
 -10   1   7    3.32    0.55
 -10  -1   7    3.89    0.92
  10   1  -7    3.76    0.36
 -10   1   6    8.65    0.87
 -10  -1   6    6.84    0.82
  10  -1  -6    7.99    0.89
 -10  -1   6    6.04    1.10
  10   1  -6    7.55    0.47
 -10   1   6    7.51    1.15
 -10  -1   5  541.16   10.89
  10  -1  -5  498.06   11.05
 -10   1   5  485.66   10.64
 -10  -1   5  533.43   12.64
 -10   1   5  514.90   12.34
  10   1  -5  518.67    9.25
  10  -1  -4    4.29    0.78
 -10  -1   4    3.97    0.97
 -10   1   4    4.37    0.92
  10   1  -4    4.70    0.42
  10  -1  -3  507.04   11.38
  10   1  -2  155.39    5.13
  10  -1  -2  144.26    4.94
 -10  -1   2  145.64    5.58
 -10  -1   2  151.85    3.55
 -10   1   1   17.08    0.56
 -10  -1   1   19.34    1.03
  10  -1  -1   17.28    1.58
 -10  -1   1   16.06    1.77
  10   1   0   12.72    1.44
  10  -1   0   13.75    1.44
 -10  -1   0   15.27    1.66
 -10   1   0   12.66    1.54
  10   1   1  304.17    8.49
  10  -1   1  298.48    8.33
 -10  -1  -1  300.45    8.80
 -10   1  -1  304.01    8.72
 -10   1  -1  298.84    6.20
  10   1   2    8.93    1.29
  10  -1   2   11.21    1.38
 -10  -1  -2   10.19    1.41
 -10  -1  -2   10.07    0.92
 -10   1  -2    8.96    0.78
  10   1   3  241.40    7.56
  10  -1   3  229.52    7.32
 -10  -1  -3  239.18    7.54
 -10   1  -3  244.24    5.70
 -10  -1  -3  232.13    5.92
  10   1   4   25.27    2.21
  10  -1   4   26.68    2.26
 -10  -1  -4   28.77    2.31
 -10   1  -4   24.51    1.51
 -10  -1  -4   24.61    1.59
  10   1   5    0.35    0.58
  10  -1   5    0.67    0.56
 -10  -1  -5    0.63    0.66
 -10   1  -5    0.79    0.40
  10   1   6   26.67    2.39
  10  -1   6   24.21    2.25
 -10  -1  -6   25.68    2.18
 -10   1  -6   26.88    1.78
 -10  -1  -6   24.92    1.77
  10   1   7    7.15    1.36
  10  -1   7    6.53    1.29
 -10  -1  -7    5.75    0.96
 -10  -1  -7    6.06    1.17
 -10   1  -7    6.66    1.00
 -10  -1  -8    1.99    0.63
 -10  -1  -8    1.67    0.72
 -10   1  -8    1.33    0.56
 -10  -1  -9   45.64    2.88
 -10   1  -9   46.42    2.71
 -10  -1  -9   44.94    2.70
  10   1  10   21.67    2.29
  10  -1  10   17.76    2.06
 -10   1 -10   18.46    1.81
 -10  -1 -10   18.18    1.79
 -10  -1 -11    5.67    1.08
 -10   1 -11    9.07    1.34
 -10  -1 -12    0.81    0.68
 -10   1 -12   -0.17    0.67
 -10  -2  17    2.11    0.80
 -10   2  17    1.64    0.78
 -10  -2  16    2.29    0.80
 -10   2  16    3.54    0.95
 -10  -2  15   17.58    1.53
 -10  -2  15   14.28    1.59
 -10   2  15   16.31    1.71
 -10  -2  14    9.55    1.20
 -10  -2  14    9.52    1.33
 -10   2  14    9.60    1.37
 -10  -2  13  108.24    4.19
 -10  -2  13   99.66    4.18
 -10   2  13  106.57    4.34
 -10  -2  12    0.13    0.44
 -10  -2  12    0.13    0.41
 -10  -2  11    3.42    0.90
 -10  -2  11    1.76    0.62
 -10   2  11    2.67    0.75
 -10  -2  10  271.40    5.70
  10  -2 -10  255.36    5.68
 -10  -2  10  266.43    7.75
 -10  -2  10  255.16    7.26
 -10   2  10  265.49    7.38
 -10  -2   9  223.66    5.16
  10  -2  -9  214.67    5.18
 -10  -2   9  225.78    7.00
 -10  -2   9  205.35    6.33
 -10   2   9  214.88    6.45
  10  -2  -8  123.13    3.70
 -10  -2   8  128.51    3.66
 -10   2   8  118.63    3.36
 -10  -2   8  125.94    4.49
 -10   2   8  129.22    4.59
 -10  -2   8  120.93    4.92
  10  -2  -7   47.58    2.19
 -10   2   7   49.69    2.05
 -10  -2   7   53.22    2.25
 -10  -2   7   55.98    2.78
 -10   2   7   49.80    2.66
 -10  -2   7   50.71    3.06
  10   2  -7   55.15    1.84
 -10   2   6  162.30    4.45
  10  -2  -6  155.81    4.71
 -10  -2   6  167.45    4.74
 -10  -2   6  159.10    5.93
  10   2  -6  174.28    3.96
  10  -2  -5  126.03    4.21
 -10  -2   5  128.34    5.23
  10   2  -5  133.21    3.30
  10  -2  -4   19.00    1.54
 -10  -2   4   21.11    2.03
  10   2  -4   24.08    1.17
 -10  -2   3    0.47    0.31
  10  -2  -3    0.45    0.41
  10   2  -3    0.40    0.25
  10  -2  -2  110.23    4.26
 -10  -2   2  116.98    5.01
  10   2  -2  120.18    3.28
 -10  -2   2  117.06    3.31
 -10  -2   1   76.87    2.61
  10  -2  -1   75.55    3.48
 -10  -2   1   78.07    4.03
  10   2  -1   83.25    2.67
  10  -2   0   30.04    2.18
 -10  -2   0   24.55    2.24
  10   2   0   27.44    1.49
 -10   2   0   29.43    1.01
  10  -2   1    9.51    1.29
 -10  -2  -1    8.93    1.43
 -10   2  -1   10.85    0.73
  10  -2   2    4.31    0.95
 -10  -2  -2    5.62    1.13
 -10   2  -2    5.89    0.63
 -10  -2  -3   62.56    3.55
 -10   2  -3   61.98    2.31
  10  -2   4    1.31    0.74
 -10  -2  -4    1.35    0.76
 -10   2  -4    0.46    0.36
 -10  -2  -4    1.54    0.52
  10  -2   5   41.27    2.87
 -10  -2  -5   39.70    2.82
 -10   2  -5   44.71    2.20
 -10  -2  -5   45.87    2.39
  10  -2   6  129.81    5.49
 -10  -2  -6  129.18    5.25
 -10   2  -6  132.55    4.34
 -10  -2  -6  130.51    4.52
  10  -2   7    0.19    0.66
 -10  -2  -7    0.48    0.61
 -10   2  -7    0.33    0.43
 -10  -2  -7    0.48    0.49
 -10   2  -8   79.20    3.45
 -10  -2  -8   72.70    3.43
 -10  -2  -9    4.21    0.99
 -10   2  -9    2.89    0.83
 -10  -2  -9    3.62    0.88
  10  -2  10    2.04    1.01
 -10  -2 -10    2.69    0.81
 -10   2 -10    4.73    0.97
 -10  -2 -10    1.94    0.72
 -10  -2 -11    7.90    1.31
 -10   2 -11   12.38    1.56
 -10  -2 -12    3.50    0.97
 -10   2 -12    2.14    0.85
 -10   3  17   -0.16    0.68
 -10  -3  16   31.95    2.39
 -10   3  16   27.02    2.23
 -10  -3  15   37.91    2.37
 -10  -3  15   35.16    2.45
 -10   3  15   33.09    2.38
 -10  -3  14   90.00    3.93
 -10  -3  14   92.08    4.04
 -10   3  14   99.47    4.22
 -10  -3  13   30.15    2.23
 -10  -3  13   23.97    1.97
 -10   3  13   25.40    2.03
 -10  -3  12    1.62    0.76
 -10  -3  12    1.93    0.70
 -10   3  12    1.05    0.56
 -10  -3  11   -0.15    0.56
 -10  -3  11    0.88    0.49
 -10   3  11    0.51    0.50
  10  -3 -10    8.47    0.79
 -10  -3  10    9.53    0.88
 -10  -3  10    8.08    1.33
 -10  -3  10    8.78    1.13
 -10   3  10    8.95    1.17
  10  -3  -9    1.14    0.42
 -10  -3   9    0.28    0.34
 -10  -3   9    1.94    0.75
 -10  -3   9    1.23    0.53
 -10   3   9    0.76    0.40
 -10  -3   8   16.77    1.28
  10  -3  -8   15.20    1.20
 -10  -3   8   17.81    1.86
 -10  -3   8   13.92    1.41
 -10   3   8   17.62    1.57
 -10  -3   7   84.93    3.10
  10  -3  -7   77.57    3.02
 -10   3   7   83.35    2.83
 -10  -3   7   83.89    3.51
 -10   3   7   85.58    3.59
 -10  -3   7   80.98    4.06
  10  -3  -6   82.74    3.26
 -10  -3   6   81.31    4.12
  10  -3  -5  126.23    4.26
 -10  -3   5  127.50    5.29
  10   3  -5  127.21    3.54
  10  -3  -4    7.50    1.01
 -10  -3   4    7.25    1.31
  10   3  -4    9.46    0.87
  10  -3  -3   22.49    1.76
  10   3  -3   24.11    1.37
 -10  -3   3   23.53    1.42
  10  -3  -2   65.82    3.17
 -10  -3   2   70.03    3.85
  10   3  -2   67.42    2.52
 -10  -3   2   66.79    2.56
 -10  -3   1   90.71    3.12
  10  -3  -1   83.83    3.76
 -10  -3   1   90.75    4.47
  10   3  -1   92.51    3.12
 -10  -3   0   95.81    3.32
  10  -3   0   96.95    4.16
 -10  -3   0   94.30    4.65
 -10   3   0  101.74    2.41
 -10   3   0   96.39    2.36
  10   3   0   96.20    3.27
  10  -3   1   22.62    2.00
 -10  -3  -1   21.03    2.17
 -10   3  -1   24.56    1.13
 -10   3  -1   24.74    1.15
  10  -3   2   31.70    2.41
 -10  -3  -2   34.27    2.71
 -10   3  -2   35.02    1.56
  10  -3   3   62.10    3.51
 -10  -3  -3   64.83    3.79
 -10   3  -3   67.30    2.46
  10  -3   4   23.16    2.17
 -10  -3  -4   24.65    2.32
 -10   3  -4   24.96    1.55
  10  -3   5   55.49    3.45
 -10  -3  -5   56.67    3.48
 -10   3  -5   63.71    2.70
 -10  -3  -5   59.92    2.90
  10  -3   6    0.56    0.67
 -10  -3  -6    1.94    0.80
 -10   3  -6    1.53    0.57
 -10  -3  -6    1.10    0.61
  10  -3   7   18.16    2.07
 -10  -3  -7   15.47    1.84
 -10   3  -7   20.86    1.69
 -10  -3  -7   15.34    1.57
 -10  -3  -8   68.07    3.75
 -10   3  -8   72.41    3.33
 -10  -3  -8   63.30    3.30
 -10  -3  -9    6.99    1.30
 -10   3  -9    6.43    1.09
 -10  -3  -9    4.40    0.95
 -10  -3 -10   29.21    2.37
 -10   3 -10   28.71    2.24
 -10  -3 -10   26.91    2.23
 -10   3 -11    0.15    0.56
 -10  -3 -11    0.65    0.55
 -10   3 -12   77.94    3.99
 -10   4  16   -0.62    0.74
 -10  -4  15  102.69    4.33
 -10  -4  15  100.07    4.31
 -10   4  15  102.17    4.38
 -10  -4  14   69.69    3.57
 -10  -4  14   64.57    3.33
 -10   4  14   70.82    3.49
 -10  -4  13   10.61    1.48
 -10  -4  13    7.53    1.16
 -10   4  13    7.80    1.18
 -10  -4  12   -0.16    0.70
 -10  -4  12   -0.13    0.59
 -10   4  12    1.04    0.61
 -10  -4  11   17.12    1.82
 -10  -4  11   12.69    1.39
 -10   4  11   13.84    1.44
 -10  -4  10    2.77    0.87
 -10  -4  10    2.98    0.72
 -10   4  10    2.31    0.69
  10  -4  -9    4.97    0.73
 -10  -4   9    5.94    0.80
 -10  -4   9    6.29    1.17
 -10  -4   9    5.56    0.95
 -10   4   9    3.52    0.80
  10  -4  -8    0.34    0.36
 -10  -4   8    0.35    0.39
 -10   4   8   -0.12    0.40
  10  -4  -7   45.44    2.25
 -10  -4   7   50.21    3.16
 -10  -4   7   46.45    2.52
 -10   4   7   45.70    2.55
  10  -4  -6   79.16    3.16
 -10  -4   6   74.58    3.25
 -10   4   6   83.30    3.47
 -10  -4   6   83.25    4.15
  10  -4  -5   81.93    3.32
 -10  -4   5   77.74    4.07
  10   4  -5   82.89    2.92
  10  -4  -4   77.26    3.30
 -10  -4   4   75.76    4.02
  10   4  -4   78.22    2.86
  10  -4  -3   22.23    1.75
 -10  -4   3   25.82    1.64
  10  -4  -2  100.88    4.03
 -10  -4   2   96.60    4.63
 -10  -4   2  100.55    3.55
  10  -4  -1   19.91    1.77
 -10  -4   1   20.63    2.11
 -10   4   1   22.67    0.86
 -10  -4   1   24.65    1.63
 -10  -4   0   60.22    2.69
 -10   4   0   60.19    1.83
  10  -4   0   57.94    3.15
 -10  -4   0   55.04    3.49
 -10   4   0   60.19    1.86
  10  -4   1    0.90    0.62
 -10   4  -1    0.38    0.29
 -10  -4  -1    0.71    0.43
 -10  -4  -1    0.76    0.74
 -10   4  -1    0.30    0.22
  10  -4   2   33.48    2.50
 -10  -4  -2   32.70    2.72
 -10   4  -2   34.36    1.62
  10  -4   3   -0.17    0.53
 -10  -4  -3    0.39    0.65
 -10   4  -3    0.57    0.34
  10  -4   4   49.67    3.25
 -10  -4  -4   50.66    3.44
 -10   4  -4   58.48    2.44
  10  -4   5   13.73    1.80
 -10  -4  -5    9.29    1.60
 -10   4  -5   14.04    1.25
  10  -4   6   41.90    3.09
 -10  -4  -6   43.47    3.15
 -10   4  -6   42.83    2.32
  10  -4   7   40.99    3.07
 -10  -4  -7   40.87    3.02
 -10   4  -7   39.81    2.37
 -10  -4  -8   -0.18    0.77
 -10  -4  -8    0.30    0.56
 -10   4  -8    1.16    0.59
 -10  -4  -9   -0.18    0.67
 -10  -4  -9    1.25    0.73
 -10   4  -9    1.67    0.68
 -10  -4 -10   11.37    1.58
 -10   4 -10   10.18    1.45
 -10  -4 -10   10.33    1.48
 -10   4 -11    7.10    1.26
 -10   4 -12    0.70    0.69
 -10   5  16   10.40    1.42
 -10  -5  16   14.57    1.65
 -10  -5  15    3.29    0.94
 -10  -5  15   -0.29   54.76
 -10   5  15    0.88    0.65
 -10  -5  14    1.44    0.76
 -10  -5  14   -0.14    0.60
 -10   5  14   -0.14    0.61
 -10  -5  13   23.05    2.18
 -10  -5  13   22.22    1.88
 -10   5  13   21.61    1.87
 -10  -5  12   27.55    2.33
 -10  -5  12   22.28    1.86
 -10   5  12   25.91    2.00
 -10  -5  11   51.64    3.19
 -10  -5  11   42.69    2.49
 -10   5  11   47.75    2.65
 -10  -5  10   63.34    3.57
 -10  -5  10   57.85    2.90
 -10   5  10   56.78    2.90
  10  -5  -9    3.95    0.70
 -10  -5   9    4.32    1.07
 -10  -5   9    4.82    0.89
 -10   5   9    6.15    0.99
  10  -5  -8   35.62    1.98
 -10  -5   8   39.32    2.80
 -10  -5   8   37.93    2.29
 -10   5   8   35.17    2.22
  10  -5  -7  112.81    3.88
 -10  -5   7  111.00    4.94
 -10  -5   7  106.42    4.01
 -10   5   7  109.35    4.11
  10  -5  -6  201.92    5.76
 -10  -5   6  205.03    7.08
 -10  -5   6  193.18    5.83
 -10   5   6  199.97    5.96
  10  -5  -5   74.90    3.20
 -10  -5   5   68.11    3.86
  10  -5  -4    4.80    0.89
 -10  -5   4    6.37    1.26
 -10  -5   3    7.09    1.00
  10  -5  -3    7.35    1.05
  10  -5  -2   10.96    1.31
 -10  -5   2   12.39    1.68
 -10  -5   2   11.47    1.21
  10  -5  -1    0.13    0.51
 -10  -5   1    0.44    0.46
 -10  -5   1    0.19    0.51
  10  -5   0   18.35    1.76
 -10  -5   0   21.34    1.67
 -10  -5   0   18.02    2.05
  10  -5   1   15.47    1.67
 -10  -5  -1   16.84    1.54
 -10  -5  -1   13.14    1.81
  10  -5   2  195.05    6.71
 -10  -5  -2  202.07    6.12
 -10  -5  -2  210.01    7.49
  10  -5   3   67.27    3.73
 -10  -5  -3   72.32    4.15
  10  -5   4    2.33    0.89
 -10  -5  -4    3.05    1.05
  10  -5   5   44.34    3.11
 -10  -5  -5   33.70    2.88
  10  -5   6    1.58    0.80
 -10  -5  -6    1.86    1.00
  10  -5   7    9.51    1.62
 -10  -5  -7    5.41    1.32
 -10  -5  -8    0.20    0.71
 -10  -5  -9    2.94    1.05
 -10   5  -9    3.09    0.85
 -10   5 -10    0.30    0.69
 -10   5 -11   10.99    1.53
 -10  -6  15   18.97    2.02
 -10   6  15   20.62    1.90
 -10  -6  15   18.46    1.83
 -10  -6  14    0.34    0.71
 -10  -6  14   -0.27    0.66
 -10   6  14   -0.14    0.66
 -10  -6  13    7.27    1.35
 -10  -6  13    7.60    1.14
 -10   6  13    7.79    1.16
 -10  -6  12    0.87    0.68
 -10  -6  12    0.99    0.57
 -10   6  12    2.28    0.71
 -10  -6  11   61.84    3.60
 -10  -6  11   60.08    2.97
 -10   6  11   56.76    2.95
 -10  -6  10    2.31    0.93
 -10  -6  10    3.53    0.78
 -10   6  10    2.11    0.66
  10  -6  -9   19.68    1.50
 -10  -6   9   20.18    2.05
 -10  -6   9   16.27    1.47
 -10   6   9   18.45    1.61
  10  -6  -8   29.87    1.90
 -10  -6   8   32.29    2.63
 -10  -6   8   29.27    1.96
 -10   6   8   27.50    1.94
  10  -6  -7    2.53    0.64
 -10  -6   7    1.48    0.77
 -10  -6   7    2.91    0.73
 -10   6   7    2.77    0.76
  10  -6  -6    4.11    0.80
 -10  -6   6    4.48    1.13
 -10  -6   6    3.64    0.77
 -10   6   6    3.11    0.74
  10  -6  -5   62.44    2.99
 -10  -6   5   57.32    3.56
 -10  -6   5   54.62    2.68
 -10   6   5   56.69    2.77
  10  -6  -4    7.87    1.14
 -10  -6   4    6.29    1.28
 -10  -6   3    5.29    0.93
  10  -6  -3    4.89    0.91
 -10  -6   2    8.72    1.20
  10  -6  -2    8.08    1.19
 -10  -6   2    8.75    1.50
  10  -6  -1   38.19    2.51
 -10  -6   1   40.65    3.03
 -10  -6   1   34.28    2.27
  10  -6   0   48.46    2.90
 -10  -6   0   49.93    3.39
 -10  -6   0   48.40    2.72
  10  -6   1    3.39    0.91
 -10  -6  -1    2.38    0.71
 -10  -6  -1    2.43    0.91
  10  -6   2   75.76    3.92
 -10  -6  -2   79.74    3.68
 -10  -6  -2   81.30    4.45
  10  -6   3   60.35    3.50
 -10  -6  -3   52.33    3.02
 -10  -6  -3   58.87    3.79
  10  -6   4    1.81    0.77
 -10  -6  -4    2.33    0.96
  10  -6   5   55.60    3.58
 -10  -6  -5   53.08    3.70
  10  -6   6   30.89    2.75
 -10  -6  -6   27.26    2.64
 -10  -6  -7  182.51    7.25
 -10  -6  -8  119.74    5.67
 -10  -6  -9    3.00    1.23
 -10   7  15   62.15    3.29
 -10  -7  14   -1.08    0.87
 -10   7  14   -0.40    0.66
 -10  -7  13   10.87    1.62
 -10   7  13    8.13    1.19
 -10  -7  12  119.36    5.26
 -10   7  12  111.64    4.29
 -10  -7  11   33.17    2.72
 -10   7  11   28.73    2.03
 -10  -7  10   59.45    3.64
 -10  -7  10   55.55    2.78
 -10   7  10   55.04    2.80
 -10  -7   9   23.30    2.34
 -10  -7   9   22.77    1.70
 -10   7   9   24.36    1.77
  10  -7  -8    0.44    0.50
 -10  -7   8    0.19    0.59
 -10  -7   8    1.05    0.52
 -10   7   8    0.22    0.42
  10  -7  -7   56.68    2.87
 -10  -7   7   58.13    2.73
 -10   7   7   56.98    2.75
  10  -7  -6   76.41    3.41
 -10  -7   6   73.18    4.17
 -10  -7   6   72.64    3.12
 -10   7   6   74.83    3.23
  10  -7  -5   74.14    3.41
 -10  -7   5   71.45    4.13
 -10  -7   5   67.72    2.99
 -10   7   5   69.46    3.04
  10  -7  -4  141.28    5.00
 -10  -7   4  123.32    4.29
 -10   7   4  133.05    4.46
 -10  -7   4  131.02    5.80
  10  -7  -3   24.93    2.04
 -10  -7   3   30.05    2.23
  10  -7  -2   98.40    4.25
 -10  -7   2  101.26    5.06
 -10  -7   2  104.15    4.34
  10  -7  -1   15.02    1.68
 -10  -7   1   15.83    2.03
 -10  -7   1   13.27    1.57
  10  -7   0   39.59    2.71
 -10  -7   0   44.03    3.26
 -10  -7   0   38.89    2.62
 -10  -7  -1   -0.15    0.58
  10  -7   1    0.16    0.54
 -10  -7  -1    0.21    0.67
  10  -7   2   34.99    2.63
 -10  -7  -2   34.55    2.49
 -10  -7  -2   31.91    2.85
  10  -7   3   39.77    2.87
 -10  -7  -3   44.00    2.85
 -10  -7  -3   38.17    3.11
 -10  -7  -4    0.97    0.65
 -10  -7  -4    0.22    0.80
 -10  -7  -5    4.01    1.06
 -10  -7  -5    3.79    1.19
 -10  -8  10  246.35    8.33
 -10  -8   9    6.69    1.38
  10  -8  -8   33.19    2.18
 -10  -8   8   28.85    2.67
  10  -8  -7   25.72    1.96
 -10  -8   7   19.40    2.22
  10  -8  -6    0.26    0.51
 -10  -8   6    0.62    0.76
  10  -8  -5   10.49    1.34
 -10  -8   5   10.90    1.74
 -10   8   5   11.13    1.17
  10  -8  -4   15.29    1.65
 -10  -8   4   15.01    2.01
 -10   8   4   13.98    1.30
 -10   8   3   16.08    1.42
  10  -8  -3   16.03    1.70
  10  -8  -2   73.87    3.73
 -10  -8   2   76.86    4.50
 -10  -8   2   77.84    3.90
  10  -8  -1   16.19    1.80
 -10  -8   1   20.77    2.35
 -10  -8   1   15.63    1.79
 -10  -8   0   -0.16    0.54
  10  -8   0    0.49    0.79
 -10  -8  -1  142.96    5.65
 -10  -8  -2    0.50    0.70
 -10  -8  -3    4.14    1.05
  10  -9  -7    2.55    0.82
  10  -9  -6    3.34    0.88
  10  -9  -5   21.96    1.99
 -10  -9   2   23.63    2.26
 -11   0  16   -0.32    0.63
 -11   0  15   84.95    4.08
 -11   0  14    0.15    0.55
 -11   0  13    3.35    0.83
 -11   0  12   -0.14    0.58
 -11   0  11   56.46    3.10
 -11   0  11   65.08    3.24
 -11   0  10   -0.28    0.63
 -11   0  10    0.14    0.48
 -11   0   9   43.37    1.73
 -11   0   9   44.36    2.65
 -11   0   9   42.86    2.67
 -11   0   8   -0.13    0.48
 -11   0   8    0.68    0.37
 -11   0   8   -0.14    0.48
 -11   0   7  270.91    7.98
  11   0  -6    0.19    0.33
 -11   0   6    0.46    0.49
  11   0  -5    3.58    0.74
 -11   0   5    3.43    0.88
  11   0  -4    0.44    0.50
 -11   0   4    0.32    0.53
  11   0  -3    4.75    0.91
  11   0  -2    1.52    0.61
 -11   0   2   -0.16    0.55
 -11   0   1   18.67    1.89
 -11   0   1   17.65    0.78
  11   0   0    0.14    0.47
 -11   0   0    0.17    0.47
  11   0   1   16.51    1.71
 -11   0  -1   16.66    1.83
  11   0   2    0.46    0.44
 -11   0  -2    0.50    0.63
 -11   0  -2    0.18    0.25
  11   0   3    1.47    0.76
 -11   0  -3    1.00    0.65
 -11   0  -3    1.97    0.49
  11   0   4    0.17    0.57
 -11   0  -4    0.68    0.66
 -11   0  -4    0.24    0.32
  11   0   5   34.49    2.68
 -11   0  -5   29.02    2.41
 -11   0  -5   31.74    1.86
  11   0   6   -0.75    0.80
 -11   0  -6    0.10    0.36
  11   0   7   39.15    3.01
 -11   0  -7   39.32    2.31
 -11   0  -8   -0.12    0.43
 -11   0  -9    4.88    0.95
 -11   0 -10   -0.14    0.52
 -11   0 -11   30.92    2.36
 -11   0 -12    0.16    0.56
 -11  -1  16    5.63    1.09
 -11   1  16    3.72    1.01
 -11  -1  15    0.79    0.66
 -11  -1  14   69.46    3.56
 -11  -1  14   69.19    3.22
 -11  -1  13    4.50    0.96
 -11  -1  13    3.37    0.81
 -11  -1  12    0.40    0.48
 -11  -1  12    0.14    0.47
 -11  -1  11   18.42    1.74
 -11  -1  11   17.31    1.69
 -11  -1  10    9.04    1.27
 -11  -1  10    8.55    1.19
  11  -1  -9  185.08    4.73
 -11  -1   9  192.21    4.59
 -11   1   9  187.36    4.55
 -11  -1   9  199.85    6.42
 -11  -1   9  188.36    6.08
 -11  -1   8   13.15    1.02
  11  -1  -8   11.86    1.05
 -11   1   8   13.02    0.98
 -11  -1   8   14.18    1.59
 -11  -1   8   14.89    1.50
 -11  -1   7   33.00    1.70
 -11   1   7   31.82    1.65
  11  -1  -7   36.12    1.90
 -11  -1   7   33.41    2.44
  11  -1  -6   74.33    3.02
 -11  -1   6   84.11    3.99
  11  -1  -5  101.04    3.75
 -11  -1   5  110.73    4.76
 -11   1   5  111.79    4.70
  11  -1  -4   13.08    1.31
 -11  -1   4   12.11    1.57
 -11   1   4   13.48    1.58
  11  -1  -3    1.98    0.60
  11   1  -2   42.22    2.57
  11  -1  -2   45.38    2.59
 -11  -1   2   48.69    3.05
 -11  -1   2   43.66    1.50
 -11  -1   1   91.47    2.60
  11   1  -1   88.18    3.97
  11  -1  -1   89.97    3.89
 -11  -1   1   98.84    4.49
 -11   1   1   96.86    4.42
  11   1   0   18.11    1.76
  11  -1   0   12.86    1.48
 -11  -1   0   15.13    1.73
  11   1   1   13.10    1.57
  11  -1   1   13.98    1.59
 -11  -1  -1   12.99    1.64
 -11   1  -1   15.15    0.88
  11   1   2   24.24    2.14
  11  -1   2   24.45    2.13
 -11  -1  -2   26.29    2.27
 -11   1  -2   24.39    1.28
  11   1   3    1.35    0.72
  11  -1   3    1.78    0.69
 -11  -1  -3    0.85    0.67
 -11   1  -3    1.24    0.37
 -11  -1  -3    0.79    0.37
  11   1   4    1.41    0.74
  11  -1   4    1.52    0.71
 -11  -1  -4    3.06    0.92
 -11   1  -4    3.06    0.57
 -11  -1  -4    2.81    0.63
  11   1   5   11.35    1.61
  11  -1   5   10.57    1.56
 -11   1  -5   13.72    1.20
 -11  -1  -5   14.38    1.29
  11   1   6    7.03    1.36
  11  -1   6    6.60    1.29
 -11  -1  -6    5.86    1.15
 -11   1  -6    5.97    0.90
 -11  -1  -6    7.04    0.99
  11   1   7    3.34    1.03
  11  -1   7    1.72    0.80
 -11  -1  -7    2.31    0.87
 -11   1  -7    3.70    0.76
 -11  -1  -7    2.68    0.75
 -11  -1  -8   51.50    3.21
 -11   1  -8   52.99    2.76
 -11  -1  -8   47.73    2.72
 -11  -1  -9    0.81    0.63
 -11   1  -9    0.26    0.57
 -11   1 -10    8.63    1.27
 -11  -1 -10   13.05    1.55
 -11  -1 -11   -0.31    0.56
 -11   1 -11   -0.15    0.57
 -11   1 -12    4.03    1.02
 -11  -2  16    7.48    1.28
 -11   2  16    7.39    1.29
 -11  -2  15    2.64    0.76
 -11  -2  15    2.34    0.84
 -11   2  15    2.21    0.81
 -11  -2  14    2.79    0.79
 -11  -2  14    2.71    0.79
 -11   2  14    4.10    0.95
 -11  -2  13  159.38    5.38
 -11  -2  13  141.42    5.32
 -11   2  13  146.81    5.41
 -11  -2  12   74.78    3.62
 -11  -2  12   76.58    3.63
 -11   2  12   71.87    3.56
 -11  -2  11   42.12    2.72
 -11  -2  11   39.67    2.55
 -11   2  11   40.26    2.58
 -11  -2  10   61.79    3.40
 -11  -2  10   66.59    3.33
 -11   2  10   63.24    3.27
 -11  -2   9   17.29    1.16
  11  -2  -9   17.07    1.19
 -11  -2   9   15.96    1.76
 -11  -2   9   16.82    1.63
 -11   2   9   15.48    1.60
 -11  -2   8   39.80    1.87
  11  -2  -8   40.01    1.95
 -11  -2   8   33.92    2.58
 -11   2   8   35.15    1.69
 -11  -2   8   37.42    2.41
 -11   2   8   36.76    2.43
  11  -2  -7   35.55    1.93
 -11  -2   7   35.63    2.64
 -11  -2   7   35.55    2.29
 -11   2   7   30.86    2.16
  11  -2  -6    5.91    0.86
 -11  -2   6    5.08    1.14
  11  -2  -5    0.32    0.44
 -11  -2   5    0.69    0.61
  11  -2  -4  216.98    6.28
 -11  -2   4  223.28    7.44
  11  -2  -3    8.57    1.12
  11  -2  -2   45.78    2.62
 -11  -2   2   44.92    3.05
 -11  -2   2   41.86    1.76
 -11  -2   1    1.35    0.40
  11  -2  -1    1.63    0.66
 -11  -2   1    1.44    0.75
 -11  -2   0    4.31    0.64
  11  -2   0    6.03    1.04
 -11   2   0    5.06    0.36
  11  -2   1   95.70    4.28
 -11  -2  -1  100.94    4.73
 -11   2  -1   98.18    2.54
  11  -2   2   30.42    2.40
 -11  -2  -2   33.17    2.65
 -11   2  -2   34.09    1.49
  11  -2   3   57.56    3.41
 -11  -2  -3   65.27    3.75
 -11   2  -3   59.80    2.25
  11  -2   4  251.21    8.21
 -11  -2  -4  266.79    8.38
 -11   2  -4  267.34    6.41
  11  -2   5    3.46    0.98
 -11  -2  -5    3.67    0.95
 -11   2  -5    3.63    0.67
 -11  -2  -5    6.27    0.95
  11  -2   6    0.94    0.74
 -11  -2  -6    0.17    0.55
 -11   2  -6    1.00    0.50
 -11  -2  -6    0.11    0.42
 -11  -2  -7    8.04    1.34
 -11   2  -7    9.18    1.15
 -11  -2  -7    6.40    1.02
 -11  -2  -8    7.78    1.35
 -11   2  -8    8.49    1.16
 -11  -2  -8    8.97    1.25
 -11  -2  -9   29.22    2.41
 -11   2  -9   33.46    2.29
 -11  -2  -9   31.24    2.29
 -11  -2 -10   34.84    2.68
 -11   2 -10   42.33    2.70
 -11  -2 -10   34.60    2.53
 -11   2 -11    1.39    0.70
 -11  -2 -11    3.33    0.99
 -11   3  16   19.15    1.92
 -11  -3  15  120.98    4.60
 -11  -3  15  107.43    4.66
 -11   3  15  114.65    4.83
 -11  -3  14    4.94    1.01
 -11  -3  14    3.48    0.91
 -11   3  14    3.20    0.89
 -11  -3  13    0.60    0.56
 -11  -3  13   -0.14    0.43
 -11   3  13    0.44    0.49
 -11  -3  12   10.96    1.48
 -11  -3  12   14.86    1.58
 -11   3  12   13.58    1.52
 -11  -3  11    6.87    1.24
 -11   3  11    7.56    1.10
 -11  -3  11    8.08    1.16
 -11  -3  10   20.34    2.06
 -11  -3  10   21.95    1.87
 -11   3  10   22.19    1.87
  11  -3  -9   95.17    3.27
 -11  -3   9   97.28    4.62
 -11  -3   9   97.17    4.06
 -11   3   9  104.00    4.22
  11  -3  -8   67.88    2.77
 -11  -3   8   67.62    3.84
 -11  -3   8   64.73    3.22
 -11   3   8   69.82    3.36
  11  -3  -7   18.13    1.44
 -11  -3   7   22.33    2.19
 -11  -3   7   19.38    1.69
 -11   3   7   20.91    1.79
  11  -3  -6   16.82    1.45
 -11  -3   6   18.07    2.02
  11  -3  -5    4.56    0.88
 -11  -3   5    3.21    0.98
  11  -3  -4   22.84    1.80
 -11  -3   4   19.91    2.11
  11  -3  -3   60.13    3.13
 -11  -3   3   71.33    2.57
 -11  -3   2    0.15    0.32
  11  -3  -2    0.14    0.44
 -11  -3   2   -0.39    0.69
  11  -3  -1   20.02    1.87
 -11  -3   1   22.50    2.27
 -11  -3   1   25.73    1.55
 -11  -3   0    6.75    0.84
  11  -3   0    4.42    0.98
 -11  -3   0    6.30    1.28
 -11   3   0    5.80    0.37
  11  -3   1  130.56    5.23
 -11  -3  -1  131.98    5.73
 -11   3  -1  135.64    3.22
  11  -3   2   21.04    2.02
 -11  -3  -2   20.36    2.18
 -11   3  -2   22.98    1.24
 -11  -3  -3   -0.39    0.74
 -11   3  -3    0.45    0.34
  11  -3   4    3.26    0.93
 -11  -3  -4    2.49    0.89
 -11   3  -4    3.28    0.63
  11  -3   5   45.38    3.19
 -11  -3  -5   45.79    3.19
 -11   3  -5   45.81    2.24
  11  -3   6   21.30    2.22
 -11  -3  -6   24.15    2.33
 -11   3  -6   22.96    1.67
  11  -3   7   16.32    2.03
 -11  -3  -7   15.80    1.95
 -11   3  -7   16.18    1.48
 -11  -3  -7   15.22    1.58
 -11  -3  -8    7.35    1.33
 -11   3  -8    9.45    1.22
 -11  -3  -8    7.45    1.15
 -11  -3  -9  136.22    5.54
 -11   3  -9  138.14    5.00
 -11  -3  -9  129.04    5.09
 -11  -3 -10    1.00    0.81
 -11  -3 -10    0.63    0.59
 -11  -4  15   23.41    2.07
 -11  -4  15   22.15    2.00
 -11   4  15   23.02    2.07
 -11  -4  14   73.63    3.81
 -11  -4  14   69.16    3.56
 -11   4  14   75.03    3.74
 -11  -4  13   23.43    2.20
 -11  -4  13   23.93    2.03
 -11   4  13   21.40    1.91
 -11  -4  12   12.83    1.69
 -11  -4  12   12.19    1.43
 -11   4  12   13.73    1.54
 -11  -4  11  170.51    6.41
 -11  -4  11  165.74    5.60
 -11   4  11  163.40    5.65
 -11  -4  10   69.18    3.84
 -11  -4  10   62.45    3.19
 -11   4  10   63.07    3.23
  11  -4  -9    0.71    0.42
 -11  -4   9    2.59    0.92
 -11  -4   9    1.33    0.63
 -11   4   9    0.55    0.55
  11  -4  -8  103.12    3.72
 -11  -4   8  106.84    4.98
 -11  -4   8  106.46    4.22
 -11   4   8  109.59    4.32
  11  -4  -7    0.21    0.37
 -11  -4   7    0.38    0.64
 -11  -4   7   -0.13    0.49
 -11   4   7    0.52    0.46
  11  -4  -6    5.05    0.90
 -11  -4   6    3.86    1.07
 -11  -4   6    3.77    0.81
  11  -4  -5   30.17    2.06
 -11  -4   5   27.95    2.55
  11  -4  -4  306.39    8.24
 -11  -4   4  312.90    9.70
  11  -4  -3  303.84    8.39
 -11  -4   3  315.46    7.51
  11  -4  -2   89.04    4.00
 -11  -4   2   96.96    4.85
 -11  -4   2   90.65    3.34
  11  -4  -1    2.99    0.83
 -11  -4   1    3.57    0.71
 -11  -4   1    3.91    1.10
  11  -4   0    7.60    1.26
 -11  -4   0    9.00    1.07
 -11  -4   0    7.70    1.51
  11  -4   1   11.30    1.51
 -11  -4  -1   12.83    1.28
 -11  -4  -1    8.21    1.50
  11  -4   2  133.76    5.52
 -11  -4  -2  134.51    6.00
 -11   4  -2  138.98    3.71
  11  -4   3    1.28    0.74
 -11  -4  -3    2.12    1.03
 -11   4  -3    2.86    0.55
 -11  -4  -4  113.79    5.42
 -11   4  -4  119.24    3.77
  11  -4   5   67.57    4.02
 -11  -4  -5   72.23    4.25
 -11   4  -5   73.31    2.99
  11  -4   6    2.66    1.01
 -11  -4  -6    1.42    0.77
 -11  -4  -7    0.39    0.77
 -11  -4  -8    0.95    0.64
 -11  -4  -9   13.66    1.84
 -11  -4  -9   18.83    1.91
 -11  -5  15    0.68    0.79
 -11  -5  15    1.79    0.72
 -11   5  15    1.68    0.67
 -11  -5  14    0.18    0.67
 -11  -5  14   -0.14    0.64
 -11   5  14   -0.15    0.60
 -11  -5  13   19.53    2.05
 -11  -5  13   18.55    1.79
 -11   5  13   18.85    1.82
 -11  -5  12    2.21    0.97
 -11  -5  12    2.02    0.69
 -11   5  12    2.35    0.74
 -11  -5  11   86.13    4.39
 -11  -5  11   81.13    3.66
 -11   5  11   78.64    3.66
 -11  -5  10    6.43    1.31
 -11  -5  10    7.03    1.11
 -11   5  10    4.87    0.98
 -11  -5   9  200.85    7.27
 -11  -5   9  193.94    6.12
 -11   5   9  212.37    6.39
  11  -5  -8    0.10    0.40
 -11  -5   8    0.97    0.79
 -11  -5   8    0.25    0.48
 -11   5   8    0.65    0.56
  11  -5  -7   23.93    1.76
 -11  -5   7   20.09    2.20
 -11  -5   7   21.77    1.78
 -11   5   7   25.07    1.92
  11  -5  -6   12.02    1.31
 -11  -5   6   10.95    1.67
 -11  -5   6   13.32    1.38
 -11   5   6   13.28    1.40
  11  -5  -5   56.79    2.91
 -11  -5   5   57.45    3.71
  11  -5  -4    0.26    0.49
 -11  -5   4    0.20    0.77
  11  -5  -3   93.61    4.03
 -11  -5   3   90.25    3.56
  11  -5  -2    0.43    0.53
 -11  -5   2   -0.11    0.48
 -11  -5   2    0.42    0.67
  11  -5  -1  137.20    5.29
 -11  -5   1  139.12    6.06
 -11  -5   1  134.39    4.62
  11  -5   0    2.10    0.78
 -11  -5   0    2.26    0.68
 -11  -5   0    1.93    0.94
  11  -5   1    1.36    0.73
 -11  -5  -1    2.36    0.71
 -11  -5  -1    1.52    0.90
 -11  -5  -2   47.19    2.61
  11  -5   2   45.81    3.11
 -11  -5  -2   43.93    3.37
  11  -5   3   69.88    3.97
 -11  -5  -3   73.80    4.40
  11  -5   4    1.18    0.74
 -11  -5  -4    3.79    1.13
  11  -5   5   18.04    2.14
 -11  -5  -5   22.21    2.49
 -11  -5  -6    8.64    1.62
 -11  -5  -7   21.47    2.44
 -11  -5  -8    1.04    0.76
 -11  -6  15    1.28    0.80
 -11  -6  14  139.55    5.79
 -11  -6  14  130.09    5.02
 -11   6  14  129.43    5.02
 -11  -6  13    7.54    1.18
 -11   6  13    7.88    1.23
 -11  -6  12   67.87    4.00
 -11  -6  12   69.69    3.41
 -11   6  12   67.35    3.42
 -11  -6  11   24.51    2.48
 -11  -6  11   29.85    2.13
 -11   6  11   29.81    2.16
 -11  -6  10    0.60    0.63
 -11  -6  10    0.12    0.58
 -11   6  10   -0.26    0.49
 -11  -6   9   24.08    2.38
 -11  -6   9   24.46    1.89
 -11   6   9   24.51    1.92
  11  -6  -8   42.75    2.37
 -11  -6   8   40.27    3.10
 -11  -6   8   38.76    2.40
 -11   6   8   44.12    2.59
  11  -6  -7    4.86    0.92
 -11  -6   7    2.65    0.97
 -11  -6   7    4.84    0.89
 -11   6   7    3.88    0.87
  11  -6  -6    4.27    0.87
 -11  -6   6    5.99    1.24
 -11  -6   6    3.45    0.82
 -11   6   6    4.59    0.91
 -11  -6   5   13.15    1.81
 -11  -6   5    9.67    1.21
 -11   6   5   11.79    1.34
  11  -6  -4    2.02    0.73
 -11  -6   4    1.69    0.88
 -11  -6   3    5.54    0.99
  11  -6  -3    5.94    1.05
  11  -6  -2    4.17    0.99
 -11  -6   2    1.86    0.62
 -11  -6   2    3.04    1.01
  11  -6  -1    2.03    0.79
 -11  -6   1    2.41    0.75
  11  -6   0   59.48    3.40
 -11  -6   0   50.58    3.62
 -11  -6   0   53.62    2.90
  11  -6   1    2.94    0.94
 -11  -6  -1    4.11    0.90
 -11  -6  -1    3.82    1.20
 -11  -6  -2   48.31    2.84
  11  -6   2   50.77    3.31
 -11  -6  -2   47.37    3.57
 -11  -6  -3   17.39    1.74
  11  -6   3   18.76    2.10
 -11  -6  -3   16.73    2.20
 -11  -6  -4    9.75    1.42
 -11  -6  -4   10.61    1.81
 -11  -6  -5   -0.47    0.82
 -11  -7  14   17.65    2.11
 -11   7  14   16.28    1.75
 -11  -7  13    3.00    1.11
 -11   7  13    1.49    0.66
 -11  -7  12   12.99    1.90
 -11   7  12   16.36    1.67
 -11  -7  11   10.03    1.68
 -11   7  11    5.56    1.02
 -11  -7  10   27.39    2.69
 -11   7  10   31.26    2.15
 -11  -7   9    8.08    1.54
 -11   7   9    8.50    1.18
 -11  -7   8    5.66    1.34
 -11  -7   8    7.97    1.10
 -11   7   8    8.93    1.16
  11  -7  -7    4.89    0.96
 -11  -7   7    3.18    1.07
 -11  -7   7    3.21    0.74
 -11   7   7    5.45    0.96
  11  -7  -6   40.27    2.53
 -11  -7   6   37.23    3.13
 -11  -7   6   38.72    2.33
 -11   7   6   41.56    2.45
  11  -7  -5    0.41    0.48
 -11  -7   5    0.22    0.72
 -11   7   5    1.42    0.63
 -11  -7   5    0.80    0.52
  11  -7  -4   74.11    3.59
 -11  -7   4   69.58    4.27
 -11  -7   4   68.36    3.14
 -11   7   4   70.12    3.22
  11  -7  -3   24.92    2.14
  11  -7  -2   11.03    1.49
 -11  -7   2   12.26    1.90
 -11  -7   2   14.21    1.60
 -11  -7   1    1.43    0.68
  11  -7  -1    1.29    0.77
 -11  -7   1    1.35    0.88
  11  -7   0    0.51    0.62
 -11  -7   0    0.88    0.61
 -11  -7   0    0.46    0.77
  11  -7   1   22.96    2.20
 -11  -7  -1   23.63    2.06
 -11  -7  -2    0.76    0.59
 -11  -7  -3   15.47    1.74
 -11  -7  -4    9.04    1.38
 -11  -7  -5   18.32    1.95
  11  -8  -7   58.58    3.13
  11  -8  -6   22.74    1.95
  11  -8  -5    5.83    1.15
  11  -8  -4    1.06   25.91
  11  -8  -3    5.66    1.09
 -11  -8   2    0.16    0.57
  11  -8  -2   -0.16    0.60
 -11  -8   1    3.65    0.98
 -11  -8   0    3.39    0.97
 -11  -8  -1  146.06    5.66
 -11  -8  -2   14.60    1.81
 -12   0  15   -0.17    0.56
 -12   0  14  127.23    5.15
 -12   0  13   -0.16    0.53
 -12   0  12  201.37    6.68
 -12   0  11    0.30    0.55
 -12   0  11    0.15    0.55
 -12   0  10    4.64    0.99
 -12   0  10    4.51    1.01
 -12   0   9    0.15    0.51
 -12   0   9    0.61    0.58
 -12   0   8  351.30    9.46
 -12   0   8  364.89    9.81
 -12   0   7    0.16    0.53
 -12   0   6   21.52    2.04
  12   0  -5    0.11    0.41
 -12   0   5    0.83    0.63
  12   0  -4    1.20    0.51
 -12   0   4   -0.17    0.54
  12   0  -3    0.13    0.41
  12   0  -2  249.30    7.36
 -12   0   2  251.86    7.99
 -12   0   1    0.10    0.15
  12   0  -1   -0.58    0.68
 -12   0   1   -0.35    0.63
 -12   0   0   39.08    1.39
  12   0   0   35.52    2.57
 -12   0   0   38.56    2.83
  12   0   1    0.32    0.48
 -12   0  -1   -0.18    0.56
  12   0   2   35.41    2.64
 -12   0  -2   36.94    2.79
  12   0   3    0.35    0.58
 -12   0  -3    0.18    0.52
 -12   0  -3   -0.07    0.34
  12   0   4   31.03    2.58
 -12   0  -4   33.49    2.65
 -12   0  -4   35.55    1.86
  12   0   5    0.94    0.60
 -12   0  -5   -0.09    0.37
  12   0   6   83.39    4.49
 -12   0  -6   89.56    3.47
 -12   0  -7    0.34    0.48
 -12   0  -8   11.24    1.31
 -12  -1  15    1.83    0.77
 -12   1  15    3.02    0.93
 -12  -1  14   32.32    2.25
 -12  -1  14   30.33    2.39
 -12  -1  13   72.45    3.51
 -12  -1  13   74.78    3.77
 -12  -1  12  104.12    4.35
 -12  -1  12   97.95    4.36
 -12  -1  11   33.83    2.43
 -12  -1  11   29.08    2.29
 -12  -1  10    0.15    0.53
 -12  -1  10    0.30    0.58
 -12  -1   9   21.50    2.02
 -12  -1   9   21.75    1.93
  12  -1  -8    3.92    0.67
 -12  -1   8    4.81    1.05
 -12  -1   8    2.27    0.71
  12  -1  -7  143.36    4.48
 -12  -1   7  142.19    5.55
  12  -1  -6    0.92    0.46
 -12  -1   6    0.67    0.56
  12  -1  -5    1.76    0.57
 -12  -1   5    1.36    0.71
  12  -1  -4   90.83    3.72
 -12  -1   4   93.22    4.45
  12  -1  -3   75.37    3.45
  12  -1  -2    2.27    0.71
 -12  -1   2    1.23    0.67
  12  -1  -1    6.47    1.12
 -12  -1   1    7.47    1.31
 -12  -1   1    6.91    0.62
 -12  -1   0    0.21    0.30
  12   1   0    0.77    0.60
  12  -1   0    0.30    0.50
 -12  -1   0   -0.18    0.54
  12   1   1   18.32    1.87
  12  -1   1   17.28    1.83
 -12  -1  -1   19.83    2.10
  12   1   2   39.32    2.79
  12  -1   2   37.53    2.69
 -12  -1  -2   44.60    3.08
 -12   1  -2   40.04    1.65
  12   1   3   68.25    3.82
  12  -1   3   61.15    3.60
 -12  -1  -3   68.35    3.84
 -12   1  -3   63.06    2.33
  12   1   4   32.41    2.68
  12  -1   4   34.24    2.67
 -12  -1  -4   31.83    2.61
 -12  -1  -4   30.33    1.82
 -12   1  -4   31.57    1.72
  12   1   5  114.15    5.23
  12  -1   5  104.51    4.97
 -12  -1  -5  115.91    5.16
 -12  -1  -5  108.96    3.88
 -12   1  -5  116.44    3.78
  12   1   6   14.28    1.87
  12  -1   6   14.09    1.88
 -12  -1  -6   13.77    1.77
 -12  -1  -6   16.46    1.46
 -12  -1  -7    2.48    0.98
 -12  -1  -7    1.64    0.58
 -12  -1  -8   -0.13    0.48
 -12  -1  -9    0.27    0.48
 -12  -2  15   21.89    1.87
 -12  -2  14    5.24    1.02
 -12  -2  14    5.23    1.03
 -12   2  14    4.65    1.00
 -12  -2  13    8.80    1.31
 -12  -2  13    5.25    1.06
 -12   2  13    6.27    1.15
 -12  -2  12    9.00    1.30
 -12  -2  12    8.43    1.28
 -12   2  12   10.41    1.41
 -12  -2  11    2.98    0.91
 -12  -2  11    3.11    0.78
 -12   2  11    3.02    0.79
 -12  -2  10   51.96    3.14
 -12  -2  10   46.29    2.86
 -12   2  10   43.13    2.79
 -12  -2   9   53.32    3.26
 -12  -2   9   54.37    3.05
 -12   2   9   50.61    2.99
  12  -2  -8   70.41    2.82
 -12  -2   8   81.25    4.07
 -12  -2   8   71.82    3.55
 -12   2   8   71.86    3.59
  12  -2  -7   11.77    1.20
 -12  -2   7   11.46    1.62
  12  -2  -6   52.42    2.60
 -12  -2   6   55.10    3.42
  12  -2  -5    8.40    1.11
 -12  -2   5    6.94    1.26
  12  -2  -4    0.86    0.51
 -12  -2   4    0.74    0.67
  12  -2  -3   20.57    1.77
  12  -2  -2  127.90    4.85
 -12  -2   2  125.21    5.45
 -12  -2   2  124.11    3.40
  12  -2  -1    9.43    1.33
 -12  -2   1    8.54    1.46
 -12  -2   1   11.96    0.95
 -12  -2   0   58.92    2.28
  12  -2   0   55.57    3.21
 -12  -2   0   59.98    3.65
  12  -2   1    0.65    0.59
 -12  -2  -1    0.19    0.58
  12  -2   2   28.39    2.38
 -12  -2  -2   25.65    2.41
  12  -2   3    4.22    1.05
 -12  -2  -3    5.21    1.18
  12  -2   4    5.47    1.18
 -12  -2  -4    6.30    1.27
  12  -2   5    8.33    1.44
 -12  -2  -5    8.29    1.52
  12  -2   6   70.25    4.06
 -12  -2  -6   77.60    4.11
 -12  -2  -6   69.80    3.21
 -12  -2  -7   56.20    3.54
 -12  -2  -7   56.88    2.95
 -12  -2  -8   15.45    1.88
 -12  -2  -8   15.86    1.64
 -12  -2  -9    0.17    0.58
 -12  -2  -9    0.28    0.57
 -12  -2 -10   22.43    2.05
 -12  -3  15   -0.28    0.51
 -12  -3  14   14.59    1.66
 -12   3  14   14.41    1.70
 -12  -3  14    9.30    1.39
 -12  -3  13  129.92    5.15
 -12  -3  13  122.62    4.97
 -12   3  13  119.86    4.95
 -12  -3  12   26.86    2.30
 -12  -3  12   26.12    2.18
 -12   3  12   28.09    2.25
 -12  -3  11   11.46    1.62
 -12  -3  11   12.17    1.47
 -12   3  11   14.45    1.59
 -12  -3  10   72.81    3.92
 -12  -3  10   69.29    3.52
 -12   3  10   66.83    3.51
 -12  -3   9    3.32    0.99
 -12  -3   9    3.13    0.89
 -12   3   9    4.25    0.94
  12  -3  -8   79.36    3.13
 -12  -3   8   74.67    4.15
 -12  -3   8   78.95    3.71
 -12   3   8   81.48    3.81
  12  -3  -7   49.77    2.48
 -12  -3   7   43.31    3.14
 -12  -3   7   45.03    2.70
 -12   3   7   46.43    2.79
  12  -3  -6    1.58    0.57
 -12  -3   6    0.79    0.74
  12  -3  -5    0.61    0.48
 -12  -3   5    2.60    0.93
  12  -3  -4    4.44    0.92
 -12  -3   4    3.24    1.00
  12  -3  -3   10.66    1.36
 -12  -3   2    2.11    0.52
  12  -3  -2    2.93    0.82
 -12  -3   2    3.28    1.10
  12  -3  -1   40.41    2.70
 -12  -3   1   40.95    3.13
 -12  -3   1   40.19    1.97
 -12  -3   0   61.28    2.54
  12  -3   0   57.99    3.34
 -12  -3   0   56.30    3.69
 -12  -3  -1    0.26    0.35
  12  -3   1    0.84    0.66
 -12  -3  -1    1.84    0.85
  12  -3   2    5.61    1.16
 -12  -3  -2    4.67    1.22
  12  -3   3    1.64    0.84
 -12  -3  -3    1.21    0.81
  12  -3   4    0.19    0.57
 -12  -3  -4    1.40    0.78
  12  -3   5    0.99    0.75
 -12  -3  -5    0.59    0.72
 -12  -3  -6    0.19    0.80
 -12  -3  -7   10.08    1.63
 -12  -3  -8    0.55    0.61
 -12  -3  -8   -0.28    0.55
 -12  -3  -9    4.49    1.01
 -12  -4  15    0.32    0.66
 -12  -4  14   -0.17    0.79
 -12  -4  14    0.16    0.53
 -12   4  14    0.32    0.57
 -12  -4  13    3.88    1.10
 -12  -4  13    3.77    0.95
 -12   4  13    2.47    0.86
 -12  -4  12   46.03    3.17
 -12  -4  12   44.92    2.81
 -12   4  12   39.93    2.67
 -12  -4  11   14.22    1.82
 -12  -4  11   12.18    1.52
 -12   4  11   12.99    1.54
 -12  -4  10   30.71    2.72
 -12  -4  10   27.57    2.16
 -12   4  10   31.52    2.31
 -12  -4   9    2.55    0.80
 -12   4   9    1.90    0.76
  12  -4  -8    0.43    0.50
 -12  -4   8    1.45    0.76
 -12  -4   8    0.83    0.52
 -12   4   8    0.43    0.38
  12  -4  -7    0.23    0.39
 -12  -4   7   -0.21    0.76
 -12  -4   7    0.27    0.50
 -12   4   7    0.28    0.47
  12  -4  -6    6.11    1.03
 -12  -4   6    3.84    1.12
  12  -4  -5   11.56    1.38
 -12  -4   5   11.01    1.76
  12  -4  -4    0.70    0.59
 -12  -4   4    1.09    0.83
  12  -4  -3    3.43    0.90
  12  -4  -2   63.49    3.47
 -12  -4   2   65.00    4.15
 -12  -4   2   65.37    2.76
 -12  -4   1    1.04    0.51
  12  -4  -1    2.47    0.83
 -12  -4   1    0.90    0.82
  12  -4   0   15.20    1.81
 -12  -4   0   12.85    1.91
 -12  -4   0   16.32    1.39
 -12  -4  -1    4.22    0.77
  12  -4   1    3.78    1.01
 -12  -4  -1    4.72    1.22
 -12  -4  -2    0.43    0.45
  12  -4   2   -0.19    0.65
 -12  -4  -2    1.56    0.84
  12  -4   3   37.35    2.94
 -12  -4  -3   32.53    2.92
  12  -4   4    0.20    0.57
 -12  -4  -4    0.65    0.72
 -12  -4  -5   13.28    1.89
 -12  -4  -6   22.18    2.40
 -12  -5  15    0.89    0.84
 -12  -5  14    9.02    1.51
 -12  -5  13    0.20    0.86
 -12  -5  13   -0.45    0.66
 -12   5  13    0.62    0.60
 -12  -5  12   12.10    1.79
 -12   5  12   14.72    1.69
 -12  -5  12   12.57   67.33
 -12  -5  11    0.41    0.90
 -12  -5  11    0.85    0.59
 -12   5  11    0.29    0.58
 -12  -5  10    1.67    0.84
 -12  -5  10    3.06    0.86
 -12   5  10    2.44    0.84
 -12  -5   9   31.73    2.86
 -12  -5   9   29.79    2.24
 -12   5   9   37.15    2.49
 -12  -5   8   63.58    4.04
 -12  -5   8   57.22    3.08
 -12   5   8   60.79    3.21
  12  -5  -7    3.59    0.80
 -12  -5   7    2.17    0.90
 -12  -5   7    2.69    0.83
 -12   5   7    2.81    0.78
  12  -5  -6   28.62    2.11
 -12  -5   6   27.04    2.66
 -12  -5   6   25.38    2.03
 -12   5   6   25.20    2.02
  12  -5  -5    1.25    0.64
 -12  -5   5    2.23    1.10
  12  -5  -4    0.15    0.56
 -12  -5   4    0.23    0.79
  12  -5  -3   18.56    1.85
  12  -5  -2    9.59    1.43
 -12  -5   2    8.66    1.08
 -12  -5   2    9.23    1.70
  12  -5  -1    9.71    1.45
 -12  -5   1   10.74    1.79
 -12  -5   1   11.49    1.26
  12  -5   0    9.11    1.44
 -12  -5   0    8.48    1.64
 -12  -5   0    9.55    1.17
  12  -5   1    0.56    0.68
 -12  -5  -1    0.94    0.49
 -12  -5  -1    0.71    0.90
 -12  -5  -2   10.92    1.33
  12  -5   2   14.65    1.94
 -12  -5  -2   16.10    2.27
  12  -5   3   14.67    1.94
 -12  -5  -3   16.63    1.62
 -12  -5  -3   15.30    2.21
 -12  -5  -4    9.22    1.69
 -12  -6  14    2.43    1.00
 -12  -6  13   21.10    2.36
 -12   6  13   22.38    2.06
 -12  -6  12    0.63    0.82
 -12  -6  12   -0.71    0.82
 -12   6  12    1.02    0.69
 -12  -6  11    3.20    1.16
 -12  -6  11    2.21    0.76
 -12   6  11    2.13    0.83
 -12  -6  10    3.47    1.18
 -12  -6  10    2.72    0.79
 -12   6  10    3.66    0.94
 -12  -6   9   35.81    3.06
 -12  -6   9   33.95    2.32
 -12   6   9   35.61    2.42
 -12  -6   8   45.80    3.49
 -12  -6   8   43.80    2.68
 -12   6   8   43.94    2.75
  12  -6  -7    6.48    1.11
 -12  -6   7    4.95    1.31
 -12  -6   7    3.94    0.91
 -12   6   7    3.42    0.90
  12  -6  -6   38.58    2.53
 -12  -6   6   42.37    3.38
 -12  -6   6   37.02    2.47
 -12   6   6   38.32    2.51
  12  -6  -5    8.63    1.28
 -12  -6   5   11.29    1.84
 -12  -6   5    8.62    1.22
 -12   6   5    8.49    1.22
  12  -6  -4    4.25    1.03
 -12  -6   4    3.73    1.18
  12  -6  -3    1.91    0.79
  12  -6  -2    1.17    0.76
 -12  -6   2    0.74    0.60
 -12  -6   2    0.24    0.90
  12  -6  -1  104.75    4.80
 -12  -6   1  112.58    5.72
 -12  -6   1  103.06    4.16
  12  -6   0   57.47    3.55
 -12  -6   0   54.66    3.99
 -12  -6   0   55.72    3.00
  12  -6   1    0.38    0.67
 -12  -6  -1    1.99    0.75
 -12  -6  -2    0.14    0.55
 -12  -6  -3   12.50    1.53
 -12  -6  -4    9.56    1.43
 -12  -6  -5   30.52    2.40
 -12   7  12    1.00    0.77
 -12   7  11    0.14    0.56
 -12   7  10    0.27    0.54
 -12   7   9    0.27    0.50
 -12   7   8    1.84    0.67
 -12   7   7   37.75    2.47
 -12   7   6    1.96    0.76
  12  -7  -6    2.14    0.76
 -12   7   5   23.77    1.95
  12  -7  -5   18.64    1.87
 -12   7   4   56.62    3.00
  12  -7  -4   64.04    3.49
  12  -7  -3   80.35    4.02
  12  -7  -2   21.67    2.11
 -12  -7   2   18.70    1.81
 -12  -7   1    3.97    0.96
 -12  -7   0    7.83    1.25
 -12  -7  -1   21.56    2.02
 -12  -7  -2    3.94    0.96
 -12  -7  -3    8.59    1.35
 -12  -8   1   22.46    2.13
 -13   0  13    1.68    0.76
 -13   0  12    0.49    0.55
 -13   0  11   -0.49    0.64
 -13   0  10   -0.16    0.54
 -13   0  10   -0.16    0.61
 -13   0   9   48.84    3.04
 -13   0   9   55.80    3.29
 -13   0   8    0.15    0.47
 -13   0   8    1.52    0.80
 -13   0   7    5.66    1.13
 -13   0   6    0.17    0.65
  13   0  -5   -0.12    0.43
 -13   0   5   -0.18    0.50
  13   0  -4    0.13    0.48
 -13   0   4   -0.18    0.65
  13   0  -3    4.39    0.93
  13   0  -2    0.29    0.53
 -13   0   2    0.18    0.61
  13   0  -1  185.42    6.39
 -13   0   1  194.90    6.98
  13   0   0    0.96    0.65
 -13   0   0    0.19    0.71
  13   0   1   14.97    1.77
 -13   0  -1   15.98    1.91
  13   0   2   -0.35    0.75
 -13   0  -2   -0.19    0.67
  13   0   3   17.76    2.00
  13   0   4   -0.38    0.84
 -13  -1  13   21.74    2.10
 -13  -1  13   27.72    2.23
 -13  -1  12    0.16    0.52
 -13  -1  12    1.52    0.75
 -13  -1  11    1.14    0.70
 -13  -1  11    0.63    0.62
 -13  -1  10   66.90    3.66
 -13  -1  10   78.40    3.87
 -13  -1   9    1.01    0.59
 -13  -1   9    1.57    0.65
 -13  -1   8   11.14    1.55
 -13  -1   8    9.29    1.34
  13  -1  -7   14.80    1.35
 -13  -1   7   16.25    1.89
  13  -1  -6   36.45    2.21
 -13  -1   6   42.05    2.95
  13  -1  -5    0.12    0.43
 -13  -1   5    0.91    0.66
  13  -1  -4    6.46    1.04
 -13  -1   4    6.61    1.32
  13  -1  -3   40.91    2.57
  13  -1  -2    6.83    1.16
 -13  -1   2    7.69    1.40
  13  -1  -1   55.05    3.16
 -13  -1   1   59.98    3.65
  13  -1   0   -0.16    0.55
 -13  -1   0    0.19    0.54
  13  -1   1    0.50    0.65
 -13  -1  -1    0.38    0.67
  13  -1   2   34.87    2.68
 -13  -1  -2   36.70    2.89
  13  -1   3    4.86    1.21
 -13  -1  -3    7.79    1.43
  13  -1   4   25.04    2.36
 -13  -1  -4   20.71    2.21
 -13  -1  -5   66.94    3.91
 -13  -1  -6    0.94    0.83
 -13  -2  15    0.28    0.55
 -13  -2  14   13.80    1.64
 -13  -2  13    2.32    0.86
 -13  -2  13    4.32    1.02
 -13   2  13    4.73    1.11
 -13  -2  12   38.33    2.71
 -13  -2  12   31.76    2.45
 -13   2  12   31.84    2.51
 -13  -2  11    3.81    0.98
 -13  -2  11    3.85    0.95
 -13   2  11    3.93    1.05
 -13  -2  10    3.58    0.97
 -13  -2  10    3.01    0.86
 -13   2  10    3.90    0.97
 -13  -2   9    2.81    0.89
 -13  -2   9    2.63    0.86
 -13   2   9    3.01    0.89
 -13  -2   8    0.36    0.55
 -13  -2   8    0.46    0.51
 -13   2   8    0.62    0.63
  13  -2  -7   19.70    1.56
 -13  -2   7   20.35    2.13
  13  -2  -6   58.81    2.83
 -13  -2   6   52.75    3.49
  13  -2  -5   61.91    3.04
 -13  -2   5   62.75    3.77
  13  -2  -4   51.08    2.83
 -13  -2   4   56.36    3.60
  13  -2  -3    4.82    0.99
  13  -2  -2   28.88    2.22
 -13  -2   2   29.47    2.63
  13  -2  -1    2.00    0.75
 -13  -2   1    1.58    0.87
  13  -2   0   10.66    1.51
 -13  -2   0   11.85    1.75
  13  -2   1    5.58    1.15
 -13  -2  -1    5.90    1.29
  13  -2   2   34.40    2.69
 -13  -2  -2   38.07    2.99
  13  -2   3    1.10    0.76
 -13  -2  -3    0.78    0.74
  13  -2   4    0.19    0.64
 -13  -2  -4    0.58    0.65
 -13  -2  -5   16.32    2.00
 -13  -3  15   39.02    2.69
 -13  -3  14    9.60    1.42
 -13  -3  13    0.33    0.65
 -13  -3  12   11.91    1.63
 -13  -3  12   12.27    1.59
 -13   3  12   13.41    1.68
 -13  -3  11   62.90    3.70
 -13  -3  11   65.66    3.54
 -13   3  11   69.20    3.66
 -13  -3  10    1.12    0.73
 -13  -3  10    0.63    0.60
 -13   3  10    1.80    0.74
 -13  -3   9    9.21    1.51
 -13  -3   9   10.85    1.43
 -13   3   9   10.59    1.46
 -13  -3   8    0.78    0.69
 -13  -3   8   -0.15    0.55
 -13   3   8    0.16    0.64
  13  -3  -7  199.83    5.91
 -13  -3   7  203.99    7.44
 -13  -3   7  194.33    6.46
 -13   3   7  202.52    6.66
  13  -3  -6   14.16    1.45
 -13  -3   6   12.26    1.80
  13  -3  -5    1.82    0.64
 -13  -3   5    2.69    1.03
  13  -3  -4    0.55    0.52
 -13  -3   4    0.21    0.70
  13  -3  -3   19.17    1.87
  13  -3  -2   79.65    3.91
 -13  -3   2   84.04    4.66
  13  -3  -1  120.11    5.04
 -13  -3   1  127.99    5.79
  13  -3   0    8.17    1.37
 -13  -3   0    8.10    1.53
  13  -3   1  198.01    7.01
 -13  -3  -1  203.57    7.65
  13  -3   2    7.45    1.41
 -13  -3  -2    7.39    1.48
  13  -3   3   16.84    2.02
 -13  -3  -3   14.68    1.99
 -13  -3  -4   11.94    1.76
 -13  -4  15    0.83    0.82
 -13  -4  14    5.06    1.19
 -13  -4  13    0.18    0.67
 -13  -4  12   68.33    3.96
 -13  -4  12   63.25    3.50
 -13   4  12   62.47    3.53
 -13  -4  11   32.54    2.83
 -13  -4  11   39.92    2.70
 -13   4  11   34.94    2.60
 -13  -4  10    6.37    1.36
 -13  -4  10    4.01    0.96
 -13   4  10    4.00    0.98
 -13  -4   9    0.85    0.77
 -13  -4   9    0.30    0.55
 -13   4   9    0.63    0.62
 -13  -4   8    0.22    0.90
 -13   4   8   -0.16    0.63
 -13  -4   8    0.45    0.60
 -13  -4   7   18.62    2.24
 -13  -4   7   19.58    1.89
 -13   4   7   21.55    2.00
  13  -4  -6  181.45    5.90
 -13  -4   6  177.94    7.25
  13  -4  -5    0.99    0.64
 -13  -4   5    0.68    0.95
  13  -4  -4    8.68    1.31
 -13  -4   4    9.45    1.69
  13  -4  -3    1.42    0.66
  13  -4  -2    8.95    1.44
 -13  -4   2    9.74    1.74
  13  -4  -1    2.09    0.90
 -13  -4   1    3.03    1.08
  13  -4   0   52.19    3.36
 -13  -4   0   64.00    4.19
  13  -4   1   67.01    3.91
 -13  -4  -1   70.85    4.42
  13  -4   2   34.61    2.85
 -13  -4  -2   37.83    3.20
 -13  -5  14   30.23    2.71
 -13  -5  13    0.41    0.71
 -13  -5  12   -0.21    0.86
 -13  -5  11   50.32    3.63
 -13  -5  11   47.08    2.91
 -13   5  11   50.98    3.12
 -13  -5  10    6.33    1.53
 -13  -5  10    5.70    1.10
 -13   5  10    5.45    1.07
 -13  -5   9    9.46    1.77
 -13  -5   9    9.62   58.14
 -13   5   9    8.43    1.36
 -13  -5   8   43.76    3.47
 -13   5   8   33.83    2.51
 -13  -5   8   33.98   37.71
 -13  -5   7   -0.24    0.90
 -13  -5   7    0.29    0.57
 -13   5   7    0.15    0.55
  13  -5  -6   41.25    2.70
 -13  -5   6   40.61    3.40
 -13  -5   6   41.19    2.65
 -13   5   6   43.57    2.77
  13  -5  -5    6.27    1.16
 -13  -5   5    7.06    1.56
  13  -5  -4    6.61    1.19
  13  -5  -3    8.12    1.34
  13  -5  -2   10.64    1.60
 -13  -5   2    7.30    1.63
  13  -5  -1   87.47    4.47
  13  -5   0   50.98    3.42
 -13  -6  10    9.57    1.33
 -13   6  10    6.47    1.18
 -13  -6   9   40.53    2.63
 -13   6   9   39.29    2.69
 -13  -6   8    8.15    1.28
 -13   6   8    8.34    1.28
 -13  -6   7    0.56    0.62
 -13   6   7   -0.15    0.65
  13  -6  -6   86.00    4.03
 -13  -6   6   76.83    3.76
 -13   6   6   82.21    3.93
  13  -6  -5   17.34    1.83
 -13  -6   5   13.94    1.58
 -13   6   5   14.49    1.62
  13  -6  -4    3.37    1.01
  13  -6  -3   21.64    2.19
  13  -6  -2   17.08    1.97
 -13   7   9    4.01    0.95
 -13   7   8   16.66    1.74
 -13   7   7    4.49    0.99
 -13   7   6    1.55    0.75
  13  -7  -5   47.98    3.13
 -13   7   5   51.85    2.99
 -13   7   4    1.38    0.74
 -14   0  10   69.55    3.79
 -14   0   9    0.17    0.62
 -14   0   8   24.81    2.19
 -14   0   8   23.40    2.25
 -14   0   7   -0.18    0.59
 -14   0   6   35.95    2.82
 -14   0   5   -0.38    0.74
 -14   0   4   78.95    4.28
  14   0  -3    1.15    0.62
  14   0  -2   28.72    2.31
 -14   0   2   28.46    2.58
  14   0  -1    0.16    0.56
 -14   0   1    0.59    0.63
  14   0   0  399.72   10.97
 -14   0   0  436.72   11.84
  14   0   1    0.70    0.73
  14   0   2  128.70    5.53
 -14  -1  13   27.59    2.30
 -14  -1  12   59.48    3.47
 -14  -1  11   37.23    2.73
 -14  -1  10   14.26    1.74
 -14  -1  10   14.15    1.74
 -14  -1   9    1.34    0.81
 -14  -1   9    1.07    0.72
 -14  -1   8    0.98    0.62
 -14  -1   8    1.09    0.78
 -14  -1   7    1.68    0.76
  14  -1  -6   36.72    2.30
 -14  -1   6   45.73    3.19
  14  -1  -5  215.89    6.52
 -14  -1   5  215.24    7.59
  14  -1  -4   13.71    1.52
 -14  -1   4   10.72    1.65
  14  -1  -3   94.48    4.18
  14  -1  -2    8.04    1.26
 -14  -1   2    7.17    1.47
  14  -1  -1    0.64    0.64
 -14  -1   1    1.00    0.78
  14  -1   0   16.70    1.87
 -14  -1   0   13.37    1.83
  14  -1   1  104.46    4.80
 -14  -1  -1  112.73    5.29
  14  -1   2   10.93    1.56
 -14  -2  15   63.97    3.49
 -14  -2  14   15.36    1.75
 -14  -2  13    3.62    0.94
 -14  -2  12    0.51    0.67
 -14  -2  11   33.27    2.66
 -14  -2  10   65.09    3.72
 -14  -2  10   56.54    3.41
 -14   2  10   61.36    3.58
 -14  -2   9   28.62    2.52
 -14  -2   9   29.32    2.42
 -14   2   9   33.38    2.61
 -14  -2   8   43.93    3.16
 -14  -2   8   45.96    2.98
 -14   2   8   42.50    2.91
 -14  -2   7  103.53    4.98
  14  -2  -6   16.49    1.56
 -14  -2   6   15.66    2.01
  14  -2  -5    8.61    1.20
 -14  -2   5    8.34    1.51
  14  -2  -4    1.92    0.71
 -14  -2   4    1.61    0.81
  14  -2  -3   30.31    2.30
  14  -2  -2    9.33    1.37
 -14  -2   2   13.68    1.85
  14  -2  -1    1.13    0.74
 -14  -2   1    0.62    0.66
  14  -2   0   11.12    1.56
 -14  -2   0   15.86    2.04
  14  -2   1   80.83    4.19
 -14  -3  14   51.24    3.24
 -14  -3  13    2.42    0.93
 -14  -3  12   13.83    1.76
 -14  -3  11    1.50    0.87
 -14  -3  10    5.46    1.35
 -14  -3   9   22.46    2.36
 -14  -3   9   20.86    2.02
 -14   3   9   18.44    1.98
 -14  -3   8   14.76    1.96
 -14  -3   8   14.27    1.74
 -14   3   8   16.02    1.84
 -14  -3   7    1.46    0.85
 -14  -3   7    0.78    0.61
 -14   3   7    0.33    0.66
  14  -3  -6   14.26    1.50
 -14  -3   6   14.45    1.97
  14  -3  -5    8.80    1.26
 -14  -3   5    8.83    1.66
  14  -3  -4   13.31    1.54
 -14  -3   4   11.76    1.80
  14  -3  -3    0.46    0.51
  14  -3  -2   48.21    3.09
 -14  -3   2   56.80    3.79
  14  -3  -1   45.67    3.04
  14  -3   0   49.02    3.25
 -14  -4   8    0.64    0.68
 -14   4   8    0.50    0.67
 -14  -4   7    6.09    1.21
 -14   4   7    6.50    1.22
  14  -4  -5   67.34    3.49
  14  -4  -4   67.12    3.55
  14  -4  -3    8.17    1.39
  14  -4  -2   33.81   41.10
  14  -4  -1    0.90    0.72
 -14   5   7   25.76    2.26
 -14  -5   6   41.43    2.75
 -14   5   6   46.49    2.97
  14  -5  -5   58.73    3.39
  14  -5  -4   42.39    2.93
  14  -5  -3    0.18    0.76
  14  -5  -2    4.45    1.16
  15   0  -1    1.33    0.79
  15  -1  -5   46.30    2.78
  15  -1  -4   70.36    3.54
  15  -1  -3    0.45    0.65
  15  -1  -2    3.20    0.89
  15  -1  -1    3.19    0.91
  15  -2  -4   99.54    4.27
  15  -2  -3    7.16    1.30
  15  -2  -2   23.00    2.13
  15  -2  -1    3.21    0.94
  15  -3  -4    0.60    0.66
  15  -3  -3   97.43    4.43
  15  -3  -2    5.19    1.14
  15  -4  -4  122.20    5.07
   0   0   0    0.00    0.00
;
_shelx_hkl_checksum              61004
loop_
_space_group_symop_operation_xyz
'x, y, z'
'-x+1/2, y+1/2, -z+1/2'
'-x, -y, -z'
'x-1/2, -y-1/2, z-1/2'
loop_
_atom_site_label
_atom_site_type_symbol
_atom_site_fract_x
_atom_site_fract_y
_atom_site_fract_z
_atom_site_U_iso_or_equiv
_atom_site_adp_type
_atom_site_occupancy
_atom_site_site_symmetry_order
_atom_site_calc_flag
_atom_site_refinement_flags_posn
_atom_site_refinement_flags_adp
_atom_site_refinement_flags_occupancy
_atom_site_disorder_assembly
_atom_site_disorder_group
Cs1 Cs 0.23623(2) 0.86225(3) 0.00252(2) 0.03304(7) Uani 1 1 d . . . . .
Sb1 Sb 0.62202(2) 0.94305(3) 0.22533(2) 0.01959(7) Uani 1 1 d . . . . .
Sb2 Sb 0.61539(2) 0.57170(3) 0.11601(2) 0.01821(6) Uani 1 1 d . . . . .
Sb3 Sb 0.38637(2) 0.61047(3) 0.25450(2) 0.01755(6) Uani 1 1 d . . . . .
Sb4 Sb 0.40222(2) 1.23433(3) 0.14481(2) 0.01921(7) Uani 1 1 d . . . . .
Sb5 Sb 0.39356(2) 0.95533(3) 0.40119(2) 0.02072(7) Uani 1 1 d . . . . .
S1 S 0.41417(8) 0.95101(9) 0.22029(5) 0.01897(18) Uani 1 1 d . . . . .
S2 S 0.11417(9) 0.83569(10) 0.21334(6) 0.0256(2) Uani 1 1 d . . . . .
S3 S 0.40609(7) 0.50861(10) 0.07166(5) 0.01777(18) Uani 1 1 d . . . . .
S4 S 0.59430(9) 0.84186(10) 0.07508(5) 0.0257(2) Uani 1 1 d . . . . .
S5 S 0.89930(7) 1.12368(9) 0.22774(5) 0.01793(18) Uani 1 1 d . . . . .
S6 S 0.61403(8) 1.21752(10) 0.17192(6) 0.0238(2) Uani 1 1 d . . . . .
S7 S 0.59906(8) 1.02196(11) 0.43552(6) 0.0265(2) Uani 1 1 d . . . . .
S8 S 0.41111(8) 0.67628(10) 0.41161(6) 0.0242(2) Uani 1 1 d . . . . .
loop_
_atom_site_aniso_label
_atom_site_aniso_U_11
_atom_site_aniso_U_22
_atom_site_aniso_U_33
_atom_site_aniso_U_23
_atom_site_aniso_U_13
_atom_site_aniso_U_12
Cs1 0.03556(15) 0.03507(16) 0.02700(13) -0.00320(9) 0.00515(11) -0.00363(11)
Sb1 0.01689(13) 0.02041(14) 0.02007(12) -0.00279(9) 0.00213(10) -0.00216(10)
Sb2 0.01540(13) 0.01821(13) 0.02129(12) 0.00073(9) 0.00513(10) 0.00097(9)
Sb3 0.01599(13) 0.01670(13) 0.02053(12) -0.00336(9) 0.00569(10) -0.00091(9)
Sb4 0.01545(13) 0.01838(13) 0.02383(12) -0.00270(9) 0.00504(10) -0.00174(10)
Sb5 0.01580(13) 0.02425(14) 0.02128(12) -0.00592(9) 0.00318(10) 0.00191(10)
S1 0.0182(5) 0.0179(5) 0.0214(4) -0.0004(3) 0.0060(4) -0.0016(4)
S2 0.0368(6) 0.0169(5) 0.0281(5) 0.0000(4) 0.0174(4) 0.0001(4)
S3 0.0157(4) 0.0192(5) 0.0181(4) 0.0009(3) 0.0037(3) -0.0009(3)
S4 0.0401(6) 0.0186(5) 0.0198(4) 0.0002(3) 0.0099(4) -0.0029(4)
S5 0.0151(4) 0.0226(5) 0.0158(4) 0.0004(3) 0.0034(3) 0.0014(4)
S6 0.0168(5) 0.0162(5) 0.0405(5) 0.0012(4) 0.0111(4) -0.0010(4)
S7 0.0213(5) 0.0391(6) 0.0209(4) -0.0072(4) 0.0087(4) -0.0082(4)
S8 0.0301(5) 0.0235(5) 0.0216(4) -0.0030(3) 0.0114(4) -0.0038(4)
loop_
_atom_type_symbol
_atom_type_description
_atom_type_scat_dispersion_real
_atom_type_scat_dispersion_imag
_atom_type_scat_source
S S 0.1246 0.1234 'International Tables Vol C Tables 4.2.6.8 and 6.1.1.4'
Sb Sb -0.5866 1.5461 'International Tables Vol C Tables 4.2.6.8 and 6.1.1.4'
Cs Cs -0.3680 2.1192 'International Tables Vol C Tables 4.2.6.8 and 6.1.1.4'
loop_
_geom_angle_atom_site_label_1
_geom_angle_atom_site_label_2
_geom_angle_atom_site_label_3
_geom_angle
_geom_angle_site_symmetry_1
_geom_angle_site_symmetry_3
_geom_angle_publ_flag
S5 Cs1 S1 162.79(2) 3_675 . ?
S5 Cs1 S4 77.11(2) 3_675 3_675 ?
S1 Cs1 S4 86.01(2) . 3_675 ?
S5 Cs1 S6 54.817(19) 3_675 3_675 ?
S1 Cs1 S6 118.56(2) . 3_675 ?
S4 Cs1 S6 59.165(19) 3_675 3_675 ?
S5 Cs1 S8 102.46(2) 3_675 2 ?
S1 Cs1 S8 72.68(2) . 2 ?
S4 Cs1 S8 86.06(2) 3_675 2 ?
S6 Cs1 S8 140.45(2) 3_675 2 ?
S5 Cs1 S3 113.217(19) 3_675 . ?
S1 Cs1 S3 76.502(19) . . ?
S4 Cs1 S3 113.55(2) 3_675 . ?
S6 Cs1 S3 74.696(19) 3_675 . ?
S8 Cs1 S3 142.019(19) 2 . ?
S5 Cs1 S8 57.705(18) 3_675 4_575 ?
S1 Cs1 S8 132.112(19) . 4_575 ?
S4 Cs1 S8 121.57(2) 3_675 4_575 ?
S6 Cs1 S8 109.31(2) 3_675 4_575 ?
S8 Cs1 S8 71.45(2) 2 4_575 ?
S3 Cs1 S8 117.11(2) . 4_575 ?
S5 Cs1 S7 72.551(19) 3_675 4_575 ?
S1 Cs1 S7 124.06(2) . 4_575 ?
S4 Cs1 S7 140.489(18) 3_675 4_575 ?
S6 Cs1 S7 82.556(19) 3_675 4_575 ?
S8 Cs1 S7 124.61(2) 2 4_575 ?
S3 Cs1 S7 59.18(2) . 4_575 ?
S8 Cs1 S7 59.41(2) 4_575 4_575 ?
S5 Cs1 S2 133.90(2) 3_675 . ?
S1 Cs1 S2 57.35(2) . . ?
S4 Cs1 S2 131.693(19) 3_675 . ?
S6 Cs1 S2 163.79(2) 3_675 . ?
S8 Cs1 S2 55.500(19) 2 . ?
S3 Cs1 S2 89.178(18) . . ?
S8 Cs1 S2 76.315(19) 4_575 . ?
S7 Cs1 S2 87.813(19) 4_575 . ?
S5 Cs1 S4 116.660(18) 3_675 . ?
S1 Cs1 S4 55.738(18) . . ?
S4 Cs1 S4 61.15(2) 3_675 . ?
S6 Cs1 S4 63.080(19) 3_675 . ?
S8 Cs1 S4 118.39(2) 2 . ?
S3 Cs1 S4 56.050(19) . . ?
S8 Cs1 S4 170.146(19) 4_575 . ?
S7 Cs1 S4 111.971(19) 4_575 . ?
S2 Cs1 S4 109.31(2) . . ?
S5 Cs1 Sb4 123.018(15) 3_675 . ?
S1 Cs1 Sb4 40.698(14) . . ?
S4 Cs1 Sb4 53.153(14) 3_675 . ?
S6 Cs1 Sb4 107.763(15) 3_675 . ?
S8 Cs1 Sb4 53.931(16) 2 . ?
S3 Cs1 Sb4 111.204(15) . . ?
S8 Cs1 Sb4 124.761(15) 4_575 . ?
S7 Cs1 Sb4 164.278(14) 4_575 . ?
S2 Cs1 Sb4 79.298(14) . . ?
S4 Cs1 Sb4 64.891(13) . . ?
S5 Cs1 Sb5 106.202(15) 3_675 2_545 ?
S1 Cs1 Sb5 91.003(14) . 2_545 ?
S4 Cs1 Sb5 167.333(17) 3_675 2_545 ?
S6 Cs1 Sb5 112.305(15) 3_675 2_545 ?
S8 Cs1 Sb5 104.816(15) 2 2_545 ?
S3 Cs1 Sb5 53.809(13) . 2_545 ?
S8 Cs1 Sb5 69.045(14) 4_575 2_545 ?
S7 Cs1 Sb5 36.009(13) 4_575 2_545 ?
S2 Cs1 Sb5 54.532(13) . 2_545 ?
S4 Cs1 Sb5 107.168(14) . 2_545 ?
Sb4 Cs1 Sb5 128.616(7) . 2_545 ?
S1 Sb1 S4 95.29(3) . . ?
S1 Sb1 S6 90.52(3) . . ?
S4 Sb1 S6 92.45(3) . . ?
S3 Sb2 S4 96.83(3) . . ?
S3 Sb2 S5 90.45(3) . 2_645 ?
S4 Sb2 S5 92.93(3) . 2_645 ?
S5 Sb3 S2 94.51(3) 2_645 2_545 ?
S5 Sb3 S8 91.01(3) 2_645 . ?
S2 Sb3 S8 91.78(3) 2_545 . ?
S5 Sb3 Cs1 103.71(2) 2_645 . ?
S2 Sb3 Cs1 130.02(2) 2_545 . ?
S8 Sb3 Cs1 133.08(2) . . ?
S6 Sb4 S2 100.12(3) . 2 ?
S6 Sb4 S3 90.15(3) . 1_565 ?
S2 Sb4 S3 94.31(3) 2 1_565 ?
S6 Sb4 S1 86.02(3) . . ?
S2 Sb4 S1 86.89(3) 2 . ?
S3 Sb4 S1 176.13(3) 1_565 . ?
S6 Sb4 Cs1 111.45(2) . . ?
S2 Sb4 Cs1 129.90(2) 2 . ?
S3 Sb4 Cs1 122.409(19) 1_565 . ?
S1 Sb4 Cs1 58.860(18) . . ?
S7 Sb5 S8 99.60(3) . . ?
S7 Sb5 S7 88.76(3) . 3_676 ?
S8 Sb5 S7 91.74(3) . 3_676 ?
S7 Sb5 S1 84.04(3) . . ?
S8 Sb5 S1 91.47(3) . . ?
S7 Sb5 S1 172.52(3) 3_676 . ?
S7 Sb5 Cs1 98.05(2) . 2 ?
S8 Sb5 Cs1 146.60(2) . 2 ?
S7 Sb5 Cs1 60.50(2) 3_676 2 ?
S1 Sb5 Cs1 118.469(18) . 2 ?
Sb1 S1 Sb4 88.92(3) . . ?
Sb1 S1 Sb5 107.48(3) . . ?
Sb4 S1 Sb5 113.64(3) . . ?
Sb1 S1 Cs1 111.04(3) . . ?
Sb4 S1 Cs1 80.44(2) . . ?
Sb5 S1 Cs1 139.17(3) . . ?
Sb4 S2 Sb3 99.54(3) 2_545 2 ?
Sb4 S2 Cs1 156.29(3) 2_545 . ?
Sb3 S2 Cs1 97.71(2) 2 . ?
Sb2 S3 Sb4 102.01(3) . 1_545 ?
Sb2 S3 Cs1 108.55(3) . . ?
Sb4 S3 Cs1 144.77(3) 1_545 . ?
Sb2 S4 Sb1 96.85(3) . . ?
Sb2 S4 Cs1 138.36(3) . 3_675 ?
Sb1 S4 Cs1 96.33(3) . 3_675 ?
Sb2 S4 Cs1 98.29(3) . . ?
Sb1 S4 Cs1 97.39(3) . . ?
Cs1 S4 Cs1 118.85(2) 3_675 . ?
Sb3 S5 Sb2 101.46(3) 2_655 2_655 ?
Sb3 S5 Cs1 107.21(2) 2_655 3_675 ?
Sb2 S5 Cs1 149.70(3) 2_655 3_675 ?
Sb4 S6 Sb1 93.81(3) . . ?
Sb4 S6 Cs1 122.92(3) . 3_675 ?
Sb1 S6 Cs1 94.55(2) . 3_675 ?
Sb5 S7 Sb5 91.23(3) . 3_676 ?
Sb5 S7 Cs1 100.05(3) . 4_676 ?
Sb5 S7 Cs1 83.49(3) 3_676 4_676 ?
Sb5 S8 Sb3 100.37(3) . . ?
Sb5 S8 Cs1 137.03(3) . 2_545 ?
Sb3 S8 Cs1 103.95(3) . 2_545 ?
Sb5 S8 Cs1 100.13(3) . 4_676 ?
Sb3 S8 Cs1 102.14(3) . 4_676 ?
Cs1 S8 Cs1 108.55(2) 2_545 4_676 ?
loop_
_geom_bond_atom_site_label_1
_geom_bond_atom_site_label_2
_geom_bond_distance
_geom_bond_site_symmetry_2
_geom_bond_publ_flag
Cs1 S5 3.5874(8) 3_675 ?
Cs1 S1 3.6343(9) . ?
Cs1 S4 3.6897(9) 3_675 ?
Cs1 S6 3.6994(8) 3_675 ?
Cs1 S8 3.7147(9) 2 ?
Cs1 S3 3.7307(9) . ?
Cs1 S8 3.7499(10) 4_575 ?
Cs1 S7 3.8033(11) 4_575 ?
Cs1 S2 3.9578(8) . ?
Cs1 S4 4.0854(10) . ?
Cs1 Sb4 4.1873(3) . ?
Cs1 Sb5 4.3414(3) 2_545 ?
Sb1 S1 2.4308(9) . ?
Sb1 S4 2.4821(8) . ?
Sb1 S6 2.5693(9) . ?
Sb2 S3 2.4510(9) . ?
Sb2 S4 2.4767(9) . ?
Sb2 S5 2.5616(8) 2_645 ?
Sb3 S5 2.4717(8) 2_645 ?
Sb3 S2 2.4886(9) 2_545 ?
Sb3 S8 2.4957(8) . ?
Sb4 S6 2.4270(9) . ?
Sb4 S2 2.4685(8) 2 ?
Sb4 S3 2.6977(9) 1_565 ?
Sb4 S1 2.7688(8) . ?
Sb5 S7 2.4162(9) . ?
Sb5 S8 2.4843(9) . ?
Sb5 S7 2.5690(8) 3_676 ?
Sb5 S1 2.9313(8) . ?
Sb5 Cs1 4.3414(3) 2 ?
S2 Sb4 2.4685(8) 2_545 ?
S2 Sb3 2.4887(9) 2 ?
S3 Sb4 2.6978(9) 1_545 ?
S4 Cs1 3.6896(9) 3_675 ?
S5 Sb3 2.4717(8) 2_655 ?
S5 Sb2 2.5616(8) 2_655 ?
S5 Cs1 3.5874(8) 3_675 ?
S6 Cs1 3.6994(8) 3_675 ?
S7 Sb5 2.5689(8) 3_676 ?
S7 Cs1 3.8033(11) 4_676 ?
S8 Cs1 3.7148(9) 2_545 ?
S8 Cs1 3.7499(10) 4_676 ?
