#------------------------------------------------------------------------------
#$Date: 2019-11-22 22:13:08 +0200 (Fri, 22 Nov 2019) $
#$Revision: 231397 $
#$URL: file:///home/coder/svn-repositories/cod/cif/4/00/31/4003156.cif $
#------------------------------------------------------------------------------
#
# This file is available in the Crystallography Open Database (COD),
# http://www.crystallography.net/
#
# All data on this site have been placed in the public domain by the
# contributors.
#
data_4003156
loop_
_publ_author_name
'Srivastava, Anant Kumar'
'Divya, Pillutla'
'Praveenkumar, B.'
'Boomishankar, Ramamoorthy'
_publ_section_title
;
 Potentially Ferroelectric {CuIIL2}n Based Two-Dimensional Framework
 Exhibiting High Polarization and Guest-Assisted Dielectric Anomaly
;
_journal_issue                   15
_journal_name_full               'Chemistry of Materials'
_journal_page_first              5222
_journal_paper_doi               10.1021/acs.chemmater.5b01267
_journal_volume                  27
_journal_year                    2015
_chemical_formula_sum            'C16 H15 N4 O P'
_chemical_formula_weight         310.29
_space_group_crystal_system      triclinic
_space_group_IT_number           2
_space_group_name_Hall           '-P 1'
_space_group_name_H-M_alt        'P -1'
_atom_sites_solution_hydrogens   geom
_audit_creation_method           SHELXL-2014
_cell_angle_alpha                80.921(7)
_cell_angle_beta                 80.814(7)
_cell_angle_gamma                89.836(8)
_cell_formula_units_Z            2
_cell_length_a                   8.433(3)
_cell_length_b                   9.174(4)
_cell_length_c                   10.074(4)
_cell_measurement_reflns_used    6115
_cell_measurement_temperature    100(2)
_cell_measurement_theta_max      28.58
_cell_measurement_theta_min      2.45
_cell_volume                     759.5(5)
_computing_cell_refinement       'Bruker SAINT'
_computing_data_collection       'Bruker APEX2'
_computing_data_reduction        'Bruker SAINT'
_computing_molecular_graphics    'Bruker SHELXTL'
_computing_publication_material  'Bruker SHELXTL'
_computing_structure_refinement  'SHELXL-2014 (Sheldrick, 2014)'
_computing_structure_solution    'SHELXS-97 (Sheldrick, 2008)'
_diffrn_ambient_temperature      100(2)
_diffrn_measured_fraction_theta_full 1.000
_diffrn_measured_fraction_theta_max 0.990
_diffrn_measurement_device_type  'Bruker APEX-II CCD'
_diffrn_measurement_method       'Omega and phi scans'
_diffrn_radiation_type           MoK\a
_diffrn_radiation_wavelength     0.71073
_diffrn_reflns_av_R_equivalents  0.0284
_diffrn_reflns_av_unetI/netI     0.0336
_diffrn_reflns_Laue_measured_fraction_full 1.000
_diffrn_reflns_Laue_measured_fraction_max 0.990
_diffrn_reflns_limit_h_max       11
_diffrn_reflns_limit_h_min       -8
_diffrn_reflns_limit_k_max       12
_diffrn_reflns_limit_k_min       -11
_diffrn_reflns_limit_l_max       13
_diffrn_reflns_limit_l_min       -13
_diffrn_reflns_number            10566
_diffrn_reflns_point_group_measured_fraction_full 1.000
_diffrn_reflns_point_group_measured_fraction_max 0.990
_diffrn_reflns_theta_full        25.242
_diffrn_reflns_theta_max         28.611
_diffrn_reflns_theta_min         2.074
_diffrn_source                   'fine-focus sealed tube'
_exptl_absorpt_coefficient_mu    0.188
_exptl_absorpt_correction_T_max  0.7457
_exptl_absorpt_correction_T_min  0.5953
_exptl_absorpt_correction_type   multi-scan
_exptl_absorpt_process_details   SADABS
_exptl_crystal_colour            colourless
_exptl_crystal_density_diffrn    1.357
_exptl_crystal_density_method    'not measured'
_exptl_crystal_description       block
_exptl_crystal_F_000             324
_exptl_crystal_size_max          0.24
_exptl_crystal_size_mid          0.18
_exptl_crystal_size_min          0.17
_refine_diff_density_max         0.357
_refine_diff_density_min         -0.492
_refine_diff_density_rms         0.070
_refine_ls_extinction_method     none
_refine_ls_goodness_of_fit_ref   1.058
_refine_ls_hydrogen_treatment    constr
_refine_ls_matrix_type           full
_refine_ls_number_parameters     199
_refine_ls_number_reflns         3862
_refine_ls_number_restraints     0
_refine_ls_restrained_S_all      1.058
_refine_ls_R_factor_all          0.0426
_refine_ls_R_factor_gt           0.0383
_refine_ls_shift/su_max          0.000
_refine_ls_shift/su_mean         0.000
_refine_ls_structure_factor_coef Fsqd
_refine_ls_weighting_details
'w=1/[\s^2^(Fo^2^)+(0.0577P)^2^+0.2231P] where P=(Fo^2^+2Fc^2^)/3'
_refine_ls_weighting_scheme      calc
_refine_ls_wR_factor_gt          0.1037
_refine_ls_wR_factor_ref         0.1072
_reflns_Friedel_coverage         0.000
_reflns_number_gt                3429
_reflns_number_total             3862
_reflns_threshold_expression     'I > 2\s(I)'
_cod_data_source_file            Compound_L2.cif
_cod_data_source_block           Compound_L2
_cod_original_cell_volume        759.6(5)
_cod_database_code               4003156
_shelx_space_group_comment
;
The symmetry employed for this shelxl refinement is uniquely defined
by the following loop, which should always be used as a source of
symmetry information in preference to the above space-group names.
They are only intended as comments.
;
_shelxl_version_number           2014-3
_shelx_res_file
;
TITL Trial1 in P-1
CELL  0.71073   8.4335   9.1741  10.0744   80.921   80.814   89.836
ZERR    2.00   0.00320   0.00350   0.00390   0.0073   0.0074   0.0077
LATT 1
SFAC C  H  N  O  P
UNIT 32  30  8  2  2
L.S. 96
ACTA
BOND
EQIV $1 -x+2, -y+1, -z
EQIV $2 -x+2, -y+1, -z+1
HTAB N1 O1_$1
HTAB N2 N22_$2
FMAP 2
PLAN 5
TEMP -173.00
WGHT    0.057700    0.223100
FVAR       1.00940
P1    5    0.846323    0.433992    0.208870    11.00000    0.01744    0.01655 =
         0.01428   -0.00196   -0.00116    0.00101
O1    4    0.938712    0.337180    0.121091    11.00000    0.02636    0.02034 =
         0.01963   -0.00357    0.00280    0.00391
N1    3    0.884706    0.608730    0.138723    11.00000    0.02246    0.01738 =
         0.01719   -0.00153    0.00065    0.00030
AFIX  43
H1    2    0.970067    0.625590    0.075162    11.00000   -1.20000
AFIX   0
C11   1    0.797478    0.732427    0.168630    11.00000    0.02105    0.01759 =
         0.01854   -0.00431   -0.00527   -0.00037
N12   3    0.693881    0.716275    0.284371    11.00000    0.03071    0.02180 =
         0.02215   -0.00276    0.00074    0.00250
C13   1    0.606867    0.834619    0.309950    11.00000    0.03537    0.02745 =
         0.03154   -0.00777    0.00417    0.00507
AFIX  43
H13   2    0.530318    0.824422    0.391165    11.00000   -1.20000
AFIX   0
C14   1    0.621123    0.969294    0.226628    11.00000    0.03765    0.02302 =
         0.04204   -0.00912   -0.00249    0.00756
AFIX  43
H14   2    0.555959    1.049266    0.249211    11.00000   -1.20000
AFIX   0
C15   1    0.733849    0.984892    0.108268    11.00000    0.04231    0.01833 =
         0.03563    0.00078   -0.00460    0.00227
AFIX  43
H15   2    0.748863    1.076994    0.049140    11.00000   -1.20000
AFIX   0
C16   1    0.823420    0.865635    0.077636    11.00000    0.03125    0.01978 =
         0.02393   -0.00102   -0.00144   -0.00072
AFIX  43
H16   2    0.900741    0.873281   -0.002949    11.00000   -1.20000
AFIX   0
N2    3    0.895874    0.423497    0.362222    11.00000    0.02390    0.01776 =
         0.01845   -0.00084   -0.00617   -0.00178
AFIX  43
H2    2    0.938927    0.503343    0.381411    11.00000   -1.20000
AFIX   0
C21   1    0.875837    0.299749    0.464299    11.00000    0.01694    0.02183 =
         0.01989    0.00004   -0.00456    0.00080
N22   3    0.904193    0.322984    0.585827    11.00000    0.02874    0.02897 =
         0.02105    0.00218   -0.00882   -0.00789
C23   1    0.877388    0.208856    0.688694    11.00000    0.03874    0.03953 =
         0.02313    0.00694   -0.01343   -0.01278
AFIX  43
H23   2    0.895604    0.224598    0.776057    11.00000   -1.20000
AFIX   0
C24   1    0.825065    0.070179    0.675540    11.00000    0.04157    0.03227 =
         0.03257    0.01266   -0.01431   -0.01003
AFIX  43
H24   2    0.805648   -0.006508    0.751844    11.00000   -1.20000
AFIX   0
C25   1    0.801819    0.046451    0.547760    11.00000    0.03940    0.02189 =
         0.03717    0.00234   -0.01126   -0.00424
AFIX  43
H25   2    0.768424   -0.048216    0.534337    11.00000   -1.20000
AFIX   0
C26   1    0.827523    0.161400    0.439903    11.00000    0.03295    0.02108 =
         0.02658   -0.00253   -0.00902    0.00056
AFIX  43
H26   2    0.812866    0.147242    0.351212    11.00000   -1.20000
AFIX   0
C1    1    0.635302    0.392553    0.227826    11.00000    0.02028    0.01514 =
         0.02142   -0.00150   -0.00421    0.00134
C2    1    0.578136    0.356643    0.114753    11.00000    0.03389    0.02210 =
         0.02693   -0.00166   -0.01242    0.00027
AFIX  43
H2A   2    0.650391    0.352267    0.032920    11.00000   -1.20000
AFIX   0
C3    1    0.415068    0.327124    0.121511    11.00000    0.04159    0.02965 =
         0.04785   -0.00073   -0.02931   -0.00251
AFIX  43
H3    2    0.376093    0.302825    0.044133    11.00000   -1.20000
AFIX   0
C4    1    0.309735    0.333042    0.240341    11.00000    0.02212    0.03017 =
         0.06334    0.00460   -0.01546   -0.00070
AFIX  43
H4    2    0.198485    0.312897    0.244379    11.00000   -1.20000
AFIX   0
C5    1    0.365311    0.368082    0.353267    11.00000    0.02153    0.03200 =
         0.04903   -0.00176    0.00201    0.00196
AFIX  43
H5    2    0.292496    0.371714    0.434945    11.00000   -1.20000
AFIX   0
C6    1    0.528141    0.398090    0.347359    11.00000    0.02251    0.02717 =
         0.02713   -0.00515   -0.00077    0.00110
AFIX  43
H6    2    0.566356    0.422424    0.425055    11.00000   -1.20000
AFIX   0
HKLF 4

REM  Trial1 in P-1
REM R1 =  0.0383 for    3429 Fo > 4sig(Fo)  and  0.0426 for all    3862 data
REM    199 parameters refined using      0 restraints

END

WGHT      0.0577      0.2231

REM Highest difference peak  0.357,  deepest hole -0.492,  1-sigma level  0.070
Q1    1   0.9191  0.6201  0.0428  11.00000  0.05    0.36
Q2    1   0.8610  0.4195  0.2940  11.00000  0.05    0.27
Q3    1   0.7256  0.4078  0.2195  11.00000  0.05    0.26
Q4    1   0.8680  0.5367  0.1849  11.00000  0.05    0.24
Q5    1   0.6139  0.3606  0.1751  11.00000  0.05    0.23
;
_shelx_res_checksum              36918
_shelx_hkl_file
;
   1   0   0  689.43   22.70
   1   0   0  689.23   22.80
   1   0   0  807.72   23.10
   1   0   0  666.33   22.70
   1   0   0  807.82   23.10
   1   0   0  702.03   22.70
   2   0   0  806.92   25.40
   2   0   0  831.12   25.40
   2   0   0  823.82   25.40
   2   0   0  707.93   25.40
   2   0   0  827.32   26.10
   2   0   0  799.52   25.60
   2   0   0  835.22   25.50
   3   0   0 1751.32   52.99
   3   0   0 1723.13   52.99
   3   0   0 1725.53   52.89
   3   0   0 1765.72   54.09
   3   0   0 1682.73   53.19
   3   0   0 1666.43   52.89
   3   0   0 1547.05   53.29
   4   0   0 3623.34  111.99
   4   0   0 3531.75  110.29
   4   0   0 3597.14  110.49
   4   0   0 3294.97  111.79
   4   0   0 3609.44  111.89
   4   0   0 3623.84  110.39
   5   0   0    3.70    0.70
   5   0   0    3.10    0.60
   5   0   0    4.00    1.10
   5   0   0    3.30    0.70
   5   0   0    3.40    0.60
   5   0   0    5.10    0.70
   6   0   0   58.89    2.70
   6   0   0   58.69    2.70
   6   0   0   57.29    2.90
   6   0   0   59.39    2.80
   6   0   0   53.79    4.00
   7   0   0   59.99    3.00
   7   0   0   55.19    3.00
   7   0   0   56.59    2.80
   7   0   0   59.99    4.50
   7   0   0   55.09    2.70
   8   0   0   -0.30    0.50
   8   0   0    0.80    0.60
   8   0   0   -0.40    0.60
   8   0   0    0.50    0.70
   8   0   0    0.50    0.90
   9   0   0   49.90    3.00
   9   0   0   49.00    3.00
   9   0   0   49.40    4.80
   9   0   0   49.50    3.20
   9   0   0   48.60    2.60
  10   0   0    0.10    0.80
  10   0   0    0.50    0.80
  10   0   0   -0.10    0.70
  11   0   0    1.70    1.20
  11   0   0    0.80    1.00
  11   0   0    0.30    0.80
  11  -1   0   67.29    4.00
  11  -1   0   56.39    3.90
  11  -1   0   64.89    3.80
  10  -1   0   62.19    3.60
  10  -1   0   62.99    3.80
  10  -1   0   64.49    3.80
  10  -1   0   63.09    3.60
   9  -1   0  100.49    4.70
   9  -1   0   92.59    4.70
   9  -1   0   91.79    4.50
   9  -1   0   88.59    6.40
   9  -1   0   95.99    4.50
   8  -1   0   18.10    1.90
   8  -1   0   19.80    1.80
   8  -1   0   16.40    1.80
   8  -1   0   15.80    2.70
   8  -1   0   18.10    1.90
   7  -1   0   24.60    2.80
   7  -1   0   27.70    2.10
   7  -1   0   28.60    2.00
   7  -1   0   25.40    1.80
   7  -1   0   25.20    1.90
   6  -1   0   38.30    2.10
   6  -1   0   39.90    3.30
   6  -1   0   41.40    2.30
   6  -1   0   39.20    2.40
   6  -1   0   41.20    2.20
   5  -1   0  541.25   17.60
   5  -1   0  540.55   17.50
   5  -1   0  537.85   17.90
   5  -1   0  556.14   19.20
   5  -1   0  511.05   18.70
   5  -1   0  531.15   17.40
   4  -1   0  993.70   31.40
   4  -1   0  993.70   32.70
   4  -1   0  968.70   31.40
   4  -1   0  995.20   31.90
   4  -1   0 1014.40   31.50
   3  -1   0 1137.59   36.30
   3  -1   0 1137.79   35.40
   3  -1   0 1120.59   35.40
   3  -1   0 1128.39   35.80
   3  -1   0 1113.79   35.40
   2  -1   0 7807.82  239.88
   2  -1   0 8023.20  239.98
   2  -1   0 7482.25  239.88
   2  -1   0 8106.59  242.48
   2  -1   0 7883.21  242.28
  -2   1   0 6956.60  242.48
   1  -1   0  137.89    4.80
   1  -1   0  137.79    4.40
   1  -1   0  147.59    4.60
   1  -1   0  138.69    4.40
  -1   1   0  122.09    4.90
  -1   1   0  139.19    4.50
   0  -1   0 1846.72   55.89
   0  -1   0 1847.72   55.69
   0  -1   0 1841.72   55.79
   0   1   0 1538.35   55.49
   1   1   0  118.79    4.00
   1   1   0  120.19    3.90
   1   1   0  119.39    3.90
   1   1   0  123.49    4.50
   1   1   0  115.39    4.00
   2   1   0  828.02   26.30
   2   1   0  833.92   26.60
   2   1   0  836.92   26.30
   2   1   0  834.82   26.40
   2   1   0  863.81   27.30
   3   1   0 1098.59   34.90
   3   1   0 1083.29   34.60
   3   1   0 1076.09   34.70
   3   1   0 1148.19   36.00
   3   1   0 1091.19   34.50
   4   1   0  680.63   22.20
   4   1   0  627.74   21.30
   4   1   0  691.83   22.00
   4   1   0  698.13   21.80
   4   1   0  671.73   21.80
   4   1   0  695.93   21.40
   4   1   0  710.93   23.60
   5   1   0  461.15   15.50
   5   1   0  462.95   15.20
   5   1   0  456.65   17.20
   5   1   0  453.45   15.80
   5   1   0  471.35   14.80
   5   1   0  467.85   15.30
   5   1   0  472.85   14.80
   6   1   0  111.59    4.60
   6   1   0  109.89    4.40
   6   1   0  102.09    3.80
   6   1   0  105.99    4.30
   6   1   0  113.89    6.20
   6   1   0  108.59    4.90
   7   1   0   87.49    5.80
   7   1   0   99.09    4.30
   7   1   0   93.79    3.40
   7   1   0   93.09    4.20
   8   1   0   20.10    1.90
   8   1   0   19.50    3.20
   8   1   0   23.20    2.00
   8   1   0   22.60    1.90
   9   1   0   28.30    4.30
   9   1   0   28.90    2.50
   9   1   0   36.00    2.50
   9   1   0   32.20    2.30
  10   1   0   11.00    1.80
  10   1   0   12.00    1.70
  10   1   0   14.60    1.90
  11   1   0    5.60    1.40
  11   1   0    4.60    1.20
  11   1   0    5.50    1.50
  11  -2   0    3.20    1.30
  11  -2   0    4.50    1.30
  11  -2   0    4.00    1.30
  11  -2   0    1.80    1.10
  10  -2   0  180.88    8.00
  10  -2   0  175.78    7.70
  10  -2   0  178.88    7.60
  10  -2   0  196.88    7.60
   9  -2   0    0.30    0.80
   9  -2   0    1.40    0.80
   9  -2   0   -0.60    0.70
   9  -2   0   -0.40    0.60
   8  -2   0  120.19    5.30
   8  -2   0  120.49    5.10
   8  -2   0  114.69    5.10
   8  -2   0  120.19    7.00
   8  -2   0  123.29    5.80
   7  -2   0    1.30    0.70
   7  -2   0    1.00    0.70
   7  -2   0    1.80    0.90
   7  -2   0    0.30    0.80
   7  -2   0    0.50    0.60
   6  -2   0   30.80    1.90
   6  -2   0   29.60    2.70
   6  -2   0   30.60    1.80
   6  -2   0   31.80    2.40
   6  -2   0   28.80    1.90
   5  -2   0  108.19    4.20
   5  -2   0  105.69    4.90
   5  -2   0  112.89    5.30
   5  -2   0  100.09    4.10
   5  -2   0  110.69    4.20
   4  -2   0    2.40    0.50
   4  -2   0    2.50    0.80
   4  -2   0    3.20    0.80
   4  -2   0    2.90    0.50
   4  -2   0    2.20    0.50
  -4   2   0    2.30    0.80
   3  -2   0  571.44   18.20
   3  -2   0  538.05   17.50
   3  -2   0  540.25   17.50
   3  -2   0  552.84   18.40
   3  -2   0  564.24   17.50
  -3   2   0  527.65   18.70
   2  -2   0   25.60    1.10
   2  -2   0   27.10    1.30
   2  -2   0   23.60    1.60
   2  -2   0   23.00    1.10
  -2   2   0   21.20    1.70
   1  -2   0   48.40    2.20
  -1   2   0   32.40    2.20
   0  -2   0   71.69    3.00
   0   2   0   64.59    3.10
   0   2   0   72.69    2.30
  -1  -2   0   85.79    3.00
   1   2   0   83.89    3.50
   1   2   0   82.79    2.90
   1   2   0   86.39    2.90
   1   2   0   91.59    3.50
   1   2   0   81.39    3.20
  -2  -2   0  506.65   16.40
   2   2   0  519.35   16.60
   2   2   0  509.65   16.80
   2   2   0  524.45   16.50
   2   2   0  516.65   16.60
   2   2   0  520.25   16.50
   2   2   0  520.95   16.90
   2   2   0  543.65   17.70
   3   2   0 2619.34   81.29
   3   2   0 2603.94   79.69
   3   2   0 2641.74   80.29
   3   2   0 2487.35   79.99
   3   2   0 2507.55   80.09
   3   2   0 2524.75   79.79
   3   2   0 2523.45   79.69
   4   2   0   21.40    1.40
   4   2   0   25.20    1.70
   4   2   0   26.20    1.40
   4   2   0   26.60    1.50
   4   2   0   28.10    2.50
   5   2   0   35.20    2.00
   5   2   0   37.30    2.00
   5   2   0   38.60    1.90
   5   2   0   34.00    2.20
   5   2   0   36.40    3.10
   6   2   0   99.39    4.70
   6   2   0   98.49    4.10
   6   2   0   99.09    5.90
   6   2   0   99.09    4.10
   6   2   0   97.39    4.30
   7   2   0   41.20    2.40
   7   2   0   40.70    2.50
   7   2   0   41.90    2.40
   7   2   0   41.70    2.90
   7   2   0   40.30    3.90
   8   2   0    7.80    1.20
   8   2   0    6.20    2.00
   8   2   0    4.40    1.00
   8   2   0    3.40    0.90
   9   2   0  179.18    7.20
   9   2   0  182.38    7.70
   9   2   0  185.38    7.40
  10   2   0    5.90    1.30
  10   2   0    3.80    1.30
  10   2   0    9.40    1.60
  11   2   0   61.49    3.70
  11   2   0   56.09    4.00
  10  -3   0   60.89    3.50
  10  -3   0   46.50    3.80
  10  -3   0   52.19    3.20
  10  -3   0   50.39    3.30
   9  -3   0   14.90    1.70
   9  -3   0   17.90    2.00
   9  -3   0   14.00    1.70
   9  -3   0   12.70    2.20
   8  -3   0   43.80    3.40
   8  -3   0   47.10    2.80
   8  -3   0   45.40    3.90
   8  -3   0   41.60    2.50
   8  -3   0   46.30    2.70
   7  -3   0  447.56   14.90
   7  -3   0  452.35   16.40
   7  -3   0  432.06   16.70
   7  -3   0  428.66   15.00
   7  -3   0  446.76   15.00
   6  -3   0  152.38    6.90
   6  -3   0  151.08    5.60
   6  -3   0  143.39    5.60
   6  -3   0  151.08    5.70
   6  -3   0  145.89    6.70
   5  -3   0   16.20    1.80
   5  -3   0   18.20    1.20
   5  -3   0   17.80    1.80
   5  -3   0   17.20    1.20
   5  -3   0   16.40    1.20
  -5   3   0   15.30    1.90
   4  -3   0  295.27   10.20
   4  -3   0  305.67   11.40
   4  -3   0  306.47   10.20
   4  -3   0  319.87   11.00
   4  -3   0  307.37   10.10
  -4   3   0  306.07   11.90
   3  -3   0  915.31   29.60
   3  -3   0  958.10   30.00
   3  -3   0  935.31   29.60
   3  -3   0  960.00   30.90
   3  -3   0  919.31   29.50
  -3   3   0  946.81   31.50
   2  -3   0   22.10    0.90
   2  -3   0   22.30    1.10
   2  -3   0   22.30    1.00
   2  -3   0   21.20    1.70
  -2   3   0   16.30    1.80
   1  -3   0 1995.30   60.49
  -1   3   0 1818.82   60.89
   0  -3   0 4059.29  123.39
   0   3   0 3633.84  122.49
   0   3   0 3891.01  119.89
  -1  -3   0  390.26   13.10
  -1  -3   0  400.56   12.60
   1   3   0  360.06   13.40
   1   3   0  406.56   13.40
   1   3   0  379.76   12.40
   1   3   0  407.26   12.90
  -2  -3   0   78.19    2.70
   2   3   0   79.89    2.90
   2   3   0   71.59    3.10
   2   3   0   62.59    3.30
   2   3   0   74.89    2.70
   2   3   0   80.69    3.80
  -3  -3   0  487.05   15.20
   3   3   0  494.15   15.40
   3   3   0  506.55   17.20
   3   3   0  465.05   15.50
   3   3   0  462.65   15.40
   3   3   0  480.95   16.00
   3   3   0  454.45   15.70
   3   3   0  483.15   15.60
   4   3   0  528.15   19.10
   4   3   0  512.55   16.80
   4   3   0  518.65   17.00
   4   3   0  527.15   17.10
   4   3   0  542.25   17.30
   4   3   0  528.15   17.00
   4   3   0  527.05   17.70
   5   3   0  296.17   10.10
   5   3   0  302.07   12.30
   5   3   0  290.97   10.00
   5   3   0  300.87   10.80
   5   3   0  279.77   10.20
   6   3   0  193.38    7.50
   6   3   0  199.48    7.30
   6   3   0  200.78    9.70
   6   3   0  206.68    7.40
   6   3   0  196.08    8.00
   7   3   0   78.79    5.60
   7   3   0   72.89    3.40
   7   3   0   69.19    4.00
   7   3   0   70.49    3.50
   7   3   0   70.19    3.60
   8   3   0   13.00    1.60
   8   3   0   11.90    1.60
   8   3   0   13.70    2.90
   8   3   0   12.50    2.00
   8   3   0   10.50    1.40
   9   3   0   19.80    2.00
   9   3   0   17.40    2.10
   9   3   0   19.80    2.10
   9   3   0   16.00    2.40
  10   3   0   -0.30    0.90
  10   3   0   -0.30    0.70
  10   3   0   -0.30    0.80
  10  -4   0    0.70    1.20
  10  -4   0   -0.10    0.80
  10  -4   0    1.30    0.90
   9  -4   0   56.29    4.30
   9  -4   0   52.89    3.10
   9  -4   0   63.69    3.40
   8  -4   0   63.59    3.30
   8  -4   0   68.99    3.40
   8  -4   0   66.29    3.40
   8  -4   0   63.19    4.50
   7  -4   0   89.49    3.90
   7  -4   0   88.49    3.90
   7  -4   0   87.19    5.30
   7  -4   0   87.59    3.90
   6  -4   0  139.39    6.30
   6  -4   0  136.79    5.30
   6  -4   0  144.29    5.40
   6  -4   0  136.19    6.80
   6  -4   0  144.09    5.40
   5  -4   0  335.77   11.50
   5  -4   0  347.17   13.30
   5  -4   0  344.87   11.60
   5  -4   0  342.37   11.60
   5  -4   0  355.96   12.50
  -5   4   0  355.96   13.80
   4  -4   0  139.79    5.00
   4  -4   0  140.09    6.40
   4  -4   0  136.39    4.80
   4  -4   0  136.39    4.90
   4  -4   0  139.29    5.40
  -4   4   0  133.59    6.90
   3  -4   0    2.50    0.90
   3  -4   0    2.20    0.40
   3  -4   0    2.90    0.50
  -3   4   0    1.20    0.80
   2  -4   0  732.43   22.70
   2  -4   0  716.33   24.30
  -2   4   0  711.93   25.00
   1  -4   0  716.03   24.40
   1  -4   0  757.02   23.40
  -1   4   0  720.53   25.10
   0  -4   0 1320.27   40.60
   0   4   0 1207.68   39.00
   0   4   0 1246.48   41.10
  -1  -4   0  485.25   15.40
   1   4   0  405.96   15.80
   1   4   0  457.75   15.00
   1   4   0  449.76   14.30
  -2  -4   0  116.39    4.20
   2   4   0  115.29    4.20
   2   4   0  118.69    4.70
   2   4   0  115.79    5.20
   2   4   0  113.19    5.30
  -3  -4   0   67.59    2.50
   3   4   0   68.29    3.30
   3   4   0   62.89    2.60
   3   4   0   67.19    3.10
   3   4   0   65.19    4.00
   3   4   0   68.39    3.30
   3   4   0   68.09    2.80
  -4  -4   0  607.14   19.30
   4   4   0  618.44   20.30
   4   4   0  614.74   19.90
   4   4   0  604.44   20.60
   4   4   0  620.74   22.10
   4   4   0  614.34   20.00
   4   4   0  605.44   19.80
   5   4   0  244.38    8.40
   5   4   0  243.28    8.70
   5   4   0  240.98    8.20
   5   4   0  233.68    8.50
   5   4   0  239.18    9.30
   5   4   0  254.77   11.00
   6   4   0   99.89    5.00
   6   4   0   99.79    6.40
   6   4   0  106.09    4.30
   6   4   0  102.99    4.20
   6   4   0   98.89    4.50
   7   4   0   21.80    1.90
   7   4   0   18.80    2.00
   7   4   0   20.50    1.60
   7   4   0   17.40    3.20
   7   4   0   19.50    2.30
   8   4   0   71.49    4.40
   8   4   0   67.39    3.60
   8   4   0   73.99    3.90
   9   4   0   11.40    1.60
   9   4   0   15.20    2.40
   9   4   0   13.10    1.90
  10   4   0   11.90    1.90
  10   4   0   11.60    1.80
  10  -5   0   28.50    3.80
  10  -5   0   29.10    2.70
  10  -5   0   27.90    2.60
   9  -5   0   63.29    4.80
   9  -5   0   53.29    3.20
   9  -5   0   60.19    3.30
   8  -5   0   19.80    3.00
   8  -5   0   20.70    1.90
   8  -5   0   19.00    1.80
   7  -5   0    3.00    1.30
   7  -5   0    2.90    0.80
   7  -5   0    2.00    0.70
   6  -5   0   99.09    4.10
   6  -5   0  103.49    5.90
   6  -5   0  101.69    4.20
   5  -5   0  415.86   15.80
   5  -5   0  412.06   13.60
   5  -5   0  409.06   13.50
  -5   5   0  400.16   16.20
   4  -5   0    6.60    1.50
   4  -5   0    8.00    0.80
   4  -5   0    5.70    0.70
  -4   5   0    7.90    1.90
   3  -5   0  123.19    6.10
   3  -5   0  119.19    4.20
  -3   5   0  122.39    6.70
   2  -5   0   68.59    3.90
   2  -5   0   63.79    2.30
  -2   5   0   54.49    4.10
   1  -5   0  434.36   16.00
  -1   5   0  463.85   17.00
   0  -5   0  319.77   11.90
   0   5   0  317.27   12.60
  -1  -5   0   96.49    4.50
   1   5   0   91.29    3.30
   1   5   0   94.99    4.10
   1   5   0   90.89    5.00
  -2  -5   0  285.97   10.30
   2   5   0  293.47    9.30
   2   5   0  286.57   10.10
   2   5   0  252.97   10.70
   3   5   0   24.60    2.10
   3   5   0   33.20    1.60
   3   5   0   21.80    1.90
   4   5   0  621.64   20.40
   4   5   0  607.54   21.30
   4   5   0  654.13   21.50
   4   5   0  641.14   20.60
   4   5   0  638.44   21.60
   5   5   0  404.86   14.10
   5   5   0  402.96   13.60
   5   5   0  403.16   14.60
   5   5   0  408.46   13.80
   6   5   0   21.60    1.80
   6   5   0   23.70    1.50
   6   5   0   24.00    2.20
   6   5   0   20.70    1.60
   7   5   0   28.20    2.10
   7   5   0   25.50    2.80
   7   5   0   24.30    1.90
   8   5   0  353.46   14.00
   8   5   0  346.87   13.10
   8   5   0  383.76   13.00
   9   5   0    5.30    1.30
   9   5   0    5.00    1.60
   9   5   0    7.00    1.50
  10   5   0   30.70    2.90
  10   5   0   35.90    3.90
  10   5   0   35.70    3.40
   9  -6   0   27.30    3.80
   8  -6   0    1.20    0.80
   8  -6   0   -0.30    1.20
   7  -6   0  131.19    5.30
   7  -6   0  127.19    5.30
   7  -6   0  141.89    7.70
   6  -6   0  363.06   12.50
   6  -6   0  374.96   15.20
   6  -6   0  362.36   12.40
   5  -6   0   55.39    4.30
   5  -6   0   50.69    2.50
   5  -6   0   56.69    2.50
  -5   6   0   48.90    4.50
   4  -6   0   63.79    4.50
   4  -6   0   67.69    2.70
  -4   6   0   68.99    5.20
   3  -6   0  785.42   28.00
   3  -6   0  816.92   25.40
  -3   6   0  809.52   29.20
   2  -6   0  318.07   10.20
  -2   6   0  320.17   13.60
   1  -6   0   84.39    4.90
  -1   6   0   93.79    5.70
   0  -6   0    7.30    1.50
   0   6   0   12.80    2.20
  -1  -6   0   75.29    4.10
   1   6   0   75.39    2.70
   1   6   0   71.99    4.70
   1   6   0   81.19    3.80
   2   6   0   11.20    1.50
   2   6   0   11.30    0.90
   2   6   0   12.90    2.00
   3   6   0  155.18    5.70
   3   6   0  159.28    7.20
   3   6   0  154.28    6.60
   4   6   0    1.40    0.80
   4   6   0    1.20    0.80
   4   6   0    3.30    1.00
   4   6   0    1.80    0.60
   5   6   0   97.59    5.00
   5   6   0   93.99    4.10
   5   6   0   93.79    4.80
   6   6   0   51.39    2.70
   6   6   0   51.79    3.60
   6   6   0   51.39    2.90
   6   6   0   49.70    2.80
   7   6   0   26.60    2.20
   7   6   0   26.60    2.00
   7   6   0   24.60    2.80
   8   6   0   57.89    3.30
   8   6   0   56.59    3.50
   8   6   0   68.99    4.50
   9   6   0   76.69    4.30
   9   6   0   75.19    5.10
   9   6   0   68.99    3.90
   9  -7   0    1.90    1.60
   8  -7   0    9.00    2.50
   7  -7   0   47.20    4.50
   6  -7   0  123.69    7.40
   5  -7   0    0.60    1.30
   5  -7   0    2.10    0.60
   4  -7   0   39.30    3.80
  -4   7   0   46.90    4.50
   3  -7   0  309.07   12.80
  -3   7   0  285.57   13.50
   2  -7   0 2001.30   65.39
  -2   7   0 1992.70   66.69
   1  -7   0   17.80    2.60
  -1   7   0   11.80    2.50
   0  -7   0  297.67   11.70
   0   7   0  274.47   12.50
   1   7   0  241.18    9.20
   1   7   0  236.18   10.70
   2   7   0  276.37   11.00
   2   7   0  326.97   12.80
   2   7   0  325.57   11.60
   3   7   0  182.78    6.60
   3   7   0  186.58    7.70
   3   7   0  182.08    8.50
   4   7   0   56.99    2.70
   4   7   0   53.79    3.90
   4   7   0   49.00    3.60
   4   7   0   54.19    3.40
   5   7   0   38.30    3.10
   5   7   0   43.00    3.30
   5   7   0   39.90    2.40
   6   7   0   69.29    3.60
   6   7   0   69.09    4.30
   6   7   0   67.89    4.00
   7   7   0   94.99    5.40
   7   7   0   90.19    4.50
   8   7   0    0.50    1.10
   8   7   0    0.40    0.90
   9   7   0   38.00    3.00
   9   7   0   37.20    4.10
   8  -8   0   12.00    2.90
   7  -8   0  165.98    9.50
   6  -8   0    2.80    1.80
   5  -8   0   77.69    5.70
   4  -8   0  262.37   12.20
  -4   8   0  271.97   13.20
   3  -8   0  252.97   11.60
  -3   8   0  259.37   12.70
   2  -8   0    0.30    1.00
  -2   8   0    0.50    1.00
   1  -8   0   78.49    5.30
  -1   8   0  108.39    6.80
   0   8   0  177.68    9.30
   1   8   0  283.17   12.90
   1   8   0  315.87   11.50
   2   8   0    2.60    1.30
   2   8   0    2.90    1.10
   3   8   0  111.79    5.50
   3   8   0  119.09    6.90
   3   8   0  102.59    6.30
   4   8   0   36.40    3.00
   4   8   0   35.90    3.40
   4   8   0   34.10    3.20
   5   8   0    2.30    1.20
   5   8   0    0.00    0.90
   6   8   0   39.40    3.40
   6   8   0   38.30    3.20
   6   8   0   33.90    2.40
   7   8   0   14.60    1.80
   7   8   0   16.60    2.70
   8   8   0    0.80    1.00
   8   8   0   -0.40    1.00
   7  -9   0   26.00    4.20
   6  -9   0    9.90    2.80
   5  -9   0  205.98   10.90
   4  -9   0   24.10    3.60
  -4   9   0   18.80    3.70
   3  -9   0    2.60    1.50
  -3   9   0    6.10    2.30
   2  -9   0  164.58    8.80
  -2   9   0  172.88    9.90
  -1   9   0  558.64   22.50
   0   9   0    1.30    1.30
   1   9   0   30.80    3.70
   1   9   0   29.00    2.60
   2   9   0   74.79    5.60
   2   9   0   73.29    4.40
   3   9   0   51.89    4.70
   3   9   0   51.69    3.70
   3   9   0   54.69    4.50
   4   9   0    0.60    1.00
   4   9   0    0.80    1.10
   4   9   0    1.30    1.00
   5   9   0   12.90    2.60
   5   9   0   12.60    2.30
   6   9   0   -0.80    0.80
   6   9   0    0.50    1.20
   7   9   0   80.19    5.40
   6 -10   0    0.50    1.70
   5 -10   0   29.30    4.40
   4 -10   0    0.70    1.50
  -4  10   0   -1.20    1.50
   3 -10   0    0.60    1.50
  -3  10   0    1.20    2.00
  -2  10   0  105.19    8.00
  -1  10   0   80.89    6.70
   0  10   0   28.30    2.70
   0  10   0   38.60    4.50
   1  10   0   16.00    2.40
   1  10   0   17.50    3.40
   2  10   0  276.47   14.00
   2  10   0  303.57   13.90
   2  10   0  290.27   11.80
   3  10   0  127.29    8.20
   3  10   0  139.29    8.20
   3  10   0  135.09    6.80
   4  10   0    9.90    2.70
   4  10   0   11.30    2.20
   5  10   0  208.28   10.70
   5  10   0  219.68    9.90
   6  10   0   58.19    4.50
   6  10   0   57.69    4.70
   4 -11   0    0.20    1.70
  -4  11   0    1.10    1.90
  -4  11   0    3.40    2.40
  -3  11   0   36.10    5.80
  -2  11   0  109.29    8.60
  -1  11   0   48.20    5.50
   0  11   0   14.40    3.50
   0  11   0   10.30    3.20
   0  11   0   13.30    2.30
   1  11   0  204.08    9.30
   1  11   0  217.48   11.70
   1  11   0  193.78   11.80
   2  11   0  222.48   12.60
   2  11   0  264.47   12.80
   2  11   0  224.38   10.30
   3  11   0    0.80    1.50
   3  11   0    1.20    1.40
   3  11   0    0.10    1.20
   4  11   0   29.50    4.50
   4  11   0   27.30    3.40
  -1  12   0    2.90    1.40
  -1  12   0    4.30    2.70
  -1  12   0   10.50    3.50
   0  12   0   13.00    3.30
   0  12   0    7.80    2.00
   0  12   0    8.00    3.10
   1  12   0    1.40    1.70
   1  12   0    4.70    1.70
   4  11  -1   42.70    3.90
   3  11  -1    3.50    2.10
   3  11  -1    5.70    1.70
   2  11  -1    0.20    1.10
   2  11  -1   -0.70    1.30
   1  11  -1  120.89    9.10
   1  11  -1  151.88    9.50
   1  11  -1  144.79    7.30
   0  11  -1   85.89    5.50
   0  11  -1  102.19    7.70
   0  11  -1   96.09    8.00
  -1  11  -1    0.40    1.40
  -1  11  -1   -0.50    1.60
  -2  11  -1   20.50    4.60
  -2  11  -1   25.50    4.60
  -3  11  -1    4.50    2.70
  -3  11  -1    5.80    2.50
  -4  11  -1   48.90    7.30
  -4  11  -1   54.99    6.30
   5  10  -1    2.30    1.50
   5  10  -1    2.20    1.40
   4  10  -1   57.59    5.30
   4  10  -1   59.49    4.30
   3  10  -1   38.60    3.90
   3  10  -1   33.50    4.20
   2  10  -1    7.80    2.50
   2  10  -1    8.90    1.90
   1  10  -1   21.90    4.00
   1  10  -1   22.10    2.80
   1  10  -1   20.70    3.60
   0  10  -1   73.49    6.60
   0  10  -1   78.09    6.40
   0  10  -1   76.79    4.70
  -1  10  -1   47.50    5.50
  -1  10  -1   67.09    6.10
  -2  10  -1  290.97   16.40
  -2  10  -1  392.66   17.30
  -3  10  -1   50.39    6.00
  -3  10  -1   32.70    5.00
   3 -10   1   47.60    4.80
  -4  10  -1   30.20    5.10
  -4  10  -1   20.50    4.50
   4 -10   1   26.70    4.20
   5 -10   1    6.50    2.50
   6 -10   1    2.00    1.90
   7   9  -1   58.79    4.50
   6   9  -1   14.70    2.50
   6   9  -1    9.90    2.20
   5   9  -1   48.00    3.90
   5   9  -1   47.00    4.30
   4   9  -1  131.69    7.90
   4   9  -1  138.29    6.90
   3   9  -1  167.78    9.40
   3   9  -1  178.28    8.10
   2   9  -1  135.39    6.70
   2   9  -1  124.99    8.10
   2   9  -1  152.88    8.40
   1   9  -1    6.70    1.60
   1   9  -1    5.90    1.90
   1   9  -1    5.80    2.10
   0   9  -1    4.60    1.80
   0   9  -1    2.10    1.60
  -1   9  -1   24.50    4.30
  -1   9  -1   26.60    4.10
  -2   9  -1  202.48   11.30
  -2   9  -1  208.38   11.90
   2  -9   1  206.08   10.30
  -3   9  -1   43.90    5.40
  -3   9  -1   67.99    6.00
   3  -9   1   43.40    4.40
  -4   9  -1   13.10    3.10
  -4   9  -1    6.50    2.50
   4  -9   1    8.20    2.30
   5  -9   1    1.00    1.60
   6  -9   1    3.70    2.00
   7  -9   1   57.79    5.70
   7   8  -1   -0.70    0.70
   7   8  -1    0.60    1.20
   6   8  -1    6.00    1.60
   6   8  -1    7.30    1.80
   6   8  -1    4.30    1.20
   5   8  -1  164.48    8.20
   5   8  -1  157.58    7.60
   4   8  -1   14.30    2.50
   4   8  -1   19.50    2.50
   3   8  -1  187.08    9.50
   3   8  -1  183.48    8.10
   2   8  -1    0.80    1.00
   2   8  -1    0.10    0.90
   2   8  -1   -0.60    0.70
   1   8  -1   16.80    2.10
   1   8  -1   12.10    2.70
   1   8  -1   12.80    2.50
   0   8  -1    5.40    1.90
  -1   8  -1  395.06   16.50
   1  -8   1  351.46   14.90
  -2   8  -1    1.70    1.30
   2  -8   1    0.50    1.10
  -3   8  -1  316.07   14.40
   3  -8   1  275.77   12.80
  -4   8  -1   20.20    3.60
   4  -8   1   13.00    2.50
   5  -8   1   28.50    4.00
   6  -8   1   28.80    4.10
   7  -8   1    0.10    1.30
   8  -8   1    8.50    2.70
   8   7  -1  132.89    6.10
   8   7  -1  125.99    6.90
   7   7  -1   11.40    2.20
   7   7  -1    8.70    1.30
   7   7  -1   10.50    1.60
   6   7  -1  186.18    7.60
   6   7  -1  214.98    9.00
   6   7  -1  186.48    8.30
   5   7  -1  427.86   14.50
   5   7  -1  404.96   15.90
   5   7  -1  426.46   15.70
   4   7  -1  161.38    7.90
   4   7  -1  146.59    5.90
   4   7  -1  163.78    7.10
   3   7  -1   96.89    4.80
   3   7  -1   94.09    5.70
   3   7  -1   87.89    3.70
   2   7  -1  563.04   21.50
   2   7  -1  599.74   22.10
   2   7  -1  591.34   20.20
   1   7  -1  395.36   15.80
   1   7  -1  398.86   16.20
   1   7  -1  381.86   14.10
   0   7  -1    0.40    1.00
   0  -7   1    0.50    0.70
  -1   7  -1 1871.31   63.39
   1  -7   1 1935.51   62.19
  -2   7  -1    2.20    1.40
   2  -7   1    0.70    1.00
  -3   7  -1  103.59    7.00
   3  -7   1  127.09    6.70
  -4   7  -1   20.90    3.60
   4  -7   1   19.90    2.80
  -5   7  -1  301.07   18.30
   5  -7   1  294.47   13.00
   6  -7   1    2.20    1.50
   7  -7   1   53.19    4.80
   8  -7   1   -0.90    1.20
   9  -7   1    0.40    1.50
   9   6  -1    4.40    1.40
   9   6  -1    3.50    1.10
   9   6  -1    2.20    1.50
   8   6  -1   75.39    3.90
   8   6  -1   82.79    5.10
   8   6  -1   70.59    4.00
   7   6  -1   72.89    3.80
   7   6  -1   66.19    3.50
   7   6  -1   72.59    4.50
   6   6  -1  195.98    7.60
   6   6  -1  191.18    7.20
   6   6  -1  194.28    7.80
   6   6  -1  187.68    8.40
   5   6  -1   94.79    4.90
   5   6  -1   93.49    3.90
   5   6  -1   91.39    4.10
   5   6  -1   86.09    4.80
   4   6  -1  163.88    7.80
   4   6  -1  176.98    7.40
   4   6  -1  173.78    6.50
   4   6  -1  178.98    6.30
   3   6  -1  802.12   27.90
   3   6  -1  808.32   25.80
   3   6  -1  791.52   26.80
   2   6  -1  164.78    7.90
   2   6  -1  171.08    6.10
   2   6  -1  175.68    8.30
   2   6  -1  179.88    7.10
   1   6  -1   30.90    1.40
   1   6  -1   31.60    2.90
   0   6  -1    5.00    0.40
   0   6  -1    3.30    1.20
   0  -6   1    4.70    1.30
  -1   6  -1 1266.27   43.00
   1  -6   1 1265.17   41.90
  -2   6  -1    0.90    1.00
   2  -6   1    0.30    0.80
  -3   6  -1  120.09    7.00
  -4   6  -1  341.47   14.60
   4  -6   1  339.67   13.70
   4  -6   1  335.77   11.10
  -5   6  -1  169.58    8.90
   5  -6   1  158.78    8.10
   5  -6   1  156.78    5.80
   6  -6   1    0.30    1.10
   6  -6   1    0.90    0.50
   7  -6   1  102.19    6.40
   8  -6   1   36.60    3.90
   9  -6   1    1.90    1.50
   9   5  -1   10.50    1.70
   9   5  -1   11.20    2.30
   9   5  -1   10.60    1.90
   8   5  -1  125.39    6.50
   8   5  -1  126.99    5.80
   8   5  -1  123.09    5.50
   7   5  -1  270.87   10.00
   7   5  -1  277.47   10.40
   7   5  -1  283.07   11.20
   6   5  -1   -0.70    0.40
   6   5  -1   -0.30    0.50
   6   5  -1    0.70    0.70
   6   5  -1    0.00    0.80
   5   5  -1  128.59    6.10
   5   5  -1  136.99    5.50
   5   5  -1  136.89    5.80
   5   5  -1  127.69    5.10
   4   5  -1   69.59    3.20
   4   5  -1   70.89    3.80
   4   5  -1   70.89    4.00
   4   5  -1   68.49    3.00
   3   5  -1  950.90   30.70
   3   5  -1  969.80   32.30
   3   5  -1  965.10   30.40
   3   5  -1  960.10   31.50
   2   5  -1   38.80    1.70
   2   5  -1   37.60    2.40
   2   5  -1   47.70    3.10
   2   5  -1   39.10    3.00
   2   5  -1   38.80    1.90
  -2  -5   1   37.90    2.50
   1   5  -1   22.70    1.10
   1   5  -1   16.60    2.00
  -1  -5   1   20.70    1.80
   0   5  -1  103.69    3.60
   0   5  -1  109.89    5.70
   0  -5   1  106.99    5.10
  -1   5  -1 1482.15   49.90
   1  -5   1 1545.35   49.20
  -2   5  -1   65.99    4.30
   2  -5   1   63.59    2.10
   2  -5   1   62.39    3.80
  -3   5  -1    4.90    1.50
   3  -5   1    6.40    0.50
   3  -5   1    4.70    1.30
   3  -5   1    7.30    0.70
  -4   5  -1  266.57   11.70
   4  -5   1  280.27    9.50
   4  -5   1  271.57    9.00
   4  -5   1  266.27    8.90
   4  -5   1  261.67   11.00
  -5   5  -1   92.29    5.80
   5  -5   1   90.49    5.30
   5  -5   1   93.69    3.60
   5  -5   1   91.39    3.60
   6  -5   1   40.60    2.10
   6  -5   1   40.50    2.10
   6  -5   1   42.70    3.60
   7  -5   1   68.99    4.80
   7  -5   1   68.79    3.20
   7  -5   1   68.09    3.20
   8  -5   1   85.29    3.80
   8  -5   1   80.49    3.80
   8  -5   1   82.89    5.50
   9  -5   1   13.70    1.60
   9  -5   1    8.60    2.20
   9  -5   1    9.10    1.40
  10  -5   1   60.39    3.70
  10  -5   1   64.09    5.10
  10   4  -1    5.50    1.40
  10   4  -1    9.00    2.10
  10   4  -1    6.20    1.60
  10   4  -1    6.50    1.50
   9   4  -1   58.49    3.70
   9   4  -1   55.49    3.30
   9   4  -1   55.39    4.10
   9   4  -1   61.69    3.50
   8   4  -1    0.00    1.00
   8   4  -1    0.40    0.60
   8   4  -1    1.60    0.80
   8   4  -1    0.20    0.80
   7   4  -1   45.00    2.90
   7   4  -1   49.30    2.70
   7   4  -1   44.10    2.60
   7   4  -1   46.10    3.40
   6   4  -1  240.98    9.20
   6   4  -1  249.78    9.80
   6   4  -1  259.27    8.50
   6   4  -1  243.38    8.90
   6   4  -1  245.08    8.80
   5   4  -1   12.00    1.40
   5   4  -1    9.00    1.10
   5   4  -1   13.30    1.70
   5   4  -1    9.30    1.10
   5   4  -1   11.70    1.20
   4   4  -1  233.78    8.00
   4   4  -1  225.88    8.80
   4   4  -1  240.88    8.80
   4   4  -1  227.98    8.00
   4   4  -1  233.58    8.70
   4   4  -1  225.18    8.20
   3   4  -1 1671.63   52.49
   3   4  -1 1707.63   53.59
   3   4  -1 1643.44   52.29
   3   4  -1 1652.33   53.09
   2   4  -1  548.65   19.80
   2   4  -1  563.54   18.60
   2   4  -1  593.84   18.40
   2   4  -1  574.04   19.30
   2   4  -1  588.84   20.10
  -2  -4   1  615.04   19.50
   1   4  -1  891.11   27.20
   1   4  -1  823.62   28.80
   1   4  -1  873.51   27.00
   0   4  -1  806.02   24.20
   0   4  -1  702.23   26.00
   0  -4   1  805.12   25.70
  -1   4  -1  205.38    8.70
   1  -4   1  212.78    8.20
  -2   4  -1   20.10    2.10
   2  -4   1   20.00    0.80
   2  -4   1   18.50    1.80
  -3   4  -1   11.40    2.00
   3  -4   1    8.80    0.90
   3  -4   1    9.90    0.60
   3  -4   1    8.00    0.60
   3  -4   1    9.00    1.50
  -4   4  -1  180.98    8.30
   4  -4   1  178.28    6.80
   4  -4   1  161.48    7.50
   4  -4   1  185.18    6.10
   4  -4   1  174.28    6.10
  -5   4  -1   45.50    3.60
   5  -4   1   41.20    2.60
   5  -4   1   41.20    2.00
   5  -4   1   39.70    3.10
   5  -4   1   36.30    1.90
   6  -4   1  125.79    5.00
   6  -4   1  133.29    6.50
   6  -4   1  130.99    6.10
   6  -4   1  126.69    4.90
   7  -4   1   82.49    3.70
   7  -4   1   78.59    4.90
   7  -4   1   85.29    3.60
   7  -4   1   78.49    5.20
   8  -4   1   13.20    1.50
   8  -4   1   14.20    1.60
   8  -4   1   13.90    2.30
   9  -4   1    5.90    1.10
   9  -4   1    2.80    0.90
   9  -4   1    3.60    1.50
  10  -4   1   50.49    3.20
  10  -4   1   56.39    3.20
  10  -4   1   55.29    4.40
  10   3  -1   28.20    2.60
  10   3  -1   23.20    2.40
  10   3  -1   25.70    2.80
   9   3  -1   24.70    2.40
   9   3  -1   23.50    2.20
   9   3  -1   30.40    2.80
   9   3  -1   24.50    3.00
   8   3  -1   39.70    2.80
   8   3  -1   44.60    2.70
   8   3  -1   44.90    2.70
   8   3  -1   41.50    3.30
   7   3  -1   70.39    3.70
   7   3  -1   77.59    4.30
   7   3  -1   74.39    3.60
   7   3  -1   74.39    3.50
   6   3  -1   25.80    1.70
   6   3  -1   19.40    1.90
   6   3  -1   21.70    2.00
   6   3  -1   19.50    1.50
   5   3  -1  182.58    6.70
   5   3  -1  179.88    6.90
   5   3  -1  184.38    6.60
   5   3  -1  187.88    6.50
   5   3  -1  186.28    7.40
   4   3  -1  377.56   12.50
   4   3  -1  357.06   12.20
   4   3  -1  360.26   12.50
   4   3  -1  386.66   12.30
   4   3  -1  369.36   12.90
   3   3  -1    7.10    0.90
   3   3  -1    6.40    0.90
   3   3  -1    7.10    0.80
   3   3  -1    8.30    1.00
   3   3  -1    5.20    0.60
   2   3  -1    6.40    0.90
   2   3  -1    8.50    1.20
   2   3  -1    7.90    0.60
   2   3  -1    7.30    0.60
   2   3  -1    6.20    0.80
   1   3  -1   76.99    3.90
   1   3  -1   87.29    2.90
   1   3  -1   85.49    3.10
   1   3  -1   97.99    4.30
   0   3  -1 2766.12   92.29
   0  -3   1 3087.89   91.89
  -1   3  -1  142.09    6.20
   1  -3   1  142.69    5.70
  -2   3  -1  155.88    6.90
   2  -3   1  160.98    6.50
   2  -3   1  162.08    5.20
  -3   3  -1    8.10    1.50
   3  -3   1    5.20    0.50
   3  -3   1    5.00    0.80
   3  -3   1    4.40    0.50
   3  -3   1    6.30    1.20
  -4   3  -1    6.20    1.40
   4  -3   1    8.50    1.20
   4  -3   1    9.70    0.80
   4  -3   1    7.00    0.70
   4  -3   1    8.20    1.40
  -5   3  -1  207.38    9.50
  -5   3  -1  245.88   10.20
   5  -3   1  244.78    8.10
   5  -3   1  238.88    9.30
   5  -3   1  243.08    8.20
   5  -3   1  241.48    9.50
   6  -3   1   -0.20    0.60
   6  -3   1    1.00    0.50
   6  -3   1   -0.10    0.40
   6  -3   1    0.30    0.60
   7  -3   1   23.30    1.60
   7  -3   1   22.50    2.50
   7  -3   1   22.10    2.30
   7  -3   1   21.50    1.60
   8  -3   1   96.29    5.90
   8  -3   1   88.09    5.20
   8  -3   1   98.89    4.30
   8  -3   1   94.99    4.20
   9  -3   1   46.40    2.80
   9  -3   1   53.09    3.80
   9  -3   1   43.70    6.40
   9  -3   1   42.30    2.80
  10  -3   1   43.30    3.70
  10  -3   1   47.70    3.00
  10  -3   1   45.70    2.90
  11  -3   1    2.40    1.00
  10   2  -1   98.19    4.80
  10   2  -1   98.49    5.00
  10   2  -1   94.79    5.10
   9   2  -1   -0.10    0.70
   9   2  -1   -0.70    0.70
   9   2  -1   -0.70    0.70
   8   2  -1   40.40    2.50
   8   2  -1   40.80    2.50
   8   2  -1   40.10    2.70
   8   2  -1   33.40    2.80
   7   2  -1    2.60    0.80
   7   2  -1    4.60    0.90
   7   2  -1    1.10    0.70
   7   2  -1    2.30    1.00
   6   2  -1   64.89    3.10
   6   2  -1   67.89    3.20
   6   2  -1   71.79    2.60
   6   2  -1   65.49    3.40
   6   2  -1   69.89    3.70
   5   2  -1   12.50    1.10
   5   2  -1   12.90    0.90
   5   2  -1   12.50    1.30
   5   2  -1   14.80    1.20
   5   2  -1   11.70    1.40
   5   2  -1   12.90    0.80
   4   2  -1  562.24   17.90
   4   2  -1  549.15   17.80
   4   2  -1  549.95   18.00
   4   2  -1  538.15   17.80
   4   2  -1  555.44   17.60
   4   2  -1  550.54   18.40
   3   2  -1    2.40    0.40
   3   2  -1    2.70    0.50
   3   2  -1    3.00    0.60
   3   2  -1    2.10    0.60
   3   2  -1    3.40    0.50
   3   2  -1    1.80    0.50
  -3  -2   1    2.70    0.30
   2   2  -1  298.47   10.10
   2   2  -1  300.27    9.50
   2   2  -1  287.67    9.60
   2   2  -1  291.37    9.50
   2   2  -1  288.87    9.90
   1   2  -1   47.40    1.80
   1   2  -1   47.40    1.80
   1   2  -1   44.90    1.90
   1   2  -1   45.60    2.10
   1   2  -1   47.60    2.50
  -1  -2   1   48.50    2.20
   0   2  -1 5000.40  153.48
   0   2  -1 4469.85  151.18
   0   2  -1 4698.23  148.49
   0  -2   1 4884.91  151.98
   0  -2   1 4911.51  148.99
  -1   2  -1 2599.34   81.69
   1  -2   1 2717.83   81.29
   1  -2   1 2462.15   80.49
  -2   2  -1   -0.10    0.40
   2  -2   1    0.20    0.40
   2  -2   1    0.70    0.20
   2  -2   1    0.70    0.30
   2  -2   1    0.40    0.20
  -3   2  -1  143.69    6.20
   3  -2   1  152.58    5.10
   3  -2   1  152.68    5.80
   3  -2   1  150.38    6.00
   3  -2   1  150.38    5.10
  -4   2  -1   36.50    2.70
  -4   2  -1   39.30    2.60
   4  -2   1   38.90    2.40
   4  -2   1   35.90    2.30
   4  -2   1   36.10    1.70
   4  -2   1   37.20    1.70
   4  -2   1   38.80    1.80
  -5   2  -1 1416.16   48.10
  -5   2  -1 1496.95   48.50
   5  -2   1 1545.45   47.00
   5  -2   1 1489.15   48.40
   5  -2   1 1526.55   47.90
   5  -2   1 1468.45   46.80
   5  -2   1 1483.35   47.00
   6  -2   1   25.00    1.60
   6  -2   1   24.20    2.10
   6  -2   1   22.30    2.30
   6  -2   1   22.50    1.50
   6  -2   1   22.70    1.50
   7  -2   1   93.89    4.10
   7  -2   1   97.39    4.10
   7  -2   1   93.09    5.60
   7  -2   1   98.69    4.90
   7  -2   1   99.49    4.30
   8  -2   1  328.27   11.80
   8  -2   1  338.07   11.60
   8  -2   1  334.17   11.70
   8  -2   1  333.47   12.50
   8  -2   1  317.87   13.90
   9  -2   1  246.08    9.40
   9  -2   1  262.17   10.20
   9  -2   1  244.28   11.80
   9  -2   1  251.47    9.30
  10  -2   1    4.60    1.20
  10  -2   1    3.70    1.10
  10  -2   1    6.30    2.20
  10  -2   1    7.70    1.70
  11  -2   1   86.19    4.50
  11  -2   1   88.59    4.90
  11  -2   1   84.99    4.60
  10   1  -1   74.59    4.00
  10   1  -1   70.89    4.10
  10   1  -1   71.29    4.30
   9   1  -1   26.80    2.50
   9   1  -1   29.70    2.40
   9   1  -1   26.20    2.30
   8   1  -1  139.19    6.20
   8   1  -1  141.59    5.10
   8   1  -1  150.58    6.10
   8   1  -1  143.89    5.80
   7   1  -1   70.49    2.90
   7   1  -1   67.39    3.80
   7   1  -1   70.59    3.60
   7   1  -1   64.89    3.30
   7   1  -1   69.29    3.30
   6   1  -1   19.50    1.30
   6   1  -1   20.40    1.90
   6   1  -1   18.00    1.30
   6   1  -1   19.00    1.50
   6   1  -1   23.20    1.70
   5   1  -1  182.58    7.20
   5   1  -1  188.48    8.60
   5   1  -1  193.58    6.60
   5   1  -1  197.78    7.00
   5   1  -1  194.08    6.90
   5   1  -1  176.18    6.50
   5   1  -1  194.58    6.80
   4   1  -1   27.50    1.80
   4   1  -1   26.90    1.50
   4   1  -1   27.40    1.50
   4   1  -1   28.00    1.50
   4   1  -1   29.90    2.50
   4   1  -1   28.80    1.60
   4   1  -1   27.70    1.40
   3   1  -1  630.04   20.40
   3   1  -1  606.24   20.20
   3   1  -1  641.14   20.20
   3   1  -1  643.54   20.60
   3   1  -1  653.73   20.40
   3   1  -1  642.44   20.30
   2   1  -1  753.42   23.10
   2   1  -1  756.92   23.30
   2   1  -1  713.93   23.30
   2   1  -1  732.83   23.20
   2   1  -1  708.83   23.10
   2   1  -1  739.23   23.00
  -2  -1   1  716.43   22.90
   1   1  -1  896.81   27.80
   1   1  -1  881.11   28.00
   1   1  -1  903.31   27.60
   1   1  -1  864.41   27.50
   1   1  -1  890.01   27.50
   1   1  -1  860.41   27.60
   0   1  -1    1.20    0.10
   0   1  -1    1.90    0.50
   0  -1   1    1.50    0.40
   0  -1   1    1.20    0.10
  -1   1  -1  275.87    8.80
  -1   1  -1  280.37    9.70
   1  -1   1  286.07    8.80
  -2   1  -1   77.89    3.50
   2  -1   1   73.49    2.60
   2  -1   1   77.89    2.70
   2  -1   1   72.19    3.10
   2  -1   1   73.89    3.10
  -3   1  -1   67.89    3.40
   3  -1   1   69.49    2.60
   3  -1   1   76.29    2.70
   3  -1   1   70.49    3.30
   3  -1   1   70.89    2.70
   4  -1   1    0.30    0.40
   4  -1   1    0.90    0.40
   4  -1   1    0.70    0.30
   4  -1   1    0.50    0.50
   4  -1   1    0.60    0.40
   5  -1   1   49.70    2.60
   5  -1   1   47.60    2.30
   5  -1   1   49.60    2.20
   5  -1   1   49.10    2.40
   5  -1   1   47.80    3.20
   6  -1   1    5.60    1.40
   6  -1   1    3.70    0.70
   6  -1   1    3.90    0.80
   6  -1   1    3.40    0.70
   6  -1   1    3.10    0.70
   7  -1   1   95.39    4.00
   7  -1   1   98.59    5.80
   7  -1   1   90.79    4.10
   7  -1   1   86.49    4.10
   7  -1   1   97.19    4.40
   8  -1   1   10.70    2.30
   8  -1   1    7.20    1.30
   8  -1   1    9.90    1.40
   8  -1   1    8.80    1.30
   8  -1   1    7.40    1.20
   9  -1   1   96.39    4.60
   9  -1   1   82.89    6.10
   9  -1   1   91.59    4.30
   9  -1   1   95.39    4.50
   9  -1   1   95.09    4.60
  10  -1   1   20.80    2.10
  10  -1   1   17.90    2.10
  10  -1   1   20.20    3.70
  10  -1   1   21.50    2.10
  11  -1   1  118.69    5.50
  11  -1   1  115.49    5.70
  11   0  -1    1.70    1.00
  11   0  -1    1.60    1.10
  10   0  -1    1.20    0.90
  10   0  -1    0.60    0.90
  10   0  -1    1.00    0.90
   9   0  -1  141.19    5.70
   9   0  -1  151.68    6.50
   9   0  -1  141.79    6.30
   9   0  -1  148.79    6.10
   8   0  -1  177.58    6.80
   8   0  -1  168.18    6.90
   8   0  -1  167.88    7.00
   8   0  -1  173.98    6.70
   7   0  -1    3.50    0.90
   7   0  -1    4.10    0.90
   7   0  -1    3.10    0.90
   7   0  -1    3.40    0.80
   6   0  -1    0.90    0.50
   6   0  -1    1.20    1.00
   6   0  -1    0.70    0.60
   6   0  -1    0.40    0.50
   6   0  -1    0.20    0.50
   5   0  -1  268.07    9.70
   5   0  -1  277.67    9.70
   5   0  -1  294.77   11.50
   5   0  -1  280.07    9.80
   5   0  -1  288.27    9.60
   5   0  -1  280.07    9.80
   4   0  -1  317.87   10.50
   4   0  -1  312.07   10.50
   4   0  -1  318.17   10.60
   4   0  -1  305.77   10.30
   4   0  -1  308.97   10.40
   4   0  -1  303.07   10.60
   4   0  -1  297.77   11.70
   3   0  -1  118.49    4.20
   3   0  -1  118.19    4.40
   3   0  -1  118.19    5.20
   3   0  -1  118.89    4.20
   3   0  -1  111.69    4.20
   3   0  -1  116.99    4.40
   3   0  -1  109.19    4.30
   2   0  -1   66.59    2.50
   2   0  -1   65.69    2.50
   2   0  -1   63.29    2.70
   2   0  -1   65.29    2.40
   1   0  -1 3983.60  118.49
   1   0  -1 3610.44  118.39
   1   0  -1 3881.81  118.79
   1   0  -1 3966.50  118.79
   1   0  -1 3543.25  119.39
   0   0  -1   47.90    2.20
   0   0   1   58.09    2.20
   1   0   1 2111.69   67.09
   2   0   1  157.28    5.20
   2   0   1  154.38    5.80
   2   0   1  154.58    5.20
   2   0   1  157.18    5.30
   2   0   1  156.18    5.10
   3   0   1 1703.03   52.69
   3   0   1 1697.23   51.59
   3   0   1 1680.13   51.69
   3   0   1 1710.13   51.69
   3   0   1 1482.15   51.89
   4   0   1    3.80    0.70
   4   0   1    4.40    0.70
   4   0   1    1.80    0.50
   4   0   1    4.00    1.00
   4   0   1    4.10    0.60
   5   0   1    3.30    0.70
   5   0   1    3.60    0.60
   5   0   1    2.80    1.00
   5   0   1    2.30    0.60
   5   0   1    2.60    0.60
   6   0   1   65.79    3.10
   6   0   1   64.39    3.10
   6   0   1   77.89    4.60
   6   0   1   71.39    3.00
   6   0   1   66.99    3.00
   7   0   1   43.70    3.80
   7   0   1   41.50    2.30
   7   0   1   46.10    2.60
   7   0   1   44.80    2.40
   8   0   1   16.40    2.80
   8   0   1   11.90    1.60
   8   0   1   14.80    1.60
   8   0   1   14.70    1.60
   8   0   1   13.80    1.30
   9   0   1    3.10    0.80
   9   0   1    2.50    1.60
   9   0   1    3.10    1.00
   9   0   1    3.30    1.00
   9   0   1    4.70    1.10
  10   0   1   80.49    4.10
  10   0   1   84.79    4.30
  10   0   1   74.09    6.20
  10   0   1   76.29    4.30
  11   0   1   29.00    2.70
  11  -1  -1   17.50    2.40
  11  -1  -1   10.20    1.70
  10  -1  -1  103.29    4.90
  10  -1  -1  100.59    5.00
  10  -1  -1   96.39    5.10
  10  -1  -1  104.19    5.00
   9  -1  -1  116.99    5.10
   9  -1  -1  103.69    5.10
   9  -1  -1  109.49    5.10
   9  -1  -1  111.49    5.20
   8  -1  -1   22.10    2.00
   8  -1  -1   19.70    2.00
   8  -1  -1   16.10    1.90
   8  -1  -1   20.40    2.00
   7  -1  -1    1.80    0.70
   7  -1  -1    1.70    0.70
   7  -1  -1    1.50    0.70
   7  -1  -1    1.60    0.70
   6  -1  -1  703.93   22.70
   6  -1  -1  692.93   24.80
   6  -1  -1  701.93   22.80
   6  -1  -1  690.73   23.20
   6  -1  -1  692.33   22.90
   5  -1  -1 1125.89   36.00
   5  -1  -1 1162.58   36.10
   5  -1  -1 1115.29   36.10
   5  -1  -1 1127.89   36.60
   5  -1  -1 1132.99   37.80
   4  -1  -1  214.18    7.30
   4  -1  -1  214.78    7.40
   4  -1  -1  207.28    7.80
   4  -1  -1  215.68    8.60
   4  -1  -1  208.08    7.40
   3  -1  -1  757.62   24.50
   3  -1  -1  779.02   24.40
   3  -1  -1  773.62   24.40
   2  -1  -1 5130.69  166.08
   2  -1  -1 5561.64  167.98
   2  -1  -1 5177.28  165.78
  -2   1   1 5425.06  168.68
   1  -1  -1 3398.66  108.99
   1  -1  -1 3691.33  109.59
  -1   1   1 3299.87  109.99
   0  -1  -1  322.17   10.30
   0  -1  -1  324.87   10.50
   0   1   1  313.87   10.60
   1   1   1 1822.12   56.89
   1   1   1 1722.33   58.09
   1   1   1 1943.61   58.39
   2   1   1 9267.97  289.67
   2   1   1 9999.00  291.27
   2   1   1 8558.44  292.77
   2   1   1 9873.01  290.47
   2   1   1 8885.21  289.47
   3   1   1  522.75   16.30
   3   1   1  512.65   16.00
   3   1   1  514.55   17.50
   3   1   1  502.65   16.60
   3   1   1  508.15   16.20
   3   1   1  491.85   16.10
   4   1   1 1108.19   36.00
   4   1   1 1088.09   34.80
   4   1   1 1091.39   34.30
   4   1   1 1106.79   34.00
   4   1   1 1072.09   34.50
   4   1   1 1007.40   34.10
   4   1   1 1109.89   34.40
   4   1   1 1116.49   34.00
   5   1   1   18.50    2.00
   5   1   1   19.30    1.00
   5   1   1   16.70    1.20
   5   1   1   17.80    1.20
   5   1   1   17.70    1.30
   5   1   1   16.30    1.40
   5   1   1   17.70    1.00
   6   1   1  131.69    6.90
   6   1   1  143.49    5.20
   6   1   1  139.09    5.40
   6   1   1  142.39    4.70
   6   1   1  138.99    5.30
   6   1   1  123.09    4.70
   7   1   1   60.29    3.10
   7   1   1   62.39    3.20
   7   1   1   65.89    3.00
   7   1   1   64.69    4.70
   8   1   1   34.40    2.20
   8   1   1   35.90    2.30
   8   1   1   36.70    2.50
   8   1   1   31.20    3.50
   9   1   1    6.10    1.20
   9   1   1    8.90    1.40
   9   1   1    7.40    2.30
   9   1   1    8.50    1.50
  10   1   1   56.59    3.30
  10   1   1   49.30    3.30
  10   1   1   52.99    3.10
  10   1   1   51.19    5.20
  11   1   1    8.80    1.60
  11   1   1   11.00    1.70
  10  -2  -1  137.79    6.30
  10  -2  -1  137.39    6.20
  10  -2  -1  137.29    6.00
  10  -2  -1  130.29    6.40
   9  -2  -1  358.86   12.90
   9  -2  -1  347.67   12.60
   9  -2  -1  353.96   13.40
   9  -2  -1  347.57   12.80
   8  -2  -1  121.89    5.90
   8  -2  -1  116.29    5.30
   8  -2  -1  119.39    5.20
   8  -2  -1  124.39    5.40
   7  -2  -1  745.33   23.90
   7  -2  -1  725.63   24.00
   7  -2  -1  706.63   23.90
   7  -2  -1  730.63   24.80
   6  -2  -1  963.00   30.90
   6  -2  -1  967.10   31.80
   6  -2  -1  976.60   30.90
   6  -2  -1  928.21   30.80
   5  -2  -1   11.60    1.20
   5  -2  -1   11.40    1.10
   5  -2  -1   13.00    1.50
   5  -2  -1   12.20    1.20
   4  -2  -1 1512.65   47.00
   4  -2  -1 1496.05   47.90
   4  -2  -1 1511.15   46.90
   4  -2  -1 1484.05   46.90
  -4   2   1 1454.15   48.10
   3  -2  -1 1275.47   40.60
   3  -2  -1 1333.37   41.60
   3  -2  -1 1324.17   40.60
   3  -2  -1 1236.18   40.60
  -3   2   1 1298.17   41.90
   2  -2  -1   81.99    3.60
   2  -2  -1   79.29    2.80
  -2   2   1   74.19    3.70
   1  -2  -1   59.69    2.90
   1  -2  -1   64.59    2.70
  -1   2   1   68.79    3.20
   0  -2  -1 6108.19  188.28
   0  -2  -1 6268.97  189.48
   0   2   1 6130.59  187.48
   0   2   1 5477.05  188.58
  -1  -2  -1  268.87    9.40
  -1  -2  -1  274.17    8.90
   1   2   1  251.87    9.20
   1   2   1  285.57    9.30
   1   2   1  277.97    8.90
   2   2   1   26.40    1.30
   2   2   1   22.70    1.30
   2   2   1   27.70    1.40
   2   2   1   28.40    1.30
   2   2   1   28.90    1.20
   2   2   1   28.20    1.90
   3   2   1 1057.89   33.00
   3   2   1  950.90   31.30
   3   2   1  995.90   31.30
   3   2   1  990.90   31.80
   3   2   1  989.80   31.60
   3   2   1 1012.10   31.50
   4   2   1  454.85   15.30
   4   2   1  452.65   14.80
   4   2   1  458.65   14.80
   4   2   1  455.85   16.50
   4   2   1  455.35   15.00
   5   2   1   38.90    3.10
   5   2   1   35.60    1.90
   5   2   1   37.70    2.00
   5   2   1   40.70    2.40
   5   2   1   38.40    2.10
   6   2   1  245.78    8.90
   6   2   1  241.08    8.70
   6   2   1  251.27    9.40
   7   2   1   65.89    3.80
   7   2   1   67.39    3.30
   7   2   1   74.69    3.50
   7   2   1   64.89    3.20
   7   2   1   66.79    5.00
   8   2   1   25.50    1.90
   8   2   1   24.30    3.70
   8   2   1   28.00    2.00
   8   2   1   29.80    2.20
   9   2   1   -0.40    0.60
   9   2   1   -0.50    0.90
   9   2   1   -0.30    0.60
   9   2   1    0.20    0.70
  10   2   1   16.00    2.00
  10   2   1   20.00    2.20
  10   2   1   13.50    3.10
  10   2   1   19.60    2.40
  11   2   1    7.20    1.50
  11   2   1    6.50    1.50
  10  -3  -1    6.10    1.70
  10  -3  -1    7.20    1.50
  10  -3  -1    6.20    1.40
  10  -3  -1    7.00    1.50
   9  -3  -1   15.80    2.40
   9  -3  -1   15.90    2.00
   9  -3  -1   18.50    2.10
   9  -3  -1   13.90    1.80
   8  -3  -1   11.60    1.50
   8  -3  -1   11.60    1.40
   8  -3  -1   10.10    1.50
   8  -3  -1    9.40    1.90
   7  -3  -1    1.90    0.80
   7  -3  -1    2.90    0.90
   7  -3  -1    2.20    0.80
   7  -3  -1    1.90    1.10
   6  -3  -1  374.36   12.90
   6  -3  -1  373.96   12.80
   6  -3  -1  380.86   12.90
   6  -3  -1  378.06   14.10
   5  -3  -1    6.30    0.90
   5  -3  -1    4.70    0.80
   5  -3  -1    6.80    0.90
   5  -3  -1    5.40    1.30
  -5   3   1    6.60    1.50
   4  -3  -1    2.70    0.90
   4  -3  -1    4.70    0.70
   4  -3  -1    3.70    0.60
   4  -3  -1    4.40    0.60
  -4   3   1    2.10    0.90
   3  -3  -1  243.68    7.70
   3  -3  -1  233.18    7.70
   3  -3  -1  233.88    9.00
  -3   3   1  206.08    9.10
   2  -3  -1  586.44   18.20
   2  -3  -1  561.24   19.50
  -2   3   1  549.65   19.90
  -2   3   1  604.54   18.40
   1  -3  -1    1.90    0.20
   1  -3  -1    1.60    0.50
   1  -3  -1    2.00    0.70
  -1   3   1    3.00    0.80
   0  -3  -1 1047.50   33.60
   0  -3  -1 1068.99   34.10
   0   3   1 1016.60   34.40
   0   3   1 1101.09   33.40
  -1  -3  -1  442.86   14.70
  -1  -3  -1  452.05   14.40
   1   3   1  399.36   15.00
   1   3   1  442.76   14.40
   1   3   1  472.05   14.90
  -2  -3  -1    0.10    0.20
   2   3   1    0.00    0.20
   2   3   1    0.10    0.40
   2   3   1    0.70    0.40
   2   3   1    0.10    0.30
   3   3   1  491.85   17.20
   3   3   1  475.65   15.60
   3   3   1  488.35   15.80
   3   3   1  498.95   15.80
   3   3   1  459.05   16.00
   3   3   1  504.05   16.20
   4   3   1  846.42   25.80
   4   3   1  825.52   26.30
   4   3   1  805.92   27.70
   4   3   1  805.62   25.80
   4   3   1  797.82   25.50
   4   3   1  756.62   25.60
   5   3   1  346.87   11.60
   5   3   1  351.46   12.30
   5   3   1  322.57   13.60
   5   3   1  356.76   11.80
   6   3   1  260.17    9.40
   6   3   1  261.47    9.20
   6   3   1  258.57    9.20
   6   3   1  254.77    9.90
   6   3   1  266.07   11.60
   7   3   1   83.29    4.40
   7   3   1   75.39    5.60
   7   3   1   82.79    3.70
   7   3   1   82.59    3.90
   7   3   1   80.89    3.70
   8   3   1   35.10    2.40
   8   3   1   29.40    2.80
   8   3   1   34.90    2.40
   8   3   1   35.20    2.30
   8   3   1   32.50    3.70
   9   3   1   21.60    2.30
   9   3   1   16.60    3.20
   9   3   1   17.30    1.90
  10   3   1   52.19    3.20
  10   3   1   45.00    5.10
  10   3   1   52.69    3.40
  10  -4  -1   20.40    2.20
  10  -4  -1   20.20    2.30
  10  -4  -1   18.30    2.90
  10  -4  -1   22.30    2.50
   9  -4  -1    3.40    1.10
   9  -4  -1    4.90    1.70
   9  -4  -1    6.20    1.30
   9  -4  -1    3.50    1.00
   8  -4  -1   39.80    2.50
   8  -4  -1   45.60    2.70
   8  -4  -1   40.70    3.60
   8  -4  -1   38.90    2.60
   7  -4  -1    2.20    0.70
   7  -4  -1    1.90    0.70
   7  -4  -1    1.50    1.00
   7  -4  -1    2.70    0.80
   6  -4  -1  181.28    6.70
   6  -4  -1  171.78    8.10
   6  -4  -1  183.08    6.70
   6  -4  -1  178.18    6.60
   5  -4  -1   25.50    1.50
   5  -4  -1   26.30    1.60
   5  -4  -1   24.70    2.50
   5  -4  -1   26.60    1.60
  -5   4   1   23.30    2.60
   4  -4  -1  263.37   10.70
   4  -4  -1  262.17    9.00
   4  -4  -1  264.47    9.20
  -4   4   1  296.47   11.50
   3  -4  -1    0.10    0.30
   3  -4  -1   -0.30    0.20
   3  -4  -1   -0.30    0.40
  -3   4   1    2.30    1.00
   2  -4  -1   56.79    3.20
   2  -4  -1   46.90    1.80
   1  -4  -1   78.39    3.90
   1  -4  -1   76.79    3.50
  -1   4   1   72.29    4.20
   0  -4  -1  255.67    8.80
   0  -4  -1  244.48    9.20
   0   4   1  221.88    9.60
   0   4   1  263.67    8.50
  -1  -4  -1   34.90    2.10
  -1  -4  -1   34.80    1.90
   1   4   1   34.10    1.80
   1   4   1   37.30    2.20
   1   4   1   31.90    2.40
  -2  -4  -1 1638.84   50.69
   2   4   1 1629.44   50.39
   2   4   1 1608.84   50.89
   2   4   1 1627.64   51.79
   2   4   1 1549.74   51.59
  -3  -4  -1 1380.96   42.00
   3   4   1 1281.47   42.70
   3   4   1 1328.67   42.50
   3   4   1 1378.66   43.80
   3   4   1 1304.17   41.90
   3   4   1 1318.37   42.40
  -4  -4  -1  171.38    6.00
   4   4   1  159.28    6.00
   4   4   1  166.48    6.10
   4   4   1  161.98    6.60
   4   4   1  170.08    7.80
   4   4   1  180.18    6.40
   4   4   1  161.48    6.10
  -5  -4  -1   57.29    2.60
   5   4   1   53.79    3.10
   5   4   1   56.29    2.80
   5   4   1   58.99    4.20
   5   4   1   57.39    2.40
   5   4   1   56.49    2.60
   5   4   1   58.29    2.50
   5   4   1   54.39    2.50
   6   4   1  381.66   13.10
   6   4   1  383.46   13.30
   6   4   1  388.76   14.00
   6   4   1  387.46   15.90
   7   4   1   30.80    2.20
   7   4   1   35.80    2.20
   7   4   1   32.50    3.60
   7   4   1   27.40    2.60
   8   4   1    4.00    1.00
   8   4   1    7.80    2.40
   8   4   1    3.60    1.30
   8   4   1    7.20    1.40
   9   4   1   94.99    4.80
   9   4   1   94.89    7.20
   9   4   1   96.19    4.60
   9   4   1   94.19    5.50
  10   4   1   36.80    2.80
  10   4   1   38.00    3.00
  10  -5  -1   56.79    4.80
  10  -5  -1   57.89    3.60
  10  -5  -1   60.79    3.60
   9  -5  -1    4.00    1.70
   9  -5  -1    3.90    1.10
   9  -5  -1    2.30    0.90
   8  -5  -1   44.00    4.00
   8  -5  -1   42.50    2.70
   8  -5  -1   40.30    2.60
   7  -5  -1   18.40    2.80
   7  -5  -1   21.40    1.70
   7  -5  -1   20.50    1.60
   7  -5  -1   22.60    1.90
   6  -5  -1   10.70    1.20
   6  -5  -1   11.00    1.20
   6  -5  -1   13.60    1.40
   6  -5  -1   10.10    2.00
   5  -5  -1  104.89    5.90
   5  -5  -1  107.49    4.10
   5  -5  -1  106.29    4.30
   5  -5  -1  113.09    4.30
  -5   5   1  100.49    6.90
   4  -5  -1  248.28    8.00
   4  -5  -1  245.68    8.30
   4  -5  -1  244.68   10.20
  -4   5   1  218.88   10.60
   3  -5  -1   72.69    2.90
   3  -5  -1   75.69    4.40
   3  -5  -1   74.59    2.60
  -3   5   1   69.79    4.80
   2  -5  -1  344.27   13.00
  -2   5   1  341.97   13.80
   1  -5  -1  278.77   10.90
  -1   5   1  286.57   11.70
   0  -5  -1  200.88    7.40
   0   5   1  193.38    8.60
  -1  -5  -1   66.69    3.20
  -1  -5  -1   70.09    3.70
   1   5   1   68.89    3.20
   1   5   1   66.69    4.10
   1   5   1   75.39    3.60
  -2  -5  -1   -0.50    0.30
  -2  -5  -1   -0.30    0.40
   2   5   1    0.00    0.50
   2   5   1    0.00    0.50
   2   5   1   -0.10    0.40
  -3  -5  -1  849.91   26.90
   3   5   1  801.02   28.00
   3   5   1  871.21   28.90
   3   5   1  838.22   27.50
   3   5   1  835.32   26.70
  -4  -5  -1   44.60    2.10
   4   5   1   39.60    2.10
   4   5   1   43.50    2.70
   4   5   1   42.10    2.70
   4   5   1   36.40    3.30
   5   5   1  223.08   10.40
   5   5   1  221.48    8.30
   5   5   1  229.78    8.20
   5   5   1  228.68    8.90
   6   5   1  256.47   11.90
   6   5   1  262.37    9.20
   6   5   1  252.77    9.40
   6   5   1  261.27    8.80
   6   5   1  257.27   10.20
   7   5   1   20.90    2.10
   7   5   1   21.70    3.40
   7   5   1   18.50    1.80
   7   5   1   23.80    2.70
   8   5   1    9.40    1.90
   8   5   1    6.00    2.40
   8   5   1    7.90    1.30
   8   5   1    6.90    1.40
   9   5   1   69.79    4.10
   9   5   1   81.19    5.10
   9   5   1   73.49    3.90
  10   5   1    0.50    1.30
   9  -6  -1    2.30    1.50
   9  -6  -1    0.90    0.80
   9  -6  -1    1.10    0.80
   8  -6  -1    1.90    0.80
   8  -6  -1    2.90    0.90
   8  -6  -1    3.20    1.70
   7  -6  -1  135.69    5.60
   7  -6  -1  139.69    5.70
   7  -6  -1  138.59    7.80
   6  -6  -1  260.67    9.20
   6  -6  -1  256.67   11.70
   6  -6  -1  264.77    9.30
   5  -6  -1  140.19    5.30
   5  -6  -1  138.79    5.40
   5  -6  -1  147.89    7.60
   4  -6  -1   27.00    2.90
   4  -6  -1   30.10    1.60
  -4   6   1   28.60    3.20
   3  -6  -1  140.59    7.10
   3  -6  -1  142.89    5.10
  -3   6   1  146.69    7.90
   2  -6  -1  205.58    9.00
  -2   6   1  201.48    9.70
  -1   6   1  502.85   19.20
   0   6   1   65.49    4.50
  -1  -6  -1    3.70    1.00
  -1  -6  -1    4.50    0.90
   1   6   1    3.90    1.20
   1   6   1    3.40    0.80
  -2  -6  -1   59.89    3.90
  -2  -6  -1   58.19    2.90
   2   6   1   61.19    3.70
   2   6   1   55.79    3.10
   2   6   1   59.69    3.90
  -3  -6  -1   49.70    2.40
   3   6   1   50.59    2.90
   3   6   1   41.60    3.20
   3   6   1   51.49    3.60
   3   6   1   47.10    2.20
   4   6   1    4.10    1.10
   4   6   1    5.80    1.20
   4   6   1    4.60    0.80
   4   6   1    7.70    1.80
   5   6   1   54.99    3.30
   5   6   1   57.09    2.80
   5   6   1   54.49    3.40
   5   6   1   50.09    4.30
   6   6   1   74.29    4.30
   6   6   1   70.59    5.50
   6   6   1   78.99    3.70
   6   6   1   73.19    3.70
   7   6   1   19.40    2.60
   7   6   1   13.60    3.00
   7   6   1   18.50    2.00
   8   6   1    6.10    1.40
   8   6   1    8.80    2.00
   9   6   1   27.70    3.30
   9   6   1   21.20    2.40
   9  -7  -1   57.59    5.30
   8  -7  -1    3.40    1.70
   8  -7  -1    3.40    1.80
   7  -7  -1  135.19    5.60
   7  -7  -1  131.19    8.00
   6  -7  -1  111.39    4.70
   6  -7  -1  111.49    7.00
   5  -7  -1  454.15   18.00
   5  -7  -1  443.96   15.00
   4  -7  -1   32.10    3.40
  -4   7   1   30.00    3.70
   3  -7  -1    0.10    1.00
  -3   7   1    0.50    1.00
   2  -7  -1  395.96   15.70
  -2   7   1  402.86   16.70
   1  -7  -1 1172.08   40.00
  -1   7   1 1205.88   41.30
   0  -7  -1    0.40    0.70
   0   7   1   -0.20    0.80
  -1  -7  -1  149.19    7.20
   1   7   1  147.99    6.30
   1   7   1  159.38    7.90
   2   7   1   90.29    5.50
   2   7   1   90.99    4.50
   3   7   1   26.30    2.20
   3   7   1   26.40    2.70
   4   7   1   25.50    2.50
   4   7   1   23.60    2.50
   5   7   1   48.20    3.40
   5   7   1   51.99    2.70
   5   7   1   53.99    3.50
   5   7   1   50.89    3.60
   6   7   1    7.40    1.50
   6   7   1    7.00    1.60
   6   7   1    9.20    1.40
   7   7   1    0.80    1.00
   7   7   1   -0.80    0.60
   8   7   1  131.29    6.90
   9   7   1   -0.10    1.30
   8  -8  -1    4.10    2.10
   7  -8  -1    7.90    2.50
   6  -8  -1   90.89    6.60
   5  -8  -1   39.10    3.60
   5  -8  -1   43.70    4.40
   4  -8  -1   40.70    4.00
  -4   8   1   41.70    4.70
   3  -8  -1  101.19    6.50
  -3   8   1  106.79    7.50
   2  -8  -1   68.69    5.00
  -2   8   1   79.59    6.00
  -1   8   1  124.19    7.70
   0  -8  -1  366.16   15.70
   0   8   1  390.36   16.30
   1   8   1   72.29    3.90
   1   8   1   63.29    5.10
   2   8   1  550.14   20.70
   2   8   1  514.25   18.60
   3   8   1    2.40    1.00
   3   8   1    1.00    0.90
   4   8   1   14.40    2.00
   4   8   1   13.30    2.20
   5   8   1   64.49    4.30
   5   8   1   62.79    4.40
   5   8   1   68.59    4.30
   6   8   1   17.30    2.50
   6   8   1   15.80    2.30
   7   8   1   17.10    2.60
   8   8   1   94.39    5.90
   7  -9  -1   20.30    4.00
   6  -9  -1   79.49    6.40
   5  -9  -1   44.30    4.80
   4  -9  -1    3.80    1.90
  -4   9   1    4.50    2.20
   3  -9  -1  259.17   12.50
  -3   9   1  278.57   14.00
   2  -9  -1  283.37   13.20
  -2   9   1  313.37   14.80
  -1   9   1   18.20    3.50
   0   9   1  377.26   16.30
   0   9   1  340.47   13.20
   1   9   1    2.30    1.00
   1   9   1    6.00    1.90
   2   9   1   39.80    4.00
   2   9   1   40.00    3.00
   3   9   1    2.20    1.20
   3   9   1    2.50    1.10
   4   9   1    8.50    1.70
   4   9   1    6.10    1.80
   5   9   1   22.20    3.20
   5   9   1   31.20    3.10
   5   9   1   25.40    3.00
   6   9   1    8.10    2.00
   6   9   1    8.10    2.00
   7   9   1    3.10    1.40
   6 -10  -1    7.20    2.80
   5 -10  -1    9.80    2.90
   4 -10  -1    0.70    1.50
  -4  10   1   -0.40    1.40
  -3  10   1  186.98   11.30
  -2  10   1   -0.40    1.20
  -1  10   1   14.30    3.40
   0  10   1  210.18   11.20
   0  10   1  190.18    8.50
   1  10   1  126.09    8.00
   1  10   1  120.39    6.10
   2  10   1   10.80    1.90
   2  10   1    7.70    2.30
   3  10   1    8.80    2.40
   3  10   1   12.70    2.10
   4  10   1   89.79    6.00
   4  10   1   65.69    5.60
   4  10   1   82.29    5.00
   5  10   1   13.40    2.50
   5  10   1   15.80    3.00
   5  10   1   20.00    3.10
   6  10   1    9.50    2.30
   6  10   1    8.50    2.10
   5 -11  -1   34.40    5.10
   4 -11  -1    2.20    2.00
  -4  11   1    4.60    2.40
  -3  11   1    3.00    2.10
  -2  11   1    3.40    2.20
  -1  11   1   75.89    6.70
   0  11   1  264.67   13.50
   0  11   1  240.88   10.50
   1  11   1  112.69    8.00
   1  11   1  101.59    5.80
   2  11   1   28.90    4.30
   2  11   1   21.70    2.80
   3  11   1  167.38   10.30
   3  11   1  194.98   10.30
   3  11   1  170.68    8.30
   4  11   1   58.89    4.40
   4  11   1   55.69    5.30
   4  11   1   51.69    4.90
  -2  12   1   97.09    8.50
  -1  12   1  167.78    8.40
  -1  12   1  202.98   12.20
   0  12   1    7.20    2.70
   0  12   1    9.30    2.00
   1  12   1    8.60    2.80
   1  12   1   11.90    2.20
   2  12   1   63.59    4.60
   3  11  -2   43.20    5.10
   3  11  -2   53.19    4.30
   2  11  -2  175.28   10.80
   2  11  -2  159.58    8.30
   1  11  -2    1.80    1.40
   1  11  -2    1.70    1.90
   0  11  -2  179.08   11.60
   0  11  -2  189.28    8.90
  -1  11  -2   42.50    6.30
  -2  11  -2   78.09    7.80
  -3  11  -2   21.60    4.80
  -4  11  -2   11.10    3.80
   5  10  -2   14.70    3.10
   5  10  -2   15.80    2.70
   4  10  -2   19.90    2.90
   4  10  -2   17.80    3.50
   3  10  -2   15.10    2.50
   3  10  -2   10.50    2.80
   2  10  -2   21.30    3.90
   2  10  -2   21.70    2.80
   1  10  -2   10.90    3.00
   1  10  -2    8.60    1.80
   0  10  -2   23.30    4.30
  -1  10  -2  105.79    8.30
  -2  10  -2   66.79    6.80
  -2  10  -2   74.39    6.60
  -3  10  -2   69.59    7.00
  -3  10  -2   73.49    6.70
  -4  10  -2   58.49    6.70
   4 -10   2   57.29    5.40
   5 -10   2   31.40    4.70
   6 -10   2    4.50    2.40
   6   9  -2   20.20    3.00
   6   9  -2   21.60    3.30
   5   9  -2   62.09    5.10
   5   9  -2   63.29    4.60
   4   9  -2    5.60    1.60
   4   9  -2    5.50    1.90
   3   9  -2  117.99    6.10
   3   9  -2  101.79    7.10
   2   9  -2   70.79    4.40
   2   9  -2   70.39    5.90
   1   9  -2   53.69    3.70
   1   9  -2   49.90    5.10
   0   9  -2   79.29    6.50
  -1   9  -2  141.99    8.80
  -1   9  -2  131.19    9.00
  -2   9  -2  189.08   10.50
  -2   9  -2  167.28   10.50
   2  -9   2  156.98    8.90
  -3   9  -2  137.69    9.10
  -3   9  -2  136.19    9.40
   3  -9   2  133.39    8.00
  -4   9  -2  104.09    8.30
   4  -9   2  111.79    7.30
   5  -9   2    4.90    2.00
   6  -9   2  253.47   12.90
   7  -9   2   15.50    3.40
   7   8  -2  125.49    7.00
   7   8  -2  125.99    5.80
   6   8  -2  116.69    6.50
   6   8  -2  114.79    6.40
   5   8  -2   -0.50    0.90
   5   8  -2   -1.30    0.70
   4   8  -2   17.70    2.40
   4   8  -2   22.30    3.30
   3   8  -2    6.30    1.50
   3   8  -2    4.40    1.70
   2   8  -2    9.30    2.30
   2   8  -2   10.00    1.80
   1   8  -2    1.70    1.30
   1   8  -2    1.70    1.00
   0   8  -2  120.19    7.60
   0   8  -2  100.49    6.80
  -1   8  -2    3.90    1.70
  -1   8  -2    5.40    2.00
   1  -8   2    6.80    1.90
  -2   8  -2  349.37   15.10
  -2   8  -2  296.07   14.90
   2  -8   2  303.77   13.40
  -3   8  -2    0.60    1.30
  -3   8  -2    5.00    2.20
   3  -8   2    3.90    1.80
  -4   8  -2    3.30    2.00
  -4   8  -2    6.20    2.30
   4  -8   2    4.60    1.80
   5  -8   2   45.50    4.40
   6  -8   2  111.59    7.40
   7  -8   2   13.90    3.10
   8  -8   2    9.40    2.70
   8   7  -2   41.90    3.00
   8   7  -2   31.80    3.70
   7   7  -2  113.49    6.10
   7   7  -2   94.29    4.90
   6   7  -2   18.60    2.50
   6   7  -2   16.90    2.50
   6   7  -2   20.00    2.00
   5   7  -2   23.30    2.80
   5   7  -2   18.80    2.70
   5   7  -2   18.00    1.90
   4   7  -2    6.70    1.80
   4   7  -2    6.50    1.10
   4   7  -2    5.10    1.30
   3   7  -2  158.68    8.30
   3   7  -2  167.48    7.30
   3   7  -2  159.38    6.10
   2   7  -2   11.20    2.30
   2   7  -2   12.20    1.80
   1   7  -2  250.27   11.70
   1   7  -2  247.88    9.80
   0   7  -2  143.09    7.60
   0   7  -2  117.29    7.30
   0  -7   2  116.09    6.40
  -1   7  -2   62.39    5.00
  -1   7  -2   67.29    5.40
   1  -7   2   70.39    4.60
  -2   7  -2  320.17   14.40
  -2   7  -2  327.47   14.90
   2  -7   2  329.67   13.50
  -3   7  -2  368.46   16.90
  -3   7  -2  424.56   17.00
   3  -7   2  374.36   15.50
  -4   7  -2  100.59    7.10
  -4   7  -2   86.29    6.40
   4  -7   2   87.99    5.80
  -5   7  -2    8.80    2.60
   5  -7   2   10.00    2.40
   6  -7   2  125.59    7.50
   7  -7   2    1.30    1.60
   8  -7   2   21.50    3.60
   9  -7   2   55.79    5.20
   9   6  -2    1.80    1.10
   9   6  -2    1.00    1.30
   8   6  -2   55.09    4.10
   8   6  -2   51.89    3.40
   8   6  -2   52.69    3.10
   7   6  -2   86.49    3.90
   7   6  -2   72.49    4.80
   7   6  -2   74.79    4.10
   6   6  -2  168.78    6.40
   6   6  -2  161.38    7.20
   6   6  -2  167.68    6.80
   6   6  -2  156.18    7.50
   5   6  -2   69.39    3.50
   5   6  -2   66.49    3.10
   5   6  -2   66.99    4.30
   5   6  -2   69.69    4.20
   4   6  -2  856.81   28.20
   4   6  -2  885.51   29.60
   4   6  -2  895.71   28.60
   4   6  -2  891.81   30.50
   3   6  -2  705.43   23.00
   3   6  -2  704.03   24.10
   3   6  -2  730.03   22.60
   3   6  -2  692.63   25.30
   2   6  -2    0.70    0.40
   2   6  -2    1.00    0.90
   2   6  -2    0.20    0.60
   1   6  -2  410.36   13.40
   1   6  -2  410.96   16.40
  -1  -6   2  409.86   15.20
   0   6  -2  240.08   10.80
   0   6  -2  235.98    7.50
   0   6  -2  196.38   10.00
   0  -6   2  238.58    9.70
  -1   6  -2  124.29    6.80
  -1   6  -2  114.59    6.90
   1  -6   2  107.59    5.80
  -2   6  -2  113.39    6.80
  -2   6  -2  115.89    7.10
   2  -6   2  116.79    6.10
  -3   6  -2  319.17   14.00
  -3   6  -2  290.57   13.20
   3  -6   2  305.67   12.50
  -4   6  -2  321.97   15.10
  -4   6  -2  359.36   15.00
   4  -6   2  358.46   14.20
  -5   6  -2  676.93   25.50
  -5   6  -2  633.24   24.70
   5  -6   2  640.74   23.80
   6  -6   2    0.70    1.30
   7  -6   2    7.90    2.20
   8  -6   2  228.28   11.10
   9  -6   2   10.90    2.70
   9   5  -2  107.89    5.60
   9   5  -2  109.49    6.30
   9   5  -2  118.19    5.40
   8   5  -2  375.06   15.00
   8   5  -2  388.36   13.70
   8   5  -2  387.76   13.80
   8   5  -2  399.26   14.30
   7   5  -2   37.70    3.20
   7   5  -2   36.30    2.70
   7   5  -2   38.00    2.50
   7   5  -2   38.40    2.50
   6   5  -2  862.31   27.50
   6   5  -2  821.92   27.90
   6   5  -2  842.12   28.70
   6   5  -2  844.32   27.90
   6   5  -2  849.91   27.40
   5   5  -2  379.46   14.10
   5   5  -2  394.06   13.10
   5   5  -2  394.96   13.50
   5   5  -2  381.26   13.00
   5   5  -2  380.96   14.20
   4   5  -2  204.68    7.30
   4   5  -2  216.18    8.40
   4   5  -2  208.88    8.80
   4   5  -2  199.88    7.60
   3   5  -2  102.19    4.00
   3   5  -2  104.19    4.70
   3   5  -2   95.89    5.20
   3   5  -2   89.89    3.60
   2   5  -2  699.83   22.30
   2   5  -2  687.03   22.60
   2   5  -2  706.33   23.50
   2   5  -2  732.43   24.90
  -2  -5   2  694.63   23.70
   1   5  -2  310.17   12.60
   1   5  -2  301.17   10.20
   1   5  -2  309.17    9.80
  -1  -5   2  313.67   11.60
   0   5  -2  537.05   19.50
   0   5  -2  501.35   16.50
   0   5  -2  522.15   19.10
  -1   5  -2  304.47   12.40
  -1   5  -2  265.97   11.70
   1  -5   2  286.87   11.10
  -2   5  -2  308.27   13.00
  -2   5  -2  308.17   12.60
   2  -5   2  284.77   11.70
  -3   5  -2    9.70    2.00
  -3   5  -2   10.30    2.30
   3  -5   2   11.60    1.90
   3  -5   2    7.80    0.60
  -4   5  -2  208.08   10.20
  -4   5  -2  205.68    9.80
   4  -5   2  208.58    7.80
   4  -5   2  216.98    6.90
   4  -5   2  200.98    6.80
   4  -5   2  196.28    9.00
  -5   5  -2  209.38   10.50
  -5   5  -2  215.38   10.20
   5  -5   2  218.18    9.60
   5  -5   2  212.38    7.30
   5  -5   2  220.28    7.40
   5  -5   2  216.78    9.60
   6  -5   2   22.40    2.70
   6  -5   2   22.10    1.40
   6  -5   2   26.20    1.50
   7  -5   2    1.10    0.60
   7  -5   2   -0.30    0.40
   7  -5   2   -0.30    0.90
   8  -5   2   36.80    2.30
   8  -5   2   36.60    3.70
   9  -5   2   19.40    3.10
  10  -5   2    4.80    2.00
  10   4  -2   25.00    2.50
   9   4  -2   39.60    2.80
   9   4  -2   40.40    2.80
   9   4  -2   44.20    3.70
   9   4  -2   41.70    3.10
   8   4  -2    0.60    0.80
   8   4  -2   -0.30    1.00
   8   4  -2    1.00    0.80
   8   4  -2    1.40    0.90
   7   4  -2   25.20    2.70
   7   4  -2   26.90    1.90
   7   4  -2   24.90    1.90
   7   4  -2   26.00    1.80
   6   4  -2  237.28    8.80
   6   4  -2  244.68    9.10
   6   4  -2  235.08    9.60
   6   4  -2  237.28    8.70
   6   4  -2  244.18    8.60
   5   4  -2  607.44   20.40
   5   4  -2  628.04   21.10
   5   4  -2  618.74   20.80
   5   4  -2  612.74   20.00
   5   4  -2  595.54   20.00
   4   4  -2   35.90    1.80
   4   4  -2   36.90    2.10
   4   4  -2   32.60    2.40
   4   4  -2   36.50    1.90
   4   4  -2   33.40    2.50
   3   4  -2  448.26   15.10
   3   4  -2  461.65   15.80
   3   4  -2  459.25   16.40
   3   4  -2  457.75   14.90
   3   4  -2  465.65   14.90
   2   4  -2  985.00   32.10
   2   4  -2 1034.40   31.80
   2   4  -2 1007.70   32.70
   2   4  -2 1015.80   33.80
  -2  -4   2 1014.80   32.90
   1   4  -2 1383.96   44.50
   1   4  -2 1274.67   42.30
   1   4  -2 1343.47   42.00
  -1  -4   2 1394.76   43.60
   0   4  -2  452.05   16.80
   0  -4   2  456.25   16.00
  -1   4  -2 1082.69   34.90
  -1   4  -2  951.30   34.20
   1  -4   2 1034.40   33.70
  -2   4  -2   30.00    2.80
  -2   4  -2   29.20    2.60
   2  -4   2   28.90    2.30
   2  -4   2   27.90    1.10
  -3   4  -2  362.56   14.70
  -3   4  -2  362.96   14.40
   3  -4   2  370.16   11.80
   3  -4   2  366.96   13.70
   3  -4   2  378.86   11.80
  -4   4  -2  151.68    7.70
  -4   4  -2  147.49    7.40
   4  -4   2  150.28    5.20
   4  -4   2  147.99    6.90
   4  -4   2  151.28    6.10
   4  -4   2  150.78    5.10
  -5   4  -2  208.38    9.90
   5  -4   2  206.88    9.00
   5  -4   2  222.68    8.50
   5  -4   2  201.98    7.20
   5  -4   2  212.18    7.20
   6  -4   2    0.30    0.40
   6  -4   2    0.70    0.90
   6  -4   2    1.60    0.90
   6  -4   2    0.90    0.50
   7  -4   2   73.29    4.80
   7  -4   2   76.39    3.40
   7  -4   2   71.69    3.30
   7  -4   2   78.19    4.70
   8  -4   2   75.79    3.60
   8  -4   2   73.69    4.90
   8  -4   2   74.49    3.40
   9  -4   2   -0.60    0.50
   9  -4   2    0.20    0.60
   9  -4   2   -0.60    0.90
  10  -4   2    3.40    1.00
  10  -4   2    1.60    1.00
  10  -4   2    3.00    1.50
  10   3  -2   -0.80    0.80
  10   3  -2    0.70    0.80
  10   3  -2    0.70    1.00
   9   3  -2   35.40    2.60
   9   3  -2   39.40    2.70
   9   3  -2   30.30    3.20
   9   3  -2   33.20    2.80
   8   3  -2   16.60    1.80
   8   3  -2   15.50    2.00
   8   3  -2   13.10    1.60
   8   3  -2   15.90    2.20
   7   3  -2   13.30    1.60
   7   3  -2   17.10    2.20
   7   3  -2   13.30    1.50
   7   3  -2   17.30    1.10
   7   3  -2   14.50    1.80
   6   3  -2    0.10    0.60
   6   3  -2    0.10    0.50
   6   3  -2    0.30    0.50
   6   3  -2   -0.50    0.50
   6   3  -2    0.90    0.50
   5   3  -2  394.26   13.60
   5   3  -2  391.56   13.20
   5   3  -2  409.56   14.10
   5   3  -2  395.26   13.60
   5   3  -2  383.26   13.30
   4   3  -2   17.30    1.40
   4   3  -2   18.60    1.30
   4   3  -2   17.60    1.60
   4   3  -2   18.50    1.60
   4   3  -2   18.20    1.20
   3   3  -2  993.70   32.10
   3   3  -2  995.10   31.40
   3   3  -2  993.40   31.70
   3   3  -2  983.40   32.50
   3   3  -2  999.80   31.40
   2   3  -2  485.25   16.70
   2   3  -2  490.05   16.00
   2   3  -2  477.95   15.30
   2   3  -2  479.15   15.30
   2   3  -2  478.05   15.50
  -2  -3   2  458.35   16.00
   1   3  -2  912.51   29.50
   1   3  -2  964.30   31.10
   1   3  -2  946.71   29.30
   1   3  -2  904.41   29.20
  -1  -3   2  948.61   30.40
   0   3  -2  251.07    8.10
   0   3  -2  272.77   10.20
   0  -3   2  251.57    9.40
  -1   3  -2 4088.19  129.59
   1  -3   2 4127.49  130.19
  -2   3  -2  270.07   10.90
   2  -3   2  265.57    8.50
   2  -3   2  273.47   10.10
  -3   3  -2   29.10    2.60
   3  -3   2   25.10    1.20
   3  -3   2   27.30    1.70
   3  -3   2   27.00    1.10
   3  -3   2   24.90    2.10
  -4   3  -2    3.80    1.20
   4  -3   2    3.90    0.50
   4  -3   2    3.90    0.90
   4  -3   2    3.90    1.00
   4  -3   2    4.40    0.60
  -5   3  -2  107.89    6.00
   5  -3   2  114.39    5.50
   5  -3   2  113.49    4.20
   5  -3   2  116.69    4.20
   5  -3   2  110.89    5.30
   6  -3   2   10.20    1.80
   6  -3   2   11.20    1.10
   6  -3   2   10.10    1.70
   6  -3   2   10.60    1.10
   7  -3   2   90.69    5.30
   7  -3   2   93.19    3.80
   7  -3   2   88.89    3.90
   7  -3   2   93.59    5.10
   8  -3   2   12.00    1.40
   8  -3   2   14.60    1.40
   8  -3   2   12.70    2.10
   8  -3   2   13.10    2.40
   9  -3   2    0.50    0.60
   9  -3   2    2.50    1.50
   9  -3   2    1.10    0.70
   9  -3   2    1.20    1.10
  10  -3   2  144.39    5.90
  10  -3   2  128.29    5.90
  10  -3   2  144.29    7.20
  11  -3   2   71.99    3.90
  10   2  -2   40.10    3.10
  10   2  -2   35.80    2.80
  10   2  -2   45.80    3.10
   9   2  -2  243.08    9.50
   9   2  -2  241.38    9.30
   9   2  -2  239.48    9.70
   8   2  -2    0.10    0.70
   8   2  -2    0.80    1.00
   8   2  -2   -0.60    0.50
   8   2  -2   -0.40    0.70
   7   2  -2  103.09    4.00
   7   2  -2  101.09    5.00
   7   2  -2   96.79    4.30
   7   2  -2   98.39    4.70
   7   2  -2   96.29    4.40
   6   2  -2   14.00    1.70
   6   2  -2   13.70    1.30
   6   2  -2   14.40    1.50
   6   2  -2   13.80    1.20
   6   2  -2   14.80    1.70
   5   2  -2  105.49    4.10
   5   2  -2   99.79    4.30
   5   2  -2  105.49    4.20
   5   2  -2  104.09    4.40
   5   2  -2  100.49    4.60
   5   2  -2   98.29    4.30
   4   2  -2   97.69    3.80
   4   2  -2   94.39    3.90
   4   2  -2   99.29    4.20
   4   2  -2  102.09    4.10
   4   2  -2   93.79    3.80
   3   2  -2  755.02   24.30
   3   2  -2  745.53   24.00
   3   2  -2  753.52   24.90
   3   2  -2  752.12   24.10
   3   2  -2  773.72   24.60
   3   2  -2  760.62   24.80
   2   2  -2    1.90    0.50
   2   2  -2    2.80    0.50
   2   2  -2    1.80    0.40
   2   2  -2    1.60    0.60
   1   2  -2  777.02   25.70
   1   2  -2  790.12   24.40
   1   2  -2  764.42   24.50
  -1  -2   2  789.92   25.20
   0   2  -2  218.78    8.40
   0   2  -2  211.38    6.80
   0  -2   2  215.38    7.90
  -1   2  -2    0.20    0.50
   1  -2   2    0.10    0.40
  -2   2  -2  391.56   14.20
   2  -2   2  395.96   12.30
   2  -2   2  388.96   13.60
  -3   2  -2   41.60    2.90
   3  -2   2   42.30    2.40
   3  -2   2   44.00    1.70
   3  -2   2   42.90    1.70
  -4   2  -2  542.35   19.20
   4  -2   2  551.84   18.60
   4  -2   2  540.45   17.40
   4  -2   2  538.85   18.50
   4  -2   2  539.45   17.30
  -5   2  -2  201.18    8.80
   5  -2   2  220.48    8.70
   5  -2   2  212.28    7.30
   5  -2   2  202.98    8.30
   5  -2   2  214.18    7.20
   6  -2   2  203.28    7.20
   6  -2   2  209.78    8.40
   6  -2   2  202.18    7.30
   6  -2   2  208.58    9.00
   7  -2   2   99.19    4.10
   7  -2   2   98.69    5.10
   7  -2   2   99.29    4.20
   7  -2   2  105.39    5.90
   8  -2   2   74.19    3.50
   8  -2   2   69.29    4.20
   8  -2   2   68.19    3.30
   8  -2   2   67.99    4.90
   9  -2   2   75.79    3.70
   9  -2   2   77.79    3.90
   9  -2   2   78.79    4.50
   9  -2   2   77.29    5.70
  10  -2   2  252.07    9.60
  10  -2   2  259.97   12.70
  10  -2   2  243.98    9.70
  10  -2   2  264.07   10.50
  11  -2   2   14.20    2.20
  11  -2   2   15.80    2.10
  11  -2   2   14.40    1.90
  10   1  -2    8.80    1.70
  10   1  -2    8.30    1.60
  10   1  -2    9.00    1.60
   9   1  -2  150.68    6.80
   9   1  -2  145.99    6.30
   9   1  -2  149.88    6.50
   8   1  -2   13.20    1.80
   8   1  -2   14.80    1.30
   8   1  -2   17.00    1.80
   8   1  -2   15.30    1.80
   7   1  -2   67.99    3.80
   7   1  -2   65.89    3.50
   7   1  -2   69.59    3.40
   7   1  -2   67.39    3.20
   7   1  -2   68.79    3.40
   6   1  -2   44.10    2.80
   6   1  -2   48.60    2.60
   6   1  -2   47.20    2.50
   6   1  -2   48.00    2.70
   6   1  -2   45.30    2.40
   5   1  -2   66.99    3.10
   5   1  -2   67.59    3.30
   5   1  -2   76.09    3.40
   5   1  -2   71.59    3.20
   5   1  -2   72.59    3.10
   5   1  -2   74.99    3.60
   4   1  -2   24.30    1.40
   4   1  -2   22.70    1.60
   4   1  -2   25.30    1.40
   4   1  -2   24.10    1.60
   4   1  -2   23.20    1.50
   4   1  -2   22.90    1.50
   3   1  -2  141.79    5.40
   3   1  -2  128.99    5.50
   3   1  -2  136.69    5.00
   3   1  -2  135.29    4.80
   3   1  -2  141.09    5.20
   3   1  -2  130.79    4.80
   2   1  -2  140.09    5.00
   2   1  -2  139.99    4.80
   2   1  -2  137.39    5.00
   2   1  -2  144.29    4.70
   2   1  -2  139.59    5.50
   2   1  -2  136.89    4.80
   1   1  -2  527.15   16.80
   1   1  -2  511.85   16.50
   1   1  -2  523.25   17.50
  -1  -1   2  537.85   17.20
   0   1  -2 2064.89   65.09
   0  -1   2 2057.29   64.69
  -1   1  -2   81.29    3.70
   1  -1   2   81.69    3.40
  -2   1  -2   34.50    2.20
   2  -1   2   32.90    1.90
  -3   1  -2  184.38    7.20
   3  -1   2  189.08    7.10
   3  -1   2  181.88    6.80
   3  -1   2  179.58    6.00
   3  -1   2  178.38    6.10
  -4   1  -2  615.74   21.50
   4  -1   2  667.93   21.80
   4  -1   2  631.94   20.40
   4  -1   2  653.83   21.20
   4  -1   2  627.44   20.30
   5  -1   2   35.80    1.80
   5  -1   2   35.50    2.30
   5  -1   2   35.00    2.70
   5  -1   2   35.00    1.70
   6  -1   2    5.60    0.80
   6  -1   2    6.70    1.50
   6  -1   2    6.20    1.10
   6  -1   2    7.10    0.90
   7  -1   2  142.79    5.40
   7  -1   2  142.99    6.00
   7  -1   2  131.69    7.10
   7  -1   2  141.09    5.50
   8  -1   2   69.19    3.80
   8  -1   2   66.99    5.00
   8  -1   2   63.69    3.30
   8  -1   2   72.09    3.30
   9  -1   2   12.80    1.50
   9  -1   2   11.30    2.60
   9  -1   2   11.50    1.60
   9  -1   2   11.60    1.70
  10  -1   2  129.89    5.70
  10  -1   2  121.19    8.00
  10  -1   2  126.29    5.70
  10  -1   2  113.49    5.30
  11  -1   2   31.60    4.80
  11  -1   2   32.90    2.50
  11  -1   2   29.10    2.80
  10   0  -2   49.40    3.40
  10   0  -2   42.60    3.10
  10   0  -2   44.40    3.10
   9   0  -2   21.50    2.20
   9   0  -2   20.00    2.30
   9   0  -2   23.10    1.90
   9   0  -2   18.00    2.00
   8   0  -2   45.10    2.80
   8   0  -2   42.20    2.80
   8   0  -2   42.80    2.60
   8   0  -2   39.70    2.60
   7   0  -2   53.19    2.80
   7   0  -2   46.20    2.80
   7   0  -2   51.89    2.70
   7   0  -2   44.70    2.80
   6   0  -2  448.96   15.00
   6   0  -2  433.36   15.10
   6   0  -2  443.36   14.90
   6   0  -2  446.96   15.30
   5   0  -2   56.59    2.60
   5   0  -2   53.89    2.90
   5   0  -2   58.29    2.70
   5   0  -2   60.79    3.10
   5   0  -2   57.19    2.90
   5   0  -2   61.19    2.90
   4   0  -2  379.96   14.30
   4   0  -2  415.06   14.00
   4   0  -2  413.16   13.50
   4   0  -2  407.96   13.60
   4   0  -2  419.66   13.40
   4   0  -2  407.86   13.70
   3   0  -2  208.88    7.10
   3   0  -2  208.38    7.30
   3   0  -2  207.78    7.10
   3   0  -2  207.98    7.70
   2   0  -2  724.53   23.70
   2   0  -2  750.02   23.60
   2   0  -2  769.62   24.30
   2   0  -2  756.02   23.80
   2   0  -2  755.42   23.80
  -2   0   2  728.53   24.20
   1   0  -2  837.12   27.70
   1   0  -2  861.81   27.20
   1   0  -2  887.31   27.00
  -1   0   2  859.81   27.60
   0   0  -2 2554.84   81.59
   0   0   2 2637.54   82.19
  -1   0  -2 4802.22  153.08
   1   0   2 4839.52  151.98
  -2   0  -2 2665.83   86.49
   2   0   2 2871.21   87.49
   2   0   2 2753.82   86.59
   3   0   2   31.50    1.70
   3   0   2   32.50    1.40
   3   0   2   30.50    2.10
   3   0   2   32.70    1.50
   4   0   2  454.35   15.00
   4   0   2  459.55   14.60
   4   0   2  452.25   16.10
   4   0   2  448.06   14.70
   5   0   2   56.49    3.10
   5   0   2   69.99    2.80
   5   0   2   65.09    3.90
   5   0   2   63.59    3.00
   5   0   2   65.79    2.70
   6   0   2   36.10    2.10
   6   0   2   39.30    3.20
   6   0   2   38.10    2.10
   6   0   2   35.60    1.90
   7   0   2   33.40    2.10
   7   0   2   34.90    2.10
   7   0   2   31.10    1.90
   7   0   2   37.70    3.40
   8   0   2   -0.20    0.80
   8   0   2    1.70    0.70
   8   0   2    0.70    0.50
   8   0   2    0.30    0.60
   9   0   2   69.29    3.50
   9   0   2   63.29    5.30
   9   0   2   71.09    3.70
   9   0   2   71.09    3.40
  10   0   2    1.00    1.50
  10   0   2    1.20    0.80
  10   0   2    0.80    0.80
  11   0   2    6.40    1.50
  11   0   2    5.10    2.30
  11   0   2    8.20    1.60
  10  -1  -2   43.80    3.00
  10  -1  -2   43.40    3.00
  10  -1  -2   43.10    3.10
  10  -1  -2   39.70    3.10
   9  -1  -2   89.99    4.50
   9  -1  -2   78.89    4.30
   9  -1  -2   81.99    4.20
   9  -1  -2   80.29    4.40
   8  -1  -2   89.69    4.50
   8  -1  -2   91.09    4.70
   8  -1  -2   88.29    4.40
   8  -1  -2   96.49    4.40
   7  -1  -2    3.20    1.00
   7  -1  -2    3.30    0.90
   7  -1  -2    3.80    0.90
   7  -1  -2    2.70    0.80
   6  -1  -2  712.33   22.80
   6  -1  -2  681.43   23.00
   6  -1  -2  695.23   22.90
   6  -1  -2  702.23   23.50
   5  -1  -2  106.59    4.40
   5  -1  -2  114.19    4.40
   5  -1  -2  113.99    4.60
   4  -1  -2   11.80    1.20
   4  -1  -2    9.90    1.20
   4  -1  -2    8.80    0.90
   4  -1  -2   11.70    1.10
   3  -1  -2  106.49    3.90
   3  -1  -2  102.49    3.80
   3  -1  -2  104.89    4.40
   3  -1  -2  100.89    3.70
  -3   1   2   89.19    4.30
   2  -1  -2  531.65   17.20
   2  -1  -2  521.65   17.60
   2  -1  -2  524.75   16.90
  -2   1   2  531.95   17.60
   1  -1  -2   48.90    2.20
   1  -1  -2   50.19    2.50
  -1   1   2   45.40    2.40
   0  -1  -2  211.18    7.30
   0  -1  -2  202.78    6.90
   0   1   2  188.98    7.10
  -1  -1  -2 1969.20   61.19
   1   1   2 1925.01   61.09
   2   1   2 3221.08   99.09
   2   1   2 2926.71   97.69
   2   1   2 3122.79   96.89
   3   1   2 3206.38   98.29
   3   1   2 3061.39   98.09
   3   1   2 3126.79   98.59
   4   1   2   69.19    2.80
   4   1   2   73.49    2.90
   4   1   2   69.29    2.90
   4   1   2   69.29    3.10
   4   1   2   69.99    3.90
   5   1   2  154.98    5.50
   5   1   2  150.08    5.30
   5   1   2  142.39    5.50
   5   1   2  147.89    7.00
   5   1   2  147.69    5.60
   5   1   2  149.39    5.40
   6   1   2  485.75   16.00
   6   1   2  458.45   18.10
   6   1   2  506.55   15.80
   6   1   2  488.45   16.10
   6   1   2  484.85   16.00
   6   1   2  472.95   16.20
   7   1   2    3.50    1.50
   7   1   2    3.60    0.70
   7   1   2    3.80    0.80
   7   1   2    3.70    0.80
   7   1   2    4.50    0.70
   8   1   2   19.70    1.80
   8   1   2   19.10    1.90
   8   1   2   18.20    3.00
   8   1   2   19.20    1.20
   9   1   2  124.39    5.60
   9   1   2  128.19    8.00
   9   1   2  136.89    5.50
  10   1   2    2.20    1.00
  10   1   2    3.10    1.20
  10   1   2    3.60    1.90
  11   1   2  156.78   10.10
  11   1   2  184.98    7.50
  10  -2  -2   58.99    4.10
  10  -2  -2   64.99    3.80
  10  -2  -2   68.99    4.00
  10  -2  -2   56.89    3.70
   9  -2  -2  198.98    7.60
   9  -2  -2  184.68    7.70
   9  -2  -2  178.38    8.20
   9  -2  -2  177.48    7.60
   8  -2  -2 1021.50   33.10
   8  -2  -2 1001.20   32.90
   8  -2  -2  994.30   33.10
   8  -2  -2 1021.50   33.90
   7  -2  -2    2.10    0.80
   7  -2  -2    4.20    1.00
   7  -2  -2    5.30    1.40
   7  -2  -2    3.80    1.10
   6  -2  -2   50.09    2.60
   6  -2  -2   48.70    3.30
   6  -2  -2   46.10    2.60
   6  -2  -2   51.09    2.60
   5  -2  -2  476.45   16.00
   5  -2  -2  484.35   16.00
   5  -2  -2  481.15   17.00
   5  -2  -2  487.45   16.00
   4  -2  -2 1838.62   57.99
   4  -2  -2 1856.81   58.09
   4  -2  -2 1808.72   57.99
   4  -2  -2 1861.41   59.19
  -4   2   2 1872.61   59.39
   3  -2  -2  698.53   22.20
   3  -2  -2  688.33   22.20
   3  -2  -2  711.23   23.20
  -3   2   2  673.43   23.30
   2  -2  -2   15.80    0.90
   2  -2  -2   15.10    1.40
   2  -2  -2   16.20    1.30
  -2   2   2   18.60    1.60
   1  -2  -2  418.46   13.50
   1  -2  -2  418.06   13.90
  -1   2   2  376.46   13.90
   0  -2  -2    2.10    0.60
   0  -2  -2    1.30    0.50
   0   2   2    1.50    0.20
   0   2   2    1.80    0.60
  -1  -2  -2  278.57    9.50
  -1  -2  -2  277.57    9.70
   1   2   2  280.77    9.70
   1   2   2  280.67    9.10
   1   2   2  280.97    9.60
   2   2   2 1161.48   37.20
   2   2   2 1125.59   36.70
   2   2   2 1181.48   36.40
   3   2   2  168.38    5.80
   3   2   2  160.98    6.60
   3   2   2  142.69    5.60
   3   2   2  160.98    5.70
   4   2   2   27.40    1.50
   4   2   2   26.60    1.40
   4   2   2   28.30    1.70
   4   2   2   26.00    1.50
   4   2   2   23.20    2.20
   5   2   2   98.99    5.40
   5   2   2   99.19    4.40
   5   2   2   99.59    3.60
   5   2   2  100.69    4.00
   5   2   2   93.89    3.70
   5   2   2   97.99    3.90
   6   2   2    4.10    0.90
   6   2   2    4.70    1.50
   6   2   2    4.20    0.80
   6   2   2    5.00    1.10
   6   2   2    4.90    0.80
   7   2   2   15.00    1.50
   7   2   2   18.40    1.70
   7   2   2   13.50    2.60
   7   2   2   13.70    1.50
   8   2   2    0.00    0.60
   8   2   2    0.10    0.50
   8   2   2   -0.10    0.60
   8   2   2   -0.20    1.00
   9   2   2   57.69    5.20
  10   2   2   10.00    2.90
  10   2   2    9.40    1.50
  11   2   2  123.19    8.80
  11   2   2  124.39    5.90
  10  -3  -2    8.90    1.60
  10  -3  -2    8.80    1.70
  10  -3  -2   11.40    1.70
  10  -3  -2    8.90    2.00
   9  -3  -2  132.79    6.10
   9  -3  -2  136.19    6.10
   9  -3  -2  139.39    7.10
   9  -3  -2  143.69    6.10
   8  -3  -2  341.27   12.30
   8  -3  -2  339.67   12.30
   8  -3  -2  332.77   12.20
   8  -3  -2  347.07   13.50
   7  -3  -2  185.88    8.40
   7  -3  -2  189.38    7.30
   7  -3  -2  191.38    7.30
   7  -3  -2  183.88    7.20
   6  -3  -2  861.31   28.50
   6  -3  -2  892.81   28.60
   6  -3  -2  865.91   28.60
   6  -3  -2  905.81   30.10
   5  -3  -2 1455.25   45.90
   5  -3  -2 1485.65   46.00
   5  -3  -2 1415.36   46.00
   5  -3  -2 1444.96   47.50
   4  -3  -2  598.94   19.40
   4  -3  -2  612.84   20.80
   4  -3  -2  592.34   19.30
  -4   3   2  575.94   21.00
   3  -3  -2  357.56   13.20
   3  -3  -2  371.76   11.80
  -3   3   2  350.66   13.50
   2  -3  -2 1074.29   35.60
   2  -3  -2 1082.29   35.10
   2  -3  -2 1120.19   34.20
  -2   3   2 1077.89   35.90
   1  -3  -2  235.18    8.60
  -1   3   2  247.38    9.40
   0  -3  -2  116.19    4.60
   0  -3  -2  121.69    5.10
   0   3   2  112.79    5.20
   0   3   2  118.19    4.30
  -1  -3  -2  120.79    4.70
   1   3   2  129.39    5.20
   1   3   2  120.49    4.80
   1   3   2  120.29    4.40
  -2  -3  -2  298.47   10.10
   2   3   2  286.27   10.40
   2   3   2  296.57   10.70
   2   3   2  298.07    9.90
   3   3   2   51.49    2.50
   3   3   2   54.89    3.20
   3   3   2   52.89    2.50
   3   3   2   49.99    2.50
   4   3   2   29.30    1.90
   4   3   2   26.00    1.60
   4   3   2   27.00    1.60
   4   3   2   29.40    2.60
   5   3   2   -0.60    0.50
   5   3   2    0.00    0.50
   5   3   2    0.40    0.40
   5   3   2    0.10    0.20
   5   3   2    0.70    0.30
   5   3   2    0.10    0.40
   6   3   2    0.30    0.60
   6   3   2    0.50    0.90
   6   3   2    0.40    0.50
   6   3   2    0.40    0.50
   7   3   2  124.49    5.20
   7   3   2  116.99    7.10
   7   3   2  130.89    5.40
   7   3   2  125.69    5.80
   8   3   2    2.60    0.80
   8   3   2    4.00    1.80
   8   3   2    1.50    0.80
   9   3   2    0.00    0.60
   9   3   2    1.30    1.30
  10   3   2    0.50    1.60
  10   3   2    0.10    0.80
  10  -4  -2   36.40    3.80
  10  -4  -2   35.30    3.00
  10  -4  -2   37.30    2.90
  10  -4  -2   38.90    2.90
   9  -4  -2   40.00    3.70
   9  -4  -2   40.80    2.90
   9  -4  -2   40.90    2.70
   9  -4  -2   40.10    2.80
   8  -4  -2   72.19    4.90
   8  -4  -2   65.99    3.60
   8  -4  -2   71.59    3.70
   8  -4  -2   72.09    3.70
   7  -4  -2    0.20    0.90
   7  -4  -2   -0.20    0.50
   7  -4  -2    0.20    0.60
   7  -4  -2    0.50    0.60
   6  -4  -2  337.97   13.40
   6  -4  -2  342.27   11.80
   6  -4  -2  334.67   11.70
   6  -4  -2  336.87   11.70
   5  -4  -2  224.38    8.10
   5  -4  -2  227.98    8.10
   5  -4  -2  216.08    7.90
   5  -4  -2  233.58    9.80
   4  -4  -2   20.50    1.30
   4  -4  -2   24.90    1.50
   4  -4  -2   24.50    2.40
  -4   4   2   27.30    2.70
   3  -4  -2  195.78    8.10
   3  -4  -2  190.78    6.40
  -3   4   2  173.48    8.30
   2  -4  -2  362.56   13.60
   2  -4  -2  368.56   11.80
   2  -4  -2  368.86   13.00
  -2   4   2  374.66   14.10
   1  -4  -2 2085.79   66.19
   1  -4  -2 2078.79   65.49
  -1   4   2 2039.10   66.59
  -1   4   2 2080.19   64.59
   0  -4  -2  953.00   30.50
   0  -4  -2  934.11   31.00
   0   4   2  975.20   30.00
   0   4   2  906.21   31.40
  -1  -4  -2  199.08    7.60
  -1  -4  -2  193.88    7.20
   1   4   2  191.98    6.90
   1   4   2  186.48    7.90
   1   4   2  209.38    7.50
  -2  -4  -2   28.20    1.70
  -2  -4  -2   34.70    2.00
   2   4   2   29.70    2.20
   2   4   2   28.60    2.10
   2   4   2   26.80    1.60
  -3  -4  -2    1.20    0.50
   3   4   2    1.10    0.50
   3   4   2    1.10    0.70
   3   4   2    2.00    0.70
  -4  -4  -2   65.69    3.10
   4   4   2   67.69    3.30
   4   4   2   66.09    3.10
   4   4   2   62.19    3.10
   4   4   2   68.29    4.20
   5   4   2   33.60    1.90
   5   4   2   36.50    1.90
   5   4   2   35.40    3.20
   5   4   2   36.20    2.40
   6   4   2    6.60    1.30
   6   4   2    4.90    1.60
   6   4   2    4.40    0.90
   7   4   2   55.09    4.70
   7   4   2   58.79    3.20
   7   4   2   60.49    3.70
   8   4   2  193.48   10.50
   8   4   2  203.08    8.70
   9   4   2    0.60    1.40
  10   4   2   43.40    4.90
  10  -5  -2   21.10    2.30
   9  -5  -2   16.90    2.10
   9  -5  -2   12.60    1.80
   9  -5  -2   15.30    2.80
   8  -5  -2   68.79    3.60
   8  -5  -2   63.59    5.00
   8  -5  -2   70.99    3.70
   7  -5  -2    4.60    1.00
   7  -5  -2    4.00    0.90
   7  -5  -2    3.50    1.40
   7  -5  -2    4.70    1.00
   6  -5  -2  497.05   16.80
   6  -5  -2  504.25   16.90
   6  -5  -2  492.25   18.90
   6  -5  -2  510.45   16.70
   5  -5  -2   34.50    2.00
   5  -5  -2   33.90    2.00
   5  -5  -2   36.20    1.90
   5  -5  -2   31.60    3.10
   4  -5  -2  185.78    6.60
   4  -5  -2  185.18    8.60
   4  -5  -2  186.88    6.80
  -4   5   2  204.58    9.40
   3  -5  -2  949.31   30.40
   3  -5  -2  947.81   32.80
  -3   5   2 1005.50   33.80
   2  -5  -2  768.82   24.90
   2  -5  -2  784.72   27.30
  -2   5   2  838.52   28.20
   1  -5  -2   90.49    4.30
  -1   5   2   93.29    5.30
   0  -5  -2  144.49    5.90
   0  -5  -2  138.19    6.30
   0   5   2  142.89    5.40
   0   5   2  151.88    7.00
  -1  -5  -2  192.88    7.20
  -1  -5  -2  192.18    7.70
   1   5   2  174.08    8.10
   1   5   2  200.18    7.40
   1   5   2  191.38    6.90
  -2  -5  -2   95.39    4.10
  -2  -5  -2  100.79    4.50
   2   5   2   84.29    4.70
   2   5   2   94.49    4.00
   2   5   2   95.99    4.70
  -3  -5  -2  245.68    8.60
   3   5   2  242.88    9.80
   3   5   2  244.68    8.80
   3   5   2  225.08    9.30
  -4  -5  -2  719.43   23.30
   4   5   2  715.43   25.30
   4   5   2  710.53   24.00
   4   5   2  714.03   23.80
  -5  -5  -2   -0.10    0.50
   5   5   2    0.50    0.60
   5   5   2    0.40    0.40
   5   5   2   -0.50    0.80
   6   5   2  268.27   10.30
   6   5   2  256.17   11.90
   6   5   2  260.07    9.10
   7   5   2  180.48    7.90
   7   5   2  180.38    9.70
   8   5   2  165.88    9.70
   8   5   2  175.98    7.90
   9   5   2   32.50    4.80
   9   5   2   33.30    3.50
  10   5   2  200.38   11.80
   9  -6  -2   23.20    3.70
   9  -6  -2   23.50    2.40
   9  -6  -2   20.00    2.20
   8  -6  -2   32.90    3.80
   8  -6  -2   42.70    2.70
   8  -6  -2   39.20    2.60
   7  -6  -2   40.20    4.10
   7  -6  -2   41.30    2.60
   7  -6  -2   45.70    2.70
   6  -6  -2   52.99    2.80
   6  -6  -2   48.30    2.70
   6  -6  -2   48.30    4.30
   5  -6  -2  226.58    8.00
   5  -6  -2  218.38   10.20
   4  -6  -2  259.97   11.50
   4  -6  -2  261.07    9.30
  -4   6   2  298.47   12.70
   3  -6  -2  327.87   12.90
  -3   6   2  291.77   13.40
   2  -6  -2   50.29    3.70
  -2   6   2   43.20    3.90
   1  -6  -2  146.29    6.30
   1  -6  -2  145.99    6.90
  -1   6   2  145.09    7.70
   0  -6  -2  489.95   16.50
   0  -6  -2  470.35   17.20
   0   6   2  484.85   15.80
   0   6   2  455.45   18.00
  -1  -6  -2   16.00    1.50
  -1  -6  -2   15.30    1.80
   1   6   2   12.90    2.10
   1   6   2   20.90    1.70
   1   6   2   18.10    1.50
  -2  -6  -2    2.10    0.80
  -2  -6  -2    2.30    0.80
   2   6   2    1.50    0.60
   2   6   2    3.40    1.10
   2   6   2    3.30    1.00
  -3  -6  -2   19.80    1.60
   3   6   2   16.00    1.90
   3   6   2   17.60    1.80
   3   6   2   18.30    2.10
  -4  -6  -2   12.80    1.30
   4   6   2   13.50    2.30
   4   6   2    9.20    1.60
   4   6   2   14.60    1.70
   5   6   2    1.40    0.80
   5   6   2    3.50    1.00
   5   6   2    2.30    1.40
   6   6   2   76.39    5.70
   6   6   2   85.39    4.00
   6   6   2   80.19    4.50
   7   6   2   17.50    3.20
   7   6   2   16.60    2.20
   8   6   2    8.60    1.90
   8   6   2    7.60    2.30
   9   6   2   24.50    3.20
   9   6   2   20.80    3.90
   9  -7  -2    0.90    0.90
   9  -7  -2    0.70    1.50
   8  -7  -2   -0.30    0.70
   8  -7  -2    0.80    1.50
   7  -7  -2   16.50    3.20
   7  -7  -2   13.90    1.70
   6  -7  -2   23.30    1.80
   6  -7  -2   26.70    2.00
   6  -7  -2   28.60    4.00
   5  -7  -2   42.60    4.10
   5  -7  -2   42.10    2.30
   4  -7  -2  192.88    6.80
   4  -7  -2  184.08    9.20
  -4   7   2  179.48   10.00
   3  -7  -2  275.47   12.10
  -3   7   2  286.67   13.20
   2  -7  -2   -1.50    0.70
  -2   7   2   -0.80    0.80
   1  -7  -2  122.29    6.40
  -1   7   2  116.29    7.20
   0  -7  -2  962.10   33.60
   0  -7  -2  968.70   32.70
   0   7   2 1046.70   35.10
  -1  -7  -2   -0.30    0.60
  -1  -7  -2    1.10    0.70
   1   7   2    0.10    0.60
   1   7   2    0.50    0.80
   1   7   2    0.40    0.60
  -2  -7  -2   47.40    2.80
   2   7   2   48.50    3.30
   2   7   2   43.60    2.80
   2   7   2   46.50    3.80
  -3  -7  -2   13.50    1.50
   3   7   2    8.70    1.80
   3   7   2   14.30    2.20
   3   7   2   12.30    1.70
   4   7   2   25.10    2.20
   4   7   2   22.90    2.70
   4   7   2   26.30    2.60
   5   7   2   30.00    3.30
   5   7   2   33.20    2.70
   5   7   2   30.70    2.70
   6   7   2    7.00    2.00
   6   7   2   10.50    1.70
   6   7   2    9.10    1.70
   7   7   2    4.90    1.50
   7   7   2    4.50    1.80
   8   7   2   23.90    4.20
   8   7   2   25.80    3.20
   9   7   2    6.10    1.70
   8  -8  -2    3.70    2.10
   7  -8  -2  208.68    8.60
   7  -8  -2  220.88   11.50
   6  -8  -2    0.90    0.70
   6  -8  -2    0.00    1.30
   5  -8  -2    9.00    2.40
   4  -8  -2   17.20    3.10
  -4   8   2   16.80    3.40
   3  -8  -2  299.97   13.50
  -3   8   2  331.27   15.00
  -2   8   2   62.49    5.40
   1  -8  -2    6.90    2.00
  -1   8   2    6.90    2.10
   0  -8  -2  716.73   25.20
   0   8   2  706.73   23.50
   0   8   2  672.03   26.20
   1   8   2  413.96   14.70
   1   8   2  411.86   17.00
  -2  -8  -2   45.10    2.90
   2   8   2   45.20    3.00
   2   8   2   48.50    4.20
   3   8   2  172.98    7.40
   3   8   2  177.48    8.70
   4   8   2   92.99    5.90
   4   8   2   92.39    5.60
   4   8   2   92.39    4.90
   5   8   2    6.00    2.00
   5   8   2    6.30    1.50
   5   8   2    7.40    1.60
   6   8   2   18.50    2.60
   6   8   2   23.60    2.40
   6   8   2   22.20    3.80
   6   8   2   22.90    2.50
   7   8   2    5.70    1.60
   8   8   2   15.40    2.50
   7  -9  -2  119.69    8.40
   6  -9  -2    2.70    1.90
   5  -9  -2   54.59    5.20
   4  -9  -2   26.80    4.00
  -4   9   2   29.80    4.90
   3  -9  -2   17.20    3.10
  -3   9   2    9.50    2.70
  -2   9   2   78.79    6.50
   1  -9  -2  261.67   13.50
  -1   9   2  304.27   14.10
   0   9   2   17.10    2.10
   0   9   2   14.60    3.00
   1   9   2    3.80    1.10
   1   9   2   10.40    2.50
   2   9   2    1.40    1.20
   2   9   2    1.10    0.90
   3   9   2  169.08    7.60
   3   9   2  180.88    9.30
   4   9   2    4.60    1.40
   4   9   2    7.10    1.90
   5   9   2   -0.30    0.70
   5   9   2    1.00    1.00
   6   9   2    2.60    1.20
   6   9   2    2.10    1.10
   6   9   2    3.10    1.30
   7   9   2    2.60    1.40
   6 -10  -2   16.50    3.80
   5 -10  -2   28.50    4.60
   4 -10  -2   85.29    6.80
  -4  10   2   88.39    7.70
   3 -10  -2    8.60    2.40
  -3  10   2   11.20    3.40
  -2  10   2   63.49    6.30
  -1  10   2   62.99    6.10
   0  10   2   14.20    2.00
   0  10   2   24.00    4.10
   1  10   2  146.09    6.70
   1  10   2  139.59    8.90
   2  10   2  135.29    8.40
   3  10   2    0.10    0.90
   3  10   2    0.90    1.20
   4  10   2  105.99    5.90
   4  10   2  118.99    7.00
   5  10   2    3.80    1.50
   5  10   2    7.50    2.00
   6  10   2   -0.70    1.00
   6  10   2    0.70    1.10
   6  10   2    2.10    1.20
   4 -11  -2    4.20    2.30
  -4  11   2    5.20    3.00
  -3  11   2    4.90    2.40
  -2  11   2    4.40    2.30
  -1  11   2   50.09    5.70
  -1  11   2   41.40    3.20
   0  11   2   39.80    3.30
   0  11   2   50.49    5.50
   1  11   2   13.20    3.10
   1  11   2    9.20    1.80
   2  11   2   55.89    3.90
   2  11   2   45.20    4.90
   3  11   2    9.20    1.90
   3  11   2    9.00    2.40
   4  11   2   76.29    6.00
   4  11   2   68.29    4.70
   5  11   2   20.70    3.10
  -2  12   2   31.40    5.40
  -1  12   2   -0.20    1.50
   0  12   2   21.80    4.10
   0  12   2   19.40    2.70
   1  12   2   38.00    3.40
   1  12   2   42.60    5.00
   2  12   2   71.59    4.80
   2  12   2   79.89    6.70
   2  11  -3   14.50    2.60
   1  11  -3   11.00    2.30
   1  11  -3   12.00    3.40
   0  11  -3   -0.30    1.20
   0  11  -3   -0.20    1.60
  -1  11  -3   21.30    4.80
  -2  11  -3   75.49    7.70
  -3  11  -3   -1.00    1.70
   4  10  -3  103.99    7.60
   4  10  -3  100.79    6.20
   3  10  -3   16.20    2.60
   3  10  -3   16.50    3.50
   2  10  -3   70.49    4.80
   2  10  -3   64.19    6.10
   1  10  -3   34.50    5.20
   1  10  -3   33.80    3.70
   0  10  -3   18.50    3.90
  -1  10  -3    1.00    1.60
  -2  10  -3  554.84   24.70
  -3  10  -3    0.50    2.00
  -4  10  -3   24.10    4.90
   4 -10   3   25.50    4.30
   5 -10   3    6.30    2.50
   6   9  -3   56.49    4.60
   5   9  -3   22.80    3.10
   5   9  -3   21.60    3.60
   4   9  -3  133.49    7.10
   4   9  -3  134.29    8.30
   3   9  -3    0.20    0.90
   3   9  -3   -0.60    1.10
   2   9  -3  159.68    9.60
   2   9  -3  166.28    7.90
   1   9  -3    1.40    1.60
   1   9  -3    1.20    1.00
   0   9  -3   14.80    3.30
  -1   9  -3    2.70    1.90
  -2   9  -3  126.89    9.10
  -3   9  -3   -0.10    1.50
   3  -9   3    0.30    1.20
  -4   9  -3   22.80    4.60
   4  -9   3   26.00    4.10
   5  -9   3   96.59    7.10
   6  -9   3   18.10    3.80
   7  -9   3   23.80    4.10
   7   8  -3    1.40    1.20
   6   8  -3  121.69    7.10
   6   8  -3  130.29    7.00
   5   8  -3   30.10    3.50
   5   8  -3   36.20    3.70
   4   8  -3   44.40    4.40
   4   8  -3   55.59    3.90
   3   8  -3   -0.40    0.90
   3   8  -3    0.40    0.90
   2   8  -3   89.29    5.00
   2   8  -3   87.69    6.40
   1   8  -3  134.09    6.40
   1   8  -3  126.39    8.20
   0   8  -3    0.20    1.10
  -1   8  -3  100.89    7.40
  -2   8  -3   28.70    4.60
   2  -8   3   28.20    3.30
  -3   8  -3    9.80    2.90
   3  -8   3    5.20    1.80
  -4   8  -3  211.68   12.10
   4  -8   3  199.48   10.40
   5  -8   3  131.99    8.10
   6  -8   3   24.50    4.00
   7  -8   3   49.60    5.10
   8  -8   3  108.59    7.80
   7   7  -3   16.90    2.10
   7   7  -3   15.30    2.20
   7   7  -3   15.20    2.60
   6   7  -3  108.49    6.10
   6   7  -3  108.39    5.20
   6   7  -3  111.69    6.20
   5   7  -3    4.90    1.10
   5   7  -3    4.50    1.60
   5   7  -3    3.30    1.30
   4   7  -3   26.20    3.20
   4   7  -3   27.90    2.00
   4   7  -3   24.40    2.80
   3   7  -3  220.08    7.90
   3   7  -3  206.38   10.40
   3   7  -3  224.28    9.20
   2   7  -3    3.10    1.50
   2   7  -3    3.90    1.20
   1   7  -3   99.19    6.70
   0   7  -3   29.90    3.70
  -1   7  -3   70.59    5.70
   1  -7   3   67.49    4.70
  -2   7  -3  618.64   24.60
  -3   7  -3  172.88   10.10
   3  -7   3  172.58    8.80
  -4   7  -3   34.10    4.30
   4  -7   3   38.60    3.80
  -5   7  -3   32.20    5.40
   5  -7   3   36.00    3.80
   6  -7   3  102.59    6.80
   7  -7   3   63.99    5.50
   8  -7   3   72.69    6.00
   9  -7   3    0.60    1.40
   8   6  -3    1.10    1.20
   8   6  -3    1.70    0.90
   8   6  -3    2.70    1.10
   7   6  -3   18.30    2.60
   7   6  -3   17.50    2.10
   7   6  -3   18.00    1.90
   7   6  -3   19.80    2.10
   6   6  -3   12.90    1.50
   6   6  -3   15.30    2.30
   6   6  -3   16.40    2.50
   6   6  -3   14.60    1.80
   5   6  -3   66.39    3.60
   5   6  -3   76.49    4.40
   5   6  -3   71.69    3.30
   5   6  -3   70.49    4.70
   4   6  -3   63.49    2.90
   4   6  -3   64.29    3.30
   4   6  -3   65.59    3.90
   4   6  -3   68.99    4.70
   3   6  -3    2.10    1.10
   3   6  -3   -0.20    0.70
   3   6  -3    0.10    0.50
   2   6  -3   22.60    3.10
   2   6  -3   15.80    1.90
   2   6  -3   17.20    1.30
   1   6  -3    3.00    0.60
   1   6  -3    2.70    1.40
   0   6  -3    0.20    0.90
   0   6  -3    0.20    0.30
   0  -6   3    0.10    0.60
  -1   6  -3   67.29    5.30
   1  -6   3   77.59    4.70
  -2   6  -3   91.69    6.40
   2  -6   3   90.69    5.40
  -3   6  -3  416.16   17.60
   3  -6   3  409.76   16.20
  -4   6  -3  176.68    9.80
   4  -6   3  167.28    8.40
  -5   6  -3  131.09    8.50
   5  -6   3  148.89    7.80
   6  -6   3  411.46   16.80
   7  -6   3  173.48    9.20
   8  -6   3   32.40    3.90
   9  -6   3   69.99    5.70
   9   5  -3   91.59    4.80
   9   5  -3  103.89    5.40
   9   5  -3   96.99    4.70
   9   5  -3   98.29    5.90
   8   5  -3    5.60    1.50
   8   5  -3    5.60    1.30
   8   5  -3    4.30    1.10
   8   5  -3    2.40    1.30
   7   5  -3   61.89    3.30
   7   5  -3   64.59    3.30
   7   5  -3   65.49    4.30
   7   5  -3   65.69    3.70
   7   5  -3   66.99    3.60
   6   5  -3   70.59    3.40
   6   5  -3   64.49    3.70
   6   5  -3   70.39    4.10
   6   5  -3   66.59    4.20
   6   5  -3   67.39    3.30
   5   5  -3  209.48    7.50
   5   5  -3  197.68    7.30
   5   5  -3  200.48    8.80
   5   5  -3  213.38    8.60
   5   5  -3  194.98    7.80
   4   5  -3   -0.40    0.70
   4   5  -3    1.40    0.60
   4   5  -3    1.40    0.80
   4   5  -3    0.90    0.60
   4   5  -3    0.20    0.40
   3   5  -3  216.28    7.60
   3   5  -3  196.58    7.20
   3   5  -3  208.68    9.30
   3   5  -3  215.28    8.40
   2   5  -3    5.30    0.60
   2   5  -3    4.70    1.30
   2   5  -3    4.00    1.00
   2   5  -3    4.40    0.70
   1   5  -3    0.50    0.40
   1   5  -3    1.10    0.90
   1   5  -3    0.40    0.20
  -1  -5   3    0.10    0.50
   0   5  -3   83.39    5.30
   0  -5   3   75.79    4.40
  -1   5  -3  127.89    7.20
   1  -5   3  125.69    6.20
  -2   5  -3  268.97   12.10
  -3   5  -3    9.50    2.20
   3  -5   3   10.80    1.90
  -4   5  -3   19.10    3.10
   4  -5   3   20.70    2.80
   4  -5   3   20.90    1.80
  -5   5  -3   60.59    5.10
   5  -5   3   59.59    3.50
   5  -5   3   57.29    4.30
   6  -5   3  556.84   20.90
   7  -5   3   93.59    6.00
   8  -5   3   22.10    3.30
   9  -5   3   64.29    5.10
  10  -5   3  193.28    9.90
   9   4  -3   75.09    4.50
   9   4  -3   77.89    4.10
   9   4  -3   68.89    4.00
   9   4  -3   77.09    5.00
   8   4  -3  130.69    5.70
   8   4  -3  128.29    6.00
   8   4  -3  119.69    5.40
   8   4  -3  123.39    6.40
   7   4  -3  528.95   19.40
   7   4  -3  539.95   18.40
   7   4  -3  542.75   18.20
   7   4  -3  538.55   18.40
   7   4  -3  556.04   18.90
   6   4  -3   84.49    4.60
   6   4  -3   78.29    3.60
   6   4  -3   82.89    4.10
   6   4  -3   81.79    3.70
   6   4  -3   75.69    4.10
   5   4  -3  103.79    5.10
   5   4  -3   98.69    4.50
   5   4  -3   92.59    4.00
   5   4  -3   99.59    5.00
   5   4  -3  101.39    4.20
   4   4  -3  911.51   30.90
   4   4  -3  904.01   29.20
   4   4  -3  899.11   29.60
   4   4  -3  932.11   30.20
   4   4  -3  924.81   29.30
   3   4  -3   14.00    1.70
   3   4  -3   11.20    1.00
   3   4  -3   11.90    1.20
   3   4  -3   12.90    2.00
   3   4  -3   12.30    1.00
   2   4  -3   41.90    1.90
   2   4  -3   47.90    2.20
   2   4  -3   46.60    2.60
   2   4  -3   46.00    1.90
   2   4  -3   44.50    3.30
  -2  -4   3   44.80    2.80
   1   4  -3  358.66   11.60
   1   4  -3  359.26   14.00
   1   4  -3  372.66   12.00
  -1  -4   3  358.66   13.20
   0   4  -3   37.30    3.20
   0   4  -3   33.60    1.30
   0  -4   3   35.00    2.60
  -1   4  -3   89.99    5.50
   1  -4   3   93.79    4.70
  -2   4  -3   45.60    3.70
   2  -4   3   41.30    3.00
  -3   4  -3   40.50    3.60
   3  -4   3   40.90    1.50
   3  -4   3   39.60    3.00
  -4   4  -3   41.80    3.70
   4  -4   3   40.40    1.60
   4  -4   3   41.30    2.60
   4  -4   3   40.00    3.20
  -5   4  -3   97.69    6.20
   5  -4   3   90.59    5.30
   5  -4   3   96.29    4.80
   5  -4   3   93.99    3.50
   6  -4   3    3.50    0.70
   6  -4   3    4.40    1.20
   6  -4   3    4.50    0.70
   6  -4   3    3.10    1.20
   7  -4   3   -0.60    0.80
   7  -4   3    0.50    0.50
   7  -4   3    1.70    1.00
   7  -4   3    0.10    0.40
   8  -4   3  155.78    6.10
   8  -4   3  151.28    7.90
   8  -4   3  151.18    6.00
   9  -4   3    0.30    0.70
   9  -4   3    1.00    1.20
  10  -4   3   30.70    2.40
  10  -4   3   36.10    3.70
   9   3  -3    8.40    1.60
   9   3  -3    7.10    1.80
   9   3  -3    7.70    1.50
   9   3  -3    7.70    1.70
   8   3  -3  151.88    6.50
   8   3  -3  155.78    6.40
   8   3  -3  151.98    6.90
   8   3  -3  160.18    7.40
   7   3  -3  104.69    5.40
   7   3  -3  112.79    5.20
   7   3  -3  105.59    4.70
   7   3  -3  112.59    4.90
   7   3  -3  107.39    4.70
   6   3  -3    9.00    1.40
   6   3  -3    7.30    1.30
   6   3  -3    7.50    1.50
   6   3  -3   10.40    1.20
   6   3  -3    6.70    1.10
   5   3  -3    1.60    0.70
   5   3  -3    1.20    0.80
   5   3  -3    0.90    0.60
   5   3  -3    1.20    0.70
   5   3  -3    2.00    0.60
   4   3  -3  317.97   10.70
   4   3  -3  317.87   11.10
   4   3  -3  321.47   12.00
   4   3  -3  317.57   11.50
   4   3  -3  316.77   10.80
   3   3  -3  271.67    9.50
   3   3  -3  263.27    9.10
   3   3  -3  271.77    9.10
   3   3  -3  269.97   10.50
   3   3  -3  279.07    9.80
   2   3  -3   62.49    3.70
   2   3  -3   67.29    3.10
   2   3  -3   64.29    2.50
   2   3  -3   63.69    2.50
   2   3  -3   62.89    2.80
  -2  -3   3   60.49    3.30
   1   3  -3  195.38    6.40
   1   3  -3  195.68    8.30
   1   3  -3  202.38    6.50
  -1  -3   3  189.28    7.60
   0   3  -3 2159.98   67.59
   0   3  -3 2229.08   70.19
   0  -3   3 2150.08   69.19
  -1   3  -3  362.26   13.60
   1  -3   3  337.67   12.60
  -2   3  -3   71.89    4.50
   2  -3   3   70.09    3.80
  -3   3  -3    7.20    1.60
   3  -3   3   10.00    1.60
   3  -3   3   12.70    0.60
  -4   3  -3  182.58    8.50
   4  -3   3  175.88    7.70
   4  -3   3  178.68    6.00
   4  -3   3  182.88    7.40
  -5   3  -3    5.10    1.50
   5  -3   3    7.10    0.80
   5  -3   3    6.30    0.70
   5  -3   3    7.10    1.40
   5  -3   3    7.20    1.50
   6  -3   3   16.40    2.30
   6  -3   3   14.70    1.20
   6  -3   3   13.70    2.20
   6  -3   3   16.20    1.10
   7  -3   3    4.60    1.40
   7  -3   3    4.20    0.80
   7  -3   3    5.80    0.80
   8  -3   3   85.09    3.70
   8  -3   3   80.59    3.80
   8  -3   3   84.69    5.50
   8  -3   3   87.99    5.20
   9  -3   3   39.30    2.40
   9  -3   3   32.50    2.20
   9  -3   3   33.00    3.20
   9  -3   3   31.10    3.60
  10  -3   3    8.50    1.40
  10  -3   3    9.20    1.40
  10  -3   3   13.50    2.40
  10   2  -3    1.80    1.10
  10   2  -3    0.80    1.10
  10   2  -3    1.30    1.10
   9   2  -3  117.29    5.20
   9   2  -3  101.79    5.50
   9   2  -3  108.89    5.30
   8   2  -3  185.28    7.70
   8   2  -3  176.18    8.00
   8   2  -3  186.48    7.40
   8   2  -3  171.48    7.10
   8   2  -3  183.18    6.90
   7   2  -3   28.60    2.30
   7   2  -3   30.70    2.60
   7   2  -3   29.90    2.10
   7   2  -3   31.80    2.20
   7   2  -3   32.00    2.20
   6   2  -3  105.09    4.80
   6   2  -3  101.39    4.50
   6   2  -3  100.59    4.40
   6   2  -3   99.59    4.90
   6   2  -3  107.49    4.80
   5   2  -3  476.15   16.30
   5   2  -3  499.05   16.60
   5   2  -3  468.15   16.70
   5   2  -3  494.45   15.90
   5   2  -3  466.55   16.00
   4   2  -3  279.57    9.80
   4   2  -3  278.27    9.70
   4   2  -3  293.47   10.10
   4   2  -3  287.77   10.30
   4   2  -3  286.37   10.70
   3   2  -3    4.40    0.60
   3   2  -3    3.00    0.70
   3   2  -3    3.60    0.60
   3   2  -3    4.50    0.40
   3   2  -3    7.80    1.00
   3   2  -3    5.30    1.10
   2   2  -3  158.58    5.30
   2   2  -3  155.68    5.40
   2   2  -3  150.78    5.80
   2   2  -3  156.88    5.70
   2   2  -3  156.68    5.30
   2   2  -3  151.38    6.60
  -2  -2   3  154.58    6.20
   1   2  -3 1099.49   35.80
   1   2  -3 1099.99   34.10
  -1  -2   3 1068.39   35.20
   0   2  -3   -0.20    0.50
   0   2  -3    0.10    0.20
   0  -2   3    0.80    0.60
  -1   2  -3    1.20    0.70
   1  -2   3    1.80    0.60
  -2   2  -3  330.07   12.50
   2  -2   3  329.17   11.90
  -3   2  -3  176.88    7.70
   3  -2   3  170.38    7.00
  -4   2  -3   13.90    2.10
   4  -2   3   10.90    0.80
   4  -2   3   11.70    1.60
   4  -2   3   10.10    1.50
  -5   2  -3  460.85   17.00
   5  -2   3  466.05   14.90
   5  -2   3  461.05   16.70
   5  -2   3  456.25   16.40
   5  -2   3  466.05   15.10
   6  -2   3    5.10    1.30
   6  -2   3    5.40    0.80
   6  -2   3    5.50    1.30
   6  -2   3    4.70    0.70
   7  -2   3  214.68    7.70
   7  -2   3  209.18    8.80
   7  -2   3  204.28    7.50
   7  -2   3  219.68    9.80
   8  -2   3  132.59    6.40
   8  -2   3  128.19    7.40
   8  -2   3  130.59    5.30
   8  -2   3  144.99    5.60
   9  -2   3   65.89    3.50
   9  -2   3   62.59    5.10
   9  -2   3   64.59    3.30
   9  -2   3   65.59    4.20
  10  -2   3   17.20    1.90
  10  -2   3   16.90    3.40
  10  -2   3   16.40    2.00
  10  -2   3   17.20    2.50
  11  -2   3  122.29    6.20
  11  -2   3  110.09    5.30
  11  -2   3  123.79    5.70
  10   1  -3   11.90    1.80
  10   1  -3    9.30    1.70
  10   1  -3    9.50    1.90
   9   1  -3  146.49    6.20
   9   1  -3  139.99    6.30
   9   1  -3  132.99    6.40
   8   1  -3  278.37   10.30
   8   1  -3  280.07   10.30
   8   1  -3  280.37   10.80
   8   1  -3  277.77   10.50
   7   1  -3   21.70    2.10
   7   1  -3   24.10    2.30
   7   1  -3   23.80    2.00
   7   1  -3   20.60    2.30
   7   1  -3   22.60    2.00
   6   1  -3   -0.40    0.60
   6   1  -3    0.90    0.70
   6   1  -3    0.40    0.60
   6   1  -3    2.00    0.80
   6   1  -3    1.20    0.80
   5   1  -3  490.55   16.90
   5   1  -3  477.25   16.10
   5   1  -3  469.05   16.10
   5   1  -3  486.55   16.60
   5   1  -3  500.25   16.50
   4   1  -3  168.18    6.00
   4   1  -3  166.58    6.10
   4   1  -3  163.78    6.30
   4   1  -3  160.28    6.70
   3   1  -3    6.70    0.70
   3   1  -3    4.00    0.70
   3   1  -3    6.30    1.10
   3   1  -3    6.40    0.80
   3   1  -3    6.00    0.80
   3   1  -3    6.30    0.70
   2   1  -3   68.09    3.50
   2   1  -3   61.69    2.50
   2   1  -3   61.39    2.70
   2   1  -3   63.99    2.60
  -2  -1   3   72.19    3.20
   1   1  -3  137.39    4.90
   1   1  -3  138.79    5.80
   1   1  -3  132.89    4.60
  -1  -1   3  139.09    5.50
   0   1  -3  868.91   28.20
   0  -1   3  833.92   27.70
  -1   1  -3  658.83   23.00
   1  -1   3  710.33   22.60
   2  -1   3   32.40    2.00
  -3   1  -3  175.38    7.40
   3  -1   3  183.48    7.00
   4  -1   3  385.96   13.40
   4  -1   3  377.96   13.80
   4  -1   3  379.26   12.30
  -5   1  -3  107.89    5.30
   5  -1   3  116.49    4.20
   5  -1   3  112.49    5.60
   5  -1   3  111.39    5.00
   5  -1   3  111.29    4.30
   6  -1   3    5.00    0.80
   6  -1   3    4.00    1.30
   6  -1   3    3.50    1.00
   6  -1   3    2.40    0.60
   7  -1   3  367.86   13.50
   7  -1   3  381.96   15.10
   7  -1   3  368.46   12.70
   7  -1   3  370.36   12.60
   8  -1   3  189.98    7.30
   8  -1   3  195.58    8.00
   8  -1   3  183.18    9.50
   8  -1   3  196.18    7.20
   9  -1   3   19.00    1.80
   9  -1   3   17.10    1.90
   9  -1   3   20.10    2.10
   9  -1   3   18.60    3.20
  10  -1   3  115.59    5.10
  10  -1   3  106.79    7.50
  10  -1   3  121.89    5.60
  10  -1   3  112.89    5.30
  11  -1   3  316.57   15.50
  11  -1   3  317.97   12.00
  10   0  -3    1.20    0.90
  10   0  -3    2.30    1.10
  10   0  -3    0.90    0.90
   9   0  -3   59.39    3.40
   9   0  -3   54.49    3.60
   9   0  -3   52.19    3.40
   9   0  -3   55.59    3.40
   8   0  -3   34.50    2.40
   8   0  -3   30.40    2.20
   8   0  -3   28.70    2.40
   8   0  -3   32.20    2.60
   7   0  -3   69.99    3.90
   7   0  -3   70.39    3.50
   7   0  -3   67.89    3.70
   7   0  -3   75.09    3.70
   6   0  -3    9.70    1.20
   6   0  -3   11.20    1.40
   6   0  -3    9.80    1.50
   6   0  -3   10.40    1.40
   6   0  -3   11.00    1.30
   5   0  -3  501.35   16.60
   5   0  -3  495.45   17.40
   5   0  -3  495.15   16.90
   5   0  -3  487.35   16.80
   5   0  -3  514.35   16.50
   4   0  -3    1.10    0.50
   4   0  -3    2.40    0.60
   4   0  -3    1.40    0.50
   4   0  -3    1.30    0.60
   4   0  -3    1.10    0.50
   3   0  -3  351.66   11.70
   3   0  -3  357.36   11.70
   3   0  -3  347.37   11.50
   3   0  -3  331.97   11.40
   3   0  -3  346.77   11.60
   3   0  -3  339.47   12.40
  -3   0   3  355.06   12.30
   2   0  -3  246.38    8.40
   2   0  -3  252.87    9.40
   2   0  -3  248.08    8.50
  -2   0   3  249.38    9.10
   1   0  -3  558.14   18.60
   1   0  -3  545.05   17.70
   1   0  -3  563.44   17.30
  -1   0   3  516.65   18.20
   0   0  -3  364.56   12.70
   0   0   3  354.36   12.40
  -1   0  -3  442.16   15.20
   1   0   3  439.96   14.90
  -2   0  -3 1720.03   54.99
   2   0   3 1728.83   54.59
  -3   0  -3  143.99    6.10
   3   0   3  151.88    5.80
   3   0   3  153.38    6.20
   4   0   3  109.99    4.60
   4   0   3  108.49    5.20
   5   0   3   15.90    1.40
   5   0   3   16.80    1.20
   5   0   3   17.90    2.00
   6   0   3   69.19    3.00
   6   0   3   69.39    4.50
   6   0   3   69.39    3.40
   6   0   3   71.59    3.10
   7   0   3   14.40    2.50
   7   0   3   16.60    1.50
   7   0   3   15.80    1.40
   7   0   3   15.20    1.50
   8   0   3    1.70    1.20
   8   0   3    0.10    0.50
   8   0   3    0.50    0.60
   8   0   3   -0.60    0.40
   9   0   3    1.00    0.80
   9   0   3    1.90    0.80
   9   0   3    1.70    0.90
   9   0   3    3.50    1.70
  10   0   3   65.59    3.70
  10   0   3   70.09    4.00
  10   0   3   55.69    5.40
  11   0   3   60.69    6.00
  10  -1  -3    9.50    1.70
  10  -1  -3    8.90    1.70
  10  -1  -3   10.00    1.80
  10  -1  -3    9.40    1.90
   9  -1  -3   44.00    3.10
   9  -1  -3   49.80    3.10
   9  -1  -3   45.70    3.30
   9  -1  -3   47.70    3.20
   8  -1  -3    0.20    0.80
   8  -1  -3    0.20    0.80
   8  -1  -3    0.10    0.70
   8  -1  -3    0.20    0.60
   7  -1  -3   30.90    2.30
   7  -1  -3   30.00    2.20
   7  -1  -3   34.40    2.30
   7  -1  -3   29.00    2.50
   6  -1  -3  357.56   13.30
   6  -1  -3  351.36   12.30
   6  -1  -3  363.06   12.60
   6  -1  -3  360.36   12.50
   5  -1  -3   91.19    4.00
   5  -1  -3   91.69    4.60
   5  -1  -3   88.59    3.90
   4  -1  -3    0.30    0.50
   4  -1  -3    0.60    0.40
   4  -1  -3    0.10    0.30
   4  -1  -3    0.00    0.40
  -4   1   3   -0.20    0.40
   3  -1  -3    4.40    0.80
   3  -1  -3    2.80    0.60
   3  -1  -3    2.00    0.80
   3  -1  -3    3.10    0.50
  -3   1   3    4.10    0.90
   2  -1  -3 1261.47   40.00
   2  -1  -3 1287.77   40.50
   2  -1  -3 1289.07   41.30
  -2   1   3 1268.77   41.20
   1  -1  -3  359.56   11.40
   1  -1  -3  368.16   12.80
   1  -1  -3  371.56   12.20
  -1   1   3  345.87   12.60
   0  -1  -3    0.70    0.40
   0  -1  -3    0.30    0.40
   0   1   3    3.20    0.70
  -1  -1  -3 1547.65   48.00
   1   1   3 1460.85   47.80
  -2  -1  -3  183.08    7.00
   2   1   3  189.08    6.90
   3   1   3 1717.63   52.69
   3   1   3 1608.14   53.29
   4   1   3 1029.60   33.50
   4   1   3 1061.19   34.70
   5   1   3   51.39    3.60
   5   1   3   49.70    2.80
   5   1   3   52.49    2.60
   6   1   3   27.20    1.70
   6   1   3   28.80    2.80
   6   1   3   26.70    1.80
   7   1   3  129.79    5.20
   7   1   3  133.59    5.20
   7   1   3  124.29    7.10
   8   1   3    2.50    0.70
   8   1   3    2.30    0.70
   8   1   3    4.50    1.70
   9   1   3    2.40    0.70
   9   1   3    1.70    1.40
   9   1   3    3.10    0.90
  10   1   3   63.59    3.60
  10   1   3   58.69    5.60
  11   1   3   16.50    3.80
  10  -2  -3   35.60    2.90
  10  -2  -3   37.40    3.10
  10  -2  -3   39.10    3.30
  10  -2  -3   37.40    2.80
   9  -2  -3   35.60    2.70
   9  -2  -3   33.70    2.90
   9  -2  -3   32.50    3.00
   9  -2  -3   32.10    2.60
   8  -2  -3  141.39    7.00
   8  -2  -3  143.59    6.10
   8  -2  -3  147.19    6.40
   8  -2  -3  146.49    6.20
   7  -2  -3   92.79    4.40
   7  -2  -3   89.89    4.30
   7  -2  -3   92.69    5.10
   7  -2  -3   91.49    4.20
   6  -2  -3  195.38    7.50
   6  -2  -3  192.08    7.50
   6  -2  -3  200.28    7.40
   6  -2  -3  198.18    8.50
   5  -2  -3    0.20    0.50
   5  -2  -3   -0.20    0.60
   5  -2  -3    0.10    0.40
   5  -2  -3   -0.10    0.40
   4  -2  -3   39.00    2.10
   4  -2  -3   37.70    2.00
   4  -2  -3   38.50    2.00
   4  -2  -3   36.40    2.70
  -4   2   3   34.90    2.70
   3  -2  -3   51.49    2.70
   3  -2  -3   48.10    3.10
   3  -2  -3   52.59    2.40
  -3   2   3   51.19    3.20
   2  -2  -3 1057.99   33.10
   2  -2  -3 1015.50   33.70
  -2   2   3 1006.50   33.70
   1  -2  -3   19.50    1.40
   1  -2  -3   19.20    1.70
  -1   2   3   20.70    1.80
   0  -2  -3   94.39    4.20
   0  -2  -3   90.69    3.80
   0   2   3   77.99    4.00
   0   2   3   90.69    2.90
  -1  -2  -3   21.40    1.70
  -1  -2  -3   21.60    1.50
   1   2   3   20.50    1.00
   1   2   3   22.30    1.70
  -2  -2  -3  139.49    5.70
   2   2   3  153.88    5.80
   2   2   3  145.59    5.10
   2   2   3  137.69    5.90
   3   2   3  120.59    4.60
   3   2   3  123.99    4.90
   3   2   3  116.99    5.40
   4   2   3 1258.87   39.60
   4   2   3 1202.68   39.50
   4   2   3 1279.77   41.00
   4   2   3 1230.28   39.80
   5   2   3  105.49    4.40
   5   2   3  113.89    4.60
   5   2   3  112.99    5.90
   6   2   3  222.88   10.00
   6   2   3  213.08    7.60
   7   2   3  115.59    6.90
   7   2   3  120.19    4.50
   8   2   3   46.20    4.40
   9   2   3   48.80    4.70
  10   2   3   27.30    4.30
  11   2   3   22.40    4.40
  10  -3  -3  152.68    6.70
  10  -3  -3  145.39    7.60
  10  -3  -3  145.89    6.80
  10  -3  -3  137.89    6.60
   9  -3  -3   25.00    2.60
   9  -3  -3   17.20    2.70
   9  -3  -3   20.00    2.20
   9  -3  -3   19.30    2.20
   8  -3  -3    9.50    1.50
   8  -3  -3   10.10    1.60
   8  -3  -3    7.80    1.80
   8  -3  -3    9.40    1.50
   7  -3  -3  168.88    6.80
   7  -3  -3  166.18    6.70
   7  -3  -3  160.18    7.90
   7  -3  -3  171.68    6.80
   6  -3  -3 1380.26   45.80
   6  -3  -3 1363.46   44.10
   6  -3  -3 1389.56   44.20
   6  -3  -3 1386.46   44.20
   5  -3  -3  297.17   12.20
   5  -3  -3  314.47   10.80
   5  -3  -3  320.87   10.90
   5  -3  -3  318.67   10.90
   4  -3  -3  484.15   16.10
   4  -3  -3  502.65   16.10
  -4   3   3  470.15   17.70
   3  -3  -3  230.38    8.40
   3  -3  -3  232.08    9.00
   3  -3  -3  226.38    7.50
  -3   3   3  177.48    8.70
   2  -3  -3  489.15   17.50
   2  -3  -3  499.55   16.90
  -2   3   3  501.35   17.80
   1  -3  -3  254.87    9.10
   1  -3  -3  250.57    9.70
  -1   3   3  250.67    9.80
   0  -3  -3   12.70    1.40
   0  -3  -3   11.70    1.20
   0   3   3   13.00    1.50
   0   3   3   10.00    0.60
  -1  -3  -3   21.00    1.50
  -1  -3  -3   21.10    1.70
   1   3   3   21.40    1.10
   1   3   3   16.70    1.60
   1   3   3   21.60    1.50
  -2  -3  -3  597.64   19.00
  -2  -3  -3  582.94   18.80
   2   3   3  515.65   19.00
   2   3   3  564.34   19.10
   2   3   3  562.24   18.20
   3   3   3   79.89    3.70
   3   3   3   80.79    3.40
   3   3   3   78.09    4.20
   4   3   3  340.57   12.00
   4   3   3  339.37   12.10
   4   3   3  356.16   12.00
   4   3   3  348.57   13.20
   5   3   3  232.08    8.20
   5   3   3  223.58    9.90
   5   3   3  220.78    8.30
   5   3   3  240.68    8.70
   6   3   3   79.19    3.30
   6   3   3   75.09    5.10
   6   3   3   78.39    4.00
   7   3   3   11.70    2.40
   8   3   3    3.60    1.50
   9   3   3   38.90    4.40
  10   3   3   16.60    3.50
  10  -4  -3   87.79    5.90
  10  -4  -3   94.09    4.80
  10  -4  -3   86.39    4.80
  10  -4  -3   83.39    4.60
   9  -4  -3    0.50    0.90
   9  -4  -3    0.80    0.90
   9  -4  -3    0.60    0.90
   9  -4  -3    1.00    1.20
   8  -4  -3  164.38    8.40
   8  -4  -3  163.38    6.90
   8  -4  -3  176.38    7.00
   8  -4  -3  169.18    7.00
   7  -4  -3    1.80    0.80
   7  -4  -3    1.00    0.70
   7  -4  -3    2.50    1.30
   7  -4  -3    4.10    1.00
   6  -4  -3  206.78    7.80
   6  -4  -3  208.88    7.80
   6  -4  -3  210.58    7.90
   6  -4  -3  211.18    9.60
   5  -4  -3    2.50    1.20
   5  -4  -3    1.20    0.70
   5  -4  -3    1.60    0.60
   5  -4  -3    0.20    0.50
   4  -4  -3  375.76   12.20
   4  -4  -3  367.36   14.10
   4  -4  -3  369.36   12.40
  -4   4   3  344.57   14.30
   3  -4  -3  238.98    9.00
   3  -4  -3  238.88    9.70
   3  -4  -3  232.68    7.90
  -3   4   3  211.38    9.70
   2  -4  -3  265.57    9.80
   2  -4  -3  258.17   10.40
  -2   4   3  257.67   10.70
   1  -4  -3  187.68    7.40
   1  -4  -3  192.88    8.10
  -1   4   3  190.68    8.30
   0  -4  -3  388.56   13.50
   0  -4  -3  370.96   12.80
   0   4   3  357.56   12.30
   0   4   3  364.06   11.90
   0   4   3  350.66   13.60
  -1  -4  -3   90.09    4.40
  -1  -4  -3   90.89    4.00
   1   4   3   82.49    4.50
   1   4   3   85.59    3.40
   1   4   3   94.89    4.00
  -2  -4  -3  136.59    5.60
  -2  -4  -3  126.79    5.30
   2   4   3  127.99    5.80
   2   4   3  128.29    4.90
   2   4   3  131.49    5.70
  -3  -4  -3   51.39    2.70
   3   4   3   49.99    2.60
   3   4   3   52.79    3.30
   3   4   3   51.49    3.00
   4   4   3   97.99    4.60
   4   4   3  106.69    5.60
   4   4   3  109.19    4.80
   4   4   3  109.59    4.60
   5   4   3  550.54   18.80
   5   4   3  555.74   20.50
   5   4   3  549.65   18.50
   6   4   3    2.40    1.30
   6   4   3    0.40    0.40
   6   4   3    1.10    0.70
   7   4   3    2.60    1.00
   7   4   3    1.60    1.20
   8   4   3   47.20    4.60
   8   4   3   51.79    3.50
   9   4   3  188.98   10.60
  10   4   3    4.10    2.10
   9  -5  -3   20.40    2.30
   9  -5  -3   20.70    2.40
   9  -5  -3   21.90    3.50
   8  -5  -3   47.00    4.40
   8  -5  -3   56.99    3.30
   8  -5  -3   52.79    3.20
   8  -5  -3   61.49    4.10
   7  -5  -3   55.19    3.00
   7  -5  -3   52.89    3.10
   7  -5  -3   50.39    3.00
   7  -5  -3   55.89    4.40
   6  -5  -3   23.60    3.00
   6  -5  -3   25.80    1.80
   6  -5  -3   28.40    2.00
   6  -5  -3   26.90    1.90
   5  -5  -3   71.99    4.90
   5  -5  -3   70.59    3.20
   5  -5  -3   73.49    3.40
   4  -5  -3   69.89    4.70
   4  -5  -3   71.99    3.00
   4  -5  -3   74.99    3.30
  -4   5   3   73.39    5.10
   3  -5  -3  352.16   14.10
   3  -5  -3  361.16   11.90
   3  -5  -3  365.66   13.40
  -3   5   3  376.66   14.90
   2  -5  -3  280.37   10.60
   2  -5  -3  274.87    9.20
   2  -5  -3  285.87   11.40
  -2   5   3  281.77   11.90
   1  -5  -3   32.40    2.70
   1  -5  -3   32.60    2.30
  -1   5   3   31.50    1.60
  -1   5   3   26.60    2.70
   0  -5  -3  183.28    7.70
   0   5   3  173.48    6.50
   0   5   3  168.18    8.00
   0   5   3  179.68    6.30
  -1  -5  -3   25.70    1.90
  -1  -5  -3   24.20    2.20
   1   5   3   26.30    1.60
   1   5   3   21.50    2.30
   1   5   3   25.20    1.90
  -2  -5  -3  129.39    5.50
  -2  -5  -3  136.19    5.90
   2   5   3  132.69    6.30
   2   5   3  133.39    6.00
   2   5   3  134.09    5.20
  -3  -5  -3   39.30    2.30
   3   5   3   34.10    2.60
   3   5   3   34.00    2.10
   3   5   3   31.70    2.70
  -4  -5  -3   33.90    2.20
   4   5   3   34.00    3.00
   4   5   3   27.10    2.30
   4   5   3   33.80    2.20
  -5  -5  -3  600.44   20.00
   5   5   3  599.14   20.20
   5   5   3  573.14   21.80
   5   5   3  598.14   20.20
  -6  -5  -3    4.60    1.50
   6   5   3    3.40    1.40
   6   5   3    8.00    1.20
   6   5   3    5.90    1.30
   7   5   3   54.09    4.80
   7   5   3   59.49    2.50
   7   5   3   56.69    3.70
   8   5   3   78.59    4.70
   8   5   3   76.39    6.10
   9   5   3   92.89    5.40
   9   5   3   88.49    7.00
  10   5   3    7.90    2.80
   9  -6  -3    6.20    2.20
   9  -6  -3    9.40    1.70
   9  -6  -3    6.60    1.50
   8  -6  -3   59.89    5.10
   8  -6  -3   64.49    3.60
   8  -6  -3   66.49    3.70
   7  -6  -3   81.39    4.00
   7  -6  -3   84.79    5.90
   7  -6  -3   83.39    4.10
   6  -6  -3  231.58    8.70
   6  -6  -3  223.68   10.80
   6  -6  -3  241.98    8.70
   5  -6  -3  160.08    6.20
   5  -6  -3  160.68    8.40
   4  -6  -3    1.70    0.60
   4  -6  -3    1.30    1.10
  -4   6   3    0.70    1.10
   3  -6  -3   17.30    2.50
  -3   6   3   22.60    3.30
   2  -6  -3  842.22   27.30
   2  -6  -3  903.21   30.30
   2  -6  -3  842.82   29.20
  -2   6   3  892.71   31.10
   1  -6  -3  587.64   21.30
   1  -6  -3  605.04   20.50
  -1   6   3  548.15   21.80
  -1   6   3  616.54   19.00
   0  -6  -3   32.00    2.70
   0  -6  -3   26.70    2.20
   0   6   3   28.20    1.80
   0   6   3   26.70    1.70
   0   6   3   32.20    3.10
  -1  -6  -3  517.65   19.10
  -1  -6  -3  549.95   18.50
   1   6   3  555.44   18.50
   1   6   3  537.35   17.90
   1   6   3  527.25   19.80
  -2  -6  -3   49.40    3.30
  -2  -6  -3   50.49    3.00
   2   6   3   55.29    3.40
   2   6   3   53.09    2.80
   2   6   3   58.59    3.90
  -3  -6  -3   -0.10    0.60
   3   6   3    0.70    0.60
   3   6   3    0.20    0.70
   3   6   3    1.30    0.80
  -4  -6  -3    4.40    1.10
   4   6   3    4.30    1.20
   4   6   3    4.60    1.00
   4   6   3    4.20    1.40
  -5  -6  -3  144.99    5.80
   5   6   3  129.59    6.20
   5   6   3  130.59    7.20
   5   6   3  138.09    6.00
   6   6   3  100.29    5.20
   6   6   3  108.09    4.90
   6   6   3   95.29    6.40
   7   6   3   84.69    3.60
   7   6   3   73.59    4.50
   7   6   3   67.49    5.70
   8   6   3  256.67   13.00
   8   6   3  264.37   10.90
   9   6   3   96.89    5.70
   9   6   3   92.19    7.30
   8  -7  -3    1.40    1.00
   8  -7  -3    1.20    1.60
   8  -7  -3    1.40    0.90
   7  -7  -3   18.60    2.00
   7  -7  -3   21.00    2.10
   7  -7  -3   21.40    3.50
   6  -7  -3  171.58    6.80
   6  -7  -3  164.78    9.10
   6  -7  -3  172.48    6.70
   5  -7  -3  153.58    6.10
   5  -7  -3  161.38    8.60
   4  -7  -3  117.29    4.70
   4  -7  -3  114.09    6.90
  -4   7   3  119.29    7.70
   3  -7  -3  300.07   13.20
  -3   7   3  325.67   14.40
   2  -7  -3  266.57   11.70
  -2   7   3  269.47   12.60
   1  -7  -3   47.50    3.80
   1  -7  -3   47.20    3.20
  -1   7   3   40.00    4.00
   0  -7  -3  149.19    6.70
   0   7   3  151.98    6.00
   0   7   3  150.28    8.10
  -1  -7  -3  240.88   10.40
  -1  -7  -3  255.77    9.80
   1   7   3  255.17   11.40
   1   7   3  254.87    9.20
   1   7   3  251.57    9.60
  -2  -7  -3   65.39    3.60
   2   7   3   67.09    3.40
   2   7   3   66.29    4.00
   2   7   3   61.99    4.50
  -3  -7  -3    0.30    0.70
   3   7   3    0.40    0.80
   3   7   3   -0.40    0.50
   3   7   3    0.20    0.70
  -4  -7  -3  283.97   10.60
   4   7   3  300.17   11.90
   4   7   3  278.27   12.20
   4   7   3  287.87   10.90
   5   7   3   72.09    4.20
   5   7   3   59.19    4.70
   5   7   3   61.39    3.70
   6   7   3   11.60    1.80
   6   7   3   10.60    1.70
   6   7   3    9.70    2.30
   7   7   3   72.59    3.70
   7   7   3   66.19    5.60
   7   7   3   69.49    4.40
   8   7   3   95.09    7.10
   8   7   3   89.59    5.40
   9   7   3   20.70    4.10
   9   7   3   21.50    3.00
   8  -8  -3    0.90    0.90
   8  -8  -3    2.90    1.90
   7  -8  -3    0.30    1.70
   7  -8  -3    0.10    0.70
   6  -8  -3   59.69    3.30
   6  -8  -3   59.29    5.30
   5  -8  -3    1.60    1.50
   4  -8  -3   16.30    2.90
  -4   8   3   18.10    3.60
   3  -8  -3  117.59    7.10
  -3   8   3  115.19    7.90
   2  -8  -3   81.89    5.60
  -2   8   3   78.59    6.10
   1  -8  -3   12.90    2.50
  -1   8   3   16.10    3.10
   0  -8  -3   39.30    3.50
   0  -8  -3   39.20    3.00
   0   8   3   29.40    3.60
   0   8   3   39.00    2.50
  -1  -8  -3  136.29    6.20
   1   8   3  122.19    7.50
   1   8   3  132.09    5.70
  -2  -8  -3  174.28    7.40
   2   8   3  162.78    7.10
   2   8   3  194.08    9.30
   2   8   3  171.68    8.00
  -3  -8  -3    6.50    1.30
   3   8   3    7.20    1.80
   3   8   3    6.30    1.80
   3   8   3    3.80    1.00
   4   8   3  102.29    5.10
   4   8   3  106.99    6.10
   4   8   3   98.89    6.20
   5   8   3  100.99    5.40
   5   8   3  116.79    6.10
   5   8   3   98.09    6.50
   6   8   3    1.40    1.10
   6   8   3    2.30    1.00
   6   8   3    1.80    1.40
   7   8   3   17.70    2.10
   7   8   3   16.60    2.50
   7   8   3   16.70    1.90
   7   8   3   13.10    3.00
   8   8   3    2.50    1.30
   8   8   3    2.20    1.70
   7  -9  -3   17.10    3.80
   6  -9  -3   44.70    3.10
   6  -9  -3   51.49    5.40
   5  -9  -3   33.90    4.80
   4  -9  -3    0.20    1.30
  -4   9   3    2.80    2.00
   3  -9  -3   30.80    4.30
  -3   9   3   43.70    4.90
   2  -9  -3   23.70    3.40
  -2   9   3   17.50    3.50
   1  -9  -3    4.80    1.80
  -1   9   3   12.50    2.80
   0   9   3   86.59    4.60
   0   9   3  118.79    7.50
  -1  -9  -3   64.59    4.20
   1   9   3   86.79    6.10
   1   9   3   66.29    3.80
  -2  -9  -3  204.38    8.60
   2   9   3  203.38   10.40
   2   9   3  201.58    8.30
   3   9   3  120.99    7.00
   3   9   3   89.39    5.00
   4   9   3  162.18    7.30
   4   9   3  174.88    8.70
   4   9   3  141.69   10.70
   5   9   3    2.60    1.30
   5   9   3    2.60    1.50
   5   9   3    1.50    1.10
   6   9   3    0.60    0.90
   6   9   3    0.30    1.00
   6   9   3   -1.30    1.10
   7   9   3   10.30    2.00
   7   9   3   10.80    2.90
   7   9   3   13.60    2.10
   7   9   3   14.20    2.40
   6 -10  -3  144.49    9.60
   5 -10  -3    1.60    1.90
   4 -10  -3    1.40    1.60
  -4  10   3    0.00    1.60
   3 -10  -3  170.28   10.20
  -3  10   3  226.88   12.40
  -2  10   3    2.30    1.90
  -1  10   3   13.00    3.20
  -1  10   3   13.30    1.80
   0  10   3  220.18   11.70
   0  10   3  189.38    8.30
   1  10   3   13.10    1.90
   1  10   3   12.80    2.90
   2  10   3  198.58   10.50
   2  10   3  176.98    7.90
   3  10   3   75.29    4.40
   3  10   3   69.39    5.70
   4  10   3   18.00    2.40
   4  10   3   22.30    3.60
   5  10   3    1.60    1.20
   5  10   3    2.00    1.30
   6  10   3   18.10    2.70
   6  10   3   25.40    3.10
   4 -11  -3   20.40    3.90
  -3  11   3    6.20    2.80
  -2  11   3    0.10    1.40
  -1  11   3   30.40    5.00
   0  11   3    1.40    1.60
   1  11   3    2.30    1.70
   1  11   3    0.60    0.90
   2  11   3    9.40    2.80
   2  11   3   15.20    2.20
   3  11   3  176.18   10.20
   3  11   3  166.08    7.80
   4  11   3   18.70    2.70
   4  11   3   20.40    3.40
   5  11   3   12.90    2.40
   5  11   3   18.70    3.20
  -2  12   3   26.60    5.30
  -1  12   3    9.40    3.40
   0  12   3    4.70    2.40
   1  12   3    8.00    2.80
   2  12   3   50.29    5.50
   3  10  -4   49.10    4.20
   3  10  -4   51.99    5.60
   2  10  -4    7.30    2.70
   2  10  -4    6.10    1.90
   1  10  -4   23.20    4.50
   1  10  -4   24.90    3.30
   0  10  -4    3.60    2.30
   0  10  -4    1.00    1.20
  -1  10  -4   14.80    3.80
  -2  10  -4   42.60    6.40
  -3  10  -4  162.38   11.40
  -4  10  -4   11.60    3.80
   4 -10   4   15.10    4.60
   5 -10   4    0.90    1.70
   5   9  -4   -0.30    1.20
   5   9  -4    0.90    1.20
   4   9  -4   29.40    4.40
   4   9  -4   31.30    3.50
   3   9  -4  149.39    7.60
   3   9  -4  154.48    9.50
   2   9  -4   17.20    3.50
   2   9  -4   15.70    2.60
   1   9  -4   26.90    4.50
   1   9  -4   22.30    2.90
   0   9  -4   33.00    5.00
  -1   9  -4    0.40    1.60
  -2   9  -4   33.30    5.30
  -3   9  -4   41.90    6.10
   3  -9   4   51.49    4.90
  -4   9  -4   43.70    6.60
   4  -9   4   48.50    4.90
   5  -9   4    2.60    1.80
   6  -9   4  169.68   10.20
   6   8  -4    0.10    1.10
   6   8  -4   -0.10    1.10
   5   8  -4   53.49    4.10
   5   8  -4   47.10    4.60
   4   8  -4  181.18   10.00
   4   8  -4  188.78    8.70
   3   8  -4   14.50    3.10
   3   8  -4   11.40    2.10
   2   8  -4    0.40    0.80
   2   8  -4    2.10    1.50
   1   8  -4    1.30    1.40
   1   8  -4    5.50    1.50
   0   8  -4  143.79    9.10
  -1   8  -4    1.10    1.50
  -2   8  -4  150.38    9.70
   2  -8   4  140.69    8.10
  -3   8  -4   11.00    3.30
   3  -8   4   10.20    2.40
  -4   8  -4   23.20    4.50
   4  -8   4   21.60    3.50
   5  -8   4   67.09    5.60
   6  -8   4  167.88    9.70
   7  -8   4   14.90    3.30
   7   7  -4   12.10    2.50
   7   7  -4   16.70    2.20
   7   7  -4   16.40    2.50
   6   7  -4   12.80    2.40
   6   7  -4   15.50    2.00
   6   7  -4   15.80    2.70
   5   7  -4    1.80    0.90
   5   7  -4    2.00    1.20
   5   7  -4    2.10    1.30
   4   7  -4  364.46   12.80
   4   7  -4  363.86   14.00
   4   7  -4  354.66   15.50
   3   7  -4    0.10    1.00
   3   7  -4    0.30    0.90
   3   7  -4    0.40    0.60
   2   7  -4  116.89    7.40
   2   7  -4  119.99    5.90
   1   7  -4   -1.00    0.60
   1   7  -4   -0.40    1.00
   0   7  -4   21.50    3.60
  -1   7  -4    2.20    1.50
   1  -7   4    1.60    1.10
  -2   7  -4   26.70    4.10
   2  -7   4   23.40    2.90
  -3   7  -4   56.09    5.50
   3  -7   4   56.99    4.60
  -4   7  -4   78.69    6.70
   4  -7   4   76.89    5.50
   5  -7   4   30.60    3.60
   6  -7   4   45.40    4.50
   7  -7   4   14.80    3.10
   8  -7   4   70.09    6.00
   8   6  -4   52.59    3.70
   8   6  -4   58.49    4.30
   8   6  -4   58.79    4.50
   7   6  -4    1.90    1.00
   7   6  -4    2.30    1.10
   7   6  -4    1.80    1.00
   7   6  -4    0.80    1.20
   6   6  -4   69.69    3.90
   6   6  -4   69.29    4.70
   6   6  -4   65.49    4.50
   5   6  -4   14.10    1.80
   5   6  -4   13.00    2.20
   5   6  -4   14.00    2.50
   4   6  -4  133.09    6.40
   4   6  -4  132.19    5.70
   4   6  -4  144.89    7.70
   3   6  -4  174.38    8.80
   3   6  -4  160.48    7.30
   3   6  -4  168.18    6.50
   2   6  -4  258.67    9.30
   2   6  -4  260.57   10.40
   2   6  -4  272.77   12.20
   1   6  -4  118.59    7.20
   1   6  -4  116.99    4.60
   0   6  -4   14.00    1.10
   0   6  -4   16.10    3.00
   0  -6   4   15.60    2.30
  -1   6  -4  120.39    7.40
   1  -6   4  105.29    6.10
  -2   6  -4   36.20    4.00
   2  -6   4   34.50    3.20
  -3   6  -4    4.50    1.90
   3  -6   4    4.50    1.50
  -4   6  -4  351.76   16.10
   4  -6   4  353.26   14.60
  -5   6  -4  113.09    8.60
   5  -6   4  123.09    7.10
   6  -6   4   87.69    6.00
   7  -6   4   38.30    4.10
   8  -6   4  122.19    7.70
   9  -6   4   17.20    3.30
   8   5  -4   -0.20    0.70
   8   5  -4    1.90    1.00
   8   5  -4    0.00    0.70
   8   5  -4   -0.10    1.00
   7   5  -4   29.40    2.20
   7   5  -4   27.60    3.10
   7   5  -4   27.40    2.50
   7   5  -4   32.30    2.20
   7   5  -4   28.90    2.80
   6   5  -4   23.80    1.90
   6   5  -4   22.20    2.60
   6   5  -4   25.80    2.40
   6   5  -4   24.50    2.80
   6   5  -4   24.40    1.80
   5   5  -4  176.68    8.40
   5   5  -4  178.28    7.20
   5   5  -4  181.58    6.60
   5   5  -4  175.78    6.70
   5   5  -4  178.68    7.80
   4   5  -4   32.60    1.80
   4   5  -4   28.60    1.80
   4   5  -4   30.70    2.20
   4   5  -4   34.80    2.60
   4   5  -4   31.60    3.20
   3   5  -4   53.39    2.90
   3   5  -4   51.99    3.30
   3   5  -4   63.29    4.50
   3   5  -4   58.09    2.50
   3   5  -4   53.89    2.50
   2   5  -4  172.18    8.50
   2   5  -4  173.18    6.30
   2   5  -4  156.08    6.90
   2   5  -4  164.88    5.80
   1   5  -4   74.29    3.10
   1   5  -4   82.69    5.40
   1   5  -4   78.09    3.30
  -1  -5   4   77.59    4.50
   0   5  -4   75.29    5.20
   0  -5   4   69.79    4.30
  -1   5  -4  366.96   15.50
   1  -5   4  368.66   14.20
  -2   5  -4  232.88   11.20
   2  -5   4  230.08   10.00
  -3   5  -4    0.50    1.00
   3  -5   4    0.80    0.80
  -4   5  -4    0.10    1.00
   4  -5   4    0.90    0.90
  -5   5  -4  746.83   28.60
   5  -5   4  740.73   27.10
   5  -5   4  788.52   26.10
   6  -5   4   12.20    2.50
   7  -5   4  373.56   15.50
   8  -5   4  163.28    8.80
   9  -5   4   10.40    2.50
   9   4  -4   30.60    3.20
   9   4  -4   29.80    2.80
   9   4  -4   34.60    2.90
   9   4  -4   28.80    3.40
   8   4  -4   24.80    2.70
   8   4  -4   30.50    2.30
   8   4  -4   25.90    3.00
   8   4  -4   33.30    2.40
   7   4  -4    4.80    1.10
   7   4  -4    8.20    1.60
   7   4  -4    6.10    1.30
   7   4  -4    5.90    1.10
   7   4  -4    5.30    1.50
   6   4  -4    2.60    1.00
   6   4  -4    4.00    0.90
   6   4  -4    4.00    0.90
   6   4  -4    3.20    1.10
   6   4  -4    4.20    1.30
   5   4  -4  214.78    8.10
   5   4  -4  209.38    8.60
   5   4  -4  202.18    7.50
   5   4  -4  207.08    7.60
   5   4  -4  200.68    9.00
   4   4  -4  817.82   27.00
   4   4  -4  840.32   27.50
   4   4  -4  853.61   29.10
   4   4  -4  831.82   28.00
   4   4  -4  847.32   26.90
   3   4  -4  264.37   10.80
   3   4  -4  239.78    8.50
   3   4  -4  248.58    8.40
   3   4  -4  243.18    9.40
   3   4  -4  245.28    8.90
   2   4  -4   27.20    1.70
   2   4  -4   26.80    1.40
   2   4  -4   21.70    2.50
   2   4  -4   25.70    1.30
   2   4  -4   22.50    1.90
  -2  -4   4   25.20    2.30
   1   4  -4    5.50    1.50
   1   4  -4    0.20    0.30
   1   4  -4    1.00    0.30
  -1  -4   4    1.30    0.80
   0   4  -4 1585.74   52.49
   0   4  -4 1611.14   49.10
   0  -4   4 1533.85   51.29
  -1   4  -4  388.06   15.60
   1  -4   4  390.16   14.50
  -2   4  -4   60.99    4.60
   2  -4   4   61.09    3.90
  -3   4  -4  457.15   18.00
   3  -4   4  448.46   16.80
  -4   4  -4  190.68    9.50
   4  -4   4  181.78    8.40
  -5   4  -4    0.90    1.10
   5  -4   4    3.00    1.10
   5  -4   4    2.00    1.10
   6  -4   4    3.40    1.20
   6  -4   4    0.50    1.00
   7  -4   4   99.69    6.10
   7  -4   4  107.89    6.10
   8  -4   4   60.39    4.60
   9  -4   4    7.70    2.10
  10  -4   4   32.20    3.70
   9   3  -4  203.38    8.00
   9   3  -4  186.58    8.10
   9   3  -4  184.78    8.90
   9   3  -4  207.88    8.70
   8   3  -4   51.19    3.10
   8   3  -4   54.69    3.60
   8   3  -4   57.59    3.30
   8   3  -4   56.99    4.00
   8   3  -4   58.39    3.40
   7   3  -4   38.50    2.50
   7   3  -4   44.60    2.90
   7   3  -4   40.80    2.50
   7   3  -4   40.00    2.90
   7   3  -4   37.90    3.00
   6   3  -4   25.70    2.20
   6   3  -4   27.30    2.40
   6   3  -4   27.00    2.50
   6   3  -4   27.30    1.90
   6   3  -4   29.00    2.00
   5   3  -4  509.45   17.10
   5   3  -4  497.85   17.00
   5   3  -4  543.55   18.00
   5   3  -4  498.45   17.50
   5   3  -4  514.05   18.50
   4   3  -4   24.40    2.40
   4   3  -4   23.80    2.00
   4   3  -4   27.20    1.90
   4   3  -4   26.30    1.60
   4   3  -4   28.80    1.70
   3   3  -4  244.78    8.90
   3   3  -4  241.68    8.60
   3   3  -4  229.48    8.10
   3   3  -4  235.48    9.90
   3   3  -4  239.68    8.20
   2   3  -4  208.28    8.90
   2   3  -4  194.28    6.90
   2   3  -4  200.98    6.80
   2   3  -4  196.98    7.30
   2   3  -4  205.08    7.60
  -2  -3   4  208.58    8.20
   1   3  -4  155.38    5.30
   1   3  -4  150.88    5.20
   1   3  -4  157.18    7.40
  -1  -3   4  154.98    6.60
   0   3  -4  487.65   15.30
   0   3  -4  498.95   18.20
   0  -3   4  479.05   17.20
  -1   3  -4  269.57   11.20
   1  -3   4  265.17   10.40
   2  -3   4  144.79    6.50
  -3   3  -4  397.26   15.70
   3  -3   4  403.86   14.90
  -4   3  -4   73.69    5.00
   4  -3   4   74.59    4.40
  -5   3  -4    0.00    0.80
   5  -3   4    0.10    0.60
   5  -3   4   -0.30    0.60
   6  -3   4   58.89    4.00
   6  -3   4   55.69    4.00
   7  -3   4    9.30    1.90
   7  -3   4    6.80    0.90
   7  -3   4    7.50    1.80
   8  -3   4    0.30    0.90
   8  -3   4   -0.20    0.80
   8  -3   4    0.40    0.50
   9  -3   4   17.20    3.10
   9  -3   4   20.40    2.90
  10  -3   4  111.39    6.50
   9   2  -4  126.09    5.80
   9   2  -4  130.29    6.70
   9   2  -4  128.89    6.40
   9   2  -4  131.19    6.10
   8   2  -4   13.20    1.80
   8   2  -4   12.30    1.60
   8   2  -4   12.40    1.70
   8   2  -4   11.10    2.00
   8   2  -4   10.10    1.80
   7   2  -4  117.99    5.80
   7   2  -4  121.59    5.30
   7   2  -4  119.99    5.70
   7   2  -4  115.99    5.10
   7   2  -4  115.49    5.60
   6   2  -4    6.00    1.00
   6   2  -4    5.50    1.30
   6   2  -4    3.70    1.10
   6   2  -4    4.90    1.10
   6   2  -4    4.70    1.00
   5   2  -4  362.36   12.60
   5   2  -4  373.76   13.30
   5   2  -4  373.26   13.10
   5   2  -4  378.36   12.80
   5   2  -4  372.56   13.90
   4   2  -4   64.49    3.20
   4   2  -4   59.99    2.70
   4   2  -4   56.19    2.70
   4   2  -4   55.79    3.00
   4   2  -4   58.59    3.70
   3   2  -4   31.10    2.60
   3   2  -4   28.20    1.80
   3   2  -4   28.10    1.90
   3   2  -4   30.50    1.60
   3   2  -4   31.20    1.70
   3   2  -4   29.90    1.50
  -3  -2   4   28.30    2.10
   2   2  -4   15.50    1.00
   2   2  -4   13.40    0.90
   2   2  -4   17.20    1.90
   2   2  -4   13.40    1.00
   2   2  -4   15.70    1.30
  -2  -2   4   10.10    1.50
   1   2  -4    1.90    0.30
   1   2  -4    0.90    0.70
  -1  -2   4    2.20    0.70
   0   2  -4  126.99    4.20
   0   2  -4  129.19    6.20
   0  -2   4  125.09    5.60
   1  -2   4   10.70    1.30
  -2   2  -4   13.30    2.10
   2  -2   4   12.90    1.50
  -3   2  -4   43.20    3.30
   3  -2   4   42.20    2.90
  -4   2  -4  328.97   13.30
   4  -2   4  342.57   12.60
  -5   2  -4    5.50    1.50
   5  -2   4    5.90    1.30
   5  -2   4    6.00    1.40
   6  -2   4  179.58    8.40
   6  -2   4  182.88    8.00
   7  -2   4   42.40    3.70
   7  -2   4   41.60    3.20
   8  -2   4   11.30    2.40
   8  -2   4   13.70    2.10
   9  -2   4    2.10    1.20
   9  -2   4    2.90    1.60
  10  -2   4   28.00    2.90
  10  -2   4   36.20    4.10
  10   1  -4   75.79    4.30
  10   1  -4   78.49    4.70
   9   1  -4  110.49    5.40
   9   1  -4  115.19    5.60
   9   1  -4  124.49    6.00
   9   1  -4  116.09    5.40
   8   1  -4   39.80    2.60
   8   1  -4   39.90    3.00
   8   1  -4   32.40    2.80
   8   1  -4   31.30    2.50
   8   1  -4   37.60    2.80
   7   1  -4  510.45   17.40
   7   1  -4  495.95   17.90
   7   1  -4  505.25   17.70
   7   1  -4  503.65   17.90
   7   1  -4  513.55   17.20
   6   1  -4  337.37   12.20
   6   1  -4  342.77   12.80
   6   1  -4  340.37   12.40
   6   1  -4  335.37   12.00
   6   1  -4  336.47   11.80
   5   1  -4   14.70    1.70
   5   1  -4   14.20    2.00
   5   1  -4   13.10    1.50
   5   1  -4   12.70    1.30
   5   1  -4   14.80    1.50
   4   1  -4    2.20    0.90
   4   1  -4    1.70    0.60
   4   1  -4    2.50    0.60
   4   1  -4    1.80    0.50
   4   1  -4    2.30    0.60
   4   1  -4    2.90    0.80
   3   1  -4   30.30    2.50
   3   1  -4   31.90    1.60
   3   1  -4   29.70    1.80
   3   1  -4   31.40    1.70
   3   1  -4   31.00    1.70
   3   1  -4   32.70    1.90
  -3  -1   4   35.20    2.40
   2   1  -4  778.12   25.00
   2   1  -4  776.22   26.40
   2   1  -4  779.52   24.90
   2   1  -4  780.02   24.60
  -2  -1   4  767.62   25.80
   1   1  -4  317.17   12.20
   1   1  -4  320.17   10.70
  -1  -1   4  327.77   11.70
   0   1  -4    8.00    1.60
  -1   1  -4  115.19    5.60
   1  -1   4  114.59    5.10
  -2   1  -4 1895.21   60.69
   2  -1   4 1869.11   59.99
   3  -1   4   15.10    1.60
  -4   1  -4  115.79    5.80
   4  -1   4  119.99    5.40
   4  -1   4  123.49    5.70
  -5   1  -4    0.00    0.60
   5  -1   4    0.10    0.60
   5  -1   4    0.40    0.60
   6  -1   4  825.82   27.80
   6  -1   4  830.92   29.00
   7  -1   4  193.78    9.40
   7  -1   4  200.98    8.30
   8  -1   4   18.60    2.10
   8  -1   4   21.60    3.30
   9  -1   4  103.99    7.00
   9  -1   4  108.59    5.50
  10  -1   4   75.39    6.10
  10  -1   4   72.49    4.30
  11  -1   4    0.40    0.90
  11  -1   4    0.70    1.50
  10   0  -4    6.50    1.70
  10   0  -4    6.40    1.50
  10   0  -4    5.10    1.30
   9   0  -4   31.10    2.70
   9   0  -4   33.90    2.90
   9   0  -4   30.20    3.00
   9   0  -4   31.00    2.90
   8   0  -4   75.69    4.40
   8   0  -4   76.89    3.90
   8   0  -4   74.69    4.20
   8   0  -4   76.99    4.00
   7   0  -4   81.29    4.00
   7   0  -4   83.19    4.20
   7   0  -4   77.49    3.90
   7   0  -4   77.19    4.50
   6   0  -4  221.68    8.10
   6   0  -4  214.48    8.40
   6   0  -4  226.88    8.30
   6   0  -4  215.08    9.00
   6   0  -4  213.08    8.40
   5   0  -4  341.07   11.80
   5   0  -4  342.27   12.00
   5   0  -4  331.87   12.80
   5   0  -4  342.57   11.70
   5   0  -4  341.97   12.00
   4   0  -4  379.66   13.00
   4   0  -4  374.26   13.10
   4   0  -4  384.66   13.00
   4   0  -4  397.76   12.90
   4   0  -4  383.36   13.00
   4   0  -4  373.26   14.10
   3   0  -4  242.18    8.30
   3   0  -4  242.78    8.50
   3   0  -4  240.48    8.20
   3   0  -4  235.28    9.50
   3   0  -4  242.08    8.50
  -3   0   4  223.28    9.10
   2   0  -4    0.00    0.30
   2   0  -4    0.20    0.50
   2   0  -4    0.40    0.30
  -2   0   4    0.60    0.50
   1   0  -4    0.80    0.30
   1   0  -4    1.50    0.60
   1   0  -4    0.80    0.70
  -1   0   4    2.00    0.80
   0   0  -4  637.64   21.90
   0   0   4  637.74   21.50
  -1   0  -4  635.24   21.00
   1   0   4  581.74   20.40
  -2   0  -4 2862.81   89.19
   2   0   4 2766.22   88.69
  -3   0  -4    3.20    1.00
  -4   0  -4  311.77   11.90
   4   0   4  312.27   11.50
   4   0   4  337.37   12.30
   5   0   4  955.90   32.80
   5   0   4  978.20   31.70
   6   0   4  580.94   20.10
   6   0   4  601.94   21.70
   7   0   4   13.50    1.60
   7   0   4   10.40    2.10
   8   0   4   54.09    3.20
   8   0   4   50.49    4.40
   9   0   4  237.68    9.10
   9   0   4  219.38   11.40
  10   0   4   18.90    1.90
  10   0   4   16.70    3.30
  11   0   4    3.50    2.10
  10  -1  -4    7.50    1.70
  10  -1  -4    7.50    1.60
  10  -1  -4    5.70    1.60
  10  -1  -4    5.20    1.60
   9  -1  -4  121.09    6.30
   9  -1  -4  127.29    5.70
   9  -1  -4  122.49    6.00
   9  -1  -4  115.89    5.70
   8  -1  -4   47.30    3.00
   8  -1  -4   56.99    3.30
   8  -1  -4   58.59    3.50
   8  -1  -4   52.69    3.80
   7  -1  -4   27.50    2.10
   7  -1  -4   28.80    2.80
   7  -1  -4   28.50    2.30
   7  -1  -4   28.50    2.20
   6  -1  -4   20.40    2.30
   6  -1  -4   21.30    2.00
   5  -1  -4  479.35   17.50
   5  -1  -4  486.45   16.20
   5  -1  -4  486.65   16.30
   5  -1  -4  477.35   16.40
   4  -1  -4   64.99    3.20
   4  -1  -4   62.69    2.90
   4  -1  -4   64.99    3.00
   4  -1  -4   62.09    2.80
   4  -1  -4   64.79    2.90
   4  -1  -4   62.69    3.80
  -4   1   4   51.59    3.40
   3  -1  -4    1.00    0.70
   3  -1  -4    0.80    0.50
   3  -1  -4    0.80    0.40
   3  -1  -4    0.40    0.40
  -3   1   4   -0.40    0.50
   2  -1  -4    0.10    0.40
   2  -1  -4    0.20    0.60
   2  -1  -4    1.50    0.30
  -2   1   4    1.70    0.70
   1  -1  -4  143.59    5.60
   1  -1  -4  145.09    6.40
   1  -1  -4  143.99    4.80
  -1   1   4  148.69    6.20
   0  -1  -4 1555.14   48.30
   0  -1  -4 1549.14   49.20
   0   1   4 1457.75   48.80
  -1  -1  -4  555.04   18.50
   1   1   4  511.25   18.10
  -2  -1  -4  457.95   15.90
   2   1   4  445.16   15.60
  -3  -1  -4  190.08    7.60
   3   1   4  182.98    7.40
   3   1   4  197.58    7.80
  -4  -1  -4 2292.77   77.89
   4   1   4 2436.56   75.59
   4   1   4 2442.16   76.59
   5   1   4  746.63   25.90
   5   1   4  731.83   24.50
   6   1   4    4.80    1.00
   6   1   4    3.60    1.40
   7   1   4    1.30    0.70
   7   1   4    1.70    1.20
   8   1   4  144.59    6.00
   8   1   4  143.29    8.30
   9   1   4  144.19    8.90
   9   1   4  165.78    6.40
  10   1   4    6.00    2.30
  11   1   4   36.50    5.30
  10  -2  -4   -0.10    1.00
  10  -2  -4   -0.60    0.90
  10  -2  -4   -0.60    0.90
  10  -2  -4    1.00    1.00
   9  -2  -4   39.30    2.90
   9  -2  -4   39.80    3.50
   9  -2  -4   37.70    3.00
   9  -2  -4   38.20    2.90
   8  -2  -4   65.69    3.60
   8  -2  -4   61.59    3.60
   8  -2  -4   57.79    4.30
   8  -2  -4   62.29    3.60
   7  -2  -4  153.58    6.50
   7  -2  -4  162.48    6.50
   7  -2  -4  156.98    6.40
   7  -2  -4  147.79    7.40
   6  -2  -4   14.10    1.60
   6  -2  -4   18.70    1.80
   6  -2  -4   15.10    2.30
   6  -2  -4   18.10    1.80
   5  -2  -4  138.39    5.50
   5  -2  -4  139.79    6.80
   5  -2  -4  142.59    5.70
   5  -2  -4  144.59    5.70
   4  -2  -4  185.08    7.10
   4  -2  -4  193.78    8.40
   4  -2  -4  193.18    7.70
   4  -2  -4  193.28    7.20
  -4   2   4  205.68    8.50
   3  -2  -4   10.80    1.40
   3  -2  -4   11.10    1.20
   3  -2  -4    9.10    1.60
  -3   2   4    8.40    1.40
   2  -2  -4   11.50    1.40
   2  -2  -4   11.80    1.80
   1  -2  -4   43.20    2.40
   1  -2  -4   37.30    2.70
  -1   2   4   37.90    2.70
   0  -2  -4  485.15   16.50
   0  -2  -4  495.75   17.20
   0   2   4  490.85   17.20
  -1  -2  -4   40.90    2.60
   1   2   4   36.60    2.50
  -2  -2  -4  838.62   27.40
   2   2   4  815.82   27.30
  -3  -2  -4  546.05   18.50
   3   2   4  529.65   18.40
   3   2   4  551.74   19.00
   4   2   4   17.20    1.50
   4   2   4   12.40    1.90
   5   2   4 2044.70   65.29
   5   2   4 2082.09   67.09
   6   2   4   47.10    2.60
   6   2   4   41.40    3.60
   7   2   4   47.00    4.10
   7   2   4   44.00    2.50
   8   2   4  280.87    9.80
   8   2   4  275.27   13.00
   9   2   4  167.48    9.60
  10   2   4   46.60    5.10
  11   2   4  116.19    8.50
  10  -3  -4    3.30    1.30
   9  -3  -4   48.40    4.10
   9  -3  -4   47.70    3.30
   9  -3  -4   50.99    3.40
   9  -3  -4   48.30    3.30
   8  -3  -4   62.99    3.60
   8  -3  -4   68.69    3.80
   8  -3  -4   66.39    3.80
   8  -3  -4   65.59    4.80
   7  -3  -4    5.00    1.20
   7  -3  -4    3.70    1.40
   7  -3  -4    4.40    1.00
   7  -3  -4    5.20    1.20
   6  -3  -4  685.13   23.30
   6  -3  -4  725.53   23.40
   6  -3  -4  684.33   24.90
   6  -3  -4  716.13   23.30
   5  -3  -4  400.06   13.60
   5  -3  -4  384.66   13.50
   5  -3  -4  384.06   13.50
   5  -3  -4  408.96   15.30
   4  -3  -4   59.29    4.00
   4  -3  -4   58.99    3.50
   4  -3  -4   63.89    2.90
  -4   3   4   55.89    3.90
   3  -3  -4    2.20    1.00
   3  -3  -4    1.80    0.50
   3  -3  -4    2.20    0.90
  -3   3   4    3.60    1.20
   2  -3  -4 1398.36   46.50
   2  -3  -4 1462.15   45.80
  -2   3   4 1400.36   46.50
   1  -3  -4  238.08    9.50
   1  -3  -4  244.08    8.90
  -1   3   4  228.08    7.40
  -1   3   4  235.58    9.60
   0  -3  -4   91.69    4.10
   0  -3  -4   91.29    4.60
   0   3   4   91.99    3.00
   0   3   4   80.89    4.50
  -1  -3  -4  505.35   16.90
  -1  -3  -4  496.15   17.40
   1   3   4  492.15   15.90
   1   3   4  501.75   17.50
  -2  -3  -4  127.39    5.30
  -2  -3  -4  117.99    5.40
   2   3   4  126.69    4.50
   2   3   4  116.59    5.50
   2   3   4  132.19    5.60
  -3  -3  -4  346.77   12.50
   3   3   4  344.67   13.00
   3   3   4  354.66   11.80
   3   3   4  350.76   12.60
   4   3   4   16.00    2.20
   4   3   4   15.30    1.40
   4   3   4   16.20    1.50
   5   3   4    1.10    0.90
   5   3   4    4.00    0.90
   6   3   4  193.28    7.40
   7   3   4   85.79    6.10
   7   3   4  109.99    4.40
   8   3   4    8.50    2.20
   8   3   4    8.80    0.90
   9   3   4   11.90    2.90
  10   3   4   29.60    4.60
   9  -4  -4   42.20    4.00
   9  -4  -4   42.10    3.00
   9  -4  -4   41.30    3.00
   9  -4  -4   42.80    3.10
   8  -4  -4   15.60    2.00
   8  -4  -4   16.70    2.00
   8  -4  -4   18.90    3.00
   8  -4  -4   16.30    2.10
   7  -4  -4    3.40    1.00
   7  -4  -4    3.30    1.50
   7  -4  -4    3.30    1.00
   7  -4  -4    2.20    0.90
   6  -4  -4   40.40    3.70
   6  -4  -4   40.60    2.50
   6  -4  -4   43.00    2.60
   6  -4  -4   42.40    2.60
   5  -4  -4  293.27   12.10
   5  -4  -4  281.97   10.20
   5  -4  -4  289.57   10.30
   4  -4  -4   14.70    2.40
   4  -4  -4   25.50    1.60
   4  -4  -4   23.10    2.20
  -4   4   4   19.30    2.80
   3  -4  -4  338.57   11.30
   3  -4  -4  341.27   12.40
   3  -4  -4  328.77   13.20
  -3   4   4  326.37   13.40
   2  -4  -4  628.44   21.40
   2  -4  -4  628.34   22.20
  -2   4   4  626.74   22.60
   1  -4  -4   53.89    3.50
   1  -4  -4   54.79    3.10
  -1   4   4   47.00    3.50
   0  -4  -4   12.10    1.50
   0  -4  -4   14.10    1.70
   0   4   4    8.90    1.60
   0   4   4   13.00    0.80
  -1  -4  -4  466.85   16.30
  -1  -4  -4  469.75   16.90
   1   4   4  492.35   17.20
   1   4   4  487.05   15.40
   1   4   4  462.15   16.30
  -2  -4  -4   69.39    3.50
  -2  -4  -4   71.29    3.80
   2   4   4   67.59    2.90
   2   4   4   69.69    3.90
   2   4   4   69.09    3.70
  -3  -4  -4    0.70    0.60
  -3  -4  -4    0.30    0.50
   3   4   4   -0.20    0.30
   3   4   4    0.10    0.50
   3   4   4    0.00    0.50
   4   4   4   22.30    2.40
   4   4   4   19.70    1.80
   4   4   4   23.80    1.70
   5   4   4   72.79    3.70
   5   4   4   73.09    3.70
   6   4   4  110.39    6.50
   6   4   4  109.39    5.00
   6   4   4   96.29    4.50
   7   4   4   66.99    5.30
   7   4   4   73.89    3.30
   8   4   4   19.10    3.40
   9   4   4   66.99    5.90
  10   4   4   33.90    5.00
   9  -5  -4   20.60    2.40
   9  -5  -4   19.90    2.30
   9  -5  -4   18.60    3.20
   8  -5  -4    2.80    1.00
   8  -5  -4    3.00    1.10
   8  -5  -4    0.90    1.30
   8  -5  -4    1.10    0.80
   7  -5  -4    0.40    0.80
   7  -5  -4   -0.10    1.10
   7  -5  -4    0.70    0.70
   7  -5  -4    1.00    0.70
   6  -5  -4   44.00    2.70
   6  -5  -4   43.90    2.60
   6  -5  -4   39.90    2.60
   6  -5  -4   47.60    4.10
   5  -5  -4   98.59    6.10
   5  -5  -4  102.39    4.20
   5  -5  -4   95.39    4.40
   4  -5  -4   22.60    1.60
   4  -5  -4   21.00    2.70
  -4   5   4   29.50    3.20
   3  -5  -4   -0.10    0.60
   3  -5  -4    0.70    0.90
   3  -5  -4    1.50    0.50
  -3   5   4    2.50    1.20
   2  -5  -4    9.30    1.90
   2  -5  -4    9.40    1.60
  -2   5   4    8.60    1.90
   1  -5  -4   93.49    5.50
   1  -5  -4  104.29    5.00
  -1   5   4  116.59    6.10
   0  -5  -4   12.10    1.60
   0  -5  -4   13.20    2.00
   0   5   4    9.40    1.80
   0   5   4   12.90    1.20
   0   5   4   11.60    0.90
  -1  -5  -4    4.60    1.10
  -1  -5  -4    5.90    1.30
   1   5   4    5.30    0.70
   1   5   4    5.90    1.10
   1   5   4    6.40    1.50
  -2  -5  -4  128.09    5.60
  -2  -5  -4  133.69    6.10
   2   5   4  128.79    6.30
   2   5   4  131.69    5.00
   2   5   4  125.89    5.90
  -3  -5  -4   55.79    3.20
   3   5   4   57.79    2.80
   3   5   4   56.19    3.60
   3   5   4   51.19    3.50
  -4  -5  -4  211.58    8.10
   4   5   4  208.48    8.40
   4   5   4  194.78    9.00
   4   5   4  192.58    7.60
  -5  -5  -4  336.17   12.30
   5   5   4  329.17   13.80
   5   5   4  342.67   12.40
   5   5   4  327.87   12.10
  -6  -5  -4   32.90    2.50
   6   5   4   27.90    3.20
   6   5   4   30.20    2.20
   6   5   4   34.50    2.60
   7   5   4  139.29    5.70
   7   5   4  144.89    6.60
   7   5   4  138.99    8.20
   8   5   4    3.50    1.70
   8   5   4    3.20    1.20
   9   5   4  109.79    7.90
  10   5   4   64.19    6.20
   9  -6  -4   80.39    4.50
   9  -6  -4   85.69    4.60
   8  -6  -4    0.10    0.90
   8  -6  -4    0.60    0.90
   8  -6  -4    1.10    1.40
   7  -6  -4   12.60    1.70
   7  -6  -4   12.00    1.60
   7  -6  -4    5.80    2.00
   6  -6  -4   51.59    4.60
   6  -6  -4   46.60    2.90
   6  -6  -4   57.79    3.10
   5  -6  -4    1.00    1.30
   5  -6  -4    1.70    0.70
   4  -6  -4   16.90    2.80
  -4   6   4    9.90    2.50
   3  -6  -4   18.30    2.80
   3  -6  -4   17.60    1.20
   3  -6  -4   14.40    2.10
  -3   6   4   21.80    3.40
   2  -6  -4    0.30    0.90
   2  -6  -4    4.30    1.40
  -2   6   4    1.20    1.00
   1  -6  -4  270.17   10.60
   1  -6  -4  277.27   11.50
  -1   6   4  267.37   11.90
  -1   6   4  272.27    9.40
   0  -6  -4  641.84   23.00
   0  -6  -4  662.33   22.30
   0   6   4  643.14   23.70
   0   6   4  630.04   20.90
   0   6   4  651.93   21.40
  -1  -6  -4  199.68    7.90
  -1  -6  -4  182.48    8.40
   1   6   4  189.78    8.90
   1   6   4  186.58    6.90
   1   6   4  195.78    7.70
  -2  -6  -4   47.50    4.00
  -2  -6  -4   49.99    3.10
   2   6   4   50.79    2.60
   2   6   4   54.39    3.90
   2   6   4   48.60    3.20
  -3  -6  -4   37.20    2.60
   3   6   4   36.50    3.00
   3   6   4   37.20    2.30
   3   6   4   37.10    3.10
  -4  -6  -4  175.08    7.10
   4   6   4  164.58    6.80
   4   6   4  171.48    8.20
   4   6   4  172.58    7.80
  -5  -6  -4  250.57    9.60
   5   6   4  256.17    9.60
   5   6   4  244.48   10.00
   5   6   4  241.98   11.10
   6   6   4   11.40    2.40
   6   6   4   13.00    1.60
   6   6   4   17.50    2.10
   7   6   4  103.69    7.10
   7   6   4  118.69    5.20
   7   6   4  115.29    5.70
   8   6   4    7.60    1.80
   8   6   4    3.70    1.90
   9   6   4   92.69    5.60
   9   6   4  102.29    7.70
   8  -7  -4    7.90    2.40
   8  -7  -4    4.80    1.30
   8  -7  -4    4.10    1.20
   7  -7  -4   55.19    5.10
   7  -7  -4   56.09    3.30
   7  -7  -4   52.09    3.30
   6  -7  -4   82.69    4.20
   6  -7  -4   90.99    4.20
   6  -7  -4   87.29    6.30
   5  -7  -4   56.29    4.90
   5  -7  -4   56.29    3.00
   4  -7  -4   83.59    5.80
  -4   7   4   77.09    6.20
   3  -7  -4   -0.60    0.80
  -3   7   4    0.90    1.20
   2  -7  -4  163.38    7.60
   2  -7  -4  161.48    8.40
  -2   7   4  172.18    9.20
   1  -7  -4  124.79    6.80
   1  -7  -4  126.09    6.10
  -1   7   4  119.39    7.30
   0  -7  -4  255.07   10.20
   0  -7  -4  263.37   11.10
   0   7   4  244.08   11.60
   0   7   4  252.27    9.00
  -1  -7  -4   86.89    5.40
  -1  -7  -4   92.19    4.90
   1   7   4   93.89    4.10
   1   7   4   95.49    6.00
   1   7   4  102.99    4.80
  -2  -7  -4  105.19    5.10
   2   7   4   95.09    5.90
   2   7   4  107.19    5.40
   2   7   4  102.59    4.50
  -3  -7  -4  182.58    7.50
   3   7   4  175.18    8.10
   3   7   4  171.58    8.40
   3   7   4  175.58    7.10
  -4  -7  -4   74.39    4.10
   4   7   4   67.19    4.80
   4   7   4   73.19    3.90
   4   7   4   88.29    5.10
   5   7   4  145.69    7.90
   5   7   4  147.19    6.50
   5   7   4  149.99    7.20
   6   7   4    4.60    1.30
   6   7   4    2.70    1.10
   6   7   4    3.80    1.70
   7   7   4   53.89    3.40
   7   7   4   58.49    3.80
   7   7   4   50.19    4.90
   8   7   4    2.00    1.20
   8   7   4    0.60    1.40
   9   7   4   37.50    5.40
   9   7   4   43.70    3.80
   7  -8  -4   46.60    5.00
   7  -8  -4   48.20    3.10
   6  -8  -4    2.30    1.80
   5  -8  -4   36.00    2.40
   5  -8  -4   37.00    4.20
   4  -8  -4   26.10    3.90
  -4   8   4   17.70    3.60
   3  -8  -4   47.10    4.40
  -3   8   4   60.69    5.50
   2  -8  -4  193.48    9.10
   2  -8  -4  212.18   10.30
  -2   8   4  223.68   11.50
   1  -8  -4  170.78    8.90
   1  -8  -4  175.48    8.00
  -1   8   4  187.88   10.00
   0  -8  -4   21.30    3.10
   0  -8  -4   20.00    2.50
   0   8   4   19.00    1.60
   0   8   4   18.30    3.10
  -1  -8  -4  111.19    5.60
   1   8   4  119.19    7.20
   1   8   4  110.09    4.90
  -2  -8  -4  497.75   18.10
   2   8   4  498.55   17.40
   2   8   4  523.65   20.10
  -3  -8  -4  129.09    6.00
   3   8   4  125.29    7.10
   3   8   4  125.39    6.60
   3   8   4  122.19    5.60
  -4  -8  -4   92.49    6.40
   4   8   4  102.89    6.10
   4   8   4   91.79    5.90
   4   8   4  101.39    4.90
   5   8   4   76.59    5.50
   5   8   4   75.69    4.30
   5   8   4   74.79    4.90
   6   8   4  105.39    7.20
   6   8   4  113.69    5.90
   6   8   4  132.09    6.50
   7   8   4   19.40    2.20
   7   8   4   15.50    3.20
   7   8   4   14.60    2.30
   8   8   4   82.19    5.10
   8   8   4   82.89    6.80
   7  -9  -4   14.60    1.90
   6  -9  -4   -0.90    1.40
   5  -9  -4   72.29    6.10
   4  -9  -4    4.80    2.00
  -4   9   4    6.80    2.50
   3  -9  -4   -1.30    0.90
  -3   9   4   -0.10    1.40
   2  -9  -4    1.00    1.30
  -2   9   4    0.60    1.30
   1  -9  -4    8.90    2.60
   1  -9  -4    8.10    1.90
  -1   9   4    3.80    1.90
   0  -9  -4   80.79    4.90
   0   9   4   85.09    4.50
   0   9   4   91.79    6.70
  -1  -9  -4    3.50    1.40
   1   9   4    0.80    0.80
   1   9   4    2.50    1.50
  -2  -9  -4    2.20    1.20
   2   9   4    5.70    2.00
   2   9   4    3.60    1.00
  -3  -9  -4  111.89    5.70
   3   9   4  110.49    7.00
   3   9   4  105.99    5.30
   4   9   4  138.69    7.80
   4   9   4  125.19    6.20
   5   9   4    1.40    1.10
   5   9   4   -0.30    1.10
   5   9   4    0.50    0.90
   6   9   4   53.29    5.00
   6   9   4   68.89    4.70
   6   9   4   51.59    3.90
   7   9   4    1.20    1.50
   7   9   4    0.10    0.80
   7   9   4    0.80    1.20
   5 -10  -4   25.90    4.40
   4 -10  -4   38.10    4.60
   3 -10  -4   19.70    3.80
  -3  10   4   25.50    4.70
  -2  10   4   15.00    3.50
  -1  10   4    1.70    1.70
   0  10   4    4.40    2.10
  -1 -10  -4   13.50    2.30
   1  10   4   11.40    2.70
  -2 -10  -4    0.10    1.00
   2  10   4    0.80    0.80
   2  10   4    0.50    1.40
   3  10   4  117.69    7.50
   3  10   4   92.49    5.20
   4  10   4  151.58    8.50
   4  10   4  120.69    6.40
   5  10   4   13.20    2.70
   5  10   4    9.20    1.90
   6  10   4    1.40    1.20
   6  10   4    0.00    1.10
   4 -11  -4   32.60    4.90
  -3  11   4    0.40    1.70
  -2  11   4   66.29    6.80
  -1  11   4    9.80    3.00
   0  11   4   39.80    5.70
   1  11   4    1.20    1.60
   2  11   4    0.50    1.50
   3  11   4   81.59    6.50
   4  11   4  192.28   10.50
   4  11   4  176.08    9.10
   5  11   4   24.40    3.10
  -1  12   4    3.90    2.40
   0  12   4   10.40    3.10
   1  12   4    2.50    1.90
   2  10  -5  180.38    9.00
   2  10  -5  170.98   11.10
   1  10  -5    3.90    1.70
   1  10  -5    5.40    2.50
   0  10  -5  105.99    6.40
   0  10  -5  106.29    8.70
  -1  10  -5  141.19   10.30
  -2  10  -5   46.90    7.00
  -3  10  -5   65.09    7.30
   4   9  -5   35.30    4.00
   4   9  -5   35.50    5.10
   3   9  -5   58.29    4.40
   3   9  -5   51.79    5.60
   2   9  -5    7.30    2.60
   2   9  -5   11.80    2.20
   1   9  -5    1.70    1.80
   1   9  -5    0.20    1.20
   0   9  -5   -0.60    1.30
  -1   9  -5   29.00    4.90
  -2   9  -5    2.40    2.10
  -3   9  -5   -1.40    1.30
  -4   9  -5   93.59    8.30
   4  -9   5   91.89    7.00
   5  -9   5   61.49    5.80
   6  -9   5    3.50    2.30
   5   8  -5    3.20    1.80
   5   8  -5    4.50    1.70
   4   8  -5    9.10    2.70
   4   8  -5    9.90    2.00
   3   8  -5   83.79    5.20
   3   8  -5   83.39    6.70
   2   8  -5   99.19    7.40
   2   8  -5  102.09    5.70
   1   8  -5   44.70    3.50
   1   8  -5   44.20    4.90
   0   8  -5   30.40    4.80
  -1   8  -5  153.78    9.90
  -2   8  -5    1.90    1.90
   2  -8   5    3.20    2.20
  -3   8  -5   23.40    4.30
   3  -8   5   28.50    4.10
  -4   8  -5   10.00    3.20
   4  -8   5   11.60    2.70
   5  -8   5   58.49    5.40
   6  -8   5   -0.20    1.40
   7  -8   5   74.19    6.40
   6   7  -5   76.79    5.60
   6   7  -5   69.99    4.90
   6   7  -5   72.39    4.20
   5   7  -5    6.40    1.70
   5   7  -5    9.00    2.30
   5   7  -5   11.40    1.70
   4   7  -5   85.29    5.00
   4   7  -5   82.89    6.20
   4   7  -5   77.69    4.10
   3   7  -5  228.28   11.60
   3   7  -5  221.58    8.50
   3   7  -5  227.98    9.70
   2   7  -5   -0.40    0.70
   2   7  -5    1.00    1.30
   1   7  -5   18.60    2.50
   1   7  -5   18.60    3.50
   0   7  -5   89.99    6.80
  -1   7  -5   47.50    5.00
   1  -7   5   42.20    4.40
  -2   7  -5    7.80    2.60
   2  -7   5    8.20    2.10
  -3   7  -5  201.28   11.50
   3  -7   5  201.58   10.20
  -4   7  -5    7.80    2.70
   4  -7   5    8.30    2.20
   5  -7   5   13.20    2.80
   6  -7   5   66.99    5.60
   7  -7   5  210.58   11.20
   8  -7   5    0.80    1.60
   7   6  -5   17.10    2.60
   7   6  -5   17.10    2.30
   7   6  -5   17.30    2.70
   6   6  -5    5.90    1.80
   6   6  -5    5.00    1.30
   6   6  -5    8.00    1.90
   5   6  -5    7.50    1.40
   5   6  -5    7.40    1.80
   5   6  -5   10.20    2.30
   4   6  -5  200.08    8.60
   4   6  -5  190.28    7.70
   4   6  -5  194.68   10.00
   3   6  -5    1.60    1.30
   3   6  -5    2.00    1.10
   3   6  -5    1.20    0.70
   2   6  -5   77.19    3.60
   2   6  -5   75.89    5.70
   2   6  -5   73.99    4.30
   1   6  -5   65.59    5.40
   1   6  -5   67.29    3.10
   0   6  -5  336.27   15.30
   0  -6   5  344.77   15.80
  -1   6  -5  108.89    7.40
   1  -6   5  107.29    6.30
  -2   6  -5   97.59    7.00
   2  -6   5   93.69    5.90
  -3   6  -5  262.37   13.10
   3  -6   5  259.67   11.70
  -4   6  -5   38.60    4.50
   4  -6   5   33.40    3.50
   5  -6   5  317.87   14.00
   6  -6   5   38.20    4.10
   7  -6   5    7.50    2.40
   8  -6   5   -0.10    1.40
   9  -6   5   25.30    4.00
   8   5  -5    2.30    0.90
   8   5  -5    0.90    1.20
   8   5  -5    0.00    0.90
   8   5  -5    1.00    1.10
   7   5  -5   11.00    2.00
   7   5  -5   14.10    1.70
   7   5  -5   12.70    1.60
   7   5  -5   17.20    2.20
   7   5  -5   18.00    2.50
   6   5  -5   49.00    2.80
   6   5  -5   50.39    4.00
   6   5  -5   48.30    3.30
   6   5  -5   50.59    2.80
   6   5  -5   50.99    3.70
   5   5  -5   53.59    3.70
   5   5  -5   54.59    3.20
   5   5  -5   47.40    2.60
   5   5  -5   52.39    2.80
   5   5  -5   54.99    4.40
   4   5  -5   28.50    3.20
   4   5  -5   26.40    2.10
   4   5  -5   23.60    1.70
   4   5  -5   22.50    1.60
   4   5  -5   25.20    2.30
   3   5  -5    5.00    0.70
   3   5  -5    3.10    1.00
   3   5  -5    4.00    1.00
   3   5  -5    3.80    1.50
   3   5  -5    5.50    0.80
   2   5  -5  149.88    5.90
   2   5  -5  156.68    6.70
   2   5  -5  145.59    8.10
   1   5  -5   68.19    5.20
   0   5  -5  123.89    7.50
   0  -5   5  126.09    6.50
  -1   5  -5   21.20    3.30
   1  -5   5   24.60    2.70
  -2   5  -5  160.88    9.00
   2  -5   5  162.18    7.90
  -3   5  -5  108.59    7.20
   3  -5   5  106.79    6.20
  -4   5  -5   46.70    4.60
   4  -5   5   47.10    4.00
   5  -5   5   44.40    4.10
   5  -5   5   54.09    3.70
   6  -5   5  647.74   24.30
   7  -5   5    2.10    1.50
   8  -5   5   58.59    5.00
   9  -5   5  101.59    6.90
   8   4  -5   86.89    5.20
   8   4  -5   82.99    4.40
   8   4  -5   86.29    4.90
   8   4  -5   80.49    4.20
   8   4  -5   86.89    4.70
   7   4  -5    8.50    1.80
   7   4  -5    8.40    1.30
   7   4  -5   10.20    1.90
   7   4  -5    9.30    1.50
   7   4  -5    7.50    1.60
   6   4  -5   36.70    2.90
   6   4  -5   36.60    3.30
   6   4  -5   33.20    2.60
   6   4  -5   34.60    2.20
   6   4  -5   32.90    2.30
   5   4  -5   79.19    3.50
   5   4  -5   76.99    5.10
   5   4  -5   76.49    4.00
   5   4  -5   72.79    3.50
   5   4  -5   72.09    4.20
   4   4  -5   66.59    3.20
   4   4  -5   66.19    3.00
   4   4  -5   70.09    4.90
   4   4  -5   71.19    3.60
   4   4  -5   71.19    3.90
   3   4  -5  394.26   15.50
   3   4  -5  380.96   12.60
   3   4  -5  371.76   12.70
   3   4  -5  383.86   13.30
   3   4  -5  375.66   13.70
   2   4  -5   72.79    3.40
   2   4  -5   75.99    3.80
   2   4  -5   73.09    3.00
   2   4  -5   74.39    5.10
   2   4  -5   72.89    2.90
   1   4  -5  157.18    5.20
   1   4  -5  156.28    8.10
   1   4  -5  153.18    5.40
  -1  -4   5  145.19    7.00
   0   4  -5   28.90    3.20
   0  -4   5   26.90    2.60
  -1   4  -5   98.19    6.20
   1  -4   5   97.69    5.40
  -2   4  -5  470.75   18.40
   2  -4   5  443.36   17.00
  -3   4  -5  121.49    7.40
   3  -4   5  124.89    6.50
  -4   4  -5   -0.50    0.80
   4  -4   5    0.60    0.90
  -5   4  -5   45.70    5.20
   5  -4   5   44.80    3.80
   5  -4   5   47.60    3.40
   6  -4   5  139.69    7.10
   6  -4   5  135.69    7.40
   7  -4   5    1.80    1.20
   7  -4   5    1.10    1.20
   8  -4   5   26.20    3.30
   9  -4   5   81.19    5.70
  10  -4   5   24.70    3.60
   9   3  -5    2.40    1.20
   9   3  -5    3.60    1.50
   9   3  -5    1.10    1.00
   9   3  -5    5.50    1.70
   8   3  -5   63.29    4.40
   8   3  -5   73.79    4.00
   8   3  -5   68.69    3.70
   8   3  -5   68.39    4.20
   8   3  -5   66.79    4.20
   7   3  -5   33.60    2.90
   7   3  -5   32.10    2.30
   7   3  -5   37.60    2.60
   7   3  -5   36.50    2.80
   7   3  -5   36.90    3.10
   6   3  -5   16.80    1.80
   6   3  -5   18.70    2.50
   6   3  -5   14.10    2.00
   6   3  -5   16.00    1.60
   6   3  -5   15.20    1.90
   5   3  -5   66.09    3.80
   5   3  -5   65.49    3.60
   5   3  -5   61.29    3.10
   5   3  -5   68.39    3.30
   5   3  -5   72.39    4.60
   4   3  -5  310.37   11.60
   4   3  -5  327.87   13.10
   4   3  -5  314.47   10.80
   4   3  -5  321.57   11.50
   4   3  -5  316.87   11.00
   3   3  -5   63.29    2.70
   3   3  -5   64.69    3.40
   3   3  -5   61.29    2.80
   3   3  -5   61.49    4.40
   3   3  -5   64.59    3.20
   2   3  -5  907.51   31.30
   2   3  -5  881.41   28.50
   2   3  -5  893.11   29.30
   2   3  -5  914.91   28.70
   2   3  -5  885.51   28.30
  -2  -3   5  891.71   30.20
   1   3  -5  469.35   14.90
   1   3  -5  468.75   17.90
  -1  -3   5  463.15   16.90
   0   3  -5  204.58    9.50
   0   3  -5  201.78    6.50
   0  -3   5  199.18    8.50
  -1   3  -5  597.34   18.50
  -1   3  -5  613.74   22.20
   1  -3   5  575.04   20.90
  -2   3  -5 1750.22   58.19
   2  -3   5 1756.62   56.99
  -3   3  -5   51.39    4.20
   3  -3   5   50.89    3.60
  -4   3  -5    6.50    1.90
   4  -3   5    8.30    1.70
  -5   3  -5   92.29    7.00
   5  -3   5   91.29    5.30
   5  -3   5   94.59    5.20
   6  -3   5  135.89    7.10
   6  -3   5  147.49    7.30
   7  -3   5  109.49    6.40
   7  -3   5  111.29    6.20
   8  -3   5    0.90    1.10
   8  -3   5    0.10    0.90
   9  -3   5    9.80    2.30
   9  -3   5    8.00    2.20
  10  -3   5    3.20    1.50
   9   2  -5   75.79    4.10
   9   2  -5   66.79    4.20
   9   2  -5   75.79    4.80
   9   2  -5   72.39    4.50
   8   2  -5   14.00    2.10
   8   2  -5   18.80    2.20
   8   2  -5   14.30    1.70
   8   2  -5   15.00    2.10
   8   2  -5   13.40    2.20
   7   2  -5    2.90    0.90
   7   2  -5    3.40    1.10
   7   2  -5    3.90    1.30
   7   2  -5    3.00    1.20
   7   2  -5    3.10    1.00
   6   2  -5    2.90    0.80
   6   2  -5    4.90    1.20
   6   2  -5    5.90    1.30
   6   2  -5    4.30    1.00
   6   2  -5    4.20    1.30
   5   2  -5  125.29    6.50
   5   2  -5  123.99    5.60
   5   2  -5  130.99    5.40
   5   2  -5  139.49    5.90
   5   2  -5  130.99    5.20
   4   2  -5   55.79    2.80
   4   2  -5   58.99    2.70
   4   2  -5   58.39    3.10
   4   2  -5   57.39    3.20
   4   2  -5   58.39    4.00
   3   2  -5   30.60    2.10
   3   2  -5   32.60    2.10
   3   2  -5   28.80    2.80
   3   2  -5   33.40    1.90
   3   2  -5   30.80    1.70
   3   2  -5   33.30    1.80
   2   2  -5   48.40    2.50
   2   2  -5   50.09    2.20
   2   2  -5   51.79    2.70
   2   2  -5   49.50    3.70
  -2  -2   5   61.69    3.60
   1   2  -5  120.99    4.20
   1   2  -5  115.49    6.20
  -1  -2   5  123.99    5.80
   0   2  -5  665.43   23.10
   0  -2   5  618.14   22.10
  -1   2  -5   53.59    3.90
   1  -2   5   53.59    3.40
  -2   2  -5  669.13   24.00
   2  -2   5  663.93   23.00
  -3   2  -5    7.90    1.90
   3  -2   5    5.50    1.30
  -4   2  -5  277.97   11.80
   4  -2   5  270.17   10.90
   5  -2   5  243.48   10.10
   5  -2   5  248.78   10.40
   6  -2   5   11.20    1.90
   6  -2   5    9.80    2.00
   7  -2   5   52.49    4.30
   7  -2   5   52.29    3.80
   8  -2   5   11.30    2.10
   8  -2   5    8.90    2.20
   9  -2   5    0.90    1.00
   9  -2   5    1.90    1.40
  10  -2   5   50.99    5.10
  10  -2   5   53.59    4.10
   9   1  -5  102.59    5.50
   9   1  -5   91.09    4.80
   9   1  -5   91.29    5.00
   9   1  -5   97.69    5.10
   8   1  -5   43.80    2.80
   8   1  -5   45.30    3.00
   8   1  -5   43.70    3.30
   8   1  -5   42.40    3.20
   8   1  -5   42.20    3.30
   7   1  -5    7.60    1.50
   7   1  -5    8.10    1.70
   7   1  -5    7.40    1.30
   7   1  -5    8.60    1.40
   7   1  -5    7.70    1.50
   6   1  -5    7.30    1.20
   6   1  -5    4.70    1.20
   6   1  -5    3.70    1.30
   6   1  -5    4.90    1.20
   6   1  -5    4.60    1.00
   5   1  -5  158.68    6.20
   5   1  -5  144.69    7.10
   5   1  -5  142.99    6.20
   5   1  -5  143.59    5.90
   5   1  -5  149.09    5.80
   4   1  -5   -0.30    0.60
   4   1  -5    0.30    0.40
   4   1  -5    0.40    0.40
   4   1  -5    0.00    0.50
   4   1  -5   -0.10    0.40
   4   1  -5   -0.10    0.40
   3   1  -5    2.70    0.70
   3   1  -5    3.60    0.70
   3   1  -5    3.00    0.70
   3   1  -5    4.00    0.70
   3   1  -5    4.00    0.80
   3   1  -5    5.00    1.30
  -3  -1   5    2.10    0.80
   2   1  -5  130.59    5.20
   2   1  -5  138.99    4.90
   2   1  -5  136.09    5.20
   2   1  -5  135.09    6.70
  -2  -1   5  134.29    6.10
   1   1  -5    0.10    0.30
   1   1  -5    0.30    0.70
  -1  -1   5    0.60    0.70
   0   1  -5  407.96   15.10
   0  -1   5  385.16   14.40
  -1   1  -5  155.58    7.30
   1  -1   5  155.78    6.80
  -2   1  -5  329.87   12.80
   2  -1   5  308.07   11.90
  -3   1  -5  292.67   11.90
   3  -1   5  297.77   11.30
  -4   1  -5   80.29    4.80
   4  -1   5   71.99    4.10
   5  -1   5  181.28    8.30
   5  -1   5  184.98    7.90
   6  -1   5   59.09    4.30
   6  -1   5   60.69    3.80
   7  -1   5    4.60    1.30
   7  -1   5    7.00    2.00
   8  -1   5   63.19    4.00
   8  -1   5   55.39    4.70
   9  -1   5   16.70    2.30
   9  -1   5   14.60    3.00
  10  -1   5   79.99    4.80
  10  -1   5   78.69    6.40
   9   0  -5   57.69    3.70
   9   0  -5   58.19    4.10
   9   0  -5   65.09    4.10
   9   0  -5   59.99    3.60
   8   0  -5   17.80    2.50
   8   0  -5   19.10    2.10
   8   0  -5   18.40    2.10
   8   0  -5   17.80    2.30
   7   0  -5   -0.70    0.60
   7   0  -5    0.30    0.70
   7   0  -5    0.80    0.80
   7   0  -5    0.80    0.90
   6   0  -5   51.99    3.80
   6   0  -5   59.09    3.40
   6   0  -5   55.99    3.20
   6   0  -5   53.99    2.90
   6   0  -5   58.39    3.10
   5   0  -5  349.57   12.00
   5   0  -5  336.27   12.40
   5   0  -5  346.97   13.60
   5   0  -5  345.07   12.20
   5   0  -5  353.46   12.20
   4   0  -5    5.90    1.00
   4   0  -5    6.60    1.00
   4   0  -5    5.90    1.00
   4   0  -5    5.70    1.00
   4   0  -5    5.70    0.90
   4   0  -5    4.40    1.30
   3   0  -5   92.79    5.10
   3   0  -5   88.39    4.00
   3   0  -5   88.79    3.70
   3   0  -5   86.09    3.70
  -3   0   5  103.49    5.00
   2   0  -5   88.59    3.50
   2   0  -5   90.29    5.00
   2   0  -5   89.19    4.00
  -2   0   5   91.59    4.70
   1   0  -5   63.19    4.00
   1   0  -5   64.59    3.20
   1   0  -5   64.79    2.60
  -1   0   5   67.09    3.80
   0   0  -5   53.09    3.60
   0   0   5   51.79    3.20
  -1   0  -5  151.38    6.80
   1   0   5  139.19    6.30
  -2   0  -5  345.47   12.90
   2   0   5  318.67   12.20
  -3   0  -5  143.09    6.70
   3   0   5  137.69    6.20
  -4   0  -5  427.36   15.80
   4   0   5  448.76   15.90
   4   0   5  409.96   15.30
   5   0   5  459.75   16.40
   5   0   5  458.85   17.30
   6   0   5  325.47   13.50
   6   0   5  329.97   12.30
   7   0   5    0.30    0.80
   7   0   5    1.50    0.80
   8   0   5  270.37   12.80
   8   0   5  281.47   10.90
   9   0   5   36.80    4.10
   9   0   5   39.70    3.00
  10   0   5   95.79    4.90
  10   0   5   78.09    6.60
  11   0   5    9.10    2.90
   9  -1  -5   35.10    3.40
   9  -1  -5   31.30    3.20
   9  -1  -5   28.00    2.70
   9  -1  -5   34.30    2.70
   8  -1  -5   32.10    3.20
   8  -1  -5   31.40    2.70
   8  -1  -5   34.10    2.50
   8  -1  -5   41.60    2.90
   7  -1  -5  124.49    6.50
   7  -1  -5  123.29    5.40
   7  -1  -5  118.19    5.50
   7  -1  -5  116.09    5.50
   6  -1  -5   38.30    3.30
   6  -1  -5   37.60    2.40
   6  -1  -5   34.90    2.40
   6  -1  -5   38.80    2.60
   5  -1  -5    2.40    0.80
   5  -1  -5    2.00    0.70
   5  -1  -5    2.80    1.20
   5  -1  -5    1.80    0.70
   4  -1  -5  169.98    7.90
   4  -1  -5  167.78    6.50
   4  -1  -5  170.48    6.40
   4  -1  -5  167.88    6.30
   4  -1  -5  174.08    6.70
   4  -1  -5  172.58    6.90
   3  -1  -5  185.28    6.40
   3  -1  -5  186.88    8.30
   3  -1  -5  183.48    7.10
  -3   1   5  174.78    7.90
   2  -1  -5  425.36   14.80
   2  -1  -5  421.56   13.90
   2  -1  -5  423.46   16.00
  -2   1   5  450.55   15.80
   1  -1  -5 1243.78   41.00
   1  -1  -5 1237.68   39.80
   1  -1  -5 1269.17   38.70
  -1   1   5 1197.88   40.60
   0  -1  -5  704.03   25.20
   0  -1  -5  734.43   24.20
   0   1   5  757.72   25.00
  -1  -1  -5   20.70    2.10
   1   1   5   20.90    1.90
  -2  -1  -5 1770.92   55.79
   2   1   5 1671.93   55.29
  -3  -1  -5 1583.44   50.79
   3   1   5 1542.95   50.39
  -4  -1  -5  344.77   13.00
   4   1   5  360.96   13.50
   4   1   5  338.67   12.70
   5   1   5   38.70    3.30
   5   1   5   37.40    2.60
   6   1   5  910.91   30.60
   6   1   5  936.61   32.40
   7   1   5  138.89    7.80
   7   1   5  136.59    6.10
   8   1   5   32.10    3.60
   8   1   5   29.10    2.40
   9   1   5   -0.50    0.90
   9   1   5    0.30    0.60
  10   1   5    1.00    0.70
  10   1   5    1.00    1.40
  11   1   5    0.40    1.70
   9  -2  -5    7.90    2.00
   9  -2  -5    9.50    1.70
   9  -2  -5    8.90    1.70
   9  -2  -5   10.30    1.70
   8  -2  -5   10.60    1.70
   8  -2  -5   11.90    2.30
   8  -2  -5   12.50    1.80
   8  -2  -5    9.40    1.60
   7  -2  -5   74.89    4.10
   7  -2  -5   78.59    4.10
   7  -2  -5   80.39    5.20
   7  -2  -5   75.99    4.00
   6  -2  -5   17.90    2.60
   6  -2  -5   18.00    1.90
   6  -2  -5   19.80    1.90
   6  -2  -5   17.10    1.80
   5  -2  -5  160.38    7.90
   5  -2  -5  169.28    6.70
   5  -2  -5  163.78    6.50
   5  -2  -5  164.38    6.40
   4  -2  -5  360.46   12.50
   4  -2  -5  363.56   13.10
   4  -2  -5  352.06   14.10
   3  -2  -5    0.30    0.60
   3  -2  -5    0.10    0.60
  -3   2   5    1.40    0.90
   2  -2  -5   60.79    3.40
   2  -2  -5   68.69    4.20
  -2   2   5   63.29    4.00
   1  -2  -5  359.16   13.40
   1  -2  -5  349.87   12.40
  -1   2   5  334.27   13.10
   0  -2  -5  163.88    7.30
   0  -2  -5  169.68    6.60
   0   2   5  148.59    7.00
  -1  -2  -5   75.19    4.10
   1   2   5   57.49    3.60
  -2  -2  -5 1133.79   37.30
   2   2   5 1122.59   37.00
  -3  -2  -5   72.99    3.90
   3   2   5   73.19    4.00
   3   2   5   57.39    3.50
  -4  -2  -5  391.46   14.30
   4   2   5  402.76   14.20
   4   2   5  398.86   15.10
   5   2   5  204.28    8.30
   5   2   5  222.18    9.70
   6   2   5  872.81   30.10
   6   2   5  814.52   27.90
   7   2   5  305.57   13.50
   7   2   5  307.67   11.30
   8   2   5   33.70    2.40
   8   2   5   30.90    4.20
   9   2   5   53.69    3.00
   9   2   5   55.69    5.30
  10   2   5   50.19    5.20
   9  -3  -5   37.80    3.30
   9  -3  -5   32.80    3.70
   9  -3  -5   37.10    3.00
   9  -3  -5   40.50    3.10
   8  -3  -5    1.70    1.00
   8  -3  -5    2.00    1.00
   8  -3  -5    0.90    1.20
   8  -3  -5    1.40    0.90
   7  -3  -5   29.40    2.30
   7  -3  -5   31.90    2.40
   7  -3  -5   30.20    2.40
   7  -3  -5   30.50    3.30
   6  -3  -5    0.60    0.70
   6  -3  -5   -0.10    0.90
   6  -3  -5    0.20    0.60
   6  -3  -5    0.10    0.60
   5  -3  -5  540.85   18.00
   5  -3  -5  531.55   18.00
   5  -3  -5  533.25   17.90
   5  -3  -5  518.65   19.80
   4  -3  -5   31.20    3.10
   4  -3  -5   29.90    2.00
   4  -3  -5   30.60    2.60
  -4   3   5   36.60    3.60
   3  -3  -5   92.79    5.50
   3  -3  -5   96.69    4.80
  -3   3   5  107.49    5.70
   2  -3  -5    0.40    0.60
   2  -3  -5    1.00    0.90
  -2   3   5    2.60    1.00
   1  -3  -5  135.69    5.80
   1  -3  -5  135.79    6.50
  -1   3   5  119.09    6.30
   0  -3  -5   12.30    1.50
   0  -3  -5    9.80    1.70
   0   3   5   11.40    1.80
  -1  -3  -5    1.90    0.80
  -1  -3  -5    1.70    0.80
   1   3   5    0.90    0.70
  -2  -3  -5   39.00    2.60
  -2  -3  -5   36.00    2.80
   2   3   5   38.60    2.80
  -3  -3  -5   41.80    2.90
   3   3   5   41.00    3.10
   3   3   5   52.59    3.20
   4   3   5  117.79    5.30
   4   3   5  104.49    5.80
   5   3   5  208.38    8.80
   5   3   5  254.97   10.50
   6   3   5   15.60    1.70
   6   3   5   24.30    3.30
   7   3   5  520.45   20.90
   7   3   5  540.65   18.30
   8   3   5   77.79    6.10
   8   3   5   88.49    4.10
   9   3   5  398.46   17.70
  10   3   5   78.89    6.70
   9  -4  -5    0.50    1.20
   9  -4  -5    2.60    1.20
   9  -4  -5    0.40    1.00
   9  -4  -5    1.00    0.90
   8  -4  -5   29.90    2.80
   8  -4  -5   25.80    2.60
   8  -4  -5   27.80    2.60
   8  -4  -5   23.80    3.50
   7  -4  -5   15.10    1.90
   7  -4  -5   14.80    1.90
   7  -4  -5   17.50    2.00
   7  -4  -5   17.90    2.90
   6  -4  -5  112.69    5.10
   6  -4  -5  109.59    5.10
   6  -4  -5  129.69    5.30
   6  -4  -5  117.89    6.80
   5  -4  -5    9.40    1.30
   5  -4  -5   10.80    1.50
   5  -4  -5    9.50    2.10
   4  -4  -5  706.43   23.50
   4  -4  -5  668.63   25.60
   4  -4  -5  729.43   24.80
  -4   4   5  775.12   26.30
   3  -4  -5    8.30    1.60
   3  -4  -5   11.50    2.10
   2  -4  -5  361.06   13.40
   2  -4  -5  352.06   14.30
  -2   4   5  384.56   14.70
   1  -4  -5  387.26   14.30
   1  -4  -5  376.86   13.40
  -1   4   5  333.87   14.10
   0  -4  -5  160.48    7.30
   0  -4  -5  162.78    6.70
   0   4   5  154.28    5.00
   0   4   5  147.89    7.30
  -1  -4  -5  434.16   14.90
  -1  -4  -5  413.96   15.50
   1   4   5  392.86   13.40
   1   4   5  435.16   15.80
  -2  -4  -5    5.40    1.20
  -2  -4  -5    3.60    1.00
   2   4   5    7.10    1.50
   2   4   5    5.20    1.20
   2   4   5    5.50    0.70
  -3  -4  -5    0.60    0.70
  -3  -4  -5    0.30    0.60
   3   4   5    0.50    0.60
   3   4   5    1.20    0.50
   3   4   5   -0.10    0.50
   4   4   5  227.68    8.10
   4   4   5  210.38    8.90
   4   4   5  224.28    9.70
   5   4   5 1403.96   45.70
   5   4   5 1402.66   45.20
   5   4   5 1414.16   47.30
   6   4   5  399.56   13.90
   6   4   5  367.46   15.70
   7   4   5  177.68    7.10
   7   4   5  159.58    9.00
   8   4   5  284.67   10.00
   8   4   5  262.77   13.10
   9   4   5  114.59    8.00
  10   4   5   39.20    5.50
   9  -5  -5   21.00    2.50
   9  -5  -5   15.90    2.20
   9  -5  -5   18.80    3.30
   8  -5  -5   54.29    3.60
   8  -5  -5   64.19    3.80
   8  -5  -5   58.09    3.50
   8  -5  -5   59.19    5.10
   7  -5  -5   18.40    2.00
   7  -5  -5   17.10    2.00
   7  -5  -5   18.90    2.20
   7  -5  -5   17.50    3.10
   6  -5  -5   19.00    2.00
   6  -5  -5   28.90    2.00
   6  -5  -5   20.00    2.00
   6  -5  -5   20.50    3.10
   5  -5  -5   10.10    1.30
   5  -5  -5   11.70    2.30
   5  -5  -5    8.00    1.30
   4  -5  -5   93.09    5.20
   4  -5  -5   93.09    4.10
   4  -5  -5   91.49    6.00
  -4   5   5  111.79    6.60
   3  -5  -5   12.30    1.30
   3  -5  -5   18.30    2.40
   3  -5  -5   13.00    2.40
  -3   5   5   17.50    2.90
   2  -5  -5   63.99    4.40
   2  -5  -5   64.09    3.80
  -2   5   5   49.90    4.20
   1  -5  -5   37.90    2.80
   1  -5  -5   34.50    3.10
  -1   5   5   28.40    3.00
  -1   5   5   36.40    1.50
   0  -5  -5   20.50    2.40
   0  -5  -5   18.90    1.90
   0   5   5   24.10    2.60
   0   5   5   20.50    1.10
  -1  -5  -5    0.10    0.70
  -1  -5  -5    0.20    0.60
   1   5   5   -0.40    0.60
   1   5   5    0.10    0.30
   1   5   5   -0.30    0.50
  -2  -5  -5   37.20    2.70
  -2  -5  -5   36.90    2.90
   2   5   5   35.50    2.70
   2   5   5   34.40    1.90
   2   5   5   40.60    3.20
  -3  -5  -5    0.40    0.70
   3   5   5    1.10    0.80
   3   5   5    0.90    0.50
   3   5   5    0.10    0.60
  -4  -5  -5    2.00    0.90
   4   5   5    1.50    0.70
   4   5   5    0.50    0.70
   4   5   5    5.90    1.50
  -5  -5  -5   34.90    2.70
   5   5   5   34.00    3.30
   5   5   5   30.30    2.30
   5   5   5   27.90    2.40
   6   5   5  146.39    6.40
   6   5   5  149.19    8.20
   6   5   5  144.49    6.50
   7   5   5   87.39    4.40
   7   5   5   92.69    6.40
   8   5   5   46.50    4.70
   8   5   5   48.70    2.70
   9   5   5    4.30    2.00
  10   5   5    6.50    2.60
   8  -6  -5  128.89    5.90
   8  -6  -5  113.19    5.70
   8  -6  -5  117.99    7.70
   7  -6  -5   -0.80    0.70
   7  -6  -5    1.00    0.70
   7  -6  -5   -0.20    1.20
   6  -6  -5    0.20    0.70
   6  -6  -5    1.00    0.80
   6  -6  -5   -0.50    1.00
   5  -6  -5   31.40    3.60
   5  -6  -5   30.80    2.20
   4  -6  -5   59.89    4.10
   4  -6  -5   51.89    4.40
   4  -6  -5   52.39    2.60
  -4   6   5   48.40    4.60
   3  -6  -5   37.90    3.70
   3  -6  -5   34.90    2.00
   3  -6  -5   36.80    3.10
  -3   6   5   34.30    3.70
   2  -6  -5    8.30    1.60
   2  -6  -5    7.60    2.00
  -2   6   5    8.80    2.20
   1  -6  -5   24.80    2.80
   1  -6  -5   27.20    2.60
  -1   6   5   37.30    3.50
   0  -6  -5  198.58    8.40
   0  -6  -5  211.98    9.40
   0   6   5  193.18    9.60
   0   6   5  201.68    7.00
   0   6   5  202.58    7.90
  -1  -6  -5  269.07   11.10
  -1  -6  -5  260.07   10.30
   1   6   5  287.57   11.70
   1   6   5  251.47   10.00
   1   6   5  246.68    9.00
  -2  -6  -5    0.80    0.80
   2   6   5   -0.30    0.70
   2   6   5    0.40    0.50
   2   6   5    1.00    0.80
  -3  -6  -5    4.70    1.20
   3   6   5    5.00    1.40
   3   6   5    4.20    0.90
   3   6   5    2.20    1.10
  -4  -6  -5   40.60    3.00
   4   6   5   40.10    3.30
   4   6   5   41.10    2.60
   4   6   5   40.80    3.50
  -5  -6  -5   36.90    2.90
   5   6   5   41.60    2.70
   5   6   5   40.10    3.20
   5   6   5   39.10    3.70
  -6  -6  -5   26.60    2.50
   6   6   5   35.70    2.80
   6   6   5   27.90    3.80
   6   6   5   27.00    2.40
   7   6   5  205.88    8.20
   7   6   5  180.18   10.10
   7   6   5  195.38    8.40
   8   6   5  127.29    8.20
   8   6   5  129.69    6.50
   9   6   5   14.50    3.30
   8  -7  -5   53.39    3.50
   8  -7  -5   52.49    3.50
   8  -7  -5   50.79    5.30
   7  -7  -5   18.10    2.10
   7  -7  -5   17.50    2.10
   7  -7  -5   14.30    3.10
   6  -7  -5   22.80    3.80
   6  -7  -5   23.10    2.30
   5  -7  -5   87.89    6.10
   5  -7  -5   66.09    3.60
   4  -7  -5   30.20    3.70
  -4   7   5   34.30    4.30
   3  -7  -5   64.69    4.50
   3  -7  -5   74.39    5.50
  -3   7   5   90.79    6.40
   2  -7  -5   15.40    2.30
   2  -7  -5   14.80    2.80
  -2   7   5    8.10    2.10
   1  -7  -5   43.60    3.40
   1  -7  -5   43.80    3.90
  -1   7   5   54.59    4.60
   0  -7  -5  257.17   11.30
   0  -7  -5  259.77   10.50
   0   7   5  256.27   12.00
  -1  -7  -5  359.56   13.60
   1   7   5  364.06   13.30
   1   7   5  367.96   12.30
   1   7   5  349.17   15.00
  -2  -7  -5   52.49    3.50
   2   7   5   51.99    4.20
   2   7   5   49.50    3.40
   2   7   5   47.60    2.70
  -3  -7  -5  201.48    8.50
   3   7   5  202.38    9.50
   3   7   5  190.88    7.60
   3   7   5  199.08    9.00
  -4  -7  -5  484.85   16.90
   4   7   5  457.75   17.70
   4   7   5  468.75   16.20
   4   7   5  443.26   17.80
  -5  -7  -5   50.39    3.50
   5   7   5   49.60    3.20
   5   7   5   49.50    4.30
   5   7   5   57.29    4.00
   6   7   5   30.80    2.80
   6   7   5   24.50    3.70
   6   7   5   25.60    2.70
   7   7   5   13.60    2.80
   7   7   5   16.50    2.10
   7   7   5   20.90    2.60
   8   7   5   54.19    5.30
   8   7   5   53.29    3.90
   9   7   5   12.40    3.40
   7  -8  -5   58.49    3.50
   7  -8  -5   53.19    5.40
   7  -8  -5   46.10    3.40
   6  -8  -5   42.80    2.90
   6  -8  -5   48.10    5.00
   5  -8  -5    2.90    1.70
   5  -8  -5    1.80    0.90
   4  -8  -5    3.80    1.80
   3  -8  -5   73.09    5.70
  -3   8   5   78.79    6.40
   2  -8  -5   61.59    4.30
   2  -8  -5   53.89    4.80
  -2   8   5   60.99    5.40
   1  -8  -5  358.86   15.20
   1  -8  -5  342.47   14.00
  -1   8   5  379.76   16.30
   0  -8  -5  188.28   10.50
   0  -8  -5  182.08    8.40
   0   8   5  196.48   10.20
  -1  -8  -5   14.00    2.10
   1   8   5   12.00    2.50
  -2  -8  -5    0.50    1.00
   2   8   5    0.50    1.00
   2   8   5    0.10    0.60
  -3  -8  -5  205.48    8.70
   3   8   5  191.98    7.90
   3   8   5  208.58   10.00
   3   8   5  201.28    9.20
  -4  -8  -5  318.37   12.30
   4   8   5  308.87   11.80
   4   8   5  302.47   13.30
   4   8   5  341.17   13.80
   5   8   5    5.70    1.40
   5   8   5    4.20    1.80
   5   8   5    5.40    1.60
   6   8   5   -0.30    1.10
   6   8   5    0.50    1.00
   6   8   5    0.60    1.00
   7   8   5   46.90    3.50
   7   8   5   38.80    4.40
   7   8   5   39.40    3.30
   8   8   5    3.40    1.90
   8   8   5    5.80    1.70
   6  -9  -5   81.59    6.80
   5  -9  -5    3.60    2.10
   4  -9  -5   43.90    4.60
   3  -9  -5    1.20    1.60
  -3   9   5    1.50    1.70
   2  -9  -5   54.49    5.00
   2  -9  -5   55.49    4.40
  -2   9   5   67.89    6.10
   1  -9  -5   71.59    4.90
  -1   9   5   80.49    6.60
   0  -9  -5  109.79    6.10
   0   9   5  113.49    7.80
  -1  -9  -5    0.80    1.10
   1   9   5    4.40    1.90
  -2  -9  -5    1.20    1.10
   2   9   5    1.90    1.40
  -3  -9  -5  168.08    7.80
   3   9   5  165.58    9.20
   3   9   5  166.38    7.70
   4   9   5  317.57   13.80
   4   9   5  286.77   11.50
   5   9   5   10.60    1.90
   5   9   5    9.50    2.40
   5   9   5   12.50    2.40
   6   9   5   59.59    5.30
   6   9   5   67.89    4.90
   6   9   5   62.59    4.20
   7   9   5   48.50    3.80
   7   9   5   46.70    3.80
   7   9   5   42.00    4.80
   5 -10  -5   66.09    6.20
   4 -10  -5   13.50    3.30
   3 -10  -5   16.10    3.40
  -3  10   5    7.80    2.80
  -2  10   5    3.30    2.20
  -1  10   5   54.19    5.70
   0 -10  -5    6.90    1.90
   0  10   5   12.50    3.20
  -1 -10  -5   43.00    3.70
   1  10   5   53.79    5.30
  -2 -10  -5  168.48    8.30
   2  10   5  191.58   10.50
   3  10   5    2.20    1.50
   4  10   5   68.99    5.70
   5  10   5   18.80    3.10
   6  10   5   51.69    4.40
   6  10   5   36.00    3.40
  -3  11   5    9.90    3.40
  -2  11   5    1.00    1.70
  -1  11   5    4.00    2.30
   0  11   5   -0.70    1.30
  -1 -11  -5   14.60    2.70
   1  11   5   14.20    3.30
   2  11   5   97.79    7.40
   3  11   5  118.29    8.20
   4  11   5  184.58   10.50
   3   9  -6    2.20    1.40
   3   9  -6    1.80    1.90
   2   9  -6   68.29    6.70
   2   9  -6   61.99    4.70
   1   9  -6  102.89    6.20
   1   9  -6  100.89    8.20
   0   9  -6  174.68   11.30
  -1   9  -6   19.30    4.30
  -2   9  -6   53.09    6.30
  -3   9  -6  128.79   10.10
  -4   9  -6    2.60    2.30
   4  -9   6    3.50    2.00
   5  -9   6   75.29    6.60
   4   8  -6    9.90    2.10
   4   8  -6    6.50    2.60
   3   8  -6   47.50    5.20
   3   8  -6   40.90    3.70
   2   8  -6  103.49    6.10
   2   8  -6  116.79    8.40
   1   8  -6   32.40    5.00
   1   8  -6   36.30    3.20
   0   8  -6   74.09    6.70
  -1   8  -6   68.49    6.60
  -2   8  -6   17.30    3.90
  -3   8  -6    3.50    2.30
   3  -8   6    3.70    1.90
  -4   8  -6   29.10    5.30
   4  -8   6   32.20    4.10
   5  -8   6    1.10    1.60
   6  -8   6    2.60    1.90
   5   7  -6    7.90    1.90
   5   7  -6   10.50    2.70
   5   7  -6    7.90    1.60
   4   7  -6  141.59    8.70
   4   7  -6  131.69    6.00
   4   7  -6  134.79    7.00
   3   7  -6   74.89    4.80
   3   7  -6   78.59    6.40
   3   7  -6   67.99    4.70
   2   7  -6  155.08    9.60
   2   7  -6  158.88    7.50
   1   7  -6    6.10    2.30
   1   7  -6    6.40    1.50
   0   7  -6   77.19    6.50
  -1   7  -6   -1.10    1.10
  -2   7  -6   76.79    6.90
   2  -7   6   86.89    6.00
  -3   7  -6  104.39    8.10
   3  -7   6   98.49    6.70
  -4   7  -6    0.80    1.50
   4  -7   6    0.90    1.30
   5  -7   6    2.30    1.60
   6  -7   6    7.70    2.50
   7  -7   6   14.60    3.20
   6   6  -6   25.40    3.70
   6   6  -6   20.90    2.90
   6   6  -6   25.40    2.80
   5   6  -6    1.50    0.90
   5   6  -6    0.20    1.10
   5   6  -6    0.00    0.90
   4   6  -6   27.30    4.00
   4   6  -6   26.60    2.50
   4   6  -6   25.20    2.90
   3   6  -6  103.79    7.10
   3   6  -6   97.39    4.70
   3   6  -6  102.19    5.50
   2   6  -6  229.48   11.70
   2   6  -6  226.68    9.50
   2   6  -6  222.08    8.50
   1   6  -6   78.49    4.60
   1   6  -6   86.09    6.50
   1   6  -6   79.29    3.80
   0   6  -6  142.49    8.80
  -1   6  -6  306.17   14.60
   1  -6   6  293.27   12.90
  -2   6  -6  122.49    8.50
   2  -6   6  136.79    7.50
  -3   6  -6    1.00    1.60
   3  -6   6    1.00    1.10
  -4   6  -6   18.60    3.80
   4  -6   6   20.60    3.30
   5  -6   6   26.60    3.90
   6  -6   6   -0.30    1.20
   7  -6   6   75.69    6.00
   8  -6   6   19.10    3.60
   7   5  -6   -0.50    1.00
   7   5  -6    0.90    0.80
   7   5  -6   -0.70    0.90
   7   5  -6    0.50    1.10
   6   5  -6   41.00    2.80
   6   5  -6   39.30    3.90
   6   5  -6   40.90    3.40
   6   5  -6   36.10    2.90
   5   5  -6    5.90    1.50
   5   5  -6    3.40    1.20
   5   5  -6    4.70    1.50
   5   5  -6    6.40    2.00
   4   5  -6   52.49    4.60
   4   5  -6   50.89    3.10
   4   5  -6   47.10    3.40
   3   5  -6  144.59    8.40
   3   5  -6  147.09    6.70
   3   5  -6  148.29    6.20
   2   5  -6   28.00    2.40
   2   5  -6   24.90    1.90
   2   5  -6   21.60    3.40
   1   5  -6   76.09    5.80
   0   5  -6  668.63   26.00
   0  -5   6  679.53   24.40
  -1   5  -6  327.27   15.10
   1  -5   6  341.67   13.80
  -2   5  -6   85.19    6.40
   2  -5   6   81.79    5.40
  -3   5  -6  401.76   17.60
   3  -5   6  397.56   16.10
  -4   5  -6   57.59    5.40
   4  -5   6   52.49    4.40
   5  -5   6  167.08    8.80
   6  -5   6    7.60    2.20
   6  -5   6    5.60    2.60
   7  -5   6  295.47   13.50
   8  -5   6   40.00    4.30
   9  -5   6    1.10    1.60
   8   4  -6   24.30    2.80
   8   4  -6   27.40    3.10
   8   4  -6   21.00    2.90
   8   4  -6   26.50    2.40
   8   4  -6   33.40    3.00
   7   4  -6    8.90    1.80
   7   4  -6    9.00    2.00
   7   4  -6    7.60    1.30
   7   4  -6    6.20    1.50
   7   4  -6    7.60    1.40
   6   4  -6    0.10    1.10
   6   4  -6    0.00    0.90
   6   4  -6    0.20    0.70
   6   4  -6    0.50    0.70
   6   4  -6   -0.90    0.70
   5   4  -6    3.80    0.90
   5   4  -6    3.60    1.20
   5   4  -6    5.00    0.90
   5   4  -6    4.10    1.60
   5   4  -6    4.00    1.30
   4   4  -6  307.67   12.90
   4   4  -6  279.37    9.80
   4   4  -6  277.47   10.00
   4   4  -6  283.17   10.70
   4   4  -6  274.27   10.90
   3   4  -6    6.30    0.90
   3   4  -6    9.20    1.40
   3   4  -6    6.60    2.00
   3   4  -6    6.40    1.30
   3   4  -6    7.60    0.90
   2   4  -6  401.46   17.00
   2   4  -6  427.66   14.80
   2   4  -6  409.56   13.70
   2   4  -6  416.66   13.70
   1   4  -6   15.20    1.10
   1   4  -6   13.70    2.60
  -1  -4   6   10.10    2.20
   0   4  -6  517.85   20.40
   0  -4   6  507.85   19.00
  -1   4  -6   72.19    5.60
   1  -4   6   76.09    4.80
  -2   4  -6    3.00    1.60
   2  -4   6    3.20    1.30
  -3   4  -6  448.06   18.80
   3  -4   6  460.05   17.50
  -4   4  -6  366.66   16.10
   4  -4   6  359.96   14.70
   5  -4   6  135.69    7.40
   6  -4   6   44.60    3.80
   6  -4   6   46.60    4.20
   7  -4   6  190.48    9.70
   7  -4   6  198.98    9.70
   8  -4   6  327.27   14.30
   9  -4   6    0.30    1.30
   8   3  -6   21.00    2.70
   8   3  -6   18.20    2.70
   8   3  -6   20.70    2.20
   8   3  -6   21.20    2.40
   8   3  -6   19.50    2.50
   7   3  -6   56.09    3.30
   7   3  -6   57.69    3.80
   7   3  -6   46.00    3.60
   7   3  -6   53.19    4.10
   7   3  -6   47.10    3.00
   6   3  -6   48.20    2.90
   6   3  -6   47.00    4.00
   6   3  -6   45.90    3.30
   6   3  -6   43.30    2.70
   6   3  -6   48.90    3.20
   5   3  -6   41.70    2.60
   5   3  -6   43.90    2.40
   5   3  -6   48.60    3.00
   5   3  -6   44.40    3.90
   5   3  -6   43.80    3.10
   4   3  -6   71.59    3.80
   4   3  -6   74.99    3.30
   4   3  -6   75.79    3.50
   4   3  -6   73.89    5.20
   4   3  -6   74.99    4.00
   3   3  -6  521.55   16.90
   3   3  -6  523.15   17.70
   3   3  -6  528.45   17.90
   3   3  -6  509.95   19.90
   3   3  -6  505.65   17.20
   2   3  -6  153.68    5.60
   2   3  -6  150.78    8.00
   2   3  -6  149.69    6.20
   2   3  -6  149.39    5.90
   2   3  -6  152.58    5.40
   1   3  -6  625.64   20.60
   1   3  -6  664.63   24.30
  -1  -3   6  662.43   23.10
   0   3  -6  225.58    7.50
   0   3  -6  230.38   10.80
   0  -3   6  232.88    9.90
  -1   3  -6    2.80    1.30
   1  -3   6    3.10    1.20
  -2   3  -6  632.54   23.60
   2  -3   6  608.54   22.20
  -3   3  -6  844.22   30.80
   3  -3   6  855.61   29.50
  -4   3  -6  218.68   10.80
   4  -3   6  221.48    9.80
   5  -3   6    8.80    2.00
   6  -3   6  591.64   21.90
   6  -3   6  582.54   21.70
   7  -3   6    5.10    1.70
   7  -3   6    1.90    1.20
   8  -3   6   28.90    3.20
   8  -3   6   21.90    3.40
   9  -3   6    9.30    2.50
   9  -3   6    9.80    2.30
  10  -3   6   59.89    4.90
   8   2  -6  138.59    6.70
   8   2  -6  142.39    6.10
   8   2  -6  131.79    6.20
   8   2  -6  131.99    7.00
   8   2  -6  137.59    6.80
   7   2  -6   81.39    4.50
   7   2  -6   81.49    4.20
   7   2  -6   75.09    5.00
   7   2  -6   75.89    3.90
   7   2  -6   76.99    4.50
   6   2  -6   28.90    3.10
   6   2  -6   27.10    2.40
   6   2  -6   34.30    2.70
   6   2  -6   28.50    2.20
   6   2  -6   33.10    2.20
   5   2  -6   13.70    1.60
   5   2  -6   12.00    1.70
   5   2  -6   15.20    1.90
   5   2  -6   10.80    2.10
   5   2  -6   11.90    1.40
   4   2  -6  123.69    6.90
   4   2  -6  130.19    5.20
   4   2  -6  121.99    5.50
   4   2  -6  128.69    5.00
   4   2  -6  125.89    5.50
   3   2  -6   32.40    2.20
   3   2  -6   30.40    1.90
   3   2  -6   33.40    3.30
   3   2  -6   33.20    2.30
   3   2  -6   30.90    2.10
   3   2  -6   30.50    1.70
   2   2  -6   69.89    3.50
   2   2  -6   76.19    3.50
   2   2  -6   72.59    5.00
   2   2  -6   71.49    3.00
  -2  -2   6   74.79    4.40
   1   2  -6  154.08    7.80
   1   2  -6  152.78    5.90
   1   2  -6  146.09    5.20
  -1  -2   6  149.99    7.10
   0   2  -6  136.49    7.20
   0  -2   6  132.89    6.50
  -1   2  -6   97.69    6.00
   1  -2   6  103.49    5.40
   2  -2   6  316.67   12.50
   3  -2   6  107.59    5.70
  -4   2  -6   81.49    5.50
   4  -2   6   81.69    4.90
   5  -2   6   41.30    3.40
   5  -2   6   43.60    3.40
   6  -2   6  461.35   17.90
   6  -2   6  459.35   17.40
   7  -2   6   78.89    5.00
   7  -2   6   80.09    5.60
   8  -2   6   23.40    3.50
   8  -2   6   19.30    2.70
   9  -2   6    9.60    2.50
   9  -2   6    8.00    1.90
  10  -2   6   24.00    4.20
  10  -2   6   27.40    3.10
   9   1  -6   36.40    3.30
   9   1  -6   40.70    3.00
   9   1  -6   34.60    3.50
   8   1  -6  107.09    5.10
   8   1  -6  115.09    5.80
   8   1  -6  101.89    6.00
   8   1  -6  108.49    5.40
   7   1  -6   93.49    5.00
   7   1  -6   98.19    5.80
   7   1  -6   94.09    5.00
   7   1  -6   96.39    4.80
   7   1  -6   87.19    4.40
   6   1  -6   43.70    3.70
   6   1  -6   42.10    2.90
   6   1  -6   48.90    2.80
   6   1  -6   43.30    2.80
   6   1  -6   43.40    3.00
   5   1  -6  129.69    5.40
   5   1  -6  127.89    5.60
   5   1  -6  131.09    7.00
   5   1  -6  139.09    6.00
   5   1  -6  138.89    5.80
   4   1  -6  171.68    6.80
   4   1  -6  181.68    8.70
   4   1  -6  177.38    6.70
   4   1  -6  169.18    7.10
   4   1  -6  190.78    7.00
   3   1  -6    0.90    0.60
   3   1  -6    0.30    0.50
   3   1  -6    0.60    0.90
   3   1  -6    0.50    0.40
   2   1  -6    4.10    1.40
   2   1  -6    5.80    0.70
   2   1  -6    5.00    1.00
   2   1  -6    5.40    0.90
  -2  -1   6    6.70    1.50
   1   1  -6    7.80    1.00
   1   1  -6    6.30    1.60
  -1  -1   6    5.20    1.20
   0   1  -6   17.00    2.50
   0  -1   6   19.60    2.10
  -1   1  -6   29.70    2.90
   1  -1   6   25.50    2.40
  -2   1  -6  343.77   13.70
   2  -1   6  325.97   12.80
  -3   1  -6  125.99    6.80
   3  -1   6  132.59    6.30
  -4   1  -6   12.60    2.30
   4  -1   6   12.70    2.00
   5  -1   6   11.60    2.10
   5  -1   6   12.50    1.90
   6  -1   6  630.44   23.50
   6  -1   6  646.64   22.70
   7  -1   6   21.00    2.40
   7  -1   6   26.40    3.10
   8  -1   6   62.49    5.20
   8  -1   6   67.29    4.40
   9  -1   6   59.29    5.30
   9  -1   6   52.69    4.00
  10  -1   6    4.70    1.50
  10  -1   6    0.70    1.30
   9   0  -6    6.90    1.60
   9   0  -6    6.50    1.50
   9   0  -6    6.40    1.80
   9   0  -6    5.40    1.70
   8   0  -6    1.30    1.10
   8   0  -6    0.50    1.00
   8   0  -6    2.30    1.00
   8   0  -6    0.70    0.90
   7   0  -6   39.70    2.70
   7   0  -6   36.00    2.60
   7   0  -6   32.50    2.80
   7   0  -6   39.80    3.50
   6   0  -6    1.70    0.90
   6   0  -6    0.80    0.80
   6   0  -6    1.70    1.20
   6   0  -6    2.80    0.90
   6   0  -6    1.00    0.70
   5   0  -6  179.88    8.80
   5   0  -6  183.98    7.40
   5   0  -6  185.98    7.10
   5   0  -6  184.48    7.10
   5   0  -6  177.18    7.20
   4   0  -6  249.08   10.80
   4   0  -6  238.88    8.90
   4   0  -6  244.38    9.20
   4   0  -6  247.68    8.80
   4   0  -6  234.38    8.80
   4   0  -6  255.27    9.30
   3   0  -6   54.49    4.20
   3   0  -6   62.89    2.80
   3   0  -6   60.09    3.20
  -3   0   6   60.19    4.40
   2   0  -6   57.89    3.10
   2   0  -6   67.69    4.50
   2   0  -6   58.89    2.60
  -2   0   6   57.29    3.80
   1   0  -6    9.50    1.40
   1   0  -6    8.30    1.80
   1   0  -6    9.30    0.80
  -1   0   6    8.30    1.70
   0   0  -6   12.80    2.10
   0   0   6   15.70    1.80
  -1   0  -6   59.29    4.10
   1   0   6   49.00    3.40
  -2   0  -6  304.97   12.40
   2   0   6  301.37   11.80
  -3   0  -6  110.69    6.00
   3   0   6  111.19    5.60
  -4   0  -6  443.26   17.10
   4   0   6  467.05   16.70
   5   0   6  191.08    8.90
   5   0   6  189.38    8.30
   6   0   6    2.80    1.30
   6   0   6    4.70    1.30
   7   0   6    4.40    1.80
   7   0   6    4.10    1.20
   8   0   6   82.79    4.80
   8   0   6   77.09    6.00
   9   0   6   94.89    5.30
   9   0   6   89.29    6.80
  10   0   6   12.30    2.00
  10   0   6    7.80    2.70
   9  -1  -6   18.40    2.40
   9  -1  -6   22.50    2.80
   9  -1  -6   17.40    2.80
   9  -1  -6   21.50    2.50
   8  -1  -6    1.50    1.10
   8  -1  -6    4.00    1.10
   8  -1  -6    1.20    1.00
   8  -1  -6    1.40    1.20
   7  -1  -6    8.70    1.40
   7  -1  -6   10.70    2.20
   7  -1  -6   12.20    1.90
   7  -1  -6   10.60    1.60
   6  -1  -6   53.99    3.40
   6  -1  -6   53.59    4.30
   6  -1  -6   57.09    3.20
   6  -1  -6   56.79    3.30
   5  -1  -6   20.90    1.90
   5  -1  -6   18.20    2.70
   5  -1  -6   24.30    2.20
   5  -1  -6   23.20    1.90
   5  -1  -6   21.30    2.10
   4  -1  -6    7.20    1.30
   4  -1  -6    9.30    2.00
   4  -1  -6    6.40    0.90
   4  -1  -6    7.40    1.20
   4  -1  -6    9.50    1.20
   3  -1  -6   98.49    5.80
   3  -1  -6  101.59    3.90
   3  -1  -6   97.89    4.70
  -3   1   6  100.29    5.50
   2  -1  -6  406.66   12.80
   2  -1  -6  387.16   13.90
   2  -1  -6  393.06   15.40
  -2   1   6  383.86   14.90
   1  -1  -6  192.98    6.20
   1  -1  -6  177.38    7.40
   1  -1  -6  183.88    8.60
  -1   1   6  185.28    8.20
   0  -1  -6  215.58    9.70
   0  -1  -6  224.48    8.70
   0   1   6  229.68    9.40
  -1  -1  -6   32.10    2.90
   1   1   6   24.80    2.40
  -2  -1  -6   17.70    2.10
   2   1   6   20.60    2.10
  -3  -1  -6    7.40    1.60
  -4  -1  -6  149.39    7.10
   4   1   6  147.19    6.80
   4   1   6  151.98    7.20
   5   1   6  225.48    9.60
   5   1   6  250.47   10.70
   6   1   6  133.19    6.30
   6   1   6  135.39    7.40
   7   1   6   10.50    1.70
   7   1   6    7.50    2.00
   8   1   6  166.58    7.40
   8   1   6  158.48    9.10
   9   1   6   35.80    4.30
   9   1   6   37.90    2.90
  10   1   6   32.00    4.90
  10   1   6   38.20    2.80
   9  -2  -6    6.60    1.60
   9  -2  -6    1.60    1.10
   9  -2  -6    3.80    1.60
   9  -2  -6    5.90    1.70
   8  -2  -6    0.10    0.80
   8  -2  -6    1.60    1.00
   8  -2  -6    1.10    1.30
   8  -2  -6    0.50    1.00
   7  -2  -6   13.20    1.70
   7  -2  -6   10.40    2.20
   7  -2  -6   10.60    1.70
   7  -2  -6   15.00    1.90
   6  -2  -6  134.29    6.00
   6  -2  -6  129.49    5.80
   6  -2  -6  129.59    7.20
   6  -2  -6  143.19    5.80
   5  -2  -6   22.60    2.10
   5  -2  -6   24.10    2.00
   5  -2  -6   20.80    2.00
   5  -2  -6   21.20    2.20
   5  -2  -6   21.80    3.10
   4  -2  -6   52.49    4.10
   4  -2  -6   53.09    3.30
   4  -2  -6   45.40    2.80
   3  -2  -6  537.05   19.80
   3  -2  -6  516.25   18.30
   2  -2  -6  515.45   18.10
   2  -2  -6  507.25   19.40
  -2   2   6  537.75   19.30
   1  -2  -6  459.35   15.80
   1  -2  -6  455.75   17.10
  -1   2   6  432.16   16.70
   0  -2  -6  113.39    5.10
   0  -2  -6  112.59    6.00
   0   2   6  102.69    5.60
  -1  -2  -6 1649.23   53.49
  -1  -2  -6 1650.63   52.49
   1   2   6 1585.44   53.09
  -2  -2  -6  164.18    7.70
   2   2   6  174.48    7.60
  -3  -2  -6   22.50    2.30
   3   2   6   26.90    2.40
   4   2   6  335.27   12.90
   4   2   6  299.27   12.00
   5   2   6 1033.60   35.50
   5   2   6 1025.00   34.20
   6   2   6  483.55   16.70
   6   2   6  441.66   18.20
   7   2   6   43.00    4.20
   7   2   6   49.10    3.20
   8   2   6   27.00    2.40
   8   2   6   33.00    3.90
   9   2   6    0.00    0.70
   9   2   6    0.70    1.20
  10   2   6   54.59    5.60
   9  -3  -6   28.10    2.90
   9  -3  -6   27.50    3.00
   9  -3  -6   28.60    3.00
   9  -3  -6   26.10    3.80
   8  -3  -6   16.30    2.90
   8  -3  -6   16.50    2.20
   8  -3  -6   17.90    2.30
   8  -3  -6   15.70    2.10
   7  -3  -6   68.59    3.80
   7  -3  -6   52.89    4.70
   7  -3  -6   61.99    3.50
   7  -3  -6   62.39    3.70
   6  -3  -6   93.19    4.40
   6  -3  -6   90.59    4.50
   6  -3  -6   92.59    4.50
   6  -3  -6   90.79    6.00
   5  -3  -6    9.40    1.40
   5  -3  -6    7.80    2.00
   5  -3  -6    9.10    1.30
   5  -3  -6    7.80    1.30
   5  -3  -6   10.00    1.80
   4  -3  -6  974.30   31.90
   4  -3  -6  958.00   34.10
   4  -3  -6 1005.10   32.90
   3  -3  -6  362.56   13.40
   3  -3  -6  373.96   14.70
  -3   3   6  341.37   14.30
   2  -3  -6   91.09    4.70
   2  -3  -6   94.99    5.70
   1  -3  -6   39.50    3.40
   1  -3  -6   36.30    2.60
  -1   3   6   32.00    3.00
   0  -3  -6 1218.98   40.00
   0  -3  -6 1197.18   41.00
   0   3   6 1251.37   41.00
  -1  -3  -6  365.06   13.50
  -1  -3  -6  386.56   14.50
   1   3   6  359.56   14.20
  -2  -3  -6   34.50    2.60
  -2  -3  -6   34.70    2.90
   2   3   6   33.60    2.80
  -3  -3  -6    3.00    1.10
   3   3   6    2.80    1.10
   3   3   6    2.20    0.90
   4   3   6   -0.10    0.60
   4   3   6    1.20    1.00
   5   3   6  100.29    5.30
   5   3   6  117.89    6.50
   6   3   6  177.98    9.30
   6   3   6  191.48    7.90
   7   3   6   -0.70    0.80
   7   3   6    0.20    0.60
   8   3   6   98.59    5.00
   8   3   6  112.59    7.40
   9   3   6   33.30    2.50
   9   3   6   35.40    5.00
  10   3   6   17.10    3.80
   8  -4  -6   14.00    2.00
   8  -4  -6   12.20    1.90
   8  -4  -6   14.30    2.90
   8  -4  -6    8.40    1.60
   7  -4  -6   60.79    3.70
   7  -4  -6   58.59    3.60
   7  -4  -6   66.49    3.70
   7  -4  -6   59.19    5.00
   6  -4  -6    4.60    1.10
   6  -4  -6    6.60    1.30
   6  -4  -6    8.60    1.50
   6  -4  -6    9.90    2.40
   5  -4  -6   52.39    4.50
   5  -4  -6   53.69    3.10
   5  -4  -6   54.19    3.80
   5  -4  -6   52.79    3.00
   4  -4  -6  305.27   13.00
   4  -4  -6  301.47   11.80
   4  -4  -6  286.47   10.60
   3  -4  -6  493.35   19.10
   3  -4  -6  489.35   17.90
  -3   4   6  514.85   19.40
   2  -4  -6   73.19    4.30
   2  -4  -6   78.79    5.10
  -2   4   6   77.69    5.10
   1  -4  -6  200.08    8.10
   1  -4  -6  192.78    9.00
  -1   4   6  177.38    8.80
   0  -4  -6  850.41   30.00
   0  -4  -6  884.11   29.10
   0   4   6  858.11   30.20
  -1  -4  -6  462.95   16.40
  -1  -4  -6  442.96   17.10
   1   4   6  467.05   17.30
  -2  -4  -6    1.20    0.80
  -2  -4  -6    3.50    1.20
   2   4   6    0.60    0.80
  -3  -4  -6  203.68   10.40
  -3  -4  -6  204.28    8.50
   3   4   6  210.38    9.00
   3   4   6  191.28    8.70
   4   4   6  773.62   27.30
   4   4   6  822.32   28.20
   5   4   6    9.10    1.60
   5   4   6    5.00    1.50
   6   4   6   44.00    4.10
   6   4   6   48.30    3.30
   7   4   6  132.79    7.90
   7   4   6  119.69    5.80
   8   4   6   83.79    6.50
   8   4   6   96.79    4.70
   9   4   6    9.20    2.90
  10   4   6    6.90    2.60
   8  -5  -6   18.40    2.30
   8  -5  -6   19.40    2.40
   8  -5  -6   15.00    3.10
   8  -5  -6   14.50    2.10
   7  -5  -6   27.20    2.60
   7  -5  -6   22.00    2.40
   7  -5  -6   19.90    2.20
   7  -5  -6   21.10    3.40
   6  -5  -6    7.10    1.40
   6  -5  -6    7.00    1.40
   6  -5  -6    5.80    2.00
   6  -5  -6    4.90    1.30
   5  -5  -6    6.30    1.20
   5  -5  -6    8.60    2.30
   4  -5  -6   14.40    1.60
   4  -5  -6   12.90    2.60
   4  -5  -6   13.00    2.20
   3  -5  -6    1.10    1.00
   3  -5  -6    2.30    1.40
  -3   5   6    5.10    1.80
   2  -5  -6   22.10    2.60
   2  -5  -6   20.70    3.00
  -2   5   6   12.20    2.40
   1  -5  -6  575.04   21.40
   1  -5  -6  613.14   20.50
  -1   5   6  541.25   21.50
   0  -5  -6  356.76   13.20
   0  -5  -6  345.27   14.00
   0   5   6  335.27   14.00
  -1  -5  -6    1.80    1.00
  -1  -5  -6    1.20    1.00
   1   5   6    2.20    1.20
  -2  -5  -6  269.67   10.70
  -2  -5  -6  269.77   11.30
   2   5   6  271.37    9.20
   2   5   6  277.77   11.50
   2   5   6  268.47   10.90
  -3  -5  -6  959.20   31.70
   3   5   6  944.31   32.30
   3   5   6  919.11   32.30
   3   5   6  944.11   30.30
  -4  -5  -6   90.19    4.90
   4   5   6   95.99    4.00
   4   5   6   95.89    5.60
   4   5   6   72.59    4.80
  -5  -5  -6  472.35   17.10
   5   5   6  469.35   18.40
   5   5   6  460.95   17.20
   6   5   6  156.28    8.50
   6   5   6  147.99    7.00
   7   5   6  136.09    8.10
   7   5   6  128.39    6.10
   8   5   6   50.59    3.20
   8   5   6   41.90    4.70
   9   5   6  196.48   11.30
   8  -6  -6   12.70    2.00
   8  -6  -6   11.00    1.90
   8  -6  -6   19.20    3.70
   7  -6  -6   62.49    5.50
   7  -6  -6   61.09    3.70
   7  -6  -6   64.39    3.80
   6  -6  -6    4.40    1.20
   6  -6  -6    6.60    2.20
   5  -6  -6   17.70    3.10
   4  -6  -6   18.20    2.70
   4  -6  -6   18.00    1.70
   4  -6  -6   16.20    2.80
   3  -6  -6  272.67   11.50
   3  -6  -6  272.67    9.80
   3  -6  -6  280.77   12.70
  -3   6   6  283.37   13.10
   2  -6  -6  148.49    7.20
   2  -6  -6  145.69    8.10
  -2   6   6  154.58    8.50
   1  -6  -6  114.99    5.80
   1  -6  -6  112.49    6.60
  -1   6   6   97.29    6.50
   0  -6  -6  191.98    9.20
   0  -6  -6  188.68    8.40
   0   6   6  170.08    7.60
   0   6   6  229.18   10.00
  -1  -6  -6  645.44   22.90
  -1  -6  -6  655.03   23.70
   1   6   6  636.04   22.50
   1   6   6  680.23   24.30
  -2  -6  -6   74.99    4.40
   2   6   6   75.99    3.30
   2   6   6   75.29    4.50
   2   6   6   77.29    5.10
  -3  -6  -6    4.20    1.30
   3   6   6    6.00    1.60
   3   6   6    4.30    1.40
   3   6   6    4.20    0.90
  -4  -6  -6    9.50    1.80
   4   6   6   11.30    1.40
   4   6   6    7.30    1.70
   4   6   6   12.70    2.30
  -5  -6  -6  193.08    8.40
   5   6   6  189.68    7.60
   5   6   6  182.98    8.50
   5   6   6  187.08    9.40
  -6  -6  -6   10.70    1.90
   6   6   6   10.10    1.80
   6   6   6    9.40    2.30
   6   6   6   11.30    1.70
   7   6   6    6.60    1.50
   7   6   6    6.30    2.20
   8   6   6   28.70    4.40
   8   6   6   35.30    2.70
   9   6   6   93.09    7.30
   7  -7  -6   32.30    2.90
   7  -7  -6   25.30    4.10
   7  -7  -6   22.30    2.50
   6  -7  -6   58.19    5.40
   6  -7  -6   52.79    3.40
   5  -7  -6   20.20    3.60
   5  -7  -6   22.30    2.20
   4  -7  -6   -1.10    1.10
   4  -7  -6    0.10    1.10
   3  -7  -6   10.40    2.50
   3  -7  -6   10.40    2.10
  -3   7   6    4.60    2.00
   2  -7  -6   12.50    2.30
   2  -7  -6   11.50    2.40
   1  -7  -6   63.99    4.50
   1  -7  -6   76.19    5.30
  -1   7   6   73.49    5.70
   0  -7  -6   45.60    3.50
   0  -7  -6   43.50    3.90
   0   7   6   44.60    4.20
  -1  -7  -6   43.20    3.40
   1   7   6   31.30    3.50
   1   7   6   44.90    3.10
  -2  -7  -6  253.67   10.30
   2   7   6  246.38   10.30
   2   7   6  235.58   11.30
  -3  -7  -6  105.59    5.60
   3   7   6   98.39    4.80
   3   7   6  114.59    6.50
   3   7   6  100.99    5.80
  -4  -7  -6   62.69    4.20
   4   7   6   63.39    4.60
   4   7   6   64.29    3.40
   4   7   6   69.49    4.90
  -5  -7  -6  141.49    6.90
   5   7   6  136.49    6.20
   5   7   6  157.48    7.60
   5   7   6  142.89    8.00
  -6  -7  -6   43.90    4.00
   6   7   6   49.20    4.60
   6   7   6   49.80    3.80
   6   7   6   50.59    3.40
   7   7   6    9.40    1.80
   7   7   6    5.70    2.10
   7   7   6    8.30    1.60
   8   7   6   45.40    5.00
   8   7   6   47.10    3.40
   6  -8  -6    0.60    1.50
   6  -8  -6    1.30    0.90
   5  -8  -6   61.29    5.70
   5  -8  -6   60.59    3.50
   4  -8  -6   50.29    5.00
   3  -8  -6    0.90    1.30
   3  -8  -6    1.50    1.50
  -3   8   6    0.80    1.30
   2  -8  -6   91.29    5.70
   2  -8  -6  102.19    6.80
  -2   8   6   93.69    7.10
   1  -8  -6  150.58    7.60
   1  -8  -6  144.59    8.30
  -1   8   6  160.98    9.20
   0  -8  -6  144.49    7.30
   0   8   6  149.49    8.70
  -1  -8  -6  147.49    7.50
   1   8   6  169.28    9.10
  -2  -8  -6  142.49    6.90
   2   8   6  133.09    7.90
  -3  -8  -6    4.50    1.50
   3   8   6    4.70    1.50
   3   8   6    1.30    1.20
  -4  -8  -6  165.58    7.60
   4   8   6  152.88    8.20
   4   8   6  145.09    8.00
  -5  -8  -6   85.69    5.10
   5   8   6   78.19    4.30
   5   8   6   83.79    5.90
   5   8   6   84.39    5.50
   6   8   6   27.00    2.50
   6   8   6   18.50    3.40
   6   8   6   29.90    3.10
   7   8   6   17.90    2.60
   7   8   6   12.40    2.10
   7   8   6   13.90    3.20
   8   8   6   30.30    3.30
   8   8   6   25.70    4.40
   8   8   6   28.80    3.20
   6  -9  -6  102.69    7.80
   5  -9  -6  151.18    9.60
   4  -9  -6    1.00    1.60
   3  -9  -6   11.00    2.80
  -3   9   6   19.30    3.80
   2  -9  -6   44.80    4.00
   2  -9  -6   48.70    4.80
  -2   9   6   42.10    4.90
   1  -9  -6   31.40    3.20
  -1   9   6   29.90    4.60
   0  -9  -6    7.30    1.90
   0   9   6    3.10    1.70
  -1  -9  -6   76.69    5.00
   1   9   6   78.19    6.20
  -2  -9  -6   53.99    4.10
   2   9   6   52.49    4.90
  -3  -9  -6    5.40    1.70
   3   9   6    1.20    1.30
  -4  -9  -6  101.89    5.60
   4   9   6   95.69    6.50
   5   9   6   75.99    6.00
   5   9   6   93.49    6.20
   6   9   6    8.70    2.40
   6   9   6   10.60    2.40
   7   9   6    1.20    1.20
   7   9   6    1.70    1.60
   4 -10  -6    2.10    1.90
   3 -10  -6   12.90    3.30
  -3  10   6    8.60    3.20
  -2  10   6  263.87   14.50
   1 -10  -6   38.70    3.90
  -1  10   6   47.90    5.50
   0 -10  -6   -0.30    1.10
   0  10   6   -0.50    1.30
  -1 -10  -6   15.30    2.60
   1  10   6   15.60    3.40
  -2 -10  -6    9.70    2.20
   2  10   6    9.70    2.70
  -3 -10  -6   73.99    5.10
   3  10   6   98.59    7.00
   4  10   6   -0.60    1.00
   5  10   6    2.40    1.50
  -2  11   6  118.29    9.30
  -1  11   6   57.49    6.30
   0 -11  -6   37.90    4.30
   0  11   6   28.50    4.80
  -1 -11  -6    7.50    2.20
   1  11   6    4.20    2.10
  -2 -11  -6    0.00    1.30
   2  11   6    0.10    1.40
   3  11   6   64.99    6.00
   4  11   6   60.39    5.70
   1   9  -7    0.50    1.20
   1   9  -7    0.00    1.70
   0   9  -7   72.49    7.40
   0   9  -7   75.29    5.30
  -1   9  -7  178.48   12.10
  -2   9  -7    3.70    2.70
  -3   9  -7   33.70    6.10
   3   8  -7   84.89    5.60
   3   8  -7   93.59    7.70
   2   8  -7   11.30    2.20
   2   8  -7   11.20    3.20
   1   8  -7   26.20    3.30
   1   8  -7   24.80    4.80
   0   8  -7   87.79    7.70
  -1   8  -7  100.99    8.40
  -2   8  -7   11.20    3.50
  -3   8  -7   46.10    6.80
  -4   8  -7    3.70    2.70
   4  -8   7    1.50    1.60
   5  -8   7   25.00    4.40
   5   7  -7   14.90    2.60
   5   7  -7   16.50    2.20
   4   7  -7  184.18    8.70
   4   7  -7  178.18   10.60
   4   7  -7  177.18    7.80
   3   7  -7   96.69    5.70
   3   7  -7   96.29    7.60
   2   7  -7   52.59    5.60
   2   7  -7   53.49    4.00
   1   7  -7   82.09    5.00
   1   7  -7   76.19    6.80
   0   7  -7  112.39    8.50
  -1   7  -7   37.90    5.70
  -2   7  -7    1.80    2.00
  -3   7  -7  152.88   10.30
   3  -7   7  142.09    8.50
  -4   7  -7   10.80    3.50
   4  -7   7   13.20    2.90
   5  -7   7   21.90    3.90
   6  -7   7   -0.20    1.50
   7  -7   7   13.10    3.20
   6   6  -7   -0.80    0.90
   6   6  -7    1.40    1.40
   5   6  -7   -0.10    1.10
   5   6  -7   -0.40    1.20
   5   6  -7   -1.20    0.70
   4   6  -7    2.60    1.20
   4   6  -7    3.30    1.90
   4   6  -7    3.40    1.20
   3   6  -7   26.80    3.00
   3   6  -7   31.00    4.50
   3   6  -7   27.40    2.40
   2   6  -7   19.60    3.80
   2   6  -7   18.00    2.50
   2   6  -7   20.00    2.10
   1   6  -7   46.60    5.00
   1   6  -7   39.30    3.20
   1   6  -7   41.80    2.70
   0   6  -7   48.80    5.20
  -1   6  -7    8.70    2.80
  -2   6  -7   -0.40    1.20
   2  -6   7   -0.20    1.00
  -3   6  -7    3.80    2.10
   3  -6   7    3.90    1.70
  -4   6  -7    0.20    1.60
   4  -6   7    1.00    1.20
   5  -6   7    0.10    1.30
   6  -6   7    1.80    1.60
   7  -6   7    4.60    2.00
   8  -6   7   22.00    3.90
   6   5  -7   27.80    3.20
   6   5  -7   30.20    4.10
   6   5  -7   29.70    3.00
   5   5  -7   43.20    3.10
   5   5  -7   40.90    3.40
   5   5  -7   42.70    4.50
   4   5  -7   45.50    4.70
   4   5  -7   48.40    3.50
   4   5  -7   48.00    3.20
   3   5  -7   25.30    2.70
   3   5  -7   27.80    2.30
   3   5  -7   26.40    4.10
   2   5  -7   69.89    5.80
   2   5  -7   70.99    4.20
   2   5  -7   71.39    3.80
   1   5  -7  106.79    7.50
   1   5  -7  110.89    5.50
   0   5  -7   71.29    6.00
  -1   5  -7   10.90    2.80
   1  -5   7   11.70    2.30
  -2   5  -7  368.26   16.70
   2  -5   7  343.47   14.80
  -3   5  -7   68.39    6.10
   3  -5   7   57.09    4.70
  -4   5  -7   10.20    2.70
   4  -5   7   14.00    2.70
   5  -5   7   49.20    4.50
   6  -5   7   65.39    5.30
   6  -5   7   57.59    5.10
   7  -5   7  377.06   16.40
   8  -5   7   39.80    4.50
   7   4  -7   23.00    2.40
   7   4  -7   13.30    2.20
   7   4  -7   14.70    2.30
   7   4  -7   16.00    2.40
   7   4  -7   19.80    3.10
   6   4  -7   25.10    3.70
   6   4  -7   23.40    2.90
   6   4  -7   26.10    2.90
   6   4  -7   23.00    2.30
   6   4  -7   19.20    2.90
   5   4  -7  109.99    5.30
   5   4  -7  100.99    4.70
   5   4  -7  101.29    6.80
   5   4  -7  103.19    5.50
   4   4  -7   19.40    2.20
   4   4  -7   16.50    3.10
   4   4  -7   15.80    1.70
   4   4  -7   21.60    2.40
   3   4  -7  159.88    7.10
   3   4  -7  164.88    9.20
   3   4  -7  160.58    6.20
   3   4  -7  166.38    6.90
   2   4  -7   63.39    5.30
   2   4  -7   68.59    3.80
   2   4  -7   63.89    3.00
   1   4  -7   44.60    4.50
   1   4  -7   47.10    3.10
   0   4  -7    0.30    1.20
   0  -4   7    0.40    1.00
  -1   4  -7  279.47   13.40
   1  -4   7  283.47   12.20
  -2   4  -7  181.08   10.00
   2  -4   7  178.28    8.80
  -3   4  -7    9.40    2.60
   3  -4   7   11.10    2.30
  -4   4  -7   11.40    2.70
   4  -4   7   13.40    2.60
   5  -4   7   -0.10    1.00
   6  -4   7   78.19    5.70
   6  -4   7   84.19    5.50
   7  -4   7    0.00    1.20
   7  -4   7    2.80    1.40
   8  -4   7   53.29    4.80
   9  -4   7    8.70    2.40
   7   3  -7   32.20    3.50
   7   3  -7   31.80    3.60
   7   3  -7   27.80    2.60
   7   3  -7   33.40    3.30
   7   3  -7   30.10    2.30
   6   3  -7  223.48    8.40
   6   3  -7  219.68    8.70
   6   3  -7  212.08    9.20
   6   3  -7  227.28   10.80
   6   3  -7  231.58    9.40
   5   3  -7   40.40    3.00
   5   3  -7   49.90    3.30
   5   3  -7   48.00    4.40
   5   3  -7   43.80    2.50
   5   3  -7   42.00    2.70
   4   3  -7    5.10    1.20
   4   3  -7    8.40    1.10
   4   3  -7    8.00    1.20
   4   3  -7    9.50    2.40
   4   3  -7    9.00    1.60
   3   3  -7  338.77   12.10
   3   3  -7  308.87   14.20
   3   3  -7  330.07   11.10
   3   3  -7  323.87   12.00
   3   3  -7  334.07   11.50
   2   3  -7  498.35   19.90
   2   3  -7  488.65   16.20
   2   3  -7  504.35   16.60
   2   3  -7  500.25   17.30
   1   3  -7   25.30    2.00
   1   3  -7   19.20    3.20
   0   3  -7   90.69    6.20
   0  -3   7   76.99    5.10
  -1   3  -7  290.57   13.10
   1  -3   7  267.17   11.70
  -2   3  -7  441.36   18.10
   2  -3   7  421.76   16.70
  -3   3  -7    9.90    2.60
   3  -3   7   12.10    2.30
  -4   3  -7    1.20    1.30
   4  -3   7    0.40    1.00
   5  -3   7  313.47   13.30
   6  -3   7  422.36   16.70
   6  -3   7  403.26   16.50
   7  -3   7    0.20    1.00
   7  -3   7    0.80    1.20
   8  -3   7   19.80    3.30
   8  -3   7   18.10    3.00
   9  -3   7   46.80    4.40
   9  -3   7   39.70    4.50
   8   2  -7    3.60    1.50
   8   2  -7    6.10    1.50
   8   2  -7    4.20    1.30
   8   2  -7    3.30    1.40
   7   2  -7   15.50    1.90
   7   2  -7   15.00    2.00
   7   2  -7   13.50    2.20
   7   2  -7   12.30    2.50
   6   2  -7  145.89    6.60
   6   2  -7  140.79    6.50
   6   2  -7  141.59    6.10
   6   2  -7  135.39    7.70
   6   2  -7  136.49    5.90
   5   2  -7   66.89    3.80
   5   2  -7   67.39    3.60
   5   2  -7   70.69    3.50
   5   2  -7   75.89    5.40
   5   2  -7   69.39    4.00
   4   2  -7    1.10    0.70
   4   2  -7   -0.40    0.90
   4   2  -7   -0.20    0.60
   4   2  -7   -0.10    0.50
   4   2  -7   -0.20    0.50
   3   2  -7  161.18    6.70
   3   2  -7  168.88    6.20
   3   2  -7  167.18    8.90
   3   2  -7  164.48    6.40
   2   2  -7  345.87   12.00
   2   2  -7  328.07   11.30
   2   2  -7  341.87   14.60
   2   2  -7  330.67   12.00
   1   2  -7  285.57   12.80
   1   2  -7  276.57    9.50
   1   2  -7  281.67   10.20
  -1  -2   7  289.27   11.90
   0   2  -7  506.25   19.40
   0  -2   7  467.85   18.10
  -1   2  -7 1500.65   50.39
   1  -2   7 1457.95   49.10
  -2   2  -7   91.49    6.20
   2  -2   7   97.59    5.60
   3  -2   7  261.67   11.20
  -4   2  -7 1013.70   36.00
   4  -2   7 1008.70   34.80
   5  -2   7  356.56   14.40
   6  -2   7   17.40    2.80
   6  -2   7   17.20    2.70
   7  -2   7   69.39    5.30
   7  -2   7   67.19    4.90
   8  -2   7   92.49    5.80
   8  -2   7   83.99    6.30
   9  -2   7    1.80    1.40
   9  -2   7    1.50    1.40
  10  -2   7   14.00    2.70
  10  -2   7   17.60    3.60
   8   1  -7   41.50    3.90
   8   1  -7   45.90    3.60
   8   1  -7   43.10    3.20
   8   1  -7   43.50    3.10
   7   1  -7   62.39    3.60
   7   1  -7   60.39    4.80
   7   1  -7   71.49    4.20
   7   1  -7   66.49    3.90
   6   1  -7  227.18    8.50
   6   1  -7  215.68   10.50
   6   1  -7  223.58    8.80
   6   1  -7  216.98    9.10
   5   1  -7   12.70    1.50
   5   1  -7   16.10    2.00
   5   1  -7   13.30    2.50
   5   1  -7    8.60    1.40
   5   1  -7   11.40    1.60
   4   1  -7  109.79    4.90
   4   1  -7  105.49    4.60
   4   1  -7  107.59    6.60
   4   1  -7  112.69    5.20
   4   1  -7  115.59    4.90
   3   1  -7  351.86   14.60
   3   1  -7  337.97   12.30
   3   1  -7  328.27   11.70
   3   1  -7  357.06   12.10
   2   1  -7   16.10    1.80
   2   1  -7   15.80    1.50
   2   1  -7   19.40    3.10
   2   1  -7   15.00    1.30
  -2  -1   7   13.30    2.20
   1   1  -7  106.99    4.40
   1   1  -7  100.09    4.90
   1   1  -7   98.19    6.30
  -1  -1   7  114.39    5.80
   0   1  -7   10.40    2.10
   0  -1   7    8.00    1.70
  -1   1  -7    5.70    1.70
   1  -1   7    3.50    1.20
  -2   1  -7  208.58   10.00
   2  -1   7  207.58    9.20
  -3   1  -7   87.09    5.80
   3  -1   7   90.39    5.20
  -4   1  -7   11.90    2.40
   4  -1   7   10.70    2.00
   5  -1   7   54.19    4.00
   6  -1   7  175.78    8.50
   6  -1   7  184.48    9.20
   7  -1   7    4.00    1.70
   7  -1   7    3.20    1.30
   8  -1   7   74.39    5.00
   8  -1   7   71.79    5.80
   9  -1   7    1.30    1.60
   9  -1   7    0.70    1.00
  10  -1   7   40.00    5.50
  10  -1   7   36.80    3.60
   8   0  -7   37.00    3.60
   8   0  -7   37.50    3.80
   8   0  -7   38.00    3.00
   8   0  -7   41.30    2.90
   7   0  -7   10.80    1.60
   7   0  -7    8.50    2.20
   7   0  -7    8.40    1.60
   7   0  -7   13.00    2.10
   6   0  -7   66.19    3.90
   6   0  -7   65.99    3.70
   6   0  -7   59.69    3.40
   6   0  -7   62.89    4.90
   5   0  -7   -0.10    0.70
   5   0  -7    0.50    1.00
   5   0  -7   -0.20    0.50
   5   0  -7    0.50    0.70
   4   0  -7  146.39    5.90
   4   0  -7  141.39    6.20
   4   0  -7  136.09    7.70
   4   0  -7  149.79    5.70
   4   0  -7  139.89    6.20
   4   0  -7  140.69    6.20
   3   0  -7  108.89    4.40
   3   0  -7  100.49    4.90
   3   0  -7  107.59    6.50
   3   0  -7  113.39    4.50
   2   0  -7    3.30    0.70
   2   0  -7    2.00    0.80
   2   0  -7    2.40    1.30
  -2   0   7    5.20    1.50
   1   0  -7   15.40    1.10
   1   0  -7   14.70    2.50
   1   0  -7   15.20    1.90
  -1   0   7   16.80    2.40
   0   0  -7   37.10    3.60
   0   0   7   39.10    3.20
  -1   0  -7    1.30    1.10
   1   0   7    0.40    0.70
  -2   0  -7   18.40    2.80
   2   0   7   15.00    2.20
  -3   0  -7   65.69    4.70
   3   0   7   68.59    4.40
  -4   0  -7   22.40    2.80
   4   0   7   27.70    2.70
   5   0   7   72.29    5.00
   5   0   7   82.49    4.90
   6   0   7  418.86   16.80
   6   0   7  398.86   15.60
   7   0   7    2.60    1.20
   7   0   7    3.00    1.50
   8   0   7   44.70    3.60
   8   0   7   38.40    4.30
   9   0   7   28.20    2.90
   9   0   7   29.80    4.50
  10   0   7  148.79    9.90
  10   0   7  171.38    8.00
   8  -1  -7    2.20    1.20
   8  -1  -7    0.90    1.20
   8  -1  -7    0.20    0.90
   8  -1  -7    1.70    1.20
   7  -1  -7    7.40    1.40
   7  -1  -7    8.80    2.20
   7  -1  -7    8.80    1.50
   7  -1  -7    6.80    1.50
   6  -1  -7   13.10    2.60
   6  -1  -7   11.30    1.60
   6  -1  -7   10.50    1.70
   6  -1  -7   11.00    1.60
   5  -1  -7   -0.80    0.80
   5  -1  -7    0.40    0.80
   5  -1  -7    0.00    0.60
   5  -1  -7   -0.20    0.60
   5  -1  -7    0.40    0.70
   4  -1  -7  156.18    6.60
   4  -1  -7  152.58    8.30
   4  -1  -7  157.88    6.90
   4  -1  -7  166.08    6.30
   3  -1  -7  145.69    6.50
   3  -1  -7  151.38    8.00
   2  -1  -7    0.60    1.10
   2  -1  -7    1.70    0.80
  -2   1   7    3.10    1.30
   1  -1  -7  220.88   10.10
   1  -1  -7  213.98    8.60
   1  -1  -7  215.88    7.20
  -1   1   7  214.68    9.60
   0  -1  -7  484.45   19.20
   0  -1  -7  502.05   17.80
   0   1   7  528.25   18.80
  -1  -1  -7  287.67   12.60
   1   1   7  312.67   12.20
  -2  -1  -7   53.09    4.10
   2   1   7   50.19    3.60
  -3  -1  -7    0.40    0.90
   3   1   7    0.00    0.60
   4   1   7    2.30    1.00
   5   1   7  254.27   11.20
   5   1   7  242.88   10.40
   6   1   7  261.77   11.00
   6   1   7  278.57   12.30
   7   1   7   -0.20    0.90
   7   1   7    0.50    0.90
   8   1   7   40.40    4.40
   8   1   7   47.60    3.60
   9   1   7   52.49    3.70
   9   1   7   52.79    5.30
  10   1   7   14.60    3.50
  10   1   7   14.60    2.20
   8  -2  -7   -0.60    0.70
   8  -2  -7    0.40    0.90
   8  -2  -7    0.90    1.20
   8  -2  -7   -0.60    0.70
   7  -2  -7   66.39    5.20
   7  -2  -7   60.69    3.90
   7  -2  -7   69.19    3.80
   7  -2  -7   63.49    3.90
   6  -2  -7   70.39    5.30
   6  -2  -7   69.69    3.90
   6  -2  -7   70.19    3.80
   6  -2  -7   65.49    3.90
   5  -2  -7  138.09    6.00
   5  -2  -7  134.59    5.90
   5  -2  -7  134.09    6.40
   5  -2  -7  135.59    7.70
   5  -2  -7  128.79    5.60
   4  -2  -7  176.48    7.60
   4  -2  -7  168.18    7.00
   4  -2  -7  176.48    9.00
   3  -2  -7   31.50    2.60
   3  -2  -7   33.80    3.50
  -3   2   7   41.00    3.80
   2  -2  -7  202.28    8.60
   2  -2  -7  208.28   10.00
  -2   2   7  223.08    9.90
   1  -2  -7   65.09    4.60
   1  -2  -7   60.39    3.50
  -1   2   7   43.80    3.80
   0  -2  -7  722.73   24.80
   0  -2  -7  720.73   26.10
   0   2   7  736.53   25.80
  -1  -2  -7   22.80    2.20
  -1  -2  -7   22.70    2.70
   1   2   7   14.40    2.20
  -2  -2  -7  265.17   11.40
   2   2   7  268.27   11.10
  -3  -2  -7   14.70    2.40
   3   2   7   11.80    2.00
   4   2   7    7.70    1.80
   4   2   7    1.30    0.90
   5   2   7  256.27   11.20
   5   2   7  235.18   10.10
   6   2   7  106.79    6.80
   6   2   7  119.49    5.90
   7   2   7    4.10    1.20
   7   2   7    1.80    1.30
   8   2   7  127.59    8.30
   8   2   7  134.69    6.50
   9   2   7  198.18    8.30
   9   2   7  166.28   10.40
  10   2   7   -0.40    0.70
  10   2   7    0.50    1.50
   8  -3  -7    0.50    1.00
   8  -3  -7    2.00    1.20
   8  -3  -7    2.60    1.60
   8  -3  -7    1.90    1.20
   7  -3  -7    2.90    1.10
   7  -3  -7    1.40    1.00
   7  -3  -7    4.40    1.20
   7  -3  -7    0.30    1.20
   6  -3  -7   34.80    3.80
   6  -3  -7   31.50    2.50
   6  -3  -7   29.60    2.50
   6  -3  -7   30.20    2.30
   5  -3  -7  124.29    5.70
   5  -3  -7  129.59    7.60
   5  -3  -7  123.79    6.30
   5  -3  -7  133.39    5.50
   5  -3  -7  124.79    5.60
   4  -3  -7   65.79    5.00
   4  -3  -7   67.19    4.10
   4  -3  -7   58.49    3.40
   3  -3  -7   95.99    6.00
   3  -3  -7   85.69    4.70
  -3   3   7   76.19    5.40
   2  -3  -7  206.88    8.70
   2  -3  -7  203.28    9.90
  -2   3   7  215.38   10.00
   1  -3  -7  623.64   22.80
   1  -3  -7  625.04   21.40
  -1   3   7  583.94   22.40
   0  -3  -7   79.79    5.30
   0  -3  -7   86.69    4.60
   0   3   7   76.09    5.00
  -1  -3  -7    1.40    1.00
  -1  -3  -7    2.90    1.30
   1   3   7    1.40    1.00
  -2  -3  -7  134.09    7.00
  -2  -3  -7  142.79    6.50
   2   3   7  132.99    6.80
  -3  -3  -7  269.17   11.50
   3   3   7  280.97   11.40
   4   3   7    6.90    1.50
   4   3   7    3.90    1.50
   5   3   7   15.60    2.70
   5   3   7    6.50    1.50
   6   3   7    2.70    1.10
   6   3   7    1.90    1.30
   7   3   7   10.10    2.50
   7   3   7   10.80    1.80
   8   3   7  138.29    6.50
   8   3   7  121.09    8.20
   9   3   7   72.79    6.30
   9   3   7   75.49    4.40
  10   3   7   57.09    6.00
   8  -4  -7   72.39    4.50
   8  -4  -7   74.09    4.40
   8  -4  -7   80.79    4.60
   8  -4  -7   75.99    6.00
   7  -4  -7    4.10    1.30
   7  -4  -7    3.20    1.10
   7  -4  -7    4.90    1.90
   7  -4  -7    5.70    1.50
   6  -4  -7  102.99    5.00
   6  -4  -7  107.69    7.00
   6  -4  -7  106.79    5.20
   6  -4  -7  107.09    5.20
   5  -4  -7  157.68    6.60
   5  -4  -7  161.18    7.60
   5  -4  -7  151.28    8.60
   4  -4  -7  123.79    5.30
   4  -4  -7  118.29    6.20
   4  -4  -7  116.69    7.20
   3  -4  -7  454.85   17.90
   3  -4  -7  453.35   16.50
  -3   4   7  420.46   17.50
   2  -4  -7  588.24   21.30
   2  -4  -7  606.34   22.80
  -2   4   7  617.64   22.80
   1  -4  -7  282.17   11.30
   1  -4  -7  288.87   12.50
  -1   4   7  285.27   12.50
   0  -4  -7   99.89    6.30
   0  -4  -7  118.49    5.80
   0   4   7  128.99    6.80
  -1  -4  -7  113.49    6.20
  -1  -4  -7   99.99    5.20
   1   4   7   83.19    5.50
  -2  -4  -7  114.29    6.30
  -2  -4  -7  106.09    5.60
   2   4   7  107.29    6.10
  -3  -4  -7  120.49    6.00
   3   4   7  116.79    6.30
   3   4   7  113.49    6.20
   4   4   7   21.40    3.00
   4   4   7   19.20    2.40
   5   4   7    0.40    0.80
   5   4   7    1.70    1.20
   6   4   7  153.88    8.70
   6   4   7  165.48    7.60
   7   4   7    6.00    2.10
   7   4   7    5.90    1.40
   8   4   7  173.68    7.50
   8   4   7  144.49    9.40
   9   4   7    4.60    1.20
   9   4   7    4.50    2.00
  10   4   7    9.40    2.90
   8  -5  -7    5.30    1.50
   8  -5  -7    4.70    1.50
   7  -5  -7    0.30    0.90
   7  -5  -7    0.80    1.00
   7  -5  -7    0.10    1.30
   7  -5  -7   -0.50    0.80
   6  -5  -7   34.20    2.70
   6  -5  -7   32.00    4.00
   6  -5  -7   37.50    2.70
   6  -5  -7   34.70    2.60
   5  -5  -7   44.00    4.50
   5  -5  -7   48.00    3.90
   5  -5  -7   49.80    3.00
   4  -5  -7   20.50    2.90
   4  -5  -7   19.70    3.30
   4  -5  -7   19.30    2.00
   3  -5  -7   12.40    2.20
   3  -5  -7   13.80    2.70
  -3   5   7   21.30    3.30
   2  -5  -7  140.39    7.70
   2  -5  -7  137.09    6.50
  -2   5   7  103.69    7.00
   1  -5  -7  844.42   29.90
   1  -5  -7  846.42   31.10
  -1   5   7  941.81   31.70
   0  -5  -7  356.56   15.00
   0  -5  -7  361.96   14.00
   0   5   7  381.86   15.30
  -1  -5  -7  225.58    9.40
  -1  -5  -7  225.88   10.20
   1   5   7  208.58   10.20
  -2  -5  -7  680.13   23.30
  -2  -5  -7  651.63   24.10
   2   5   7  655.83   23.40
   2   5   7  657.73   24.20
  -3  -5  -7  267.97   11.10
   3   5   7  284.07   11.90
   3   5   7  271.17   11.60
  -4  -5  -7   71.59    4.40
   4   5   7   67.59    4.80
   4   5   7   60.89    4.40
  -5  -5  -7  196.28    8.80
   5   5   7  182.88    8.70
   5   5   7  195.78    9.70
   6   5   7  147.49    8.50
   6   5   7  153.08    7.40
   7   5   7   10.30    1.80
   7   5   7   12.30    2.90
   8   5   7   17.00    3.40
   8   5   7   18.40    2.20
   9   5   7   23.10    2.30
   9   5   7   20.10    4.10
   7  -6  -7   41.80    4.80
   7  -6  -7   41.80    3.20
   7  -6  -7   42.00    3.10
   6  -6  -7   26.40    4.20
   6  -6  -7   30.40    2.80
   5  -6  -7   82.99    5.30
   5  -6  -7   80.69    6.20
   5  -6  -7   72.29    4.30
   4  -6  -7  138.29    8.50
   4  -6  -7  136.79    5.80
   4  -6  -7  139.69    7.30
   3  -6  -7  227.18   10.70
   3  -6  -7  234.88   11.90
  -3   6   7  300.77   13.00
   2  -6  -7   31.70    3.10
   2  -6  -7   31.40    3.70
  -2   6   7   42.70    4.30
   1  -6  -7    9.60    2.00
   1  -6  -7   10.00    2.40
  -1   6   7   11.40    2.60
   0  -6  -7  566.84   22.30
   0  -6  -7  595.14   21.40
   0   6   7  620.84   23.00
  -1  -6  -7  373.56   15.70
  -1  -6  -7  400.66   15.10
   1   6   7  383.16   14.60
   1   6   7  407.76   16.20
  -2  -6  -7    0.90    1.00
   2   6   7   -0.10    0.80
   2   6   7    0.50    0.90
  -3  -6  -7  157.88    7.60
   3   6   7  170.18    8.30
   3   6   7  159.58    8.00
  -4  -6  -7  360.36   13.80
   4   6   7  355.86   14.50
   4   6   7  333.97   14.10
  -5  -6  -7  129.39    6.70
   5   6   7  127.69    7.50
   5   6   7  130.39    6.90
  -6  -6  -7    0.90    1.20
   6   6   7    2.50    1.10
   6   6   7   -0.10    1.10
  -7  -6  -7   39.00    3.50
   7   6   7   37.10    3.20
   7   6   7   39.60    4.40
   8   6   7   38.20    3.20
   8   6   7   47.00    5.10
   9   6   7   19.20    4.00
   7  -7  -7   25.00    2.70
   7  -7  -7   20.30    2.40
   6  -7  -7   45.50    5.00
   6  -7  -7   41.50    3.10
   5  -7  -7    0.70    1.50
   4  -7  -7  129.29    8.20
   4  -7  -7  124.49    7.10
   3  -7  -7   14.60    2.60
   3  -7  -7   19.70    3.50
  -3   7   7   13.10    3.00
   2  -7  -7   22.50    3.00
   2  -7  -7   21.50    3.40
   1  -7  -7  572.24   21.40
   1  -7  -7  602.04   23.10
  -1   7   7  580.54   23.20
   0  -7  -7  132.39    6.90
   0  -7  -7  145.99    8.00
   0   7   7  120.39    7.80
  -1  -7  -7    2.40    1.20
   1   7   7    1.30    1.00
   1   7   7    1.90    1.30
  -2  -7  -7  183.08    8.40
   2   7   7  170.78    9.10
   2   7   7  179.98    8.30
  -3  -7  -7  696.73   24.70
   3   7   7  689.33   25.10
   3   7   7  695.83   25.70
  -4  -7  -7   56.59    4.10
   4   7   7   56.59    4.50
   4   7   7   57.29    4.50
  -5  -7  -7    3.40    1.40
   5   7   7    3.10    1.40
   5   7   7    2.50    1.40
  -6  -7  -7   17.90    2.70
   6   7   7   13.60    2.40
   6   7   7   15.60    2.90
   7   7   7   20.30    3.70
   7   7   7   21.70    2.60
   8   7   7  127.89    6.50
   6  -8  -7    8.30    2.80
   6  -8  -7    8.20    1.60
   5  -8  -7    1.30    1.80
   4  -8  -7   -0.50    1.10
   4  -8  -7    0.40    1.40
   3  -8  -7   -1.20    1.20
   3  -8  -7   -0.80    1.20
  -3   8   7   -0.10    1.30
   2  -8  -7   18.30    3.50
   2  -8  -7   22.70    3.20
  -2   8   7   29.70    4.50
   1  -8  -7  248.08   12.10
   1  -8  -7  234.58   10.90
  -1   8   7  271.07   13.10
   0  -8  -7    1.70    1.40
   0   8   7    5.70    2.20
  -1  -8  -7    9.60    2.00
   1   8   7   12.50    2.80
  -2  -8  -7   28.30    3.40
   2   8   7   25.20    3.80
  -3  -8  -7  333.07   13.50
   3   8   7  336.47   14.60
   3   8   7  322.77   13.60
  -4  -8  -7   89.19    5.40
   4   8   7   90.29    5.90
   4   8   7   88.99    6.10
  -5  -8  -7    7.80    1.90
   5   8   7    6.70    1.90
   5   8   7    7.20    2.20
   6   8   7  221.98   10.10
   6   8   7  187.58   10.60
   7   8   7   63.49    4.60
   7   8   7   54.79    5.40
   5  -9  -7  102.79    5.10
   5  -9  -7   98.89    7.90
   4  -9  -7   57.59    5.80
   3  -9  -7    5.00    2.20
   3  -9  -7    6.10    2.00
  -3   9   7    2.80    2.00
   2  -9  -7   39.80    4.00
   2  -9  -7   48.20    5.00
  -2   9   7   62.09    6.00
   1  -9  -7  184.08    9.50
  -1   9   7  230.88   12.20
   0  -9  -7   39.40    3.70
   0   9   7   45.60    4.90
  -1  -9  -7    9.10    2.20
   1   9   7    9.90    2.60
  -2  -9  -7  139.59    7.40
   2   9   7  140.69    8.60
  -3  -9  -7  100.39    5.80
   3   9   7   92.29    6.60
  -4  -9  -7   -0.10    1.20
   4   9   7    1.00    1.20
   5   9   7   97.49    6.60
   6   9   7   98.59    6.30
   6   9   7   78.89    6.30
   4 -10  -7   53.59    5.90
   3 -10  -7    8.30    2.70
  -3  10   7    6.20    2.90
   2 -10  -7   22.40    3.50
  -2  10   7   14.00    3.70
   1 -10  -7   57.69    4.70
  -1  10   7   59.59    6.20
   0 -10  -7    4.70    1.90
   0  10   7    4.70    2.10
  -1 -10  -7    8.70    2.10
   1  10   7   11.20    2.90
  -2 -10  -7   16.10    2.80
   2  10   7   13.20    3.10
  -3 -10  -7   -0.10    1.20
   3  10   7    0.40    1.30
   4  10   7    1.30    1.50
   5  10   7   -0.60    1.10
   1 -11  -7   46.20    4.50
  -1  11   7   28.70    4.90
   0 -11  -7    8.50    2.40
   0  11   7   12.40    3.50
  -1 -11  -7   12.60    2.60
   1  11   7   10.00    3.20
  -2 -11  -7   23.90    3.40
   2  11   7   25.20    4.40
   3  11   7    4.20    2.30
   1   8  -8   11.40    2.40
   1   8  -8    8.90    3.20
   0   8  -8    8.00    3.00
   0   8  -8    6.30    1.80
  -1   8  -8   25.10    5.10
  -2   8  -8  138.49   10.60
  -3   8  -8   10.30    3.60
   4  -8   8    6.60    2.40
   3   7  -8   73.59    5.00
   3   7  -8   74.09    6.90
   2   7  -8   61.19    4.50
   2   7  -8   65.69    6.60
   1   7  -8    1.10    1.20
   1   7  -8    0.50    1.80
   0   7  -8    6.00    2.80
  -1   7  -8   49.90    6.00
  -2   7  -8  112.89    9.00
  -3   7  -8    4.60    2.80
   3  -7   8    3.60    2.00
  -4   7  -8   22.70    5.00
   4  -7   8   25.60    4.20
   5  -7   8   22.90    4.00
   6  -7   8    0.70    1.70
   4   6  -8   10.70    1.80
   4   6  -8   11.80    3.10
   4   6  -8   12.00    2.30
   3   6  -8   28.40    4.70
   3   6  -8   29.50    3.30
   3   6  -8   30.40    2.60
   2   6  -8  132.59    6.70
   2   6  -8  127.89    8.90
   2   6  -8  139.49    6.10
   1   6  -8    1.90    1.10
   1   6  -8    3.20    1.10
   1   6  -8    1.70    1.80
   0   6  -8  142.99    9.70
  -1   6  -8  110.09    8.40
  -2   6  -8    5.60    2.40
   2  -6   8   10.20    2.60
  -3   6  -8   27.40    4.90
   3  -6   8   24.80    3.80
  -4   6  -8    8.00    3.00
   4  -6   8    5.00    2.20
   5  -6   8   26.50    4.10
   6  -6   8    3.10    2.00
   7  -6   8   81.49    6.60
   5   5  -8    4.30    1.50
   5   5  -8    3.20    1.30
   5   5  -8    0.70    1.50
   4   5  -8    7.80    1.60
   4   5  -8   10.80    2.90
   4   5  -8    7.90    1.70
   3   5  -8    6.60    2.50
   3   5  -8    5.90    1.50
   3   5  -8    7.20    1.50
   2   5  -8   19.10    2.40
   2   5  -8   15.50    3.30
   2   5  -8   21.10    2.30
   1   5  -8   16.00    2.20
   1   5  -8   16.20    3.40
   0   5  -8    0.20    1.40
  -1   5  -8   63.89    6.10
   1  -5   8   70.79    5.40
  -2   5  -8  112.09    8.20
   2  -5   8  116.69    7.20
  -3   5  -8  172.68   10.80
   3  -5   8  181.08    9.50
  -4   5  -8    0.30    1.40
   4  -5   8   -1.00    0.80
   5  -5   8    1.90    1.50
   6  -5   8   45.60    4.60
   6  -5   8   35.90    4.20
   7  -5   8  118.59    7.90
   8  -5   8   25.00    4.20
   6   4  -8   31.80    4.50
   6   4  -8   26.90    2.80
   6   4  -8   38.30    3.20
   5   4  -8   20.30    2.60
   5   4  -8   21.20    2.60
   5   4  -8   18.30    3.30
   5   4  -8   15.00    2.10
   4   4  -8    0.40    0.80
   4   4  -8    0.10    1.20
   4   4  -8    1.50    0.90
   3   4  -8   80.39    4.50
   3   4  -8   83.59    4.40
   3   4  -8   78.79    6.40
   2   4  -8    0.90    1.40
   2   4  -8    0.10    0.70
   1   4  -8    1.50    1.40
   1   4  -8    1.40    0.90
   0   4  -8    4.70    2.20
  -1   4  -8   34.30    4.30
  -2   4  -8  207.18   11.60
   2  -4   8  215.28   10.40
  -3   4  -8  155.08    9.80
   3  -4   8  160.48    8.60
  -4   4  -8   14.20    3.20
   4  -4   8   18.60    3.10
   5  -4   8  128.39    7.60
   6  -4   8  252.47   12.00
   6  -4   8  240.68   11.40
   7  -4   8   30.60    3.70
   7  -4   8   35.40    4.10
   8  -4   8    6.50    2.30
   7   3  -8   83.39    5.00
   7   3  -8   77.79    4.10
   6   3  -8   32.80    3.30
   6   3  -8   30.60    2.30
   6   3  -8   27.10    2.70
   6   3  -8   35.80    4.00
   5   3  -8  167.28    7.10
   5   3  -8  184.88    9.80
   5   3  -8  169.28    7.10
   5   3  -8  168.28    7.70
   4   3  -8  111.29    5.00
   4   3  -8  109.99    5.50
   4   3  -8  113.69    7.50
   4   3  -8  113.79    5.50
   3   3  -8  197.48    8.30
   3   3  -8  213.78    8.50
   3   3  -8  198.48   10.80
   3   3  -8  207.98    7.80
   2   3  -8  117.49    7.70
   2   3  -8  124.39    5.60
   1   3  -8  123.79    7.90
   1   3  -8  124.79    5.60
   0   3  -8   96.09    7.10
   0  -3   8  118.89    6.70
  -1   3  -8   34.40    4.10
   1  -3   8   34.50    3.50
  -2   3  -8   15.20    3.00
   2  -3   8   16.00    2.70
  -3   3  -8   24.60    3.90
   3  -3   8   24.60    3.00
  -4   3  -8   67.79    5.90
   4  -3   8   82.59    5.60
   5  -3   8   22.70    3.30
   6  -3   8   10.00    2.30
   6  -3   8    5.60    1.90
   7  -3   8  168.68    9.00
   7  -3   8  155.78    8.90
   8  -3   8    1.10    1.30
   8  -3   8    0.60    1.40
   9  -3   8    8.10    2.40
   9  -3   8    5.60    2.20
   7   2  -8    4.40    1.20
   7   2  -8    5.80    1.70
   7   2  -8    5.50    1.30
   7   2  -8    5.40    2.00
   6   2  -8    3.80    1.30
   6   2  -8    3.80    1.20
   6   2  -8    3.20    1.10
   6   2  -8    3.80    1.80
   5   2  -8  203.58   10.70
   5   2  -8  219.38    8.40
   5   2  -8  198.58    8.70
   5   2  -8  217.98    8.10
   4   2  -8  311.97   10.90
   4   2  -8  307.17   11.20
   4   2  -8  304.57   14.10
   4   2  -8  305.67   11.70
   3   2  -8  123.69    7.60
   3   2  -8  110.79    5.00
   3   2  -8  120.39    4.80
   3   2  -8  115.39    5.20
   2   2  -8   40.60    2.60
   2   2  -8   40.50    2.10
   2   2  -8   43.20    4.40
   1   2  -8  230.68    8.10
   1   2  -8  242.48    9.50
   1   2  -8  230.58   11.70
   1   2  -8  247.58    9.00
  -1  -2   8  232.48   10.70
   0   2  -8 1007.70   37.40
   0  -2   8 1087.19   36.40
  -1   2  -8    9.70    2.50
   1  -2   8   14.10    2.40
  -2   2  -8    2.50    1.50
   2  -2   8    6.00    1.70
  -3   2  -8   37.10    4.10
   3  -2   8   37.70    3.50
  -4   2  -8  137.69    8.40
   4  -2   8  148.59    7.80
   5  -2   8   12.60    2.50
   6  -2   8   42.40    4.00
   6  -2   8   48.00    4.20
   7  -2   8    0.30    1.20
   7  -2   8   -0.10    1.10
   8  -2   8    0.90    1.40
   8  -2   8    1.30    1.30
   9  -2   8    0.40    1.10
   9  -2   8    0.30    1.30
   7   1  -8   -0.30    0.80
   7   1  -8    0.60    1.00
   7   1  -8   -0.20    1.10
   7   1  -8   -0.30    0.90
   6   1  -8  118.99    7.50
   6   1  -8  120.99    5.70
   6   1  -8  121.29    5.50
   6   1  -8  121.69    6.10
   5   1  -8  278.17   10.30
   5   1  -8  275.87   10.60
   5   1  -8  279.87   13.10
   5   1  -8  288.47   11.10
   4   1  -8  383.66   13.60
   4   1  -8  387.86   14.10
   4   1  -8  386.66   13.30
   4   1  -8  377.66   16.40
   3   1  -8    2.40    1.60
   3   1  -8    3.70    0.80
   2   1  -8  412.16   13.80
   2   1  -8  388.26   14.40
   2   1  -8  400.96   16.90
   2   1  -8  399.06   13.50
   1   1  -8  257.87   12.20
   1   1  -8  255.37    9.10
   1   1  -8  251.07   10.00
  -1  -1   8  247.48   11.10
   0   1  -8 1128.19   39.60
   0  -1   8 1109.89   38.20
  -1   1  -8   59.59    5.00
   1  -1   8   60.09    4.40
  -2   1  -8  334.27   14.60
   2  -1   8  324.77   13.60
  -3   1  -8  123.99    7.50
   3  -1   8  117.09    6.60
  -4   1  -8   11.50    2.60
   4  -1   8   11.80    2.20
   5  -1   8  122.59    6.90
   6  -1   8   92.99    5.90
   6  -1   8   94.19    6.20
   7  -1   8   16.10    3.00
   7  -1   8   21.40    3.10
   8  -1   8   45.60    4.10
   8  -1   8   47.80    4.80
   9  -1   8    1.00    1.30
   9  -1   8    0.80    1.20
   7   0  -8   26.20    3.00
   7   0  -8   20.90    2.50
   7   0  -8   23.60    2.50
   7   0  -8   22.60    3.50
   6   0  -8  253.87   12.20
   6   0  -8  256.07   10.10
   6   0  -8  266.67    9.90
   6   0  -8  250.67   10.40
   5   0  -8  210.18    8.60
   5   0  -8  208.48    8.30
   5   0  -8  202.08    8.00
   5   0  -8  206.78   10.60
   4   0  -8    6.70    2.10
   4   0  -8    4.20    1.00
   4   0  -8    7.10    1.40
   3   0  -8  686.23   23.20
   3   0  -8  667.53   22.20
   3   0  -8  674.73   25.60
   2   0  -8  537.75   21.20
   2   0  -8  538.15   18.90
   1   0  -8   10.10    2.50
   1   0  -8   11.60    1.80
  -1   0   8    8.40    2.00
   0   0  -8    8.10    2.10
   0   0   8    3.30    1.30
  -1   0  -8  315.27   13.90
   1   0   8  316.17   12.90
  -2   0  -8    0.40    1.10
   2   0   8    0.20    0.80
  -3   0  -8   14.30    2.80
   3   0   8   18.00    2.60
   4   0   8   84.09    5.30
   5   0   8    0.80    0.90
   6   0   8   53.89    4.70
   6   0   8   57.59    4.30
   7   0   8    0.70    1.00
   7   0   8    0.40    1.20
   8   0   8   13.70    3.00
   8   0   8   14.30    2.50
   9   0   8   33.30    3.30
   9   0   8   25.80    4.40
  10   0   8   32.90    5.10
   7  -1  -8    0.80    1.20
   7  -1  -8    1.00    0.90
   7  -1  -8    0.10    0.80
   7  -1  -8   -1.20    0.80
   6  -1  -8    8.30    2.30
   6  -1  -8    8.50    1.50
   6  -1  -8    5.20    1.40
   6  -1  -8    8.00    1.50
   5  -1  -8   46.10    3.20
   5  -1  -8   37.80    4.10
   5  -1  -8   39.40    2.80
   5  -1  -8   47.80    2.90
   4  -1  -8    1.50    0.90
   4  -1  -8    1.30    1.30
   4  -1  -8   -1.00    0.70
   4  -1  -8   -0.30    0.60
   3  -1  -8  115.99    5.70
   3  -1  -8  116.59    7.20
   2  -1  -8   98.79    5.10
   2  -1  -8   91.49    6.30
  -2   1   8  104.79    6.20
   1  -1  -8    3.40    1.60
   1  -1  -8    6.00    1.40
  -1   1   8    3.30    1.40
   0  -1  -8  169.18    8.80
   0  -1  -8  168.78    7.40
   0   1   8  150.18    7.90
  -1  -1  -8   41.80    4.00
   1   1   8   36.70    3.40
  -2  -1  -8    4.10    1.60
   2   1   8    6.20    1.70
  -3  -1  -8    8.70    2.10
   3   1   8   10.60    1.90
   4   1   8   95.49    5.50
   5   1   8   50.89    4.30
   5   1   8   47.50    3.80
   6   1   8   58.39    4.90
   6   1   8   57.79    4.20
   7   1   8  111.49    7.40
   7   1   8  121.69    6.50
   8   1   8   21.50    2.60
   8   1   8   24.50    4.00
   9   1   8    6.10    2.40
   9   1   8    5.50    1.60
  10   1   8   56.19    4.20
  10   1   8   51.99    5.80
   7  -2  -8    4.40    1.30
   7  -2  -8    2.10    1.10
   7  -2  -8    3.90    1.80
   7  -2  -8    3.70    1.20
   6  -2  -8   41.60    4.30
   6  -2  -8   39.40    3.10
   6  -2  -8   36.80    2.80
   6  -2  -8   42.20    3.00
   5  -2  -8    9.90    1.50
   5  -2  -8    9.90    1.90
   5  -2  -8    8.30    2.30
   5  -2  -8   10.70    1.60
   5  -2  -8    7.90    1.50
   4  -2  -8  138.49    6.60
   4  -2  -8  136.39    6.00
   4  -2  -8  122.79    7.70
   3  -2  -8   89.59    6.20
   3  -2  -8   85.69    4.80
   2  -2  -8    1.50    1.00
   2  -2  -8    1.30    1.30
  -2   2   8    1.80    1.10
   1  -2  -8   11.40    2.60
   1  -2  -8   10.60    1.80
  -1   2   8    8.60    2.00
   0  -2  -8  814.22   29.90
   0  -2  -8  812.92   28.20
   0   2   8  856.41   29.50
  -1  -2  -8  256.67   10.30
  -1  -2  -8  247.78   11.40
   1   2   8  240.28   10.90
  -2  -2  -8    1.60    1.10
   2   2   8    1.00    1.00
  -3  -2  -8  203.78    9.80
   3   2   8  214.58    9.60
   4   2   8  142.79    7.30
   5   2   8    3.20    1.40
   5   2   8    5.80    1.50
   6   2   8  129.29    6.70
   6   2   8  128.89    7.60
   7   2   8  131.99    8.10
   7   2   8  121.99    6.60
   8   2   8    4.40    1.50
   8   2   8    3.00    1.70
   9   2   8   20.60    4.00
   9   2   8   24.10    2.70
  10   2   8   55.29    5.90
   7  -3  -8    2.60    1.70
   7  -3  -8    2.60    1.20
   7  -3  -8    1.30    1.10
   7  -3  -8    5.60    1.40
   6  -3  -8   12.60    2.80
   6  -3  -8   13.50    1.90
   6  -3  -8   12.40    1.70
   6  -3  -8   14.10    2.00
   5  -3  -8    1.50    0.90
   5  -3  -8    2.70    1.60
   5  -3  -8    0.90    1.10
   5  -3  -8    1.90    1.00
   4  -3  -8  261.07   12.50
   4  -3  -8  259.37   10.80
   4  -3  -8  264.37   10.10
   3  -3  -8   39.60    4.10
   3  -3  -8   33.40    2.90
   2  -3  -8   61.39    5.00
   2  -3  -8   51.79    3.70
  -2   3   8   63.59    4.80
   1  -3  -8   25.80    2.50
   1  -3  -8   21.40    3.20
   0  -3  -8  804.92   29.30
   0  -3  -8  763.92   27.70
   0   3   8  858.71   29.30
  -1  -3  -8    1.80    1.10
  -1  -3  -8    1.80    1.30
   1   3   8    7.30    1.80
  -2  -3  -8   25.50    3.00
  -2  -3  -8   20.70    2.70
   2   3   8   24.30    2.80
   3   3   8   97.29    5.80
   4   3   8  243.38   10.70
   4   3   8  248.58   11.10
   5   3   8   -0.40    0.80
   5   3   8    0.10    0.70
   6   3   8    1.40    1.00
   6   3   8    2.10    1.50
   7   3   8  133.39    8.40
   7   3   8  148.29    7.30
   8   3   8   14.50    2.30
   8   3   8   12.20    2.90
   9   3   8  103.99    5.60
   9   3   8   78.29    7.00
   7  -4  -8  152.68    7.10
   7  -4  -8  148.69    7.00
   7  -4  -8  160.48    9.50
   7  -4  -8  153.98    7.00
   6  -4  -8    7.60    2.30
   6  -4  -8    7.60    1.60
   6  -4  -8    9.10    1.70
   6  -4  -8    8.20    1.60
   5  -4  -8    0.50    0.80
   5  -4  -8    0.10    1.00
   5  -4  -8    0.30    1.20
   4  -4  -8  169.28    9.40
   4  -4  -8  158.98    7.90
   4  -4  -8  172.18    7.10
   3  -4  -8   91.79    6.40
   3  -4  -8   88.09    5.30
   2  -4  -8  149.59    7.30
   2  -4  -8  133.99    8.20
  -2   4   8  164.88    8.60
   1  -4  -8   85.59    6.00
   1  -4  -8   91.29    5.00
  -1   4   8   63.59    5.20
   0  -4  -8  248.78   10.70
   0  -4  -8  268.07   12.00
   0   4   8  262.87   11.90
  -1  -4  -8    3.80    1.60
  -1  -4  -8    5.00    1.30
   1   4   8    2.60    1.30
  -2  -4  -8  109.39    5.90
  -2  -4  -8  102.69    6.40
   2   4   8  113.09    6.50
  -3  -4  -8  106.49    5.90
   3   4   8  109.39    6.30
   4   4   8   18.10    2.60
   4   4   8   19.40    3.00
   5   4   8   22.80    3.30
   5   4   8   22.50    2.70
   6   4   8   31.90    3.80
   6   4   8   37.30    3.30
   7   4   8   68.49    4.40
   7   4   8   44.20    4.80
   8   4   8    2.30    1.20
   8   4   8    1.10    1.60
   9   4   8   16.10    2.30
   9   4   8   18.80    3.80
   7  -5  -8   88.89    7.00
   7  -5  -8   91.89    5.10
   7  -5  -8  101.69    5.20
   7  -5  -8   96.09    5.10
   6  -5  -8   71.29    6.00
   6  -5  -8   59.49    3.80
   6  -5  -8   55.39    3.60
   6  -5  -8   59.39    3.60
   5  -5  -8   24.30    4.00
   5  -5  -8   25.50    3.40
   5  -5  -8   27.40    2.30
   4  -5  -8   66.39    5.60
   4  -5  -8   69.09    4.70
   4  -5  -8   66.69    3.70
   3  -5  -8   62.49    4.40
   3  -5  -8   69.59    5.60
   2  -5  -8   85.39    5.30
   2  -5  -8   92.59    6.40
  -2   5   8  105.39    6.70
   1  -5  -8  369.96   15.70
   1  -5  -8  390.66   14.60
  -1   5   8  339.37   15.40
   0  -5  -8   35.00    3.90
   0  -5  -8   39.90    3.30
   0   5   8   33.40    3.60
  -1  -5  -8   32.40    3.00
  -1  -5  -8   29.80    3.50
   1   5   8   35.10    3.70
  -2  -5  -8   18.20    2.50
   2   5   8   20.00    3.00
  -3  -5  -8  101.99    5.70
   3   5   8   91.09    5.90
   3   5   8   97.79    5.90
  -4  -5  -8   28.40    3.00
   4   5   8   35.20    3.40
   4   5   8   34.20    3.50
  -5  -5  -8   -0.30    1.20
   5   5   8    0.10    0.80
   5   5   8   -0.10    0.90
  -6  -5  -8   15.70    2.70
   6   5   8   15.80    2.40
   6   5   8   15.80    3.20
   7   5   8   41.50    4.60
   7   5   8   38.30    3.50
   8   5   8   37.40    4.60
   8   5   8   43.80    3.60
   9   5   8   14.30    3.40
   9   5   8   17.00    2.40
   6  -6  -8    5.20    1.40
   6  -6  -8    4.90    2.30
   5  -6  -8   48.00    3.40
   5  -6  -8   48.90    5.20
   5  -6  -8   51.99    4.40
   4  -6  -8  112.99    5.10
   4  -6  -8  103.39    6.30
   4  -6  -8  104.39    7.40
   3  -6  -8    0.60    1.30
   3  -6  -8    1.20    1.20
  -3   6   8   -0.80    1.70
   2  -6  -8   35.30    4.10
   2  -6  -8   37.30    3.60
  -2   6   8   34.80    4.10
   1  -6  -8    8.20    2.10
   1  -6  -8    5.50    2.00
  -1   6   8    6.70    2.20
   0  -6  -8   16.60    2.50
   0  -6  -8   11.90    2.70
   0   6   8   10.00    2.40
  -1  -6  -8   66.39    6.10
  -1  -6  -8   66.29    4.70
   1   6   8   90.89    6.00
  -2  -6  -8    9.20    2.00
   2   6   8    8.70    2.10
   2   6   8    9.70    2.00
  -3  -6  -8  101.69    5.90
   3   6   8  108.69    6.30
   3   6   8  101.09    6.40
  -4  -6  -8    5.70    1.80
   4   6   8    5.00    1.80
   4   6   8    4.20    1.60
  -5  -6  -8    0.90    1.20
   5   6   8   -0.80    0.70
   5   6   8    0.00    1.00
  -6  -6  -8   38.80    3.70
   6   6   8   41.90    3.70
   6   6   8   36.70    4.10
  -7  -6  -8   11.10    2.30
   7   6   8   11.90    2.10
   7   6   8    9.90    2.60
   8   6   8    6.70    2.40
   8   6   8    8.50    1.80
   6  -7  -8   49.99    3.50
   6  -7  -8   44.70    5.20
   5  -7  -8  292.87   14.50
   4  -7  -8   54.79    5.40
   4  -7  -8   55.09    4.50
   3  -7  -8    1.20    1.50
   3  -7  -8    1.60    1.40
  -3   7   8    1.70    2.70
   2  -7  -8  167.28    9.50
   2  -7  -8  151.88    8.00
  -2   7   8  158.88    9.60
   1  -7  -8  382.96   17.20
   1  -7  -8  365.56   15.80
  -1   7   8  484.05   18.70
   0  -7  -8  155.78    8.10
   0  -7  -8  168.38    9.20
   0   7   8  173.18    9.60
  -1  -7  -8   65.59    4.70
   1   7   8   81.79    6.00
   1   7   8   71.59    4.60
  -2  -7  -8  114.79    6.50
   2   7   8  115.29    7.30
   2   7   8  115.69    6.40
  -3  -7  -8    0.80    1.10
   3   7   8    1.10    1.20
   3   7   8    1.90    1.30
  -4  -7  -8  155.78    8.00
   4   7   8  149.49    8.40
   4   7   8  174.58    8.80
  -5  -7  -8   11.90    2.30
   5   7   8    9.80    2.20
   5   7   8   10.70    2.60
  -6  -7  -8    1.20    1.30
   6   7   8    0.40    1.00
   6   7   8   -0.60    1.20
   7   7   8    0.00    0.90
   7   7   8    1.10    1.60
   8   7   8    8.20    2.80
   8   7   8    7.70    1.80
   5  -8  -8   40.70    5.70
   4  -8  -8    5.80    2.10
   4  -8  -8    4.60    2.30
   3  -8  -8  100.79    7.40
   3  -8  -8  100.09    6.40
   2  -8  -8  111.89    6.80
   2  -8  -8  106.89    7.60
  -2   8   8  116.39    8.30
   1  -8  -8   22.50    3.30
   1  -8  -8   21.80    3.80
  -1   8   8   21.70    3.90
   0  -8  -8  156.08    8.00
   0   8   8  138.29    8.90
  -1  -8  -8   68.89    4.90
   1   8   8   67.79    5.80
  -2  -8  -8   26.50    3.30
   2   8   8   25.70    3.80
  -3  -8  -8    2.40    1.40
   3   8   8    2.20    1.60
   3   8   8    5.30    2.50
  -4  -8  -8   51.69    4.20
   4   8   8   55.69    4.60
   4   8   8   41.20    4.30
  -5  -8  -8  138.89    7.40
   5   8   8  142.29    8.00
   5   8   8  130.69    8.10
  -6  -8  -8    0.60    1.40
   6   8   8    1.70    1.50
   6   8   8    0.20    1.00
   7   8   8    0.90    1.10
   7   8   8    1.80    1.80
   4  -9  -8   95.29    7.70
   3  -9  -8   32.40    4.90
   3  -9  -8   37.10    4.50
   2  -9  -8   64.19    5.90
   2  -9  -8   64.09    5.00
  -2   9   8   55.29    5.90
   1  -9  -8    3.80    1.80
  -1   9   8    3.30    2.00
   0  -9  -8   43.80    4.00
   0   9   8   38.90    4.80
  -1  -9  -8  146.19    8.30
   1   9   8  177.18   10.20
  -2  -9  -8   40.30    3.80
   2   9   8   42.00    4.70
  -3  -9  -8   80.29    5.60
   3   9   8  100.49    7.00
  -4  -9  -8   49.20    4.30
   4   9   8   58.89    5.20
  -5  -9  -8  123.09    7.10
   5   9   8  123.19    7.70
   6   9   8    7.10    2.50
   6   9   8   13.70    2.80
   3 -10  -8  122.79    7.70
   2 -10  -8   72.49    5.70
  -2  10   8   91.69    7.90
   1 -10  -8   85.59    6.20
  -1  10   8  120.09    8.80
   0 -10  -8   17.50    3.10
   0  10   8   20.90    4.10
  -1 -10  -8   28.80    3.90
   1  10   8   21.30    4.10
  -2 -10  -8   21.80    3.40
   2  10   8   23.70    4.00
  -3 -10  -8   89.99    6.20
   3  10   8  111.09    7.70
  -4 -10  -8    8.40    2.20
   4  10   8    9.90    2.70
  -1 -11  -8   -2.00    1.40
   2   7  -9  157.18    8.10
   1   7  -9  101.49    8.70
   1   7  -9  107.39    6.30
   0   7  -9    5.70    2.90
   0   7  -9    6.90    1.90
  -1   7  -9    0.80    2.10
  -2   7  -9  138.79   10.50
  -3   7  -9    1.90    2.20
   4  -7   9    0.00    1.40
   3   6  -9   36.60    5.50
   3   6  -9   44.10    3.70
   3   6  -9   47.70    3.40
   2   6  -9   47.60    3.80
   2   6  -9   46.10    3.30
   2   6  -9   49.30    5.80
   1   6  -9   59.69    4.30
   1   6  -9   60.29    3.70
   1   6  -9   67.79    6.60
   0   6  -9    1.40    1.90
  -1   6  -9    0.20    1.80
  -2   6  -9   86.69    7.90
  -3   6  -9    6.70    3.00
   3  -6   9    6.30    2.20
   4  -6   9   14.50    3.30
   5  -6   9    4.00    2.00
   6  -6   9   41.40    4.80
   4   5  -9   10.90    1.90
   4   5  -9   14.80    3.60
   3   5  -9    3.70    2.20
   3   5  -9    4.20    1.40
   3   5  -9    5.30    1.40
   2   5  -9   14.20    3.60
   2   5  -9   16.40    2.10
   2   5  -9   16.30    2.40
   1   5  -9    7.70    1.80
   1   5  -9    4.40    2.30
   0   5  -9    1.60    1.60
  -1   5  -9   74.29    6.90
  -2   5  -9  123.49    9.20
   2  -5   9  124.89    7.90
  -3   5  -9   29.80    5.00
   3  -5   9   32.50    4.60
   4  -5   9   90.59    6.70
   5  -5   9   26.40    4.10
   6  -5   9   -1.40    1.20
   7  -5   9   37.90    4.60
   5   4  -9   43.50    5.00
   5   4  -9   44.80    3.50
   4   4  -9   20.40    4.00
   4   4  -9   17.40    2.30
   3   4  -9   31.40    3.40
   3   4  -9   30.00    4.70
   3   4  -9   30.30    2.90
   2   4  -9   21.00    3.90
   2   4  -9   15.60    2.20
   1   4  -9   27.70    2.50
   1   4  -9   23.40    4.30
   0   4  -9    2.10    1.80
  -1   4  -9  156.08    9.90
  -2   4  -9   17.80    3.90
   2  -4   9   23.80    3.50
  -3   4  -9   22.10    4.40
   3  -4   9   16.60    3.20
   4  -4   9   99.79    6.80
   5  -4   9  223.88   11.40
   6  -4   9    0.40    1.40
   7  -4   9   61.09    5.60
   7  -4   9   59.59    5.20
   8  -4   9  104.79    7.50
   6   3  -9   60.29    5.50
   6   3  -9   51.89    3.50
   6   3  -9   48.60    3.90
   5   3  -9    0.40    1.50
   5   3  -9    2.20    1.00
   5   3  -9   -0.20    0.80
   4   3  -9    3.20    1.00
   4   3  -9    2.10    1.10
   4   3  -9    3.80    2.10
   3   3  -9   45.60    2.80
   3   3  -9   52.09    5.20
   3   3  -9   46.20    3.30
   2   3  -9   22.50    2.60
   2   3  -9   21.30    3.90
   1   3  -9   98.69    4.90
   1   3  -9   99.59    7.40
   0   3  -9    0.60    1.30
  -1   3  -9  124.39    8.60
   1  -3   9  142.09    7.90
  -2   3  -9   91.09    7.10
   2  -3   9   92.69    6.30
  -3   3  -9  199.08   11.20
   3  -3   9  186.58    9.80
   4  -3   9  165.68    9.00
   5  -3   9   68.59    5.50
   6  -3   9   92.99    6.30
   6  -3   9   94.19    6.60
   7  -3   9  192.88   10.10
   7  -3   9  170.78    9.80
   8  -3   9   50.39    5.10
   8  -3   9   52.19    5.00
   6   2  -9   58.59    3.70
   6   2  -9   64.79    4.20
   6   2  -9   63.59    3.60
   6   2  -9   61.09    5.60
   5   2  -9   16.70    2.10
   5   2  -9   15.80    2.20
   5   2  -9   14.00    3.10
   5   2  -9   18.50    1.90
   4   2  -9   39.10    2.90
   4   2  -9   40.40    3.10
   4   2  -9   41.30    4.60
   4   2  -9   38.10    2.70
   3   2  -9  245.28    9.10
   3   2  -9  234.38   12.30
   2   2  -9   14.70    3.20
   1   2  -9    6.40    2.30
   1   2  -9    4.20    1.50
   1   2  -9    5.80    1.50
   0   2  -9  111.49    7.80
   0  -2   9  114.59    6.90
  -1   2  -9   27.70    4.40
   1  -2   9   39.60    3.80
  -2   2  -9  758.62   29.00
   2  -2   9  745.73   27.60
  -3   2  -9   87.69    6.80
   3  -2   9   98.69    6.30
   4  -2   9    0.20    1.10
   5  -2   9  154.18    8.50
   6  -2   9  226.18   11.20
   6  -2   9  232.88   11.20
   7  -2   9   39.40    4.20
   7  -2   9   46.80    4.50
   8  -2   9    0.90    1.30
   8  -2   9    0.00    1.40
   9  -2   9   30.40    3.80
   9  -2   9   28.30    4.60
   6   1  -9   49.20    3.70
   6   1  -9   49.40    3.30
   6   1  -9   49.20    3.20
   6   1  -9   49.60    5.00
   5   1  -9    0.40    0.80
   5   1  -9    0.70    0.90
   5   1  -9    2.90    1.70
   5   1  -9    1.90    0.90
   4   1  -9    5.80    2.40
   4   1  -9    3.20    1.10
   4   1  -9    6.10    1.20
   4   1  -9    8.40    1.70
   3   1  -9  147.19    5.90
   3   1  -9  147.19    9.00
   2   1  -9   45.20    4.70
   2   1  -9   45.10    3.20
   2   1  -9   44.60    2.40
   1   1  -9  139.59    8.70
   1   1  -9  148.49    6.80
   0   1  -9   70.29    6.10
   0  -1   9   98.59    5.80
  -1   1  -9  174.88    9.80
   1  -1   9  160.68    8.50
  -2   1  -9  169.28    9.70
   2  -1   9  175.18    8.90
  -3   1  -9    3.40    1.80
   3  -1   9    1.70    1.20
   4  -1   9    0.10    0.90
   5  -1   9   32.90    3.50
   6  -1   9   53.39    4.60
   6  -1   9   55.19    4.80
   7  -1   9   48.10    4.70
   7  -1   9   49.60    4.40
   8  -1   9   40.30    4.60
   8  -1   9   43.70    4.30
   9  -1   9   37.40    5.40
   9  -1   9   45.90    4.40
   7   0  -9   92.29    4.80
   7   0  -9   89.79    5.40
   7   0  -9   92.29    5.10
   6   0  -9   50.59    3.30
   6   0  -9   54.19    3.90
   6   0  -9   58.59    5.40
   6   0  -9   59.79    3.70
   5   0  -9   10.00    1.70
   5   0  -9   10.20    1.60
   5   0  -9    8.30    2.60
   5   0  -9    7.60    1.70
   4   0  -9  363.06   12.80
   4   0  -9  346.27   16.00
   4   0  -9  368.96   13.60
   3   0  -9  327.67   15.10
   3   0  -9  317.27   12.60
   3   0  -9  339.77   11.70
   2   0  -9   43.40    4.50
   2   0  -9   43.40    3.30
   1   0  -9   32.50    4.00
   1   0  -9   32.60    2.80
  -1   0   9   29.90    3.30
   0   0  -9  621.14   24.70
   0   0  -9  617.44   22.50
   0   0   9  671.93   24.00
  -1   0  -9    0.90    1.40
   1   0   9    5.70    1.80
  -2   0  -9   94.89    6.80
   2   0   9  104.59    6.10
  -3   0  -9    5.90    2.00
   3   0   9    4.50    1.50
   4   0   9    1.40    1.20
   5   0   9  158.38    8.30
   6   0   9   18.40    3.00
   6   0   9   10.50    2.50
   7   0   9   15.80    2.70
   7   0   9   14.90    3.10
   8   0   9  134.09    7.40
   8   0   9  110.39    7.90
   9   0   9   48.20    4.20
   9   0   9   34.40    5.10
   7  -1  -9   84.09    6.50
   7  -1  -9   87.19    5.20
   7  -1  -9   83.59    4.80
   7  -1  -9   86.49    4.70
   6  -1  -9    2.30    1.70
   6  -1  -9    0.70    1.00
   6  -1  -9    3.90    1.20
   6  -1  -9    3.50    1.20
   5  -1  -9  127.29    8.20
   5  -1  -9  126.79    5.90
   5  -1  -9  121.09    5.60
   5  -1  -9  124.19    6.10
   4  -1  -9  257.17   12.80
   4  -1  -9  249.38   10.20
   4  -1  -9  270.67    9.80
   3  -1  -9   20.70    2.60
   3  -1  -9   21.20    3.50
   2  -1  -9  150.28    7.20
   2  -1  -9  160.48    9.10
   1  -1  -9  188.78   10.10
   1  -1  -9  191.38    8.30
  -1   1   9  177.08    9.30
   0  -1  -9  406.86   17.40
   0  -1  -9  407.06   15.50
   0   1   9  414.86   16.60
  -1  -1  -9  167.98    9.30
   1   1   9  171.58    8.70
  -2  -1  -9   -0.50    1.10
   2   1   9    0.40    1.10
  -3  -1  -9    1.40    1.40
   3   1   9    2.10    1.20
   4   1   9    6.50    1.70
   5   1   9   27.70    3.00
   6   1   9    3.40    1.40
   6   1   9    5.80    2.00
   7   1   9   75.69    5.00
   7   1   9   63.99    5.70
   8   1   9   57.49    5.60
   8   1   9   65.29    4.60
   9   1   9    3.90    1.50
   9   1   9    4.30    2.00
   7  -2  -9    6.30    2.40
   7  -2  -9    6.10    1.50
   7  -2  -9    5.00    1.60
   7  -2  -9    5.80    1.50
   6  -2  -9    6.50    1.60
   6  -2  -9   11.90    1.80
   6  -2  -9   10.00    2.70
   6  -2  -9    8.40    1.60
   5  -2  -9   43.50    3.20
   5  -2  -9   46.30    3.10
   5  -2  -9   49.50    5.00
   5  -2  -9   46.50    3.20
   4  -2  -9    1.60    1.50
   4  -2  -9    4.00    1.50
   3  -2  -9  151.58    7.20
   3  -2  -9  154.48    9.10
   2  -2  -9   43.80    3.40
   2  -2  -9   38.30    4.30
  -2   2   9   43.40    4.70
   1  -2  -9   32.80    3.80
   1  -2  -9   37.10    3.10
  -1   2   9   25.20    3.70
   0  -2  -9  133.99    6.90
   0  -2  -9  134.49    8.30
   0   2   9  169.98    8.40
  -1  -2  -9  206.88   10.40
  -1  -2  -9  198.28    9.00
   1   2   9  196.88    9.80
  -2  -2  -9  198.08   10.30
   2   2   9  218.78   10.10
   3   2   9   16.20    2.60
   4   2   9   13.60    2.40
   5   2   9    5.40    1.70
   5   2   9   10.40    2.40
   6   2   9   20.80    3.40
   6   2   9   24.00    2.90
   7   2   9   29.00    4.30
   7   2   9   41.60    3.70
   8   2   9   30.50    4.70
   8   2   9   24.10    3.00
   9   2   9   67.09    4.70
   9   2   9   58.19    6.00
   7  -3  -9    0.90    1.60
   7  -3  -9    0.30    1.00
   7  -3  -9    1.30    1.00
   7  -3  -9    1.40    1.20
   6  -3  -9   -0.80    1.30
   6  -3  -9   -0.40    0.80
   6  -3  -9    0.30    0.90
   6  -3  -9   -0.40    0.70
   5  -3  -9   46.60    3.30
   5  -3  -9   50.29    3.20
   5  -3  -9   43.80    4.80
   5  -3  -9   46.20    3.80
   4  -3  -9   15.30    2.40
   4  -3  -9   10.20    2.80
   3  -3  -9  180.58    8.30
   3  -3  -9  171.58    9.80
   2  -3  -9  160.98    7.90
   2  -3  -9  159.48    9.30
  -2   3   9  185.58    9.40
   1  -3  -9   47.00    4.60
   1  -3  -9   39.40    3.40
  -1   3   9   41.60    4.10
   0  -3  -9  165.58    9.20
   0  -3  -9  163.18    7.90
   0   3   9  170.58    9.00
  -1  -3  -9  179.98    8.40
  -1  -3  -9  186.88    9.70
   1   3   9  175.18    9.20
  -2  -3  -9  231.48   10.20
  -2  -3  -9  229.18   11.20
   2   3   9  241.48   11.10
   3   3   9  124.69    7.10
   4   3   9  286.27   12.50
   5   3   9   68.59    4.90
   5   3   9   67.99    5.30
   6   3   9   32.90    3.30
   6   3   9   21.70    3.50
   7   3   9  100.59    7.20
   7   3   9   95.49    5.90
   8   3   9   46.60    3.90
   8   3   9   48.20    5.20
   9   3   9   20.50    2.90
   9   3   9   20.40    4.10
   6  -4  -9  145.39    9.10
   6  -4  -9  142.59    6.70
   6  -4  -9  142.79    6.60
   6  -4  -9  141.09    6.80
   5  -4  -9    6.90    1.90
   5  -4  -9    7.70    2.50
   5  -4  -9    7.70    1.60
   4  -4  -9   10.20    1.70
   4  -4  -9    8.20    2.00
   4  -4  -9   11.50    2.90
   3  -4  -9   95.09    6.90
   3  -4  -9   89.19    5.50
   2  -4  -9   56.59    4.20
   2  -4  -9   58.59    5.30
  -2   4   9   52.69    4.90
   1  -4  -9    1.20    1.60
   1  -4  -9    1.30    1.10
  -1   4   9    3.00    1.60
   0  -4  -9  392.06   16.80
   0  -4  -9  379.66   15.30
   0   4   9  407.16   16.80
  -1  -4  -9   81.69    6.00
  -1  -4  -9   86.79    5.20
   1   4   9   76.89    5.70
  -2  -4  -9    9.60    2.10
   2   4   9   10.80    2.30
  -3  -4  -9    3.40    1.50
   3   4   9    2.60    1.30
  -4  -4  -9   83.49    5.40
   4   4   9   91.99    6.00
   4   4   9   86.99    5.80
   5   4   9   10.00    2.50
   5   4   9    5.20    1.60
   6   4   9    0.40    0.90
   6   4   9    0.50    1.20
   7   4   9   16.50    3.40
   7   4   9   17.40    2.80
   8   4   9   17.00    3.60
   8   4   9   27.70    3.10
   9   4   9    1.60    1.10
   9   4   9    1.80    1.70
   6  -5  -9  143.39    6.80
   6  -5  -9  144.09    9.40
   6  -5  -9  147.29    6.90
   6  -5  -9  151.48    6.80
   5  -5  -9   93.99    6.00
   5  -5  -9   91.09    4.80
   5  -5  -9   94.69    7.20
   4  -5  -9   15.50    3.30
   4  -5  -9   20.20    2.20
   4  -5  -9   13.90    2.50
   3  -5  -9    3.00    1.60
   3  -5  -9    0.90    1.40
   2  -5  -9   97.59    5.80
   2  -5  -9  100.99    7.00
  -2   5   9   89.79    6.60
   1  -5  -9   47.60    4.80
   1  -5  -9   55.69    4.30
   0  -5  -9  555.64   22.60
   0  -5  -9  545.65   21.20
   0   5   9  633.44   23.20
  -1  -5  -9   17.50    2.70
  -1  -5  -9   21.70    3.50
   1   5   9   15.00    2.80
  -2  -5  -9    7.30    1.80
   2   5   9    6.70    1.90
  -3  -5  -9   62.99    4.50
   3   5   9   55.39    4.40
   3   5   9   51.49    4.50
  -4  -5  -9  132.69    7.30
   4   5   9  143.79    7.80
   4   5   9  135.99    7.80
  -5  -5  -9    0.90    1.20
   5   5   9   -0.30    0.90
   5   5   9    0.80    1.10
  -6  -5  -9   11.80    2.50
   6   5   9    4.10    1.50
   6   5   9    8.90    2.60
   7   5   9    8.90    2.70
   7   5   9   14.60    2.50
   8   5   9    2.20    1.80
   8   5   9    2.90    1.40
   6  -6  -9  102.59    7.90
   6  -6  -9   95.79    5.20
   5  -6  -9   17.70    2.60
   5  -6  -9   22.10    3.50
   5  -6  -9   21.10    3.90
   4  -6  -9    3.80    2.00
   4  -6  -9    7.30    2.10
   4  -6  -9    7.10    1.40
   3  -6  -9   13.60    2.60
   3  -6  -9   16.60    3.40
   2  -6  -9    3.30    2.00
   2  -6  -9    6.70    1.90
  -2   6   9   10.10    2.70
   1  -6  -9   61.99    4.60
   1  -6  -9   54.29    5.10
  -1   6   9   56.19    5.20
   0  -6  -9    7.70    2.00
   0  -6  -9    6.90    2.30
   0   6   9   16.60    3.30
  -1  -6  -9   21.10    3.10
   1   6   9   21.40    3.40
  -2  -6  -9    2.70    1.50
   2   6   9    4.40    1.80
   2   6   9    4.60    1.60
  -3  -6  -9   63.29    4.70
   3   6   9   72.99    5.50
   3   6   9   60.89    4.80
  -4  -6  -9   14.70    2.60
   4   6   9    9.90    2.30
   4   6   9   10.60    2.30
  -5  -6  -9    6.70    2.00
   5   6   9   10.80    2.30
   5   6   9    7.70    2.30
  -6  -6  -9   70.79    5.30
   6   6   9   81.49    5.50
   6   6   9   77.39    6.20
  -7  -6  -9    7.60    2.10
   7   6   9    3.60    1.80
   7   6   9    4.90    1.70
  -8  -6  -9   30.40    4.00
   8   6   9   39.00    3.60
   8   6   9   26.30    4.50
   5  -7  -9    0.50    1.50
   5  -7  -9    0.00    1.60
   4  -7  -9   40.00    5.00
   4  -7  -9   37.00    3.80
   3  -7  -9   60.19    4.90
   3  -7  -9   62.79    5.80
   2  -7  -9   38.00    3.90
   2  -7  -9   41.20    4.60
  -2   7   9   51.69    5.40
   1  -7  -9   52.29    4.50
   1  -7  -9   57.19    5.30
  -1   7   9   61.39    5.60
   0  -7  -9    2.30    1.50
   0   7   9    5.80    2.10
  -1  -7  -9   64.79    5.00
   1   7   9   71.19    5.80
  -2  -7  -9    1.40    1.30
   2   7   9    0.70    1.20
   2   7   9   -0.10    1.00
  -3  -7  -9   56.39    4.60
   3   7   9   64.09    4.90
   3   7   9   72.39    5.50
  -4  -7  -9   34.70    3.60
   4   7   9   45.50    4.20
   4   7   9   35.30    3.90
  -5  -7  -9   47.50    4.20
   5   7   9   53.29    4.50
   5   7   9   43.40    4.50
  -6  -7  -9   89.09    5.90
   6   7   9   89.09    6.80
   6   7   9   92.19    6.10
  -7  -7  -9    0.10    1.40
   7   7   9    0.10    1.00
   7   7   9    1.00    1.60
   4  -8  -9   92.79    7.50
   4  -8  -9   88.79    6.40
   3  -8  -9  124.19    8.70
   3  -8  -9  121.09    7.40
   2  -8  -9    2.90    1.90
   2  -8  -9    3.70    1.80
  -2   8   9    2.70    2.10
   1  -8  -9   98.59    6.50
  -1   8   9  104.39    7.70
   0  -8  -9   37.00    3.70
   0   8   9   36.50    4.60
  -1  -8  -9    9.30    2.20
   1   8   9    8.40    2.60
  -2  -8  -9   24.30    3.50
   2   8   9   15.10    3.10
  -3  -8  -9   20.70    3.20
   3   8   9   16.60    3.20
  -4  -8  -9   29.10    3.80
   4   8   9   39.80    4.20
   4   8   9   33.40    3.80
  -5  -8  -9  104.29    6.70
   5   8   9  112.79    7.40
   5   8   9  111.39    7.20
  -6  -8  -9   43.40    4.30
   6   8   9   47.00    5.00
   6   8   9   55.89    4.80
   3  -9  -9    1.60    2.00
   3  -9  -9    0.10    1.40
   2  -9  -9   16.50    3.10
  -2   9   9   11.80    3.30
   1  -9  -9   96.99    6.50
   0  -9  -9   24.80    3.60
   0   9   9   38.00    5.40
  -1  -9  -9    0.10    1.40
   1   9   9   -0.60    1.30
  -2  -9  -9   11.80    2.50
   2   9   9   11.20    2.90
  -3  -9  -9    0.20    1.30
   3   9   9    0.40    1.40
  -4  -9  -9    1.20    1.60
   4   9   9    1.40    1.50
  -5  -9  -9    6.40    2.20
   5   9   9    2.10    1.60
   1 -10  -9   89.99    6.70
  -1  10   9  114.79    8.80
   0 -10  -9   12.30    2.80
   0  10   9   13.40    3.50
  -1 -10  -9    1.20    1.50
   1  10   9    5.20    2.30
  -2 -10  -9   79.79    6.00
   2  10   9   89.19    7.20
  -3 -10  -9   50.59    4.60
   3  10   9   57.99    5.60
   1   6 -10   30.30    5.50
   1   6 -10   35.00    3.70
   1   6 -10   34.20    3.30
   0   6 -10   28.20    3.30
   0   6 -10   25.40    5.00
  -1   6 -10    8.50    3.40
  -2   6 -10   98.39    8.80
  -3   6 -10    5.30    3.10
   4  -6  10    0.50    1.60
   3   5 -10   34.20    3.40
   3   5 -10   21.40    4.40
   2   5 -10    1.70    1.90
   2   5 -10    3.60    1.30
   1   5 -10   24.20    4.70
   1   5 -10   23.00    2.90
   0   5 -10    4.20    1.50
   0   5 -10    6.60    3.00
  -1   5 -10  107.59    8.70
  -2   5 -10  113.29    9.10
  -3   5 -10    5.40    2.60
   3  -5  10    2.80    1.90
   4  -5  10    7.10    2.50
   5  -5  10    0.90    1.60
   6  -5  10   32.60    5.00
   4   4 -10   61.69    6.40
   4   4 -10   71.99    4.50
   3   4 -10  126.29    6.30
   3   4 -10  122.69    9.00
   2   4 -10   22.00    4.40
   1   4 -10   27.30    4.90
   0   4 -10    0.40    1.80
   0   4 -10    0.30    0.90
  -1   4 -10    1.50    2.10
  -2   4 -10  123.19    9.20
   2  -4  10  125.79    8.10
  -3   4 -10   10.60    3.30
   3  -4  10   11.30    2.80
   4  -4  10    3.50    1.90
   5  -4  10  194.18   10.80
   6  -4  10  118.09    8.00
   7  -4  10   -0.40    1.10
   7  -4  10    1.20    1.60
   4   3 -10    3.10    2.10
   4   3 -10    4.50    1.50
   3   3 -10    1.00    1.60
   3   3 -10   -0.80    0.80
   2   3 -10   53.89    5.80
   1   3 -10   23.90    4.40
   0   3 -10    8.70    3.00
  -1   3 -10   29.90    5.00
   1  -3  10   24.30    3.80
  -2   3 -10   13.30    3.40
   2  -3  10    9.20    2.40
  -3   3 -10   -1.20    1.30
   3  -3  10    0.80    1.20
   4  -3  10   23.30    3.80
   6  -3  10   27.90    4.20
   7  -3  10    1.90    1.60
   7  -3  10    2.30    1.70
   5   2 -10   74.89    4.60
   5   2 -10   65.29    4.00
   5   2 -10   60.49    5.90
   4   2 -10   25.00    4.20
   4   2 -10   27.50    2.70
   4   2 -10   27.30    2.90
   3   2 -10  103.49    4.90
   3   2 -10   98.19    7.60
   2   2 -10  148.99    9.60
   1   2 -10  107.69    8.00
   0   2 -10   29.40    4.70
  -1   2 -10  658.53   26.90
   1  -2  10  671.53   25.40
  -2   2 -10   13.60    3.30
   2  -2  10    7.70    2.20
  -3   2 -10   21.60    4.20
   3  -2  10   24.50    3.70
   4  -2  10   29.40    3.70
   5  -2  10  231.08   11.60
   6  -2  10    5.00    2.00
   7  -2  10   12.10    2.70
   7  -2  10   12.80    3.10
   8  -2  10   84.09    6.90
   8  -2  10   93.69    6.80
   5   1 -10   36.50    2.60
   5   1 -10   44.50    3.40
   5   1 -10   29.00    4.50
   5   1 -10   36.20    2.80
   4   1 -10    5.60    1.60
   4   1 -10    3.60    2.10
   4   1 -10    6.70    1.40
   4   1 -10    5.00    1.20
   3   1 -10  107.79    6.40
   3   1 -10  133.49    8.70
   2   1 -10  113.49    8.10
   1   1 -10    0.30    1.00
   1   1 -10    2.50    1.80
   0   1 -10   11.10    2.90
   0   1 -10    8.20    1.90
   0  -1  10   13.80    2.60
  -1   1 -10  221.78   12.00
   1  -1  10  214.48   10.50
  -2   1 -10  100.49    7.70
   2  -1  10  115.19    7.00
  -3   1 -10   19.60    3.80
   3  -1  10   16.40    2.90
   4  -1  10  132.89    7.90
   5  -1  10   84.79    6.10
   6  -1  10    3.00    1.60
   6  -1  10    1.50    1.40
   7  -1  10   64.29    5.40
   7  -1  10   66.39    5.80
   8  -1  10   77.59    6.60
   8  -1  10   77.89    6.00
   6   0 -10    2.00    1.30
   6   0 -10    1.60    1.10
   6   0 -10    0.60    1.10
   6   0 -10    1.00    1.70
   5   0 -10   11.80    1.70
   5   0 -10    8.60    2.60
   5   0 -10    6.90    1.70
   5   0 -10    9.90    1.90
   4   0 -10    7.50    1.40
   4   0 -10    6.00    2.40
   4   0 -10    4.80    1.40
   3   0 -10   52.69    5.40
   3   0 -10   51.39    3.00
   2   0 -10    3.00    1.30
   2   0 -10    3.70    2.10
   1   0 -10    6.30    2.40
   1   0 -10    7.10    1.70
   0   0 -10   21.10    2.80
   0   0 -10   19.00    3.60
   0   0  10   22.20    3.50
  -1   0 -10    6.70    2.30
   1   0  10   14.80    2.90
  -2   0 -10   56.39    5.30
   2   0  10   51.39    4.40
  -3   0 -10    4.60    2.00
   3   0  10    4.80    1.60
   4   0  10   31.90    3.60
   5   0  10    1.50    1.20
   6   0  10   25.40    3.80
   6   0  10   20.50    3.20
   7   0  10  101.69    6.70
   7   0  10  102.09    7.40
   8   0  10   13.90    3.30
   8   0  10   22.20    3.50
   6  -1 -10   88.59    5.00
   6  -1 -10   91.99    7.20
   6  -1 -10   93.09    4.90
   6  -1 -10   78.09    5.00
   5  -1 -10  111.09    5.30
   5  -1 -10  111.09    5.50
   5  -1 -10  101.59    5.60
   5  -1 -10  102.79    7.70
   4  -1 -10   12.80    2.00
   4  -1 -10   11.60    1.70
   4  -1 -10   10.70    2.90
   3  -1 -10   36.10    3.20
   3  -1 -10   36.70    5.10
   2  -1 -10   51.79    5.20
   2  -1 -10   47.70    3.70
   1  -1 -10    0.70    1.50
   1  -1 -10    1.00    1.10
  -1   1  10    1.10    1.20
   0  -1 -10  100.99    7.20
   0  -1 -10   97.09    5.70
   0   1  10   99.09    6.60
  -1  -1 -10   14.80    2.60
  -1  -1 -10   14.00    3.20
   1   1  10   13.00    2.70
  -2  -1 -10   55.19    5.20
   2   1  10   51.09    4.50
   3   1  10   60.49    4.80
   4   1  10   29.30    3.40
   5   1  10  109.89    6.70
   6   1  10  137.89    7.70
   6   1  10  129.29    8.20
   7   1  10  121.69    7.20
   7   1  10  127.69    8.30
   8   1  10   85.59    7.00
   8   1  10  101.99    6.40
   6  -2 -10   75.19    4.30
   6  -2 -10   67.89    4.50
   6  -2 -10   75.29    6.50
   6  -2 -10   66.89    4.40
   5  -2 -10   15.70    2.30
   5  -2 -10   17.20    2.30
   5  -2 -10   13.40    3.20
   5  -2 -10   16.40    2.00
   4  -2 -10   14.90    3.20
   4  -2 -10   17.60    2.90
   3  -2 -10    2.30    1.30
   3  -2 -10    2.60    1.90
   2  -2 -10   -0.20    1.00
   2  -2 -10    1.30    1.50
   1  -2 -10    0.00    1.00
   1  -2 -10    1.20    1.40
  -1   2  10    1.50    1.40
   0  -2 -10   92.79    5.50
   0  -2 -10   96.79    7.00
   0   2  10   93.79    6.50
  -1  -2 -10    8.90    2.00
  -1  -2 -10    6.20    2.20
   1   2  10    8.30    2.10
  -2  -2 -10   67.19    4.90
  -2  -2 -10   73.39    5.90
   2   2  10   75.69    5.50
   3   2  10   12.80    2.50
   4   2  10    0.50    1.00
   5   2  10   98.99    6.40
   5   2  10  101.29    6.70
   6   2  10    8.40    2.20
   6   2  10    9.60    2.60
   7   2  10   12.70    2.50
   7   2  10   14.50    3.20
   8   2  10   55.19    5.60
   8   2  10   54.49    4.60
   6  -3 -10   48.30    3.60
   6  -3 -10   43.40    5.10
   6  -3 -10   44.50    3.30
   6  -3 -10   46.90    3.50
   5  -3 -10    1.80    1.90
   5  -3 -10    2.10    1.10
   5  -3 -10    4.90    1.40
   4  -3 -10   62.29    4.50
   4  -3 -10   55.29    5.60
   3  -3 -10    3.70    1.50
   3  -3 -10    4.20    2.10
   2  -3 -10   17.00    2.70
   2  -3 -10   17.60    3.60
   1  -3 -10   28.70    4.30
   1  -3 -10   30.20    3.10
  -1   3  10   28.60    3.60
   0  -3 -10   38.50    3.50
   0  -3 -10   38.50    4.50
   0   3  10   40.00    4.20
  -1  -3 -10   11.00    2.20
  -1  -3 -10   10.50    2.60
   1   3  10   16.00    2.90
  -2  -3 -10   10.00    2.20
  -2  -3 -10   12.30    3.20
   2   3  10    7.20    2.10
  -3  -3 -10  109.09    6.50
   3   3  10  111.79    6.90
   4   3  10   88.09    6.00
   5   3  10   53.39    4.50
   5   3  10   51.29    4.80
   6   3  10   68.79    5.20
   6   3  10   64.19    5.60
   7   3  10   10.20    2.30
   7   3  10    7.10    2.40
   8   3  10    1.40    1.70
   8   3  10    1.10    1.20
   5  -4 -10   98.19    5.30
   5  -4 -10   98.29    7.70
   5  -4 -10  104.09    6.30
   4  -4 -10   49.50    4.10
   4  -4 -10   46.40    5.10
   4  -4 -10   36.90    3.10
   3  -4 -10   17.40    3.50
   3  -4 -10   19.80    2.90
   2  -4 -10   19.70    3.70
   2  -4 -10   15.90    2.70
   1  -4 -10  142.09    7.60
   1  -4 -10  149.69    9.10
  -1   4  10  146.09    8.80
   0  -4 -10   34.40    4.30
   0  -4 -10   30.80    3.20
   0   4  10   36.60    4.10
  -1  -4 -10   70.89    5.00
  -1  -4 -10   73.49    5.90
   1   4  10   64.19    5.40
  -2  -4 -10  164.78    8.70
   2   4  10  199.08   10.00
  -3  -4 -10   71.69    5.10
   3   4  10   63.29    5.20
  -4  -4 -10   -1.20    1.00
   4   4  10    1.20    1.10
   4   4  10    0.40    1.10
   5   4  10   27.80    3.40
   5   4  10   33.00    4.50
   6   4  10  188.28    9.50
   6   4  10  175.28   10.30
   7   4  10   -0.10    1.00
   7   4  10    0.50    1.40
   8   4  10    1.20    1.60
   8   4  10    1.40    1.20
   5  -5 -10  225.18    9.50
   5  -5 -10  238.98   12.80
   5  -5 -10  221.18   10.70
   4  -5 -10   91.49    7.30
   4  -5 -10   80.09    4.70
   4  -5 -10   92.09    5.90
   3  -5 -10    2.00    1.60
   3  -5 -10    1.40    1.60
   2  -5 -10   31.30    3.90
   2  -5 -10   37.70    5.10
   1  -5 -10  166.68    9.90
   1  -5 -10  162.98    8.40
  -1   5  10  168.28    9.80
   0  -5 -10    1.70    1.50
   0  -5 -10    1.70    1.60
   0   5  10    3.00    1.80
  -1  -5 -10  222.28   10.60
   1   5  10  241.08   11.90
  -2  -5 -10   34.90    3.60
   2   5  10   25.90    3.90
  -3  -5 -10    7.40    2.10
   3   5  10    3.40    1.60
   3   5  10    8.90    2.40
  -4  -5 -10  176.98    9.00
   4   5  10  162.28    9.30
   4   5  10  177.48    9.40
  -5  -5 -10   82.59    5.80
   5   5  10   85.09    6.30
   5   5  10   79.59    5.80
  -6  -5 -10    3.60    1.70
   6   5  10    2.50    1.40
   6   5  10    2.60    1.70
  -7  -5 -10   78.99    6.10
   7   5  10   95.89    7.40
   7   5  10   90.69    6.10
   8   5  10   35.80    5.40
   5  -6 -10   40.10    4.70
   4  -6 -10   30.60    4.00
   4  -6 -10   25.00    4.40
   4  -6 -10   29.30    2.90
   3  -6 -10    4.70    1.70
   3  -6 -10    2.50    2.00
   2  -6 -10   14.70    3.30
   2  -6 -10   14.40    2.70
  -2   6  10   18.90    4.10
   1  -6 -10   -0.40    1.20
   1  -6 -10    3.30    2.00
  -1   6  10    2.00    1.60
   0  -6 -10   48.60    5.10
   0  -6 -10   45.90    4.20
   0   6  10   53.29    5.10
  -1  -6 -10    2.20    1.60
   1   6  10   -0.20    1.20
  -2  -6 -10   16.40    2.80
   2   6  10   13.40    3.00
   2   6  10   11.40    2.40
   3   6  10    3.60    1.70
   3   6  10    3.70    1.60
  -4  -6 -10   48.40    4.30
   4   6  10   42.40    4.30
   4   6  10   48.90    4.60
  -5  -6 -10   20.30    3.20
   5   6  10   13.20    2.70
   5   6  10   18.20    3.40
  -6  -6 -10    6.30    2.10
   6   6  10    5.40    1.90
   6   6  10    7.70    2.60
  -7  -6 -10   40.80    4.70
   7   6  10   34.20    3.80
   7   6  10   28.30    4.60
   4  -7 -10    0.10    1.80
   4  -7 -10    1.50    1.40
   3  -7 -10   -1.00    1.10
   3  -7 -10   -2.10    1.20
   2  -7 -10   55.49    5.80
   2  -7 -10   58.59    4.90
  -2   7  10   68.39    6.50
   1  -7 -10    1.60    1.70
   1  -7 -10   -0.20    1.10
  -1   7  10    2.00    1.60
   0  -7 -10   37.20    3.90
   0   7  10   49.00    5.10
  -1  -7 -10   27.40    3.80
   1   7  10   26.90    4.30
  -2  -7 -10   33.20    4.10
   2   7  10   27.70    3.30
   2   7  10   34.50    4.10
  -3  -7 -10   -0.10    1.30
   3   7  10    0.40    1.10
   3   7  10    1.10    1.30
  -4  -7 -10   14.40    2.90
   4   7  10   16.70    3.20
   4   7  10   13.10    2.90
  -5  -7 -10    3.00    1.90
   5   7  10    2.70    1.80
   5   7  10   -0.30    1.00
  -6  -7 -10    9.40    2.50
   6   7  10    7.50    2.50
   6   7  10    6.00    2.00
   3  -8 -10   30.50    4.10
   3  -8 -10   27.50    4.80
   2  -8 -10   65.59    6.50
   2  -8 -10   57.79    5.10
   1  -8 -10    7.10    2.20
  -1   8  10    4.80    2.50
   0  -8 -10   38.40    4.50
   0   8  10   34.60    5.10
  -1  -8 -10   62.29    5.30
   1   8  10   80.49    6.60
  -2  -8 -10    9.20    2.50
   2   8  10    7.00    2.30
  -3  -8 -10   87.99    6.30
   3   8  10  106.49    7.40
  -4  -8 -10   65.59    5.40
   4   8  10   73.49    5.90
   4   8  10   59.29    5.80
  -5  -8 -10   -1.00    1.40
   5   8  10    0.10    1.20
   5   8  10    0.10    1.30
   1  -9 -10    0.70    1.70
  -1   9  10    1.00    1.90
   0  -9 -10   57.79    5.10
   0   9  10   57.49    6.10
  -1  -9 -10    0.90    1.60
   1   9  10    0.70    1.50
  -2  -9 -10    5.20    2.00
   2   9  10    5.30    2.30
  -3  -9 -10   48.20    4.70
   3   9  10   47.80    5.20
  -4  -9 -10    4.20    2.10
   0   5 -11   -0.40    1.70
  -1   5 -11   27.30    5.50
  -2   5 -11   12.10    3.90
  -3   5 -11  127.09   10.10
   3  -5  11  106.39   11.60
   2   4 -11    7.80    3.00
   1   4 -11    0.20    1.80
   0   4 -11    8.70    3.40
  -1   4 -11    0.10    1.90
  -2   4 -11   27.40    5.10
  -3   4 -11    5.10    2.90
   3  -4  11    2.80    1.90
   4  -4  11   13.70    3.20
   5  -4  11   13.30    3.30
   3   3 -11   16.60    3.90
   3   3 -11   20.20    2.70
   2   3 -11   17.70    4.10
   1   3 -11   -0.50    1.60
   0   3 -11   32.70    5.50
  -1   3 -11   47.60    5.90
  -2   3 -11   47.30    6.70
   2  -3  11   48.20    4.90
  -3   3 -11   50.59    6.10
   3  -3  11   54.09    5.20
   4  -3  11   16.90    3.50
   5  -3  11    2.60    1.80
   6  -3  11   85.79    6.90
   4   2 -11  198.68    9.00
   4   2 -11  195.38    8.30
   3   2 -11   49.99    5.80
   3   2 -11   55.99    3.40
   2   2 -11   82.49    7.30
   1   2 -11   77.69    7.00
   0   2 -11  102.89    8.30
  -1   2 -11    0.10    1.70
   1  -2  11    0.00    1.10
  -2   2 -11  258.67   14.00
   2  -2  11  242.88   12.30
  -3   2 -11   39.20    7.20
   3  -2  11   26.80    4.10
   4  -2  11   -0.80    1.20
   5  -2  11   98.29    7.20
   6  -2  11  123.69    8.20
   7  -2  11   47.50    5.10
   7  -2  11   49.70    5.20
   4   1 -11   68.09    4.50
   4   1 -11   70.19    4.10
   4   1 -11   64.79    6.40
   3   1 -11    9.30    3.00
   2   1 -11   28.80    4.70
   1   1 -11  150.68   10.00
   0   1 -11   92.09    5.60
   0   1 -11   87.89    7.40
  -1   1 -11   16.40    3.80
   1  -1  11   25.10    3.70
  -2   1 -11   86.49    7.20
   2  -1  11   66.89    5.50
   3  -1  11  160.58    9.10
   4  -1  11    1.50    1.40
   5  -1  11  150.38    8.90
   6  -1  11   14.30    3.00
   6  -1  11   15.20    3.20
   7  -1  11    0.30    1.50
   7  -1  11    0.40    1.40
   4   0 -11   22.30    3.00
   4   0 -11   18.80    4.00
   4   0 -11   22.50    2.60
   4   0 -11   26.40    2.50
   3   0 -11   28.90    4.80
   3   0 -11   30.70    2.80
   2   0 -11   61.39    6.10
   1   0 -11   97.09    5.80
   1   0 -11   94.99    7.60
   0   0 -11   22.40    3.00
   0   0 -11   20.10    4.00
   0   0  11   21.30    3.50
  -1   0 -11   55.29    5.60
  -1   0 -11   57.39    4.40
   1   0  11   65.29    5.50
  -2   0 -11    0.50    1.80
   2   0  11   -0.30    1.00
   3   0  11    2.90    1.70
   4   0  11  141.59    8.20
   5   0  11   18.30    3.10
   6   0  11   11.60    2.60
   6   0  11   11.00    2.80
   7   0  11    1.80    1.50
   7   0  11    0.10    1.30
   5  -1 -11  102.59    5.20
   5  -1 -11   97.29    5.70
   4  -1 -11    0.80    1.10
   4  -1 -11    0.30    0.90
   4  -1 -11   -0.70    1.40
   3  -1 -11   24.60    4.40
   2  -1 -11   42.00    5.10
   2  -1 -11   43.90    3.80
   1  -1 -11   57.39    5.80
   1  -1 -11   64.09    4.50
   0  -1 -11    7.80    2.80
   0  -1 -11   11.80    2.40
   0   1  11    9.80    2.60
  -1  -1 -11  180.48    8.90
  -1  -1 -11  185.38   10.80
   1   1  11  178.08    9.80
  -2  -1 -11  192.28   11.40
   2   1  11  226.28   11.00
   3   1  11    0.40    1.30
   4   1  11   31.50    4.30
   5   1  11   41.30    4.30
   6   1  11   17.20    3.10
   6   1  11   13.50    3.00
   7   1  11   52.59    4.80
   7   1  11   44.60    5.10
   5  -2 -11   36.00    3.20
   5  -2 -11   31.30    5.10
   5  -2 -11   36.50    3.60
   5  -2 -11   36.40    3.50
   4  -2 -11    0.70    1.10
   4  -2 -11    1.70    1.10
   4  -2 -11    1.20    1.80
   3  -2 -11    4.40    1.60
   3  -2 -11    6.20    2.70
   2  -2 -11    4.20    1.70
   2  -2 -11    4.80    2.30
   1  -2 -11   -1.20    1.30
   1  -2 -11   -1.20    0.90
   0  -2 -11   70.79    6.40
   0  -2 -11   74.69    5.20
   0   2  11   83.89    6.40
  -1  -2 -11  227.88   12.30
  -1  -2 -11  227.78   10.60
   1   2  11  233.88   11.70
  -2  -2 -11   40.70    7.80
  -2  -2 -11   34.50    3.50
   2   2  11   31.00    3.90
   3   2  11   64.99    5.40
   4   2  11  213.88   10.80
   5   2  11   55.99    4.90
   5   2  11   52.29    4.90
   6   2  11    1.20    1.30
   6   2  11    0.50    1.50
   7   2  11   75.49    5.80
   7   2  11   78.69    6.60
   5  -3 -11   22.40    2.50
   4  -3 -11    2.30    1.50
   4  -3 -11    0.30    0.90
   4  -3 -11    1.10    1.90
   3  -3 -11    7.40    2.10
   3  -3 -11    7.30    2.80
   2  -3 -11    6.80    2.50
   2  -3 -11    5.40    1.80
   1  -3 -11  163.58   10.20
   1  -3 -11  153.48    8.20
  -1   3  11  175.68   10.00
   0  -3 -11   78.39    5.50
   0  -3 -11   91.49    7.20
   0   3  11   93.29    6.80
  -1  -3 -11    5.30    1.80
  -1  -3 -11    6.40    2.50
   1   3  11    6.80    2.30
  -2  -3 -11   33.40    4.00
   2   3  11   39.30    4.30
  -3  -3 -11   55.79    4.60
   3   3  11   46.10    4.60
  -4  -3 -11  240.08   11.50
   4   3  11  255.97   12.20
   5   3  11   26.20    4.00
   5   3  11   38.60    4.10
   6   3  11   55.59    5.40
   6   3  11   66.79    5.30
   7   3  11   72.59    5.60
   7   3  11   69.09    6.40
   4  -4 -11    1.20    2.00
   4  -4 -11    0.20    1.30
   4  -4 -11    1.10    1.10
   3  -4 -11    1.30    1.90
   3  -4 -11    1.60    1.30
   2  -4 -11   41.10    4.00
   2  -4 -11   42.00    5.00
   1  -4 -11   15.40    3.40
   1  -4 -11   16.00    2.90
  -1   4  11   16.50    3.40
   0  -4 -11   39.60    4.80
   0  -4 -11   37.00    3.70
   0   4  11   29.50    4.40
  -1  -4 -11   19.60    3.10
  -1  -4 -11   18.00    4.20
   1   4  11   21.70    3.70
  -2  -4 -11   80.89    5.80
   2   4  11   92.09    6.70
  -3  -4 -11   40.60    4.20
   3   4  11   40.90    4.40
  -4  -4 -11   52.49    4.60
   4   4  11   54.09    4.90
   4   4  11   49.20    4.80
  -5  -4 -11   42.60    4.30
   5   4  11   41.00    4.60
   5   4  11   50.69    4.70
   6   4  11   16.70    3.10
   6   4  11   19.70    3.70
   7   4  11   47.10    4.50
   7   4  11   42.30    5.80
   4  -5 -11  104.49    6.60
   4  -5 -11  100.89    5.50
   4  -5 -11  110.09    8.40
   3  -5 -11   44.70    4.20
   3  -5 -11   44.90    5.40
   2  -5 -11   44.90    5.40
   2  -5 -11   41.90    4.10
   1  -5 -11   12.90    3.30
   1  -5 -11    9.50    2.40
  -1   5  11   16.20    3.50
   0  -5 -11   86.89    7.10
   0  -5 -11   89.79    6.10
   0   5  11   82.09    6.70
  -1  -5 -11    8.10    2.20
   1   5  11    8.60    2.50
  -2  -5 -11   83.99    5.90
   2   5  11   89.49    6.70
  -3  -5 -11   86.39    6.10
   3   5  11   86.59    6.50
  -4  -5 -11   65.09    5.20
   4   5  11   63.19    5.50
   4   5  11   69.59    5.70
  -5  -5 -11    3.90    2.00
   5   5  11    4.30    2.00
   5   5  11    6.50    2.10
  -6  -5 -11   62.09    5.30
   6   5  11   58.49    5.10
   6   5  11   63.89    5.90
  -7  -5 -11   39.50    5.00
   7   5  11   37.80    5.50
   7   5  11   54.59    4.80
   3  -6 -11   95.89    6.50
   3  -6 -11   94.79    7.80
   2  -6 -11    2.30    2.10
   2  -6 -11    5.80    2.10
   1  -6 -11   17.80    4.00
   1  -6 -11   17.10    3.10
  -1   6  11   19.60    3.90
   0  -6 -11   22.70    3.40
   0   6  11   21.30    3.90
  -1  -6 -11   22.40    3.50
   1   6  11   26.60    4.30
  -2  -6 -11   83.89    6.00
   2   6  11   85.99    6.80
  -3  -6 -11  119.19    7.30
   3   6  11  110.79    7.30
   3   6  11  128.19    8.20
  -4  -6 -11   -0.60    1.40
   4   6  11    0.90    1.50
   4   6  11    0.70    1.30
  -5  -6 -11  162.88    9.10
   5   6  11  163.58    9.40
   5   6  11  156.38    9.60
  -6  -6 -11  164.18    9.30
   6   6  11  174.38    9.60
   6   6  11  171.88   10.40
   2  -7 -11    7.50    2.30
   2  -7 -11    2.90    2.30
   1  -7 -11   12.50    2.70
  -1   7  11   11.50    3.10
   0  -7 -11    5.10    2.10
   0   7  11    7.40    2.60
  -1  -7 -11   87.09    6.50
   1   7  11  115.29    7.90
  -2  -7 -11   35.80    4.50
   2   7  11   38.00    5.30
   2   7  11   48.50    5.00
  -3  -7 -11   12.10    3.00
   3   7  11   11.70    2.70
   3   7  11   14.30    3.00
  -4  -7 -11   14.50    3.20
   4   7  11    8.80    2.50
   4   7  11   14.40    3.10
  -5  -7 -11  115.49    7.70
   5   7  11  140.79    8.30
   5   7  11  112.89    8.10
   1  -8 -11    3.30    2.00
  -1   8  11    3.50    2.20
   0  -8 -11   24.30    3.80
   0   8  11   37.20    5.40
  -1  -8 -11   53.79    5.00
   1   8  11   49.99    5.50
  -2  -8 -11    4.30    2.10
   2   8  11    6.50    2.40
  -3  -8 -11   16.80    3.30
   3   8  11   24.40    4.00
  -4  -8 -11   38.50    4.90
   0   3 -12    6.60    3.00
  -1   3 -12   43.80    6.60
  -2   3 -12    0.40    2.10
   3  -3  12   22.80    4.20
   4  -3  12    5.10    2.20
   2   2 -12   14.30    3.90
   1   2 -12   -1.70    1.50
   0   2 -12   24.80    5.00
  -1   2 -12  106.39    8.90
  -2   2 -12   38.70    6.20
   2  -2  12   37.10    4.40
   3  -2  12   16.50    3.40
   4  -2  12    1.40    1.80
   5  -2  12   68.09    6.20
   2   1 -12   51.29    6.00
   1   1 -12    2.10    2.30
   0   1 -12  267.37   12.20
   0   1 -12  282.57   15.20
  -1   1 -12  209.98   10.20
  -1   1 -12  207.98   12.60
  -2   1 -12   87.19    7.90
   2  -1  12  110.09    7.50
   3  -1  12  191.38   10.40
   4  -1  12  290.07   13.90
   5  -1  12   31.90    4.70
   6  -1  12   15.70    3.40
   3   0 -12   23.80    4.70
   2   0 -12   14.10    3.60
   1   0 -12   31.90    5.20
   0   0 -12  153.98    8.30
   0   0 -12  157.08   10.50
  -1   0 -12    9.70    2.30
  -1   0 -12   13.10    3.70
   1   0  12    9.60    2.80
  -2   0 -12   28.20    5.00
   2   0  12   37.30    5.00
   3   0  12    6.40    2.30
   4   0  12   79.09    6.30
   5   0  12   29.40    4.20
   6   0  12   43.50    4.80
   6   0  12   50.79    5.00
   3  -1 -12   -0.30    0.80
   3  -1 -12    0.90    2.00
   2  -1 -12    0.90    1.90
   1  -1 -12   56.89    6.20
   1  -1 -12   60.79    4.80
   0  -1 -12   19.20    3.00
   0  -1 -12   18.30    4.00
  -1  -1 -12   -0.10    1.20
  -1  -1 -12    0.00    1.60
   1   1  12    0.20    1.30
  -2  -1 -12   84.09    5.90
   2   1  12   90.99    6.80
   3   1  12   33.10    4.10
   4   1  12    2.70    1.60
   5   1  12    0.80    1.40
   6   1  12   26.00    4.40
   6   1  12   29.10    4.30
   3  -2 -12    9.10    3.10
   2  -2 -12    5.50    2.60
   2  -2 -12    4.70    1.90
   1  -2 -12   28.70    3.70
   1  -2 -12   38.20    5.80
   0  -2 -12   25.10    4.50
   0  -2 -12   25.60    3.60
   0   2  12   31.00    4.80
  -1  -2 -12    2.20    2.00
  -1  -2 -12    1.50    1.60
   1   2  12    2.20    1.70
  -2  -2 -12  176.98    9.30
   2   2  12  184.58   10.30
  -3  -2 -12   62.99    5.30
   3   2  12   53.79    5.20
   4   2  12    5.60    2.10
   5   2  12   60.49    5.40
   6   2  12  125.59    8.00
   6   2  12  121.59    8.40
   3  -3 -12    9.20    3.30
   3  -3 -12    5.90    2.00
   2  -3 -12   23.20    4.60
   2  -3 -12   19.70    3.20
   1  -3 -12   39.30    5.90
   1  -3 -12   35.90    4.30
   0  -3 -12   48.90    5.70
   0  -3 -12   47.60    4.50
   0   3  12   66.29    5.90
  -1  -3 -12   36.70    3.90
  -1  -3 -12   35.30    6.00
   1   3  12   39.70    4.70
  -2  -3 -12  115.69    7.20
   2   3  12  126.59    8.30
  -3  -3 -12   10.60    2.60
   3   3  12   10.80    2.90
  -4  -3 -12   12.40    2.90
   4   3  12    8.30    2.50
   5   3  12  112.69    7.90
   5   3  12  116.39    7.70
   6   3  12   44.00    5.00
   6   3  12   40.60    4.60
   3  -4 -12   12.70    2.80
   3  -4 -12   14.70    3.70
   2  -4 -12   15.20    2.90
   2  -4 -12   18.60    4.20
   1  -4 -12   28.20    4.90
   1  -4 -12   31.40    4.10
   0  -4 -12   32.00    5.00
   0  -4 -12   40.40    4.00
   0   4  12   32.90    4.80
  -1  -4 -12  161.28    8.80
   1   4  12  151.48    9.60
  -2  -4 -12   40.80    4.10
   2   4  12   41.80    4.80
  -3  -4 -12    2.10    1.70
   3   4  12    4.10    2.00
  -4  -4 -12   10.00    2.80
   4   4  12   12.70    3.00
   4   4  12   18.40    3.50
  -5  -4 -12  144.49    8.60
   5   4  12  146.19    9.00
   5   4  12  138.09    9.10
  -6  -4 -12   35.30    4.80
   6   4  12   32.50    5.00
   6   4  12   38.80    4.50
   2  -5 -12   28.90    5.20
   2  -5 -12   25.10    3.70
   1  -5 -12    5.70    2.50
   1  -5 -12    4.30    1.90
   0  -5 -12   -0.10    1.30
   0   5  12    1.70    1.40
  -1  -5 -12  134.69    8.20
   1   5  12  151.08    9.50
  -2  -5 -12    5.70    2.20
   2   5  12    3.70    2.00
  -3  -5 -12    7.70    2.50
   3   5  12    4.90    2.10
  -4  -5 -12   51.09    4.90
   4   5  12   46.90    4.80
   4   5  12   51.99    5.20
  -5  -5 -12  100.89    7.30
   5   5  12  122.49    8.00
   5   5  12  101.19    7.70
   1  -6 -12    1.20    1.70
   1  -6 -12    4.70    2.60
   0  -6 -12   -1.00    1.30
   0   6  12    1.40    1.70
  -1  -6 -12  106.39    7.30
   1   6  12  120.19    8.50
  -2  -6 -12   21.00    3.60
   2   6  12   22.90    4.30
  -3  -6 -12    3.50    1.90
   3   6  12    7.10    2.20
   3   6  12    8.70    2.60
  -4  -6 -12   56.29    5.20
   4   6  12   51.79    5.30
   4   6  12   53.99    5.30
   0  -7 -12   40.70    5.10
   0   7  12   51.89    5.70
  -1  -7 -12    5.20    2.50
   1   7  12    7.70    2.70
  -2  -7 -12    0.50    1.60
   2   7  12    1.60    1.70
  -3  -7 -12    1.10    1.80
   3   7  12    0.00    1.40
  -1   1 -13   20.20    4.70
  -1   1 -13   17.00    3.10
  -2   1 -13  121.89    7.70
   2  -1  13  128.59    8.80
   3  -1  13   53.49    5.60
   0   0 -13   -0.20    2.00
   0   0 -13    0.50    1.50
  -1   0 -13   71.69    5.50
  -1   0 -13   76.79    7.70
  -2   0 -13  251.07   12.70
   2   0  13  301.47   14.40
   3   0  13   63.69    6.00
   4   0  13   28.90    4.70
   1  -1 -13    2.40    2.00
   1  -1 -13    1.90    2.30
   0  -1 -13  142.09   10.30
   0  -1 -13  148.19    8.40
  -1  -1 -13  101.19    8.60
  -1  -1 -13  103.49    6.90
   1   1  13   94.19    7.50
  -2  -1 -13   65.09    5.50
   2   1  13   75.89    6.50
  -3  -1 -13   44.60    4.80
   3   1  13   59.29    5.60
   4   1  13   16.30    3.40
   1  -2 -13   -1.90    1.30
   1  -2 -13    0.10    1.80
   0  -2 -13   33.00    5.50
   0  -2 -13   34.10    4.30
  -1  -2 -13   61.69    5.20
   1   2  13   62.29    6.10
  -2  -2 -13    0.00    1.40
   2   2  13   -0.10    1.40
  -3  -2 -13   42.60    4.50
   3   2  13   30.50    4.60
  -4  -2 -13  114.29    7.80
   4   2  13  129.89    8.60
   1  -3 -13    7.50    2.40
   1  -3 -13   11.90    3.70
   0  -3 -13    6.00    2.40
   0  -3 -13   10.60    3.30
  -1  -3 -13    8.40    2.40
   1   3  13    9.30    2.80
  -2  -3 -13   39.40    4.90
   2   3  13   39.90    4.90
  -3  -3 -13   97.69    6.90
   3   3  13  101.09    7.70
  -4  -3 -13   84.99    6.60
   4   3  13  104.39    7.60
   0  -4 -13   30.40    4.20
   0   4  13   36.70    7.80
  -1  -4 -13    5.70    2.30
   1   4  13    8.70    2.90
  -2  -4 -13  184.38   10.30
   2   4  13  206.98   11.70
  -3  -4 -13   11.20    2.90
   3   4  13    9.40    2.90
  -4  -4 -13   -1.00    1.70
   4   4  13   -0.70    1.20
  -1  -5 -13    1.70    2.00
   1   5  13   11.20    3.40
  -2  -5 -13   46.30    4.90
   2   5  13   41.00    5.00
  -3  -5 -13   17.20    3.50
;
_shelx_hkl_checksum              60362
loop_
_space_group_symop_operation_xyz
'x, y, z'
'-x, -y, -z'
loop_
_atom_site_label
_atom_site_type_symbol
_atom_site_fract_x
_atom_site_fract_y
_atom_site_fract_z
_atom_site_U_iso_or_equiv
_atom_site_adp_type
_atom_site_occupancy
_atom_site_site_symmetry_order
_atom_site_calc_flag
_atom_site_refinement_flags_posn
_atom_site_refinement_flags_adp
P1 P 0.84632(3) 0.43399(3) 0.20887(3) 0.01630(10) Uani 1 1 d . .
O1 O 0.93871(11) 0.33718(10) 0.12109(9) 0.0228(2) Uani 1 1 d . .
N1 N 0.88471(12) 0.60873(12) 0.13872(11) 0.0196(2) Uani 1 1 d . .
H1 H 0.9701 0.6256 0.0752 0.023 Uiso 1 1 calc R U
C11 C 0.79748(14) 0.73243(14) 0.16863(13) 0.0187(2) Uani 1 1 d . .
N12 N 0.69388(14) 0.71628(13) 0.28437(12) 0.0255(3) Uani 1 1 d . .
C13 C 0.60687(18) 0.83462(17) 0.30995(16) 0.0322(3) Uani 1 1 d . .
H13 H 0.5303 0.8244 0.3912 0.039 Uiso 1 1 calc R U
C14 C 0.62112(19) 0.96929(17) 0.22663(18) 0.0343(3) Uani 1 1 d . .
H14 H 0.5560 1.0493 0.2492 0.041 Uiso 1 1 calc R U
C15 C 0.73385(19) 0.98489(17) 0.10827(17) 0.0328(3) Uani 1 1 d . .
H15 H 0.7489 1.0770 0.0491 0.039 Uiso 1 1 calc R U
C16 C 0.82342(16) 0.86564(15) 0.07764(14) 0.0256(3) Uani 1 1 d . .
H16 H 0.9007 0.8733 -0.0029 0.031 Uiso 1 1 calc R U
N2 N 0.89587(12) 0.42350(12) 0.36222(11) 0.0199(2) Uani 1 1 d . .
H2 H 0.9389 0.5033 0.3814 0.024 Uiso 1 1 calc R U
C21 C 0.87584(13) 0.29975(14) 0.46430(13) 0.0197(3) Uani 1 1 d . .
N22 N 0.90419(14) 0.32298(14) 0.58583(12) 0.0264(3) Uani 1 1 d . .
C23 C 0.87739(18) 0.20886(19) 0.68869(16) 0.0341(4) Uani 1 1 d . .
H23 H 0.8956 0.2246 0.7761 0.041 Uiso 1 1 calc R U
C24 C 0.82507(19) 0.07018(19) 0.67554(17) 0.0365(4) Uani 1 1 d . .
H24 H 0.8056 -0.0065 0.7518 0.044 Uiso 1 1 calc R U
C25 C 0.80182(18) 0.04645(17) 0.54776(17) 0.0330(3) Uani 1 1 d . .
H25 H 0.7684 -0.0482 0.5343 0.040 Uiso 1 1 calc R U
C26 C 0.82752(17) 0.16140(16) 0.43990(15) 0.0265(3) Uani 1 1 d . .
H26 H 0.8129 0.1472 0.3512 0.032 Uiso 1 1 calc R U
C1 C 0.63530(14) 0.39255(14) 0.22783(13) 0.0190(2) Uani 1 1 d . .
C2 C 0.57814(17) 0.35664(16) 0.11475(15) 0.0271(3) Uani 1 1 d . .
H2A H 0.6504 0.3523 0.0329 0.032 Uiso 1 1 calc R U
C3 C 0.4151(2) 0.32712(18) 0.12151(19) 0.0378(4) Uani 1 1 d . .
H3 H 0.3761 0.3028 0.0441 0.045 Uiso 1 1 calc R U
C4 C 0.30973(17) 0.33304(18) 0.2403(2) 0.0389(4) Uani 1 1 d . .
H4 H 0.1985 0.3129 0.2444 0.047 Uiso 1 1 calc R U
C5 C 0.36531(16) 0.36808(18) 0.35327(19) 0.0356(4) Uani 1 1 d . .
H5 H 0.2925 0.3717 0.4349 0.043 Uiso 1 1 calc R U
C6 C 0.52814(15) 0.39809(16) 0.34736(15) 0.0259(3) Uani 1 1 d . .
H6 H 0.5664 0.4224 0.4251 0.031 Uiso 1 1 calc R U
loop_
_atom_site_aniso_label
_atom_site_aniso_U_11
_atom_site_aniso_U_22
_atom_site_aniso_U_33
_atom_site_aniso_U_23
_atom_site_aniso_U_13
_atom_site_aniso_U_12
P1 0.01744(15) 0.01655(18) 0.01428(16) -0.00196(12) -0.00116(10) 0.00101(11)
O1 0.0264(4) 0.0203(5) 0.0196(5) -0.0036(4) 0.0028(3) 0.0039(3)
N1 0.0225(5) 0.0174(5) 0.0172(5) -0.0015(4) 0.0006(4) 0.0003(4)
C11 0.0211(5) 0.0176(6) 0.0185(6) -0.0043(5) -0.0053(4) -0.0004(4)
N12 0.0307(5) 0.0218(6) 0.0222(6) -0.0028(5) 0.0007(4) 0.0025(4)
C13 0.0354(7) 0.0275(8) 0.0315(8) -0.0078(6) 0.0042(6) 0.0051(6)
C14 0.0376(7) 0.0230(7) 0.0420(9) -0.0091(6) -0.0025(6) 0.0076(6)
C15 0.0423(8) 0.0183(7) 0.0356(8) 0.0008(6) -0.0046(6) 0.0023(6)
C16 0.0312(6) 0.0198(7) 0.0239(7) -0.0010(5) -0.0014(5) -0.0007(5)
N2 0.0239(5) 0.0178(5) 0.0185(5) -0.0008(4) -0.0062(4) -0.0018(4)
C21 0.0169(5) 0.0218(6) 0.0199(6) 0.0000(5) -0.0046(4) 0.0008(4)
N22 0.0287(5) 0.0290(6) 0.0211(6) 0.0022(5) -0.0088(4) -0.0079(5)
C23 0.0387(7) 0.0395(9) 0.0231(7) 0.0069(6) -0.0134(6) -0.0128(6)
C24 0.0416(8) 0.0323(8) 0.0326(8) 0.0127(6) -0.0143(6) -0.0100(6)
C25 0.0394(8) 0.0219(7) 0.0372(8) 0.0023(6) -0.0113(6) -0.0042(6)
C26 0.0330(6) 0.0211(7) 0.0266(7) -0.0025(5) -0.0090(5) 0.0006(5)
C1 0.0203(5) 0.0151(6) 0.0214(6) -0.0015(5) -0.0042(4) 0.0013(4)
C2 0.0339(7) 0.0221(7) 0.0269(7) -0.0017(5) -0.0124(5) 0.0003(5)
C3 0.0416(8) 0.0297(8) 0.0478(10) -0.0007(7) -0.0293(7) -0.0025(6)
C4 0.0221(6) 0.0302(8) 0.0633(12) 0.0046(8) -0.0155(7) -0.0007(6)
C5 0.0215(6) 0.0320(8) 0.0490(10) -0.0018(7) 0.0020(6) 0.0020(5)
C6 0.0225(6) 0.0272(7) 0.0271(7) -0.0052(6) -0.0008(5) 0.0011(5)
loop_
_atom_type_symbol
_atom_type_description
_atom_type_scat_dispersion_real
_atom_type_scat_dispersion_imag
_atom_type_scat_source
C C 0.0033 0.0016 'International Tables Vol C Tables 4.2.6.8 and 6.1.1.4'
H H 0.0000 0.0000 'International Tables Vol C Tables 4.2.6.8 and 6.1.1.4'
N N 0.0061 0.0033 'International Tables Vol C Tables 4.2.6.8 and 6.1.1.4'
O O 0.0106 0.0060 'International Tables Vol C Tables 4.2.6.8 and 6.1.1.4'
P P 0.1023 0.0942 'International Tables Vol C Tables 4.2.6.8 and 6.1.1.4'
loop_
_geom_angle_atom_site_label_1
_geom_angle_atom_site_label_2
_geom_angle_atom_site_label_3
_geom_angle
O1 P1 N2 114.75(6)
O1 P1 N1 109.04(6)
N2 P1 N1 104.27(6)
O1 P1 C1 110.05(6)
N2 P1 C1 108.36(6)
N1 P1 C1 110.21(6)
C11 N1 P1 127.64(9)
N12 C11 N1 117.11(12)
N12 C11 C16 123.54(12)
N1 C11 C16 119.34(11)
C11 N12 C13 116.59(12)
N12 C13 C14 124.44(13)
C13 C14 C15 117.92(14)
C16 C15 C14 119.31(14)
C15 C16 C11 118.15(13)
C21 N2 P1 126.12(9)
N22 C21 N2 115.34(12)
N22 C21 C26 122.75(12)
N2 C21 C26 121.91(12)
C21 N22 C23 117.19(13)
N22 C23 C24 124.18(15)
C23 C24 C25 117.88(14)
C26 C25 C24 119.46(14)
C25 C26 C21 118.45(14)
C2 C1 C6 119.44(12)
C2 C1 P1 117.06(10)
C6 C1 P1 123.48(10)
C1 C2 C3 119.97(14)
C4 C3 C2 120.19(15)
C5 C4 C3 120.30(14)
C4 C5 C6 119.91(15)
C5 C6 C1 120.19(14)
loop_
_geom_bond_atom_site_label_1
_geom_bond_atom_site_label_2
_geom_bond_distance
P1 O1 1.4839(10)
P1 N2 1.6522(13)
P1 N1 1.6572(12)
P1 C1 1.7946(14)
N1 C11 1.3972(17)
C11 N12 1.3289(16)
C11 C16 1.4020(19)
N12 C13 1.3442(19)
C13 C14 1.374(2)
C14 C15 1.390(2)
C15 C16 1.375(2)
N2 C21 1.3972(17)
C21 N22 1.3333(18)
C21 C26 1.4038(19)
N22 C23 1.3437(19)
C23 C24 1.381(2)
C24 C25 1.383(2)
C25 C26 1.380(2)
C1 C2 1.3904(19)
C1 C6 1.3932(18)
C2 C3 1.391(2)
C3 C4 1.381(3)
C4 C5 1.380(3)
C5 C6 1.3914(19)
loop_
_geom_hbond_atom_site_label_D
_geom_hbond_atom_site_label_H
_geom_hbond_atom_site_label_A
_geom_hbond_distance_DH
_geom_hbond_distance_HA
_geom_hbond_distance_DA
_geom_hbond_angle_DHA
_geom_hbond_site_symmetry_A
N1 H1 O1 0.88 1.98 2.7686(16) 148.5 2_765
N2 H2 N22 0.88 2.17 3.0356(18) 167.1 2_766
