#------------------------------------------------------------------------------
#$Date: 2019-11-22 22:11:35 +0200 (Fri, 22 Nov 2019) $
#$Revision: 231393 $
#$URL: file:///home/coder/svn-repositories/cod/cif/4/00/31/4003152.cif $
#------------------------------------------------------------------------------
#
# This file is available in the Crystallography Open Database (COD),
# http://www.crystallography.net/
#
# All data on this site have been placed in the public domain by the
# contributors.
#
data_4003152
loop_
_publ_author_name
'Chinnam, Parameswara R.'
'Clymer, Rebecca N.'
'Jalil, Abdel Aziz'
'Wunder, Stephanie L.'
'Zdilla, Michael J.'
_publ_section_title
;
 Bulk-Phase Ion Conduction in Cocrystalline
 LiCl&#x00B7;N,N-Dimethylformamide: A New Paradigm for Solid Electrolytes
 Based upon the Pearson Hard--Soft Acid--Base Concept
;
_journal_issue                   16
_journal_name_full               'Chemistry of Materials'
_journal_page_first              5479
_journal_paper_doi               10.1021/acs.chemmater.5b00940
_journal_volume                  27
_journal_year                    2015
_chemical_formula_moiety         'C3 H7 Cl Li N O'
_chemical_formula_sum            'C3 H7 Cl Li N O'
_chemical_formula_weight         115.49
_space_group_crystal_system      monoclinic
_space_group_IT_number           14
_space_group_name_Hall           '-P 2ybc'
_space_group_name_H-M_alt        'P 1 21/c 1'
_atom_sites_solution_hydrogens   geom
_atom_sites_solution_primary     direct
_audit_creation_method           SHELXL-2013
_cell_angle_alpha                90
_cell_angle_beta                 98.826(6)
_cell_angle_gamma                90
_cell_formula_units_Z            4
_cell_length_a                   5.839(2)
_cell_length_b                   6.390(3)
_cell_length_c                   15.961(7)
_cell_measurement_reflns_used    1126
_cell_measurement_temperature    100(2)
_cell_measurement_theta_max      27.337
_cell_measurement_theta_min      2.583
_cell_volume                     588.5(4)
_computing_cell_refinement       'SAINT (Bruker AXS)'
_computing_data_collection       'COSMO (Bruker AXS)'
_computing_data_reduction        'SADABS (Bruker AXS)'
_computing_molecular_graphics
'SHELXP-2013 (Sheldrick, 2014), ORTEP-3.2 (L.J. Farrugia)'
_computing_publication_material  'APEX2 (Bruker AXS)'
_computing_structure_refinement  'SHELXL-2013 (Sheldrick, 2013)'
_computing_structure_solution    'SHELXS-2013 (Sheldrick, 2013)'
_diffrn_ambient_temperature      100(2)
_diffrn_detector_area_resol_mean 8.333
_diffrn_measured_fraction_theta_full 0.999
_diffrn_measured_fraction_theta_max 0.998
_diffrn_measurement_device_type  'Bruker KAPPA APEX II DUO'
_diffrn_measurement_method       'omega scans'
_diffrn_radiation_type           MoK\a
_diffrn_radiation_wavelength     0.71073
_diffrn_reflns_av_R_equivalents  0.0687
_diffrn_reflns_av_unetI/netI     0.0908
_diffrn_reflns_Laue_measured_fraction_full 0.999
_diffrn_reflns_Laue_measured_fraction_max 0.998
_diffrn_reflns_limit_h_max       7
_diffrn_reflns_limit_h_min       -7
_diffrn_reflns_limit_k_max       4
_diffrn_reflns_limit_k_min       -8
_diffrn_reflns_limit_l_max       20
_diffrn_reflns_limit_l_min       -20
_diffrn_reflns_number            4102
_diffrn_reflns_point_group_measured_fraction_full 0.999
_diffrn_reflns_point_group_measured_fraction_max 0.998
_diffrn_reflns_theta_full        25.242
_diffrn_reflns_theta_max         27.775
_diffrn_reflns_theta_min         2.583
_diffrn_source                   'sealed tube'
_exptl_absorpt_coefficient_mu    0.524
_exptl_absorpt_correction_T_max  0.7456
_exptl_absorpt_correction_T_min  0.6103
_exptl_absorpt_correction_type   multi-scan
_exptl_absorpt_process_details
;
4344 Corrected reflections written to file
 Estimated minimum and maximum transmission:  0.6103  0.7456
 The ratio of these values is more reliable than their absolute values!
 Additional spherical absorption correction applied with mu*r =  0.2000
 Lambda/2 correction factor = 0.0015
;
_exptl_crystal_colour            colorless
_exptl_crystal_density_diffrn    1.304
_exptl_crystal_description       prism
_exptl_crystal_F_000             240
_exptl_crystal_size_max          0.255
_exptl_crystal_size_mid          0.132
_exptl_crystal_size_min          0.055
_refine_diff_density_max         0.352
_refine_diff_density_min         -0.683
_refine_diff_density_rms         0.091
_refine_ls_extinction_method     none
_refine_ls_goodness_of_fit_ref   1.009
_refine_ls_hydrogen_treatment    constr
_refine_ls_matrix_type           full
_refine_ls_number_parameters     66
_refine_ls_number_reflns         1394
_refine_ls_number_restraints     0
_refine_ls_restrained_S_all      1.009
_refine_ls_R_factor_all          0.1076
_refine_ls_R_factor_gt           0.0539
_refine_ls_shift/su_max          0.000
_refine_ls_shift/su_mean         0.000
_refine_ls_structure_factor_coef Fsqd
_refine_ls_weighting_details
'w=1/[\s^2^(Fo^2^)+(0.0560P)^2^] where P=(Fo^2^+2Fc^2^)/3'
_refine_ls_weighting_scheme      calc
_refine_ls_wR_factor_gt          0.1082
_refine_ls_wR_factor_ref         0.1243
_reflns_Friedel_coverage         0.000
_reflns_number_gt                862
_reflns_number_total             1394
_reflns_threshold_expression     'I > 2\s(I)'
_cod_data_source_file            cm5b00940_si_001.cif
_cod_data_source_block           DMF.LiCl
_cod_original_cell_volume        588.4(4)
_cod_original_sg_symbol_H-M      'P 21/c'
_cod_database_code               4003152
_shelx_space_group_comment
;
The symmetry employed for this shelxl refinement is uniquely defined
by the following loop, which should always be used as a source of
symmetry information in preference to the above space-group names.
They are only intended as comments.
;
_shelx_estimated_absorpt_t_min   0.878
_shelx_estimated_absorpt_t_max   0.972
_shelxl_version_number           2013-3
_shelx_res_file
;
TITL solve_14 in P2(1)/c
CELL 0.71073 5.8388 6.3895 15.9609 90.000 98.826 90.000
ZERR 4.00 0.0024 0.0026 0.0067 0.000 0.006 0.000
LATT 1
SYMM -x, y+1/2, -z+1/2
SFAC C H N O LI CL
UNIT 12 28 4 4 4 4
TEMP -173.110
ACTA
L.S. 8
SIZE 0.255 0.132 0.055
FMAP 2
PLAN -1 0 0.00
BOND $H
WGHT    0.056000
FVAR       0.30688
CL1   6    1.037427    0.300010    0.578085    11.00000    0.01428    0.02854 =
         0.03060    0.00768    0.00690    0.00366
O1    4    0.488383    0.332492    0.446486    11.00000    0.01285    0.02714 =
         0.02708   -0.00625    0.00352    0.00075
N1    3    0.364163    0.085911    0.346309    11.00000    0.01245    0.01715 =
         0.02326   -0.00175    0.00421    0.00330
C1    1    0.517191    0.166808    0.407238    11.00000    0.01203    0.02086 =
         0.02184   -0.00197    0.00560   -0.00040
AFIX  43
H1    2    0.659484    0.094210    0.422454    11.00000   -1.20000
AFIX   0
C2    1    0.410335   -0.106279    0.302630    11.00000    0.01742    0.02493 =
         0.03309   -0.00898    0.00556    0.00401
AFIX 137
H2A   2    0.567551   -0.155076    0.324044    11.00000   -1.50000
H2B   2    0.396373   -0.079219    0.241621    11.00000   -1.50000
H2C   2    0.298123   -0.213766    0.312857    11.00000   -1.50000
AFIX   0
C3    1    0.137181    0.182583    0.320829    11.00000    0.01400    0.02413 =
         0.02759   -0.00293   -0.00093    0.00509
AFIX 137
H3A   2    0.019180    0.102761    0.344691    11.00000   -1.50000
H3B   2    0.099909    0.182990    0.258833    11.00000   -1.50000
H3C   2    0.140323    0.326791    0.341885    11.00000   -1.50000
AFIX   0
LI1   5    0.742655    0.504466    0.504808    11.00000    0.00984    0.02826 =
         0.02571    0.00254    0.00000    0.00128
HKLF 4 1 1 0 0 0 1 0 0 0 1

REM  solve_14 in P2(1)/c
REM R1 =  0.0539 for     862 Fo > 4sig(Fo)  and  0.1076 for all    1394 data
REM     66 parameters refined using      0 restraints

END

WGHT      0.0560      0.0000

REM Highest difference peak  0.352,  deepest hole -0.683,  1-sigma level  0.091
Q1    1   1.1222  0.1665  0.6391  11.00000  0.05    0.35
;
_shelx_res_checksum              74025
_shelx_hkl_file
;
  -1   0   0    9.11    1.43
   1   0   0    8.08    1.37
  -2   0   0  602.80    8.72
   2   0   0  600.72    8.73
   3   0   0    8.10    1.56
  -3   0   0   11.72    1.47
  -4   0   0   29.67    2.78
   4   0   0   26.82    2.67
  -5   0   0    0.52    1.82
   5   0   0   -0.83    1.94
  -6   0   0   12.17    2.50
   6   0   0    8.49    2.19
  -7   0   0    3.42    2.73
   7   0   0    3.44    2.36
   0  -1   0   -0.53    0.62
   1  -1   0   84.46    1.99
  -1  -1   0   80.65    1.88
   1  -1   0   83.84    2.25
  -1   1   0   82.99    2.28
  -2  -1   0  128.83    2.92
   2  -1   0  129.81    3.18
  -2   1   0  126.88    3.19
   2   1   0  131.51    2.88
   3  -1   0   77.27    2.99
  -3  -1   0   80.23    2.75
  -3   1   0   80.92    2.97
   3   1   0   78.43    2.77
   4  -1   0   56.74    3.11
  -4  -1   0   53.92    3.02
  -4   1   0   52.21    3.19
   4   1   0   51.06    2.93
   5  -1   0   19.81    2.79
   5  -1   0   20.80    3.25
  -5  -1   0   17.21    2.34
  -5   1   0   20.14    2.34
  -6  -1   0   25.82    3.52
   6  -1   0   29.05    3.11
   6  -1   0   27.33    3.78
  -6   1   0   24.02    3.74
   7  -1   0   21.17    3.30
  -7  -1   0   25.40    3.45
   7   1   0   23.93    3.34
  -7   1   0   32.69    3.55
   0  -2   0  248.18    4.74
   1  -2   0  122.19    2.73
  -1  -2   0  120.24    3.24
   1  -2   0  125.85    3.33
   1  -2   0  121.77    2.43
  -1   2   0  121.36    2.79
   2  -2   0  232.01    4.13
  -2  -2   0  222.12    3.80
   2  -2   0  222.08    4.37
  -2   2   0  225.65    4.36
   3  -2   0   -0.45    1.24
   3  -2   0    0.85    1.24
  -3  -2   0    0.51    1.16
  -3   2   0    2.98    1.42
   3   2   0   -0.99    1.16
   4  -2   0   31.68    3.06
   4  -2   0   33.53    2.66
  -4  -2   0   32.02    2.57
  -4   2   0   29.37    3.04
   5  -2   0    1.69    1.77
   5  -2   0    4.59    1.93
  -5  -2   0    1.55    1.86
  -5   2   0    3.30    2.13
   6  -2   0   15.33    2.60
  -6  -2   0   14.29    2.57
   6  -2   0   14.70    2.38
  -6   2   0   18.44    2.70
  -7  -2   0   -0.73    2.63
   7  -2   0    1.17    2.22
   7   2   0    1.60    2.49
   0  -3   0   -0.58    1.35
  -1  -3   0    0.64    1.41
   1  -3   0   -0.98    0.99
   1  -3   0    1.35    1.30
   1  -3   0    1.20    0.79
   2  -3   0   18.13    2.18
   2  -3   0   20.05    2.52
   2  -3   0   22.56    1.82
  -2   3   0   20.40    2.30
   3  -3   0   18.32    2.12
  -3  -3   0   19.43    1.87
   3  -3   0   17.78    1.83
   3  -3   0   21.55    2.84
  -3   3   0   27.26    2.75
  -4  -3   0    1.25    1.55
   4  -3   0    1.61    1.71
   4  -3   0    1.39    1.55
  -4   3   0    3.30    1.93
   5  -3   0   20.87    2.54
  -5  -3   0   20.36    2.40
   5  -3   0   25.48    2.70
  -6  -3   0    5.08    2.43
   6  -3   0    3.31    1.98
   6  -3   0    0.79    2.32
   7  -3   0    4.97    2.37
   7  -3   0    5.63    2.74
  -7  -3   0   10.03    2.87
   7   3   0   10.67    2.77
   0  -4   0   14.64    1.95
  -1  -4   0   62.95    3.21
   1  -4   0   72.18    2.41
   1  -4   0   66.17    3.12
   2  -4   0    5.81    1.26
   2  -4   0    6.02    1.43
   2  -4   0    7.76    1.90
   3  -4   0   10.63    1.60
   3  -4   0   12.09    2.31
   3  -4   0   10.07    1.83
  -4  -4   0    6.98    1.73
   4  -4   0   11.08    2.13
   4  -4   0    9.51    1.85
   4  -4   0    9.32    2.49
   5  -4   0    2.71    2.45
  -5  -4   0   -1.39    1.88
   5  -4   0   -1.42    2.10
   5  -4   0    0.11    1.87
   6  -4   0    3.14    2.08
  -6  -4   0    3.15    2.34
   6  -4   0   -0.03    2.43
   0  -5   0   -2.52    1.80
   1  -5   0    0.48    1.26
   1  -5   0   -0.69    1.94
  -1  -5   0    0.38    1.81
   2  -5   0    5.02    2.17
   2  -5   0    7.04    1.73
   3  -5   0    0.52    2.13
   3  -5   0   -0.71    1.77
   3  -5   0    0.00    1.57
   4  -5   0    0.35    2.35
   4  -5   0    2.23    2.09
   4  -5   0   -0.40    1.67
   5  -5   0    3.68    2.62
   5  -5   0   -0.76    2.32
  -5  -5   0    2.31    1.89
   5  -5   0    2.68    2.00
  -6  -5   0   -1.02    2.27
   6  -5   0   -1.27    2.05
   6  -5   0   -1.92    2.62
   0  -6   0   15.99    2.66
   1  -6   0    0.64    2.32
  -1  -6   0   -0.18    2.15
   2  -6   0    9.26    2.70
   2  -6   0   14.67    2.03
   3  -6   0   12.78    2.84
   3  -6   0   17.84    2.46
   4  -6   0   16.72    3.03
   4  -6   0   17.24    2.74
   5  -6   0   18.19    3.08
   5  -6   0   11.35    2.94
   0  -7   0   -2.20    2.46
   1  -7   0    2.36    2.50
  -1  -7   0    4.03    2.62
   2  -7   0    6.16    2.16
   2  -7   0   11.03    3.04
   3  -7   0   11.08    2.51
   3  -7   0    9.05    3.09
   4  -7   0   -0.90    2.73
   4  -7   0   -0.59    2.49
   0  -8   0   15.19    3.37
  -1  -8   0    0.35    2.91
   1  -8   0    4.49    3.00
   2  -8   0    7.71    3.18
  -7   0   1    2.28    2.75
   7   0  -1    1.67    2.30
  -6   0   1   -0.36    2.19
   6   0  -1   -1.55    1.87
   5   0  -1    2.93    1.96
  -5   0   1    0.52    1.81
   5   0  -1   -0.74    1.61
  -4   0   1    1.21    1.46
   4   0  -1   -2.16    1.60
   3   0  -1   -2.10    1.38
  -3   0   1    2.27    1.31
  -2   0   1    0.69    1.14
   2   0  -1    2.13    1.33
  -1   0   1   -1.08    0.76
   1   0  -1   -1.29    0.71
   1   0  -1   -0.89    0.83
   1   0   1   -1.11    0.98
  -1   0  -1    1.23    0.90
  -2   0  -1    1.60    1.05
   2   0   1    1.49    1.31
  -3   0  -1   -1.28    1.16
   3   0   1   -0.08    1.37
  -4   0  -1    1.61    1.44
   4   0   1   -2.05    1.62
  -5   0  -1    0.64    1.78
   5   0   1   -1.71    1.98
  -6   0  -1    1.67    2.18
  -7   0  -1   -1.40    2.55
   7   0   1   -0.09    2.29
   7  -1  -1    2.75    2.29
  -7  -1   1    2.99    2.70
   7   1  -1   -0.48    2.39
  -7   1   1    0.75    2.72
   6  -1  -1    5.80    2.12
  -6  -1   1    4.99    2.35
   6  -1  -1    1.54    2.06
  -6   1   1    3.06    2.20
   6   1  -1    2.14    2.02
  -5  -1   1    3.05    1.89
   5  -1  -1    5.88    1.88
   5  -1  -1    4.73    1.70
  -5   1   1    2.08    1.88
   4  -1  -1   38.37    3.03
  -4  -1   1   42.59    2.98
   4  -1  -1   45.28    2.75
  -4   1   1   43.09    3.00
   4   1  -1   41.41    2.87
   3  -1  -1   22.60    2.52
  -3  -1   1   26.54    2.33
   3  -1  -1   28.43    2.17
  -3   1   1   26.35    2.48
   3   1  -1   29.46    2.35
  -2  -1   1    2.52    1.05
   2  -1  -1    2.02    1.33
   2  -1  -1    1.73    1.08
  -2   1   1    1.94    1.14
   2   1  -1    1.12    1.14
  -1  -1   1  204.97    3.20
   1  -1  -1  208.75    3.71
   1  -1  -1  208.59    3.61
   1  -1  -1  201.63    3.36
  -1   1   1  204.80    3.60
   0  -1   1    3.46    0.83
   0  -1  -1    3.74    0.48
   0  -1  -1    2.89    0.73
   1  -1   1    3.34    0.96
  -1  -1  -1    4.45    0.80
  -1   1  -1    5.61    1.03
  -2  -1  -1   38.08    2.15
   2  -1   1   42.93    2.34
   2   1   1   40.54    2.15
  -2   1  -1   39.29    2.31
  -3  -1  -1   33.57    2.38
   3  -1   1   36.71    2.44
   3   1   1   33.79    2.29
  -3   1  -1   29.25    2.57
   4  -1   1   24.65    2.89
  -4  -1  -1   21.27    2.70
  -4   1  -1   25.18    2.72
   4   1   1   22.95    2.69
  -5  -1  -1   -2.40    1.69
   5  -1   1    0.89    1.67
  -5   1  -1    1.78    1.76
  -6  -1  -1    4.31    2.30
   6  -1   1    7.18    2.27
   6  -1   1    6.25    2.06
  -6   1  -1    9.22    2.41
  -7  -1  -1    1.28    2.70
   7  -1   1    0.77    2.29
   7   1   1    0.47    2.28
  -7   1  -1   -4.18    2.59
  -7  -2   1   21.57    3.34
   7  -2  -1   28.80    3.18
  -7   2   1   28.06    4.30
   7   2  -1   22.81    3.52
  -6  -2   1    0.56    2.22
   6  -2  -1   -0.82    1.88
   6  -2  -1   -1.63    2.00
  -6   2   1    3.71    2.23
   5  -2  -1   46.96    3.18
   5  -2  -1   56.46    3.76
  -5  -2   1   56.46    3.38
  -5   2   1   49.37    3.76
   4  -2  -1    5.41    1.60
  -4  -2   1    5.69    1.59
   4  -2  -1    5.13    1.67
  -4   2   1    5.08    1.73
   3  -2  -1   -0.11    1.20
   3  -2  -1   -0.85    1.21
  -3  -2   1    0.69    1.20
  -3   2   1    2.34    1.35
   3   2  -1    1.32    1.21
   2  -2  -1    0.85    1.32
   2  -2  -1    1.86    1.04
   2  -2  -1    1.99    1.28
  -2  -2   1    1.36    0.99
  -2   2   1    0.66    1.17
   1  -2  -1   55.33    1.83
   1  -2  -1   57.16    2.33
  -1  -2   1   54.70    2.45
   1  -2  -1   52.58    2.12
  -1   2   1   52.07    2.20
   0  -2   1   45.48    2.29
   0  -2  -1   51.75    2.35
   1  -2   1   76.84    2.30
   1  -2   1   73.56    2.81
   1  -2   1   68.06    1.87
  -1   2  -1   78.45    2.26
   2  -2   1    9.66    1.23
  -2  -2  -1    8.87    1.15
   2  -2   1   13.92    2.06
  -2   2  -1    8.90    1.34
   3  -2   1   46.08    2.30
   3  -2   1   43.78    2.72
  -3  -2  -1   45.72    2.34
   3   2   1   47.04    2.32
  -3   2  -1   45.49    2.67
  -4  -2  -1    1.85    1.55
   4  -2   1    0.30    1.62
   4  -2   1    2.86    1.55
  -4   2  -1   -0.06    1.74
  -5  -2  -1   29.17    3.18
   5  -2   1   32.41    3.47
   5  -2   1   27.23    2.85
  -5   2  -1   29.47    3.46
   6  -2   1   10.37    2.33
  -6  -2  -1   12.53    2.59
   6  -2   1   16.53    2.61
  -6   2  -1   17.35    2.91
  -7  -2  -1    8.71    2.87
   7  -2   1    8.25    2.49
  -7  -3   1   -2.28    2.55
   7  -3  -1    5.33    2.34
   7  -3  -1    2.02    2.65
   7   3  -1    1.87    2.59
   6  -3  -1   20.65    2.90
  -6  -3   1   13.13    2.60
   6  -3  -1   13.35    2.58
  -5  -3   1    3.22    2.00
   5  -3  -1    1.54    1.81
   5  -3  -1    3.62    2.05
   4  -3  -1   38.59    2.71
   4  -3  -1   38.06    3.32
  -4  -3   1   36.76    2.61
  -4   3   1   44.82    3.30
   3  -3  -1   51.32    3.16
  -3  -3   1   51.74    2.19
   3  -3  -1   47.12    2.96
   3  -3  -1   51.95    2.44
  -3   3   1   51.75    2.88
   2  -3  -1  203.37    4.72
   2  -3  -1  195.83    3.83
   2  -3  -1  194.10    4.12
  -2   3   1  195.72    4.06
   1  -3  -1   81.53    3.03
  -1  -3   1   83.13    3.03
   1  -3  -1   82.41    2.48
   1  -3  -1   87.40    2.17
   0  -3   1   40.35    2.47
   0  -3  -1   41.48    2.40
   1  -3   1    3.30    0.78
   1  -3   1    3.31    1.07
  -1  -3  -1    3.68    1.42
   1  -3   1    2.16    1.53
   2  -3   1   34.88    2.91
   2  -3   1   32.24    2.28
   2  -3   1   32.72    1.84
  -2  -3  -1   32.82    1.74
  -2   3  -1   37.21    2.35
   3  -3   1    2.19    1.45
   3  -3   1    0.09    1.28
  -3  -3  -1    0.83    1.24
  -3   3  -1   -0.37    1.42
   4  -3   1    1.62    1.63
   4  -3   1   -0.43    1.69
  -4  -3  -1    0.81    1.59
  -5  -3  -1   -0.33    1.87
   5  -3   1   -0.23    2.01
   5  -3   1   -1.09    1.81
   6  -3   1    2.53    2.38
  -6  -3  -1    0.13    2.23
   6  -3   1   -0.77    1.95
   6  -4  -1   15.72    2.95
  -6  -4   1   11.88    2.54
   6  -4  -1   16.58    2.51
   5  -4  -1   22.54    2.95
   5  -4  -1   21.34    3.34
  -5  -4   1   21.99    2.89
   5  -4  -1   20.63    2.68
   4  -4  -1    9.57    2.07
   4  -4  -1    6.16    2.25
   4  -4  -1    9.71    1.85
  -4  -4   1    7.04    1.72
   3  -4  -1   26.86    3.15
   3  -4  -1   33.06    2.97
   3  -4  -1   35.49    2.43
   2  -4  -1   10.04    1.30
   2  -4  -1   11.15    1.55
   2  -4  -1   11.07    1.92
   1  -4  -1   11.32    1.83
  -1  -4   1    8.67    1.84
   1  -4  -1   11.30    1.26
   0  -4   1   26.57    2.73
   0  -4  -1   22.26    2.55
  -1  -4  -1   55.96    3.08
   1  -4   1   57.00    2.32
   1  -4   1   57.62    3.10
   2  -4   1   28.12    2.46
   2  -4   1   23.89    3.07
   2  -4   1   23.92    1.91
   3  -4   1   25.44    2.25
   3  -4   1   25.64    3.26
   3  -4   1   22.35    2.88
   4  -4   1   29.67    2.68
   4  -4   1   29.33    3.40
  -4  -4  -1   26.71    2.44
   4  -4   1   30.91    3.39
   5  -4   1   26.15    3.63
   5  -4   1   23.11    3.61
   5  -4   1   34.24    2.95
  -5  -4  -1   28.91    3.08
  -6  -4  -1   13.26    2.57
   6  -4   1   14.84    2.47
   6  -4   1   17.14    3.30
   6  -4   1   16.76    3.01
   6  -5  -1    4.18    2.74
  -6  -5   1   -3.98    2.09
   6  -5  -1    1.54    2.04
  -5  -5   1   12.63    2.06
   5  -5  -1   14.80    2.25
   5  -5  -1   15.53    2.77
   5  -5  -1   12.95    2.79
   4  -5  -1   42.79    3.63
   4  -5  -1   41.70    3.57
   4  -5  -1   40.73    3.02
   3  -5  -1   29.27    2.58
   3  -5  -1   27.30    3.15
   3  -5  -1   30.20    3.17
   2  -5  -1  115.17    3.41
  -2  -5   1   97.63    4.42
   2  -5  -1  108.60    4.24
   1  -5  -1   14.51    2.32
   1  -5  -1   14.62    1.53
  -1  -5   1   11.89    2.33
   0  -5   1   83.54    4.01
   0  -5  -1   84.41    3.86
  -1  -5  -1   17.98    2.98
   1  -5   1   20.58    3.13
   1  -5   1   15.79    2.14
   2  -5   1    2.71    1.63
   2  -5   1    0.01    2.09
   3  -5   1   27.96    3.21
   3  -5   1   25.28    3.45
   4  -5   1   -2.66    2.02
   4  -5   1    1.24    2.55
  -5  -5  -1    2.43    1.93
   5  -5   1    1.41    2.68
   5  -5   1   -0.92    2.38
   6  -5   1   -2.20    2.73
   6  -5   1    1.13    2.72
   5  -6  -1    5.10    2.72
   5  -6  -1    6.35    2.73
   4  -6  -1    9.41    2.71
   4  -6  -1    8.84    2.45
   3  -6  -1    1.70    2.37
   3  -6  -1    1.41    2.05
   2  -6  -1   -0.35    1.79
   2  -6  -1    0.97    2.34
   1  -6  -1    2.27    2.28
  -1  -6   1   -2.06    2.16
   0  -6  -1    9.49    2.50
   0  -6   1   11.21    2.59
   1  -6   1    6.56    2.63
  -1  -6  -1    4.06    2.24
   2  -6   1   15.66    2.84
   2  -6   1   21.83    2.79
   3  -6   1   13.28    2.93
   3  -6   1   15.83    2.44
   4  -6   1   14.31    2.67
   4  -6   1   13.79    2.93
   5  -6   1   14.14    2.97
   5  -6   1   21.30    3.70
   4  -7  -1    9.44    2.74
   4  -7  -1    8.05    3.01
   3  -7  -1   19.59    2.66
   3  -7  -1   14.89    3.13
   2  -7  -1   16.80    2.32
   2  -7  -1   11.19    2.92
   1  -7  -1   23.71    3.55
  -1  -7   1   22.93    3.71
   0  -7  -1    4.99    2.65
   0  -7   1    4.34    2.71
  -1  -7  -1    1.57    2.59
   1  -7   1    5.29    2.76
   2  -7   1   16.59    3.28
   2  -7   1   18.08    2.77
   3  -7   1   -0.67    2.71
   3  -7   1    5.09    2.41
   4  -7   1    3.98    2.65
   4  -7   1    6.51    2.95
   2  -8  -1    3.20    2.93
  -1  -8   1    3.74    2.97
   1  -8  -1    0.01    2.90
   0  -8  -1   -0.51    2.76
   0  -8   1    1.55    2.97
   1  -8   1   -2.66    2.94
   2  -8   1    2.10    3.15
   7   0  -2   13.98    2.68
  -7   0   2   15.96    3.20
  -6   0   2   42.76    4.02
   6   0  -2   47.72    3.52
   5   0  -2   44.97    3.11
  -5   0   2   41.57    3.58
   5   0  -2   51.31    3.38
   4   0  -2  368.81    6.80
   4   0  -2  378.47    6.77
  -4   0   2  372.06    6.92
   3   0  -2    1.86    1.46
   3   0  -2    2.29    1.26
  -3   0   2    3.75    1.40
  -2   0   2  410.54    6.43
   2   0  -2  407.94    6.30
   2   0  -2  399.11    6.35
   1   0  -2   14.56    1.50
   1   0  -2   14.53    1.36
  -1   0   2   14.26    1.75
   0   0   2   58.88    1.40
   0   0  -2   58.33    1.35
  -1   0  -2  111.79    2.59
   1   0   2  114.32    2.61
  -2   0  -2    8.50    1.27
   2   0   2    9.47    1.24
  -3   0  -2    3.39    1.24
   3   0   2    0.42    1.17
  -4   0  -2   24.94    2.96
   4   0   2   27.16    2.79
  -5   0  -2  116.32    4.38
   5   0   2  121.05    4.43
  -6   0  -2    4.84    2.29
  -7   0  -2   52.77    4.39
   7   0   2   49.09    3.80
   7  -1  -2    0.98    2.24
  -7  -1   2    2.96    2.70
  -7   1   2    2.84    2.75
   7   1  -2    3.05    2.52
   6  -1  -2   42.06    3.31
   6  -1  -2   42.97    3.91
  -6  -1   2   34.62    3.64
  -6   1   2   40.56    3.92
   6   1  -2   39.24    3.45
   5  -1  -2    0.78    1.98
   5  -1  -2    0.86    1.65
  -5  -1   2    1.31    1.90
   5   1  -2    0.53    1.73
  -5   1   2    1.19    1.88
   4  -1  -2   -0.82    1.67
  -4  -1   2    0.42    1.51
   4  -1  -2   -1.30    1.36
   4   1  -2   -1.49    1.48
  -4   1   2    0.99    1.55
  -3  -1   2   80.04    2.90
   3  -1  -2   79.46    3.10
   3  -1  -2   80.13    2.88
  -3   1   2   80.86    3.21
   3   1  -2   82.96    2.85
   2  -1  -2   32.99    1.94
  -2  -1   2   34.55    2.17
   2  -1  -2   31.30    2.28
  -2   1   2   29.38    2.36
   2   1  -2   32.34    2.03
   1  -1  -2  329.47    5.29
   1  -1  -2  332.66    4.92
  -1  -1   2  333.92    4.83
  -1  -1   2  348.09    5.42
   1  -1  -2  331.74    5.06
  -1   1   2  332.76    5.14
   1   1  -2  315.89    4.77
   0  -1  -2    0.93    0.62
   0  -1   2    1.48    0.65
  -1  -1  -2  322.77    4.95
   1  -1   2  330.16    5.19
  -1   1  -2  325.09    5.07
   1   1   2  329.93    4.98
  -2  -1  -2   12.06    1.26
   2  -1   2   10.12    1.40
   2   1   2   11.15    1.20
  -2   1  -2   11.64    1.27
   3  -1   2  217.45    4.67
  -3  -1  -2  226.57    4.58
   3   1   2  224.11    4.48
  -3   1  -2  225.50    4.70
   4  -1   2   31.24    2.95
  -4  -1  -2   40.14    3.07
   4   1   2   34.95    2.93
  -4   1  -2   39.30    3.05
   5  -1   2  123.01    4.45
  -5  -1  -2  118.81    4.33
  -5   1  -2  116.96    4.38
  -6  -1  -2   -0.16    2.22
   6  -1   2   -1.44    2.05
  -6   1  -2    0.29    2.15
  -7  -1  -2   16.46    3.06
   7  -1   2   10.98    2.57
  -7   1  -2   19.84    3.14
  -7  -2   2    4.31    2.75
   7  -2  -2    8.24    2.42
   7   2  -2    4.63    2.67
  -7   2   2    5.96    2.88
  -6  -2   2   52.17    3.75
   6  -2  -2   53.84    4.09
   6  -2  -2   54.16    3.45
  -6   2   2   52.49    4.06
   6   2  -2   55.34    3.58
   5  -2  -2   39.84    3.52
  -5  -2   2   42.28    3.27
   5  -2  -2   41.06    3.00
  -5   2   2   37.43    3.57
   4  -2  -2   63.80    3.42
  -4  -2   2   64.88    3.05
   4  -2  -2   63.45    2.98
  -4   2   2   65.95    3.49
  -3  -2   2   60.13    2.51
   3  -2  -2   59.38    2.56
   3  -2  -2   66.71    3.00
  -3   2   2   61.20    3.00
   3   2  -2   59.79    2.40
  -2  -2   2  108.74    2.50
   2  -2  -2  103.92    3.09
   2  -2  -2  107.11    3.03
   2  -2  -2  111.12    2.83
  -2   2   2  104.56    3.14
   1  -2  -2    5.01    1.09
   1  -2  -2    3.61    0.89
   1  -2  -2    5.15    0.94
  -1  -2   2    3.01    1.19
  -1   2   2    5.77    1.04
   0  -2  -2   57.14    1.79
   0  -2   2   59.02    2.58
   0  -2  -2   56.20    2.48
   1  -2   2    4.85    1.05
  -1  -2  -2    2.49    0.84
  -1   2  -2    3.12    1.01
   2  -2   2  117.88    3.34
  -2  -2  -2  124.32    2.86
  -2   2  -2  120.12    3.22
   3  -2   2    3.22    1.39
  -3  -2  -2    5.78    1.36
  -3   2  -2    6.19    1.53
   3   2   2    5.24    1.07
   4  -2   2    2.86    1.67
  -4  -2  -2    5.46    1.65
  -4   2  -2    3.76    1.77
  -5  -2  -2   14.01    2.18
   5  -2   2   13.35    2.27
   5  -2   2   10.59    2.01
  -5   2  -2   13.79    2.14
  -6  -2  -2    8.70    2.46
   6  -2   2    8.25    2.23
   6  -2   2    9.60    2.43
  -6   2  -2   14.89    2.81
  -7  -2  -2   23.88    3.36
   7  -2   2   21.72    3.28
   7  -3  -2   18.68    3.17
  -7  -3   2   14.98    2.95
   7  -3  -2   14.65    2.66
   7   3  -2   16.08    3.05
   6  -3  -2    4.77    2.06
   6  -3  -2    4.52    2.40
  -6  -3   2    2.39    2.28
   6   3  -2    0.35    2.19
  -5  -3   2   -0.76    1.90
   5  -3  -2    0.83    1.75
   5  -3  -2    0.93    1.99
   4  -3  -2    4.87    1.65
  -4  -3   2    4.96    1.68
   4  -3  -2    7.33    1.88
   4  -3  -2    6.00    1.96
  -4   3   2    6.77    1.81
   3  -3  -2   43.45    2.38
  -3  -3   2   40.82    2.14
   3  -3  -2   42.56    2.79
   3  -3  -2   40.58    2.93
  -3   3   2   42.22    2.94
  -2  -3   2    4.00    1.54
   2  -3  -2    5.35    1.16
   2  -3  -2    5.91    1.28
   2  -3  -2    5.23    1.36
  -2   3   2    4.53    1.23
  -1  -3   2    9.80    1.58
   1  -3  -2   11.13    1.14
   1  -3  -2    8.90    1.47
   1  -3  -2   13.02    1.59
   0  -3   2   64.84    2.94
   0  -3  -2   60.75    2.77
   0  -3  -2   65.89    1.88
   1  -3   2   14.81    1.87
   1  -3   2   12.41    1.29
   1  -3   2   15.43    1.94
   2  -3   2   23.19    2.21
  -2  -3  -2   18.27    1.71
   2  -3   2   22.02    1.79
   2  -3   2   22.21    2.67
  -2  -3  -2   17.62    1.75
  -2   3  -2   23.00    2.22
   3  -3   2   50.27    3.03
  -3  -3  -2   54.60    2.42
   3  -3   2   51.47    2.52
  -3   3  -2   49.18    2.87
   4  -3   2   22.94    3.14
   4  -3   2   23.13    2.49
  -4  -3  -2   26.07    2.70
   5  -3   2    5.11    2.14
   5  -3   2   10.15    2.15
  -5  -3  -2    4.77    2.03
   6  -3   2   12.52    2.74
  -6  -3  -2   11.23    2.60
   6  -3   2   10.27    2.28
  -6  -4   2   -4.65    2.11
   6  -4  -2   -1.01    1.94
   6  -4  -2   -1.91    2.43
   6   4  -2   -0.24    2.28
   5  -4  -2    5.26    2.31
  -5  -4   2    9.42    2.10
   5  -4  -2    7.96    2.01
   5  -4  -2    9.34    2.42
   4  -4  -2    2.53    2.03
   4  -4  -2    0.20    1.63
   4  -4  -2    1.95    1.87
  -4  -4   2   -0.60    1.56
   3  -4  -2   34.73    3.04
   3  -4  -2   36.09    2.53
   3  -4  -2   35.55    3.00
  -2  -4   2    5.09    1.74
   2  -4  -2    3.46    1.66
   2  -4  -2    2.99    1.20
   2  -4  -2    2.51    1.27
   1  -4  -2   13.12    1.33
   1  -4  -2   12.49    1.89
  -1  -4   2   15.03    2.60
   0  -4  -2   14.74    2.37
   0  -4   2   16.64    2.67
   1  -4   2    1.18    1.74
  -1  -4  -2    0.55    1.67
   1  -4   2   -1.24    1.13
   2  -4   2   -0.20    1.06
   2  -4   2   -0.35    2.00
   2  -4   2    2.46    1.35
   3  -4   2   -0.69    1.62
   3  -4   2   -5.92    2.14
  -3  -4  -2   -0.12    1.29
   3  -4   2    1.45    1.41
   4  -4   2    2.05    1.93
   4  -4   2    1.64    2.43
  -4  -4  -2    3.62    1.66
   4  -4   2    0.30    1.65
  -5  -4  -2    3.01    1.94
   5  -4   2    1.68    1.91
   5  -4   2    1.55    2.28
   6  -4   2   13.43    2.50
  -6  -4  -2    8.54    2.51
   6  -4   2    5.86    2.73
   6  -5  -2    3.64    2.59
   6  -5  -2    5.56    2.15
  -6  -5   2    4.47    2.27
   5  -5  -2    6.31    2.44
   5  -5  -2    2.31    2.27
   5  -5  -2    9.01    2.04
   4  -5  -2    5.02    2.18
   4  -5  -2    4.09    1.92
   4  -5  -2    3.39    2.19
   3  -5  -2    9.41    1.95
   3  -5  -2   13.79    2.38
   3  -5  -2   13.75    1.85
   2  -5  -2    1.03    1.34
  -2  -5   2    0.57    1.95
   2  -5  -2    4.44    2.04
   2  -5  -2    2.38    1.54
  -1  -5   2    4.15    1.96
   1  -5  -2    3.28    1.36
   1  -5  -2    6.84    2.02
   0  -5   2    4.49    2.20
   0  -5  -2    3.50    1.95
  -1  -5  -2    1.91    1.99
   1  -5   2    0.76    2.10
   1  -5   2   -0.43    1.38
   2  -5   2   12.99    1.88
   2  -5   2    7.58    2.42
   3  -5   2   13.48    2.87
   3  -5   2   11.53    2.13
   4  -5   2    3.07    2.73
   4  -5   2    5.70    2.25
  -4  -5  -2    2.80    1.63
  -5  -5  -2    4.37    2.01
   5  -5   2    4.35    2.54
   5  -5   2    4.25    2.80
   5  -6  -2    1.84    2.54
   4  -6  -2   14.33    2.58
   4  -6  -2   10.32    2.65
   3  -6  -2    2.05    2.32
   3  -6  -2    3.55    2.11
   2  -6  -2   -0.14    2.29
   2  -6  -2    1.05    1.82
  -2  -6   2    0.24    2.26
   1  -6  -2    1.28    2.24
  -1  -6   2    5.04    2.34
   0  -6  -2   16.66    2.76
   0  -6   2   14.37    2.70
  -1  -6  -2   13.01    2.63
   1  -6   2   14.52    2.84
   2  -6   2   20.78    2.83
   2  -6   2   20.91    3.60
   3  -6   2    5.44    2.74
   3  -6   2    5.36    2.23
   4  -6   2    5.48    2.48
   4  -6   2    1.88    2.72
   5  -6   2    6.28    3.08
   5  -6   2    4.26    2.72
   4  -7  -2    6.49    2.92
   4  -7  -2    4.04    2.61
   3  -7  -2   18.52    3.21
   3  -7  -2   24.49    3.20
   2  -7  -2    0.25    2.05
   2  -7  -2    2.12    2.57
  -2  -7   2   -2.69    2.49
  -1  -7   2   15.07    3.16
   1  -7  -2   15.41    2.94
   0  -7   2   -1.75    2.67
   0  -7  -2    0.31    2.47
   1  -7   2    7.28    3.06
   2  -7   2    0.54    2.01
   2  -7   2   -0.74    2.79
   3  -7   2   17.40    3.32
   3  -7   2   14.61    2.73
   2  -8  -2    7.91    3.11
  -1  -8   2  -10.08    2.65
   1  -8  -2    0.83    2.80
   0  -8   2    5.27    3.18
   0  -8  -2    0.77    2.75
   1  -8   2    0.62    3.09
   2  -8   2   -0.36    3.20
   7   0  -3    3.39    2.26
  -7   0   3    0.18    2.63
  -6   0   3   -1.99    2.28
   6   0  -3   -0.09    1.96
   5   0  -3   -0.87    1.90
   5   0  -3    1.55    1.68
  -5   0   3    0.01    1.91
   4   0  -3    1.20    1.66
  -4   0   3    2.03    1.58
   4   0  -3    0.40    1.41
  -3   0   3    1.02    1.39
   3   0  -3    1.47    1.46
   3   0  -3   -1.88    1.17
  -2   0   3    0.78    1.18
   2   0  -3   -0.77    1.17
   2   0  -3   -0.20    1.00
  -1   0   3   -0.63    1.01
   1   0  -3   -0.81    0.98
   1   0  -3   -0.43    0.78
   0   0   3    0.27    0.77
   0   0  -3    0.44    0.71
  -1   0  -3    0.32    0.90
   1   0   3    0.17    1.02
   2   0   3    1.53    1.15
  -2   0  -3    0.40    1.09
   3   0   3   -0.87    1.31
  -3   0  -3    1.20    1.26
   4   0   3    0.97    1.45
  -4   0  -3    1.30    1.56
  -5   0  -3    1.70    1.85
   5   0   3   -1.61    1.79
  -6   0  -3   -0.56    2.08
  -7   0  -3   -2.37    2.50
   7  -1  -3   -1.94    2.11
  -7  -1   3    1.91    2.57
   7   1  -3   -0.73    2.29
  -7   1   3    0.70    2.60
  -6  -1   3   13.03    2.58
   6  -1  -3    9.55    2.33
   6  -1  -3    8.51    2.10
  -6   1   3   11.33    2.55
   6   1  -3    7.81    2.40
   5  -1  -3    5.42    2.19
  -5  -1   3    1.19    1.95
   5  -1  -3    1.89    1.59
   5   1  -3    5.38    1.86
  -5   1   3    0.41    1.91
  -4  -1   3    8.24    1.75
   4  -1  -3   14.73    2.08
   4  -1  -3    9.37    1.62
   4   1  -3   10.55    1.70
   4   1  -3    8.76    1.48
  -4   1   3    9.34    1.86
   3  -1  -3    2.16    1.22
  -3  -1   3    3.44    1.39
   3  -1  -3    5.98    1.32
   3   1  -3    5.27    1.31
   3   1  -3    3.46    1.34
  -3   1   3    3.98    1.43
  -2  -1   3   26.50    2.21
   2  -1  -3   23.62    2.15
   2  -1  -3   24.11    1.99
  -2   1   3   27.13    2.61
   2   1  -3   29.11    1.93
   2   1  -3   28.92    1.89
   1  -1  -3   69.99    2.27
  -1  -1   3   75.09    2.05
   1  -1  -3   77.32    1.95
  -1  -1   3   73.29    2.08
   1  -1  -3   74.59    2.04
  -1  -1   3   67.55    2.13
  -1   1   3   72.23    2.46
   1   1  -3   71.56    1.76
   0  -1   3  302.19    4.52
   0  -1  -3  297.75    4.56
   0   1  -3  305.15    4.48
   0   1   3  297.92    4.61
   1  -1   3   36.25    2.20
  -1  -1  -3   33.83    1.93
  -1   1  -3   35.48    2.02
   1   1   3   39.06    2.07
  -2  -1  -3    6.47    1.22
   2  -1   3    4.40    1.30
   2   1   3    5.87    1.46
  -2   1  -3    6.91    1.30
  -3  -1  -3    2.76    1.41
   3  -1   3    2.33    1.41
   3   1   3   -0.58    1.54
  -3   1  -3    2.07    1.28
   4  -1   3   21.36    2.97
  -4  -1  -3   24.59    2.89
   4   1   3   30.43    2.82
  -4   1  -3   32.59    3.15
   5  -1   3   -0.51    1.84
  -5  -1  -3    0.11    1.88
  -5   1  -3    0.78    1.77
  -6  -1  -3    9.26    2.44
  -6   1  -3    9.21    2.34
   7  -1   3    2.41    2.35
  -7  -1  -3   -0.52    2.77
  -7   1  -3    1.27    2.56
   7  -2  -3   -0.39    2.18
  -7  -2   3    0.18    2.54
   7   2  -3   -1.14    2.51
  -7   2   3    1.75    2.79
   6  -2  -3   -0.52    1.87
  -6  -2   3    4.56    2.28
   6  -2  -3   -0.77    2.07
   6   2  -3    1.26    2.25
  -6   2   3    3.68    2.19
  -5  -2   3   40.21    3.23
   5  -2  -3   28.95    2.83
   5  -2  -3   25.98    3.47
   5   2  -3   33.55    3.07
  -5   2   3   22.63    3.40
  -4  -2   3   -0.53    1.57
   4  -2  -3    3.39    1.46
   4  -2  -3   -0.32    1.56
   4   2  -3    2.45    1.59
  -4   2   3   -1.69    1.54
   3  -2  -3   29.19    2.69
  -3  -2   3   28.03    2.21
   3  -2  -3   30.94    2.27
   3  -2  -3   24.77    2.26
   3   2  -3   31.37    2.10
  -3   2   3   29.83    2.77
   2  -2  -3   28.65    2.28
   2  -2  -3   27.89    1.96
   2  -2  -3   27.38    1.93
  -2  -2   3   27.49    1.87
   2   2  -3   23.26    1.71
  -2   2   3   23.05    2.50
  -1  -2   3    0.34    1.17
   1  -2  -3    0.84    1.05
   1  -2  -3    0.84    0.87
   1  -2  -3   -1.15    0.89
  -1   2   3    1.80    1.06
   0  -2  -3  113.79    2.50
   0  -2   3  114.13    3.32
   0  -2  -3  112.89    3.09
   0  -2   3  111.72    2.39
   1  -2   3   80.25    2.57
  -1  -2  -3   77.90    2.26
  -1   2  -3   79.97    2.42
  -2  -2  -3   29.50    2.11
   2  -2   3   31.93    2.53
  -2   2  -3   34.42    2.28
   2   2   3   31.16    2.23
   3  -2   3   62.34    3.02
  -3  -2  -3   62.82    2.85
  -3   2  -3   57.28    2.94
   4  -2   3    6.64    1.75
  -4  -2  -3    9.58    1.82
  -4   2  -3    8.30    1.92
   5  -2   3    0.20    1.99
  -5  -2  -3   -4.83    1.87
  -5   2  -3    0.84    2.07
   6  -2   3    2.41    2.03
   6  -2   3   -0.10    2.23
  -6  -2  -3   -0.65    2.19
  -6   2  -3   -0.57    2.38
  -7  -2  -3   -0.93    2.74
   7  -2   3    3.76    2.30
  -7  -3   3    5.12    2.63
   7  -3  -3   12.41    2.90
   7  -3  -3   11.56    2.56
   7   3  -3    5.63    2.79
   6  -3  -3   62.98    3.60
   6  -3  -3   64.80    4.33
  -6  -3   3   73.23    3.91
   6   3  -3   67.73    3.90
   5  -3  -3   11.27    2.02
  -5  -3   3    9.96    2.14
   5  -3  -3    7.69    2.25
   5   3  -3   12.98    2.22
  -4  -3   3   38.76    2.62
   4  -3  -3   40.55    2.93
   4  -3  -3   34.46    2.72
   4  -3  -3   37.18    3.32
   4   3  -3   38.39    2.73
  -4   3   3   34.50    3.42
   3  -3  -3    0.50    1.21
   3  -3  -3    1.29    1.42
   3  -3  -3    0.20    1.41
  -3  -3   3   -1.78    1.21
  -3   3   3    1.41    1.40
  -2  -3   3   96.47    3.27
   2  -3  -3   96.86    3.18
   2  -3  -3  102.11    2.77
   2  -3  -3   96.02    2.97
  -2   3   3   94.53    3.14
   2   3  -3   86.95    2.29
  -1  -3   3    1.26    1.47
   1  -3  -3    3.83    1.06
   1  -3  -3    2.80    1.30
  -1   3   3    3.32    1.27
   0  -3  -3   54.87    2.72
   0  -3  -3   52.31    1.96
   0  -3   3   53.37    2.81
  -1  -3  -3    5.78    0.93
  -1  -3  -3    6.69    1.04
   1  -3   3    7.13    1.84
   1  -3   3    6.94    1.22
   2  -3   3    1.62    1.37
  -2  -3  -3    0.19    1.12
   2  -3   3    1.00    1.05
  -2   3  -3    0.32    1.19
  -3  -3  -3   32.24    2.50
   3  -3   3   35.93    2.30
   3  -3   3   32.82    2.74
  -3   3  -3   31.65    2.74
   4  -3   3   57.60    2.95
  -4  -3  -3   54.41    3.13
   4  -3   3   51.08    3.53
  -5  -3  -3   21.56    3.24
   5  -3   3   24.14    3.64
   5  -3   3   24.16    2.78
  -6  -3  -3   13.37    2.73
   6  -3   3   12.10    2.78
   6  -3   3   14.08    2.48
  -6  -4   3    4.88    2.33
   6  -4  -3    6.03    2.21
   6  -4  -3    5.45    2.57
   5  -4  -3   -0.80    2.12
   5  -4  -3    0.37    1.74
  -5  -4   3    1.65    1.94
   4  -4  -3   31.25    2.99
   4  -4  -3   35.59    3.34
  -4  -4   3   34.17    2.50
   4  -4  -3   36.49    2.81
   3  -4  -3   20.86    2.48
   3  -4  -3   22.30    2.88
   3  -4  -3   20.84    2.72
  -2  -4   3    5.45    1.80
   2  -4  -3    7.05    1.34
   2  -4  -3    8.64    1.43
   2  -4  -3    6.27    1.74
  -1  -4   3   79.43    3.43
   1  -4  -3   83.03    3.31
   1  -4  -3   86.21    2.54
   0  -4   3   25.82    2.73
   0  -4  -3   24.94    2.68
   0  -4  -3   28.37    1.81
   1  -4   3   78.27    3.76
   1  -4   3   81.58    2.62
   2  -4   3   82.59    2.48
   2  -4   3   88.76    3.03
   2  -4   3   85.10    4.08
  -3  -4  -3   41.23    2.49
   3  -4   3   47.50    2.46
   3  -4   3   44.55    3.18
   3  -4   3   48.48    3.75
  -4  -4  -3    6.86    1.85
   4  -4   3   10.27    2.20
   4  -4   3    9.75    1.94
   5  -4   3    6.15    2.39
   5  -4   3    3.76    2.03
  -5  -4  -3    4.63    2.04
  -6  -4  -3   -0.25    2.31
   6  -4   3    1.42    2.67
   6  -4   3    1.42    2.10
   6  -5  -3   27.73    3.41
  -6  -5   3   29.98    3.27
   6  -5  -3   30.87    3.86
   5  -5  -3    9.82    2.51
   5  -5  -3    6.96    2.14
   4  -5  -3   50.03    3.59
   4  -5  -3   49.60    3.55
   4  -5  -3   56.36    3.20
   3  -5  -3    3.43    1.79
   3  -5  -3    3.52    1.59
   3  -5  -3    4.21    2.02
   2  -5  -3    4.41    2.08
  -2  -5   3    5.61    2.09
   2  -5  -3    9.20    1.71
   1  -5  -3   16.13    2.29
   1  -5  -3   15.14    2.16
  -1  -5   3   18.55    3.13
   0  -5   3    1.17    2.05
   0  -5  -3    1.95    1.89
   1  -5   3    2.57    2.26
   1  -5   3    4.43    1.49
   2  -5   3    7.49    2.57
   2  -5   3    8.27    1.82
   3  -5   3   39.54    4.13
   3  -5   3   47.15    3.37
   4  -5   3    1.42    2.27
   4  -5   3    2.65    2.79
  -4  -5  -3    5.24    1.75
   5  -5   3   42.49    3.91
   5  -5   3   44.42    4.25
   5  -6  -3   -1.52    2.44
   4  -6  -3   13.80    2.61
   4  -6  -3   13.07    2.71
   3  -6  -3   10.80    2.32
   3  -6  -3    7.68    2.51
   2  -6  -3   11.58    2.56
  -2  -6   3    9.04    2.49
   2  -6  -3   14.85    2.11
  -1  -6   3   18.64    2.91
   1  -6  -3   19.84    3.29
   1  -6  -3   20.49    2.41
   0  -6  -3   19.39    3.20
   0  -6   3   16.00    2.91
   1  -6   3   38.70    3.97
   2  -6   3   18.62    3.14
   2  -6   3   25.43    2.92
   3  -6   3   19.73    3.24
   3  -6   3   25.48    3.27
   4  -6   3    9.20    2.64
   4  -6   3    5.93    3.08
   5  -6   3    2.52    3.05
   4  -7  -3   -1.14    2.70
   4  -7  -3    3.35    2.56
   3  -7  -3   10.02    2.90
   3  -7  -3   13.88    2.58
   2  -7  -3    1.60    2.54
  -2  -7   3   -1.64    2.54
   2  -7  -3    2.82    2.20
  -1  -7   3   -0.06    2.54
   1  -7  -3    2.47    2.63
   0  -7   3   -0.99    2.68
   0  -7  -3   -0.94    2.28
   1  -7   3   -2.52    2.78
   2  -7   3   -1.31    2.84
   2  -7   3    1.70    2.15
   3  -7   3    4.30    2.46
   3  -7   3    3.24    3.07
   2  -8  -3    4.59    2.94
  -2  -8   3    3.85    3.13
   1  -8  -3    0.93    2.73
  -1  -8   3   -1.80    3.08
   0  -8  -3    4.80    2.99
   0  -8   3    5.12    3.30
   1  -8   3    6.70    3.36
  -7   0   4   30.41    4.18
   7   0  -4   27.27    3.32
  -6   0   4   15.34    2.72
   6   0  -4   15.51    2.39
   5   0  -4    6.04    1.84
   5   0  -4    8.64    2.17
  -5   0   4   12.46    2.19
   4   0  -4   47.16    2.68
   4   0  -4   44.46    2.89
  -4   0   4   47.93    3.24
   3   0  -4   65.35    2.81
  -3   0   4   65.55    3.09
   3   0  -4   67.10    2.60
   2   0  -4   13.55    1.29
  -2   0   4   15.18    2.39
   2   0  -4   15.44    2.08
   1   0  -4  116.15    2.75
   1   0  -4  116.95    2.50
  -1   0   4  116.99    2.85
   0   0  -4  119.65    2.78
   0   0   4  120.44    2.84
  -1   0  -4  270.13    4.58
   1   0   4  267.45    4.68
  -2   0  -4   92.21    3.01
   2   0   4   96.11    3.17
   3   0   4  225.13    4.94
  -3   0  -4  222.69    4.83
   4   0   4   23.83    3.16
  -4   0  -4   25.15    3.11
  -5   0  -4   18.58    2.46
   5   0   4   15.42    2.23
  -6   0  -4   58.76    4.18
  -7   0  -4    5.76    2.75
   7  -1  -4    7.97    2.38
  -7  -1   4   13.31    2.92
  -7   1   4    4.05    2.82
   7   1  -4    4.64    2.43
  -6  -1   4   15.50    2.62
   6  -1  -4   17.50    2.42
  -6   1   4   17.90    2.72
   6   1  -4   18.15    2.54
   5  -1  -4   27.63    2.81
  -5  -1   4   29.70    3.29
   5  -1  -4   28.81    3.23
  -5   1   4   34.96    3.65
   5   1  -4   28.86    3.04
   4  -1  -4    3.64    1.43
   4  -1  -4    4.19    1.83
  -4  -1   4    5.17    1.66
   4   1  -4    4.67    1.59
   4   1  -4    2.06    1.57
  -4   1   4    5.62    1.73
   3  -1  -4  226.12    4.76
   3  -1  -4  232.17    4.60
  -3  -1   4  238.55    4.75
   3   1  -4  237.05    4.52
  -3   1   4  223.24    4.91
   3   1  -4  226.95    4.46
   2  -1  -4    6.38    1.12
  -2  -1   4    3.94    1.24
   2  -1  -4    8.43    1.44
   2   1  -4    6.60    0.96
  -2   1   4    8.35    1.39
   2   1  -4    5.82    1.08
  -1  -1   4 1000.00   14.31
   1  -1  -4  950.72   13.17
  -1  -1   4  960.23   13.02
   1  -1  -4  963.83   13.10
   1   1  -4  943.65   12.96
   1   1  -4  977.65   12.82
  -1   1   4  965.28   13.20
   0  -1   4   51.99    2.19
   0  -1  -4   51.48    2.07
   0   1  -4   53.63    1.99
   0   1   4   49.93    2.18
  -1  -1  -4  501.39    7.41
   1  -1   4  509.08    7.54
   1   1   4  508.39    7.48
  -1   1  -4  500.70    7.46
  -2  -1  -4    0.62    1.14
   2  -1   4    0.80    1.28
  -2   1  -4    0.75    1.12
   2   1   4    1.65    1.19
  -3  -1  -4   47.98    2.95
   3  -1   4   49.27    3.19
  -3   1  -4   48.86    2.92
   3   1   4   52.62    3.00
   4  -1   4   14.89    2.02
  -4  -1  -4   18.84    2.07
  -4   1  -4   24.36    3.18
   4   1   4   12.87    1.86
  -5  -1  -4   11.98    2.24
   5  -1   4    8.74    2.12
  -5   1  -4    9.58    2.09
  -6  -1  -4    7.73    2.53
  -6   1  -4    6.01    2.26
  -7  -1  -4    2.21    2.78
  -7   1  -4   -2.56    2.55
  -7  -2   4    9.72    2.90
   7  -2  -4    9.41    2.51
  -7   2   4   10.49    3.16
   7   2  -4    4.93    2.58
   6  -2  -4   16.18    2.39
  -6  -2   4   19.53    2.67
   6  -2  -4   17.22    2.66
  -6   2   4   19.95    2.88
   6   2  -4   20.16    2.69
   5  -2  -4   20.98    2.49
   5  -2  -4   18.62    2.18
  -5  -2   4   21.36    3.06
   5   2  -4   24.13    2.51
  -5   2   4   20.23    2.52
  -4  -2   4    0.45    1.61
   4  -2  -4    4.89    1.46
   4  -2  -4    3.43    1.65
   4  -2  -4    1.52    1.40
  -4   2   4    1.36    1.78
   4   2  -4    2.86    1.63
  -3  -2   4   12.83    1.56
   3  -2  -4   12.15    1.94
   3  -2  -4   12.66    1.48
   3  -2  -4   12.93    1.61
   3   2  -4   15.54    2.00
  -3   2   4   15.64    1.71
  -2  -2   4   39.39    2.16
   2  -2  -4   33.97    2.06
   2  -2  -4   40.33    1.96
   2  -2  -4   33.92    2.35
  -2  -2   4   36.71    2.00
   2   2  -4   37.03    1.82
  -2   2   4   35.35    2.54
   1  -2  -4    1.54    1.02
   1  -2  -4    0.52    0.93
  -1  -2   4   -0.11    1.10
  -1  -2   4    0.85    0.90
   1  -2  -4   -0.23    0.90
  -1   2   4   -0.74    1.29
   0  -2   4   28.66    1.84
   0  -2   4   25.98    2.51
   0  -2  -4   29.66    1.87
   0   2   4   25.96    1.92
  -1  -2  -4   45.69    2.18
   1  -2   4   45.22    2.37
   1   2   4   45.81    2.22
  -1   2  -4   46.14    2.20
   2  -2   4   89.43    3.13
  -2  -2  -4   90.40    2.84
  -2   2  -4   92.59    3.02
   2   2   4   87.68    2.91
   3  -2   4   21.14    2.97
  -3  -2  -4   20.61    2.53
  -3   2  -4   23.72    2.64
  -4  -2  -4   67.41    3.51
   4  -2   4   59.78    3.51
  -4   2  -4   66.57    3.55
   5  -2   4   12.31    2.34
  -5  -2  -4   17.21    2.43
  -5   2  -4   13.83    2.17
   6  -2   4    0.08    2.32
  -6  -2  -4   -2.29    2.33
  -6   2  -4    7.67    2.62
   7  -3  -4    7.71    2.44
  -7  -3   4   10.05    2.79
   7  -3  -4   13.61    2.92
   7   3  -4   10.85    2.84
  -6  -3   4   -0.37    2.27
   6  -3  -4   -3.95    1.78
   6  -3  -4    1.57    2.24
   6   3  -4   -0.28    2.24
   5  -3  -4   22.19    3.35
   5  -3  -4   19.92    2.79
  -5  -3   4   22.06    3.09
   5   3  -4   23.53    3.05
   4  -3  -4   17.12    2.03
   4  -3  -4   16.88    2.14
   4  -3  -4   14.06    1.86
  -4  -3   4   15.90    1.99
   4   3  -4   13.02    1.96
  -4   3   4   17.83    2.16
   3  -3  -4    1.86    1.41
   3  -3  -4    0.01    1.26
   3  -3  -4    1.91    1.36
  -3  -3   4    0.99    1.29
   3   3  -4    2.34    1.34
  -3   3   4    0.07    1.48
   2  -3  -4  101.12    3.06
   2  -3  -4  102.81    3.21
  -2  -3   4   98.79    3.36
   2  -3  -4  102.02    2.86
  -2   3   4  102.98    3.22
   2   3  -4   96.97    2.29
   1  -3  -4    9.34    1.40
  -1  -3   4    8.44    1.61
   1  -3  -4   11.31    1.18
  -1   3   4   11.37    1.26
   0  -3   4   38.62    2.85
   0  -3  -4   42.41    2.00
   0  -3   4   44.70    1.90
   0  -3  -4   44.21    2.65
  -1  -3  -4   52.50    2.15
   1  -3   4   54.26    2.44
   1  -3   4   52.81    3.22
  -1   3  -4   48.08    2.07
  -2  -3  -4    2.52    1.24
   2  -3   4    0.38    1.49
  -2   3  -4    2.35    1.29
  -3  -3  -4    6.36    1.59
   3  -3   4    8.31    1.75
  -4  -3  -4    0.55    1.74
   4  -3   4    2.72    1.88
   5  -3   4    1.77    1.92
  -5  -3  -4    1.53    2.11
   5  -3   4   -0.41    2.18
  -6  -3  -4    2.37    2.35
   6  -3   4   -2.98    1.99
   6  -3   4    0.84    2.42
   6  -4  -4    3.49    2.51
  -6  -4   4   -0.17    2.19
   6  -4  -4   -0.46    1.90
  -5  -4   4    0.13    1.93
   5  -4  -4    3.41    2.17
   5  -4  -4    1.36    1.83
  -4  -4   4    7.31    1.72
   4  -4  -4    5.47    1.90
   4  -4  -4    5.65    1.93
   4  -4  -4    6.50    1.81
   3  -4  -4    2.67    1.68
   3  -4  -4    1.42    1.56
   3  -4  -4    0.44    1.40
   2  -4  -4    1.83    1.61
   2  -4  -4    2.30    1.25
  -2  -4   4    2.90    1.78
   2  -4  -4    0.64    1.30
   1  -4  -4    9.44    1.35
   1  -4  -4   11.07    1.74
  -1  -4   4   10.48    2.04
   0  -4   4    5.91    1.95
   0  -4  -4    6.01    1.68
   0  -4  -4    4.84    1.15
   1  -4   4   -0.43    1.96
   1  -4   4    0.59    1.41
  -1  -4  -4    0.04    1.17
  -2  -4  -4   23.41    2.25
   2  -4   4   20.58    1.85
   2  -4   4   24.99    2.55
   2  -4   4   22.82    3.47
   3  -4   4    1.02    1.48
   3  -4   4   -0.86    1.63
   3  -4   4    0.16    2.44
  -3  -4  -4    0.15    1.59
  -4  -4  -4    3.41    1.89
   4  -4   4    1.16    2.05
   4  -4   4    1.31    1.74
   5  -4   4    5.01    2.06
  -5  -4  -4    4.76    2.19
   5  -4   4    4.67    2.37
   6  -4   4    0.39    2.64
  -6  -4  -4   -2.45    2.27
   6  -4   4   -1.87    2.04
   6  -5  -4    9.72    2.80
   6  -5  -4    2.27    2.17
  -6  -5   4    2.98    2.10
   5  -5  -4   -2.86    1.80
   5  -5  -4    1.94    2.26
  -5  -5   4   -2.17    1.70
   4  -5  -4    5.89    1.93
   4  -5  -4    2.48    2.07
   4  -5  -4    6.19    2.18
   3  -5  -4   -1.01    1.75
   3  -5  -4    2.35    1.63
   3  -5  -4    1.33    1.94
  -2  -5   4    3.73    2.14
   2  -5  -4    5.26    1.92
   2  -5  -4    5.58    1.65
  -1  -5   4   17.36    2.57
   1  -5  -4   17.72    2.85
   1  -5  -4   16.75    2.35
   0  -5  -4   10.36    2.16
   0  -5   4    9.30    2.37
   1  -5   4   19.45    2.24
   1  -5   4   17.17    2.65
   2  -5   4   21.01    2.83
   2  -5   4   21.12    3.15
   3  -5   4    0.25    2.68
   3  -5   4    2.26    1.98
  -3  -5  -4    0.30    1.64
   4  -5   4   13.00    3.27
  -4  -5  -4    6.84    1.89
   4  -5   4    9.03    2.49
   5  -5   4   -0.19    2.54
   5  -5   4   -1.40    3.01
  -5  -5  -4    1.49    2.01
   5  -6  -4    3.07    2.65
   4  -6  -4   -0.89    2.30
   4  -6  -4    2.55    2.34
   3  -6  -4    4.36    2.15
   3  -6  -4    4.00    2.34
  -2  -6   4    0.36    2.32
   2  -6  -4    2.03    1.81
   2  -6  -4    2.19    2.19
  -1  -6   4   -1.54    2.19
   1  -6  -4    0.57    2.16
   1  -6  -4    2.79    1.72
   0  -6  -4   -0.28    2.14
   0  -6   4    0.79    2.51
   1  -6   4    0.77    2.50
   2  -6   4   31.33    4.00
   2  -6   4   38.01    3.00
   3  -6   4   -3.82    2.63
   3  -6   4    0.54    2.25
   4  -6   4    0.69    2.46
   4  -6   4    7.86    3.21
   4  -7  -4    1.76    2.66
   4  -7  -4    6.79    2.63
   3  -7  -4    3.15    2.67
   3  -7  -4    5.24    2.41
   2  -7  -4    5.45    2.60
   2  -7  -4    6.28    2.28
  -2  -7   4   -0.73    2.53
   1  -7  -4   11.18    2.75
  -1  -7   4    6.02    2.75
   0  -7   4    2.50    2.92
   0  -7  -4   -0.24    2.59
   1  -7   4   17.05    3.40
   2  -7   4    1.33    2.97
   2  -7   4    0.05    2.17
   3  -7   4    1.17    3.06
   3  -7   4    5.47    2.59
  -1  -8   4   -1.86    3.16
   1  -8  -4    1.40    2.74
   0  -8   4    1.27    3.21
   1  -8   4    0.28    3.19
   7   0  -5    3.97    2.28
  -7   0   5    0.49    2.61
  -6   0   5   -1.11    2.35
   6   0  -5   -1.10    1.94
  -5   0   5    1.61    2.04
   5   0  -5   -0.15    1.67
   4   0  -5    0.14    1.38
   4   0  -5    0.88    1.64
  -4   0   5    0.91    1.72
   3   0  -5    0.58    1.14
  -3   0   5    0.32    1.42
   3   0  -5   -0.52    1.39
   2   0  -5   -0.83    1.20
   2   0  -5   -0.95    0.96
  -2   0   5   -0.44    1.23
   1   0  -5    0.46    0.84
  -1   0   5   -0.12    1.07
   1   0  -5    0.37    1.19
   0   0  -5    0.50    0.99
   0   0   5   -0.26    1.11
  -1   0  -5    0.81    1.02
   1   0   5    0.23    1.15
   2   0   5   -1.39    1.23
  -2   0  -5   -0.79    1.16
  -3   0  -5   -1.26    1.37
   3   0   5    1.60    1.45
  -4   0  -5   -0.19    1.64
   4   0   5   -0.03    1.81
  -5   0  -5   -3.22    1.91
  -6   0  -5    1.10    2.26
  -7   0  -5   -4.67    2.47
   7  -1  -5    1.26    2.21
  -7  -1   5   -2.21    2.53
  -7   1   5    1.63    2.74
   7   1  -5   -0.67    2.33
  -6  -1   5    1.58    2.32
   6  -1  -5   -1.01    1.85
   6   1  -5    4.40    2.14
  -6   1   5   -0.35    2.28
   5  -1  -5   -2.92    1.49
  -5  -1   5   -2.57    2.02
   5  -1  -5    1.90    1.74
   5   1  -5   -2.24    1.70
  -5   1   5   -0.27    2.00
   4  -1  -5   18.56    1.97
  -4  -1   5   19.23    2.10
   4  -1  -5   16.72    1.79
   4   1  -5   18.88    2.47
  -4   1   5   20.21    2.20
   3  -1  -5   13.71    1.58
  -3  -1   5   12.56    1.66
   3  -1  -5   13.04    1.45
   3   1  -5   14.69    2.07
   3   1  -5   11.85    1.32
  -3   1   5   14.39    1.77
   2  -1  -5   -0.47    1.00
   2  -1  -5   -2.25    1.03
  -2  -1   5   -0.48    1.24
   2   1  -5   -0.22    1.19
  -2   1   5    0.00    1.29
   2   1  -5    1.15    0.95
   1  -1  -5   53.44    2.14
  -1  -1   5   48.58    1.97
  -1  -1   5   57.91    2.24
   1  -1  -5   51.48    2.29
   1   1  -5   51.96    1.71
  -1   1   5   55.05    2.44
   1   1  -5   48.47    2.08
   0  -1  -5   25.10    2.04
   0  -1   5   24.23    2.11
   0   1  -5   23.50    1.96
   0   1   5   27.26    2.15
   1  -1   5   -0.22    1.16
  -1  -1  -5   -0.41    1.05
  -1   1  -5    0.69    1.00
   1   1   5    0.63    1.10
  -2  -1  -5   77.63    2.83
   2  -1   5   77.47    3.11
  -2   1  -5   75.76    2.95
   2   1   5   78.01    2.94
  -3  -1  -5    2.92    1.44
   3  -1   5    3.19    1.57
  -3   1  -5    1.49    1.45
   3   1   5   -0.27    1.39
  -4  -1  -5    2.57    1.76
   4  -1   5   -1.77    1.81
  -4   1  -5   -1.21    1.55
   5  -1   5   16.20    2.37
  -5  -1  -5   23.55    3.53
  -5   1  -5   18.00    2.38
  -6  -1  -5    0.42    2.40
  -6   1  -5    0.66    2.11
  -7  -2   5   26.99    3.42
   7  -2  -5   22.83    3.31
  -7   2   5   31.72    3.53
   7   2  -5   25.17    3.56
   6  -2  -5    0.72    2.11
   6  -2  -5    4.62    1.96
  -6  -2   5    0.60    2.21
  -6   2   5   -0.19    2.28
   6   2  -5    1.41    2.15
   5  -2  -5   20.70    2.77
   5  -2  -5   25.47    2.58
  -5  -2   5   24.27    2.59
  -5   2   5   19.26    2.49
   5   2  -5   24.40    2.84
   4  -2  -5   28.95    3.10
   4  -2  -5   33.68    2.62
  -4  -2   5   31.42    2.81
   4  -2  -5   34.88    2.31
   4   2  -5   42.01    2.70
  -4   2   5   32.59    3.51
  -3  -2   5   39.56    2.47
   3  -2  -5   44.62    2.83
   3  -2  -5   48.00    2.46
   3  -2  -5   48.88    2.12
   3   2  -5   50.30    2.35
  -3   2   5   48.62    3.11
  -2  -2   5   31.93    2.12
  -2  -2   5   30.59    2.12
  -2  -2   5   30.06    2.07
   2  -2  -5   30.96    2.34
   2  -2  -5   29.51    1.88
   2  -2  -5   28.99    2.06
   2   2  -5   33.16    1.73
  -2   2   5   32.29    2.55
  -1  -2   5  137.37    2.90
  -1  -2   5  131.58    3.36
   1  -2  -5  143.44    3.27
   1  -2  -5  134.02    3.15
  -1   2   5  137.88    3.18
   0  -2  -5   22.74    2.04
   0  -2   5   26.45    2.02
   0   2   5   26.42    2.12
   0   2  -5   22.82    1.78
   1  -2   5   52.35    2.50
  -1  -2  -5   46.41    2.37
  -1   2  -5   54.69    2.26
   1   2   5   49.02    2.38
   2  -2   5   16.59    2.53
  -2  -2  -5   21.26    2.20
  -2   2  -5   19.41    2.37
   2   2   5   18.62    2.28
   3  -2   5   -0.10    1.68
  -3  -2  -5    1.84    1.44
  -3   2  -5   -1.35    1.30
  -4  -2  -5    1.19    1.82
   4  -2   5    0.50    1.91
  -4   2  -5    2.20    1.92
   5  -2   5    0.53    2.01
  -5  -2  -5   -1.57    2.09
  -5   2  -5    2.16    2.18
   6  -2   5    9.34    2.68
  -6  -2  -5    4.34    2.63
  -7  -3   5   -2.10    2.47
   7  -3  -5    2.13    2.58
   7  -3  -5    2.04    2.20
   7   3  -5   -1.14    2.49
  -6  -3   5   36.07    3.38
   6  -3  -5   30.71    3.87
   6  -3  -5   29.05    3.14
   6   3  -5   29.46    3.33
   5  -3  -5    0.60    1.63
   5  -3  -5    0.89    1.98
  -5  -3   5    0.09    1.99
   5   3  -5    2.10    1.93
   4  -3  -5   14.73    1.84
   4  -3  -5   15.64    2.17
  -4  -3   5   12.30    1.89
   4  -3  -5   14.49    1.77
   4   3  -5   14.33    1.86
  -4   3   5   17.95    2.29
  -3  -3   5   13.80    1.58
   3  -3  -5   16.56    2.24
   3  -3  -5   14.33    1.82
   3  -3  -5   14.51    2.12
   3   3  -5   12.54    1.46
  -3   3   5   17.67    1.85
   2  -3  -5   -0.60    1.10
   2  -3  -5   -0.41    1.19
   2  -3  -5   -0.22    1.15
  -2  -3   5    0.80    1.45
  -2  -3   5    0.84    1.11
  -2  -3   5    0.21    0.96
  -2   3   5    1.70    1.51
  -2   3   5    1.51    1.30
   2   3  -5   -0.36    0.82
  -1  -3   5   69.19    2.89
   1  -3  -5   67.60    2.74
   1  -3  -5   69.15    2.53
  -1   3   5   65.73    2.48
   0  -3   5   90.00    2.43
   0  -3   5   77.59    3.42
   0  -3  -5   90.97    2.60
  -1  -3  -5   63.54    2.45
   1  -3   5   67.18    3.56
   1  -3   5   64.57    2.60
  -1   3  -5   61.14    2.38
  -2  -3  -5   13.87    1.53
   2  -3   5   14.11    1.76
   3  -3   5   30.35    3.32
  -3  -3  -5   32.38    2.70
  -4  -3  -5   24.42    3.17
   4  -3   5   25.33    3.28
  -5  -3  -5   19.44    2.68
   5  -3   5   18.10    2.63
   6  -3   5    3.09    2.57
   6  -3   5    5.90    2.21
  -6  -3  -5    3.20    2.47
   6  -4  -5    5.30    2.07
   6  -4  -5   -0.51    2.45
  -6  -4   5    3.05    2.28
  -5  -4   5   61.02    3.16
   5  -4  -5   49.77    3.40
   5  -4  -5   56.02    3.87
  -4  -4   5    2.44    1.65
   4  -4  -5    5.65    2.02
   4  -4  -5    6.78    1.86
   4  -4  -5    5.40    1.76
   3  -4  -5  169.65    4.28
   3  -4  -5  169.81    4.66
   3  -4  -5  163.21    4.49
   2  -4  -5   24.70    2.46
  -2  -4   5   27.08    2.95
   2  -4  -5   29.17    2.38
   2  -4  -5   31.43    2.63
   1  -4  -5   60.31    3.04
   1  -4  -5   61.52    2.63
  -1  -4   5   57.19    3.33
   0  -4  -5   18.04    2.11
   0  -4   5   18.89    2.93
   0  -4   5   20.26    1.89
  -1  -4  -5    3.29    1.33
   1  -4   5    4.71    1.47
   1  -4   5    2.77    2.17
   2  -4   5   -1.40    2.34
  -2  -4  -5    2.80    1.47
   2  -4   5    0.74    1.76
   3  -4   5    4.38    1.53
  -3  -4  -5    3.75    1.72
   3  -4   5    2.08    1.79
   4  -4   5    4.20    1.77
   4  -4   5    2.93    2.06
  -4  -4  -5    4.99    2.16
   5  -4   5    1.89    2.33
   5  -4   5   -2.65    1.92
  -5  -4  -5   -0.86    2.17
   6  -4   5    5.24    2.81
   6  -4   5    0.04    2.20
  -6  -4  -5    3.39    2.55
   6  -5  -5    4.56    2.15
  -6  -5   5    3.77    2.14
   6  -5  -5    6.39    2.85
   5  -5  -5    0.01    2.31
  -5  -5   5    1.75    1.84
   5  -5  -5   -0.81    1.82
   4  -5  -5    6.84    2.22
   4  -5  -5    6.18    2.25
   4  -5  -5    3.44    1.86
   3  -5  -5    0.84    1.96
   3  -5  -5   -0.76    1.78
   3  -5  -5    0.95    1.61
   2  -5  -5   14.58    2.17
   2  -5  -5   16.98    2.54
  -2  -5   5   10.85    2.57
   1  -5  -5   38.90    3.23
  -1  -5   5   37.27    3.68
   1  -5  -5   35.27    2.55
   0  -5  -5    6.62    1.57
   0  -5   5   10.77    2.50
   1  -5   5   89.00    3.08
   1  -5   5   87.27    4.57
  -1  -5  -5   86.72    2.77
   2  -5   5    8.74    1.91
  -2  -5  -5    5.56    1.53
   2  -5   5    9.88    3.02
   3  -5   5   31.58    3.29
   3  -5   5   30.82    4.10
   4  -5   5   21.60    3.66
  -4  -5  -5   13.42    2.33
   4  -5   5   18.23    2.72
  -5  -5  -5    2.06    2.16
   5  -5   5    2.02    2.58
   5  -5   5    1.55    3.27
   5  -6  -5   16.34    3.00
   4  -6  -5   15.26    2.70
   3  -6  -5   42.05    3.21
   3  -6  -5   37.56    3.46
   2  -6  -5   20.37    2.89
   2  -6  -5   16.05    2.65
  -2  -6   5    7.75    2.63
   1  -6  -5   22.46    2.59
  -1  -6   5   16.81    3.02
   1  -6  -5   15.46    2.60
   0  -6   5    8.18    2.84
   1  -6   5    3.61    2.71
   2  -6   5    3.02    2.08
   2  -6   5   -0.29    2.67
   3  -6   5    3.58    3.09
   3  -6   5   -1.02    2.27
   4  -6   5   -0.87    2.48
   4  -6   5    2.78    3.13
   3  -7  -5    0.67    2.37
   3  -7  -5   -0.78    2.46
  -2  -7   5   -1.12    2.54
   2  -7  -5    0.44    2.52
   2  -7  -5   -2.77    2.10
  -1  -7   5    0.74    2.68
   1  -7  -5    4.78    2.57
   0  -7   5    4.78    3.17
   1  -7   5    6.56    3.17
   2  -7   5    6.84    3.29
   2  -7   5   16.26    2.50
   3  -7   5    1.85    2.57
   3  -7   5    6.86    3.38
  -1  -8   5   -0.82    3.06
   1  -8  -5   -1.42    2.82
   0  -8   5    3.56    3.30
   1  -8   5    1.20    3.48
  -7   0   6   20.50    3.26
   7   0  -6    5.05    2.42
   6   0  -6    3.01    2.03
  -6   0   6   -0.90    2.27
   5   0  -6   -0.77    1.61
  -5   0   6    1.84    2.07
   4   0  -6   50.02    3.08
   4   0  -6   51.68    2.88
  -4   0   6   50.72    3.46
   3   0  -6   16.95    1.59
   3   0  -6   13.32    2.05
  -3   0   6   17.32    1.77
  -2   0   6  282.35    5.20
   2   0  -6  287.71    5.12
  -2   0   6  288.36    5.20
   2   0  -6  283.11    4.84
  -1   0   6   94.98    2.88
   1   0  -6   97.14    2.74
   0   0  -6   62.46    2.57
   0   0   6   65.40    2.72
   1   0   6   31.54    2.53
  -1   0  -6   31.00    2.36
  -2   0  -6  275.58    5.27
   2   0   6  279.26    5.35
   3   0   6    1.33    1.63
  -3   0  -6    0.93    1.41
   4   0   6  189.13    5.41
  -4   0  -6  196.31    5.31
  -5   0  -6    3.38    2.10
  -6   0  -6   34.36    4.21
   7  -1  -6   25.72    3.33
  -7  -1   6   25.98    3.36
  -7   1   6   33.36    4.52
   7   1  -6   25.02    3.42
  -6  -1   6   32.88    3.85
   6  -1  -6   28.71    3.18
  -6   1   6   28.03    3.13
   6   1  -6   28.15    3.25
   5  -1  -6  133.43    4.52
   5  -1  -6  123.07    4.17
  -5  -1   6  127.68    4.59
  -5   1   6  128.71    4.92
   5   1  -6  134.90    4.30
   4  -1  -6   31.32    2.60
  -4  -1   6   33.50    3.12
   4  -1  -6   30.41    2.97
   4   1  -6   35.67    2.65
  -4   1   6   30.07    3.44
  -3  -1   6   99.43    3.16
   3  -1  -6   98.67    3.26
   3  -1  -6   95.95    2.93
   3   1  -6   96.71    2.95
   3   1  -6   95.74    3.01
  -3   1   6   98.42    3.50
  -2  -1   6   17.39    2.27
   2  -1  -6   16.49    1.42
  -2  -1   6   16.03    2.29
   2  -1  -6   15.09    1.93
   2   1  -6   14.16    1.71
   2   1  -6   15.93    1.26
  -2   1   6   18.66    2.45
  -2   1   6   17.12    1.67
  -1  -1   6    1.72    1.19
   1  -1  -6   -0.41    0.99
  -1  -1   6    1.98    1.03
  -1   1   6    1.12    1.18
   1   1  -6   -0.25    0.99
   0  -1  -6    0.29    1.09
   0  -1   6    1.53    1.23
   0   1   6    1.94    1.24
   0   1  -6    2.18    1.02
  -1  -1  -6   13.66    1.41
   1  -1   6   10.74    1.47
   1   1   6   11.62    1.39
  -1   1  -6   11.37    1.29
   2  -1   6   13.68    1.66
  -2  -1  -6   14.50    2.28
   2   1   6   15.06    1.61
  -2   1  -6   16.49    2.25
   3  -1   6   10.50    1.89
  -3  -1  -6    0.91    1.50
  -3   1  -6    3.60    1.59
   3   1   6    2.32    1.53
   4  -1   6   55.46    3.90
  -4  -1  -6   58.13    3.76
  -4   1  -6   47.74    3.62
  -5  -1  -6   15.38    2.57
   5  -1   6   13.86    2.38
  -5   1  -6   14.57    2.35
  -6  -1  -6   46.83    4.32
  -6   1  -6   57.82    4.39
   7  -2  -6    4.61    2.27
  -7  -2   6    3.24    2.74
  -7   2   6    5.81    2.92
   7   2  -6    2.06    2.47
  -6  -2   6    0.28    2.30
   6  -2  -6    3.62    2.22
   6  -2  -6    2.67    1.92
  -6   2   6   -0.47    2.35
   6   2  -6    1.14    2.17
   5  -2  -6    0.39    1.58
  -5  -2   6    0.09    2.07
   5  -2  -6    2.06    1.90
  -5   2   6    0.30    2.02
   5   2  -6    0.96    1.89
   4  -2  -6   28.44    2.59
  -4  -2   6   28.79    2.84
   4  -2  -6   31.25    3.14
  -4   2   6   30.79    3.56
   4   2  -6   28.86    2.69
   3  -2  -6   35.03    2.36
   3  -2  -6   36.03    2.77
  -3  -2   6   39.16    2.51
   3  -2  -6   35.26    1.93
   3   2  -6   42.13    2.27
  -3   2   6   32.74    3.02
   2  -2  -6   55.65    2.34
   2  -2  -6   54.94    2.54
  -2  -2   6   56.53    2.36
   2  -2  -6   57.43    2.17
  -2  -2   6   55.35    2.40
   2   2  -6   58.00    2.01
  -2   2   6   51.61    2.83
   2   2  -6   56.63    2.18
  -2   2   6   56.56    2.71
  -1  -2   6   32.74    2.07
   1  -2  -6   27.54    2.26
  -1  -2   6   27.75    2.25
  -1   2   6   25.00    2.30
   0  -2  -6  150.52    3.43
   0  -2   6  154.26    3.34
   0   2   6  149.54    3.49
   0   2  -6  153.60    3.16
  -1  -2  -6   10.14    1.37
   1  -2   6   10.69    1.51
  -1   2  -6   10.34    1.41
   1   2   6   11.01    1.58
  -2  -2  -6   72.40    2.85
   2  -2   6   71.16    3.16
  -2   2  -6   71.89    2.90
   2   2   6   67.77    2.92
   3  -2   6   33.83    3.20
  -3  -2  -6   28.91    2.79
  -3   2  -6   34.60    3.05
   4  -2   6   45.97    3.91
  -4  -2  -6   52.62    3.65
  -4   2  -6   50.21    3.52
   5  -2   6    6.51    2.30
  -5  -2  -6    8.37    2.44
  -5   2  -6    7.15    2.42
   6  -2   6   -0.64    2.52
  -6  -2  -6    3.78    2.68
   7  -3  -6    4.13    2.28
  -7  -3   6    4.19    2.71
   7  -3  -6   14.09    3.13
   7   3  -6    9.18    2.61
   6  -3  -6   30.60    3.31
  -6  -3   6   24.84    3.28
   6  -3  -6   29.60    3.08
   6   3  -6   32.00    3.37
   5  -3  -6    1.14    1.63
   5  -3  -6    1.04    2.13
  -5  -3   6    1.62    2.04
   5   3  -6    2.08    1.99
  -4  -3   6   48.73    2.86
   4  -3  -6   43.47    3.04
   4  -3  -6   47.70    3.44
   4   3  -6   56.31    2.83
  -4   3   6   52.16    3.75
   3  -3  -6   15.54    1.69
  -3  -3   6   15.76    2.38
   3  -3  -6   18.15    2.32
  -3  -3   6   16.30    2.20
   3  -3  -6   15.30    1.95
   3   3  -6   14.66    1.97
  -3   3   6   13.28    1.88
   2  -3  -6    2.63    1.26
  -2  -3   6    2.83    1.54
  -2  -3   6    0.39    1.25
   2  -3  -6    1.55    1.20
   2  -3  -6    0.70    1.18
   2   3  -6   -0.89    0.77
  -2   3   6    2.77    1.62
   1  -3  -6   52.92    2.48
  -1  -3   6   56.65    2.28
  -1  -3   6   58.20    2.93
  -1   3   6   54.29    2.58
   0  -3   6    6.51    1.33
   0  -3  -6    7.64    1.29
   0  -3   6    7.06    1.86
   0   3   6    7.83    1.33
  -1  -3  -6    1.05    1.26
   1  -3   6    0.80    1.36
   2  -3   6   -0.13    1.61
  -2  -3  -6    1.83    1.42
   3  -3   6    2.04    2.00
  -3  -3  -6    6.03    1.72
  -4  -3  -6    0.51    2.06
   4  -3   6    5.19    2.11
   5  -3   6    5.65    2.33
  -5  -3  -6    6.77    2.50
   6  -3   6    5.00    2.70
   6  -3   6    8.99    2.35
  -6  -3  -6    8.45    2.67
  -6  -4   6   -3.24    2.12
   6  -4  -6   -0.07    1.98
   6  -4  -6   -1.53    2.48
  -5  -4   6    4.46    1.97
   5  -4  -6    1.96    1.83
   5  -4  -6    2.47    2.34
   4  -4  -6    3.59    1.70
  -4  -4   6   -0.80    1.63
  -4  -4   6    1.91    1.96
   4  -4  -6    4.02    2.01
   3  -4  -6    3.66    1.64
   3  -4  -6    2.81    1.55
   3  -4  -6    1.07    1.71
   2  -4  -6    2.99    1.62
   2  -4  -6    5.23    1.47
  -2  -4   6    0.31    1.77
   1  -4  -6    5.46    1.65
   1  -4  -6    4.74    1.42
  -1  -4   6    4.87    2.00
   0  -4   6    5.51    1.35
   0  -4  -6    3.40    1.36
   0  -4   6    4.46    2.03
   1  -4   6    7.99    1.68
  -1  -4  -6    8.79    1.58
   1  -4   6   11.47    2.50
   2  -4   6    5.82    1.84
  -2  -4  -6    3.49    1.60
   2  -4   6    1.81    2.57
   3  -4   6   22.42    3.30
  -3  -4  -6   19.20    2.71
   4  -4   6    3.93    2.19
  -4  -4  -6    8.79    2.36
   4  -4   6    3.68    1.83
   5  -4   6   11.63    2.66
  -5  -4  -6    8.30    2.41
   5  -4   6   12.94    2.33
   5  -5  -6   -1.73    1.84
   5  -5  -6   -0.24    2.38
   4  -5  -6    1.42    1.79
   4  -5  -6    0.11    2.12
   3  -5  -6    0.36    1.85
   3  -5  -6    0.20    1.80
  -3  -5   6   -2.03    2.12
   3  -5  -6    2.07    1.72
   2  -5  -6    7.34    1.81
   2  -5  -6    8.87    2.09
  -2  -5   6    2.15    2.10
   1  -5  -6   -0.20    1.82
   1  -5  -6   -0.57    1.54
  -1  -5   6   -0.20    2.27
   0  -5  -6    6.10    1.65
   0  -5   6    3.99    2.48
  -1  -5  -6    0.45    1.63
   1  -5   6    0.87    1.81
   1  -5   6    3.56    2.60
  -2  -5  -6    2.21    1.69
   2  -5   6    1.10    1.92
   2  -5   6    1.46    2.76
  -3  -5  -6    0.62    1.73
   3  -5   6    0.05    2.95
   3  -5   6   -2.23    2.01
   4  -5   6   -1.30    3.05
   4  -5   6    5.42    2.43
  -4  -5  -6   -1.15    1.99
   5  -5   6   -1.39    2.63
  -5  -5  -6    2.57    2.29
   5  -5   6    2.80    3.31
   5  -6  -6    0.80    1.97
   5  -6  -6   -2.38    2.55
   4  -6  -6   -0.01    1.96
   4  -6  -6    1.57    2.33
   3  -6  -6    2.22    2.26
  -3  -6   6   -2.62    2.43
   3  -6  -6   -0.38    1.99
   2  -6  -6   14.35    2.58
  -2  -6   6   13.55    2.99
   2  -6  -6   21.22    2.87
   1  -6  -6    0.50    1.85
   1  -6  -6    1.03    2.13
  -1  -6   6    1.03    2.44
   0  -6  -6   11.91    1.97
   0  -6   6   13.24    3.10
   1  -6   6    8.24    1.89
   1  -6   6    4.98    2.97
   2  -6   6   10.47    3.18
   2  -6   6   14.52    2.39
   3  -6   6    1.20    3.15
   3  -6   6   -3.00    2.32
  -4  -6  -6   -0.53    1.85
   4  -6   6   -1.99    3.23
   4  -6   6    4.40    2.71
   3  -7  -6    3.33    2.54
   3  -7  -6    3.16    2.47
   2  -7  -6    1.05    2.45
   2  -7  -6    0.13    2.21
  -2  -7   6    0.27    2.72
  -1  -7   6    3.50    2.80
   1  -7  -6    2.18    2.09
   1  -7  -6    0.25    2.47
   0  -7   6    6.69    3.29
   1  -7   6    2.08    3.13
   2  -7   6    3.08    3.36
   2  -7   6    2.61    2.39
   3  -7   6    3.40    3.32
   3  -7   6    5.09    2.69
   0  -8   6   -2.26    3.37
   7   0  -7   -3.88    2.13
  -7   0   7   -0.54    2.68
   6   0  -7   -1.23    1.94
  -6   0   7    0.81    2.45
   5   0  -7    1.68    1.69
  -5   0   7    1.83    2.16
   4   0  -7   -0.94    1.34
   4   0  -7   -3.53    1.68
  -4   0   7    2.42    1.81
   3   0  -7   -1.43    1.10
   3   0  -7    0.63    1.39
  -3   0   7    0.51    1.54
   2   0  -7   -2.04    1.29
   2   0  -7   -0.15    0.97
  -2   0   7    0.29    1.34
  -1   0   7    0.37    1.25
   1   0  -7   -1.27    1.07
   0   0   7    0.00    1.33
   0   0  -7    1.35    1.20
   1   0   7   -1.79    1.26
  -1   0  -7    0.11    1.16
  -2   0  -7    0.99    1.29
   2   0   7    0.63    1.42
  -3   0  -7    0.90    1.54
   3   0   7    0.43    1.63
   4   0   7    0.47    1.95
  -4   0  -7   -0.55    1.91
  -5   0  -7   -0.35    2.11
  -6   0  -7   -2.05    2.44
  -7  -1   7    1.64    2.66
   7  -1  -7    1.51    2.28
   7   1  -7    0.37    2.35
  -7   1   7    3.40    2.74
   6  -1  -7    9.14    2.20
  -6  -1   7    9.55    2.62
  -6   1   7   10.04    2.76
   6   1  -7   13.46    2.43
   5  -1  -7    6.89    1.82
   5  -1  -7    7.74    2.12
  -5  -1   7    6.33    2.30
  -5   1   7    9.17    2.36
   5   1  -7    5.14    1.93
   4  -1  -7    1.74    1.34
   4  -1  -7    1.05    1.62
  -4  -1   7    2.91    1.82
   4   1  -7    0.34    1.47
  -4   1   7   -0.45    1.80
  -3  -1   7    2.35    1.61
   3  -1  -7    2.35    1.21
   3  -1  -7    1.07    1.30
   3   1  -7    4.44    1.53
   3   1  -7    0.97    1.17
  -3   1   7    3.38    1.58
  -2  -1   7   44.75    2.53
   2  -1  -7   43.74    2.19
   2  -1  -7   43.83    2.50
   2   1  -7   41.81    1.97
   2   1  -7   43.62    2.39
  -2   1   7   44.65    2.58
   1  -1  -7   -0.20    1.06
  -1  -1   7    0.34    1.25
  -1   1   7    0.05    1.27
   1   1  -7    0.45    1.09
   0  -1  -7   16.60    2.33
   0  -1   7   17.91    2.38
   0   1  -7   17.19    2.17
   0   1   7   16.10    1.60
   1  -1   7   13.51    1.60
  -1  -1  -7   14.16    1.52
  -1   1  -7   13.63    1.42
   1   1   7   17.43    2.42
  -2  -1  -7    3.56    1.36
   2  -1   7    7.78    1.62
   2   1   7    1.41    1.38
  -2   1  -7    6.28    1.37
  -3  -1  -7   14.27    1.86
   3  -1   7   12.57    2.04
   3   1   7   23.11    3.13
  -3   1  -7   14.99    1.85
  -4  -1  -7    1.81    1.99
   4  -1   7    1.81    2.10
  -4   1  -7    2.11    1.83
  -5  -1  -7    0.15    2.18
   5  -1   7   -0.16    2.17
  -5   1  -7    2.86    1.98
  -6  -1  -7    1.26    2.62
  -6   1  -7    3.59    2.41
  -7  -2   7   15.08    3.13
   7  -2  -7   21.31    2.84
   7   2  -7   16.55    2.85
  -7   2   7   14.48    3.36
  -6  -2   7   13.54    2.68
   6  -2  -7   10.75    2.17
   6  -2  -7   11.37    2.64
   6   2  -7   11.39    2.44
  -6   2   7   12.65    2.82
  -5  -2   7   16.93    2.43
   5  -2  -7   24.83    2.69
   5  -2  -7   20.37    2.75
   5   2  -7   20.85    2.92
  -5   2   7   18.12    2.66
  -4  -2   7    6.00    1.88
   4  -2  -7   10.06    1.66
   4  -2  -7    7.50    1.93
   4   2  -7    7.81    1.72
  -4   2   7    8.25    2.11
   3  -2  -7   74.28    3.21
  -3  -2   7   81.70    3.10
   3  -2  -7   75.63    2.84
  -3  -2   7   79.23    3.00
   3   2  -7   79.03    2.60
  -3   2   7   74.64    3.59
   2  -2  -7  103.00    2.92
  -2  -2   7   93.96    2.88
   2  -2  -7   92.96    3.15
  -2  -2   7   96.23    2.85
   2   2  -7   96.13    2.76
   2   2  -7   94.23    2.42
  -2   2   7   96.09    3.17
   1  -2  -7   98.17    2.97
  -1  -2   7  101.80    3.22
  -1  -2   7  102.90    2.90
  -1   2   7  101.59    3.17
   1   2  -7   98.58    2.82
   0  -2   7   32.60    2.33
   0  -2  -7   32.44    2.33
   0   2  -7   37.64    2.15
   0   2   7   30.13    2.60
   1  -2   7    1.66    1.40
  -1  -2  -7    0.96    1.25
   1   2   7   -0.47    1.48
  -1   2  -7   -0.02    1.05
   2  -2   7   12.80    1.82
  -2  -2  -7   14.44    1.68
  -2   2  -7   19.49    2.50
   2   2   7   13.47    1.84
   3  -2   7   14.87    2.23
  -3  -2  -7   17.63    2.01
  -3   2  -7   20.77    3.21
  -4  -2  -7   39.34    3.65
   4  -2   7   40.32    3.88
  -4   2  -7   42.60    3.59
  -5  -2  -7    4.29    2.33
   5  -2   7    3.24    2.29
  -6  -2  -7    9.42    2.91
   6  -2   7   12.08    2.81
  -6  -3   7    8.39    2.42
   6  -3  -7   10.89    2.79
   6  -3  -7   10.36    2.28
   6   3  -7    6.38    2.33
  -5  -3   7    7.48    2.19
   5  -3  -7   14.24    2.60
   5  -3  -7   11.39    2.11
   5   3  -7    9.64    2.13
   4  -3  -7   52.10    3.04
   4  -3  -7   56.14    3.60
  -4  -3   7   51.91    3.07
   4   3  -7   60.41    2.95
  -4   3   7   51.94    4.02
  -3  -3   7   16.11    2.46
   3  -3  -7   20.61    2.28
   3  -3  -7   18.28    1.99
   3  -3  -7   14.72    1.69
  -3   3   7   19.61    2.09
   3   3  -7   17.19    2.00
  -3   3   7   21.14    2.13
  -2  -3   7   33.91    2.30
   2  -3  -7   36.46    2.63
   2  -3  -7   36.39    2.33
  -2  -3   7   32.55    2.57
   2  -3  -7   35.39    2.33
  -2   3   7   30.08    2.59
   1  -3  -7   15.73    1.56
  -1  -3   7   15.87    2.18
  -1  -3   7   14.21    2.40
  -1   3   7   15.46    2.33
   0  -3   7   79.45    3.70
   0  -3  -7   78.58    2.82
   0  -3   7   78.20    2.75
   0   3   7   75.59    2.96
  -1  -3  -7   51.12    2.67
   1  -3   7   46.33    2.59
  -2  -3  -7   29.23    2.73
   2  -3   7   26.60    2.89
   3  -3   7    5.50    2.06
  -3  -3  -7    6.77    1.87
   4  -3   7    2.10    2.25
  -4  -3  -7    4.62    2.20
  -5  -3  -7   -0.14    2.40
   5  -3   7   -0.08    2.27
   6  -3   7    3.03    2.67
  -6  -3  -7    1.58    2.63
   6  -4  -7    0.12    2.56
  -6  -4   7   -1.19    2.24
   6  -4  -7    1.74    2.06
   5  -4  -7   47.73    3.36
   5  -4  -7   45.50    3.87
  -5  -4   7   51.83    3.12
  -4  -4   7    0.32    1.96
   4  -4  -7   -0.49    1.97
   4  -4  -7    1.29    1.54
   3  -4  -7    7.05    1.63
   3  -4  -7    5.63    1.78
   3  -4  -7    4.81    1.68
  -3  -4   7    5.74    1.65
  -3  -4   7    0.84    1.82
  -2  -4   7    1.90    1.80
   2  -4  -7    0.39    1.48
   2  -4  -7   -1.01    1.52
   1  -4  -7    6.45    1.50
  -1  -4   7    7.07    2.10
  -1  -4   7    4.84    1.45
   0  -4   7   20.64    3.37
   0  -4   7   18.28    2.30
   0  -4  -7   23.15    2.42
  -1  -4  -7    4.00    1.62
   1  -4   7    6.60    2.54
   1  -4   7    6.12    1.71
  -2  -4  -7   82.40    3.29
   2  -4   7   87.01    3.60
   2  -4   7   78.93    4.74
   3  -4   7    8.37    2.41
  -3  -4  -7   13.03    2.07
   4  -4   7   45.00    3.64
   5  -4   7   16.54    2.83
  -5  -4  -7   17.64    2.88
   5  -5  -7   17.44    2.34
  -5  -5   7   12.52    2.40
   5  -5  -7   16.40    2.89
   4  -5  -7   16.84    2.23
   4  -5  -7   21.72    2.65
   3  -5  -7   20.86    2.84
   3  -5  -7   19.50    2.41
  -3  -5   7   10.74    2.39
   2  -5  -7   24.05    2.87
   2  -5  -7   23.98    2.82
  -2  -5   7   20.28    2.84
   1  -5  -7   43.09    2.86
  -1  -5   7   40.53    3.88
   0  -5   7   19.17    2.38
   0  -5   7   23.75    3.75
   0  -5  -7   23.39    2.62
  -1  -5  -7   27.91    2.77
   1  -5   7   21.12    2.77
   1  -5   7   22.81    3.32
   2  -5   7   66.04    3.74
   2  -5   7   67.31    4.81
  -2  -5  -7   67.69    3.16
   3  -5   7    1.36    3.06
  -3  -5  -7   -0.01    2.03
   3  -5   7    0.47    2.16
   4  -5   7    0.17    3.13
   4  -5   7    4.65    2.44
  -4  -5  -7    1.88    2.17
   5  -5   7   -1.59    3.35
   5  -5   7   -3.79    2.59
  -5  -5  -7    1.68    2.29
   5  -6  -7   13.33    2.86
   4  -6  -7    3.09    2.36
   3  -6  -7    3.30    2.28
  -3  -6   7    3.20    2.47
   3  -6  -7    6.16    2.34
  -2  -6   7    1.46    2.40
   2  -6  -7   -2.56    2.02
   2  -6  -7    6.00    2.08
   1  -6  -7   -0.55    1.85
  -1  -6   7    0.69    2.50
   0  -6   7    3.79    2.73
   0  -6  -7   -0.82    1.98
   1  -6   7    0.75    2.89
   1  -6   7    4.70    1.93
  -1  -6  -7    1.10    1.63
   2  -6   7   11.06    3.38
   2  -6   7   10.16    2.30
  -3  -6  -7    5.56    1.91
   3  -6   7    9.09    3.57
   3  -6   7    9.70    2.66
   4  -6   7   25.96    3.80
   4  -6   7   21.78    4.07
  -4  -6  -7   12.79    2.24
   3  -7  -7   16.93    2.75
   2  -7  -7    3.90    2.59
   2  -7  -7    7.05    2.42
  -2  -7   7    3.75    2.85
   1  -7  -7    6.47    2.30
  -1  -7   7    6.93    2.83
   0  -7   7   12.44    3.63
   1  -7   7   11.77    3.52
   2  -7   7    5.32    2.38
   2  -7   7   -1.90    3.20
  -7   0   8   25.67    3.39
   7   0  -8   22.53    2.96
  -6   0   8   36.98    3.98
   6   0  -8   41.15    3.39
   5   0  -8   19.08    2.77
  -5   0   8   16.12    2.50
   4   0  -8   54.11    3.22
   4   0  -8   62.68    3.00
  -4   0   8   57.58    3.66
   3   0  -8   38.35    2.35
  -3   0   8   36.73    3.01
   3   0  -8   30.56    2.70
  -3   0   8   31.87    2.90
   2   0  -8  178.84    4.01
  -2   0   8  177.12    4.08
   2   0  -8  178.67    3.65
  -1   0   8   80.24    2.95
   1   0  -8   76.11    2.81
   0   0  -8  269.99    5.11
   0   0   8  278.65    5.23
  -1   0  -8   14.93    1.57
   1   0   8   17.29    2.58
   2   0   8  100.29    3.59
  -2   0  -8   99.53    3.38
  -3   0  -8   28.58    3.17
   3   0   8   29.77    3.32
  -4   0  -8    2.19    1.99
   4   0   8    3.52    2.11
  -5   0  -8    4.02    2.31
  -6   0  -8   -0.53    2.51
  -7  -1   8   21.28    3.14
   7  -1  -8   22.01    2.93
  -7   1   8   24.48    3.42
   7   1  -8   19.58    2.93
   6  -1  -8    2.46    1.92
  -6  -1   8    6.27    2.54
  -6   1   8    2.66    2.48
   6   1  -8    4.59    2.20
   5  -1  -8    1.81    2.00
  -5  -1   8    1.56    2.13
   5  -1  -8   -1.29    1.55
   5   1  -8    2.07    1.89
  -5   1   8    0.97    2.13
   4  -1  -8   10.85    1.95
  -4  -1   8   11.85    2.14
   4  -1  -8    8.62    1.66
   4   1  -8   10.80    1.72
  -4   1   8   10.80    2.20
  -3  -1   8    3.05    1.69
   3  -1  -8    1.42    1.16
   3  -1  -8    4.47    1.42
  -3  -1   8    4.51    1.68
  -3   1   8    3.21    1.67
  -3   1   8    1.61    1.67
   3   1  -8    0.23    1.25
   3   1  -8    2.34    1.48
   2  -1  -8    1.62    1.06
   2  -1  -8   -0.10    1.17
  -2  -1   8   -0.07    1.36
   2   1  -8    0.42    0.97
  -2   1   8   -0.03    1.39
   2   1  -8    0.54    1.30
  -1  -1   8   22.39    2.40
   1  -1  -8   19.84    2.30
   1   1  -8   16.49    2.26
  -1   1   8   24.26    2.53
   0  -1   8  108.00    3.30
   0  -1  -8  106.54    3.32
   0   1   8  103.86    3.45
   0   1  -8  106.75    3.20
   1  -1   8   74.17    3.05
  -1  -1  -8   70.04    2.95
   1   1   8   72.44    3.06
  -1   1  -8   70.15    2.90
  -2  -1  -8   96.24    3.45
   2  -1   8   99.69    3.63
   2   1   8   95.66    3.53
  -2   1  -8   98.56    3.38
  -3  -1  -8   74.48    3.49
   3  -1   8   75.05    3.84
   3   1   8   72.60    3.71
  -3   1  -8   74.61    3.62
   4  -1   8   11.07    2.38
  -4  -1  -8   10.66    2.25
  -4   1  -8    9.22    2.20
  -5  -1  -8   26.32    3.95
   5  -1   8   15.34    2.72
  -5   1  -8   31.73    3.79
  -6  -1  -8   -1.31    2.64
  -6   1  -8    7.85    2.73
  -7  -2   8   18.55    3.05
   7  -2  -8   13.59    2.55
   7   2  -8   14.99    2.83
  -7   2   8   13.52    3.23
   6  -2  -8   10.32    2.67
  -6  -2   8    8.56    2.48
   6  -2  -8   13.01    2.28
   6   2  -8    7.09    2.31
  -6   2   8   11.16    2.80
   5  -2  -8   17.11    2.20
   5  -2  -8   23.83    2.77
  -5  -2   8   22.28    3.25
   5   2  -8   20.31    2.99
  -5   2   8   23.94    2.74
   4  -2  -8   37.28    2.71
   4  -2  -8   36.91    3.28
  -4  -2   8   34.82    3.09
   4   2  -8   39.09    2.76
  -4   2   8   41.99    3.73
  -3  -2   8   27.25    2.67
   3  -2  -8   28.67    2.37
   3  -2  -8   34.32    2.74
  -3   2   8   29.20    3.24
   3   2  -8   24.01    2.18
  -3   2   8   28.42    2.96
   2  -2  -8   68.61    2.92
  -2  -2   8   69.35    2.87
   2  -2  -8   75.09    2.76
  -2  -2   8   68.86    2.57
   2   2  -8   68.42    2.19
  -2   2   8   68.54    2.98
  -1  -2   8   23.94    2.36
   1  -2  -8   21.58    2.34
  -1  -2   8   19.50    2.33
  -1   2   8   18.29    2.44
   1   2  -8   24.77    2.27
   0  -2   8  113.11    3.32
   0  -2  -8  113.81    3.30
   0   2  -8  114.71    3.08
   0   2   8  117.54    3.56
  -1  -2  -8   13.47    1.65
   1  -2   8   14.87    1.78
  -1   2  -8   15.83    2.23
   1   2   8   16.11    2.50
   2  -2   8   -0.04    1.61
  -2  -2  -8    0.71    1.49
  -2   2  -8    0.64    1.34
   2   2   8    1.71    1.75
   3  -2   8    3.00    2.01
  -3  -2  -8    2.71    1.76
  -3   2  -8    3.18    1.71
  -4  -2  -8    4.86    2.18
   4  -2   8    1.28    2.30
  -4   2  -8    4.59    1.93
  -5  -2  -8   11.47    2.68
   5  -2   8    8.37    2.52
   6  -2   8    1.46    2.52
  -6  -2  -8   -0.88    2.72
   6  -3  -8    7.03    2.72
  -6  -3   8    4.36    2.45
   6  -3  -8    5.01    2.17
   6   3  -8    3.54    2.28
  -5  -3   8    5.59    2.19
   5  -3  -8    7.55    1.89
   5  -3  -8   11.52    2.54
   5   3  -8    5.78    2.04
   4  -3  -8    8.04    1.71
  -4  -3   8    7.03    2.10
   4  -3  -8    7.19    2.07
   4   3  -8    6.00    1.67
   3  -3  -8   14.22    1.70
   3  -3  -8   16.55    1.94
  -3  -3   8    9.93    1.76
  -3  -3   8   17.22    1.93
  -3   3   8   12.16    2.24
   3   3  -8   15.20    1.94
  -2  -3   8    4.65    1.72
   2  -3  -8    4.98    1.54
  -2  -3   8    4.87    1.61
  -2   3   8    3.10    1.80
  -1  -3   8    8.66    1.79
  -1  -3   8    7.29    1.66
   1  -3  -8    7.52    1.51
  -1   3   8   11.62    1.63
   0  -3  -8   -1.20    1.35
   0  -3   8    2.91    1.54
   0  -3   8   -2.40    1.89
  -1  -3  -8   56.66    2.89
   1  -3   8   59.14    2.86
   2  -3   8    6.70    1.92
  -2  -3  -8    7.77    1.75
   3  -3   8   13.32    2.31
  -3  -3  -8    7.48    1.94
   4  -3   8   13.84    2.68
  -4  -3  -8   15.48    2.46
  -5  -3  -8    2.01    2.57
   5  -3   8    2.79    2.39
   6  -4  -8    1.01    2.74
  -6  -4   8    1.01    2.30
  -6  -4   8   -0.44    2.78
   6  -4  -8    3.76    2.08
   5  -4  -8    5.20    1.92
  -5  -4   8    1.49    2.42
   5  -4  -8    4.14    2.44
   4  -4  -8    0.30    1.58
  -4  -4   8    0.72    1.98
   4  -4  -8    0.71    1.98
  -3  -4   8    3.68    1.90
   3  -4  -8    8.49    1.94
   3  -4  -8    6.06    1.68
  -3  -4   8    6.66    1.85
  -2  -4   8    3.59    1.95
   2  -4  -8    9.41    1.68
  -2  -4   8    5.85    1.74
  -1  -4   8   15.25    2.31
  -1  -4   8   13.32    2.34
   1  -4  -8   15.84    2.48
   0  -4   8    4.05    2.41
   0  -4   8    3.83    1.67
   0  -4  -8    4.20    1.62
   1  -4   8   18.32    3.05
   1  -4   8   22.25    2.75
  -1  -4  -8   22.79    2.77
  -2  -4  -8    0.89    1.76
   2  -4   8    0.80    2.02
   3  -4   8    6.32    2.37
  -3  -4  -8    2.30    2.04
  -4  -4  -8   -1.08    2.25
   4  -4   8    1.97    2.30
   5  -4   8    0.51    2.41
  -5  -4  -8   -1.58    2.26
   5  -5  -8    0.43    1.83
  -5  -5   8   -1.63    2.18
   5  -5  -8   -0.52    2.36
   4  -5  -8    0.46    2.09
   4  -5  -8    0.93    1.75
   3  -5  -8   -1.06    1.87
  -3  -5   8    1.72    2.14
   2  -5  -8   -2.37    1.87
  -2  -5   8    0.90    2.22
   2  -5  -8   -0.48    1.74
   1  -5  -8    2.75    1.71
  -1  -5   8   -0.86    2.19
   0  -5   8    1.07    2.50
   0  -5   8   -0.31    1.70
   0  -5  -8    1.01    1.82
  -1  -5  -8    4.63    1.93
   1  -5   8    4.17    2.90
   1  -5   8    5.91    2.10
  -2  -5  -8    1.85    2.01
   2  -5   8   -1.81    2.90
   2  -5   8    1.81    2.23
   3  -5   8   -2.01    2.38
  -3  -5  -8    3.02    2.13
   3  -5   8   -3.09    3.04
  -4  -5  -8    0.13    2.18
   4  -5   8    2.89    2.51
   4  -5   8   -2.98    3.20
   4  -6  -8   -0.29    2.50
  -3  -6   8   -1.17    2.31
   3  -6  -8   -1.06    2.21
   2  -6  -8   15.91    2.37
  -2  -6   8    9.06    2.73
   1  -6  -8   -0.93    1.94
  -1  -6   8   -0.65    2.57
   0  -6   8    3.56    2.81
   0  -6  -8   -1.38    2.09
   1  -6   8    1.25    2.98
  -1  -6  -8   -0.40    1.72
   1  -6   8   -1.39    2.16
   2  -6   8    0.83    2.22
   2  -6   8    1.44    3.18
  -2  -6  -8   -1.10    1.72
  -3  -6  -8    2.09    1.97
   3  -6   8    9.40    3.62
   3  -6   8    7.13    2.60
  -3  -7   8    0.76    2.79
   3  -7  -8    4.55    2.57
  -2  -7   8   -2.76    2.74
   2  -7  -8    4.30    2.41
  -1  -7   8    0.63    2.81
   1  -7  -8    0.95    2.28
   0  -7  -8    2.88    1.91
   0  -7   8    3.22    3.20
   1  -7   8   16.13    3.69
   2  -7   8    6.26    3.55
   2  -7   8    3.58    2.45
  -7   0   9    3.24    2.83
   7   0  -9    0.60    2.20
   6   0  -9    0.23    1.94
  -6   0   9    1.50    2.50
  -5   0   9   -2.72    2.19
   5   0  -9    3.43    1.79
   4   0  -9    1.22    1.87
   4   0  -9    0.36    1.50
  -4   0   9   -1.02    1.98
   3   0  -9    1.54    1.61
  -3   0   9    0.29    1.72
   3   0  -9    0.54    1.22
  -2   0   9   -0.06    1.47
   2   0  -9    1.43    1.06
   2   0  -9   -0.13    1.40
  -1   0   9   -0.93    1.41
   1   0  -9    0.15    1.27
   0   0   9   -0.19    1.50
   0   0  -9   -0.76    1.27
   1   0   9   -0.53    1.47
  -1   0  -9    0.36    1.35
   2   0   9   -0.18    1.65
  -2   0  -9   -1.48    1.39
   3   0   9    0.19    1.99
  -3   0  -9   -2.16    1.61
  -4   0  -9   -0.14    2.03
   4   0   9    1.54    2.23
  -5   0  -9   -0.48    2.24
  -6   0  -9    0.99    2.68
   7  -1  -9    0.11    2.19
  -7  -1   9    0.51    2.66
  -7   1   9   -0.36    2.71
   7   1  -9    3.27    2.41
  -6  -1   9    6.82    2.59
   6  -1  -9    7.35    2.10
   6   1  -9    8.28    2.34
  -6   1   9    8.66    2.73
   5  -1  -9    1.69    2.02
   5  -1  -9    4.40    1.78
  -5  -1   9    4.63    2.33
  -5   1   9    0.91    2.31
   5   1  -9    4.04    1.88
  -4  -1   9   12.83    2.22
   4  -1  -9   16.35    2.13
   4  -1  -9    9.50    1.68
  -4  -1   9   13.12    2.22
  -4   1   9   14.11    2.33
   4   1  -9   12.69    1.90
   3  -1  -9    0.71    1.50
  -3  -1   9    1.29    1.67
   3  -1  -9    2.03    1.25
   3   1  -9    1.75    1.56
  -3   1   9    3.78    2.00
   3   1  -9   -0.14    1.22
  -2  -1   9   59.09    2.90
   2  -1  -9   54.03    2.78
   2  -1  -9   54.63    2.47
   2   1  -9   54.44    2.25
   2   1  -9   59.03    2.63
  -2   1   9   56.49    2.98
  -1  -1   9    2.69    1.53
   1  -1  -9   -0.17    1.27
  -1   1   9    2.35    1.49
   1   1  -9    2.12    1.25
   0  -1  -9    2.30    1.41
   0  -1   9    1.88    1.54
   0   1   9    1.47    1.52
   0   1  -9    1.49    1.25
  -1  -1  -9    4.81    1.50
   1  -1   9    1.33    1.64
  -1   1  -9    1.96    1.28
   1   1   9    2.95    1.76
   2  -1   9    4.45    1.81
  -2  -1  -9    0.28    1.56
   2   1   9    4.58    1.74
  -2   1  -9    3.83    1.51
   3  -1   9   12.21    2.21
  -3  -1  -9   13.81    2.04
   3   1   9   14.37    2.19
  -3   1  -9   22.08    3.28
   4  -1   9    2.48    2.27
  -4  -1  -9    5.30    2.10
  -4   1  -9    1.49    1.99
   5  -1   9    3.53    2.59
  -5  -1  -9    7.78    2.62
  -5   1  -9    6.34    2.40
  -6  -1  -9   -3.28    2.60
  -6   1  -9   -0.20    2.58
  -7  -2   9    0.93    2.69
   7  -2  -9    3.29    2.39
   7   2  -9    4.18    2.56
  -7   2   9    2.92    2.95
   6  -2  -9    6.47    2.15
  -6  -2   9    0.39    2.46
   6  -2  -9    7.76    2.62
   6   2  -9    4.25    2.18
  -6   2   9    7.45    2.78
   5  -2  -9   23.94    3.44
   5  -2  -9   16.01    2.19
  -5  -2   9   18.86    2.64
  -5   2   9   19.80    2.84
   5   2  -9   22.65    3.03
   4  -2  -9   19.25    2.32
  -4  -2   9   20.73    2.37
  -4  -2   9   18.15    2.35
   4  -2  -9   17.43    2.55
   4   2  -9   20.55    2.67
  -4   2   9   19.39    2.56
  -4   2   9   21.77    2.51
   3  -2  -9   -0.01    1.23
   3  -2  -9   -0.76    1.64
  -3  -2   9    1.45    1.68
   3   2  -9   -0.05    1.21
  -3   2   9    0.17    1.92
   2  -2  -9   14.88    1.71
  -2  -2   9   17.11    1.98
  -2  -2   9   16.32    1.82
  -2   2   9   17.56    2.62
  -1  -2   9   67.58    3.05
  -1  -2   9   73.60    3.04
   1  -2  -9   72.68    2.92
  -1   2   9   69.44    3.12
   1   2  -9   74.39    2.85
   0  -2  -9   23.23    2.66
   0  -2   9   22.55    2.59
   0   2   9   17.65    2.14
   0   2  -9   21.10    2.46
  -1  -2  -9   14.61    1.81
   1  -2   9   14.27    1.90
  -1   2  -9   21.07    2.53
   1   2   9   14.51    2.06
  -2  -2  -9   35.31    2.97
   2  -2   9   31.09    3.06
  -2   2  -9   38.14    2.90
   3  -2   9   -0.48    2.03
  -3  -2  -9    1.23    1.88
  -3   2  -9    2.23    1.74
   4  -2   9   13.31    2.52
  -4  -2  -9   22.59    3.46
  -5  -2  -9   -2.93    2.47
   5  -2   9   -1.31    2.43
   6  -2   9    1.82    2.66
  -6  -2  -9    0.16    2.80
  -6  -3   9   25.64    3.38
   6  -3  -9   25.08    3.03
   6  -3  -9   25.87    3.97
  -5  -3   9    0.56    2.43
   5  -3  -9   -0.49    2.16
  -5  -3   9    2.94    2.24
   5  -3  -9    0.94    1.70
  -4  -3   9   79.33    3.61
   4  -3  -9   81.26    3.44
   4  -3  -9   78.74    3.83
   3  -3  -9   10.63    2.02
   3  -3  -9   10.71    1.69
  -3  -3   9   10.66    1.80
  -3  -3   9   13.53    1.96
  -3   3   9   11.61    2.31
  -2  -3   9   56.83    2.89
   2  -3  -9   54.98    2.98
  -2   3   9   53.15    3.06
  -1  -3   9    0.20    1.68
  -1  -3   9   -1.16    1.79
   1  -3  -9    1.07    1.39
   0  -3  -9   29.37    2.73
   0  -3   9   28.24    2.62
   0  -3   9   26.09    2.77
  -1  -3  -9   28.10    2.87
   1  -3   9   23.11    2.73
  -2  -3  -9   -2.32    1.67
   2  -3   9   -0.51    1.87
   3  -3   9   16.32    2.47
  -3  -3  -9   18.72    2.38
   4  -3   9   -1.60    2.36
  -4  -3  -9    1.53    2.23
   5  -3   9    7.71    2.59
  -5  -3  -9    6.93    2.85
   6  -4  -9    3.42    2.62
  -6  -4   9    4.70    2.87
   6  -4  -9   -1.66    1.93
   5  -4  -9   -0.84    2.31
   5  -4  -9    2.11    1.81
  -5  -4   9   -1.54    2.38
  -4  -4   9   -2.20    2.05
   4  -4  -9    0.61    1.69
   4  -4  -9    2.23    2.07
  -3  -4   9    1.51    1.84
   3  -4  -9    1.16    1.93
  -3  -4   9    2.54    1.91
   2  -4  -9   70.16    3.26
  -2  -4   9   64.33    3.76
  -2  -4   9   72.09    3.17
  -1  -4   9    9.33    2.35
   1  -4  -9    8.46    1.71
  -1  -4   9    7.23    1.88
   0  -4   9  108.76    4.85
   0  -4  -9  109.23    3.69
   0  -4   9  107.00    3.45
  -1  -4  -9   18.61    2.16
   1  -4   9   24.29    3.25
   1  -4   9   23.47    2.89
  -2  -4  -9   19.68    2.28
   2  -4   9   13.74    2.32
   3  -4   9    9.58    2.47
  -3  -4  -9    7.24    2.23
  -4  -4  -9    9.10    2.53
   4  -4   9    6.15    2.62
  -5  -4  -9   -1.51    2.40
   5  -4   9    0.50    2.58
   5  -5  -9    3.74    2.02
  -5  -5   9    5.36    2.37
   5  -5  -9    9.26    2.65
   4  -5  -9   40.93    3.62
  -4  -5   9   31.49    2.89
   4  -5  -9   36.37    3.27
   3  -5  -9   20.32    2.46
  -3  -5   9    9.33    2.40
  -2  -5   9   41.62    3.89
   2  -5  -9   43.74    3.09
  -1  -5   9    2.44    2.32
   1  -5  -9    0.00    1.83
   0  -5  -9    4.44    2.08
   0  -5   9    5.64    2.68
   0  -5   9    8.28    1.96
   1  -5   9    6.07    2.21
   1  -5   9   10.00    3.25
  -1  -5  -9    6.55    2.12
  -2  -5  -9    1.10    2.11
   2  -5   9   -0.28    3.05
   2  -5   9   -2.72    2.25
  -3  -5  -9    2.20    2.26
   3  -5   9    2.10    2.56
   3  -5   9   -2.88    3.17
   4  -5   9    8.69    2.77
  -4  -5  -9    5.08    2.32
   4  -5   9    0.62    3.39
   4  -6  -9    1.39    2.50
  -3  -6   9   -0.57    2.35
   3  -6  -9    2.74    2.26
  -2  -6   9    6.90    2.68
   2  -6  -9   20.87    3.04
  -1  -6   9   15.08    3.28
   1  -6  -9   16.43    2.40
   0  -6  -9   34.27    3.35
   0  -6   9   30.37    4.65
   0  -6   9   29.61    2.77
  -1  -6  -9    9.17    2.30
   1  -6   9   11.75    2.47
   1  -6   9    5.61    3.07
  -2  -6  -9   16.60    2.40
   2  -6   9   13.23    2.70
   2  -6   9   10.20    3.59
   3  -6   9    6.11    2.68
  -3  -6  -9    2.66    2.01
   3  -6   9   16.38    3.96
   3  -7  -9    4.44    2.65
  -3  -7   9    2.96    2.87
  -2  -7   9   -2.74    2.79
   2  -7  -9    3.84    2.47
   1  -7  -9    6.92    2.49
  -1  -7   9    4.06    3.04
   0  -7  -9   -1.74    2.02
   0  -7   9    0.76    3.27
   1  -7   9    5.57    3.43
   2  -7   9    0.00    2.51
   2  -7   9    0.84    3.43
  -7   0  10   10.01    3.12
   7   0 -10   11.98    2.63
   6   0 -10   73.70    3.94
  -6   0  10   69.22    4.56
   5   0 -10   39.07    3.29
  -5   0  10   40.08    3.93
  -4   0  10   21.75    2.60
  -4   0  10   23.39    2.62
   4   0 -10   20.53    2.26
   4   0 -10   20.84    2.60
  -3   0  10   14.73    2.07
   3   0 -10    9.90    1.49
   3   0 -10   12.95    1.78
   2   0 -10    8.91    1.57
  -2   0  10   10.10    1.86
   1   0 -10   11.60    1.59
  -1   0  10    9.59    1.76
   0   0 -10    1.97    1.45
   0   0  10    0.32    1.67
   1   0  10   11.63    1.90
  -1   0 -10   10.29    1.76
   2   0  10    2.94    1.87
  -2   0 -10    3.97    1.65
  -3   0 -10   10.12    2.02
   3   0  10    4.97    2.12
  -4   0 -10   41.59    3.86
   4   0  10   40.20    4.07
  -5   0 -10   51.21    4.40
  -6   0 -10    4.46    2.77
   7  -1 -10    1.84    2.29
  -7  -1  10   -0.52    2.70
  -7   1  10   -0.10    2.90
   7   1 -10   -1.34    2.29
  -6  -1  10   -3.20    2.46
   6  -1 -10    1.45    2.02
  -6   1  10    0.70    2.66
   6   1 -10    1.00    2.09
   5  -1 -10   21.57    2.57
  -5  -1  10   14.03    2.70
  -5  -1  10   15.02    2.64
   5  -1 -10   10.82    2.04
  -5   1  10   16.02    2.75
   5   1 -10   14.81    2.25
   4  -1 -10   48.71    3.51
   4  -1 -10   46.55    2.88
  -4  -1  10   51.18    3.53
   4   1 -10   52.22    2.86
  -4   1  10   46.51    3.62
  -4   1  10   42.22    3.78
   3  -1 -10   35.94    2.96
   3  -1 -10   35.21    2.50
  -3  -1  10   30.33    2.98
   3   1 -10   38.32    2.40
  -3   1  10   41.64    3.16
  -2  -1  10  109.44    3.63
   2  -1 -10  111.94    3.56
   2   1 -10  109.38    3.45
  -2   1  10  106.72    3.63
   1  -1 -10   42.45    2.82
  -1  -1  10   44.07    2.96
  -1   1  10   39.88    2.89
   1   1 -10   39.62    2.79
   0  -1 -10   25.05    2.78
   0  -1  10   25.71    2.85
   0   1  10   24.09    3.02
   0   1 -10   26.66    2.73
   1  -1  10   86.32    3.56
  -1  -1 -10   85.88    3.49
   1   1  10   87.55    3.60
  -1   1 -10   86.78    3.30
  -2  -1 -10    4.39    1.75
   2  -1  10    3.57    1.95
   2   1  10    3.69    1.82
  -2   1 -10    5.33    1.66
   3  -1  10   64.01    3.95
  -3  -1 -10   64.84    3.72
   3   1  10   68.20    3.85
  -3   1 -10   60.33    3.78
  -4  -1 -10    0.97    2.10
   4  -1  10    0.02    2.28
  -4   1 -10    0.63    2.03
   5  -1  10    5.61    2.68
  -5  -1 -10    8.91    2.81
  -5   1 -10    8.02    2.51
   6  -2 -10   15.65    2.43
  -6  -2  10   16.64    2.90
   6  -2 -10   16.95    2.94
  -6  -2  10   10.59    3.02
  -6   2  10   13.98    3.18
   6   2 -10   15.55    2.51
   5  -2 -10   20.75    2.79
   5  -2 -10   22.11    2.81
  -5  -2  10   17.20    2.74
  -5  -2  10   19.28    2.68
  -5   2  10   19.71    2.85
  -5   2  10   24.45    3.04
   5   2 -10   21.22    3.08
   4  -2 -10   36.25    3.46
   4  -2 -10   33.21    2.68
  -4  -2  10   37.37    3.28
  -4   2  10   34.84    3.74
  -4   2  10   34.74    3.56
   4   2 -10   34.40    2.65
   3  -2 -10    4.26    1.77
   3  -2 -10    2.98    1.41
  -3  -2  10    4.76    1.84
   3   2 -10    5.08    1.36
  -3   2  10    1.52    2.08
   2  -2 -10    0.23    1.49
  -2  -2  10    0.56    1.34
  -2  -2  10   -0.85    1.60
  -2   2  10   -1.01    1.82
  -1  -2  10   -0.79    1.60
  -1  -2  10    1.97    1.81
   1  -2 -10    3.20    1.56
  -1   2  10    1.72    1.79
   0  -2 -10    0.42    1.59
   0  -2  10   -0.40    1.68
   0   2 -10    0.17    1.31
   0   2  10    0.75    1.89
   1  -2  10    3.02    1.83
  -1  -2 -10    0.62    1.65
   1   2  10    2.81    1.92
  -1   2 -10   -1.50    1.32
  -2  -2 -10    4.40    1.83
   2  -2  10    6.18    2.02
  -2   2 -10    3.09    1.58
  -3  -2 -10   15.45    2.31
   3  -2  10   13.36    2.40
   4  -2  10    2.07    2.28
  -4  -2 -10    3.87    2.21
   5  -2  10   10.98    2.83
  -5  -2 -10   26.58    4.12
  -6  -3  10    7.57    2.72
  -6  -3  10    9.19    2.99
   6  -3 -10    6.30    2.20
   6  -3 -10   12.50    2.89
   5  -3 -10   -1.03    2.19
  -5  -3  10   -1.72    2.40
   5  -3 -10    0.19    1.69
   4  -3 -10    8.06    1.78
   4  -3 -10    7.21    2.31
  -4  -3  10    5.47    2.21
   3  -3 -10   38.83    3.22
  -3  -3  10   37.56    3.04
   3  -3 -10   37.47    2.85
  -2  -3  10    0.13    1.62
   2  -3 -10    0.54    1.59
  -2  -3  10    4.68    1.92
  -1  -3  10   36.44    2.96
  -1  -3  10   38.22    3.18
   1  -3 -10   37.86    2.85
   0  -3 -10   21.49    2.86
   0  -3  10   23.66    3.45
   0  -3  10   19.97    2.77
  -1  -3 -10    0.23    1.73
   1  -3  10   -0.41    1.88
   2  -3  10   41.08    3.28
  -2  -3 -10   39.21    3.20
   3  -3  10   -1.06    2.19
  -3  -3 -10   -0.65    2.00
   4  -3  10    4.10    2.49
  -4  -3 -10    4.11    2.35
  -5  -3 -10    1.62    2.80
   5  -3  10    0.38    2.59
   6  -4 -10    0.12    2.67
   6  -4 -10    0.03    1.92
  -6  -4  10    1.30    2.86
  -5  -4  10   -1.10    2.44
   5  -4 -10    3.57    2.46
   5  -4 -10    2.10    1.86
   4  -4 -10    0.09    2.22
   4  -4 -10   -1.74    1.62
  -4  -4  10   -0.62    2.26
   3  -4 -10    0.43    1.85
  -3  -4  10    0.43    2.05
  -2  -4  10    4.00    2.12
  -2  -4  10    2.40    2.04
   2  -4 -10    6.93    1.83
  -1  -4  10   -0.67    1.91
  -1  -4  10    1.43    2.05
   1  -4 -10    1.33    1.67
   0  -4  10   -0.97    2.50
   0  -4 -10   -2.88    1.81
   0  -4  10   -0.06    1.88
   1  -4  10    0.65    1.94
   1  -4  10    2.48    2.77
  -1  -4 -10   -0.41    1.90
   2  -4  10   -2.09    2.12
  -2  -4 -10    1.75    2.03
   3  -4  10    1.29    2.35
  -3  -4 -10    1.85    2.19
   4  -4  10   -1.01    2.57
  -4  -4 -10   -0.31    2.37
  -5  -4 -10    0.74    2.64
   5  -5 -10    0.49    2.67
  -5  -5  10    0.59    2.42
   5  -5 -10    2.14    1.92
   4  -5 -10    0.65    2.31
  -4  -5  10    1.36    2.21
   3  -5 -10    4.55    2.15
  -2  -5  10    0.87    2.30
   2  -5 -10   -2.72    1.83
  -1  -5  10   -0.91    2.23
   1  -5 -10   -0.24    1.88
  -1  -5  10    0.15    1.98
   0  -5  10   -4.45    2.54
   0  -5  10    2.95    2.03
   0  -5 -10    2.83    2.15
   1  -5  10   -0.65    3.02
  -1  -5 -10    3.10    2.20
   1  -5  10   -0.16    2.17
   2  -5  10    2.90    3.23
  -2  -5 -10    5.57    2.29
   2  -5  10    1.43    2.36
   3  -5  10    0.82    3.33
  -3  -5 -10    2.98    2.40
   3  -5  10    0.87    2.67
   4  -5  10    2.45    2.68
   4  -5  10    1.65    3.55
  -4  -5 -10    3.41    2.37
   4  -6 -10    0.20    2.50
   3  -6 -10    0.85    2.28
   2  -6 -10   -2.02    2.15
  -2  -6  10    1.53    2.51
   1  -6 -10   -2.38    2.19
  -1  -6  10    2.23    2.67
   0  -6 -10    3.85    2.47
   0  -6  10   -3.62    2.67
   0  -6  10    5.39    2.20
   1  -6  10    5.34    2.38
   1  -6  10   -0.98    3.06
  -1  -6 -10    2.65    2.33
  -2  -6 -10   -1.92    1.91
   2  -6  10    2.22    3.51
   2  -6  10    3.82    2.76
   3  -6  10    1.70    2.69
  -3  -6 -10    0.62    2.00
   3  -6  10    6.36    3.80
   2  -7 -10    0.21    2.52
  -2  -7  10    2.91    2.87
  -1  -7  10    2.96    3.16
   1  -7 -10    8.96    2.66
   0  -7  10   -2.39    2.91
   0  -7 -10    1.06    2.51
   1  -7  10   -0.05    2.33
  -1  -7 -10    1.86    1.94
   1  -7  10   -0.11    3.44
  -7   0  11    0.21    2.95
   7   0 -11   -0.08    2.32
  -6   0  11   -0.52    2.79
   6   0 -11    0.80    2.18
  -6   0  11    1.98    2.63
  -5   0  11    2.70    2.57
  -5   0  11   -3.82    2.43
   5   0 -11    0.32    1.76
  -4   0  11    1.56    2.15
   4   0 -11   -0.16    1.50
  -3   0  11    0.57    1.85
   3   0 -11   -1.27    1.30
   3   0 -11   -1.31    1.70
  -2   0  11   -1.35    1.74
   2   0 -11    0.07    1.49
   1   0 -11    0.38    1.47
  -1   0  11    0.31    1.78
   0   0  11    1.32    1.83
   0   0 -11   -0.20    1.52
  -1   0 -11    1.27    1.65
   1   0  11   -1.65    1.75
  -2   0 -11    0.41    1.71
   2   0  11   -2.21    1.89
   3   0  11    1.64    2.09
  -3   0 -11    1.43    1.89
   4   0  11   -0.46    2.35
  -4   0 -11   -0.88    2.10
  -5   0 -11   -0.15    2.59
  -6  -1  11   12.53    3.08
  -6  -1  11   10.81    2.86
   6  -1 -11   13.98    2.36
   6   1 -11   11.89    2.53
  -6   1  11   11.70    3.12
  -6   1  11   19.71    3.22
  -5  -1  11   -1.14    2.33
   5  -1 -11    3.83    2.47
   5  -1 -11    3.33    1.85
  -5  -1  11    3.44    2.55
  -5   1  11    1.93    2.49
  -5   1  11    4.39    2.74
   5   1 -11    2.10    1.85
   4  -1 -11    5.50    1.64
  -4  -1  11    5.68    2.20
   4  -1 -11    4.60    2.18
   4   1 -11    7.46    1.73
  -4   1  11   13.72    2.47
  -3  -1  11   14.27    2.16
   3  -1 -11   11.43    1.67
   3  -1 -11   17.71    2.12
   3   1 -11   11.10    1.66
  -3   1  11   13.26    2.30
   2  -1 -11    5.26    1.68
  -2  -1  11    3.24    1.83
  -2   1  11    5.18    1.98
   2   1 -11    8.21    1.64
   1  -1 -11    3.03    1.65
  -1  -1  11    3.26    1.90
   1   1 -11    2.34    1.57
  -1   1  11    5.94    1.98
   0  -1 -11    0.50    1.71
   0  -1  11    3.24    1.92
   0   1  11   -2.88    1.95
   0   1 -11   -0.24    1.47
   1  -1  11   31.43    3.24
  -1  -1 -11   27.21    3.14
   1   1  11   24.20    3.13
  -1   1 -11   30.36    2.93
  -2  -1 -11    1.83    1.83
   2  -1  11    1.87    2.03
  -2   1 -11    2.65    1.75
   2   1  11    2.27    2.09
  -3  -1 -11   13.24    2.26
   3  -1  11   10.91    2.41
  -3   1 -11   10.64    2.12
  -4  -1 -11    5.98    2.33
   4  -1  11    0.88    2.33
  -4   1 -11    7.47    2.32
   5  -1  11    1.77    2.70
  -5  -1 -11    1.21    2.73
  -5   1 -11    2.60    2.41
  -6  -2  11   -1.11    2.85
   6  -2 -11    2.73    2.03
  -6  -2  11    7.49    2.73
  -6   2  11    6.51    3.16
  -6   2  11    5.07    2.85
   6   2 -11    3.35    2.28
   5  -2 -11   31.88    3.93
   5  -2 -11   39.16    3.06
  -5  -2  11   35.25    3.68
  -5   2  11   44.91    4.30
  -5   2  11   44.13    4.12
   5   2 -11   30.98    3.13
   4  -2 -11    1.07    2.04
   4  -2 -11    1.09    1.46
  -4  -2  11    1.96    2.14
  -4   2  11    0.22    2.35
   4   2 -11    2.52    1.62
   3  -2 -11   61.85    3.45
   3  -2 -11   55.73    2.94
  -3  -2  11   54.05    3.35
  -3   2  11   58.34    3.46
  -2  -2  11   -0.14    1.81
   2  -2 -11    0.74    1.59
  -2  -2  11    0.69    1.40
  -2   2  11   -2.77    1.97
  -1  -2  11   11.42    2.01
  -1  -2  11   14.05    2.17
   1  -2 -11   18.65    2.80
  -1   2  11   14.42    2.28
   0  -2  11   29.73    2.99
   0  -2 -11   31.16    3.12
   0   2  11   23.83    3.29
   1  -2  11    2.18    1.98
  -1  -2 -11    0.45    1.76
   1   2  11   -0.26    2.04
  -2  -2 -11    6.18    1.95
   2  -2  11    2.34    2.07
  -3  -2 -11    4.05    2.10
   3  -2  11    1.81    2.23
  -4  -2 -11    7.36    2.47
   4  -2  11    6.77    2.56
  -5  -2 -11    2.66    2.76
   5  -2  11   -0.79    2.70
   6  -3 -11   23.05    3.19
   6  -3 -11   13.85    2.44
  -6  -3  11   15.65    3.12
   5  -3 -11    3.91    1.82
  -5  -3  11    0.83    2.40
   5  -3 -11    3.88    2.51
  -4  -3  11   15.00    2.40
   4  -3 -11   15.74    2.55
   4  -3 -11    8.46    1.88
  -3  -3  11   19.51    2.97
   3  -3 -11   19.69    3.04
  -2  -3  11    3.55    1.69
  -2  -3  11    4.23    2.06
   2  -3 -11    5.73    1.82
   1  -3 -11   46.11    3.13
  -1  -3  11   41.16    3.34
  -1  -3  11   41.26    3.26
   0  -3  11    6.96    2.05
   0  -3 -11    7.65    2.04
  -1  -3 -11   52.61    3.49
   1  -3  11   50.48    3.38
   2  -3  11    5.02    2.20
  -2  -3 -11    9.90    2.14
  -3  -3 -11   50.53    3.66
  -4  -3 -11    1.64    2.39
   4  -3  11   -1.00    2.37
   5  -3  11   11.13    3.00
  -5  -3 -11    9.69    2.84
   5  -4 -11   18.78    2.86
   5  -4 -11   25.99    3.94
  -5  -4  11   23.12    3.36
  -4  -4  11   28.63    3.24
   4  -4 -11   26.44    3.52
   4  -4 -11   22.65    2.93
  -3  -4  11   18.94    2.55
   3  -4 -11   20.57    3.10
  -2  -4  11   18.62    2.50
   2  -4 -11   13.27    2.16
  -2  -4  11   18.95    3.17
  -1  -4  11   37.11    3.18
   1  -4 -11   33.46    3.11
  -1  -4  11   44.10    3.59
   0  -4 -11    2.08    2.07
   0  -4  11   -0.16    2.57
   0  -4  11    0.41    2.05
   1  -4  11   46.06    3.43
   1  -4  11   43.71    4.59
  -1  -4 -11   49.26    3.56
   2  -4  11    0.00    2.21
  -2  -4 -11    1.39    2.15
   3  -4  11    1.95    2.47
  -3  -4 -11    4.41    2.33
   4  -4  11    0.36    2.70
  -4  -4 -11    0.58    2.24
   5  -5 -11    4.15    2.09
  -5  -5  11    5.11    2.61
   5  -5 -11    3.21    2.69
   4  -5 -11    1.32    2.36
  -4  -5  11    1.48    2.39
  -3  -5  11    3.54    2.40
   3  -5 -11    2.46    2.14
  -2  -5  11    5.19    2.46
   2  -5 -11    0.61    2.01
  -2  -5  11    2.51    2.20
  -1  -5  11    6.51    2.23
  -1  -5  11    6.98    2.62
   1  -5 -11    8.24    2.19
   0  -5  11    0.52    2.61
   0  -5 -11    4.37    2.32
   0  -5  11    2.72    2.24
   1  -5  11   12.06    2.55
  -1  -5 -11   25.28    3.34
   1  -5  11   14.01    3.54
  -2  -5 -11    6.52    2.44
   2  -5  11    6.79    2.62
   2  -5  11    9.22    3.54
   3  -5  11   28.86    4.24
   4  -6 -11   25.15    3.52
   3  -6 -11    7.43    2.54
   2  -6 -11   12.97    2.52
  -2  -6  11   10.66    2.79
   1  -6 -11   12.87    2.56
  -1  -6  11    8.01    2.81
   0  -6 -11    8.35    2.68
   0  -6  11    9.73    2.40
   0  -6  11    3.42    2.92
  -1  -6 -11   16.93    2.73
   1  -6  11   12.95    3.56
   1  -6  11   14.91    2.66
   2  -6  11    9.55    3.73
  -2  -6 -11    2.42    2.14
   2  -6  11    3.87    2.85
   1  -7 -11    1.32    2.70
  -1  -7  11   -0.27    3.05
   0  -7 -11    0.31    2.64
   0  -7  11    0.44    3.11
  -6   0  12    0.67    2.91
  -6   0  12   -0.02    2.73
   6   0 -12    1.20    2.08
  -5   0  12   -1.03    2.47
   5   0 -12    1.05    1.85
   4   0 -12   -0.31    1.63
  -4   0  12   -1.56    2.15
  -3   0  12   15.77    2.32
   3   0 -12   12.46    1.80
   3   0 -12   17.30    2.06
  -2   0  12   -0.50    1.92
   2   0 -12   -2.60    1.61
  -1   0  12   41.45    3.40
   1   0 -12   44.55    3.26
   0   0  12  108.04    4.21
   0   0 -12  105.68    4.00
  -1   0 -12   68.86    3.70
   1   0  12   69.61    3.83
  -2   0 -12   45.63    3.53
   2   0  12   44.53    3.63
  -3   0 -12   39.06    3.63
   3   0  12   24.40    3.70
  -4   0 -12    4.24    2.28
  -5   0 -12    4.21    2.76
   6  -1 -12   33.35    3.26
  -6  -1  12   35.53    4.12
   6   1 -12   35.02    3.49
  -6   1  12   36.50    4.34
  -6   1  12   42.58    4.48
   5  -1 -12    9.52    2.05
  -5  -1  12    8.81    2.66
   5   1 -12   10.31    2.14
  -5   1  12    6.84    2.78
   4  -1 -12   35.03    2.86
   4  -1 -12   33.40    3.41
  -4  -1  12   33.60    3.41
  -4   1  12   36.06    3.58
   4   1 -12   33.67    2.85
  -3  -1  12   24.53    3.22
   3  -1 -12   28.24    3.11
   3  -1 -12   25.57    2.63
   3   1 -12   31.56    2.72
  -3   1  12   34.00    3.27
   2  -1 -12   18.78    2.81
  -2  -1  12   18.90    2.32
  -2   1  12   20.51    2.35
   1  -1 -12   84.37    3.62
  -1  -1  12   79.51    3.83
   1   1 -12   83.76    3.76
  -1   1  12   80.09    3.84
   0  -1  12   -0.36    2.04
   0  -1 -12   -2.47    1.73
   0   1 -12    2.61    1.71
   0   1  12    1.09    2.20
   1  -1  12    5.16    2.18
  -1  -1 -12    2.73    1.89
  -1   1 -12    6.48    1.77
   1   1  12    6.08    2.26
  -2  -1 -12    4.25    2.04
   2  -1  12    1.77    2.18
   2   1  12    1.32    2.28
  -2   1 -12    0.80    1.76
   3  -1  12    7.87    2.35
  -3  -1 -12    7.94    2.27
  -3   1 -12    8.45    2.12
  -4  -1 -12    1.77    2.35
   4  -1  12    7.52    2.64
  -4   1 -12    3.50    2.34
  -5  -1 -12    7.99    2.94
   6  -2 -12    3.79    2.15
  -6  -2  12    0.90    2.86
   6   2 -12    1.43    2.23
  -6   2  12    0.86    2.90
  -6   2  12    3.30    3.13
   5  -2 -12    5.11    1.86
  -5  -2  12    5.42    2.57
   5  -2 -12    6.02    2.46
   5   2 -12    3.62    2.01
  -5   2  12    5.70    2.84
   4  -2 -12    1.72    1.57
   4  -2 -12   -0.26    1.99
  -4  -2  12   -1.79    2.16
  -4   2  12   -1.95    2.31
   4   2 -12    5.40    1.76
   3  -2 -12   -1.76    1.78
  -3  -2  12    0.85    1.98
  -3   2  12   -0.34    2.15
  -2  -2  12   14.48    2.30
   2  -2 -12   22.68    2.86
  -2   2  12   20.20    3.13
   1  -2 -12   21.52    2.24
  -1  -2  12   20.00    2.46
  -1   2  12   27.98    3.29
   0  -2 -12   18.01    2.31
   0  -2  12   21.15    3.20
   0   2  12   23.70    3.47
  -1  -2 -12   44.68    3.52
   1  -2  12   40.37    3.47
   2  -2  12   34.76    3.53
  -2  -2 -12   40.28    3.44
  -3  -2 -12   11.41    2.36
   3  -2  12    9.04    2.51
   4  -2  12    5.53    2.60
  -4  -2 -12    9.93    2.61
   5  -2  12    4.73    2.82
  -5  -2 -12    2.85    2.88
  -6  -3  12    3.92    2.84
   6  -3 -12    3.02    2.87
   6  -3 -12    3.80    2.09
   5  -3 -12   13.56    2.20
  -5  -3  12   12.43    2.77
   5  -3 -12   19.26    2.96
  -4  -3  12    1.91    2.37
   4  -3 -12   -0.13    1.66
   4  -3 -12    5.63    2.24
   3  -3 -12   12.09    2.22
  -3  -3  12   12.76    2.48
  -2  -3  12   27.52    3.31
   2  -3 -12   26.00    2.97
  -1  -3  12    2.49    2.07
   1  -3 -12   -1.98    1.81
  -1  -3  12    1.37    2.13
   0  -3  12   21.54    3.15
   0  -3 -12   21.92    3.26
  -1  -3 -12   -0.82    1.98
   1  -3  12   -4.67    2.03
   2  -3  12    0.87    2.18
  -2  -3 -12    5.36    2.22
   3  -3  12    0.63    2.42
  -3  -3 -12    5.26    2.28
  -4  -3 -12    8.24    2.69
   4  -3  12    2.28    2.50
   5  -4 -12    0.53    1.86
   5  -4 -12   -4.32    2.50
  -5  -4  12    1.68    2.65
  -4  -4  12   -1.01    2.48
   4  -4 -12    4.56    2.33
   3  -4 -12    1.40    2.04
  -3  -4  12    2.49    2.43
  -2  -4  12    1.01    2.08
  -2  -4  12    0.75    2.43
   2  -4 -12    1.68    1.90
   1  -4 -12   -2.17    1.90
  -1  -4  12   -0.34    2.24
  -1  -4  12   -2.92    2.01
   0  -4  12    3.05    2.30
   0  -4 -12    1.25    2.14
   0  -4  12    1.77    2.48
   1  -4  12    7.52    2.33
   1  -4  12   -0.18    2.84
  -1  -4 -12    5.06    2.27
  -2  -4 -12    1.84    2.23
   2  -4  12   -5.57    2.25
  -3  -4 -12   -0.02    2.30
   3  -4  12    4.03    2.66
   4  -4  12    4.19    2.81
  -4  -4 -12   -0.35    2.35
   4  -5 -12    0.37    2.41
  -4  -5  12    2.26    2.60
   3  -5 -12    2.39    2.21
  -3  -5  12   -0.79    2.51
  -2  -5  12    1.80    2.36
  -2  -5  12   -0.08    2.36
   2  -5 -12   -0.21    2.00
   1  -5 -12   -1.50    2.06
  -1  -5  12    1.31    2.44
  -1  -5  12   -2.44    2.34
   0  -5  12    2.35    2.71
   0  -5 -12    2.12    2.36
   0  -5  12   -0.99    2.28
   1  -5  12    0.08    3.18
  -1  -5 -12   -0.46    2.36
   1  -5  12    2.35    2.50
   2  -5  12    3.39    3.44
   2  -5  12    4.67    2.73
  -2  -5 -12    2.97    2.43
   3  -5  12    0.10    3.57
  -3  -5 -12    4.49    2.42
   3  -5  12    0.54    2.87
   3  -6 -12   -3.57    2.32
  -2  -6  12   -0.27    2.62
   2  -6 -12    0.61    2.32
   1  -6 -12   -0.46    2.42
  -1  -6  12    1.96    2.71
  -1  -6  12   -5.11    2.18
   0  -6  12    1.54    2.91
   0  -6 -12    7.82    2.71
   0  -6  12    0.08    2.45
   1  -6  12   10.06    3.55
  -1  -6 -12    5.51    2.65
   1  -6  12    5.23    2.75
   2  -6  12    2.57    3.63
   2  -6  12    1.53    2.95
  -2  -6 -12    0.58    2.68
  -6   0  13    3.62    3.02
   6   0 -13    0.62    2.16
  -5   0  13   -2.08    2.47
   5   0 -13   -0.90    1.83
  -4   0  13   -1.67    2.25
   4   0 -13   -0.37    1.68
  -3   0  13   -4.20    2.10
   3   0 -13   -3.58    1.87
  -2   0  13    1.18    2.09
   2   0 -13   -2.44    1.71
  -1   0  13    0.29    2.17
   1   0 -13   -0.06    1.91
   0   0  13   -0.42    2.21
   0   0 -13    3.23    1.94
   1   0  13   -2.67    2.10
  -1   0 -13    3.42    1.95
  -2   0 -13    3.26    1.96
   2   0  13    2.64    2.27
   3   0  13    1.84    2.39
  -3   0 -13    1.51    2.12
  -4   0 -13   -2.53    2.22
  -5   0 -13    3.96    2.88
  -6  -1  13    0.35    2.84
   6  -1 -13    6.05    2.25
   6   1 -13    1.83    2.25
  -6   1  13    4.51    3.00
  -5  -1  13    1.75    2.54
   5  -1 -13   -1.20    1.76
   5   1 -13    1.26    1.95
  -5   1  13   -1.23    2.55
  -4  -1  13    4.37    2.40
   4  -1 -13    7.87    2.37
   4  -1 -13    4.93    1.76
  -4   1  13    6.67    2.47
   4   1 -13    6.40    1.86
  -3  -1  13   -0.99    2.07
   3  -1 -13    0.89    1.91
  -3   1  13    0.45    2.26
   2  -1 -13    4.99    1.99
  -2  -1  13    5.38    2.17
  -2   1  13    3.77    2.23
  -1  -1  13    5.25    2.37
   1  -1 -13    8.73    2.01
  -1   1  13    7.02    2.42
   1   1 -13    6.29    1.98
   0  -1  13    2.35    2.18
   0  -1 -13    6.63    2.04
   0   1 -13    7.25    1.94
   0   1  13    3.26    2.42
  -1  -1 -13    8.33    2.14
   1  -1  13    4.45    2.29
   1   1  13    8.60    2.45
  -1   1 -13    9.29    1.97
   2  -1  13   -0.09    2.23
  -2  -1 -13   -0.05    2.02
  -2   1 -13   -0.08    1.87
   2   1  13   -3.42    2.26
  -3  -1 -13    2.10    2.20
   3  -1  13    3.57    2.38
  -3   1 -13    0.74    1.98
  -4  -1 -13    4.82    2.56
   4  -1  13    1.70    2.45
  -4   1 -13    0.11    2.22
  -5  -1 -13    3.08    2.90
  -6  -2  13    2.79    2.90
   6  -2 -13    1.40    2.03
   6   2 -13   -0.71    2.20
  -6   2  13   -0.57    3.01
  -5  -2  13   22.62    3.49
   5  -2 -13   26.23    3.80
   5  -2 -13   19.45    2.80
  -5   2  13   26.12    4.03
   5   2 -13   20.68    2.98
   4  -2 -13    2.25    1.70
   4  -2 -13    2.24    2.22
  -4  -2  13    0.88    2.28
  -4   2  13    3.35    2.46
   4   2 -13    2.67    1.77
   3  -2 -13   13.15    2.24
  -3  -2  13   11.98    2.37
  -3   2  13   10.68    2.56
   2  -2 -13   -0.25    1.91
  -2  -2  13    1.96    2.24
  -2   2  13    1.80    2.27
  -1  -2  13    2.27    2.30
   1  -2 -13    3.79    1.96
  -1   2  13   -0.04    2.34
   0  -2  13   28.30    3.39
   0  -2 -13   28.75    3.51
   0   2  13   27.59    3.72
   1  -2  13    3.51    2.34
  -1  -2 -13    5.91    2.20
  -2  -2 -13   52.03    3.86
   2  -2  13   50.48    3.81
   3  -2  13    3.78    2.52
  -3  -2 -13   -0.92    2.29
  -4  -2 -13    3.57    2.55
   4  -2  13    7.05    2.70
   6  -3 -13    1.51    2.08
   5  -3 -13    7.50    2.66
   5  -3 -13   -0.37    1.86
  -5  -3  13    3.81    2.63
   4  -3 -13    2.71    2.20
  -4  -3  13    2.06    2.42
  -3  -3  13   13.71    2.56
   3  -3 -13   20.12    2.53
  -2  -3  13   27.70    3.64
   2  -3 -13   36.69    3.27
  -1  -3  13   42.29    3.69
   1  -3 -13   46.91    3.40
  -1  -3  13   50.42    3.60
   0  -3  13   15.68    2.54
   0  -3 -13   16.53    2.48
  -1  -3 -13   11.90    2.41
   1  -3  13   10.85    2.49
   2  -3  13    0.86    2.30
  -2  -3 -13    2.94    2.29
  -3  -3 -13    6.23    2.48
   3  -3  13    4.63    2.49
  -4  -3 -13   -1.72    2.57
   4  -3  13   -4.77    2.47
  -5  -4  13   19.28    3.10
   5  -4 -13   18.17    3.03
   5  -4 -13   11.21    2.40
   4  -4 -13    4.33    2.46
  -4  -4  13   -2.13    2.56
  -3  -4  13   45.85    3.66
   3  -4 -13   41.65    3.46
   2  -4 -13    0.77    1.98
  -2  -4  13    1.46    2.57
  -1  -4  13   10.54    2.62
  -1  -4  13   12.76    2.67
   1  -4 -13   11.67    2.33
   0  -4 -13   14.71    2.56
   0  -4  13   13.32    2.63
   0  -4  13   11.03    3.00
   1  -4  13    1.51    3.08
   1  -4  13    4.15    2.41
  -1  -4 -13    5.50    2.36
  -2  -4 -13    7.53    2.54
   2  -4  13    8.37    2.60
  -3  -4 -13    1.61    2.48
   3  -4  13   -0.62    2.59
  -4  -5  13    4.72    2.75
   4  -5 -13   -0.49    2.46
  -3  -5  13   30.38    3.69
   3  -5 -13   26.12    3.42
   2  -5 -13    5.80    2.31
  -2  -5  13    5.95    2.60
  -1  -5  13   32.47    4.14
   1  -5 -13   31.36    3.49
   0  -5 -13   23.95    3.51
   0  -5  13   26.58    3.41
   0  -5  13   22.10    3.60
   1  -5  13   11.96    3.54
   1  -5  13   12.98    2.82
  -1  -5 -13   16.75    2.82
   2  -5  13   -1.92    3.39
  -2  -5 -13    2.90    2.57
   2  -5  13   -0.96    2.71
  -3  -5 -13    1.67    2.45
   3  -5  13    5.44    2.99
   3  -5  13    2.51    3.79
   3  -6 -13    7.68    2.61
   2  -6 -13    3.08    2.52
  -1  -6  13    2.76    2.46
   1  -6 -13    0.26    2.61
  -1  -6  13    2.43    2.81
   0  -6 -13   -1.57    2.63
   0  -6  13   -2.26    2.54
   0  -6  13    2.98    2.93
  -1  -6 -13    5.67    2.80
   1  -6  13    5.05    3.33
   1  -6  13    5.42    2.92
  -6   0  14    3.15    2.94
   6   0 -14   -0.95    2.13
   5   0 -14   53.58    3.45
  -5   0  14   56.47    4.17
  -4   0  14   14.72    2.71
   4   0 -14    9.81    2.06
  -3   0  14  107.85    4.38
  -2   0  14   22.01    2.68
   2   0 -14   21.42    3.23
  -1   0  14   20.75    2.84
   1   0 -14   25.48    3.48
   0   0  14   32.00    3.83
   0   0 -14   30.91    3.53
  -1   0 -14   10.38    2.19
   1   0  14   10.45    2.53
   2   0  14    1.48    2.39
  -2   0 -14    4.06    2.10
  -3   0 -14    3.70    2.28
   3   0  14    1.63    2.54
  -4   0 -14    4.33    2.51
  -6  -1  14    7.19    3.03
   6  -1 -14    6.29    2.27
  -6   1  14   13.40    3.30
   6   1 -14    7.28    2.38
  -5  -1  14   19.33    3.05
   5  -1 -14   16.17    2.40
   5   1 -14   15.16    2.34
  -5   1  14   16.31    3.12
  -4  -1  14   -2.37    2.31
   4  -1 -14   -0.96    2.16
   4  -1 -14   -1.60    1.70
   4   1 -14    2.34    1.91
  -4   1  14    4.57    2.54
  -3  -1  14    8.44    2.36
   3  -1 -14    0.20    1.99
  -3   1  14    1.20    2.38
   2  -1 -14   10.80    2.17
  -2  -1  14    8.63    2.49
  -2   1  14    9.89    2.37
   1  -1 -14   10.12    2.22
  -1  -1  14    6.01    2.47
  -1   1  14   12.45    2.75
   0  -1  14   -0.69    2.32
   0  -1 -14    3.18    2.15
   0   1 -14    3.45    2.02
   0   1  14    3.63    2.55
   1  -1  14   15.42    2.66
  -1  -1 -14   13.84    2.45
   1   1  14   16.65    2.77
  -1   1 -14   13.91    2.22
   2  -1  14    6.89    2.50
  -2  -1 -14    5.27    2.32
  -2   1 -14    6.13    2.12
   3  -1  14    8.44    2.54
  -3  -1 -14    5.93    2.41
  -3   1 -14    7.65    2.25
   4  -1  14   17.53    3.09
  -4  -1 -14   29.16    4.09
  -6  -2  14    5.48    3.05
   6  -2 -14    1.97    2.11
  -6   2  14    9.17    3.25
  -5  -2  14    9.57    2.83
   5  -2 -14   12.11    2.26
   5  -2 -14   15.77    3.00
   5   2 -14   12.43    2.30
  -5   2  14   14.10    3.18
   4  -2 -14   20.34    2.73
  -4  -2  14   16.19    2.76
  -4   2  14   22.85    3.02
   3  -2 -14   27.99    3.34
  -3  -2  14   26.65    3.44
  -3   2  14   27.23    3.63
  -2  -2  14   20.72    2.79
   2  -2 -14   20.97    2.53
  -2   2  14   27.89    3.56
   1  -2 -14   33.46    3.54
  -1  -2  14   32.08    3.78
  -1   2  14   34.71    3.98
   0  -2 -14   -0.25    2.11
   0  -2  14    0.87    2.35
   1  -2  14    4.65    2.43
  -1  -2 -14    8.14    2.38
  -2  -2 -14    8.72    2.45
   2  -2  14    5.42    2.39
   3  -2  14    2.29    2.48
  -3  -2 -14    1.36    2.38
   4  -2  14   -0.65    2.53
  -4  -2 -14   -1.10    2.52
   5  -3 -14    4.18    2.66
  -5  -3  14    1.67    2.81
   5  -3 -14   -0.03    1.93
  -4  -3  14    7.53    2.61
   4  -3 -14   12.86    2.52
   3  -3 -14   -1.36    2.09
  -3  -3  14    0.81    2.50
   2  -3 -14   -4.64    1.90
  -2  -3  14    4.68    2.59
  -1  -3  14    0.16    2.40
   1  -3 -14   -1.69    2.05
  -1  -3  14    2.68    2.15
   0  -3  14   11.34    2.62
   0  -3 -14   13.85    2.51
  -1  -3 -14   -1.43    2.27
   1  -3  14   -0.39    2.35
   2  -3  14    3.12    2.49
  -2  -3 -14    6.69    2.48
   3  -3  14    5.51    2.69
  -3  -3 -14    2.31    2.52
  -4  -3 -14    2.67    2.69
   4  -3  14   -0.06    2.63
  -5  -4  14    3.41    2.85
   5  -4 -14    3.80    2.72
   4  -4 -14    7.20    2.57
  -4  -4  14    8.80    2.91
   3  -4 -14    0.42    2.12
  -3  -4  14    1.71    2.76
  -2  -4  14    4.64    2.77
   2  -4 -14    3.55    2.19
  -1  -4  14    3.11    2.38
   1  -4 -14    4.43    2.29
  -1  -4  14    0.46    2.61
   0  -4 -14    2.44    2.39
   0  -4  14    4.05    2.54
   0  -4  14    2.01    2.65
  -1  -4 -14    3.42    2.50
   1  -4  14    0.86    2.91
   1  -4  14    4.27    2.61
  -2  -4 -14    0.33    2.54
   2  -4  14   -0.66    2.52
   3  -4  14    2.64    2.82
  -3  -4 -14    1.01    2.46
  -4  -5  14    3.27    3.08
   4  -5 -14    4.12    2.60
  -3  -5  14    1.15    2.78
   3  -5 -14    2.67    2.38
  -2  -5  14   -2.81    2.68
   2  -5 -14    4.94    2.41
  -1  -5  14    6.42    2.70
   1  -5 -14   -1.20    2.34
  -1  -5  14    4.56    2.76
   0  -5  14   -1.19    2.63
   0  -5  14    4.01    3.05
   0  -5 -14    1.32    2.56
  -1  -5 -14    4.93    2.73
   1  -5  14    0.82    2.94
   1  -5  14   -3.80    2.68
   2  -5  14    2.05    3.62
  -2  -5 -14    0.87    2.38
   2  -5  14   -1.53    2.85
  -2  -6  14   -3.22    2.57
   2  -6 -14    5.57    2.69
   1  -6 -14    4.38    2.74
  -1  -6  14   -1.26    2.62
  -1  -6  14   -3.12    2.72
   0  -6  14   -0.22    2.78
   0  -6  14   -0.52    2.94
   0  -6 -14   -1.54    2.71
   6   0 -15   -0.34    2.19
  -6   0  15   -2.54    2.90
   5   0 -15    2.20    2.04
  -5   0  15    2.37    2.72
  -4   0  15    1.91    2.56
  -3   0  15    0.25    2.36
   2   0 -15   -0.01    2.11
  -2   0  15    1.15    2.35
  -1   0  15    0.79    2.50
   1   0 -15    4.20    2.17
   0   0 -15    3.39    2.10
   0   0  15   -0.99    2.44
  -1   0 -15   -2.38    2.03
   1   0  15    0.08    2.45
   2   0  15    0.04    2.45
  -2   0 -15   -2.87    2.08
  -3   0 -15    1.20    2.34
   3   0  15    1.99    2.57
  -4   0 -15   -2.49    2.45
   6  -1 -15   12.27    2.51
  -6  -1  15    5.89    3.15
  -6   1  15    9.22    3.30
   6   1 -15    8.43    2.49
   5  -1 -15   -0.60    1.96
  -5  -1  15   -2.82    2.58
  -5   1  15    0.54    2.88
   5   1 -15    1.02    2.07
  -4  -1  15   10.19    2.66
  -4   1  15   13.37    2.95
  -3  -1  15    4.86    2.52
   3  -1 -15    0.84    2.18
  -3   1  15    2.72    2.45
  -2  -1  15    1.60    2.40
   2  -1 -15    1.53    2.01
  -2   1  15    1.85    2.48
   1  -1 -15   -1.63    2.15
  -1  -1  15   -0.05    2.49
  -1   1  15   -4.35    2.50
   0  -1 -15    5.65    2.35
   0  -1  15    5.91    2.58
   0   1  15    4.60    2.70
   1  -1  15   -0.03    2.36
  -1  -1 -15   -2.78    2.11
   1   1  15   -1.02    2.57
  -2  -1 -15   -2.10    2.24
   2  -1  15   -0.42    2.43
   3  -1  15    0.75    2.55
  -3  -1 -15   -1.22    2.39
  -4  -1 -15   -0.29    2.60
   4  -1  15    1.90    2.83
   5  -2 -15   -1.21    2.54
   5  -2 -15    1.72    2.01
  -5  -2  15   -2.88    2.70
  -5   2  15   -3.25    2.80
  -4  -2  15    7.23    2.63
   4  -2 -15    7.59    2.44
  -4   2  15   -0.67    2.70
   3  -2 -15    0.13    2.09
  -3  -2  15   -2.42    2.40
  -3   2  15    0.98    2.43
   2  -2 -15   29.15    3.42
  -2  -2  15   27.38    3.77
  -2   2  15   31.33    3.86
  -1  -2  15    4.89    2.62
   1  -2 -15    8.25    2.46
  -1   2  15    3.36    2.83
   0  -2  15   36.11    3.83
   0  -2 -15   36.24    3.84
  -1  -2 -15   -2.04    2.26
   1  -2  15    1.05    2.52
   2  -2  15   11.29    2.62
  -2  -2 -15   13.91    2.71
   3  -2  15    6.88    2.74
  -3  -2 -15    8.68    2.68
   4  -2  15    3.71    2.80
  -4  -2 -15    5.53    2.86
  -5  -3  15    6.25    2.87
   5  -3 -15   12.43    2.98
   4  -3 -15   21.33    2.88
  -4  -3  15   19.71    3.00
   3  -3 -15   -2.28    2.04
  -3  -3  15   -1.44    2.61
   2  -3 -15   16.96    2.55
  -2  -3  15   15.18    2.94
   1  -3 -15    0.41    2.29
  -1  -3  15   -0.75    2.55
   0  -3 -15    2.10    2.43
   0  -3  15    9.17    2.73
  -1  -3 -15   -0.61    2.45
   1  -3  15    1.06    2.51
  -2  -3 -15    4.43    2.56
   2  -3  15    1.95    2.52
  -3  -3 -15    2.54    2.58
   3  -3  15    3.23    2.69
   4  -4 -15   12.95    2.79
  -4  -4  15    6.97    3.01
  -3  -4  15   -5.59    2.87
   3  -4 -15    1.00    2.23
  -2  -4  15   10.69    3.00
   2  -4 -15   13.93    2.59
  -1  -4  15    3.27    2.74
   1  -4 -15    1.88    2.40
   0  -4 -15   10.19    2.69
   0  -4  15   12.72    2.88
   0  -4  15    6.40    2.84
   1  -4  15   -2.52    2.87
  -1  -4 -15    0.62    2.64
   1  -4  15    1.79    2.64
  -2  -4 -15   37.35    3.91
   2  -4  15   35.83    4.03
   3  -4  15    6.46    3.00
  -3  -4 -15    2.51    2.60
   3  -5 -15   10.37    2.70
  -3  -5  15    4.47    3.10
  -2  -5  15   14.95    3.19
   2  -5 -15   12.57    2.71
  -1  -5  15   -6.54    2.75
   1  -5 -15   -0.93    2.62
   0  -5  15   14.98    3.48
   0  -5  15    7.89    2.93
   0  -5 -15   12.37    2.91
   1  -5  15    3.88    3.14
   1  -5  15    0.71    2.86
  -1  -5 -15    3.00    2.81
  -5   0  16   16.55    3.09
  -4   0  16   20.26    3.05
  -3   0  16    3.23    2.51
  -2   0  16   11.00    2.66
  -1   0  16    8.60    2.83
   1   0 -16    1.23    2.25
   0   0 -16   -0.38    2.22
   0   0  16    0.32    2.56
   1   0  16    4.57    2.70
  -1   0 -16   -1.46    2.18
   2   0  16   21.86    3.20
  -2   0 -16   11.43    2.59
  -3   0 -16   10.12    2.73
  -5  -1  16    0.62    2.83
  -5   1  16    4.49    2.80
  -4  -1  16    5.93    2.73
  -4   1  16   11.59    2.96
   3  -1 -16    3.12    2.34
  -3  -1  16    1.62    2.42
  -3   1  16   -0.72    2.51
   2  -1 -16   16.68    2.58
  -2  -1  16   17.74    2.93
  -2   1  16   14.72    2.92
  -1  -1  16   15.41    3.01
   1  -1 -16   19.22    2.70
  -1   1  16   21.82    3.09
   0  -1  16   48.35    4.17
   0  -1 -16   51.35    4.18
   0   1  16   55.33    4.56
   1  -1  16   13.88    2.89
  -1  -1 -16   10.96    2.60
   1   1  16   13.42    3.16
   2  -1  16   37.08    4.16
  -2  -1 -16   41.67    4.19
   3  -1  16    2.08    2.71
  -3  -1 -16    3.48    2.68
  -5  -2  16   12.24    3.12
  -4  -2  16    1.41    2.69
   4  -2 -16    4.43    2.44
  -4   2  16    0.33    2.75
   3  -2 -16    9.76    2.44
  -3  -2  16   10.24    2.77
  -3   2  16    7.63    2.75
   2  -2 -16    3.22    2.19
  -2  -2  16    4.28    2.74
   1  -2 -16    2.94    2.37
  -1  -2  16    6.84    2.75
   0  -2  16   -1.47    2.57
   0  -2 -16   -1.93    2.34
   1  -2  16    0.10    2.60
  -1  -2 -16   -0.09    2.48
   2  -2  16    1.85    2.48
  -2  -2 -16    3.21    2.57
   3  -2  16    3.85    2.70
  -3  -2 -16   -1.80    2.52
   4  -3 -16    2.85    2.45
  -4  -3  16    3.21    2.77
   3  -3 -16    0.42    2.29
  -3  -3  16   -2.57    2.77
   2  -3 -16    7.60    2.39
  -2  -3  16    3.67    2.94
   1  -3 -16    0.25    2.42
  -1  -3  16    0.46    2.71
   0  -3 -16    5.39    2.64
   0  -3  16    3.46    2.70
  -1  -3 -16   13.12    2.87
   1  -3  16    8.01    2.82
   2  -3  16    0.72    2.62
  -2  -3 -16    0.04    2.60
  -3  -3 -16    6.45    2.85
   3  -3  16    5.08    2.86
   4  -4 -16    3.21    2.55
  -4  -4  16   -0.79    3.01
  -3  -4  16    2.65    3.19
   3  -4 -16    4.07    2.49
  -2  -4  16   -0.32    2.94
   2  -4 -16    0.38    2.32
   1  -4 -16    0.37    2.54
  -1  -4  16    2.96    2.86
   0  -4 -16    4.90    2.69
   0  -4  16    4.78    2.78
   0  -4  16   -0.08    2.68
   1  -4  16   -1.51    2.72
  -1  -4 -16   -0.95    2.70
   1  -4  16    3.08    3.13
  -2  -4 -16   -4.93    2.60
   2  -4  16    0.79    2.81
   2  -5 -16   -1.55    2.52
  -2  -5  16    3.74    3.17
  -1  -5  16    0.51    3.01
   1  -5 -16   -1.65    2.74
   0  -5  16    2.70    3.02
   0  -5  16   -1.80    2.92
   0  -5 -16    2.54    2.80
  -5   0  17    3.47    3.02
  -4   0  17    1.97    2.72
  -3   0  17    2.79    2.59
  -2   0  17    2.36    2.68
  -1   0  17   -1.65    2.75
   0   0  17    0.20    2.78
   0   0 -17   -1.95    2.28
   1   0  17   -0.59    2.68
  -1   0 -17    0.12    2.36
   2   0  17    0.10    2.84
  -2   0 -17    3.89    2.53
  -3   0 -17    2.23    2.66
  -5  -1  17   -2.40    2.83
  -5   1  17   -0.15    2.98
  -4  -1  17    1.08    2.69
  -4   1  17   -0.51    2.75
  -3  -1  17   -5.65    2.44
  -3   1  17    2.64    2.57
   2  -1 -17    1.87    2.40
  -2  -1  17   -4.29    2.62
  -2   1  17   -1.22    2.68
  -1  -1  17   13.97    3.07
   1  -1 -17    9.71    2.60
  -1   1  17   11.14    3.16
   0  -1 -17   -0.80    2.33
   0  -1  17    5.78    2.80
   0   1  17   -3.41    2.79
  -1  -1 -17    6.59    2.59
   1  -1  17    9.44    2.90
   2  -1  17   -1.40    2.62
  -2  -1 -17   -3.88    2.42
   3  -1  17    5.22    2.95
  -3  -1 -17    0.12    2.71
  -4  -2  17    5.22    2.88
   4  -2 -17    8.20    2.62
  -3  -2  17    3.12    2.77
   3  -2 -17    5.71    2.45
  -2  -2  17   12.15    3.00
   2  -2 -17   11.61    2.57
   1  -2 -17   13.98    2.81
  -1  -2  17   14.17    3.02
   0  -2 -17    2.78    2.53
   0  -2  17   -1.76    2.64
  -1  -2 -17    6.45    2.74
   1  -2  17   -1.09    2.64
   2  -2  17   -4.16    2.54
  -2  -2 -17   -0.21    2.73
   3  -2  17   -1.33    2.71
  -3  -2 -17   -0.41    2.70
  -4  -3  17    1.28    3.03
   4  -3 -17    5.18    2.60
  -3  -3  17   -1.00    2.93
   3  -3 -17    4.67    2.54
   2  -3 -17    5.05    2.52
  -2  -3  17    4.30    3.02
   1  -3 -17    8.87    2.80
  -1  -3  17    7.01    3.00
   0  -3  17    4.36    2.86
   0  -3 -17   -0.13    2.56
   1  -3  17   32.01    4.12
  -1  -3 -17   35.60    4.23
  -2  -3 -17   -1.95    2.72
   2  -3  17    4.56    2.87
   3  -4 -17   18.29    2.92
  -3  -4  17   14.23    3.52
  -2  -4  17   11.42    3.30
   2  -4 -17   15.43    2.80
  -1  -4  17   13.68    3.26
   1  -4 -17   15.75    3.03
   0  -4  17   14.18    3.16
   0  -4 -17   16.40    3.14
   1  -4  17    1.81    3.02
   1  -4  17   -4.16    2.93
  -1  -4 -17   -0.97    2.74
  -4   0  18    1.94    2.83
  -3   0  18   -0.36    2.62
  -2   0  18   15.63    3.17
  -1   0  18   13.48    3.20
   0   0  18    9.74    3.00
   1   0  18    6.60    3.06
   2   0  18    3.19    3.06
  -4  -1  18   32.81    4.03
  -4   1  18   35.18    4.28
  -3  -1  18    8.63    2.90
  -3   1  18    9.02    2.94
  -2  -1  18   32.97    4.29
   2  -1 -18   34.32    4.21
  -2   1  18   41.37    4.50
   1  -1 -18    2.40    2.52
  -1  -1  18   -2.83    2.83
  -1   1  18    2.59    3.17
   0  -1  18    6.71    2.94
   0  -1 -18    8.16    2.75
   0   1  18    8.96    3.09
  -1  -1 -18    2.93    2.61
   1  -1  18    0.12    2.90
  -2  -1 -18   -0.02    2.65
   2  -1  18   -1.45    2.80
  -4  -2  18    3.61    2.99
   3  -2 -18    4.88    2.59
  -3  -2  18    4.15    2.99
  -2  -2  18   -0.84    2.97
   2  -2 -18    1.53    2.45
  -1  -2  18    8.74    3.08
   1  -2 -18    8.30    2.84
   0  -2  18    3.19    2.83
   0  -2 -18    6.43    2.81
  -1  -2 -18    9.66    2.89
   1  -2  18    1.34    2.84
   2  -2  18   -2.02    2.73
  -2  -2 -18    2.34    2.88
   3  -3 -18    7.70    2.68
  -3  -3  18    2.21    3.21
  -2  -3  18    4.39    3.24
   2  -3 -18    4.51    2.63
   1  -3 -18    9.23    2.90
  -1  -3  18    5.86    3.15
   0  -3  18    3.04    2.98
   0  -3 -18   -3.27    2.70
  -1  -3 -18   -3.68    2.79
   1  -3  18    0.79    2.94
   2  -4 -18   -1.07    2.63
  -2  -4  18    1.05    3.27
  -1  -4  18    3.02    3.25
   1  -4 -18    2.31    2.78
   0  -4  18    1.16    3.08
   0  -4 -18   -1.70    2.88
  -4   0  19   -1.40    2.71
  -3   0  19    1.80    2.85
  -2   0  19    2.19    3.06
  -1   0  19   -4.85    2.93
   0   0  19   -3.06    2.89
   1   0  19    1.36    3.14
  -4  -1  19    2.51    2.94
  -4   1  19    4.33    2.95
  -3  -1  19   11.05    3.16
  -3   1  19    2.46    2.88
  -2  -1  19    0.37    2.94
  -2   1  19   -1.84    2.97
   1  -1 -19   -0.62    2.61
  -1  -1  19    3.45    3.11
  -1   1  19    6.54    3.16
   0  -1  19    1.97    2.83
   0  -1 -19   -1.02    2.62
  -1  -1 -19   -2.82    2.67
   1  -1  19   -6.34    2.82
  -3  -2  19    4.35    3.30
   3  -2 -19    0.51    2.58
   2  -2 -19   -1.83    2.68
  -2  -2  19    0.37    3.07
  -1  -2  19    5.48    3.16
   1  -2 -19    1.25    2.75
   0  -2  19    1.51    2.99
   0  -2 -19    1.04    2.80
   1  -2  19   -1.75    2.90
  -1  -2 -19   -3.21    2.67
  -2  -3  19    1.25    3.34
   2  -3 -19   -0.61    2.70
  -1  -3  19    4.04    3.24
   1  -3 -19   11.72    2.98
   0  -3 -19    1.35    2.86
   0  -3  19    0.08    3.14
  -3   0  20    8.85    3.29
  -2   0  20    6.89    3.21
  -1   0  20   44.56    4.93
   0   0  20   -0.31    3.05
   1   0  20   22.68    3.78
  -3  -1  20   -5.67    3.01
  -3   1  20   -3.68    2.88
  -2  -1  20    4.34    3.16
  -2   1  20    4.58    3.26
  -1  -1  20    2.08    3.13
   0  -1  20   -1.96    2.94
   0  -1 -20    1.17    2.81
   2  -2 -20    0.40    2.89
  -2  -2  20    6.01    3.33
  -1  -2  20    5.95    3.17
   1  -2 -20    6.70    2.99
   0  -2  20    7.70    3.40
   0  -2 -20    8.61    3.09
   0   0   0    0.00    0.00
;
_shelx_hkl_checksum              5421
loop_
_space_group_symop_operation_xyz
'x, y, z'
'-x, y+1/2, -z+1/2'
'-x, -y, -z'
'x, -y-1/2, z-1/2'
loop_
_atom_site_label
_atom_site_type_symbol
_atom_site_fract_x
_atom_site_fract_y
_atom_site_fract_z
_atom_site_U_iso_or_equiv
_atom_site_adp_type
_atom_site_occupancy
_atom_site_site_symmetry_order
_atom_site_calc_flag
_atom_site_refinement_flags_posn
_atom_site_refinement_flags_adp
Cl1 Cl 1.03743(12) 0.30001(13) 0.57808(5) 0.0241(3) Uani 1 1 d . .
O1 O 0.4884(3) 0.3325(3) 0.44649(14) 0.0223(5) Uani 1 1 d . .
N1 N 0.3642(4) 0.0859(4) 0.34631(16) 0.0175(6) Uani 1 1 d . .
C1 C 0.5172(5) 0.1668(5) 0.4072(2) 0.0179(7) Uani 1 1 d . .
H1 H 0.6595 0.0942 0.4225 0.022 Uiso 1 1 calc R U
C2 C 0.4103(5) -0.1063(5) 0.3026(2) 0.0250(8) Uani 1 1 d . .
H2A H 0.5676 -0.1551 0.3240 0.037 Uiso 1 1 calc R U
H2B H 0.3964 -0.0792 0.2416 0.037 Uiso 1 1 calc R U
H2C H 0.2981 -0.2138 0.3129 0.037 Uiso 1 1 calc R U
C3 C 0.1372(5) 0.1826(5) 0.3208(2) 0.0223(7) Uani 1 1 d . .
H3A H 0.0192 0.1028 0.3447 0.034 Uiso 1 1 calc R U
H3B H 0.0999 0.1830 0.2588 0.034 Uiso 1 1 calc R U
H3C H 0.1403 0.3268 0.3419 0.034 Uiso 1 1 calc R U
Li1 Li 0.7427(8) 0.5045(9) 0.5048(3) 0.0216(13) Uani 1 1 d . .
loop_
_atom_site_aniso_label
_atom_site_aniso_U_11
_atom_site_aniso_U_22
_atom_site_aniso_U_33
_atom_site_aniso_U_23
_atom_site_aniso_U_13
_atom_site_aniso_U_12
Cl1 0.0143(3) 0.0285(5) 0.0306(5) 0.0077(5) 0.0069(3) 0.0037(3)
O1 0.0128(10) 0.0271(14) 0.0271(13) -0.0063(11) 0.0035(9) 0.0008(9)
N1 0.0124(11) 0.0172(15) 0.0233(15) -0.0018(12) 0.0042(10) 0.0033(10)
C1 0.0120(13) 0.0209(19) 0.0218(17) -0.0020(14) 0.0056(12) -0.0004(12)
C2 0.0174(15) 0.0249(19) 0.033(2) -0.0090(17) 0.0056(14) 0.0040(13)
C3 0.0140(14) 0.0241(19) 0.0276(18) -0.0029(17) -0.0009(12) 0.0051(14)
Li1 0.010(2) 0.028(3) 0.026(3) 0.003(3) 0.000(2) 0.001(2)
loop_
_atom_type_symbol
_atom_type_description
_atom_type_scat_dispersion_real
_atom_type_scat_dispersion_imag
_atom_type_scat_source
C C 0.0033 0.0016 'International Tables Vol C Tables 4.2.6.8 and 6.1.1.4'
H H 0.0000 0.0000 'International Tables Vol C Tables 4.2.6.8 and 6.1.1.4'
N N 0.0061 0.0033 'International Tables Vol C Tables 4.2.6.8 and 6.1.1.4'
O O 0.0106 0.0060 'International Tables Vol C Tables 4.2.6.8 and 6.1.1.4'
Li Li -0.0003 0.0001 'International Tables Vol C Tables 4.2.6.8 and 6.1.1.4'
Cl Cl 0.1484 0.1585 'International Tables Vol C Tables 4.2.6.8 and 6.1.1.4'
loop_
_geom_angle_atom_site_label_1
_geom_angle_atom_site_label_2
_geom_angle_atom_site_label_3
_geom_angle
_geom_angle_site_symmetry_1
_geom_angle_site_symmetry_3
Li1 Cl1 Li1 81.02(17) . 3_766
C1 O1 Li1 143.2(2) . 3_666
C1 O1 Li1 124.0(2) . .
Li1 O1 Li1 91.8(2) 3_666 .
C1 N1 C2 121.9(3) . .
C1 N1 C3 121.4(3) . .
C2 N1 C3 116.7(3) . .
O1 C1 N1 124.8(3) . .
O1 C1 H1 117.6 . .
N1 C1 H1 117.6 . .
N1 C2 H2A 109.5 . .
N1 C2 H2B 109.5 . .
H2A C2 H2B 109.5 . .
N1 C2 H2C 109.5 . .
H2A C2 H2C 109.5 . .
H2B C2 H2C 109.5 . .
N1 C3 H3A 109.5 . .
N1 C3 H3B 109.5 . .
H3A C3 H3B 109.5 . .
N1 C3 H3C 109.5 . .
H3A C3 H3C 109.5 . .
H3B C3 H3C 109.5 . .
O1 Li1 O1 88.2(2) 3_666 .
O1 Li1 Cl1 126.9(3) 3_666 .
O1 Li1 Cl1 111.8(3) . .
O1 Li1 Cl1 114.3(3) 3_666 3_766
O1 Li1 Cl1 118.1(3) . 3_766
Cl1 Li1 Cl1 98.98(17) . 3_766
O1 Li1 Li1 44.20(16) 3_666 3_666
O1 Li1 Li1 44.03(16) . 3_666
Cl1 Li1 Li1 132.6(3) . 3_666
Cl1 Li1 Li1 127.9(3) 3_766 3_666
O1 Li1 Li1 141.1(4) 3_666 3_766
O1 Li1 Li1 130.4(3) . 3_766
Cl1 Li1 Li1 49.68(15) . 3_766
Cl1 Li1 Li1 49.30(15) 3_766 3_766
Li1 Li1 Li1 173.6(4) 3_666 3_766
loop_
_geom_bond_atom_site_label_1
_geom_bond_atom_site_label_2
_geom_bond_distance
_geom_bond_site_symmetry_2
Cl1 Li1 2.328(5) .
Cl1 Li1 2.341(5) 3_766
O1 C1 1.254(4) .
O1 Li1 1.957(5) 3_666
O1 Li1 1.963(6) .
N1 C1 1.321(4) .
N1 C2 1.458(4) .
N1 C3 1.462(3) .
C1 H1 0.9500 .
C2 H2A 0.9800 .
C2 H2B 0.9800 .
C2 H2C 0.9800 .
C3 H3A 0.9800 .
C3 H3B 0.9800 .
C3 H3C 0.9800 .
Li1 O1 1.957(5) 3_666
Li1 Cl1 2.341(5) 3_766
Li1 Li1 2.815(9) 3_666
Li1 Li1 3.033(9) 3_766
