#------------------------------------------------------------------------------
#$Date: 2020-02-13 01:18:33 +0200 (Thu, 13 Feb 2020) $
#$Revision: 248088 $
#$URL: file:///home/coder/svn-repositories/cod/cif/4/00/34/4003477.cif $
#------------------------------------------------------------------------------
#
# This file is available in the Crystallography Open Database (COD),
# http://www.crystallography.net/
#
# All data on this site have been placed in the public domain by the
# contributors.
#
data_4003477
loop_
_publ_author_name
'W\"orle, Michael'
'Guntlin, Christoph P.'
'Gyr, Luzia'
'Sougrati, Moulay T.'
'Lambert, Charles-Henri'
'Kravchyk, Kostiantyn V.'
'Zenobi, Renato'
'Kovalenko, Maksym V.'
_publ_section_title
;
 Structural Evolution of Iron(III) Trifluoroacetate upon Thermal
 Decomposition: Chains, Layers, and Rings
;
_journal_name_full               'Chemistry of Materials'
_journal_paper_doi               10.1021/acs.chemmater.9b05004
_journal_year                    2020
_chemical_formula_sum            'C2 F5 Fe O2'
_chemical_formula_weight         206.86
_space_group_IT_number           67
_space_group_name_Hall           '-C 2a 2'
_space_group_name_H-M_alt        'C m m a'
_symmetry_cell_setting           orthorhombic
_symmetry_space_group_name_H-M   'C m m a'
_audit_creation_date             2018-01-14T12:06
_audit_creation_method           'created in GSAS-II'
_audit_update_record
'2018-01-14T12:06  Initial software-generated CIF'
_cell_angle_alpha                90
_cell_angle_beta                 90
_cell_angle_gamma                90
_cell_formula_units_Z            4
_cell_length_a                   7.13216(31)
_cell_length_b                   7.53768(25)
_cell_length_c                   11.25845(29)
_cell_measurement_temperature    298
_cell_volume                     605.25(4)
_computing_structure_refinement
'GSAS-II (Toby & Von Dreele, J. Appl. Cryst. 46, 544-549, 2013)'
_diffrn_ambient_pressure         100
_diffrn_ambient_temperature      298
_diffrn_detector                 'Silicon strip detector'
_diffrn_detector_type            'Dectris Mythen 1K'
_diffrn_measurement_device_type  'Stoe STADIP'
_diffrn_radiation_monochromator  'Focussing Ge'
_diffrn_radiation_polarisn_ratio 0.7000
_diffrn_radiation_probe          x-ray
_diffrn_radiation_type           'Cu K\a~1~'
_diffrn_source                   'sealed X-ray tube'
_diffrn_source_target            Cu
_exptl_crystal_density_diffrn    2.270
_exptl_crystal_F_000             396
_pd_block_id
2018-01-14T12:06|FeFxTFAy|WorleMichael|Stoe_STADIP
_pd_calc_method                  'Rietveld Refinement'
_pd_char_colour                  colourless
_pd_instr_location               ' ?'
_pd_meas_2theta_range_inc        0.01000
_pd_meas_2theta_range_max        69.99000
_pd_meas_2theta_range_min        5.00000
_pd_phase_name                   FeF2TFA
_pd_proc_2theta_range_inc        0.01000
_pd_proc_2theta_range_max        69.94801
_pd_proc_2theta_range_min        4.95801
_pd_proc_info_datetime           2018-01-14T12:06
_pd_proc_info_excluded_regions   ' ?'
_pd_proc_ls_background_function
; Background function: "chebyschev" function with 21 terms:
    4885.975, -3628.767, 8454.814, -11555.358, -84053.551, 123323.979, 
    777795.347, -697687.533, -4.124958234e6, 2.419103606e6, 1.3252151136e7, 
    -5.343531555e6, -2.6767852718e7, 7.593673615e6, 3.4053469081e7, 
    -6.722681828e6, -2.6385903463e7, 3.359230938e6, 1.1345497415e7, 
    -719148.415, -2.072765732e6, 
;
_pd_proc_ls_pref_orient_corr     none
_pd_proc_ls_profile_function
; Finger-Cox-Jephcoat function parameters U, V, W, X, Y, SH/L:
  peak variance(Gauss) = Utan(Th)^2^+Vtan(Th)+W:
  peak HW(Lorentz) = X/cos(Th)+Ytan(Th); SH/L = S/L+H/L
  U, V, W in (centideg)^2^, X & Y in centideg
    382.477, 0.517, 29.082, 0.000, 0.000, 0.053, 
  Crystallite size model "isotropic" for FeF2TFA (microns)
  parameters: Size, G/L mix
    1.000, 1.000, 
  Mustrain model "isotropic" for FeF2TFA (10^6^)
    parameters: Mustrain, G/L mix
    1000.000, 1.000, 

;
_pd_proc_ls_prof_R_factor        0.01565
_pd_proc_ls_prof_wR_expected     0.01270
_pd_proc_ls_prof_wR_factor       0.02265
_pd_proc_number_of_points        6500
_pd_spec_mounting                ' ?'
_refine_diff_density_max         1.412
_refine_diff_density_min         -0.840
_refine_ls_goodness_of_fit_all   1.809
_refine_ls_matrix_type           full
_refine_ls_number_parameters     15
_refine_ls_R_Fsqd_factor         0.13918
_refine_ls_wR_factor_obs         0.02295
_reflns_d_resolution_high        1.358
_reflns_d_resolution_low         11.258
_reflns_limit_h_max              1
_reflns_limit_h_min              1
_reflns_limit_k_max              1
_reflns_limit_k_min              1
_reflns_limit_l_max              8
_reflns_limit_l_min              8
_reflns_number_total             84
_cod_data_source_file            cm9b05004_si_003.cif
_cod_data_source_block           FeFxTFAy
_cod_original_cell_volume        605.253(31)
_cod_original_sg_symbol_H-M      Cmma
_cod_database_code               4003477
_refine_ls_r_f_factor            0.13189
_gsas_proc_ls_prof_r_b_factor    0.02783
_gsas_proc_ls_prof_wr_b_factor   0.04123
loop_
_space_group_symop_id
_space_group_symop_operation_xyz
1 x,y,z
2 -x,y,z
3 x,1/2-y,z
4 -x,1/2-y,z
5 -x,-y,-z
6 x,-y,-z
7 -x,1/2+y,-z
8 x,1/2+y,-z
9 1/2+x,1/2+y,z
10 1/2-x,1/2+y,z
11 1/2+x,-y,z
12 1/2-x,-y,z
13 1/2-x,1/2-y,-z
14 1/2+x,1/2-y,-z
15 1/2-x,y,-z
16 1/2+x,y,-z
loop_
_atom_site_label
_atom_site_type_symbol
_atom_site_fract_x
_atom_site_fract_y
_atom_site_fract_z
_atom_site_occupancy
_atom_site_adp_type
_atom_site_U_iso_or_equiv
_atom_site_symmetry_multiplicity
Fe1 Fe 0.25000 0.75000 0.50000 1.000 Uiso 0.061 4
F1 F 0.50000 0.75000 0.5638(8) 1.000 Uiso 0.0731044 4
F2 F 0.25000 1.00000 0.50000 1.000 Uiso 0.0731044 4
O1 O 0.17252(31) 0.75000 0.6692(4) 1.000 Uiso 0.0812272 8
C1 C 0.00000 0.75000 0.6911(4) 1.000 Uiso 0.0913806 4
C2 C 0.00000 0.75000 0.8314(3) 1.000 Uiso 0.0913806 4
F3 F 0.00000 0.91620(12) 0.8825(5) 0.500 Uiso 0.146209 8
F4 F 0.15088(13) 0.66936(24) 0.8863(3) 0.500 Uiso 0.146209 16
loop_
_atom_type_symbol
_atom_type_number_in_cell
C 8
F 20
Fe 4
O 8
loop_
_diffrn_radiation_wavelength
_diffrn_radiation_wavelength_wt
_diffrn_radiation_wavelength_id
1.54051 1.0 1
1.54433 0.0000 2
loop_
_geom_angle_atom_site_label_1
_geom_angle_atom_site_label_2
_geom_angle_atom_site_label_3
_geom_angle
_geom_angle_site_symmetry_1
_geom_angle_site_symmetry_2
_geom_angle_site_symmetry_3
_geom_angle_publ_flag
F1 Fe1 F1 180 1_555 1_555 13_566 yes
F1 Fe1 F2 90 1_555 1_555 1_555 yes
F1 Fe1 F2 90 13_566 1_555 1_555 yes
F1 Fe1 F2 90 1_555 1_555 3_565 yes
F1 Fe1 F2 90 13_566 1_555 3_565 yes
F2 Fe1 F2 180 1_555 1_555 3_565 yes
Fe1 F1 Fe1 136.1(5) 1_555 1_555 2_655 yes
Fe1 F2 Fe1 180 1_555 1_555 6_576 yes
O1 C1 O1 157.4(6) 1_555 1_555 2_555 yes
F3 C2 F3 130.7(4) 1_555 1_555 3_565 yes
F3 C2 F4 102.29(16) 1_555 1_555 1_555 yes
F3 C2 F4 54.09(9) 3_565 1_555 1_555 yes
F3 C2 F4 102.29(16) 1_555 1_555 2_555 yes
F3 C2 F4 54.09(9) 3_565 1_555 2_555 yes
F4 C2 F4 102.27(22) 1_555 1_555 2_555 yes
F3 C2 F4 54.09(9) 1_555 1_555 3_565 yes
F3 C2 F4 102.29(16) 3_565 1_555 3_565 yes
F4 C2 F4 52.18(19) 1_555 1_555 3_565 yes
F4 C2 F4 126.8(4) 2_555 1_555 3_565 yes
F3 C2 F4 54.09(9) 1_555 1_555 4_565 yes
F3 C2 F4 102.29(16) 3_565 1_555 4_565 yes
F4 C2 F4 126.8(4) 1_555 1_555 4_565 yes
F4 C2 F4 52.18(19) 2_555 1_555 4_565 yes
F4 C2 F4 102.27(22) 3_565 1_555 4_565 yes
C2 F3 F4 63.10(11) 1_555 1_555 3_565 yes
C2 F3 F4 63.10(11) 1_555 1_555 4_565 yes
F4 F3 F4 118.01(20) 3_565 1_555 4_565 yes
C2 F4 F3 62.81(12) 1_555 1_555 3_565 yes
C2 F4 F4 63.91(9) 1_555 1_555 3_565 yes
F3 F4 F4 120.92(9) 3_565 1_555 3_565 yes
loop_
_geom_bond_atom_site_label_1
_geom_bond_atom_site_label_2
_geom_bond_distance
_geom_bond_site_symmetry_1
_geom_bond_site_symmetry_2
_geom_bond_publ_flag
Fe1 F1 1.922(3) 1_555 1_555 yes
Fe1 F1 1.922(3) 1_555 13_566 yes
Fe1 F2 1.88442 1_555 1_555 yes
Fe1 F2 1.88442 1_555 3_565 yes
Fe1 O1 1.984(4) 1_555 1_555 yes
Fe1 O1 1.984(4) 1_555 13_566 yes
F1 Fe1 1.922(3) 1_555 1_555 yes
F1 Fe1 1.922(3) 1_555 2_655 yes
F2 Fe1 1.88442 1_555 1_555 yes
F2 Fe1 1.88442 1_555 6_576 yes
O1 Fe1 1.984(4) 1_555 1_555 yes
O1 C1 1.2547(17) 1_555 1_555 yes
C1 O1 1.2547(17) 1_555 1_555 yes
C1 O1 1.2547(17) 1_555 2_555 yes
C1 C2 1.5797(18) 1_555 1_555 yes
C2 C1 1.5797(18) 1_555 1_555 yes
C2 F3 1.3786(18) 1_555 1_555 yes
C2 F3 1.3786(18) 1_555 3_565 yes
C2 F4 1.3821(18) 1_555 1_555 yes
C2 F4 1.3821(18) 1_555 2_555 yes
C2 F4 1.3821(18) 1_555 3_565 yes
C2 F4 1.3821(18) 1_555 4_565 yes
F3 C2 1.3786(18) 1_555 1_555 yes
F3 F4 2.1498(13) 1_555 1_555 yes
F3 F4 2.1498(13) 1_555 2_555 yes
F3 F4 1.2554(17) 1_555 3_565 yes
F3 F4 1.2554(17) 1_555 4_565 yes
F4 C2 1.3821(18) 1_555 1_555 yes
F4 F3 2.1498(13) 1_555 1_555 yes
F4 F3 1.2554(17) 1_555 3_565 yes
F4 F4 2.1523(18) 1_555 2_555 yes
F4 F4 1.216(4) 1_555 3_565 yes
loop_
_pd_meas_intensity_total
_pd_calc_intensity_total
_pd_proc_intensity_bkg_calc
_pd_proc_ls_weight
9780 9624.02582 9621.38774 0.0001022495
9821 9628.77417 9626.11692 0.0001018226
9557 9633.50113 9630.82451 0.0001046353
9818 9638.2065 9635.51031 0.0001018537
9758 9642.8901 9640.17411 0.00010248
9584 9647.55173 9644.81573 0.0001043406
9701 9652.19122 9649.43498 0.0001030822
9843 9656.80839 9654.03168 0.000101595
9819 9661.40305 9658.60565 0.0001018434
9823 9665.97503 9663.1567 0.0001018019
9646 9670.52417 9667.68468 0.0001036699
9779 9675.05029 9672.1894 0.0001022599
9769 9679.55325 9676.67071 0.0001023646
9824 9684.03287 9681.12844 0.0001017915
9863 9688.489 9685.56243 0.000101389
9741 9692.92149 9689.97252 0.0001026589
9651 9697.3302 9694.35857 0.0001036162
9783 9701.71497 9698.72042 0.0001022181
9802 9706.07567 9703.05793 0.00010202
9859 9710.41216 9707.37096 0.0001014302
9681 9714.7243 9711.65936 0.0001032951
9746 9719.01196 9715.92301 0.0001026062
9718 9723.27502 9720.16177 0.0001029018
9747 9727.51334 9724.37551 0.0001025957
9685 9731.72682 9728.5641 0.0001032525
9911 9735.9631 9732.72743 0.000100898
9764 9740.1266 9736.86537 0.000102417
9800 9744.26492 9740.9778 0.0001020408
9852 9748.37792 9745.06461 0.0001015022
9877 9752.46552 9749.1257 0.0001012453
9787 9756.5276 9753.16095 0.0001021764
9776 9760.56408 9757.17026 0.0001022913
9721 9764.57484 9761.15352 0.0001028701
10013 9768.5598 9765.11065 0.0000998702
9949 9772.51888 9769.04154 0.0001005126
9718 9776.45197 9772.94611 0.0001029018
9878 9780.359 9776.82425 0.0001012351
9912 9784.23989 9780.67589 0.0001008878
9834 9788.09456 9784.50094 0.000101688
9737 9791.92294 9788.29932 0.000102701
9587 9795.72495 9792.07095 0.0001043079
9914 9799.50052 9795.81576 0.0001008675
9834 9803.24959 9799.53367 0.000101688
9810 9806.9721 9803.22462 0.0001019368
9838 9810.66798 9806.88853 0.0001016467
9747 9814.33717 9810.52534 0.0001025957
9920 9817.97963 9814.13499 0.0001008065
9817 9821.5953 9817.71742 0.0001018641
9890 9825.18413 9821.27257 0.0001011122
9775 9828.74607 9824.80039 0.0001023018
9761 9832.28108 9828.30083 0.0001024485
9738 9835.78912 9831.77383 0.0001026905
9730 9839.27016 9835.21936 0.0001027749
9917 9842.72415 9838.63736 0.0001008369
9898 9846.15106 9842.0278 0.0001010305
9861 9849.55086 9845.39064 0.0001014096
9976 9852.92353 9848.72583 0.0001002406
9937 9856.26904 9852.03335 0.000100634
9739 9859.58736 9855.31316 0.0001026799
9816 9862.87848 9858.56524 0.0001018745
9644 9866.14239 9861.78955 0.0001036914
9988 9869.37905 9864.98608 0.0001001201
9856 9872.58847 9868.15479 0.000101461
9759 9875.77064 9871.29567 0.0001024695
9789 9878.92554 9874.4087 0.0001021555
9881 9882.05317 9877.49386 0.0001012043
9951 9885.15353 9880.55115 0.0001004924
9849 9888.22662 9883.58054 0.0001015332
9721 9891.27244 9886.58203 0.0001028701
9843 9894.291 9889.55562 0.000101595
9841 9897.2823 9892.50129 0.0001016157
9884 9900.24636 9895.41905 0.0001011736
9712 9903.18318 9898.30889 0.0001029654
9841 9906.09279 9901.17081 0.0001016157
9888 9908.97519 9904.00482 0.0001011327
9766 9911.83041 9906.81092 0.0001023961
9667 9914.65848 9909.58913 0.0001034447
9878 9917.4594 9912.33944 0.0001012351
10077 9920.23322 9915.06187 0.0000992359
9850 9922.97996 9917.75643 0.0001015228
9810 9925.69964 9920.42314 0.0001019368
9963 9928.39231 9923.06201 0.0001003714
9971 9931.058 9925.67307 0.0001002908
9949 9933.69674 9928.25633 0.0001005126
9981 9936.30859 9930.81181 0.0001001904
9774 9938.89357 9933.33954 0.0001023123
9919 9941.45174 9935.83955 0.0001008166
9767 9943.98314 9938.31186 0.0001023856
9880 9946.48782 9940.7565 0.0001012146
9764 9948.96584 9943.17351 0.000102417
9887 9951.41724 9945.56291 0.0001011429
9887 9953.84208 9947.92474 0.0001011429
9793 9956.24043 9950.25904 0.0001021138
9882 9958.61234 9952.56584 0.0001011941
9795 9960.95788 9954.84518 0.0001020929
9875 9963.2771 9957.09711 0.0001012658
9882 9965.57008 9959.32166 0.0001011941
9813 9967.83689 9961.51889 0.0001019056
9965 9970.0776 9963.68883 0.0001003512
9874 9972.29228 9965.83153 0.0001012761
9902 9974.48102 9967.94705 0.0001009897
9939 9976.64388 9970.03543 0.0001006137
9767 9978.78096 9972.09672 0.0001023856
9826 9980.89233 9974.13098 0.0001017708
10006 9982.97808 9976.13825 0.00009994
9809 9985.03829 9978.11861 0.0001019472
10133 9987.07307 9980.0721 0.0000986875
10025 9989.0825 9981.99878 0.0000997506
9921 9991.06668 9983.89871 0.0001007963
9990 9993.0257 9985.77196 0.0001001001
9939 9994.95967 9987.61859 0.0001006137
9966 9996.86869 9989.43865 0.0001003412
9833 9998.75287 9991.23222 0.0001016984
9868 10000.6123 9992.99937 0.0001013377
9817 10002.44711 9994.74015 0.0001018641
9914 10004.2574 9996.45464 0.0001008675
9996 10006.0433 9998.14291 0.00010004
9786 10007.80492 9999.80503 0.0001021868
9964 10009.54237 10001.44108 0.0001003613
10043 10011.25579 10003.05112 0.0000995718
10075 10012.9453 10004.63523 0.0000992556
9753 10014.61103 10006.19349 0.0001025326
9869 10016.25312 10007.72597 0.0001013274
10026 10017.8717 10009.23276 0.0000997407
9964 10019.4669 10010.71392 0.0001003613
9797 10021.03887 10012.16955 0.0001020721
9941 10022.58775 10013.59972 0.0001005935
9989 10024.1137 10015.00452 0.0001001101
9840 10025.61686 10016.38403 0.000101626
9918 10027.09738 10017.73833 0.0001008268
9959 10028.55543 10019.06751 0.0001004117
9780 10029.99117 10020.37165 0.0001022495
9871 10031.40476 10021.65085 0.0001013069
9997 10032.79638 10022.90518 0.00010003
10109 10034.16619 10024.13475 0.0000989218
9877 10035.51438 10025.33963 0.0001012453
9978 10036.84111 10026.51993 0.0001002205
10003 10038.14659 10027.67572 0.00009997
9807 10039.431 10028.80711 0.000101968
9925 10040.69453 10029.91419 0.0001007557
9896 10041.93739 10030.99705 0.0001010509
9892 10043.15977 10032.05579 0.0001010918
9829 10044.3619 10033.0905 0.0001017397
9947 10045.54398 10034.10128 0.0001005328
10061 10046.70624 10035.08823 0.0000993937
9869 10047.84889 10036.05144 0.0001013274
10014 10048.97218 10036.99101 0.0000998602
9900 10050.07634 10037.90705 0.0001010101
9890 10051.16162 10038.79965 0.0001011122
10012 10052.22826 10039.66892 0.0000998801
9927 10053.27654 10040.51495 0.0001007354
9858 10054.30671 10041.33785 0.0001014405
9897 10055.31904 10042.13772 0.0001010407
10009 10056.31383 10042.91467 0.0000999101
10011 10057.29136 10043.66879 0.0000998901
9959 10058.25193 10044.4002 0.0001004117
9944 10059.19585 10045.109 0.0001005632
9845 10060.12344 10045.79529 0.0001015744
9934 10061.03504 10046.45919 0.0001006644
9964 10061.93098 10047.10079 0.0001003613
9996 10062.8116 10047.72021 0.00010004
9871 10063.67729 10048.31756 0.0001013069
9952 10064.52841 10048.89293 0.0001004823
9994 10065.36536 10049.44645 0.00010006
9936 10066.18854 10049.97822 0.0001006441
9944 10066.99837 10050.48835 0.0001005632
9981 10067.7953 10050.97696 0.0001001904
10057 10068.57978 10051.44414 0.0000994332
9908 10069.35226 10051.89003 0.0001009285
9992 10070.11327 10052.31472 0.0001000801
9864 10070.86329 10052.71832 0.0001013788
9934 10071.60287 10053.10096 0.0001006644
9911 10072.33258 10053.46275 0.000100898
10011 10073.05298 10053.80379 0.0000998901
10077 10073.7647 10054.12421 0.0000992359
10076 10074.46837 10054.42411 0.0000992457
10024 10075.16465 10054.70361 0.0000997606
10067 10075.85427 10054.96282 0.0000993345
9980 10076.53795 10055.20187 0.0001002004
9997 10077.21647 10055.42086 0.00010003
10029 10077.89065 10055.61992 0.0000997108
10117 10078.56135 10055.79915 0.0000988435
9905 10079.22948 10055.95868 0.0001009591
9951 10079.896 10056.09861 0.0001004924
10288 10080.56193 10056.21908 0.0000972006
10084 10081.22835 10056.32019 0.000099167
10094 10081.89641 10056.40206 0.0000990688
10180 10082.56731 10056.46481 0.0000982318
10184 10083.24236 10056.50856 0.0000981932
10156 10083.92292 10056.53342 0.000098464
10142 10084.61047 10056.53952 0.0000985999
10072 10085.3066 10056.52696 0.0000992851
10035 10086.01298 10056.49588 0.0000996512
10176 10086.73142 10056.44639 0.0000982704
10143 10087.46387 10056.3786 0.0000985902
10070 10088.21243 10056.29264 0.0000993049
10096 10088.97935 10056.18862 0.0000990491
10060 10089.76712 10056.06667 0.0000994036
10122 10090.57835 10055.9269 0.0000987947
10099 10091.41597 10055.76944 0.0000990197
10136 10092.28314 10055.59439 0.0000986582
10147 10093.18338 10055.40189 0.0000985513
10142 10094.12057 10055.19205 0.0000985999
10166 10095.09912 10054.96499 0.0000983671
10375 10096.1242 10054.72083 0.0000963855
10113 10097.2019 10054.4597 0.0000988826
10207 10098.33992 10054.1817 0.000097972
10318 10099.54827 10053.88696 0.000096918
10371 10100.8407 10053.57561 0.0000964227
10356 10102.23661 10053.24775 0.0000965624
10136 10103.76423 10052.90351 0.0000986582
10301 10105.46484 10052.54301 0.000097078
10214 10107.39883 10052.16638 0.0000979048
10266 10109.65361 10051.77372 0.0000974089
10371 10112.3534 10051.36516 0.0000964227
10431 10115.67062 10050.94081 0.0000958681
10522 10119.83876 10050.50081 0.000095039
10357 10125.16462 10050.04527 0.0000965531
10473 10132.03933 10049.5743 0.0000954836
10633 10140.94538 10049.08803 0.0000940468
10514 10152.45768 10048.58657 0.0000951113
10632 10167.23695 10048.07005 0.0000940557
10459 10186.01349 10047.53859 0.0000956114
10555 10209.56138 10046.9923 0.0000947418
10606 10238.66349 10046.4313 0.0000942863
10718 10274.0698 10045.85571 0.000093301
10740 10316.45194 10045.26566 0.0000931099
10814 10366.36022 10044.66125 0.0000924727
10847 10424.18677 10044.04261 0.0000921914
10877 10490.14632 10043.40986 0.0000919371
10936 10564.2719 10042.76311 0.0000914411
11190 10646.43354 10042.10248 0.0000893655
11020 10736.36711 10041.4281 0.0000907441
11181 10833.71619 10040.74007 0.0000894374
11313 10938.07499 10040.03852 0.0000883939
11343 11049.02714 10039.32356 0.0000881601
11481 11166.18353 10038.5953 0.0000871004
11539 11289.20974 10037.85388 0.0000866626
11529 11417.84314 10037.0994 0.0000867378
11568 11551.90488 10036.33198 0.0000864454
11691 11691.30413 10035.55173 0.0000855359
11899 11836.03163 10034.75878 0.0000840407
11852 11986.16059 10033.95324 0.0000843739
12040 12141.82933 10033.13522 0.0000830565
12180 12303.24547 10032.30483 0.0000821018
12312 12470.66962 10031.46221 0.0000812216
12565 12644.41539 10030.60745 0.0000795862
12616 12824.84153 10029.74067 0.0000792644
12830 13012.35757 10028.86199 0.0000779423
12993 13207.42041 10027.97153 0.0000769645
13079 13410.53677 10027.06939 0.0000764584
13474 13622.26999 10026.15569 0.000074217
13528 13843.24469 10025.23054 0.0000739208
13726 14074.15972 10024.29406 0.0000728544
13971 14315.79033 10023.34635 0.0000715768
14340 14569.00602 10022.38754 0.000069735
14813 14834.78689 10021.41773 0.0000675083
15041 15114.23851 10020.43703 0.0000664849
15189 15408.62614 10019.44556 0.0000658371
15562 15719.39178 10018.44342 0.0000642591
16040 16048.20204 10017.43073 0.0000623441
16386 16397.01309 10016.4076 0.0000610277
16600 16768.12143 10015.37414 0.000060241
17145 17164.26837 10014.33046 0.000058326
17599 17588.74944 10013.27666 0.0000568214
17866 18045.58427 10012.21286 0.0000559722
18781 18539.70804 10011.13916 0.0000532453
19284 19077.17358 10010.05568 0.0000518565
19647 19665.42047 10008.96251 0.0000508984
20730 20313.48102 10007.85978 0.0000482393
21591 21032.10828 10006.74758 0.0000463156
22229 21833.73693 10005.62603 0.0000449863
22896 22732.10926 10004.49522 0.0000436758
23962 23741.44217 10003.35527 0.0000417327
25029 24874.90276 10002.20628 0.0000399537
26504 26142.47649 10001.04836 0.0000377302
28061 27547.95058 9999.88161 0.0000356366
29540 29085.42179 9998.70614 0.0000338524
31011 30735.57385 9997.52204 0.0000322466
32642 32462.35605 9996.32943 0.0000306354
34592 34210.7861 9995.12841 0.0000289084
36355 35906.70784 9993.91908 0.0000275065
37713 37459.13895 9992.70154 0.0000265161
39218 38765.53071 9991.47589 0.0000254985
40512 39719.82462 9990.24225 0.000024684
40833 40222.8157 9989.0007 0.00002449
40872 40194.00407 9987.75135 0.0000244666
40373 39583.81559 9986.4943 0.000024769
39177 38384.6117 9985.22964 0.0000255252
37302 36637.36125 9983.95749 0.0000268082
34992 34430.37879 9982.67793 0.000028578
32034 31888.26402 9981.39108 0.0000312168
29180 29154.27682 9980.09701 0.00003427
26069 26371.87821 9978.79584 0.0000383597
23405 23669.90619 9977.48766 0.0000427259
20834 21152.78663 9976.17256 0.0000479985
18773 18895.31553 9974.85065 0.000053268
16810 16941.47443 9973.52202 0.0000594884
15399 15306.59155 9972.18676 0.0000649393
14310 13982.07249 9970.84498 0.0000698812
13380 12941.65443 9969.49675 0.0000747384
12607 12148.14405 9968.14219 0.000079321
12033 11559.35461 9966.78138 0.0000831048
11712 11133.41401 9965.41441 0.0000853825
11631 10832.01684 9964.04138 0.0000859771
11056 10622.46557 9962.66238 0.0000904486
11043 10478.39866 9961.27751 0.0000905551
10842 10379.60089 9959.88685 0.0000922339
10795 10311.25288 9958.49049 0.0000926355
10739 10262.9288 9957.08852 0.0000931185
10674 10227.56375 9955.68105 0.0000936856
10639 10200.53031 9954.26814 0.0000939938
10352 10178.8857 9952.8499 0.0000965997
10378 10160.80246 9951.42641 0.0000963577
10491 10145.16337 9949.99776 0.0000953198
10177 10131.28802 9948.56403 0.0000982608
10186 10118.75693 9947.12532 0.000098174
10157 10107.30329 9945.68171 0.0000984543
10247 10096.74867 9944.23328 0.0000975895
10164 10086.96591 9942.78013 0.0000983865
9946 10077.85867 9941.32233 0.0001005429
10166 10069.34999 9939.85997 0.0000983671
10120 10061.37584 9938.39314 0.0000988142
10039 10053.88157 9936.92191 0.0000996115
10025 10046.81981 9935.44638 0.0000997506
9988 10040.14917 9933.96661 0.0001001201
10135 10033.83303 9932.48271 0.000098668
10126 10027.83905 9930.99474 0.0000987557
10099 10022.13844 9929.50279 0.0000990197
9929 10016.70558 9928.00693 0.0001007151
9967 10011.51755 9926.50726 0.0001003311
9967 10006.55384 9925.00384 0.0001003311
10013 10001.796 9923.49676 0.0000998702
10338 9997.22741 9921.98609 0.0000967305
10107 9992.83318 9920.47192 0.0000989413
9987 9988.59972 9918.95431 0.0001001302
10049 9984.51482 9917.43335 0.0000995124
9814 9980.56738 9915.90912 0.0001018953
10118 9976.74727 9914.38168 0.0000988338
9894 9973.04532 9912.85111 0.0001010714
9987 9969.45316 9911.3175 0.0001001302
9946 9965.96315 9909.78091 0.0001005429
9769 9962.56825 9908.24141 0.0001023646
9630 9959.26206 9906.69909 0.0001038422
9935 9956.0387 9905.154 0.0001006543
9827 9952.89274 9903.60624 0.0001017605
9827 9949.81926 9902.05585 0.0001017605
9898 9946.81362 9900.50293 0.0001010305
9935 9943.87162 9898.94753 0.0001006543
9964 9940.98934 9897.38974 0.0001003613
9894 9938.16319 9895.82961 0.0001010714
9771 9935.38983 9894.26721 0.0001023437
9701 9932.66615 9892.70263 0.0001030822
9852 9929.9893 9891.13591 0.0001015022
9900 9927.35661 9889.56714 0.0001010101
9742 9924.76558 9887.99638 0.0001026483
9816 9922.21393 9886.42368 0.0001018745
9683 9919.69952 9884.84913 0.0001032738
9801 9917.22032 9883.27279 0.0001020304
9783 9914.7745 9881.69472 0.0001022181
9782 9912.36031 9880.11498 0.0001022286
9773 9909.97611 9878.53364 0.0001023227
9741 9907.6204 9876.95076 0.0001026589
9839 9905.29174 9875.36641 0.0001016363
9899 9902.98882 9873.78065 0.0001010203
9695 9900.71036 9872.19353 0.000103146
9700 9898.45523 9870.60513 0.0001030928
9761 9896.22229 9869.0155 0.0001024485
9805 9894.01054 9867.4247 0.0001019888
9894 9891.819 9865.83279 0.0001010714
9783 9889.64677 9864.23983 0.0001022181
9671 9887.49298 9862.64588 0.0001034019
9680 9885.35684 9861.051 0.0001033058
9685 9883.23757 9859.45525 0.0001032525
9873 9881.13447 9857.85868 0.0001012863
9738 9879.04688 9856.26134 0.0001026905
9898 9876.97414 9854.66331 0.0001010305
9776 9874.91566 9853.06462 0.0001022913
9764 9872.87088 9851.46534 0.000102417
9656 9870.83927 9849.86552 0.0001035626
9693 9868.82031 9848.26521 0.0001031672
9783 9866.81354 9846.66448 0.0001022181
9733 9864.8185 9845.06337 0.0001027432
9803 9862.83477 9843.46193 0.0001020096
9933 9860.86194 9841.86021 0.0001006745
9680 9858.89964 9840.25828 0.0001033058
9859 9856.9475 9838.65617 0.0001014302
9817 9855.00517 9837.05395 0.0001018641
9706 9853.07235 9835.45165 0.0001030291
9763 9851.14872 9833.84934 0.0001024275
9841 9849.23399 9832.24705 0.0001016157
9815 9847.32788 9830.64484 0.0001018849
9763 9845.43013 9829.04275 0.0001024275
9925 9843.54049 9827.44084 0.0001007557
9816 9841.65874 9825.83915 0.0001018745
9675 9839.78464 9824.23773 0.0001033592
9800 9837.91798 9822.63661 0.0001020408
9784 9836.05856 9821.03586 0.0001022077
9844 9834.2062 9819.43551 0.0001015847
9641 9832.36071 9817.83561 0.0001037237
9824 9830.52191 9816.2362 0.0001017915
9746 9828.68965 9814.63733 0.0001026062
9648 9826.86377 9813.03904 0.0001036484
9847 9825.04411 9811.44137 0.0001015538
9601 9823.23055 9809.84436 0.0001041558
9713 9821.42294 9808.24807 0.0001029548
9648 9819.62116 9806.65251 0.0001036484
9945 9817.82509 9805.05775 0.000100553
9893 9816.03461 9803.46382 0.0001010816
9853 9814.24961 9801.87075 0.0001014919
9755 9812.46999 9800.27859 0.0001025115
9764 9810.69566 9798.68738 0.000102417
9655 9808.92651 9797.09716 0.0001035733
9704 9807.16246 9795.50796 0.0001030503
9698 9805.40342 9793.91982 0.000103114
9594 9803.64931 9792.33278 0.0001042318
9760 9801.90005 9790.74687 0.000102459
9678 9800.15558 9789.16213 0.0001033271
9742 9798.41582 9787.5786 0.0001026483
9703 9796.6807 9785.99631 0.0001030609
9641 9794.95016 9784.4153 0.0001037237
9787 9793.22414 9782.8356 0.0001021764
9796 9791.50259 9781.25724 0.0001020825
9733 9789.78545 9779.68027 0.0001027432
9736 9788.07266 9778.1047 0.0001027116
9727 9786.36418 9776.53057 0.0001028066
9751 9784.65997 9774.95793 0.0001025536
9743 9782.95997 9773.38678 0.0001026378
9774 9781.26414 9771.81718 0.0001023123
9726 9779.57245 9770.24914 0.0001028172
9663 9777.88485 9768.68271 0.0001034875
9727 9776.20131 9767.1179 0.0001028066
9851 9774.52179 9765.55475 0.0001015125
9851 9772.84627 9763.99329 0.0001015125
9734 9771.1747 9762.43355 0.0001027327
9653 9769.50707 9760.87555 0.0001035947
9879 9767.84333 9759.31932 0.0001012248
9963 9766.18346 9757.76489 0.0001003714
9837 9764.52745 9756.21228 0.000101657
9684 9762.87525 9754.66153 0.0001032631
9655 9761.22685 9753.11266 0.0001035733
9891 9759.58223 9751.56569 0.000101102
9777 9757.94137 9750.02064 0.0001022809
9581 9756.30423 9748.47755 0.0001043732
9735 9754.67082 9746.93644 0.0001027221
9616 9753.0411 9745.39733 0.0001039933
9733 9751.41506 9743.86025 0.0001027432
9731 9749.79269 9742.32521 0.0001027644
9727 9748.17396 9740.79225 0.0001028066
9666 9746.55886 9739.26138 0.0001034554
9831 9744.94738 9737.73262 0.0001017191
9691 9743.3395 9736.206 0.0001031885
9611 9741.73522 9734.68153 0.0001040474
9649 9740.13451 9733.15925 0.0001036377
9782 9738.53737 9731.63916 0.0001022286
9623 9736.94378 9730.12129 0.0001039177
9755 9735.35374 9728.60566 0.0001025115
9726 9733.76723 9727.09228 0.0001028172
9517 9732.18424 9725.58118 0.0001050751
9747 9730.60476 9724.07237 0.0001025957
9656 9729.02879 9722.56588 0.0001035626
9766 9727.45632 9721.06171 0.0001023961
9490 9725.88733 9719.55989 0.0001053741
9696 9724.32182 9718.06044 0.0001031353
9771 9722.75978 9716.56336 0.0001023437
9604 9721.2012 9715.06868 0.0001041233
9669 9719.64608 9713.5764 0.0001034233
9572 9718.09441 9712.08656 0.0001044714
9744 9716.54618 9710.59916 0.0001026273
9716 9715.00139 9709.11421 0.000102923
9709 9713.46002 9707.63173 0.0001029972
9685 9711.92208 9706.15174 0.0001032525
9508 9710.38756 9704.67424 0.0001051746
9667 9708.85644 9703.19926 0.0001034447
9729 9707.32873 9701.72679 0.0001027855
9728 9705.80442 9700.25687 0.0001027961
9834 9704.28351 9698.78949 0.000101688
9642 9702.76598 9697.32467 0.0001037129
9589 9701.25183 9695.86242 0.0001042862
9696 9699.74107 9694.40275 0.0001031353
9594 9698.23367 9692.94568 0.0001042318
9811 9696.72965 9691.49121 0.0001019264
9520 9695.22898 9690.03935 0.000105042
9735 9693.73168 9688.59011 0.0001027221
9740 9692.23772 9687.14351 0.0001026694
9574 9690.74712 9685.69955 0.0001044496
9824 9689.25985 9684.25824 0.0001017915
9692 9687.77593 9682.81958 0.0001031779
9732 9686.29533 9681.38359 0.0001027538
9869 9684.81807 9679.95028 0.0001013274
9881 9683.34412 9678.51964 0.0001012043
9825 9681.8735 9677.09169 0.0001017812
9639 9680.40618 9675.66644 0.0001037452
9861 9678.94217 9674.24389 0.0001014096
9767 9677.48147 9672.82405 0.0001023856
9674 9676.02406 9671.40692 0.0001033699
9587 9674.56995 9669.99251 0.0001043079
9661 9673.11912 9668.58083 0.000103509
9710 9671.67157 9667.17187 0.0001029866
9736 9670.2273 9665.76565 0.0001027116
9530 9668.7863 9664.36216 0.0001049318
9666 9667.34856 9662.96142 0.0001034554
9520 9665.91408 9661.56342 0.000105042
9677 9664.48286 9660.16817 0.0001033378
9879 9663.05488 9658.77567 0.0001012248
9559 9661.63014 9657.38593 0.0001046135
9660 9660.20864 9655.99895 0.0001035197
9660 9658.79037 9654.61472 0.0001035197
9619 9657.37533 9653.23326 0.0001039609
9640 9655.9635 9651.85456 0.0001037344
9723 9654.55488 9650.47863 0.0001028489
9581 9653.14947 9649.10546 0.0001043732
9442 9651.74725 9647.73506 0.0001059098
9612 9650.34823 9646.36743 0.0001040366
9570 9648.95239 9645.00256 0.0001044932
9644 9647.55973 9643.64047 0.0001036914
9702 9646.17024 9642.28114 0.0001030715
9651 9644.78391 9640.92458 0.0001036162
9677 9643.40074 9639.57079 0.0001033378
9753 9642.02071 9638.21976 0.0001025326
9715 9640.64383 9636.8715 0.0001029336
9725 9639.27008 9635.526 0.0001028278
9427 9637.89946 9634.18326 0.0001060783
9624 9636.53195 9632.84328 0.0001039069
9687 9635.16756 9631.50606 0.0001032311
9708 9633.80627 9630.17159 0.0001030078
9575 9632.44807 9628.83988 0.0001044386
9784 9631.09296 9627.51092 0.0001022077
9502 9629.74092 9626.1847 0.000105241
9537 9628.39195 9624.86123 0.0001048548
9586 9627.04604 9623.54049 0.0001043188
9678 9625.70318 9622.22249 0.0001033271
9561 9624.36337 9620.90722 0.0001045916
9698 9623.02658 9619.59468 0.000103114
9516 9621.69283 9618.28486 0.0001050862
9493 9620.36208 9616.97776 0.0001053408
9710 9619.03434 9615.67337 0.0001029866
9658 9617.70959 9614.37169 0.0001035411
9704 9616.38783 9613.07271 0.0001030503
9535 9615.06904 9611.77643 0.0001048768
9610 9613.75322 9610.48283 0.0001040583
9744 9612.44035 9609.19192 0.0001026273
9559 9611.13043 9607.90369 0.0001046135
9610 9609.82344 9606.61814 0.0001040583
9701 9608.51937 9605.33524 0.0001030822
9729 9607.21822 9604.05501 0.0001027855
9735 9605.91997 9602.77742 0.0001027221
9591 9604.62461 9601.50248 0.0001042644
9545 9603.33213 9600.23018 0.0001047669
9599 9602.04252 9598.9605 0.0001041775
9593 9600.75577 9597.69345 0.0001042427
9598 9599.47186 9596.42901 0.0001041884
9641 9598.19079 9595.16717 0.0001037237
9676 9596.91254 9593.90793 0.0001033485
9610 9595.6371 9592.65128 0.0001040583
9573 9594.36447 9591.3972 0.0001044605
9445 9593.09461 9590.14569 0.0001058761
9475 9591.82754 9588.89675 0.0001055409
9655 9590.56322 9587.65035 0.0001035733
9648 9589.30166 9586.4065 0.0001036484
9599 9588.04283 9585.16518 0.0001041775
9512 9586.78673 9583.92638 0.0001051304
9525 9585.53334 9582.6901 0.0001049869
9696 9584.28265 9581.45631 0.0001031353
9618 9583.03465 9580.22502 0.0001039717
9450 9581.78932 9578.99621 0.0001058201
9625 9580.54665 9577.76987 0.0001038961
9751 9579.30663 9576.54599 0.0001025536
9498 9578.06924 9575.32456 0.0001052853
9546 9576.83447 9574.10556 0.0001047559
9637 9575.6023 9572.88899 0.0001037667
9591 9574.37273 9571.67484 0.0001042644
9559 9573.14574 9570.46309 0.0001046135
9606 9571.92131 9569.25373 0.0001041016
9689 9570.69943 9568.04675 0.0001032098
9588 9569.48008 9566.84214 0.000104297
9620 9568.26326 9565.63988 0.0001039501
9677 9567.04895 9564.43997 0.0001033378
9505 9565.83713 9563.24239 0.0001052078
9505 9564.62778 9562.04712 0.0001052078
9541 9563.4209 9560.85417 0.0001048108
9492 9562.21647 9559.6635 0.0001053519
9595 9561.01448 9558.47511 0.0001042209
9640 9559.8149 9557.28899 0.0001037344
9605 9558.61772 9556.10513 0.0001041124
9633 9557.42294 9554.9235 0.0001038098
9590 9556.23053 9553.7441 0.0001042753
9514 9555.04047 9552.56692 0.0001051083
9428 9553.85276 9551.39193 0.000106067
9467 9552.66738 9550.21913 0.0001056301
9617 9551.4843 9549.0485 0.0001039825
9668 9550.30352 9547.88002 0.000103434
9414 9549.12503 9546.7137 0.0001062248
9576 9547.94879 9545.5495 0.0001044277
9540 9546.77481 9544.38741 0.0001048218
9485 9545.60305 9543.22743 0.0001054296
9703 9544.43351 9542.06953 0.0001030609
9595 9543.26618 9540.9137 0.0001042209
9701 9542.10102 9539.75993 0.0001030822
9493 9540.93803 9538.60819 0.0001053408
9596 9539.7772 9537.45849 0.0001042101
9587 9538.61849 9536.3108 0.0001043079
9424 9537.46191 9535.1651 0.0001061121
9663 9536.30743 9534.02138 0.0001034875
9530 9535.15503 9532.87963 0.0001049318
9367 9534.0047 9531.73983 0.0001067578
9516 9532.85641 9530.60197 0.0001050862
9575 9531.71017 9529.46602 0.0001044386
9465 9530.56594 9528.33197 0.0001056524
9359 9529.42371 9527.19982 0.000106849
9332 9528.28346 9526.06953 0.0001071582
9558 9527.14518 9524.9411 0.0001046244
9498 9526.00885 9523.81451 0.0001052853
9491 9524.87445 9522.68974 0.000105363
9687 9523.74196 9521.56678 0.0001032311
9638 9522.61137 9520.44561 0.000103756
9637 9521.48266 9519.32622 0.0001037667
9653 9520.35581 9518.20858 0.0001035947
9607 9519.2308 9517.09269 0.0001040908
9634 9518.10763 9515.97852 0.000103799
9519 9516.98626 9514.86606 0.0001050531
9560 9515.86668 9513.75529 0.0001046025
9467 9514.74887 9512.6462 0.0001056301
9649 9513.63283 9511.53877 0.0001036377
9602 9512.51852 9510.43297 0.000104145
9384 9511.40593 9509.3288 0.0001065644
9527 9510.29504 9508.22624 0.0001049648
9636 9509.18584 9507.12528 0.0001037775
9685 9508.0783 9506.02588 0.0001032525
9436 9506.97242 9504.92804 0.0001059771
9394 9505.86816 9503.83174 0.0001064509
9563 9504.76552 9502.73697 0.0001045697
9509 9503.66447 9501.6437 0.0001051635
9507 9502.565 9500.55191 0.0001051857
9552 9501.46708 9499.4616 0.0001046901
9502 9500.37071 9498.37274 0.000105241
9541 9499.27585 9497.28532 0.0001048108
9634 9498.18251 9496.19931 0.000103799
9419 9497.09064 9495.1147 0.0001061684
9689 9496.00025 9494.03148 0.0001032098
9553 9494.9113 9492.94962 0.0001046792
9539 9493.82378 9491.86912 0.0001048328
9444 9492.73768 9490.78994 0.0001058873
9589 9491.65297 9489.71207 0.0001042862
9608 9490.56963 9488.6355 0.0001040799
9627 9489.48765 9487.56021 0.0001038745
9573 9488.40701 9486.48617 0.0001044605
9614 9487.32769 9485.41338 0.000104015
9583 9486.24967 9484.34181 0.0001043515
9629 9485.17294 9483.27145 0.0001038529
9557 9484.09747 9482.20228 0.0001046353
9628 9483.02324 9481.13427 0.0001038637
9611 9481.95025 9480.06742 0.0001040474
9446 9480.87846 9479.0017 0.0001058649
9401 9479.80786 9477.9371 0.0001063717
9439 9478.73844 9476.8736 0.0001059434
9506 9477.67017 9475.81118 0.0001051967
9465 9476.60303 9474.74982 0.0001056524
9389 9475.53701 9473.6895 0.0001065076
9564 9474.47209 9472.63022 0.0001045588
9561 9473.40825 9471.57194 0.0001045916
9514 9472.34547 9470.51465 0.0001051083
9427 9471.28373 9469.45833 0.0001060783
9494 9470.22302 9468.40297 0.0001053297
9580 9469.16331 9467.34854 0.0001043841
9526 9468.10459 9466.29504 0.0001049759
9500 9467.04683 9465.24243 0.0001052632
9431 9465.99003 9464.19071 0.0001060333
9550 9464.93416 9463.13985 0.000104712
9463 9463.8792 9462.08983 0.0001056747
9514 9462.82514 9461.04065 0.0001051083
9448 9461.77195 9459.99227 0.0001058425
9492 9460.71962 9458.94469 0.0001053519
9610 9459.66813 9457.89788 0.0001040583
9575 9458.61746 9456.85182 0.0001044386
9463 9457.56759 9455.80651 0.0001056747
9592 9456.5185 9454.76191 0.0001042535
9595 9455.47018 9453.71802 0.0001042209
9546 9454.42261 9452.67481 0.0001047559
9519 9453.37577 9451.63226 0.0001050531
9352 9452.32964 9450.59037 0.000106929
9671 9451.2842 9449.5491 0.0001034019
9345 9450.23943 9448.50844 0.0001070091
9435 9449.19532 9447.46838 0.0001059883
9521 9448.15185 9446.4289 0.000105031
9620 9447.10899 9445.38997 0.0001039501
9541 9446.06674 9444.35159 0.0001048108
9268 9445.02507 9443.31372 0.0001078981
9420 9443.98396 9442.27637 0.0001061571
9368 9442.94341 9441.23949 0.0001067464
9384 9441.90338 9440.20309 0.0001065644
9369 9440.86386 9439.16714 0.000106735
9324 9439.83912 9438.13162 0.0001072501
9438 9438.80059 9437.09652 0.0001059547
9501 9437.76252 9436.06182 0.0001052521
9422 9436.72489 9435.02749 0.0001061346
9522 9435.68768 9433.99353 0.00010502
9410 9434.65087 9432.95991 0.0001062699
9538 9433.61445 9431.92663 0.0001048438
9474 9432.5784 9430.89365 0.000105552
9591 9431.54269 9429.86096 0.0001042644
9580 9430.50732 9428.82855 0.0001043841
9400 9429.47226 9427.79639 0.000106383
9469 9428.4375 9426.76448 0.0001056078
9383 9427.40302 9425.73279 0.0001065757
9343 9426.3688 9424.7013 0.000107032
9491 9425.33482 9423.67 0.000105363
9360 9424.30107 9422.63888 0.0001068376
9383 9423.26753 9421.6079 0.0001065757
9258 9422.23419 9420.57706 0.0001080147
9353 9421.20101 9419.54634 0.0001069176
9549 9420.168 9418.51573 0.000104723
9365 9419.13512 9417.48519 0.0001067806
9368 9418.10237 9416.45473 0.0001067464
9466 9417.06973 9415.42431 0.0001056412
9354 9416.03717 9414.39393 0.0001069061
9433 9415.0549 9413.36357 0.0001060108
9451 9414.02256 9412.3332 0.0001058089
9594 9412.99026 9411.30282 0.0001042318
9444 9411.95798 9410.27241 0.0001058873
9386 9410.9257 9409.24194 0.0001065417
9499 9409.89341 9408.21141 0.0001052742
9352 9408.86109 9407.18079 0.000106929
9507 9407.82873 9406.15007 0.0001051857
9578 9406.82413 9405.11924 0.0001044059
9432 9405.79167 9404.08827 0.0001060221
9393 9404.75912 9403.05715 0.0001064623
9446 9403.72646 9402.02587 0.0001058649
9456 9402.69367 9400.9944 0.000105753
9214 9401.66074 9399.96274 0.0001085305
9340 9400.62764 9398.93085 0.0001070664
9354 9399.59437 9397.89874 0.0001069061
9313 9398.56091 9396.86638 0.0001073768
9423 9397.52724 9395.83375 0.0001061233
9469 9396.49334 9394.80085 0.0001056078
9376 9395.45921 9393.76765 0.0001066553
9379 9394.42481 9392.73414 0.0001066212
9386 9393.39015 9391.7003 0.0001065417
9423 9392.3552 9390.66611 0.0001061233
9329 9391.31994 9389.63157 0.0001071926
9358 9390.28436 9388.59665 0.0001068604
9324 9389.24845 9387.56135 0.0001072501
9257 9388.21219 9386.52563 0.0001080264
9442 9387.17556 9385.4895 0.0001059098
9541 9386.13856 9384.45292 0.0001048108
9372 9385.10115 9383.4159 0.0001067008
9440 9384.06334 9382.37841 0.0001059322
9262 9383.0251 9381.34043 0.000107968
9349 9381.98641 9380.30196 0.0001069633
9399 9380.94727 9379.26297 0.0001063943
9285 9379.90766 9378.22346 0.0001077006
9366 9378.86756 9377.1834 0.0001067692
9446 9377.82696 9376.14278 0.0001058649
9420 9376.78585 9375.10159 0.0001061571
9321 9375.7442 9374.05981 0.0001072846
9318 9374.70201 9373.01743 0.0001073192
9332 9373.65926 9371.97443 0.0001071582
9260 9372.61593 9370.9308 0.0001079914
9415 9371.57202 9369.88652 0.0001062135
9338 9370.52751 9368.84158 0.0001070893
9253 9369.48237 9367.79597 0.0001080731
9450 9368.43661 9366.74966 0.0001058201
9391 9367.3902 9365.70265 0.0001064849
9381 9366.34313 9364.65492 0.0001065984
9467 9365.29539 9363.60646 0.0001056301
9237 9364.24697 9362.55726 0.0001082603
9441 9363.19784 9361.50729 0.000105921
9398 9362.148 9360.45655 0.0001064056
9346 9361.09743 9359.40502 0.0001069976
9472 9360.04612 9358.35268 0.0001055743
9384 9358.99406 9357.29953 0.0001065644
9405 9357.94123 9356.24555 0.0001063264
9233 9356.88761 9355.19073 0.0001083072
9310 9355.83321 9354.13505 0.0001074114
9370 9354.778 9353.0785 0.0001067236
9331 9353.72196 9352.02107 0.0001071696
9252 9352.6651 9350.96274 0.0001080847
9279 9351.60738 9349.9035 0.0001077702
9329 9350.54881 9348.84333 0.0001071926
9220 9349.48937 9347.78223 0.0001084599
9332 9348.42905 9346.72019 0.0001071582
9391 9347.36783 9345.65717 0.0001064849
9244 9346.3057 9344.59319 0.0001081783
9424 9345.24265 9343.52821 0.0001061121
9298 9344.17866 9342.46224 0.00010755
9148 9343.11373 9341.39525 0.0001093135
9404 9342.04785 9340.32723 0.0001063377
9271 9340.98099 9339.25818 0.0001078632
9305 9339.91315 9338.18808 0.0001074691
9205 9338.84432 9337.11691 0.0001086366
9418 9337.77449 9336.04467 0.0001061797
9362 9336.70364 9334.97134 0.0001068148
9135 9335.63176 9333.89691 0.0001094691
9362 9334.55885 9332.82137 0.0001068148
9448 9333.48488 9331.74471 0.0001058425
9245 9332.40985 9330.66691 0.0001081666
9293 9331.33375 9329.58796 0.0001076079
9459 9330.25657 9328.50786 0.0001057194
9371 9329.17829 9327.42658 0.0001067122
9341 9328.0989 9326.34412 0.0001070549
9304 9327.0184 9325.26047 0.0001074807
9394 9325.93677 9324.17562 0.0001064509
9318 9324.85401 9323.08954 0.0001073192
9264 9323.77009 9322.00224 0.0001079447
9288 9322.68502 9320.91371 0.0001076658
9281 9321.59878 9319.82392 0.000107747
9429 9320.51136 9318.73287 0.0001060558
9369 9319.42275 9317.64055 0.000106735
9348 9318.33294 9316.54695 0.0001069748
9374 9317.24193 9315.45205 0.000106678
9223 9316.14969 9314.35585 0.0001084246
9324 9315.05623 9313.25834 0.0001072501
9334 9313.96153 9312.1595 0.0001071352
9327 9312.86558 9311.05932 0.0001072156
9296 9311.76838 9309.9578 0.0001075731
9317 9310.66991 9308.85492 0.0001073307
9378 9309.57016 9307.75068 0.0001066325
9383 9308.46913 9306.64506 0.0001065757
9275 9307.36681 9305.53805 0.0001078167
9208 9306.26318 9304.42965 0.0001086012
9184 9305.15825 9303.31984 0.000108885
9174 9304.05199 9302.20861 0.0001090037
9055 9302.94441 9301.09596 0.0001104362
9247 9301.83548 9299.98187 0.0001081432
9225 9300.72522 9298.86634 0.0001084011
9301 9299.6136 9297.74935 0.0001075153
9283 9298.50062 9296.63089 0.0001077238
9286 9297.38627 9295.51097 0.000107689
9251 9296.29267 9294.38956 0.0001080964
9181 9295.1756 9293.26666 0.0001089206
9273 9294.05713 9292.14226 0.00010784
9392 9292.93727 9291.01634 0.0001064736
9154 9291.81599 9289.88891 0.0001092419
9265 9290.69935 9288.75995 0.0001079331
9289 9289.57525 9287.62946 0.0001076542
9265 9288.44972 9286.49742 0.0001079331
9399 9287.32275 9285.36382 0.0001063943
9491 9286.19434 9284.22866 0.000105363
9445 9285.06448 9283.09194 0.0001058761
9248 9283.93316 9281.95363 0.0001081315
9226 9282.80038 9280.81373 0.0001083893
9235 9281.66613 9279.67224 0.0001082837
9186 9280.5304 9278.52914 0.0001088613
9231 9279.39319 9277.38443 0.0001083306
9340 9278.25449 9276.23811 0.0001070664
9272 9277.1143 9275.09015 0.0001078516
9364 9275.97261 9273.94056 0.000106792
9147 9274.82941 9272.78932 0.0001093255
9222 9273.6847 9271.63643 0.0001084363
9322 9272.53847 9270.48189 0.0001072731
9294 9271.39072 9269.32567 0.0001075963
9329 9270.24145 9268.16779 0.0001071926
9052 9269.09064 9267.00822 0.0001104728
9160 9267.9383 9265.84696 0.0001091703
9334 9266.78441 9264.68401 0.0001071352
9133 9265.62898 9263.51935 0.000109493
9313 9264.47199 9262.35299 0.0001073768
9308 9263.31345 9261.18491 0.0001074345
9146 9262.15335 9260.0151 0.0001093374
9181 9260.99169 9258.84356 0.0001089206
9082 9259.82846 9257.67029 0.0001101079
9285 9258.66365 9256.49527 0.0001077006
9166 9257.49728 9255.3185 0.0001090988
9217 9256.32932 9254.13998 0.0001084952
9225 9255.15978 9252.95969 0.0001084011
9237 9253.98866 9251.77763 0.0001082603
9323 9252.81595 9250.59379 0.0001072616
9334 9251.64164 9249.40818 0.0001071352
9131 9250.46575 9248.22077 0.000109517
9110 9249.28826 9247.03157 0.0001097695
9258 9248.10916 9245.84057 0.0001080147
9261 9246.92847 9244.64776 0.0001079797
9339 9245.74618 9243.45314 0.0001070778
9355 9244.56228 9242.2567 0.0001068947
9166 9243.37677 9241.05844 0.0001090988
9099 9242.18966 9239.85835 0.0001099022
9195 9241.00093 9238.65642 0.0001087548
9302 9239.8106 9237.45266 0.0001075038
9149 9238.61865 9236.24704 0.0001093016
9161 9237.42509 9235.03958 0.0001091584
9129 9236.22992 9233.83026 0.000109541
9179 9235.03314 9232.61908 0.0001089443
9021 9233.83474 9231.40604 0.0001108525
9043 9232.63473 9230.19112 0.0001105828
9237 9231.43311 9228.97433 0.0001082603
9079 9230.22987 9227.75565 0.0001101443
9235 9229.02502 9226.53509 0.0001082837
9194 9227.81856 9225.31264 0.0001087666
9179 9226.61049 9224.08829 0.0001089443
9186 9225.40081 9222.86204 0.0001088613
9299 9224.18952 9221.63389 0.0001075384
9307 9222.97663 9220.40383 0.000107446
9115 9221.76213 9219.17186 0.0001097093
9349 9220.54604 9217.93797 0.0001069633
9350 9219.32834 9216.70215 0.0001069519
9147 9218.10905 9215.46441 0.0001093255
9226 9216.88817 9214.22475 0.0001083893
9159 9215.6657 9212.98314 0.0001091822
9276 9214.44164 9211.7396 0.0001078051
9139 9213.216 9210.49412 0.0001094212
9147 9211.98878 9209.24669 0.0001093255
9093 9210.75999 9207.99732 0.0001099747
9057 9209.52963 9206.74599 0.0001104118
9090 9208.29771 9205.4927 0.000110011
9142 9207.06423 9204.23746 0.0001093853
9080 9205.82921 9202.98025 0.0001101322
9247 9204.59263 9201.72107 0.0001081432
9159 9203.35452 9200.45993 0.0001091822
9167 9202.11487 9199.19681 0.0001090869
9017 9200.87371 9197.93171 0.0001109016
9136 9199.63102 9196.66463 0.0001094571
9290 9198.38683 9195.39558 0.0001076426
9085 9197.14113 9194.12453 0.0001100715
9126 9195.89395 9192.8515 0.000109577
9149 9194.64529 9191.57648 0.0001093016
9128 9193.39515 9190.29946 0.000109553
9160 9192.14355 9189.02044 0.0001091703
9125 9190.8905 9187.73943 0.000109589
9065 9189.63602 9186.45641 0.0001103144
9153 9188.3801 9185.17139 0.0001092538
9086 9187.12277 9183.88436 0.0001100594
9242 9185.86404 9182.59532 0.0001082017
9143 9184.60393 9181.30427 0.0001093733
9178 9183.34243 9180.01121 0.0001089562
9192 9182.07958 9178.71613 0.0001087903
8958 9180.81539 9177.41903 0.0001116321
9122 9179.54987 9176.11991 0.0001096251
9089 9178.28303 9174.81877 0.0001100231
9325 9177.01491 9173.5156 0.0001072386
9183 9175.74551 9172.21041 0.0001088969
9069 9174.47485 9170.90319 0.0001102657
9233 9173.20296 9169.59394 0.0001083072
9069 9171.92985 9168.28265 0.0001102657
9109 9170.65555 9166.96934 0.0001097815
9247 9169.38008 9165.65399 0.0001081432
9062 9168.10346 9164.3366 0.0001103509
9052 9166.82572 9163.01717 0.0001104728
9161 9165.54687 9161.69571 0.0001091584
9124 9164.26696 9160.3722 0.0001096011
9209 9162.98601 9159.04665 0.0001085894
9130 9161.73047 9157.71906 0.000109529
9131 9160.44756 9156.38943 0.000109517
8901 9159.1637 9155.05775 0.0001123469
8952 9157.87891 9153.72402 0.0001117069
9064 9156.59324 9152.38824 0.0001103266
8944 9155.30672 9151.05042 0.0001118068
8984 9154.01938 9149.71054 0.000111309
9048 9152.73127 9148.36862 0.0001105217
8953 9151.44242 9147.02465 0.0001116944
9095 9150.15287 9145.67862 0.0001099505
9103 9148.86268 9144.33054 0.0001098539
9035 9147.57188 9142.98041 0.0001106807
8899 9146.28053 9141.62822 0.0001123722
9074 9144.98867 9140.27398 0.000110205
9175 9143.69636 9138.91768 0.0001089918
8822 9142.40364 9137.55933 0.000113353
8994 9141.11058 9136.19893 0.0001111852
9098 9139.81724 9134.83647 0.0001099143
9108 9138.52367 9133.47195 0.0001097936
9129 9137.22994 9132.10538 0.000109541
9104 9135.93614 9130.73675 0.0001098418
9078 9134.64231 9129.36606 0.0001101564
8915 9133.34853 9127.99332 0.0001121705
9034 9132.05489 9126.61852 0.0001106929
9137 9130.76147 9125.24166 0.0001094451
9077 9129.46834 9123.86275 0.0001101686
9022 9128.17561 9122.48179 0.0001108402
9027 9126.88336 9121.09876 0.0001107788
9137 9125.5917 9119.71368 0.0001094451
9025 9124.30072 9118.32655 0.0001108033
8976 9123.01054 9116.93736 0.0001114082
9066 9121.72125 9115.54612 0.0001103022
8975 9120.43303 9114.15282 0.0001114206
9070 9119.14594 9112.75747 0.0001102536
9069 9117.86015 9111.36006 0.0001102657
9005 9116.57579 9109.96061 0.0001110494
9067 9115.293 9108.5591 0.0001102901
9193 9114.01194 9107.15554 0.0001087784
9041 9112.73279 9105.74993 0.0001106072
9175 9111.4557 9104.34227 0.0001089918
9049 9110.18086 9102.93256 0.0001105094
9042 9108.90847 9101.52081 0.000110595
9037 9107.63872 9100.107 0.0001106562
8993 9106.37184 9098.69115 0.0001111976
9156 9105.10805 9097.27326 0.000109218
8917 9103.8476 9095.85332 0.0001121453
9010 9102.59073 9094.43134 0.0001109878
8960 9101.33771 9093.00732 0.0001116071
8947 9100.08885 9091.58125 0.0001117693
8991 9098.84444 9090.15315 0.0001112223
9192 9097.6048 9088.72301 0.0001087903
9112 9096.37029 9087.29083 0.0001097454
9028 9095.14126 9085.85662 0.0001107665
9027 9093.91812 9084.42037 0.0001107788
9131 9092.70127 9082.98209 0.000109517
9017 9091.49117 9081.54178 0.0001109016
9172 9090.28828 9080.09944 0.0001090275
9056 9089.09312 9078.65507 0.000110424
8942 9087.90623 9077.20868 0.0001118318
9104 9086.72819 9075.76026 0.0001098418
9013 9085.55962 9074.30981 0.0001109508
9083 9084.4012 9072.85735 0.0001100958
8888 9083.25365 9071.40286 0.0001125113
9000 9082.11774 9069.94636 0.0001111111
9009 9080.9943 9068.48784 0.0001110001
9002 9079.88423 9067.02731 0.0001110864
9039 9078.7885 9065.56476 0.0001106317
8914 9077.70817 9064.1002 0.0001121831
9106 9076.64436 9062.63364 0.0001098177
9012 9075.5983 9061.16507 0.0001109632
9082 9074.57133 9059.69449 0.0001101079
9101 9073.56489 9058.22191 0.000109878
8836 9072.58058 9056.74733 0.0001131734
8973 9071.6201 9055.27075 0.0001114454
8944 9070.68534 9053.79217 0.0001118068
8950 9069.77834 9052.3116 0.0001117318
9228 9068.90138 9050.82904 0.0001083658
9132 9068.05694 9049.34449 0.000109505
8909 9067.24776 9047.85795 0.000112246
8948 9066.4769 9046.36943 0.0001117568
9144 9065.74778 9044.87892 0.0001093613
9083 9065.06428 9043.38644 0.0001100958
9233 9064.43089 9041.89198 0.0001083072
8943 9063.85287 9040.39554 0.0001118193
9046 9063.33666 9038.89712 0.0001105461
9042 9062.89013 9037.39674 0.000110595
9124 9062.52413 9035.89439 0.0001096011
9113 9062.25218 9034.39008 0.0001097333
9124 9062.09352 9032.8838 0.0001096011
8986 9062.0748 9031.37556 0.0001112842
9055 9062.23338 9029.86536 0.0001104362
9056 9062.62175 9028.35321 0.000110424
8932 9063.31301 9026.83911 0.000111957
9084 9064.40775 9025.32306 0.0001100837
9094 9066.04217 9023.80506 0.0001099626
9148 9068.39712 9022.28512 0.0001093135
9214 9071.70786 9020.76323 0.0001085305
9032 9076.27343 9019.23941 0.0001107174
9274 9082.46502 9017.71366 0.0001078283
9087 9090.73227 9016.18597 0.0001100473
9124 9101.60625 9014.65635 0.0001096011
9296 9115.69837 9013.12481 0.0001075731
9034 9133.6945 9011.59134 0.0001106929
9226 9156.3445 9010.05595 0.0001083893
9327 9184.44721 9008.51865 0.0001072156
9506 9218.83202 9006.97943 0.0001051967
9388 9260.34021 9005.43829 0.000106519
9511 9309.80696 9003.89526 0.0001051414
9414 9368.04914 9002.35031 0.0001062248
9505 9435.8646 9000.80346 0.0001052078
9740 9514.04339 8999.25472 0.0001026694
9791 9603.39757 8997.70408 0.0001021346
9917 9704.80581 8996.15154 0.0001008369
9938 9819.27176 8994.59712 0.0001006239
10032 9947.9888 8993.04081 0.000099681
10164 10092.4062 8991.48262 0.0000983865
10378 10254.28489 8989.92255 0.0000963577
10500 10435.72816 8988.36061 0.0000952381
10678 10639.16984 8986.79679 0.0000936505
10746 10867.30293 8985.2311 0.0000930579
11047 11122.91624 8983.66354 0.0000905223
11294 11408.62808 8982.09413 0.0000885426
11439 11726.50363 8980.52285 0.0000874202
11826 12077.55387 8978.94972 0.0000845594
12069 12461.14553 8977.37473 0.0000828569
12463 12874.37087 8975.7979 0.0000802375
13001 13311.45574 8974.21922 0.0000769172
13266 13763.30346 8972.6387 0.0000753807
13601 14217.28806 8971.05634 0.000073524
14287 14657.38219 8969.47215 0.0000699937
14666 15064.71087 8967.88612 0.0000681849
15050 15418.52214 8966.29827 0.0000664452
15205 15697.58457 8964.70859 0.0000657678
15724 15881.89473 8963.11709 0.000063597
15980 15954.65527 8961.52378 0.0000625782
15957 15904.37401 8959.92865 0.0000626684
15998 15726.86101 8958.33171 0.0000625078
15586 15426.67388 8956.73297 0.0000641601
15381 15017.38051 8955.13242 0.0000650153
14711 14520.21626 8953.53007 0.0000679763
14303 13961.38375 8951.92593 0.0000699154
13757 13368.85615 8950.32 0.0000726903
13005 12769.52383 8948.71228 0.0000768935
12478 12187.10433 8947.10278 0.000080141
11920 11640.81739 8945.4915 0.0000838926
11273 11144.71866 8943.87844 0.0000887075
11160 10707.57219 8942.26361 0.0000896057
10767 10333.19501 8940.647 0.0000928764
10277 10021.15584 8939.02864 0.0000973047
10203 9767.71451 8937.40851 0.0000980104
9846 9566.85571 8935.78663 0.0001015641
9621 9411.28874 8934.16299 0.0001039393
9606 9293.31306 8932.5376 0.0001041016
9621 9205.48914 8930.91047 0.0001039393
9386 9141.0924 8929.28159 0.0001065417
9287 9094.36644 8927.65098 0.0001076774
9291 9060.60762 8926.01863 0.000107631
9156 9036.12862 8924.38456 0.000109218
9196 9018.14502 8922.74875 0.0001087429
9265 9004.62511 8921.11123 0.0001079331
9134 8994.13244 8919.47198 0.0001094811
9291 8985.67987 8917.83102 0.000107631
9174 8978.60592 8916.18835 0.0001090037
9226 8972.47648 8914.54397 0.0001083893
9043 8967.01098 8912.89789 0.0001105828
8953 8962.02934 8911.25012 0.0001116944
9175 8957.41566 8909.60064 0.0001089918
8940 8953.09405 8907.94948 0.0001118568
8992 8949.01331 8906.29663 0.00011121
9004 8945.13731 8904.64209 0.0001110618
8824 8941.43928 8902.98588 0.0001133273
8902 8937.89832 8901.32799 0.0001123343
8750 8934.49746 8899.66843 0.0001142857
8803 8931.2224 8898.00721 0.0001135976
8880 8928.06089 8896.34432 0.0001126126
8917 8925.0022 8894.67977 0.0001121453
8975 8922.03691 8893.01357 0.0001114206
8901 8919.15664 8891.34571 0.0001123469
9053 8916.35393 8889.67621 0.0001104606
8885 8913.6221 8888.00507 0.0001125492
8918 8910.95517 8886.33229 0.0001121328
8819 8908.34777 8884.65787 0.0001133915
8799 8905.79504 8882.98183 0.0001136493
8728 8903.29261 8881.30415 0.0001145738
8940 8900.83652 8879.62486 0.0001118568
8936 8898.42318 8877.94394 0.0001119069
8952 8896.04933 8876.26141 0.0001117069
8979 8893.71202 8874.57728 0.000111371
8860 8891.40853 8872.89153 0.0001128668
8885 8889.13641 8871.20418 0.0001125492
8954 8886.89339 8869.51524 0.0001116819
8866 8884.67743 8867.8247 0.0001127904
8805 8882.48661 8866.13257 0.0001135718
8896 8880.31922 8864.43886 0.0001124101
8938 8878.17365 8862.74356 0.0001118819
8748 8876.05039 8861.04669 0.0001143118
8902 8873.94416 8859.34824 0.0001123343
8786 8871.85569 8857.64822 0.0001138174
8893 8869.7838 8855.94664 0.000112448
8975 8867.72744 8854.2435 0.0001114206
8823 8865.6856 8852.5388 0.0001133401
8842 8863.65738 8850.83254 0.0001130966
8904 8861.64191 8849.12474 0.0001123091
8833 8859.6384 8847.41539 0.0001132118
8792 8857.64613 8845.70451 0.0001137398
8749 8855.6644 8843.99208 0.0001142988
8812 8853.69257 8842.27812 0.0001134816
8816 8851.73005 8840.56264 0.0001134301
8907 8849.77627 8838.84563 0.0001122712
8761 8847.83073 8837.12709 0.0001141422
8790 8845.89293 8835.40705 0.0001137656
8836 8843.96242 8833.68549 0.0001131734
8754 8842.03877 8831.96242 0.0001142335
8749 8840.12157 8830.23785 0.0001142988
8766 8838.21047 8828.51178 0.0001140771
8696 8836.3051 8826.78421 0.0001149954
8779 8834.40514 8825.05515 0.0001139082
8730 8832.51026 8823.3246 0.0001145475
8703 8830.62019 8821.59257 0.0001149029
8726 8828.73465 8819.85906 0.0001146
8673 8826.85337 8818.12407 0.0001153004
8683 8824.97611 8816.38761 0.0001151676
8703 8823.10265 8814.64969 0.0001149029
8779 8821.23277 8812.9103 0.0001139082
8741 8819.36625 8811.16945 0.0001144034
8711 8817.50291 8809.42715 0.0001147974
8796 8815.64257 8807.68339 0.000113688
8643 8813.78506 8805.93819 0.0001157006
8699 8811.9302 8804.19154 0.0001149557
8719 8810.07785 8802.44346 0.0001146921
8795 8808.22786 8800.69394 0.000113701
8724 8806.38009 8798.94298 0.0001146263
8765 8804.53441 8797.1906 0.0001140901
8771 8802.6907 8795.4368 0.0001140121
8851 8800.84884 8793.68158 0.0001129816
8695 8799.00872 8791.92494 0.0001150086
8708 8797.17023 8790.1669 0.0001148369
8646 8795.33327 8788.40744 0.0001156604
8724 8793.49776 8786.64658 0.0001146263
8682 8791.66359 8784.88432 0.0001151808
8588 8789.83069 8783.12067 0.0001164415
8705 8787.99897 8781.35563 0.0001148765
8745 8786.16836 8779.58919 0.0001143511
8758 8784.33879 8777.82138 0.0001141813
8777 8782.51018 8776.05218 0.0001139341
8829 8780.68246 8774.28161 0.0001132631
8723 8778.85559 8772.50967 0.0001146395
8839 8777.0295 8770.73636 0.000113135
8763 8775.20413 8768.96169 0.0001141162
8770 8773.37943 8767.18565 0.0001140251
8822 8771.55535 8765.40826 0.000113353
8745 8769.73184 8763.62952 0.0001143511
8756 8767.90886 8761.84943 0.0001142074
8639 8766.08637 8760.06799 0.0001157541
8940 8764.26432 8758.28522 0.0001118568
8892 8762.44268 8756.50111 0.0001124606
8779 8760.62142 8754.71566 0.0001139082
8694 8758.80048 8752.92889 0.0001150219
8868 8756.97986 8751.14079 0.000112765
8974 8755.15951 8749.35137 0.000111433
8992 8753.33941 8747.56063 0.00011121
8919 8751.51952 8745.76858 0.0001121202
8977 8749.69984 8743.97522 0.0001113958
9067 8747.88032 8742.18055 0.0001102901
9194 8746.06096 8740.38458 0.0001087666
9250 8744.24173 8738.58731 0.0001081081
9265 8742.4226 8736.78875 0.0001079331
9399 8740.60357 8734.98889 0.0001063943
9397 8738.78462 8733.18775 0.0001064169
9563 8736.96573 8731.38533 0.0001045697
9423 8735.14697 8729.58162 0.0001061233
9471 8733.32816 8727.77664 0.0001055855
9270 8731.50939 8725.97039 0.0001078749
9417 8729.69062 8724.16287 0.0001061909
9475 8727.87187 8722.35408 0.0001055409
9328 8726.05311 8720.54404 0.0001072041
9353 8724.23434 8718.73273 0.0001069176
8993 8722.41557 8716.92017 0.0001111976
8953 8720.59677 8715.10637 0.0001116944
8848 8718.77795 8713.29131 0.0001130199
9005 8716.95911 8711.47501 0.0001110494
8878 8715.14024 8709.65748 0.000112638
8764 8713.32135 8707.8387 0.0001141031
8725 8711.50243 8706.0187 0.0001146132
8819 8709.68349 8704.19747 0.0001133915
8626 8707.86453 8702.37501 0.0001159286
8692 8706.04555 8700.55133 0.0001150483
8864 8704.22656 8698.72643 0.0001128159
8666 8702.40755 8696.90032 0.0001153935
8684 8700.58855 8695.073 0.0001151543
8786 8698.76956 8693.24447 0.0001138174
8771 8696.95058 8691.41474 0.0001140121
8629 8695.147 8689.58381 0.0001158883
8727 8693.3281 8687.75168 0.0001145869
8743 8691.50926 8685.91836 0.0001143772
8660 8689.69046 8684.08385 0.0001154734
8735 8687.87175 8682.24816 0.000114482
8749 8686.05311 8680.41128 0.0001142988
8579 8684.23459 8678.57322 0.0001165637
8632 8682.41617 8676.73399 0.000115848
8589 8680.5979 8674.89359 0.000116428
8632 8678.77979 8673.05201 0.000115848
8642 8676.96184 8671.20927 0.000115714
8632 8675.1441 8669.36537 0.000115848
8741 8673.32658 8667.52031 0.0001144034
8670 8671.5093 8665.6741 0.0001153403
8684 8669.69229 8663.82674 0.0001151543
8597 8667.87557 8661.97822 0.0001163196
8481 8666.05918 8660.12856 0.0001179106
8586 8664.24314 8658.27776 0.0001164687
8618 8662.42748 8656.42582 0.0001160362
8632 8660.61224 8654.57275 0.000115848
8680 8658.79744 8652.71854 0.0001152074
8743 8656.98313 8650.86321 0.0001143772
8524 8655.16934 8649.00675 0.0001173158
8516 8653.35612 8647.14917 0.000117426
8655 8651.54349 8645.29047 0.0001155402
8669 8649.7315 8643.43066 0.0001153536
8644 8647.92021 8641.56973 0.0001156872
8592 8646.10964 8639.7077 0.0001163873
8579 8644.29986 8637.84455 0.0001165637
8831 8642.49091 8635.98031 0.0001132375
8506 8640.68285 8634.11497 0.0001175641
8518 8638.87573 8632.24853 0.0001173985
8656 8637.06961 8630.381 0.0001155268
8606 8635.26455 8628.51238 0.000116198
8624 8633.46061 8626.64267 0.0001159555
8544 8631.65787 8624.77188 0.0001170412
8509 8629.85638 8622.90001 0.0001175226
8433 8628.05623 8621.02706 0.0001185818
8442 8626.25749 8619.15303 0.0001184553
8616 8624.46024 8617.27794 0.0001160631
8519 8622.66455 8615.40178 0.0001173847
8522 8620.87053 8613.52455 0.0001173433
8539 8619.07826 8611.64626 0.0001171097
8486 8617.28783 8609.76691 0.0001178412
8609 8615.49935 8607.88651 0.0001161575
8650 8613.71292 8606.00506 0.0001156069
8528 8611.92866 8604.12255 0.0001172608
8446 8610.14667 8602.239 0.0001183992
8577 8608.36708 8600.3544 0.0001165909
8649 8606.59002 8598.46876 0.0001156203
8455 8604.81561 8596.58209 0.0001182732
8525 8603.04401 8594.69438 0.0001173021
8555 8601.27536 8592.80564 0.0001168907
8391 8599.50981 8590.91587 0.0001191753
8475 8597.74753 8589.02507 0.0001179941
8493 8595.98868 8587.13325 0.000117744
8647 8594.23346 8585.24041 0.000115647
8593 8592.48205 8583.34656 0.0001163738
8554 8590.73464 8581.45168 0.0001169044
8768 8588.99146 8579.5558 0.0001140511
8541 8587.25273 8577.65891 0.0001170823
8436 8585.51868 8575.76101 0.0001185396
8656 8583.78957 8573.86211 0.0001155268
8449 8582.06565 8571.96221 0.0001183572
8532 8580.3472 8570.06131 0.0001172058
8633 8578.63452 8568.15942 0.0001158346
8484 8576.92793 8566.25653 0.0001178689
8505 8575.22774 8564.35266 0.0001175779
8463 8573.53432 8562.44779 0.0001181614
8607 8571.84804 8560.54195 0.0001161845
8431 8570.16928 8558.63512 0.0001186099
8515 8568.49848 8556.72732 0.0001174398
8549 8566.83607 8554.81854 0.0001169727
8563 8565.18254 8552.90879 0.0001167815
8505 8563.53838 8550.99806 0.0001175779
8447 8561.90414 8549.08637 0.0001183852
8683 8560.28039 8547.17372 0.0001151676
8616 8558.66775 8545.2601 0.0001160631
8584 8557.06688 8543.34553 0.0001164958
8669 8555.47847 8541.42999 0.0001153536
8411 8553.90328 8539.51351 0.0001188919
8431 8552.34211 8537.59607 0.0001186099
8515 8550.79582 8535.67768 0.0001174398
8519 8549.26536 8533.75834 0.0001173847
8578 8547.7517 8531.83807 0.0001165773
8503 8546.25593 8529.91685 0.0001176056
8443 8544.7792 8527.99469 0.0001184413
8496 8543.32277 8526.07159 0.0001177024
8494 8541.88796 8524.14757 0.0001177302
8499 8540.47625 8522.22261 0.0001176609
8621 8539.08921 8520.29672 0.0001159958
8560 8537.72854 8518.3699 0.0001168224
8478 8536.39611 8516.44217 0.0001179523
8504 8535.09392 8514.51351 0.0001175917
8639 8533.82417 8512.58393 0.0001157541
8556 8532.58926 8510.65344 0.000116877
8593 8531.39179 8508.72203 0.0001163738
8548 8530.23462 8506.78971 0.0001169864
8447 8529.1209 8504.85649 0.0001183852
8486 8528.05405 8502.92235 0.0001178412
8427 8527.03791 8500.98731 0.0001186662
8615 8526.07666 8499.05138 0.0001160766
8695 8525.175 8497.11454 0.0001150086
8529 8524.33821 8495.1768 0.000117247
8611 8523.5723 8493.23817 0.0001161305
8570 8522.88421 8491.29865 0.0001166861
8487 8522.28214 8489.35824 0.0001178273
8534 8521.77603 8487.41694 0.0001171783
8579 8521.37832 8485.47475 0.0001165637
8624 8521.105 8483.53169 0.0001159555
8660 8520.97726 8481.58774 0.0001154734
8586 8521.02383 8479.64291 0.0001164687
8612 8521.28426 8477.69721 0.000116117
8596 8521.8134 8475.75064 0.0001163332
8705 8522.68751 8473.80319 0.0001148765
8625 8524.01197 8471.85488 0.000115942
8564 8525.93108 8469.90569 0.0001167679
8648 8528.63982 8467.95565 0.0001156337
8755 8532.39755 8466.00474 0.0001142204
8586 8537.54328 8464.05297 0.0001164687
8756 8544.51174 8462.10034 0.0001142074
8751 8553.84974 8460.14686 0.0001142727
8846 8566.23124 8458.19252 0.0001130454
8572 8582.47049 8456.23733 0.0001166589
8746 8603.53192 8454.2813 0.000114338
8881 8630.53624 8452.32441 0.0001125999
9057 8664.76253 8450.36668 0.0001104118
9052 8707.6465 8448.40811 0.0001104728
9014 8760.77657 8446.4487 0.0001109385
9124 8825.8893 8444.48845 0.0001096011
9243 8904.86523 8442.52736 0.00010819
9196 8999.72998 8440.56544 0.0001087429
9341 9112.65874 8438.60269 0.0001070549
9565 9245.98877 8436.63911 0.0001045478
9731 9402.23392 8434.6747 0.0001027644
9964 9584.09257 8432.70946 0.0001003613
10013 9794.26483 8430.7434 0.0000998702
10359 10036.0846 8428.77652 0.0000965344
10591 10312.36723 8426.80882 0.0000944198
10794 10625.88896 8424.8403 0.0000926441
11139 10978.89834 8422.87097 0.0000897747
11469 11372.69113 8420.90082 0.0000871916
11858 11807.08815 8418.92986 0.0000843313
12266 12279.85038 8416.95809 0.0000815262
12643 12786.09062 8414.98552 0.0000790952
13168 13317.76662 8413.01213 0.0000759417
13667 13863.34129 8411.03795 0.0000731689
13986 14407.71209 8409.06296 0.0000715001
14460 14932.48643 8407.08718 0.0000691563
14749 15416.64382 8405.1106 0.0000678012
15169 15837.59294 8403.13322 0.0000659239
15551 16172.60822 8401.15505 0.0000643045
15884 16400.53145 8399.17608 0.0000629564
15872 16503.73958 8397.19633 0.000063004
15850 16470.21211 8395.21579 0.0000630915
15815 16295.48224 8393.23446 0.0000632311
15593 15984.05974 8391.25235 0.0000641313
15163 15549.68144 8389.26946 0.00006595
14987 15014.048 8387.28579 0.0000667245
14560 14404.22878 8385.30134 0.0000686813
13917 13749.54458 8383.31611 0.0000718546
13237 13078.69803 8381.33011 0.0000755458
12730 12417.61418 8379.34334 0.0000785546
12250 11788.01031 8377.35579 0.0000816327
11692 11206.59152 8375.36748 0.0000855286
11300 10684.77284 8373.3784 0.0000884956
10781 10228.8503 8371.38856 0.0000927558
10227 9840.52982 8369.39795 0.0000977804
9885 9517.72998 8367.40658 0.0001011634
9615 9255.53472 8365.41445 0.0001040042
9489 9047.17439 8363.42157 0.0001053852
9296 8884.9362 8361.42792 0.0001075731
9217 8760.92601 8359.43353 0.0001084952
8984 8667.64381 8357.43838 0.000111309
9082 8598.36423 8355.44248 0.0001101079
8767 8547.33976 8353.44583 0.0001140641
8844 8509.85945 8351.44844 0.000113071
8664 8482.20374 8349.4503 0.0001154201
8763 8461.53404 8347.45142 0.0001141162
8632 8445.75066 8345.45179 0.000115848
8522 8433.34476 8343.45143 0.0001173433
8573 8423.259 8341.45033 0.0001166453
8698 8414.77063 8339.44849 0.000114969
8485 8407.39445 8337.44592 0.000117855
8462 8400.80958 8335.44262 0.0001181754
8521 8394.80554 8333.43858 0.0001173571
8571 8389.24413 8331.43382 0.0001166725
8464 8384.0336 8329.42832 0.0001181474
8337 8379.11151 8327.42211 0.0001199472
8377 8374.43383 8325.41517 0.0001193745
8315 8369.9681 8323.4075 0.0001202646
8465 8365.68928 8321.39912 0.0001181335
8424 8361.57721 8319.39001 0.0001187085
8424 8357.61506 8317.38019 0.0001187085
8470 8353.78848 8315.36966 0.0001180638
8263 8350.08498 8313.35841 0.0001210214
8346 8346.49353 8311.34645 0.0001198179
8318 8343.00438 8309.33378 0.0001202212
8339 8339.6088 8307.3204 0.0001199185
8381 8336.29901 8305.30631 0.0001193175
8411 8333.06798 8303.29152 0.0001188919
8336 8329.90937 8301.27602 0.0001199616
8410 8326.81751 8299.25982 0.0001189061
8307 8323.78721 8297.24292 0.0001203804
8308 8320.8138 8295.22533 0.0001203659
8375 8317.89303 8293.20703 0.000119403
8246 8315.02105 8291.18804 0.0001212709
8145 8312.19431 8289.16836 0.0001227747
8160 8309.40962 8287.14799 0.000122549
8197 8306.66402 8285.12692 0.0001219959
8103 8303.95483 8283.10517 0.0001234111
8313 8301.27957 8281.08273 0.0001202935
8436 8298.63599 8279.0596 0.0001185396
8171 8296.022 8277.0358 0.000122384
8280 8293.43568 8275.0113 0.0001207729
8219 8290.87525 8272.98613 0.0001216693
8145 8288.3391 8270.96028 0.0001227747
8222 8285.8257 8268.93375 0.0001216249
8179 8283.33366 8266.90655 0.0001222643
8131 8280.86169 8264.87867 0.0001229861
8252 8278.40858 8262.85012 0.0001211827
8194 8275.97323 8260.8209 0.0001220405
8300 8273.55459 8258.79101 0.0001204819
8167 8271.1517 8256.76046 0.000122444
8143 8268.76367 8254.72923 0.0001228049
8189 8266.38965 8252.69734 0.000122115
8103 8264.02887 8250.66479 0.0001234111
8211 8261.6806 8248.63158 0.0001217878
8213 8259.34415 8246.59771 0.0001217582
8199 8257.01889 8244.56318 0.0001219661
8172 8254.70422 8242.528 0.0001223691
8229 8252.39958 8240.49216 0.0001215214
8343 8250.10445 8238.45567 0.000119861
8173 8247.81832 8236.41852 0.0001223541
8205 8245.54075 8234.38073 0.0001218769
8204 8243.27129 8232.34229 0.0001218918
8164 8241.00953 8230.3032 0.000122489
8215 8238.75509 8228.26346 0.0001217285
8121 8236.5076 8226.22308 0.0001231375
8376 8234.26673 8224.18206 0.0001193887
8134 8232.03215 8222.1404 0.0001229407
8015 8229.80355 8220.0981 0.0001247661
8166 8227.58064 8218.05517 0.000122459
8106 8225.36316 8216.0116 0.0001233654
8082 8223.15085 8213.96739 0.0001237317
8174 8220.94346 8211.92255 0.0001223391
8121 8218.74076 8209.87708 0.0001231375
8077 8216.54253 8207.83098 0.0001238083
8146 8214.34857 8205.78425 0.0001227596
8121 8212.15868 8203.7369 0.0001231375
7962 8209.97267 8201.68892 0.0001255966
8079 8207.79037 8199.64032 0.0001237777
8178 8205.6116 8197.5911 0.0001222793
8147 8203.43622 8195.54126 0.0001227446
8190 8201.26406 8193.4908 0.0001221001
8095 8199.09498 8191.43972 0.000123533
8176 8196.92885 8189.38802 0.0001223092
8024 8194.76553 8187.33572 0.0001246261
8013 8192.6049 8185.2828 0.0001247972
8054 8190.44684 8183.22927 0.0001241619
8180 8188.29124 8181.17513 0.0001222494
8175 8186.13798 8179.12039 0.0001223242
8170 8183.98698 8177.06504 0.000122399
8161 8181.83812 8175.00908 0.000122534
8127 8179.69132 8172.95252 0.0001230466
8054 8177.54648 8170.89536 0.0001241619
8186 8175.40352 8168.83761 0.0001221598
8262 8173.26235 8166.77925 0.0001210361
8114 8171.12291 8164.7203 0.0001232438
8216 8168.98511 8162.66075 0.0001217137
8001 8166.84889 8160.60061 0.0001249844
8017 8164.71417 8158.53988 0.0001247349
8024 8162.58089 8156.47855 0.0001246261
7975 8160.44898 8154.41664 0.0001253918
8030 8158.31839 8152.35415 0.000124533
7975 8156.18906 8150.29106 0.0001253918
8200 8154.06094 8148.2274 0.0001219512
8119 8151.93396 8146.16315 0.0001231679
8092 8149.80809 8144.09832 0.0001235788
8031 8147.68327 8142.03291 0.0001245175
8131 8145.55945 8139.96693 0.0001229861
7957 8143.43659 8137.90036 0.0001256755
8047 8141.31465 8135.83323 0.0001242699
7986 8139.19359 8133.76552 0.0001252191
8016 8137.07336 8131.69724 0.0001247505
8160 8134.95394 8129.62839 0.000122549
8230 8132.83527 8127.55898 0.0001215067
8064 8130.71733 8125.489 0.0001240079
8060 8128.60009 8123.41845 0.0001240695
8112 8126.48351 8121.34734 0.0001232742
7978 8124.36756 8119.27567 0.0001253447
8212 8122.25221 8117.20344 0.000121773
8205 8120.13743 8115.13065 0.0001218769
7980 8118.02319 8113.0573 0.0001253133
8187 8115.90948 8110.9834 0.0001221449
8083 8113.79625 8108.90895 0.0001237164
8097 8111.68349 8106.83394 0.0001235025
8098 8109.57118 8104.75839 0.0001234873
7986 8107.45929 8102.68229 0.0001252191
8093 8105.3478 8100.60564 0.0001235636
7956 8103.23668 8098.52844 0.0001256913
7995 8101.12593 8096.4507 0.0001250782
7981 8099.01551 8094.37242 0.0001252976
8045 8096.90542 8092.2936 0.0001243008
8167 8094.79562 8090.21424 0.000122444
8024 8092.68611 8088.13434 0.0001246261
8135 8090.57687 8086.05391 0.0001229256
7991 8088.46789 8083.97294 0.0001251408
8000 8086.35913 8081.89144 0.000125
8202 8084.25061 8079.80941 0.0001219215
7910 8082.14228 8077.72686 0.0001264223
8037 8080.03416 8075.64377 0.0001244245
8000 8077.92621 8073.56016 0.000125
7955 8075.81843 8071.47603 0.0001257071
8031 8073.71081 8069.39137 0.0001245175
7938 8071.60333 8067.30619 0.0001259763
8012 8069.49599 8065.2205 0.0001248128
8065 8067.38877 8063.13429 0.0001239926
7991 8065.28166 8061.04756 0.0001251408
8018 8063.17465 8058.96032 0.0001247194
7926 8061.06774 8056.87256 0.000126167
7963 8058.9609 8054.7843 0.0001255808
8006 8056.85415 8052.69553 0.0001249063
7846 8054.74745 8050.60625 0.0001274535
7978 8052.64082 8048.51646 0.0001253447
8040 8050.53424 8046.42617 0.0001243781
8155 8048.42769 8044.33538 0.0001226242
8032 8046.32119 8042.24409 0.000124502
7928 8044.21471 8040.1523 0.0001261352
8158 8042.10826 8038.06002 0.0001225791
7951 8040.00182 8035.96723 0.0001257703
7906 8037.89539 8033.87396 0.0001264862
8020 8035.78897 8031.78019 0.0001246883
7946 8033.68255 8029.68594 0.0001258495
7838 8031.57611 8027.59119 0.0001275836
8050 8029.46967 8025.49596 0.0001242236
7923 8027.36322 8023.40025 0.0001262148
8010 8025.25674 8021.30405 0.0001248439
8011 8023.15024 8019.20737 0.0001248284
8177 8021.04371 8017.11021 0.0001222942
7929 8018.93803 8015.01258 0.0001261193
8060 8016.83144 8012.91446 0.0001240695
8067 8014.72481 8010.81588 0.0001239618
7964 8012.61814 8008.71682 0.000125565
8111 8010.51142 8006.61729 0.0001232894
8062 8008.40466 8004.51729 0.0001240387
7932 8006.29784 8002.41683 0.0001260716
8033 8004.19098 8000.31589 0.0001244865
7954 8002.08406 7998.2145 0.0001257229
8021 7999.97709 7996.11265 0.0001246727
7952 7997.87006 7994.01033 0.0001257545
8039 7995.76297 7991.90756 0.0001243936
8104 7993.65582 7989.80433 0.0001233959
7840 7991.5486 7987.70064 0.000127551
8044 7989.44133 7985.5965 0.0001243163
7926 7987.33399 7983.49192 0.000126167
7924 7985.22659 7981.38688 0.0001261989
7840 7983.11912 7979.2814 0.000127551
8022 7981.01159 7977.17547 0.0001246572
8005 7978.904 7975.06909 0.0001249219
7778 7976.79633 7972.96228 0.0001285678
7944 7974.6886 7970.85502 0.0001258812
8033 7972.58081 7968.74733 0.0001244865
7889 7970.47295 7966.6392 0.0001267588
7875 7968.36503 7964.53064 0.0001269841
7894 7966.25704 7962.42164 0.0001266785
7936 7964.14899 7960.31222 0.0001260081
7824 7962.04088 7958.20236 0.0001278119
7952 7959.93271 7956.09208 0.0001257545
7981 7957.82447 7953.98137 0.0001252976
7885 7955.71618 7951.87025 0.0001268231
7908 7953.60783 7949.75869 0.0001264542
7998 7951.49942 7947.64672 0.0001250313
7737 7949.39096 7945.53434 0.0001292491
8058 7947.28245 7943.42153 0.0001241003
7972 7945.17388 7941.30832 0.000125439
7836 7943.06527 7939.19469 0.0001276161
7817 7940.95661 7937.08065 0.0001279263
7891 7938.84791 7934.96621 0.0001267267
7918 7936.73917 7932.85136 0.0001262945
7795 7934.63038 7930.7361 0.0001282874
7904 7932.52157 7928.62044 0.0001265182
7862 7930.41272 7926.50439 0.0001271941
7863 7928.30383 7924.38793 0.0001271779
7933 7926.19493 7922.27108 0.0001260557
7991 7924.08599 7920.15383 0.0001251408
8035 7921.97704 7918.03619 0.0001244555
7853 7919.86807 7915.91817 0.0001273399
7949 7917.75909 7913.79975 0.000125802
8036 7915.6501 7911.68094 0.00012444
7688 7913.5411 7909.56176 0.0001300728
7853 7911.4321 7907.44219 0.0001273399
7930 7909.32311 7905.32224 0.0001261034
7818 7907.21412 7903.20191 0.00012791
7852 7905.10515 7901.0812 0.0001273561
7988 7902.99619 7898.96012 0.0001251878
7854 7900.88725 7896.83867 0.0001273237
7886 7898.77834 7894.71685 0.000126807
7768 7896.66946 7892.59466 0.0001287333
7869 7894.56061 7890.4721 0.000127081
7802 7892.45181 7888.34918 0.0001281723
7993 7890.34305 7886.22589 0.0001251095
8056 7888.23435 7884.10225 0.0001241311
7812 7886.12571 7881.97825 0.0001280082
7957 7884.01713 7879.85389 0.0001256755
8006 7881.90862 7877.72917 0.0001249063
8020 7879.8002 7875.60411 0.0001246883
7823 7877.69185 7873.47869 0.0001278282
7936 7875.5836 7871.35293 0.0001260081
7989 7873.47544 7869.22682 0.0001251721
7755 7871.36739 7867.10037 0.0001289491
7734 7869.25945 7864.97357 0.0001292992
7817 7867.15163 7862.84644 0.0001279263
7767 7865.04393 7860.71897 0.0001287498
7937 7862.93637 7858.59116 0.0001259922
7887 7860.82895 7856.46302 0.0001267909
7837 7858.72169 7854.33455 0.0001275998
7667 7856.61631 7852.20574 0.0001304291
7777 7854.50938 7850.07662 0.0001285843
7850 7852.40262 7847.94716 0.0001273885
7840 7850.29604 7845.81739 0.000127551
7889 7848.18966 7843.68729 0.0001267588
7765 7846.08349 7841.55687 0.000128783
7627 7843.98223 7839.42614 0.0001311132
7852 7841.8765 7837.29509 0.0001273561
7897 7839.77101 7835.16374 0.0001266304
7795 7837.66576 7833.03207 0.0001282874
7845 7835.56076 7830.90009 0.0001274697
7691 7833.45604 7828.76781 0.0001300221
7723 7831.35159 7826.63522 0.0001294834
7696 7829.24743 7824.50234 0.0001299376
7870 7827.14358 7822.36915 0.0001270648
7950 7825.04004 7820.23566 0.0001257862
7894 7822.93682 7818.10189 0.0001266785
7933 7820.83395 7815.96782 0.0001260557
7801 7818.73142 7813.83345 0.0001281887
7757 7816.62927 7811.6988 0.0001289158
7715 7814.52749 7809.56387 0.0001296176
7807 7812.42611 7807.42865 0.0001280902
7852 7810.32513 7805.29314 0.0001273561
7825 7808.22458 7803.15736 0.0001277955
7867 7806.12447 7801.0213 0.0001271133
7799 7804.02481 7798.88497 0.0001282216
7902 7801.92563 7796.74836 0.0001265502
7882 7799.82693 7794.61149 0.0001268714
7848 7797.72874 7792.47434 0.000127421
7646 7795.63107 7790.33693 0.0001307873
7652 7793.53394 7788.19925 0.0001306848
7798 7791.43737 7786.06132 0.000128238
7835 7789.34137 7783.92312 0.0001276324
7749 7787.24598 7781.78467 0.0001290489
7723 7785.1512 7779.64596 0.0001294834
7836 7783.05706 7777.50699 0.0001276161
7748 7780.96358 7775.36778 0.0001290656
7751 7778.87078 7773.22832 0.0001290156
7757 7776.77868 7771.08862 0.0001289158
7780 7774.68731 7768.94867 0.0001285347
7537 7772.59669 7766.80848 0.0001326788
7679 7770.50685 7764.66805 0.0001302253
7724 7768.4178 7762.52738 0.0001294666
7511 7766.32958 7760.38648 0.0001331381
7624 7764.24222 7758.24534 0.0001311647
7655 7762.15574 7756.10398 0.0001306336
7728 7760.07016 7753.96239 0.0001293996
7695 7757.98552 7751.82057 0.0001299545
7637 7755.90185 7749.67854 0.0001309415
7776 7753.81917 7747.53628 0.0001286008
7721 7751.73753 7745.3938 0.0001295169
7788 7749.65696 7743.2511 0.0001284027
7832 7747.57748 7741.1082 0.0001276813
7699 7745.49913 7738.96508 0.000129887
7835 7743.42195 7736.82175 0.0001276324
7895 7741.34598 7734.67822 0.0001266624
7870 7739.27126 7732.53448 0.0001270648
7787 7737.19782 7730.39054 0.0001284192
7710 7735.12571 7728.2464 0.0001297017
7734 7733.05496 7726.10206 0.0001292992
7584 7730.98563 7723.95753 0.0001318565
7663 7728.91776 7721.8128 0.0001304972
7799 7726.85139 7719.66789 0.0001282216
7507 7724.78658 7717.52278 0.000133209
7616 7722.72338 7715.3775 0.0001313025
7795 7720.66183 7713.23202 0.0001282874
7604 7718.602 7711.08637 0.0001315097
7758 7716.54393 7708.94054 0.0001288992
7719 7714.48769 7706.79453 0.0001295505
7596 7712.43333 7704.64835 0.0001316482
7742 7710.38093 7702.502 0.0001291656
7545 7708.33053 7700.35548 0.0001325381
7612 7706.28222 7698.2088 0.0001313715
7523 7704.23606 7696.06194 0.0001329257
7541 7702.19213 7693.91493 0.0001326084
7689 7700.15049 7691.76776 0.0001300559
7650 7698.11123 7689.62043 0.000130719
7742 7696.07443 7687.47295 0.0001291656
7726 7694.04176 7685.32531 0.0001294331
7768 7692.01014 7683.17753 0.0001287333
7624 7689.98124 7681.0296 0.0001311647
7673 7687.95515 7678.88152 0.0001303271
7713 7685.93198 7676.7333 0.0001296512
7502 7683.91184 7674.58494 0.0001332978
7691 7681.89482 7672.43645 0.0001300221
7717 7679.88104 7670.28782 0.000129584
7674 7677.87062 7668.13905 0.0001303101
7645 7675.86369 7665.99016 0.0001308044
7850 7673.86036 7663.84114 0.0001273885
7719 7671.86077 7661.69199 0.0001295505
7782 7669.86507 7659.54272 0.0001285017
7650 7667.8734 7657.39333 0.000130719
7651 7665.8859 7655.24382 0.0001307019
7500 7663.90275 7653.09419 0.0001333333
7618 7661.9241 7650.94446 0.000131268
7864 7659.95014 7648.79461 0.0001271617
7666 7657.98105 7646.64465 0.0001304461
7672 7656.01702 7644.49459 0.0001303441
7675 7654.05825 7642.34442 0.0001302932
7621 7652.10495 7640.19416 0.0001312164
7561 7650.15735 7638.04379 0.0001322576
7624 7648.21569 7635.89333 0.0001311647
7743 7646.28021 7633.74277 0.0001291489
7699 7644.35117 7631.59213 0.000129887
7673 7642.42884 7629.44139 0.0001303271
7741 7640.51351 7627.29057 0.0001291823
7565 7638.60549 7625.13967 0.0001321877
7652 7636.7051 7622.98868 0.0001306848
7743 7634.81267 7620.83762 0.0001291489
7585 7632.92857 7618.68648 0.0001318392
7634 7631.05317 7616.53526 0.0001309929
7553 7629.18688 7614.38398 0.0001323977
7629 7627.33012 7612.23262 0.0001310788
7534 7625.48333 7610.0812 0.0001327316
7689 7623.64701 7607.92971 0.0001300559
7587 7621.82165 7605.77817 0.0001318044
7532 7620.0078 7603.62656 0.0001327669
7572 7618.20602 7601.4749 0.0001320655
7557 7616.41693 7599.32318 0.0001323276
7663 7614.64119 7597.17142 0.0001304972
7719 7612.87948 7595.0196 0.0001295505
7701 7611.13255 7592.86774 0.0001298533
7632 7609.40119 7590.71583 0.0001310273
7592 7607.68626 7588.56388 0.0001317176
7533 7605.98865 7586.41189 0.0001327492
7533 7604.30936 7584.25987 0.0001327492
7702 7602.64941 7582.10781 0.0001298364
7658 7601.00996 7579.95572 0.0001305824
7699 7599.39221 7577.8036 0.000129887
7639 7597.79747 7575.65145 0.0001309072
7602 7596.22715 7573.49928 0.0001315443
7717 7594.6828 7571.34709 0.000129584
7637 7593.16608 7569.19487 0.0001309415
7501 7591.67879 7567.04264 0.0001333156
7598 7590.2229 7564.8904 0.0001316136
7812 7588.80058 7562.73815 0.0001280082
7688 7587.41422 7560.58588 0.0001300728
7600 7586.06645 7558.43361 0.0001315789
7732 7584.76026 7556.28134 0.0001293326
7630 7583.49902 7554.12906 0.0001310616
7640 7582.28667 7551.97678 0.0001308901
7660 7581.13402 7549.82451 0.0001305483
7717 7580.03447 7547.67224 0.000129584
7668 7579.00125 7545.51998 0.0001304121
7731 7578.04344 7543.36773 0.0001293494
7695 7577.17296 7541.21549 0.0001299545
7702 7576.40567 7539.06327 0.0001298364
7651 7575.7629 7536.91107 0.0001307019
7626 7575.27354 7534.75889 0.0001311303
7651 7574.97663 7532.60673 0.0001307019
7673 7574.92473 7530.45459 0.0001303271
7797 7575.18808 7528.30249 0.0001282545
7755 7575.85955 7526.15041 0.0001289491
7527 7577.0605 7523.99837 0.0001328551
7658 7578.94745 7521.84636 0.0001305824
7758 7581.71947 7519.69439 0.0001288992
7765 7585.62615 7517.54246 0.000128783
7611 7590.97589 7515.39057 0.0001313888
7852 7598.14429 7513.23873 0.0001273561
7784 7607.58199 7511.08694 0.0001284687
7851 7619.82175 7508.93519 0.0001273723
7921 7635.4837 7506.7835 0.0001262467
8021 7655.27802 7504.63186 0.0001246727
7972 7680.00351 7502.48029 0.000125439
7973 7710.54052 7500.32877 0.0001254233
8110 7747.83566 7498.17731 0.0001233046
7996 7792.87659 7496.02592 0.0001250625
8244 7846.65376 7493.87459 0.0001213003
8336 7910.10807 7491.72334 0.0001199616
8209 7984.06225 7489.57216 0.0001218175
8338 8069.13795 7487.42105 0.0001199328
8362 8165.65844 7485.27002 0.0001195886
8553 8273.5434 7483.11907 0.000116918
8399 8392.20222 7480.9682 0.0001190618
8473 8520.4368 7478.81741 0.000118022
8820 8656.36757 7476.66672 0.0001133787
8823 8797.39836 7474.51611 0.0001133401
8970 8940.23305 7472.36559 0.0001114827
8819 9080.95744 7470.21517 0.0001133915
8751 9215.19165 7468.06484 0.0001142727
8888 9338.31476 7465.91462 0.0001125113
8712 9445.75211 7463.76449 0.0001147842
8887 9533.32375 7461.61447 0.0001125239
8840 9597.6373 7459.46455 0.0001131222
8870 9636.51431 7457.31475 0.0001127396
8946 9649.41835 7455.16505 0.0001117818
8611 9637.81835 7453.01547 0.0001161305
8779 9605.39282 7450.86601 0.0001139082
8740 9557.96765 7448.71666 0.0001144165
8686 9503.17815 7446.56743 0.0001151278
8654 9449.9251 7444.41833 0.0001155535
8976 9407.77348 7442.26935 0.0001114082
8884 9386.40618 7440.1205 0.0001125619
8893 9395.16843 7437.97178 0.000112448
8991 9442.69745 7435.82319 0.0001112223
9129 9536.60752 7433.67474 0.000109541
9161 9683.20529 7431.52643 0.0001091584
9468 9887.22562 7429.37825 0.0001056189
9765 10151.58475 7427.23022 0.0001024066
9985 10477.14326 7425.08233 0.0001001502
10397 10862.48791 7422.93459 0.0000961816
10810 11303.74782 7420.787 0.0000925069
11128 11794.45863 7418.63956 0.0000898634
11796 12325.5218 7416.49227 0.0000847745
12331 12885.27299 7414.34514 0.0000810964
13421 13459.7073 7412.19817 0.0000745101
14594 14032.86874 7410.05136 0.0000685213
15863 14587.41282 7407.90471 0.0000630398
16573 15105.33578 7405.75823 0.0000603391
17592 15568.85606 7403.61191 0.000056844
18250 15961.42221 7401.46577 0.0000547945
18535 16268.84084 7399.3198 0.000053952
18606 16480.45529 7397.174 0.0000537461
18369 16590.17023 7395.02839 0.0000544395
17763 16597.06223 7392.88295 0.0000562968
17210 16505.22213 7390.73769 0.0000581058
16354 16322.8009 7388.59262 0.0000611471
15559 16060.48878 7386.44773 0.0000642715
14372 15729.95442 7384.30303 0.0000695797
13807 15342.63462 7382.15852 0.000072427
13102 14909.05616 7380.01421 0.0000763242
12497 14438.66476 7377.87009 0.0000800192
12063 13940.04309 7375.72617 0.0000828981
11813 13421.36653 7373.58245 0.0000846525
11524 12890.86723 7371.43893 0.0000867754
11319 12357.08371 7369.29562 0.000088347
11007 11828.76543 7367.15251 0.0000908513
10697 11314.46458 7365.00961 0.0000934842
10527 10822.02702 7362.86693 0.0000949938
10109 10358.16252 7360.72445 0.0000989218
9632 9928.19317 7358.58219 0.0001038206
9379 9535.94802 7356.44015 0.0001066212
9236 9183.7656 7354.29834 0.000108272
8962 8872.55795 7352.15674 0.0001115822
8732 8601.92557 7350.01536 0.0001145213
8659 8370.31616 7347.87422 0.0001154868
8280 8175.22752 7345.7333 0.0001207729
8332 8013.44201 7343.59262 0.0001200192
8213 7881.27522 7341.45216 0.0001217582
8025 7774.82037 7339.31195 0.0001246106
7880 7690.16842 7337.17197 0.0001269036
7818 7623.58955 7335.03223 0.00012791
7987 7571.66744 7332.89273 0.0001252035
7668 7531.38528 7330.75347 0.0001304121
7628 7500.16579 7328.61447 0.000131096
7693 7475.87374 7326.47571 0.0001299883
7669 7456.78981 7324.3372 0.0001303951
7692 7441.56601 7322.19894 0.0001300052
7639 7429.1716 7320.06094 0.0001309072
7595 7418.83637 7317.92319 0.0001316656
7538 7409.99686 7315.78571 0.0001326612
7549 7402.24847 7313.64848 0.0001324679
7551 7395.30521 7311.51152 0.0001324328
7574 7388.96736 7309.37482 0.0001320306
7420 7383.09631 7307.23839 0.0001347709
7497 7377.59591 7305.10223 0.0001333867
7447 7372.39898 7302.96634 0.0001342823
7502 7367.45774 7300.83073 0.0001332978
7533 7362.73739 7298.69539 0.0001327492
7558 7358.21171 7296.56033 0.0001323101
7506 7353.86026 7294.42554 0.0001332268
7462 7349.66652 7292.29104 0.0001340123
7456 7345.61674 7290.15682 0.0001341202
7302 7341.69918 7288.02289 0.0001369488
7318 7337.90364 7285.88925 0.0001366494
7473 7334.22113 7283.75589 0.0001338151
7376 7330.64368 7281.62283 0.0001355748
7406 7327.16413 7279.49006 0.0001350257
7434 7323.77611 7277.35758 0.0001345171
7607 7320.47387 7275.22541 0.0001314579
7324 7317.25226 7273.09353 0.0001365374
7427 7314.10662 7270.96195 0.0001346439
7452 7311.03279 7268.83068 0.0001341922
7328 7308.02703 7266.69971 0.0001364629
7231 7305.08598 7264.56905 0.0001382935
7383 7302.20664 7262.4387 0.0001354463
7408 7299.38636 7260.30866 0.0001349892
7412 7296.62278 7258.17894 0.0001349164
7413 7293.91383 7256.04953 0.0001348982
7402 7291.25772 7253.92043 0.0001350986
7379 7288.65289 7251.79165 0.0001355197
7267 7286.09806 7249.6632 0.0001376084
7418 7283.59217 7247.53507 0.0001348072
7307 7281.13437 7245.40726 0.0001368551
7327 7278.72407 7243.27977 0.0001364815
7463 7276.36087 7241.15262 0.0001339944
7462 7274.04461 7239.02579 0.0001340123
7498 7271.77536 7236.8993 0.0001333689
7415 7269.55341 7234.77314 0.0001348618
7379 7267.37928 7232.64732 0.0001355197
7268 7265.25377 7230.52183 0.0001375894
7288 7263.17791 7228.39668 0.0001372119
7385 7261.15305 7226.27187 0.0001354096
7283 7259.18084 7224.14741 0.0001373061
7352 7257.2633 7222.02329 0.0001360174
7425 7255.40286 7219.89951 0.0001346801
7284 7253.60247 7217.77608 0.0001372872
7378 7251.86572 7215.65301 0.0001355381
7263 7250.197 7213.53028 0.0001376842
7361 7248.60183 7211.4079 0.0001358511
7354 7247.08961 7209.28588 0.0001359804
7381 7245.6647 7207.16422 0.000135483
7430 7244.3416 7205.04292 0.0001345895
7299 7243.13662 7202.92197 0.0001370051
7334 7242.07199 7200.80139 0.0001363512
7287 7241.17824 7198.68117 0.0001372307
7346 7240.49733 7196.56131 0.0001361285
7292 7240.08684 7194.44182 0.0001371366
7330 7240.0254 7192.3227 0.0001364256
7432 7240.41949 7190.20395 0.0001345533
7356 7241.4119 7188.08556 0.0001359434
7240 7243.19191 7185.96756 0.0001381215
7272 7246.00734 7183.84992 0.0001375138
7199 7250.17835 7181.73267 0.0001389082
7325 7256.11297 7179.61579 0.0001365188
7418 7264.32382 7177.49928 0.0001348072
7446 7275.44558 7175.38317 0.0001343003
7415 7290.25233 7173.26743 0.0001348618
7385 7309.67342 7171.15207 0.0001354096
7557 7334.80626 7169.03711 0.0001323276
7423 7366.92359 7166.92253 0.0001347164
7540 7407.47296 7164.80833 0.000132626
7616 7458.06363 7162.69453 0.0001313025
7536 7520.4386 7160.58112 0.0001326964
7666 7596.42615 7158.4681 0.0001304461
7954 7687.86749 7156.35548 0.0001257229
7776 7796.51876 7154.24325 0.0001286008
7974 7923.92484 7152.13142 0.0001254076
7992 8071.2693 7150.01999 0.0001251251
8189 8239.20415 7147.90896 0.000122115
8374 8427.66985 7145.79833 0.0001194172
8550 8635.71627 7143.68811 0.0001169591
8665 8861.3447 7141.57829 0.0001154068
8624 9101.38592 7139.46887 0.0001159555
8837 9351.43413 7137.35987 0.0001131606
9063 9605.86082 7135.25127 0.0001103387
9274 9857.91618 7133.14308 0.0001078283
9324 10099.92277 7131.03531 0.0001072501
9664 10323.57805 7128.92794 0.0001034768
9845 10520.34176 7126.82099 0.0001015744
9960 10681.91235 7124.71446 0.0001004016
10184 10800.78381 7122.60834 0.0000981932
10357 10870.85171 7120.50264 0.0000965531
10442 10888.02951 7118.39737 0.0000957671
10749 10850.74959 7116.29251 0.0000930319
10980 10760.22706 7114.18807 0.0000910747
10781 10620.36642 7112.08406 0.0000927558
10847 10437.32405 7109.98047 0.0000921914
10809 10218.87115 7107.87731 0.0000925155
10702 9973.71946 7105.77457 0.0000934405
10434 9710.94009 7103.67227 0.0000958405
10072 9439.46113 7101.57039 0.0000992851
9868 9167.63429 7099.46895 0.0001013377
9420 8902.85836 7097.36793 0.0001061571
9244 8651.28335 7095.26735 0.0001081783
8990 8417.63527 7093.1672 0.0001112347
8550 8205.1711 7091.06749 0.0001169591
8325 8015.74654 7088.96822 0.0001201201
8089 7849.971 7086.86938 0.0001236247
7909 7707.41388 7084.77099 0.0001264382
7692 7586.83721 7082.67303 0.0001300052
7771 7486.4287 7080.57551 0.0001286836
7704 7404.01987 7078.47844 0.0001298027
7572 7337.2769 7076.38181 0.0001320655
7449 7283.85586 7074.28563 0.0001342462
7332 7241.5211 7072.18989 0.0001363884
7268 7208.22637 7070.09459 0.0001375894
7332 7182.16325 7067.99975 0.0001363884
7347 7161.78187 7065.90535 0.00013611
7298 7145.79009 7063.81141 0.0001370238
7292 7133.13772 7061.71791 0.0001371366
7300 7122.99103 7059.62487 0.0001369863
7339 7114.70248 7057.53228 0.0001362583
7227 7107.77945 7055.44014 0.00013837
7150 7101.85417 7053.34846 0.0001398601
7197 7096.65693 7051.25723 0.0001389468
7164 7091.99292 7049.16646 0.0001395868
7150 7087.72332 7047.07615 0.0001398601
7252 7083.75026 7044.98629 0.000137893
7166 7080.00509 7042.8969 0.0001395479
7234 7076.43978 7040.80797 0.0001382361
7147 7073.02051 7038.71949 0.0001399188
7120 7069.72323 7036.63148 0.0001404494
7102 7066.53043 7034.54394 0.0001408054
7094 7063.42909 7032.45685 0.0001409642
7161 7060.40917 7030.37024 0.0001396453
7203 7057.46271 7028.28408 0.000138831
7201 7054.58319 7026.1984 0.0001388696
7182 7051.76515 7024.11318 0.000139237
7071 7049.00389 7022.02843 0.0001414227
7249 7046.29536 7019.94415 0.0001379501
6973 7043.63598 7017.86034 0.0001434103
6939 7041.02259 7015.777 0.000144113
7020 7038.45238 7013.69413 0.0001424501
7014 7035.92286 7011.61173 0.000142572
7103 7033.43182 7009.5298 0.0001407856
7040 7030.97729 7007.44835 0.0001420455
7117 7028.55753 7005.36738 0.0001405086
7173 7026.17098 7003.28687 0.0001394117
7040 7023.81631 7001.20685 0.0001420455
7008 7021.49233 6999.1273 0.0001426941
7002 7019.19803 6997.04823 0.0001428163
7042 7016.93252 6994.96963 0.0001420051
6934 7014.6951 6992.89152 0.0001442169
7026 7012.48517 6990.81388 0.0001423285
6987 7010.30225 6988.73672 0.0001431229
7014 7008.14603 6986.66004 0.000142572
6952 7006.01627 6984.58385 0.0001438435
6971 7003.91289 6982.50813 0.0001434514
6843 7001.8359 6980.4329 0.0001461347
6937 6999.78545 6978.35815 0.0001441545
6936 6997.76179 6976.28389 0.0001441753
6985 6995.76532 6974.2101 0.0001431639
7074 6993.79655 6972.13681 0.0001413627
7082 6991.85611 6970.06399 0.000141203
7180 6989.9448 6967.99167 0.0001392758
7008 6988.06355 6965.91983 0.0001426941
7020 6986.21344 6963.84847 0.0001424501
7039 6984.39574 6961.7776 0.0001420656
7100 6982.61189 6959.70722 0.0001408451
7047 6980.86353 6957.63733 0.0001419044
7051 6979.15253 6955.56793 0.0001418239
7050 6977.48102 6953.49901 0.000141844
7041 6975.85141 6951.43059 0.0001420253
7083 6974.26646 6949.36265 0.0001411831
7068 6972.72934 6947.29521 0.0001414827
7066 6971.24373 6945.22825 0.0001415228
7050 6969.81398 6943.16179 0.000141844
7106 6968.44531 6941.09582 0.0001407261
7009 6967.14416 6939.03034 0.0001426737
6948 6965.91862 6936.96535 0.0001439263
7079 6964.77915 6934.90085 0.0001412629
7061 6963.73954 6932.83685 0.000141623
7058 6962.81834 6930.77334 0.0001416832
7096 6962.04075 6928.71032 0.0001409245
7008 6961.44136 6926.6478 0.0001426941
6972 6961.06776 6924.58577 0.0001434309
7005 6960.98523 6922.52424 0.0001427552
7063 6961.283 6920.4632 0.0001415829
6989 6962.08202 6918.40266 0.000143082
7066 6963.54463 6916.34261 0.0001415228
7097 6965.88633 6914.28306 0.0001409046
7044 6969.38989 6912.224 0.0001419648
6842 6974.42 6910.16544 0.0001461561
7002 6981.44282 6908.10737 0.0001428163
7145 6991.0437 6906.0498 0.000139958
7115 7003.94675 6903.99273 0.0001405481
7081 7021.04493 6901.93616 0.000141223
7175 7043.36922 6899.88008 0.0001393728
7141 7072.1689 6897.8245 0.0001400364
7257 7108.86758 6895.76941 0.000137798
7073 7155.06544 6893.71482 0.0001413827
7197 7212.51386 6891.66073 0.0001389468
7251 7283.06987 6889.60714 0.000137912
7397 7368.62566 6887.55405 0.0001351899
7478 7471.01064 6885.50145 0.0001337256
7476 7591.86399 6883.44935 0.0001337614
7665 7732.48023 6881.39775 0.0001304631
7731 7893.63232 6879.34665 0.0001293494
7861 8075.38355 6877.29605 0.0001272103
8064 8276.90046 6875.24594 0.0001240079
8369 8496.28718 6873.19633 0.0001194886
8581 8730.45492 6871.14722 0.0001165365
8864 8975.05587 6869.09861 0.0001128159
9322 9224.48733 6867.0505 0.0001072731
9455 9471.99425 6865.00289 0.0001057641
9911 9709.8642 6862.95577 0.000100898
10551 9929.72482 6860.90915 0.0000947777
10679 10122.93327 6858.86303 0.0000936417
11125 10281.04638 6856.81741 0.0000898876
11497 10396.3598 6854.77229 0.0000869792
11673 10462.50019 6852.72766 0.0000856678
11711 10475.04272 6850.68353 0.0000853898
11544 10432.07989 6848.6399 0.0000866251
11181 10334.61852 6846.59677 0.0000894374
10596 10186.66859 6844.55414 0.0000943752
10149 9994.92098 6842.512 0.0000985319
9957 9768.06319 6840.47036 0.0001004319
9291 9515.90523 6838.42922 0.000107631
8756 9248.52083 6836.38857 0.0001142074
8515 8975.53763 6834.34843 0.0001174398
8036 8705.61653 6832.30878 0.00012444
7796 8446.10806 6830.26962 0.0001282709
7529 8202.85317 6828.23096 0.0001328198
7463 7980.10342 6826.1928 0.0001339944
7474 7780.55087 6824.15514 0.0001337972
7195 7605.44654 6822.11797 0.0001389854
7258 7454.79163 6820.08129 0.000137779
7152 7327.5748 6818.04512 0.000139821
7004 7222.03356 6816.00943 0.0001427756
7063 7135.91224 6813.97424 0.0001415829
7186 7066.699 6811.93955 0.0001391595
7062 7011.81831 6809.90535 0.0001416029
6914 6968.79533 6807.87165 0.0001446341
6874 6935.35779 6805.83843 0.0001454757
6939 6909.50285 6803.80572 0.000144113
6798 6889.52589 6801.77349 0.0001471021
7005 6874.02088 6799.74176 0.0001427552
6891 6861.86059 6797.71052 0.0001451168
6895 6852.16482 6795.67978 0.0001450326
6843 6844.26272 6793.64952 0.0001461347
6745 6837.65442 6791.61976 0.000148258
6899 6831.97498 6789.59049 0.0001449485
6911 6826.96291 6787.5617 0.0001446969
7007 6822.43374 6785.53341 0.0001427144
6973 6818.25904 6783.50561 0.0001434103
6895 6814.35013 6781.4783 0.0001450326
6724 6810.64597 6779.45148 0.000148721
6840 6807.10441 6777.42515 0.0001461988
6998 6803.69596 6775.3993 0.000142898
6973 6800.3996 6773.37395 0.0001434103
6830 6797.19991 6771.34908 0.0001464129
6924 6794.09236 6769.3247 0.0001444252
6815 6791.05333 6767.3008 0.0001467351
6817 6788.08248 6765.27739 0.0001466921
6912 6785.17351 6763.25447 0.0001446759
6893 6782.32097 6761.23203 0.0001450747
6869 6779.52013 6759.21008 0.0001455816
6912 6776.76678 6757.18861 0.0001446759
6945 6774.05717 6755.16762 0.0001439885
6904 6771.38794 6753.14712 0.0001448436
6790 6768.75603 6751.1271 0.0001472754
6903 6766.1587 6749.10757 0.0001448646
6791 6763.59344 6747.08851 0.0001472537
6818 6761.05798 6745.06994 0.0001466706
6718 6758.55024 6743.05184 0.0001488538
6785 6756.06833 6741.03423 0.0001473839
6743 6753.61052 6739.01709 0.0001483019
6763 6751.17521 6737.00044 0.0001478634
6743 6748.76097 6734.98426 0.0001483019
6889 6746.36643 6732.96856 0.0001451589
6787 6743.99039 6730.95334 0.0001473405
6860 6741.6317 6728.93859 0.0001457726
6795 6739.28933 6726.92432 0.000147167
6769 6736.96229 6724.91052 0.0001477323
6800 6734.64971 6722.8972 0.0001470588
6693 6732.35076 6720.88435 0.0001494098
6923 6730.06467 6718.87198 0.000144446
6792 6727.79073 6716.86008 0.000147232
6753 6725.52828 6714.84865 0.0001480823
6734 6723.27671 6712.83769 0.0001485001
6685 6721.03545 6710.8272 0.0001495886
6627 6718.80397 6708.81718 0.0001508978
6595 6716.58177 6706.80763 0.00015163
6578 6714.36839 6704.79855 0.0001520219
6558 6712.16339 6702.78994 0.0001524855
6673 6709.96638 6700.78179 0.0001498576
6706 6707.77697 6698.77411 0.0001491202
6815 6705.59481 6696.7669 0.0001467351
6630 6703.41957 6694.76015 0.0001508296
6563 6701.25094 6692.75386 0.0001523693
6656 6699.08861 6690.74804 0.0001502404
6815 6696.93253 6688.74268 0.0001467351
6677 6694.78203 6686.73778 0.0001497679
6641 6692.63706 6684.73335 0.0001505797
6733 6690.49741 6682.72937 0.0001485222
6685 6688.36284 6680.72585 0.0001495886
6761 6686.23316 6678.72279 0.0001479071
6768 6684.10818 6676.72019 0.0001477541
6715 6681.98772 6674.71805 0.0001489203
6790 6679.8716 6672.71636 0.0001472754
6691 6677.75966 6670.71513 0.0001494545
6743 6675.65174 6668.71435 0.0001483019
6614 6673.54772 6666.71403 0.0001511944
6514 6671.44743 6664.71416 0.0001535155
6632 6669.35077 6662.71474 0.0001507841
6597 6667.2576 6660.71578 0.0001515841
6595 6665.1678 6658.71726 0.00015163
6638 6663.08127 6656.71919 0.0001506478
6614 6660.9979 6654.72158 0.0001511944
6748 6658.91759 6652.72441 0.0001481921
6652 6656.84024 6650.72768 0.0001503307
6707 6654.76577 6648.73141 0.000149098
6527 6652.6941 6646.73557 0.0001532097
6523 6650.62513 6644.74019 0.0001533037
6595 6648.55879 6642.74524 0.00015163
6582 6646.495 6640.75074 0.0001519295
6675 6644.43371 6638.75668 0.0001498127
6591 6642.37484 6636.76306 0.000151722
6598 6640.31832 6634.76988 0.0001515611
6708 6638.2641 6632.77714 0.0001490757
6447 6636.21212 6630.78484 0.0001551109
6665 6634.16232 6628.79298 0.0001500375
6531 6632.11466 6626.80155 0.0001531159
6674 6630.06908 6624.81055 0.0001498352
6799 6628.02553 6622.82 0.0001470805
6590 6625.98398 6620.82987 0.0001517451
6711 6623.94437 6618.84018 0.0001490091
6767 6621.90667 6616.85091 0.000147776
6581 6619.87084 6614.86208 0.0001519526
6522 6617.83684 6612.87368 0.0001533272
6479 6615.80463 6610.8857 0.0001543448
6561 6613.77419 6608.89816 0.0001524158
6539 6611.74548 6606.91104 0.0001529286
6544 6609.71847 6604.92434 0.0001528117
6590 6607.69314 6602.93807 0.0001517451
6694 6605.66945 6600.95222 0.0001493875
6628 6603.64739 6598.9668 0.0001508751
6496 6601.62692 6596.9818 0.0001539409
6545 6599.60803 6594.99722 0.0001527884
6670 6597.59069 6593.01305 0.000149925
6599 6595.57489 6591.02931 0.0001515381
6592 6593.56061 6589.04598 0.000151699
6442 6591.54782 6587.06307 0.0001552313
6637 6589.53652 6585.08058 0.0001506705
6582 6587.5267 6583.0985 0.0001519295
6578 6585.51832 6581.11683 0.0001520219
6469 6583.51139 6579.13558 0.0001545834
6533 6581.5059 6577.15474 0.000153069
6491 6579.50183 6575.1743 0.0001540595
6601 6577.49918 6573.19428 0.0001514922
6581 6575.49794 6571.21467 0.0001519526
6649 6573.4981 6569.23546 0.0001503986
6483 6571.49966 6567.25666 0.0001542496
6563 6569.50262 6565.27826 0.0001523693
6656 6567.50698 6563.30027 0.0001502404
6513 6565.51273 6561.32268 0.0001535391
6490 6563.51987 6559.34549 0.0001540832
6465 6561.52842 6557.3687 0.000154679
6491 6559.53837 6555.39232 0.0001540595
6614 6557.54973 6553.41633 0.0001511944
6559 6555.5625 6551.44074 0.0001524623
6550 6553.54025 6549.46554 0.0001526718
6536 6551.55594 6547.49075 0.0001529988
6539 6549.57308 6545.51634 0.0001529286
6489 6547.59169 6543.54233 0.000154107
6467 6545.61177 6541.56871 0.0001546312
6527 6543.63336 6539.59548 0.0001532097
6693 6541.65646 6537.62265 0.0001494098
6700 6539.6811 6535.6502 0.0001492537
6578 6537.70732 6533.67814 0.0001520219
6460 6535.73513 6531.70646 0.0001547988
6402 6533.76458 6529.73518 0.0001562012
6509 6531.79569 6527.76427 0.0001536334
6405 6529.8285 6525.79375 0.000156128
6398 6527.86306 6523.82362 0.0001562988
6414 6525.89942 6521.85386 0.0001559089
6446 6523.93763 6519.88449 0.000155135
6547 6521.97773 6517.91549 0.0001527417
6403 6520.02075 6515.94687 0.0001561768
6444 6518.06485 6513.97863 0.0001551831
6485 6516.11106 6512.01076 0.000154202
6412 6514.15945 6510.04327 0.0001559576
6456 6512.21012 6508.07616 0.0001548947
6497 6510.26315 6506.10941 0.0001539172
6585 6508.31866 6504.14304 0.0001518603
6400 6506.37675 6502.17703 0.00015625
6638 6504.43757 6500.2114 0.0001506478
6394 6502.50124 6498.24614 0.0001563966
6421 6500.56792 6496.28124 0.000155739
6469 6498.63777 6494.3167 0.0001545834
6430 6496.711 6492.35254 0.000155521
6391 6494.7878 6490.38873 0.00015647
6425 6492.86841 6488.42529 0.000155642
6572 6490.95311 6486.46221 0.0001521607
6510 6489.04221 6484.49949 0.0001536098
6440 6487.13606 6482.53713 0.0001552795
6496 6485.2351 6480.57513 0.0001539409
6455 6483.33988 6478.61348 0.0001549187
6442 6481.45107 6476.65219 0.0001552313
6426 6479.56953 6474.69126 0.0001556178
6343 6477.69643 6472.73068 0.0001576541
6485 6475.8333 6470.77045 0.000154202
6480 6473.98225 6468.81057 0.000154321
6497 6472.14613 6466.85105 0.0001539172
6528 6470.32889 6464.89187 0.0001531863
6462 6468.53591 6462.93304 0.0001547509
6572 6466.77452 6460.97456 0.0001521607
6494 6465.05465 6459.01642 0.0001539883
6610 6463.38959 6457.05863 0.0001512859
6584 6461.79694 6455.10119 0.0001518834
6566 6460.29974 6453.14408 0.0001522997
6603 6458.92774 6451.18732 0.0001514463
6487 6457.71877 6449.2309 0.0001541545
6518 6456.72023 6447.27481 0.0001534213
6557 6455.99052 6445.31907 0.0001525088
6521 6455.60033 6443.36366 0.0001533507
6627 6455.63363 6441.40859 0.0001508978
6714 6456.18803 6439.45386 0.0001489425
6616 6457.37446 6437.49945 0.0001511487
6681 6459.31565 6435.54539 0.0001496782
6687 6462.14331 6433.59165 0.0001495439
6743 6465.99353 6431.63824 0.0001483019
6529 6471.00042 6429.68517 0.0001531628
6698 6477.28771 6427.73242 0.0001492983
6828 6484.9585 6425.78 0.0001464558
6777 6494.08331 6423.8279 0.0001475579
6819 6504.68742 6421.87614 0.0001466491
6751 6516.73885 6419.92469 0.0001481262
6779 6530.1327 6417.97357 0.0001475144
6824 6544.68765 6416.02277 0.0001465416
6753 6560.13636 6414.0723 0.0001480823
6920 6576.12563 6412.12214 0.0001445087
6943 6592.22118 6410.1723 0.00014403
6810 6607.91888 6408.22278 0.0001468429
6895 6622.66195 6406.27358 0.0001450326
6647 6635.8641 6404.32469 0.0001504438
6809 6646.93806 6402.37612 0.0001468644
6797 6655.32854 6400.42786 0.0001471237
6602 6660.54909 6398.47991 0.0001514693
6698 6662.22127 6396.53228 0.0001492983
6721 6660.11355 6394.58496 0.0001487874
6748 6654.17333 6392.63794 0.0001481921
6533 6644.54419 6390.69124 0.000153069
6564 6631.56013 6388.74484 0.0001523461
6484 6615.71492 6386.79875 0.0001542258
6335 6597.61317 6384.85297 0.0001578532
6459 6577.91486 6382.90749 0.0001548227
6375 6557.28411 6380.96231 0.0001568627
6445 6536.34845 6379.01744 0.000155159
6498 6515.66942 6377.07287 0.0001538935
6388 6495.72281 6375.1286 0.0001565435
6526 6476.88769 6373.18463 0.0001532332
6493 6459.44196 6371.24095 0.000154012
6570 6443.56451 6369.29758 0.000152207
6543 6429.3424 6367.3545 0.0001528351
6443 6416.78261 6365.41172 0.0001552072
6408 6405.82636 6363.46923 0.0001560549
6294 6396.36506 6361.52704 0.0001588815
6370 6388.25622 6359.58514 0.0001569859
6331 6381.33811 6357.64353 0.0001579529
6404 6375.44254 6355.70222 0.0001561524
6338 6370.40498 6353.76119 0.0001577785
6343 6366.07191 6351.82046 0.0001576541
6382 6362.30564 6349.88001 0.0001566907
6389 6358.98687 6347.93985 0.000156519
6181 6356.0153 6345.99997 0.0001617861
6394 6353.30888 6344.06038 0.0001563966
6396 6350.80216 6342.12108 0.0001563477
6341 6348.44425 6340.18206 0.0001577038
6377 6346.19629 6338.24332 0.0001568135
6371 6344.02931 6336.30486 0.0001569612
6330 6341.92212 6334.36669 0.0001579779
6226 6339.85943 6332.42879 0.0001606168
6269 6337.8304 6330.49118 0.0001595151
6306 6335.82752 6328.55384 0.0001585791
6245 6333.84548 6326.61678 0.0001601281
6278 6331.8807 6324.68 0.0001592864
6283 6329.93071 6322.7435 0.0001591596
6364 6327.99383 6320.80727 0.0001571339
6259 6326.06886 6318.87131 0.0001597699
6185 6324.1551 6316.93563 0.0001616815
6256 6322.25192 6315.00022 0.0001598465
6190 6320.35899 6313.06508 0.0001615509
6204 6318.47605 6311.13021 0.0001611863
6178 6316.60297 6309.19561 0.0001618647
6277 6314.73966 6307.26128 0.0001593118
6462 6312.8862 6305.32722 0.0001547509
6310 6311.04267 6303.39343 0.0001584786
6176 6309.20914 6301.45991 0.0001619171
6342 6307.38584 6299.52665 0.000157679
6277 6305.57305 6297.59366 0.0001593118
6406 6303.77112 6295.66093 0.0001561037
6216 6301.98044 6293.72846 0.0001608752
6275 6300.20166 6291.79626 0.0001593625
6295 6298.43942 6289.86432 0.0001588562
6206 6296.68631 6287.93265 0.0001611344
6333 6294.94735 6286.00123 0.000157903
6350 6293.22379 6284.07008 0.0001574803
6310 6291.51699 6282.13918 0.0001584786
6278 6289.8287 6280.20854 0.0001592864
6300 6288.16084 6278.27817 0.0001587302
6314 6286.51593 6276.34805 0.0001583782
6187 6284.89682 6274.41818 0.0001616292
6301 6283.30711 6272.48857 0.000158705
6315 6281.75078 6270.55922 0.0001583531
6191 6280.2326 6268.63013 0.0001615248
6234 6278.75775 6266.70128 0.0001604107
6320 6277.33231 6264.77269 0.0001582278
6269 6275.9628 6262.84436 0.0001595151
6233 6274.65661 6260.91627 0.0001604364
6249 6273.42143 6258.98844 0.0001600256
6381 6272.26483 6257.06086 0.0001567152
6292 6271.19538 6255.13353 0.000158932
6279 6270.22135 6253.20645 0.000159261
6250 6269.35078 6251.27962 0.00016
6179 6268.59215 6249.35304 0.0001618385
6299 6267.95516 6247.4267 0.0001587554
6349 6267.44978 6245.50062 0.0001575051
6356 6267.08921 6243.57478 0.0001573317
6198 6266.89222 6241.64919 0.0001613424
6228 6266.88375 6239.72384 0.0001605652
6239 6267.10105 6237.79874 0.0001602821
6301 6267.59907 6235.87389 0.000158705
6177 6268.45579 6233.94928 0.0001618909
6327 6269.77861 6232.02491 0.0001580528
6370 6271.71952 6230.10079 0.0001569859
6421 6274.47996 6228.17691 0.000155739
6354 6278.32587 6226.25327 0.0001573812
6333 6283.5997 6224.32987 0.000157903
6385 6290.73285 6222.40672 0.0001566171
6288 6300.25674 6220.48381 0.0001590331
6425 6312.81074 6218.56114 0.000155642
6388 6329.1454 6216.63871 0.0001565435
6460 6350.11859 6214.71652 0.0001547988
6431 6376.68329 6212.79457 0.0001554968
6446 6409.86477 6210.87285 0.000155135
6599 6450.72579 6208.95138 0.0001515381
6528 6500.31804 6207.03015 0.0001531863
6456 6559.6198 6205.10915 0.0001548947
6491 6629.45972 6203.18839 0.0001540595
6688 6710.42914 6201.26787 0.0001495215
6637 6802.78719 6199.34759 0.0001506705
6770 6906.36502 6197.42754 0.0001477105
6877 7020.47669 6195.50773 0.0001454122
6949 7143.84779 6193.58816 0.0001439056
7012 7274.56906 6191.66882 0.0001426127
7209 7410.08504 6189.74972 0.0001387155
7398 7547.22449 6187.83085 0.0001351717
7622 7682.27576 6185.91222 0.0001311992
7740 7811.10734 6183.99382 0.000129199
7835 7929.33067 6182.07566 0.0001276324
8017 8032.50203 6180.15773 0.0001247349
8118 8116.35931 6178.24004 0.0001231831
8335 8177.08473 6176.32258 0.000119976
8429 8211.59215 6174.40535 0.000118638
8212 8217.81277 6172.48836 0.000121773
8396 8194.94569 6170.5716 0.0001191043
8281 8143.61767 6168.65508 0.0001207584
7986 8065.88749 6166.73878 0.0001252191
7952 7965.0732 6164.82272 0.0001257545
7705 7845.43088 6162.9069 0.0001297859
7559 7711.75893 6160.9913 0.0001322926
7347 7569.01359 6159.07594 0.00013611
7297 7421.98854 6157.16081 0.0001370426
7159 7275.07371 6155.24592 0.0001396843
6892 7132.08866 6153.33125 0.0001450958
6705 6996.17807 6151.41682 0.0001491424
6620 6869.7602 6149.50262 0.0001510574
6649 6754.52011 6147.58865 0.0001503986
6595 6651.44501 6145.67491 0.00015163
6435 6560.89235 6143.76141 0.0001554002
6421 6482.68331 6141.84814 0.000155739
6242 6416.21209 6139.9351 0.0001602051
6240 6360.56052 6138.02229 0.0001602564
6432 6314.60869 6136.10971 0.0001554726
6226 6277.13494 6134.19737 0.0001606168
6366 6246.89952 6132.28526 0.0001570845
6181 6222.70998 6130.37338 0.0001617861
6169 6203.46732 6128.46173 0.0001621008
6173 6188.19459 6126.55032 0.0001619958
6055 6176.05038 6124.63913 0.0001651528
6135 6166.3302 6122.72818 0.0001629992
6116 6158.45932 6120.81747 0.0001635056
6135 6151.97987 6118.90698 0.0001629992
6146 6146.53516 6116.99673 0.0001627075
6009 6141.85289 6115.08671 0.000166417
6215 6137.72917 6113.17693 0.000160901
6197 6134.01392 6111.26737 0.0001613684
6007 6130.59802 6109.35806 0.0001664724
6034 6127.40466 6107.44897 0.0001657275
6079 6124.3777 6105.54012 0.0001645007
6127 6121.47841 6103.63151 0.000163212
6044 6118.68 6101.72312 0.0001654533
6151 6115.96309 6099.81498 0.0001625752
6143 6113.31333 6097.90707 0.0001627869
6049 6110.72123 6095.99939 0.0001653166
6194 6108.17923 6094.09195 0.0001614466
6196 6105.68123 6092.18474 0.0001613944
6110 6103.22263 6090.27777 0.0001636661
6156 6100.80004 6088.37104 0.0001624431
6050 6098.40986 6086.46454 0.0001652893
6174 6096.04938 6084.55828 0.0001619695
5971 6093.71648 6082.65226 0.0001674761
6010 6091.4087 6080.74648 0.0001663894
5924 6089.12413 6078.84093 0.0001688049
6060 6086.86132 6076.93563 0.0001650165
6107 6084.61842 6075.03056 0.0001637465
6170 6082.39403 6073.12573 0.0001620746
6023 6080.18706 6071.22114 0.0001660302
5988 6077.99751 6069.31679 0.0001670007
5950 6075.82157 6067.41269 0.0001680672
6074 6073.65964 6065.50882 0.0001646362
5862 6071.51076 6063.6052 0.0001705902
6057 6069.3742 6061.70182 0.0001650982
6032 6067.24913 6059.79868 0.0001657825
6038 6065.13489 6057.89578 0.0001656178
6102 6063.03073 6055.99313 0.0001638807
6182 6060.93609 6054.09072 0.0001617599
5998 6058.85036 6052.18856 0.0001667222
5951 6056.77313 6050.28664 0.000168039
5956 6054.70386 6048.38497 0.0001678979
6007 6052.64214 6046.48354 0.0001664724
6061 6050.58745 6044.58237 0.0001649893
6022 6048.53955 6042.68144 0.0001660578
6068 6046.49794 6040.78075 0.0001647989
5987 6044.4624 6038.88032 0.0001670286
6051 6042.43257 6036.98014 0.0001652619
6031 6040.40816 6035.08021 0.00016581
6064 6038.38892 6033.18053 0.0001649077
6029 6036.3746 6031.2811 0.000165865
5916 6034.36489 6029.38193 0.0001690331
6004 6032.35965 6027.483 0.0001665556
5877 6030.35864 6025.58433 0.0001701548
6006 6028.36167 6023.68592 0.0001665002
5874 6026.36856 6021.78776 0.0001702417
5825 6024.37916 6019.88986 0.0001716738
5944 6022.39325 6017.99222 0.0001682369
5936 6020.4107 6016.09483 0.0001684636
5977 6018.43139 6014.19771 0.000167308
5995 6016.45517 6012.30084 0.0001668057
6002 6014.48192 6010.40423 0.0001666111
5874 6012.51152 6008.50788 0.0001702417
5866 6010.54386 6006.6118 0.0001704739
5903 6008.5788 6004.71598 0.0001694054
5924 6006.61627 6002.82043 0.0001688049
5915 6004.65618 6000.92513 0.0001690617
6025 6002.69842 5999.03011 0.0001659751
5933 6000.74292 5997.13535 0.0001685488
5957 5998.78961 5995.24086 0.0001678697
6060 5996.83836 5993.34664 0.0001650165
6011 5994.88916 5991.45269 0.0001663617
5959 5992.9419 5989.55901 0.0001678134
5880 5990.99654 5987.6656 0.000170068
5894 5989.05301 5985.77246 0.0001696641
5876 5987.11126 5983.8796 0.0001701838
5893 5985.1712 5981.98701 0.0001696929
5997 5983.23281 5980.0947 0.00016675
5976 5981.29603 5978.20266 0.000167336
5922 5979.36082 5976.3109 0.0001688619
5839 5977.42712 5974.41943 0.0001712622
5946 5975.4949 5972.52823 0.0001681803
5910 5973.56411 5970.63731 0.0001692047
5911 5971.63472 5968.74668 0.0001691761
5988 5969.70669 5966.85633 0.0001670007
5972 5967.77997 5964.96626 0.0001674481
5917 5965.85455 5963.07649 0.0001690046
5847 5963.93038 5961.18699 0.0001710279
5921 5962.00745 5959.29779 0.0001688904
5893 5960.0857 5957.40888 0.0001696929
5905 5958.16513 5955.52026 0.000169348
5866 5956.2457 5953.63193 0.0001704739
5867 5954.32738 5951.74389 0.0001704449
5858 5952.41016 5949.85615 0.0001707067
5901 5950.49401 5947.9687 0.0001694628
5834 5948.57891 5946.08155 0.000171409
5877 5946.66484 5944.1947 0.0001701548
5874 5944.75179 5942.30815 0.0001702417
5815 5942.83972 5940.42191 0.000171969
5944 5940.92863 5938.53596 0.0001682369
5926 5939.0185 5936.65032 0.0001687479
5865 5937.10931 5934.76498 0.000170503
5923 5935.20104 5932.87996 0.0001688334
5823 5933.29369 5930.99523 0.0001717328
5902 5931.38724 5929.11082 0.0001694341
6036 5929.48167 5927.22672 0.0001656726
5827 5927.57698 5925.34294 0.0001716149
5918 5925.67315 5923.45946 0.000168976
5909 5923.77018 5921.57631 0.0001692334
5897 5921.86806 5919.69347 0.0001695778
5830 5919.96676 5917.81095 0.0001715266
5864 5918.0663 5915.92874 0.0001705321
5958 5916.16665 5914.04686 0.0001678416
5844 5914.26782 5912.16531 0.0001711157
5887 5912.3698 5910.28408 0.0001698658
5871 5910.47257 5908.40317 0.0001703287
5849 5908.57614 5906.52259 0.0001709694
5787 5906.6805 5904.64235 0.0001728011
5796 5904.78565 5902.76243 0.0001725328
5932 5902.89159 5900.88284 0.0001685772
5846 5900.99831 5899.00359 0.0001710571
5876 5899.10581 5897.12468 0.0001701838
5885 5897.21409 5895.24611 0.0001699235
5766 5895.32315 5893.36787 0.0001734305
5821 5893.43299 5891.48997 0.0001717918
5881 5891.54362 5889.61242 0.0001700391
5709 5889.65503 5887.73521 0.000175162
5806 5887.76723 5885.85835 0.0001722356
5863 5885.88022 5883.98184 0.0001705611
5956 5883.99401 5882.10568 0.0001678979
5941 5882.10861 5880.22986 0.0001683218
5883 5880.22402 5878.35441 0.0001699813
5823 5878.34026 5876.4793 0.0001717328
5816 5876.45732 5874.60456 0.0001719395
5811 5874.57523 5872.73017 0.0001720874
5953 5872.694 5870.85614 0.0001679825
5772 5870.81364 5868.98248 0.0001732502
5958 5868.93417 5867.10918 0.0001678416
5931 5867.05561 5865.23625 0.0001686056
5865 5865.17798 5863.36368 0.000170503
5835 5863.3013 5861.49149 0.0001713796
5788 5861.42561 5859.61966 0.0001727713
5789 5859.55093 5857.74821 0.0001727414
5790 5857.67731 5855.87714 0.0001727116
5739 5855.80478 5854.00644 0.0001742464
5785 5853.93341 5852.13613 0.0001728608
5887 5852.06324 5850.2662 0.0001698658
5782 5850.19438 5848.39665 0.0001729505
5876 5848.32691 5846.52748 0.0001701838
5752 5846.46098 5844.65871 0.0001738526
5636 5844.59677 5842.79032 0.0001774308
5726 5842.73451 5840.92233 0.000174642
5830 5840.8329 5839.05473 0.0001715266
5756 5838.97576 5837.18752 0.0001737318
5804 5837.122 5835.32072 0.000172295
5805 5835.27369 5833.45431 0.0001722653
5766 5833.42951 5831.58831 0.0001734305
5787 5831.59224 5829.72271 0.0001728011
5881 5829.76392 5827.85752 0.0001700391
5818 5827.94724 5825.99273 0.0001718804
5852 5826.14566 5824.12836 0.0001708817
5909 5824.36364 5822.2644 0.0001692334
5966 5822.60676 5820.40086 0.0001676165
5713 5820.88196 5818.53773 0.0001750394
5872 5819.19766 5816.67503 0.0001702997
5740 5817.5639 5814.81274 0.000174216
5657 5815.99245 5812.95088 0.0001767721
5776 5814.49673 5811.08945 0.0001731302
5723 5813.09172 5809.22844 0.0001747335
5736 5811.79362 5807.36787 0.0001743375
5800 5810.62164 5805.50773 0.0001724138
5769 5809.58825 5803.64803 0.0001733403
5832 5808.71181 5801.78876 0.0001714678
5673 5808.00644 5799.92993 0.0001762736
5772 5807.48292 5798.07155 0.0001732502
5709 5807.14725 5796.21361 0.000175162
5548 5806.9992 5794.35612 0.0001802451
5788 5807.03083 5792.49908 0.0001727713
5814 5807.22534 5790.64249 0.0001719986
5753 5807.55611 5788.78635 0.0001738224
5786 5807.9864 5786.93067 0.000172831
5729 5808.46946 5785.07545 0.0001745505
5717 5808.94943 5783.22069 0.0001749169
5748 5809.36287 5781.3664 0.0001739736
5802 5809.641 5779.51257 0.0001723544
5814 5809.7125 5777.65922 0.0001719986
5643 5809.50692 5775.80633 0.0001772107
5739 5808.95851 5773.95392 0.0001742464
5851 5808.01044 5772.10198 0.000170911
5793 5806.6193 5770.25053 0.0001726221
5635 5804.75928 5768.39955 0.0001774623
5700 5802.42546 5766.54906 0.0001754386
5730 5799.63543 5764.69906 0.0001745201
5617 5796.4282 5762.84955 0.000178031
5741 5792.86078 5761.00052 0.0001741857
5720 5789.00288 5759.152 0.0001748252
5711 5784.93092 5757.30396 0.0001751007
5745 5780.72264 5755.45643 0.0001740644
5762 5776.45258 5753.6094 0.0001735509
5688 5772.18877 5751.76288 0.0001758087
5704 5767.99042 5749.91686 0.0001753156
5689 5763.90648 5748.07136 0.0001757778
5750 5759.97489 5746.22636 0.000173913
5648 5756.22251 5744.38188 0.0001770538
5582 5752.66559 5742.53792 0.0001791473
5679 5749.31075 5740.69448 0.0001760873
5658 5746.15636 5738.85157 0.0001767409
5742 5743.19402 5737.00918 0.0001741553
5714 5740.41033 5735.16732 0.0001750088
5593 5737.78848 5733.32599 0.0001787949
5672 5735.30974 5731.4852 0.0001763047
5750 5732.95478 5729.64494 0.000173913
5673 5730.70469 5727.80522 0.0001762736
5670 5728.54176 5725.96605 0.0001763668
5677 5726.44996 5724.12742 0.0001761494
5753 5724.41524 5722.28934 0.0001738224
5665 5722.42562 5720.45181 0.0001765225
5765 5720.47114 5718.61484 0.0001734605
5799 5718.54371 5716.77842 0.0001724435
5737 5716.63689 5714.94256 0.0001743071
5633 5714.74566 5713.10727 0.0001775253
5636 5712.86619 5711.27253 0.0001774308
5748 5710.99559 5709.43837 0.0001739736
5529 5709.13171 5707.60478 0.0001808645
5637 5707.273 5705.77177 0.0001773993
5707 5705.41833 5703.93933 0.0001752234
5656 5703.5669 5702.10747 0.0001768034
5637 5701.71902 5700.27619 0.0001773993
5767 5699.87251 5698.4455 0.0001734004
5739 5698.02796 5696.61539 0.0001742464
5569 5696.18517 5694.78588 0.0001795655
5758 5694.34852 5692.95697 0.0001736714
5707 5692.50882 5691.12865 0.0001752234
5571 5690.67052 5689.30093 0.000179501
5732 5688.83354 5687.47381 0.0001744592
5679 5686.99784 5685.6473 0.0001760873
5590 5685.16335 5683.8214 0.0001788909
5714 5683.33004 5681.99612 0.0001750088
5717 5681.49788 5680.17144 0.0001749169
5538 5679.66683 5678.34739 0.0001805706
5708 5677.83686 5676.52396 0.0001751927
5591 5676.00796 5674.70115 0.0001788589
5586 5674.18009 5672.87897 0.000179019
5697 5672.35324 5671.05742 0.000175531
5643 5670.5274 5669.23651 0.0001772107
5758 5668.70254 5667.41623 0.0001736714
5628 5666.87865 5665.59659 0.000177683
5761 5665.05572 5663.7776 0.000173581
5684 5663.23374 5661.95925 0.0001759324
5655 5661.4127 5660.14155 0.0001768347
5515 5659.59259 5658.3245 0.0001813237
5500 5657.7734 5656.50811 0.0001818182
5573 5655.95513 5654.69238 0.0001794366
5573 5654.13777 5652.87731 0.0001794366
5706 5652.32131 5651.0629 0.0001752541
5727 5650.50576 5649.24916 0.0001746115
5651 5648.6911 5647.4361 0.0001769598
5508 5646.87734 5645.62371 0.0001815541
5545 5645.06446 5643.81199 0.0001803427
5601 5643.25248 5642.00096 0.0001785395
5579 5641.44139 5640.19061 0.0001792436
5566 5639.63118 5638.38095 0.0001796622
5716 5637.82186 5636.57197 0.0001749475
5653 5636.01343 5634.7637 0.0001768972
5654 5634.20589 5632.95612 0.0001768659
5625 5632.39924 5631.14923 0.0001777778
5472 5630.59348 5629.34306 0.0001827485
5628 5628.78861 5627.53759 0.000177683
5645 5626.98463 5625.73283 0.0001771479
5594 5625.18155 5623.92878 0.000178763
5559 5623.37937 5622.12545 0.0001798885
5560 5621.57809 5620.32284 0.0001798561
5586 5619.77771 5618.52095 0.000179019
5704 5617.98181 5616.71979 0.0001753156
5718 5616.18326 5614.91936 0.0001748863
5638 5614.38563 5613.11966 0.0001773679
5508 5612.58891 5611.32069 0.0001815541
5584 5610.79312 5609.52247 0.0001790831
5561 5608.99826 5607.72499 0.0001798238
5554 5607.20433 5605.92826 0.0001800504
5539 5605.41134 5604.13227 0.000180538
5574 5603.6193 5602.33704 0.0001794044
5616 5601.82821 5600.54257 0.0001780627
5458 5600.03808 5598.74885 0.0001832173
5539 5598.24891 5596.9559 0.000180538
5529 5596.46072 5595.16371 0.0001808645
5509 5594.6735 5593.3723 0.0001815211
5495 5592.88726 5591.58166 0.0001819836
5508 5591.10203 5589.79179 0.0001815541
5505 5589.31779 5588.0027 0.000181653
5535 5587.53707 5586.2144 0.0001806685
5489 5585.75487 5584.42688 0.0001821825
5525 5583.97369 5582.64016 0.0001809955
5572 5582.19355 5580.85423 0.0001794688
5579 5580.41446 5579.06909 0.0001792436
5574 5578.63643 5577.28475 0.0001794044
5614 5576.85947 5575.50122 0.0001781261
5566 5575.08358 5573.7185 0.0001796622
5598 5573.3088 5571.93659 0.0001786352
5686 5571.53511 5570.15549 0.0001758706
5644 5569.76255 5568.37521 0.0001771793
5492 5567.99112 5566.59574 0.000182083
5497 5566.22084 5564.81711 0.0001819174
5552 5564.45172 5563.0393 0.0001801153
5545 5562.68378 5561.26232 0.0001803427
5482 5560.91704 5559.48618 0.0001824152
5513 5559.1515 5557.71088 0.0001813894
5481 5557.38721 5555.93642 0.0001824485
5525 5555.62416 5554.1628 0.0001809955
5605 5553.86239 5552.39003 0.0001784121
5527 5552.10191 5550.61812 0.00018093
5446 5550.34275 5548.84706 0.000183621
5470 5548.58493 5547.07686 0.0001828154
5455 5546.82848 5545.30752 0.0001833181
5490 5545.07343 5543.53905 0.0001821494
5514 5543.31981 5541.77145 0.0001813565
5421 5541.56764 5540.00472 0.0001844678
5500 5539.81697 5538.23887 0.0001818182
5605 5538.06782 5536.4739 0.0001784121
5418 5536.32024 5534.70982 0.00018457
5544 5534.57427 5532.94662 0.0001803752
5436 5532.82995 5531.18431 0.0001839588
5612 5531.08733 5529.4229 0.0001781896
5485 5529.34645 5527.66238 0.0001823154
5592 5527.60738 5525.90276 0.0001788269
5626 5525.87018 5524.14406 0.0001777462
5438 5524.1349 5522.38626 0.0001838911
5429 5522.40161 5520.62937 0.000184196
5541 5520.6704 5518.87339 0.0001804728
5569 5518.94135 5517.11834 0.0001795655
5467 5517.22078 5515.36421 0.0001829157
5491 5515.49632 5513.61101 0.0001821162
5517 5513.77433 5511.85873 0.0001812579
5334 5512.05491 5510.10739 0.0001874766
5454 5510.33823 5508.35699 0.0001833517
5573 5508.62445 5506.60752 0.0001794366
5413 5506.91377 5504.859 0.0001847404
5439 5505.20645 5503.11143 0.0001838573
5464 5503.5028 5501.36481 0.0001830161
5465 5501.80321 5499.61914 0.0001829826
5489 5500.10822 5497.87444 0.0001821825
5367 5498.41852 5496.13069 0.0001863238
5521 5496.73506 5494.38791 0.0001811266
5499 5495.05911 5492.6461 0.0001818512
5555 5493.39239 5490.90526 0.000180018
5481 5491.73725 5489.1654 0.0001824485
5361 5490.09686 5487.42652 0.0001865324
5510 5488.47545 5485.68862 0.0001814882
5465 5486.87865 5483.95171 0.0001829826
5383 5485.31385 5482.21579 0.00018577
5459 5483.79065 5480.48086 0.0001831837
5425 5482.32134 5478.74693 0.0001843318
5419 5480.92144 5477.014 0.0001845359
5441 5479.61022 5475.28208 0.0001837897
5441 5478.41125 5473.55117 0.0001837897
5510 5477.3528 5471.82126 0.0001814882
5392 5476.46815 5470.09238 0.0001854599
5509 5475.79563 5468.36451 0.0001815211
5493 5475.37838 5466.63766 0.0001820499
5423 5475.26369 5464.91184 0.0001843998
5377 5475.50177 5463.18705 0.0001859773
5336 5476.1441 5461.4633 0.0001874063
5492 5477.24103 5459.74058 0.000182083
5440 5478.83879 5458.0189 0.0001838235
5410 5480.97605 5456.29827 0.0001848429
5445 5483.67991 5454.57868 0.0001836547
5383 5486.96171 5452.86015 0.00018577
5461 5490.81284 5451.14267 0.0001831166
5476 5495.2009 5449.42624 0.000182615
5487 5500.06652 5447.71088 0.000182249
5385 5505.32127 5445.99659 0.000185701
5438 5510.84701 5444.28337 0.0001838911
5473 5516.49693 5442.57121 0.0001827151
5506 5522.09845 5440.86014 0.0001816201
5431 5527.45812 5439.15014 0.0001841282
5453 5532.36831 5437.44123 0.0001833853
5412 5536.61564 5435.7334 0.0001847746
5409 5539.991 5434.02667 0.0001848771
5458 5542.30078 5432.32103 0.0001832173
5555 5543.37931 5430.61648 0.000180018
5402 5543.10162 5428.91304 0.0001851166
5354 5541.39522 5427.2107 0.0001867762
5381 5538.24915 5425.50947 0.0001858391
5366 5533.71751 5423.80936 0.0001863586
5494 5527.91611 5422.11035 0.0001820167
5446 5521.01228 5420.41247 0.000183621
5324 5513.20978 5418.71571 0.0001878287
5479 5504.73247 5417.02008 0.0001825151
5357 5495.80894 5415.32557 0.0001866716
5397 5486.66 5413.6322 0.0001852881
5282 5477.48919 5411.93996 0.0001893222
5370 5468.47599 5410.24887 0.0001862197
5353 5459.77145 5408.55891 0.0001868111
5387 5451.49571 5406.87011 0.0001856321
5367 5443.73731 5405.18245 0.0001863238
5365 5436.55406 5403.49595 0.0001863933
5356 5429.9754 5401.81061 0.0001867065
5446 5424.00564 5400.12643 0.000183621
5509 5418.62824 5398.44341 0.0001815211
5398 5413.81021 5396.76156 0.0001852538
5435 5409.50682 5395.08088 0.0001839926
5326 5405.66587 5393.40138 0.0001877582
5316 5402.23157 5391.72306 0.0001881114
5316 5399.1478 5390.04592 0.0001881114
5416 5396.36062 5388.36996 0.0001846381
5435 5393.82008 5386.69519 0.0001839926
5284 5391.48138 5385.02162 0.0001892506
5317 5389.30546 5383.34924 0.000188076
5408 5387.25912 5381.67806 0.0001849112
5352 5385.31476 5380.00808 0.000186846
5338 5383.44999 5378.33931 0.0001873361
5342 5381.64696 5376.67175 0.0001871958
5362 5379.89175 5375.0054 0.0001864976
5235 5378.17369 5373.34027 0.000191022
5313 5376.48475 5371.67636 0.0001882176
5352 5374.81901 5370.01367 0.000186846
5308 5373.17219 5368.35221 0.0001883949
5327 5371.54123 5366.69197 0.0001877229
5257 5369.92401 5365.03298 0.0001902226
5227 5368.31913 5363.37522 0.0001913143
5330 5366.72566 5361.71869 0.0001876173
5379 5365.14308 5360.06342 0.0001859082
5355 5363.57111 5358.40939 0.0001867414
5252 5362.0097 5356.75661 0.0001904037
5330 5360.45896 5355.10508 0.0001876173
5429 5358.91913 5353.45482 0.000184196
5220 5357.39055 5351.80581 0.0001915709
5321 5355.87371 5350.15806 0.0001879346
5391 5354.36921 5348.51159 0.0001854943
5359 5352.87778 5346.86638 0.000186602
5406 5351.40035 5345.22245 0.0001849797
5280 5349.93809 5343.5798 0.0001893939
5213 5348.49244 5341.93842 0.0001918281
5233 5347.0653 5340.29833 0.000191095
5269 5345.65909 5338.65953 0.0001897893
5333 5344.27775 5337.02201 0.0001875117
5347 5342.9241 5335.3858 0.0001870208
5404 5341.60451 5333.75087 0.0001850481
5414 5340.32656 5332.11725 0.0001847063
5302 5339.10032 5330.48493 0.0001886081
5328 5337.93922 5328.85392 0.0001876877
5406 5336.86098 5327.22422 0.0001849797
5448 5335.88889 5325.59583 0.0001835536
5188 5335.05323 5323.96876 0.0001927525
5277 5334.39304 5322.34301 0.0001895016
5314 5333.95802 5320.71858 0.0001881822
5219 5333.81079 5319.09548 0.0001916076
5368 5334.02915 5317.47371 0.0001862891
5280 5334.70853 5315.85327 0.0001893939
5192 5335.96427 5314.23416 0.000192604
5453 5337.93367 5312.6164 0.0001833853
5224 5340.77755 5310.99998 0.0001914242
5274 5344.68101 5309.3849 0.0001896094
5340 5349.85318 5307.77117 0.0001872659
5318 5356.52548 5306.15879 0.0001880406
5264 5364.9482 5304.54777 0.0001899696
5222 5375.38513 5302.9381 0.0001914975
5328 5388.10577 5301.3298 0.0001876877
5460 5403.37526 5299.72286 0.0001831502
5495 5421.44187 5298.11728 0.0001819836
5418 5442.52216 5296.51308 0.00018457
5436 5466.78432 5294.91025 0.0001839588
5566 5494.3301 5293.3088 0.0001796622
5407 5525.17628 5291.70872 0.0001849454
5525 5559.23655 5290.11003 0.0001809955
5609 5596.30519 5288.51273 0.0001782849
5507 5636.0433 5286.91681 0.0001815871
5650 5677.96996 5285.32228 0.0001769912
5814 5721.45863 5283.72915 0.0001719986
5753 5765.74081 5282.13742 0.0001738224
5848 5809.91879 5280.54709 0.0001709986
5713 5852.98802 5278.95816 0.0001750394
5918 5893.86907 5277.37064 0.000168976
5895 5931.44982 5275.78453 0.0001696353
5889 5964.63222 5274.19982 0.0001698081
5981 5992.38104 5272.61654 0.0001671961
5942 6013.76867 5271.03467 0.0001682935
6056 6028.01462 5269.45423 0.0001651255
6146 6034.52065 5267.87521 0.0001627075
5899 6032.90437 5266.29761 0.0001695203
5882 6023.03332 5264.72145 0.0001700102
5868 6005.05444 5263.14672 0.0001704158
6028 5979.41098 5261.57343 0.0001658925
5878 5946.83469 5260.00157 0.0001701259
5856 5908.30746 5258.43115 0.000170765
5821 5864.99549 5256.86218 0.0001717918
5621 5818.16847 5255.29466 0.0001779043
5702 5769.11856 5253.72859 0.0001753771
5770 5719.09104 5252.16397 0.0001733102
5575 5669.23059 5250.6008 0.0001793722
5501 5620.54468 5249.03909 0.0001817851
5476 5573.88032 5247.47885 0.000182615
5601 5529.91271 5245.92007 0.0001785395
5543 5489.14241 5244.36275 0.0001804077
5362 5451.90075 5242.8069 0.0001864976
5339 5418.36185 5241.25253 0.000187301
5286 5388.56138 5239.69963 0.000189179
5363 5362.41182 5238.14821 0.0001864628
5287 5339.7348 5236.59827 0.0001891432
5297 5320.27938 5235.04981 0.0001887861
5246 5303.74702 5233.50283 0.0001906214
5281 5289.8128 5231.95735 0.0001893581
5328 5278.14404 5230.41335 0.0001876877
5252 5268.41522 5228.87085 0.0001904037
5238 5260.31945 5227.32984 0.0001909126
5249 5253.5763 5225.79034 0.0001905125
5210 5247.93803 5224.25233 0.0001919386
5279 5243.18536 5222.71583 0.0001894298
5121 5239.13654 5221.18083 0.0001952744
5169 5235.63937 5219.64734 0.000193461
5328 5232.56997 5218.11536 0.0001876877
5230 5229.82929 5216.5849 0.0001912046
5109 5227.33951 5215.05595 0.000195733
5130 5225.04048 5213.52853 0.0001949318
5297 5222.88638 5212.00262 0.0001887861
5280 5220.8428 5210.47824 0.0001893939
5213 5218.88421 5208.95538 0.0001918281
5285 5216.99188 5207.43405 0.0001892148
5303 5215.1522 5205.91426 0.0001885725
5179 5213.35532 5204.39599 0.0001930875
5139 5211.59422 5202.87926 0.0001945904
5136 5209.86385 5201.36407 0.000194704
5247 5208.16069 5199.85043 0.0001905851
5010 5206.48227 5198.33832 0.0001996008
5170 5204.82699 5196.82776 0.0001934236
5198 5203.19395 5195.31874 0.0001923817
5219 5201.58286 5193.81128 0.0001916076
5184 5199.99408 5192.30537 0.0001929012
5221 5198.42869 5190.80101 0.0001915342
5106 5196.88866 5189.29821 0.000195848
5092 5195.37702 5187.79697 0.0001963865
5107 5193.89822 5186.29729 0.0001958097
5179 5192.45849 5184.79918 0.0001930875
5203 5191.06633 5183.30263 0.0001921968
5192 5189.73309 5181.80764 0.000192604
5342 5188.47369 5180.31423 0.0001871958
5101 5187.30735 5178.82239 0.00019604
5302 5186.25848 5177.33212 0.0001886081
5205 5185.35751 5175.84343 0.000192123
5140 5184.64175 5174.35632 0.0001945525
5122 5184.15614 5172.87079 0.0001952362
5158 5183.95374 5171.38684 0.0001938736
5213 5184.09598 5169.90448 0.0001918281
5096 5184.65235 5168.4237 0.0001962323
5227 5185.69955 5166.94452 0.0001913143
5471 5187.31989 5165.46692 0.0001827819
5212 5189.59878 5163.99092 0.0001918649
5298 5192.62138 5162.51651 0.0001887505
5358 5196.46826 5161.0437 0.0001866368
5194 5201.20984 5159.57249 0.0001925298
5231 5206.9009 5158.10287 0.000191168
5221 5213.57369 5156.63487 0.0001915342
5197 5221.23148 5155.16846 0.0001924187
5288 5229.8418 5153.70367 0.0001891074
5288 5239.3314 5152.24048 0.0001891074
5315 5249.58159 5150.7789 0.0001881468
5312 5260.42595 5149.31893 0.000188253
5388 5271.65029 5147.86058 0.0001855976
5453 5282.99526 5146.40385 0.0001833853
5466 5294.16199 5144.94873 0.0001829491
5383 5304.8235 5143.49523 0.00018577
5261 5314.62471 5142.04335 0.0001900779
5484 5323.21371 5140.5931 0.0001823487
5363 5330.24691 5139.14447 0.0001864628
5402 5335.4105 5137.69746 0.0001851166
5530 5338.4407 5136.25209 0.0001808318
5445 5339.14416 5134.80834 0.0001836547
5407 5337.41588 5133.36623 0.0001849454
5509 5333.25253 5131.92575 0.0001815211
5417 5326.75564 5130.4869 0.000184604
5469 5318.12466 5129.0497 0.0001828488
5527 5307.63963 5127.61412 0.00018093
5539 5295.6371 5126.18019 0.000180538
5378 5282.48468 5124.7479 0.0001859427
5286 5268.5574 5123.31726 0.000189179
5304 5254.21847 5121.88825 0.000188537
5224 5239.80451 5120.4609 0.0001914242
5415 5225.61492 5119.03519 0.0001846722
5421 5211.90467 5117.61113 0.0001844678
5244 5198.8801 5116.18872 0.0001906941
5248 5186.6974 5114.76796 0.0001905488
5154 5175.46348 5113.34885 0.0001940241
5279 5165.23902 5111.9314 0.0001894298
5182 5156.04318 5110.51561 0.0001929757
5244 5147.85982 5109.10147 0.0001906941
5229 5140.64424 5107.68899 0.0001912412
5060 5134.33033 5106.27817 0.0001976285
5356 5128.83745 5104.86902 0.0001867065
5279 5124.07674 5103.46152 0.0001894298
5147 5119.95657 5102.05569 0.0001942879
5228 5116.38695 5100.65153 0.0001912777
5185 5113.28289 5099.24903 0.000192864
5250 5110.56671 5097.8482 0.0001904762
5185 5108.16943 5096.44904 0.000192864
5150 5106.03138 5095.05154 0.0001941748
5153 5104.10221 5093.65573 0.0001940617
4960 5102.34042 5092.26158 0.0002016129
5140 5100.71265 5090.8691 0.0001945525
5218 5099.19277 5089.47831 0.0001916443
5092 5097.76105 5088.08918 0.0001963865
5112 5096.40325 5086.70174 0.0001956182
5169 5095.10997 5085.31597 0.000193461
5052 5093.87614 5083.93188 0.0001979414
5144 5092.70074 5082.54948 0.0001944012
5220 5091.58679 5081.16875 0.0001915709
5304 5090.54168 5079.7897 0.000188537
5074 5089.5777 5078.41234 0.0001970832
5103 5088.71312 5077.03667 0.0001959632
5156 5087.97346 5075.66268 0.0001939488
5150 5087.39324 5074.29037 0.0001941748
5148 5087.01815 5072.91975 0.0001942502
5106 5086.90757 5071.55082 0.000195848
5153 5087.1374 5070.18358 0.0001940617
5206 5087.8032 5068.81803 0.0001920861
5289 5089.0233 5067.45417 0.0001890717
5257 5090.94187 5066.092 0.0001902226
5235 5093.73149 5064.73152 0.000191022
5222 5097.59488 5063.37274 0.0001914975
5337 5102.76543 5062.01564 0.0001873712
5197 5109.50592 5060.66025 0.0001924187
5317 5118.10497 5059.30655 0.000188076
5394 5128.8708 5057.95454 0.0001853912
5487 5142.12176 5056.60423 0.000182249
5370 5158.17355 5055.25562 0.0001862197
5362 5177.32295 5053.9087 0.0001864976
5450 5199.82842 5052.56349 0.0001834862
5454 5225.88805 5051.21997 0.0001833517
5469 5255.61585 5049.87815 0.0001828488
5571 5289.0176 5048.53804 0.000179501
5605 5325.96803 5047.19962 0.0001784121
5711 5366.19036 5045.86291 0.0001751007
5696 5409.24142 5044.52789 0.0001755618
5816 5454.50305 5043.19458 0.0001719395
5660 5501.1817 5041.86298 0.0001766784
5804 5548.31796 5040.53307 0.000172295
5841 5594.80706 5039.20487 0.0001712036
5859 5639.42878 5037.87837 0.0001706776
5755 5680.88913 5036.55358 0.0001737619
5879 5717.8713 5035.23049 0.000170097
5845 5749.09541 5033.90911 0.0001710864
5792 5773.38657 5032.58944 0.0001726519
5825 5789.74827 5031.27147 0.0001716738
5799 5797.43764 5029.9552 0.0001724435
5765 5796.03222 5028.64064 0.0001734605
5845 5785.47944 5027.32779 0.0001710864
5913 5766.11251 5026.01665 0.0001691189
5812 5738.62821 5024.70721 0.0001720578
5785 5704.02662 5023.39948 0.0001728608
5673 5663.52734 5022.09346 0.0001762736
5633 5618.47592 5020.78915 0.0001775253
5528 5570.25729 5019.48654 0.0001808973
5571 5520.22444 5018.18565 0.000179501
5578 5469.64194 5016.88646 0.0001792757
5425 5419.64533 5015.58898 0.0001843318
5523 5371.21293 5014.2932 0.000181061
5497 5325.14855 5012.99914 0.0001819174
5439 5282.07369 5011.70678 0.0001838573
5437 5242.42855 5010.41614 0.000183925
5446 5206.48102 5009.1272 0.000183621
5250 5174.34263 5007.83997 0.0001904762
5219 5145.98902 5006.55444 0.0001916076
5128 5121.28415 5005.27063 0.0001950078
5208 5100.00565 5003.98852 0.0001920123
5176 5081.87018 5002.70813 0.0001931994
5273 5066.5568 5001.42944 0.0001896454
5309 5053.7278 5000.15245 0.0001883594
5077 5043.04585 4998.87718 0.0001969667
5217 5034.1875 4997.60361 0.000191681
5193 5026.85283 4996.33175 0.0001925669
5189 5020.77171 4995.0616 0.0001927154
4990 5015.70696 4993.79315 0.0002004008
5003 5011.45512 4992.52642 0.0001998801
5164 5007.84529 4991.26138 0.0001936483
5062 5004.73675 4989.99805 0.0001975504
5000 5002.01571 4988.73643 0.0002
5144 4999.59175 4987.47652 0.0001944012
5052 4997.39414 4986.21831 0.0001979414
5085 4995.36839 4984.9618 0.0001966568
5138 4993.47308 4983.70699 0.0001946283
5029 4991.67711 4982.4539 0.0001988467
4994 4989.95737 4981.2025 0.0002002403
5021 4988.29684 4979.95281 0.0001991635
5020 4986.68305 4978.70481 0.0001992032
4970 4985.10689 4977.45853 0.0002012072
4979 4983.56169 4976.21394 0.0002008435
5167 4982.04257 4974.97105 0.0001935359
4957 4980.54586 4973.72986 0.0002017349
4941 4979.06882 4972.49037 0.0002023882
5008 4977.60933 4971.25259 0.0001996805
4986 4976.16569 4970.01649 0.0002005616
4933 4974.73654 4968.7821 0.0002027164
5000 4973.32076 4967.54941 0.0002
5033 4971.91738 4966.31841 0.0001986887
4970 4970.52556 4965.0891 0.0002012072
5016 4969.14457 4963.86149 0.000199362
5098 4967.76357 4962.63558 0.0001961554
4937 4966.40234 4961.41136 0.0002025522
4922 4965.05015 4960.18883 0.0002031694
5047 4963.70652 4958.96799 0.0001981375
4857 4962.37133 4957.74885 0.0002058884
4889 4961.04351 4956.53139 0.0002045408
4936 4959.72302 4955.31562 0.0002025932
4854 4958.4095 4954.10154 0.0002060157
4958 4957.10264 4952.88915 0.0002016942
4978 4955.80215 4951.67845 0.0002008839
4966 4954.50775 4950.46943 0.0002013693
4844 4953.2192 4949.2621 0.000206441
4991 4951.93625 4948.05645 0.0002003606
5071 4950.6587 4946.85248 0.0001971998
4954 4949.38634 4945.6502 0.0002018571
5012 4948.11898 4944.44959 0.0001995211
4888 4946.85646 4943.25067 0.0002045827
5000 4945.59861 4942.05342 0.0002
4934 4944.34528 4940.85785 0.0002026753
4940 4943.09633 4939.66396 0.0002024291
4965 4941.85163 4938.47174 0.0002014099
4933 4940.61107 4937.2812 0.0002027164
4948 4939.37452 4936.09232 0.0002021019
4825 4938.14381 4934.90513 0.0002072539
4950 4936.91745 4933.7196 0.0002020202
5028 4935.69234 4932.53574 0.0001988862
4935 4934.47088 4931.35355 0.0002026342
5029 4933.25296 4930.17302 0.0001988467
4930 4932.03852 4928.99416 0.0002028398
4904 4930.82749 4927.81697 0.0002039152
4937 4929.6198 4926.64144 0.0002025522
4883 4928.41539 4925.46757 0.0002047921
5042 4927.2142 4924.29536 0.000198334
5069 4926.01618 4923.1248 0.0001972776
4953 4924.78569 4921.95591 0.0002018978
4899 4923.59392 4920.78867 0.0002041233
4891 4922.40517 4919.62309 0.0002044572
4908 4921.21941 4918.45915 0.000203749
4945 4920.03661 4917.29688 0.0002022245
4900 4918.85672 4916.13625 0.0002040816
5017 4917.67972 4914.97726 0.0001993223
4873 4916.50557 4913.81993 0.0002052124
4925 4915.33425 4912.66424 0.0002030457
4932 4914.16574 4911.5102 0.0002027575
4945 4913.00001 4910.35779 0.0002022245
4957 4911.83705 4909.20703 0.0002017349
4905 4910.65709 4908.05791 0.0002038736
4987 4909.49963 4906.91042 0.0002005214
4811 4908.34489 4905.76457 0.000207857
4919 4907.19285 4904.62035 0.0002032934
4982 4906.04351 4903.47777 0.0002007226
4749 4904.89686 4902.33682 0.0002105706
4869 4903.7529 4901.19749 0.000205381
4941 4902.61161 4900.05979 0.0002023882
4879 4901.47301 4898.92372 0.00020496
4866 4900.33708 4897.78927 0.0002055076
4765 4899.20384 4896.65644 0.0002098636
4827 4898.07329 4895.52524 0.000207168
4811 4896.94544 4894.39565 0.000207857
4854 4895.82029 4893.26767 0.0002060157
5032 4894.69786 4892.14131 0.0001987281
4947 4893.57816 4891.01657 0.0002021427
4966 4892.46122 4889.89343 0.0002013693
4949 4891.34704 4888.7719 0.000202061
4890 4890.23565 4887.65198 0.000204499
4869 4889.12709 4886.53366 0.000205381
4797 4888.02202 4885.41694 0.0002084636
4901 4886.91918 4884.30183 0.00020404
4860 4885.81925 4883.18831 0.0002057613
4869 4884.72227 4882.07639 0.000205381
4890 4883.62828 4880.96607 0.000204499
4769 4882.53734 4879.85733 0.0002096876
4880 4881.44949 4878.75019 0.000204918
5045 4880.36478 4877.64463 0.0001982161
4930 4879.28329 4876.54066 0.0002028398
4776 4878.20507 4875.43827 0.0002093802
4795 4877.1302 4874.33747 0.0002085506
4757 4876.05877 4873.23824 0.0002102165
4869 4874.99215 4872.14059 0.000205381
4869 4873.92785 4871.04452 0.000205381
4939 4872.86725 4869.95002 0.0002024701
4896 4871.81049 4868.85708 0.0002042484
4919 4870.75767 4867.76572 0.0002032934
4970 4869.70894 4866.67592 0.0002012072
4883 4868.66443 4865.58769 0.0002047921
4859 4867.62433 4864.50101 0.0002058037
4772 4866.58879 4863.4159 0.0002095557
4805 4865.55802 4862.33234 0.0002081165
4885 4864.53224 4861.25033 0.0002047083
4842 4863.51169 4860.16988 0.0002065262
4962 4862.49667 4859.09097 0.0002015316
4818 4861.48749 4858.01362 0.000207555
4856 4860.48455 4856.9378 0.0002059308
5035 4859.48831 4855.86353 0.0001986097
4971 4858.49934 4854.7908 0.0002011668
4881 4857.51836 4853.7196 0.000204876
4925 4856.54627 4852.64994 0.0002030457
4902 4855.58429 4851.58181 0.0002039984
4903 4854.63397 4850.5152 0.0002039568
4954 4853.69742 4849.45013 0.0002018571
4926 4852.77744 4848.38658 0.0002030045
4825 4851.87781 4847.32455 0.0002072539
4909 4851.00355 4846.26403 0.0002037075
4932 4850.16141 4845.20504 0.0002027575
5003 4849.36029 4844.14755 0.0001998801
5041 4848.61192 4843.09158 0.0001983733
4887 4847.93155 4842.03712 0.0002046245
4933 4847.33882 4840.98416 0.0002027164
4917 4846.85872 4839.9327 0.000203376
5089 4846.52262 4838.88275 0.0001965023
5154 4846.36933 4837.83429 0.0001940241
5018 4846.44623 4836.78732 0.0001992826
5127 4846.8101 4835.74185 0.0001950458
5254 4847.52796 4834.69786 0.0001903312
5103 4848.67739 4833.65536 0.0001959632
5091 4850.34731 4832.61435 0.0001964251
5037 4852.63351 4831.57481 0.0001985309
5129 4855.64254 4830.53675 0.0001949698
4982 4859.48548 4829.50017 0.0002007226
5007 4864.2751 4828.46505 0.0001997204
5062 4870.12117 4827.43141 0.0001975504
5091 4877.12453 4826.39923 0.0001964251
4982 4885.37026 4825.36852 0.0002007226
5033 4894.92011 4824.33926 0.0001986887
5041 4905.80452 4823.31146 0.0001983733
4972 4918.01461 4822.28511 0.0002011263
5042 4931.49487 4821.26022 0.000198334
4984 4946.1368 4820.23677 0.0002006421
4886 4961.77419 4819.21477 0.0002046664
5036 4978.1808 4818.19421 0.0001985703
5036 4995.07078 4817.17509 0.0001985703
5028 5012.10441 4816.1574 0.0001988862
5081 5028.88503 4815.14115 0.0001968117
5132 5044.98421 4814.12633 0.0001948558
5024 5059.94559 4813.11293 0.0001990446
5022 5073.30409 4812.10095 0.0001991239
4984 5084.6066 4811.0904 0.0002006421
5029 5093.43421 4810.08126 0.0001988467
4895 5099.42803 4809.07354 0.0002042901
5044 5102.31413 4808.06722 0.0001982554
5087 5101.92712 4807.06232 0.0001965795
5159 5098.22721 4806.05881 0.000193836
5014 5091.3073 4805.05671 0.0001994416
5043 5081.38704 4804.05601 0.0001982947
5002 5068.79466 4803.0567 0.00019992
5141 5053.94001 4802.05878 0.0001945147
5096 5037.28412 4801.06225 0.0001962323
5062 5019.30953 4800.0671 0.0001975504
5030 5000.49531 4799.07334 0.0001988072
5025 4981.29705 4798.08095 0.000199005
5127 4962.13177 4797.08994 0.0001950458
5026 4943.36715 4796.10029 0.0001989654
5048 4925.31415 4795.11202 0.0001980983
4988 4908.22327 4794.12511 0.0002004812
4924 4892.28311 4793.13956 0.0002030869
4942 4877.62208 4792.15537 0.0002023472
4922 4864.31238 4791.17254 0.0002031694
4910 4852.37575 4790.19105 0.000203666
4840 4841.79116 4789.21091 0.0002066116
5010 4832.50164 4788.23212 0.0001996008
5037 4824.42459 4787.25466 0.0001985309
4970 4817.45876 4786.27854 0.0002012072
4912 4811.4921 4785.30376 0.0002035831
4798 4806.40848 4784.33031 0.0002084202
4847 4802.09325 4783.35818 0.0002063132
5003 4798.43747 4782.38737 0.0001998801
4925 4795.34336 4781.41789 0.0002030457
4822 4792.71802 4780.44972 0.0002073828
4972 4790.48697 4779.48286 0.0002011263
4889 4788.58641 4778.51731 0.0002045408
4866 4786.96502 4777.55307 0.0002055076
4721 4785.58331 4776.59013 0.0002118195
4862 4784.41268 4775.62848 0.0002056767
4924 4783.43425 4774.66813 0.0002030869
4725 4782.63758 4773.70907 0.0002116402
4813 4782.01931 4772.7513 0.0002077706
4804 4781.58175 4771.79481 0.0002081599
4909 4781.33138 4770.8396 0.0002037075
4937 4781.27742 4769.88567 0.0002025522
4819 4781.43026 4768.93301 0.0002075119
4978 4781.79986 4767.98161 0.0002008839
4842 4782.3942 4767.03149 0.0002065262
4910 4783.21768 4766.08262 0.000203666
4902 4784.26957 4765.13501 0.0002039984
4922 4785.54265 4764.18866 0.0002031694
4942 4787.02195 4763.24355 0.0002023472
4888 4788.68377 4762.29969 0.0002045827
5106 4790.49516 4761.35707 0.000195848
4959 4792.41363 4760.41569 0.0002016536
5056 4794.38745 4759.47555 0.0001977848
5096 4796.3565 4758.53664 0.0001962323
5105 4798.25359 4757.59895 0.0001958864
5020 4800.0063 4756.66249 0.0001992032
5143 4801.53956 4755.72725 0.000194439
5047 4802.77845 4754.79322 0.0001981375
4929 4803.63629 4753.86041 0.0002028809
4981 4804.08045 4752.9288 0.0002007629
5045 4804.04335 4751.9984 0.0001982161
5063 4803.48857 4751.0692 0.0001975114
5050 4802.39859 4750.14119 0.0001980198
4992 4800.77683 4749.21438 0.0002003205
4878 4798.64783 4748.28875 0.0002050021
4951 4796.05107 4747.36431 0.0002019794
4868 4793.05435 4746.44105 0.0002054232
4842 4789.72361 4745.51897 0.0002065262
4839 4786.13514 4744.59806 0.0002066543
4800 4782.36688 4743.67832 0.0002083333
4937 4778.49482 4742.75974 0.0002025522
4820 4774.59014 4741.84233 0.0002074689
4884 4770.71714 4740.92607 0.0002047502
4902 4766.93173 4740.01097 0.0002039984
4722 4763.28094 4739.09701 0.0002117747
4731 4759.80072 4738.1842 0.0002113718
4812 4756.51849 4737.27253 0.0002078138
4765 4753.45179 4736.362 0.0002098636
4704 4750.60947 4735.4526 0.000212585
4709 4747.99267 4734.54433 0.0002123593
4862 4745.59603 4733.63718 0.0002056767
4840 4743.40896 4732.73116 0.0002066116
4724 4741.41704 4731.82625 0.000211685
4855 4739.60319 4730.92246 0.0002059732
4778 4737.94888 4730.01977 0.0002092926
4733 4736.43513 4729.11819 0.0002112825
4827 4735.04325 4728.21771 0.000207168
4761 4733.75556 4727.31832 0.0002100399
4797 4732.55575 4726.42003 0.0002084636
4665 4731.42917 4725.52283 0.0002143623
4664 4730.363 4724.62671 0.0002144082
4632 4729.34619 4723.73167 0.0002158895
4680 4728.36951 4722.83771 0.0002136752
4703 4727.42518 4721.94482 0.0002126302
4730 4726.50706 4721.05299 0.0002114165
4821 4725.61016 4720.16223 0.0002074258
4755 4724.73052 4719.27253 0.0002103049
4697 4723.86518 4718.38389 0.0002129019
4724 4723.01181 4717.4963 0.000211685
4713 4722.16869 4716.60975 0.0002121791
4775 4721.33459 4715.72425 0.0002094241
4538 4720.5086 4714.83978 0.0002203614
4549 4719.69007 4713.95635 0.0002198285
4736 4718.87861 4713.07395 0.0002111486
4688 4718.07395 4712.19258 0.0002133106
4765 4717.27593 4711.31222 0.0002098636
4808 4716.48451 4710.43289 0.0002079867
4715 4715.6997 4709.55457 0.0002120891
4663 4714.92156 4708.67726 0.0002144542
4666 4714.15022 4707.80095 0.0002143163
4773 4713.38582 4706.92565 0.0002095118
4678 4712.62853 4706.05134 0.0002137666
4668 4711.87858 4705.17802 0.0002142245
4722 4711.13619 4704.30569 0.0002117747
4645 4710.40163 4703.43435 0.0002152853
4777 4709.6752 4702.56399 0.0002093364
4851 4708.95722 4701.6946 0.0002061431
4764 4708.24804 4700.82618 0.0002099076
4685 4707.54805 4699.95873 0.0002134472
4529 4706.85767 4699.09224 0.0002207993
4741 4706.17735 4698.22671 0.000210926
4641 4705.50761 4697.36214 0.0002154708
4702 4704.84899 4696.49852 0.0002126755
4805 4704.20206 4695.63584 0.0002081165
4656 4703.56749 4694.7741 0.0002147766
4737 4702.94599 4693.9133 0.0002111041
4783 4702.33832 4693.05344 0.0002090738
4772 4701.74535 4692.1945 0.0002095557
4760 4701.16802 4691.33649 0.000210084
4777 4700.6074 4690.47939 0.0002093364
4753 4700.06468 4689.62321 0.0002103934
4692 4699.54123 4688.76795 0.0002131287
4664 4699.03864 4687.91359 0.0002144082
4745 4698.55878 4687.06014 0.0002107482
4790 4698.1039 4686.20758 0.0002087683
4634 4697.67729 4685.35592 0.0002157963
4730 4697.28135 4684.50515 0.0002114165
4733 4696.92098 4683.65526 0.0002112825
4698 4696.60187 4682.80626 0.0002128565
4705 4696.33314 4681.95813 0.0002125399
4646 4696.1211 4681.11087 0.0002152389
4723 4695.98039 4680.26449 0.0002117298
4728 4695.92809 4679.41897 0.0002115059
4814 4695.98682 4678.57431 0.0002077275
4676 4696.18642 4677.7305 0.000213858
4801 4696.56635 4676.88755 0.0002082899
4880 4697.17672 4676.04544 0.000204918
4815 4698.08352 4675.20418 0.0002076843
4754 4699.37054 4674.36375 0.0002103492
4839 4701.14366 4673.52416 0.0002066543
4843 4703.53502 4672.6854 0.0002064836
4651 4706.70752 4671.84746 0.0002150075
4951 4710.8592 4671.01035 0.0002019794
4877 4716.22735 4670.17405 0.0002050441
4729 4723.09192 4669.33857 0.0002114612
4874 4731.7776 4668.50389 0.0002051703
4873 4742.65427 4667.67002 0.0002052124
4950 4756.13499 4666.83694 0.0002020202
4783 4772.67093 4666.00467 0.0002090738
4799 4792.7427 4665.17318 0.0002083767
5001 4816.84761 4664.34248 0.00019996
4888 4845.48244 4663.51256 0.0002045827
4978 4879.12178 4662.68342 0.0002008839
5064 4918.19197 4661.85506 0.0001974724
4974 4963.04155 4661.02746 0.0002010454
4995 5013.90911 4660.20063 0.0002002002
4950 5070.88986 4659.37456 0.0002020202
5009 5133.90299 4658.54925 0.0001996406
4995 5202.66142 4657.72469 0.0002002002
4986 5276.64672 4656.90088 0.0002005616
5210 5355.09112 4656.07781 0.0001919386
5118 5436.96853 4655.25548 0.0001953888
5234 5520.99697 4654.43389 0.0001910585
5344 5605.65322 4653.61302 0.0001871257
5338 5689.2013 4652.79289 0.0001873361
5458 5769.73474 4651.97347 0.0001832173
5512 5845.23291 4651.15478 0.0001814224
5666 5913.63106 4650.33679 0.0001764914
5646 5972.90401 4649.51952 0.0001771165
5796 6021.15323 4648.70295 0.0001725328
5822 6056.72054 4647.88709 0.0001717623
5779 6078.28787 4647.07192 0.0001730403
5928 6084.97992 4646.25744 0.000168691
6059 6076.44644 4645.44365 0.0001650437
5852 6052.90748 4644.63054 0.0001708817
6078 6015.14117 4643.81812 0.0001645278
5928 5964.43619 4643.00636 0.000168691
5834 5902.48231 4642.19528 0.000171409
5828 5831.24844 4641.38487 0.0001715854
5717 5752.85356 4640.57512 0.0001749169
5612 5669.45258 4639.76603 0.0001781896
5463 5583.14095 4638.95759 0.0001830496
5447 5495.88117 4638.1498 0.0001835873
5453 5409.44801 4637.34266 0.0001833853
5200 5325.38981 4636.53615 0.0001923077
5217 5245.00316 4635.73029 0.000191681
5253 5169.32043 4634.92506 0.0001903674
5175 5099.10886 4634.12045 0.0001932367
5062 5034.88035 4633.31648 0.0001975504
4963 4976.90959 4632.51312 0.000201491
4940 4925.26086 4631.71037 0.0002024291
4850 4879.81922 4630.90824 0.0002061856
4851 4840.3253 4630.10672 0.0002061431
4967 4806.41055 4629.3058 0.0002013288
4825 4777.63209 4628.50548 0.0002072539
4834 4753.50433 4627.70576 0.000206868
4950 4733.52699 4626.90662 0.0002020202
4790 4717.2086 4626.10808 0.0002087683
4787 4704.0847 4625.31011 0.0002088991
4797 4693.7315 4624.51273 0.0002084636
4853 4685.7746 4623.71592 0.0002060581
4765 4679.89366 4622.91967 0.0002098636
4718 4675.82339 4622.124 0.0002119542
4757 4673.35161 4621.32889 0.0002102165
4616 4672.31501 4620.53433 0.0002166378
4755 4672.59306 4619.74033 0.0002103049
4742 4674.10069 4618.94688 0.0002108815
4686 4676.78019 4618.15397 0.0002134016
4724 4680.59271 4617.36161 0.000211685
4754 4685.49137 4616.56978 0.0002103492
4664 4691.48613 4615.77848 0.0002144082
4719 4698.5263 4614.98772 0.0002119093
4750 4706.56694 4614.19748 0.0002105263
4845 4715.54484 4613.40776 0.0002063983
4817 4725.37448 4612.61856 0.0002075981
4918 4735.9454 4611.82987 0.0002033347
4972 4747.12191 4611.04168 0.0002011263
4788 4758.74469 4610.25401 0.0002088555
4830 4770.63457 4609.46683 0.0002070393
4853 4782.59895 4608.68015 0.0002060581
4903 4794.44015 4607.89397 0.0002039568
5006 4805.96619 4607.10827 0.0001997603
5063 4817.00336 4606.32306 0.0001975114
5214 4827.41067 4605.53833 0.0001917913
5170 4837.09578 4604.75407 0.0001934236
5299 4846.03097 4603.97029 0.0001887149
5244 4854.2687 4603.18698 0.0001906941
5312 4861.95376 4602.40413 0.000188253
5307 4869.33003 4601.62174 0.0001884304
5284 4876.73876 4600.83981 0.0001892506
5296 4884.60762 4600.05833 0.0001888218
5292 4893.42963 4599.2773 0.0001889645
5312 4903.73524 4598.49672 0.000188253
5123 4916.05959 4597.71658 0.0001951981
5217 4930.90835 4596.93687 0.000191681
5224 4948.72452 4596.1576 0.0001914242
5219 4969.85725 4595.37876 0.0001916076
5040 4994.53358 4594.60035 0.0001984127
4905 5022.83421 4593.82235 0.0002038736
5025 5054.67373 4593.04478 0.000199005
5102 5089.78718 4592.26761 0.0001960016
4947 5127.72268 4591.49086 0.0002021427
4954 5167.84187 4590.71452 0.0002018571
5007 5209.32909 4589.93858 0.0001997204
4842 5251.2089 4589.16303 0.0002065262
5041 5292.37215 4588.38788 0.0001983733
5155 5331.61209 4587.61313 0.0001939864
5042 5367.66721 4586.83876 0.000198334
5095 5399.27376 4586.06477 0.0001962709
5159 5425.22473 4585.29117 0.000193836
5166 5444.43603 4584.51794 0.0001935734
5130 5456.01325 4583.74508 0.0001949318
5144 5459.31737 4582.97259 0.0001944012
5062 5454.01573 4582.20047 0.0001975504
5149 5440.11415 4581.42871 0.0001942125
5197 5417.95632 4580.65731 0.0001924187
5295 5388.19555 4579.88626 0.0001888574
5200 5351.73682 4579.11556 0.0001923077
5084 5309.66578 4578.34521 0.0001966955
4947 5263.1753 4577.5752 0.0002021427
5078 5213.4976 4576.80553 0.0001969279
4933 5161.84663 4576.0362 0.0002027164
4943 5109.37359 4575.2672 0.0002023063
4969 5057.13248 4574.49852 0.0002012477
4820 5006.05577 4573.73018 0.0002074689
4873 4956.93653 4572.96215 0.0002052124
5005 4910.42035 4572.19444 0.0001998002
4909 4866.99782 4571.42705 0.0002037075
4780 4827.01404 4570.65997 0.000209205
4733 4790.67299 4569.89319 0.0002112825
4678 4758.05203 4569.12672 0.0002137666
4787 4729.11836 4568.36055 0.0002088991
4805 4703.7483 4567.59467 0.0002081165
4790 4681.7468 4566.82909 0.0002087683
4634 4662.86742 4566.0638 0.0002157963
4628 4646.83051 4565.2988 0.0002160761
4625 4633.33997 4564.53407 0.0002162162
4512 4622.09698 4563.76963 0.0002216312
4527 4612.81138 4563.00547 0.0002208968
4512 4605.21003 4562.24157 0.0002216312
4605 4599.04257 4561.47795 0.0002171553
4673 4594.0847 4560.71459 0.0002139953
4636 4590.13947 4559.95149 0.0002157032
4660 4587.03682 4559.18866 0.0002145923
4590 4584.63195 4558.42608 0.0002178649
4680 4582.80275 4557.66375 0.0002136752
4631 4581.44677 4556.90167 0.0002159361
4618 4580.47797 4556.13984 0.000216544
4578 4579.82347 4555.37825 0.000218436
4590 4579.42054 4554.6169 0.0002178649
4612 4579.21399 4553.85579 0.0002168257
4492 4579.1539 4553.0949 0.000222618
4717 4579.19389 4552.33425 0.0002119992
4667 4579.28992 4551.57383 0.0002142704
4547 4579.39947 4550.81363 0.0002199252
4611 4579.48134 4550.05364 0.0002168727
4528 4579.49576 4549.29388 0.0002208481
4583 4579.40493 4548.53433 0.0002181977
4530 4579.17399 4547.77499 0.0002207506
4476 4578.77215 4547.01586 0.0002234138
4510 4578.17418 4546.25693 0.0002217295
4561 4577.36179 4545.4982 0.0002192502
4501 4576.32488 4544.73967 0.0002221729
4554 4575.06229 4543.98134 0.0002195872
4470 4573.5819 4543.2232 0.0002237136
4526 4571.8999 4542.46524 0.0002209456
4468 4570.03936 4541.70748 0.0002238138
4506 4568.02845 4540.94989 0.0002219263
4498 4565.89846 4540.19249 0.000222321
4501 4563.68199 4539.43527 0.0002221729
4474 4561.4114 4538.67821 0.0002235136
4488 4559.11762 4537.92133 0.0002228164
4523 4556.82915 4537.16462 0.0002210922
4602 4554.57138 4536.40807 0.0002172968
4507 4552.36616 4535.65169 0.0002218771
4581 4550.23144 4534.89546 0.0002182929
4506 4548.18116 4534.13939 0.0002219263
4420 4546.22533 4533.38348 0.0002262443
4503 4544.37017 4532.62771 0.0002220742
4474 4542.61925 4531.87209 0.0002235136
4525 4540.97073 4531.11662 0.0002209945
4578 4539.42257 4530.36129 0.000218436
4567 4537.9699 4529.60611 0.0002189621
4507 4536.6063 4528.85105 0.0002218771
4408 4535.32432 4528.09614 0.0002268603
4455 4534.11591 4527.34135 0.0002244669
4527 4532.97282 4526.58669 0.0002208968
4610 4531.88694 4525.83216 0.0002169197
4460 4530.8505 4525.07775 0.0002242152
4554 4529.85631 4524.32346 0.0002195872
4521 4528.89782 4523.56929 0.00022119
4539 4527.96923 4522.81524 0.0002203128
4498 4527.0655 4522.0613 0.000222321
4553 4526.18229 4521.30747 0.0002196354
4384 4525.31596 4520.55374 0.0002281022
4558 4524.46349 4519.80013 0.0002193945
4565 4523.62241 4519.04661 0.0002190581
4538 4522.79074 4518.29319 0.0002203614
4384 4521.96688 4517.53988 0.0002281022
4449 4521.14958 4516.78665 0.0002247696
4462 4520.33787 4516.03352 0.0002241147
4490 4519.53099 4515.28048 0.0002227171
4491 4518.72837 4514.52753 0.0002226676
4507 4517.92957 4513.77466 0.0002218771
4438 4517.13425 4513.02187 0.0002253267
4520 4516.34217 4512.26917 0.0002212389
4569 4515.55313 4511.51654 0.0002188663
4476 4514.76699 4510.76399 0.0002234138
4483 4513.98367 4510.01151 0.0002230649
4475 4513.20308 4509.25911 0.0002234637
4577 4512.42518 4508.50677 0.0002184837
4456 4511.64994 4507.75449 0.0002244165
4549 4510.87735 4507.00229 0.0002198285
4546 4510.10741 4506.25014 0.0002199736
4473 4509.34014 4505.49805 0.0002235636
4502 4508.57558 4504.74602 0.0002221235
4556 4507.81377 4503.99405 0.0002194908
4518 4507.05481 4503.24213 0.0002213369
4419 4506.29879 4502.49026 0.0002262955
4419 4505.54583 4501.73844 0.0002262955
4476 4504.79614 4500.98666 0.0002234138
4523 4504.04993 4500.23493 0.0002210922
4430 4503.30753 4499.48324 0.0002257336
4523 4502.56938 4498.73159 0.0002210922
4405 4501.836 4497.97998 0.0002270148
4500 4501.10818 4497.22841 0.0002222222
4460 4500.38691 4496.47687 0.0002242152
4477 4499.67354 4495.72536 0.0002233639
4438 4498.96982 4494.97388 0.0002253267
4482 4498.2781 4494.22244 0.0002231147
4465 4497.60142 4493.47101 0.0002239642
4341 4496.94372 4492.71961 0.0002303617
4596 4496.31006 4491.96824 0.0002175805
4539 4495.70687 4491.21688 0.0002203128
4435 4495.1422 4490.46554 0.0002254791
4551 4494.62606 4489.71422 0.0002197319
4502 4494.17067 4488.96292 0.0002221235
4571 4493.79082 4488.21163 0.0002187705
4446 4493.5041 4487.46035 0.0002249213
4462 4493.33114 4486.70908 0.0002241147
4439 4493.29572 4485.95781 0.000225276
4391 4493.42477 4485.20655 0.0002277386
4533 4493.74824 4484.4553 0.0002206045
4502 4494.29869 4483.70405 0.0002221235
4525 4495.11067 4482.9528 0.0002209945
4526 4496.21986 4482.20155 0.0002209456
4558 4497.6619 4481.4503 0.0002193945
4552 4499.47085 4480.69904 0.0002196837
4513 4501.67752 4479.94778 0.0002215821
4518 4504.30742 4479.19651 0.0002213369
4535 4507.37869 4478.44523 0.0002205072
4462 4510.89976 4477.69395 0.0002241147
4470 4514.8673 4476.94265 0.0002237136
4552 4519.26406 4476.19133 0.0002196837
4523 4524.05722 4475.44 0.0002210922
4503 4529.19707 4474.68866 0.0002220742
4594 4534.61624 4473.9373 0.0002176752
4479 4540.22967 4473.18592 0.0002232641
4489 4545.93521 4472.43451 0.0002227668
4497 4551.61515 4471.68309 0.0002223705
4491 4557.13857 4470.93164 0.0002226676
4388 4562.36461 4470.18017 0.0002278943
4462 4567.14663 4469.42867 0.0002241147
4538 4571.33736 4468.67715 0.0002203614
4426 4574.79496 4467.92559 0.0002259376
4507 4577.39004 4467.17401 0.0002218771
4567 4579.01285 4466.42239 0.0002189621
4492 4579.58202 4465.67074 0.000222618
4535 4579.04694 4464.91906 0.0002205072
4663 4577.39823 4464.16735 0.0002144542
4652 4574.66542 4463.41559 0.0002149613
4543 4570.91589 4462.6638 0.0002201189
4589 4566.24949 4461.91198 0.0002179124
4725 4560.79127 4461.16011 0.0002116402
4473 4554.6827 4460.4082 0.0002235636
4668 4548.07366 4459.65625 0.0002142245
4677 4541.11518 4458.90426 0.0002138123
4680 4533.95457 4458.15222 0.0002136752
4686 4526.72676 4457.40014 0.0002134016
4619 4519.55707 4456.64801 0.0002164971
4631 4512.55453 4455.89584 0.0002159361
4552 4505.81133 4455.14362 0.0002196837
4624 4499.40194 4454.39135 0.000216263
4669 4493.38295 4453.63903 0.0002141786
4528 4487.79364 4452.88666 0.0002208481
4737 4482.65715 4452.13423 0.0002111041
4640 4477.98209 4451.38176 0.0002155172
4563 4473.7646 4450.62923 0.0002191541
4469 4469.99063 4449.87665 0.0002237637
4527 4466.63831 4449.12402 0.0002208968
4592 4463.6804 4448.37133 0.00021777
4354 4461.08651 4447.61858 0.0002296739
4437 4458.82526 4446.86577 0.0002253775
4550 4456.86608 4446.11291 0.0002197802
4407 4455.18088 4445.35999 0.0002269117
4513 4453.74527 4444.60701 0.0002215821
4550 4452.53966 4443.85397 0.0002197802
4526 4451.54998 4443.10087 0.0002209456
4458 4450.76819 4442.34771 0.0002243158
4474 4450.1926 4441.59449 0.0002235136
4461 4449.8279 4440.8412 0.000224165
4430 4449.68499 4440.08785 0.0002257336
4299 4449.78067 4439.33444 0.0002326122
4471 4450.13698 4438.58097 0.0002236636
4339 4450.78039 4437.82743 0.0002304678
4480 4451.74072 4437.07382 0.0002232143
4560 4453.04974 4436.32015 0.0002192982
4506 4454.73958 4435.56642 0.0002219263
4419 4456.84085 4434.81261 0.0002262955
4484 4459.38049 4434.05875 0.0002230152
4444 4462.37954 4433.30481 0.0002250225
4316 4465.85075 4432.55081 0.000231696
4349 4469.79621 4431.79674 0.0002299379
4495 4474.20513 4431.0426 0.0002224694
4415 4479.0518 4430.28839 0.0002265006
4424 4484.29404 4429.53412 0.0002260398
4546 4489.87202 4428.77977 0.0002199736
4426 4495.70777 4428.02536 0.0002259376
4478 4501.70546 4427.27088 0.000223314
4504 4507.7523 4426.51632 0.0002220249
4540 4513.72049 4425.7617 0.0002202643
4437 4519.46988 4425.00701 0.0002253775
4514 4524.85165 4424.25225 0.000221533
4501 4529.71389 4423.49742 0.0002221729
4525 4533.9033 4422.74251 0.0002209945
4384 4537.27755 4421.98754 0.0002281022
4550 4539.70872 4421.2325 0.0002197802
4569 4541.09191 4420.47738 0.0002188663
4570 4541.35273 4419.7222 0.0002188184
4654 4540.45333 4418.96695 0.0002148689
4671 4538.39619 4418.21162 0.0002140869
4599 4535.22442 4417.45622 0.0002174386
4682 4531.0186 4416.70076 0.0002135839
4681 4525.89059 4415.94522 0.0002136296
4491 4519.97539 4415.18962 0.0002226676
4530 4513.42245 4414.43394 0.0002207506
4644 4506.38766 4413.67819 0.0002153316
4655 4499.02631 4412.92238 0.0002148228
4507 4491.48761 4412.16649 0.0002218771
4539 4483.91025 4411.41054 0.0002203128
4593 4476.41928 4410.65451 0.0002177226
4532 4469.12363 4409.89842 0.0002206531
4533 4462.11476 4409.14226 0.0002206045
4601 4455.46578 4408.38602 0.0002173441
4397 4449.23152 4407.62973 0.0002274278
4434 4443.44911 4406.87336 0.00022553
4598 4438.13922 4406.11692 0.0002174859
4466 4433.30773 4405.36042 0.000223914
4356 4428.94778 4404.60385 0.0002295684
4380 4425.04195 4403.84722 0.0002283105
4428 4421.56464 4403.09052 0.0002258356
4366 4418.48429 4402.33375 0.0002290426
4387 4415.76552 4401.57692 0.0002279462
4437 4413.37099 4400.82002 0.0002253775
4356 4411.26307 4400.06306 0.0002295684
4434 4409.40509 4399.30604 0.00022553
4417 4407.7611 4398.54895 0.000226398
4360 4406.30179 4397.7918 0.0002293578
4328 4404.99707 4397.03459 0.0002310536
4396 4403.82157 4396.27732 0.0002274795
4457 4402.75335 4395.51998 0.0002243662
4390 4401.77383 4394.76259 0.0002277904
4346 4400.8676 4394.00513 0.0002300966
4394 4400.02216 4393.24762 0.0002275831
4273 4399.22771 4392.49005 0.0002340276
4369 4398.47684 4391.73242 0.0002288853
4471 4397.76438 4390.97474 0.0002236636
4397 4397.0872 4390.21699 0.0002274278
4437 4396.44413 4389.4592 0.0002253775
4317 4395.83599 4388.70135 0.0002316423
4364 4395.2657 4387.94344 0.0002291476
4258 4394.73846 4387.18548 0.000234852
4247 4394.26214 4386.42747 0.0002354603
4451 4393.84773 4385.66941 0.0002246686
4311 4393.50999 4384.9113 0.0002319647
4401 4393.26817 4384.15313 0.0002272211
4356 4393.14692 4383.39492 0.0002295684
4420 4393.17731 4382.63666 0.0002262443
4445 4393.39789 4381.87836 0.0002249719
4294 4393.85592 4381.12001 0.0002328831
4374 4394.60848 4380.36161 0.0002286237
4417 4395.72353 4379.60317 0.000226398
4413 4397.28083 4378.84469 0.0002266032
4396 4399.37248 4378.08617 0.0002274795
4318 4402.10313 4377.3276 0.0002315887
4387 4405.58947 4376.569 0.0002279462
4481 4409.95913 4375.81035 0.0002231645
4358 4415.34859 4375.05167 0.0002294631
4407 4421.90011 4374.29296 0.0002269117
4394 4429.75771 4373.5342 0.0002275831
4444 4439.06184 4372.77542 0.0002250225
4392 4449.94313 4372.0166 0.0002276867
4440 4462.51507 4371.25775 0.0002252252
4496 4476.8661 4370.49887 0.0002224199
4366 4493.05109 4369.73996 0.0002290426
4495 4511.08279 4368.98102 0.0002224694
4521 4530.92371 4368.22205 0.00022119
4486 4552.47877 4367.46306 0.0002229157
4585 4575.58936 4366.70405 0.0002181025
4490 4600.02911 4365.94501 0.0002227171
4542 4625.50216 4365.18595 0.0002201673
4462 4651.64344 4364.42687 0.0002241147
4485 4678.02267 4363.66778 0.0002229654
4609 4704.15062 4362.90866 0.0002169668
4414 4729.48906 4362.14953 0.0002265519
4575 4753.46417 4361.39039 0.0002185792
4444 4775.48314 4360.63123 0.0002250225
4502 4794.95512 4359.87206 0.0002221235
4424 4811.31493 4359.11288 0.0002260398
4504 4824.05117 4358.35369 0.0002220249
4513 4832.73455 4357.59449 0.0002215821
4485 4837.04876 4356.83529 0.0002229654
4498 4836.81085 4356.07609 0.000222321
4559 4831.99333 4355.31688 0.0002193463
4402 4822.7249 4354.55767 0.0002271695
4463 4809.28264 4353.79846 0.0002240645
4560 4792.07023 4353.03926 0.0002192982
4492 4771.58955 4352.28006 0.000222618
4591 4748.40653 4351.52086 0.0002178175
4497 4723.121 4350.76168 0.0002223705
4581 4696.33848 4350.0025 0.0002182929
4399 4668.64734 4349.24333 0.0002273244
4480 4640.60129 4348.48417 0.0002232143
4503 4612.70568 4347.72503 0.0002220742
4482 4585.40751 4346.9659 0.0002231147
4473 4559.08864 4346.2068 0.0002235636
4401 4534.0617 4345.44771 0.0002272211
4515 4510.56901 4344.68864 0.0002214839
4537 4488.78401 4343.92959 0.00022041
4431 4468.81466 4343.17057 0.0002256827
4438 4450.70933 4342.41158 0.0002253267
4333 4434.46364 4341.65262 0.000230787
4408 4420.02872 4340.89368 0.0002268603
4411 4407.31981 4340.13478 0.000226706
4294 4396.22495 4339.37591 0.0002328831
4393 4386.61324 4338.61708 0.0002276349
4318 4378.34253 4337.85829 0.0002315887
4391 4371.26605 4337.09953 0.0002277386
4351 4365.23802 4336.34082 0.0002298322
4312 4360.1181 4335.58216 0.0002319109
4353 4355.77469 4334.82353 0.0002297266
4248 4352.08721 4334.06496 0.0002354049
4281 4348.94741 4333.30644 0.0002335903
4421 4346.25992 4332.54797 0.0002261932
4323 4343.94212 4331.78955 0.0002313208
4332 4341.92362 4331.03119 0.0002308403
4328 4340.14538 4330.27289 0.0002310536
4236 4338.55837 4329.51464 0.0002360718
4336 4337.12267 4328.75646 0.0002306273
4312 4335.80606 4327.99835 0.0002319109
4285 4334.58282 4327.2403 0.0002333722
4160 4333.43269 4326.48232 0.0002403846
4287 4332.33984 4325.72441 0.0002332634
4367 4331.29203 4324.96658 0.0002289902
4247 4330.27984 4324.20882 0.0002354603
4234 4329.29612 4323.45114 0.0002361833
4307 4328.3354 4322.69353 0.0002321802
4215 4327.39355 4321.93602 0.0002372479
4226 4326.46743 4321.17858 0.0002366304
4239 4325.55467 4320.42123 0.0002359047
4255 4324.65344 4319.66397 0.0002350176
4235 4323.76232 4318.9068 0.0002361275
4276 4322.88021 4318.14973 0.0002338634
4300 4322.00623 4317.39275 0.0002325581
4186 4321.14122 4316.63587 0.0002388915
4241 4320.28147 4315.87909 0.0002357934
4264 4319.42802 4315.12242 0.0002345216
4319 4318.58047 4314.36585 0.0002315351
4213 4317.73838 4313.60938 0.0002373606
4231 4316.90154 4312.85303 0.0002363507
4162 4316.06959 4312.09679 0.0002402691
4161 4315.24227 4311.34066 0.0002403268
4265 4314.41935 4310.58466 0.0002344666
4273 4313.60061 4309.82877 0.0002340276
4292 4312.78587 4309.073 0.0002329916
4237 4311.97493 4308.31736 0.000236016
4211 4311.16765 4307.56185 0.0002374733
4187 4310.36387 4306.80647 0.0002388345
4335 4309.56352 4306.05122 0.0002306805
4285 4308.76637 4305.2961 0.0002333722
4356 4307.97238 4304.54112 0.0002295684
4263 4307.18144 4303.78629 0.0002345766
4211 4306.39347 4303.03159 0.0002374733
4315 4305.6084 4302.27704 0.0002317497
4264 4304.82615 4301.52264 0.0002345216
4258 4304.04668 4300.76839 0.000234852
4275 4303.26994 4300.01429 0.0002339181
4283 4302.49588 4299.26035 0.0002334812
4224 4301.72449 4298.50656 0.0002367424
4273 4300.95574 4297.75294 0.0002340276
4347 4300.18962 4296.99948 0.0002300437
4258 4299.42612 4296.24619 0.000234852
4335 4298.66526 4295.49306 0.0002306805
4328 4297.90705 4294.74011 0.0002310536
4281 4297.15152 4293.98733 0.0002335903
4252 4296.3987 4293.23473 0.0002351834
4234 4295.64864 4292.48231 0.0002361833
4243 4294.9014 4291.73007 0.0002356823
4240 4294.15706 4290.97802 0.0002358491
4188 4293.41572 4290.22615 0.0002387775
4295 4292.6775 4289.47448 0.0002328289
4173 4291.93226 4288.723 0.0002396358
4205 4291.20077 4287.97171 0.0002378121
4361 4290.47298 4287.22063 0.0002293052
4159 4289.74917 4286.46974 0.0002404424
4173 4289.02975 4285.71907 0.0002396358
4318 4288.31521 4284.9686 0.0002315887
4335 4287.60622 4284.21834 0.0002306805
4258 4286.90365 4283.46829 0.000234852
4217 4286.20863 4282.71846 0.0002371354
4261 4285.52266 4281.96885 0.0002346867
4212 4284.84768 4281.21946 0.0002374169
4319 4284.18626 4280.4703 0.0002315351
4377 4283.54168 4279.72136 0.000228467
4259 4282.91819 4278.97266 0.0002347969
4237 4282.32123 4278.22418 0.000236016
4301 4281.75767 4277.47595 0.0002325041
4224 4281.23609 4276.72795 0.0002367424
4229 4280.76718 4275.9802 0.0002364625
4302 4280.36402 4275.23269 0.00023245
4231 4280.04247 4274.48543 0.0002363507
4288 4279.82149 4273.73842 0.000233209
4220 4279.72348 4272.99167 0.0002369668
4216 4279.77453 4272.24517 0.0002371917
4245 4280.0045 4271.49894 0.0002355713
4268 4280.44714 4270.75296 0.0002343018
4426 4281.1398 4270.00726 0.0002259376
4304 4282.12312 4269.26182 0.000232342
4199 4283.44028 4268.51665 0.0002381519
4218 4285.13613 4267.77176 0.0002370792
4254 4287.2558 4267.02715 0.0002350729
4174 4289.84318 4266.28282 0.0002395783
4229 4292.93895 4265.53878 0.0002364625
4156 4296.57841 4264.79502 0.000240616
4128 4300.78902 4264.05155 0.0002422481
4337 4305.58791 4263.30838 0.0002305741
4261 4310.97933 4262.5655 0.0002346867
4300 4316.95215 4261.82292 0.0002325581
4185 4323.47769 4261.08065 0.0002389486
4243 4330.50797 4260.33868 0.0002356823
4301 4337.97437 4259.59702 0.0002325041
4219 4345.78746 4258.85567 0.000237023
4355 4353.8349 4258.11464 0.0002296211
4266 4361.98593 4257.37393 0.0002344116
4264 4370.09063 4256.63354 0.0002345216
4195 4377.98336 4255.89347 0.000238379
4255 4385.48643 4255.15374 0.0002350176
4297 4392.41479 4254.41433 0.0002327205
4303 4398.58195 4253.67526 0.000232396
4193 4403.80698 4252.93652 0.0002384927
4326 4407.92251 4252.19813 0.0002311604
4144 4410.78362 4251.46007 0.0002413127
4174 4412.27665 4250.72237 0.0002395783
4283 4412.32752 4249.98502 0.0002334812
4168 4410.90767 4249.24802 0.0002399232
4351 4408.03696 4248.51137 0.0002298322
4300 4403.78247 4247.77509 0.0002325581
4236 4398.25363 4247.03917 0.0002360718
4262 4391.59422 4246.30361 0.0002346316
4156 4383.97266 4245.56843 0.000240616
4246 4375.57238 4244.83362 0.0002355158
4247 4366.58282 4244.09918 0.0002354603
4333 4357.19193 4243.36512 0.000230787
4336 4347.57999 4242.63145 0.0002306273
4233 4337.91497 4241.89816 0.0002362391
4198 4328.34876 4241.16525 0.0002382087
4231 4319.01473 4240.43274 0.0002363507
4193 4310.02576 4239.70063 0.0002384927
4242 4301.4735 4238.96892 0.0002357379
4202 4293.42812 4238.2376 0.0002379819
4315 4285.93896 4237.50669 0.0002317497
4266 4279.0357 4236.77619 0.0002344116
4378 4272.7302 4236.04611 0.0002284148
4311 4267.01862 4235.31643 0.0002319647
4285 4261.88396 4234.58718 0.0002333722
4270 4257.29857 4233.85834 0.000234192
4239 4253.22678 4233.12993 0.0002359047
4249 4249.62734 4232.40195 0.0002353495
4226 4246.45573 4231.6744 0.0002366304
4108 4243.66605 4230.94729 0.0002434275
4175 4241.21274 4230.22061 0.000239521
4216 4239.05192 4229.49437 0.0002371917
4188 4237.14232 4228.76858 0.0002387775
4341 4235.44602 4228.04324 0.0002303617
4246 4233.92991 4227.31834 0.0002355158
4164 4232.56161 4226.5939 0.0002401537
4220 4231.31585 4225.86992 0.0002369668
4209 4230.17005 4225.1464 0.0002375861
4255 4229.10513 4224.42335 0.0002350176
4158 4228.10519 4223.70076 0.0002405002
4257 4227.15715 4222.97864 0.0002349072
4074 4226.25037 4222.257 0.000245459
4236 4225.37629 4221.53583 0.0002360718
4355 4224.52813 4220.81515 0.0002296211
4079 4223.70054 4220.09495 0.0002451581
4155 4222.88933 4219.37523 0.0002406739
4240 4222.09127 4218.65601 0.0002358491
4156 4221.30387 4217.93728 0.000240616
4243 4220.52525 4217.21905 0.0002356823
4215 4219.75393 4216.50132 0.0002372479
4240 4218.98883 4215.7841 0.0002358491
4090 4218.2291 4215.06738 0.0002444988
4203 4217.47409 4214.35117 0.0002379253
4200 4216.72331 4213.63547 0.0002380952
4108 4215.97637 4212.9203 0.0002434275
4179 4215.23297 4212.20564 0.0002392917
4096 4214.49287 4211.49151 0.0002441406
4076 4213.75586 4210.77791 0.0002453386
4148 4213.02178 4210.06483 0.00024108
4175 4212.29049 4209.35229 0.000239521
4321 4211.56188 4208.64029 0.0002314279
4225 4210.83585 4207.92883 0.0002366864
4216 4210.1123 4207.21791 0.0002371917
4171 4209.39117 4206.50754 0.0002397507
4137 4208.67238 4205.79772 0.0002417211
4245 4207.95587 4205.08845 0.0002355713
4147 4207.24158 4204.37974 0.0002411382
4085 4206.52948 4203.67159 0.000244798
4230 4205.81952 4202.96401 0.0002364066
4209 4205.11167 4202.25699 0.0002375861
4204 4204.40589 4201.55054 0.0002378687
4164 4203.70217 4200.84467 0.0002401537
4196 4203.00047 4200.13937 0.0002383222
4166 4202.30078 4199.43465 0.0002400384
4048 4201.60309 4198.73052 0.0002470356
4369 4200.90739 4198.02697 0.0002288853
4193 4200.21368 4197.32402 0.0002384927
4231 4199.52195 4196.62166 0.0002363507
4161 4198.8322 4195.91989 0.0002403268
4189 4198.14444 4195.21872 0.0002387205
4262 4197.45868 4194.51816 0.0002346316
4147 4196.77493 4193.81821 0.0002411382
4122 4196.09321 4193.11886 0.0002426007
4279 4195.41354 4192.42013 0.0002336995
4088 4194.73593 4191.72201 0.0002446184
4210 4194.06042 4191.02452 0.0002375297
4226 4193.38704 4190.32764 0.0002366304
4119 4192.71582 4189.6314 0.0002427774
4159 4192.0468 4188.93578 0.0002404424
4032 4191.38001 4188.24079 0.0002480159
4281 4190.71552 4187.54645 0.0002335903
4244 4190.05336 4186.85274 0.0002356268
4225 4189.3936 4186.15967 0.0002366864
4250 4188.73629 4185.46725 0.0002352941
4164 4188.08151 4184.77548 0.0002401537
4228 4187.42932 4184.08436 0.0002365184
4216 4186.7798 4183.39389 0.0002371917
4226 4186.13303 4182.70409 0.0002366304
4129 4185.48912 4182.01495 0.0002421894
4011 4184.84815 4181.32647 0.0002493144
4135 4184.21025 4180.63866 0.000241838
4107 4183.57552 4179.95152 0.0002434867
4251 4182.94411 4179.26506 0.0002352388
4217 4182.31617 4178.57927 0.0002371354
4239 4181.69186 4177.89417 0.0002359047
4195 4181.07137 4177.20975 0.000238379
4180 4180.45492 4176.52601 0.0002392344
4126 4179.84278 4175.84297 0.0002423655
4144 4179.23525 4175.16062 0.0002413127
4118 4178.6327 4174.47897 0.0002428363
4262 4178.0356 4173.79802 0.0002346316
4140 4177.44451 4173.11778 0.0002415459
4051 4176.86016 4172.43823 0.0002468526
4160 4176.28345 4171.7594 0.0002403846
4052 4175.71555 4171.08128 0.0002467917
4128 4175.15794 4170.40388 0.0002422481
4232 4174.61253 4169.7272 0.0002362949
4189 4174.08176 4169.05124 0.0002387205
4206 4173.56872 4168.376 0.0002377556
4102 4173.07733 4167.70149 0.0002437835
4303 4172.61254 4167.02772 0.000232396
4102 4172.18052 4166.35468 0.0002437835
4073 4171.78891 4165.68237 0.0002455193
4199 4171.4471 4165.01081 0.0002381519
4035 4171.16648 4164.33999 0.0002478315
4156 4170.96075 4163.66992 0.000240616
4207 4170.84617 4163.00059 0.0002376991
4157 4170.84185 4162.33202 0.0002405581
4111 4170.96991 4161.66421 0.0002432498
4182 4171.25562 4160.99715 0.00023912
4307 4171.72745 4160.33086 0.0002321802
4157 4172.41697 4159.66533 0.0002405581
4249 4173.35855 4159.00057 0.0002353495
4311 4174.589 4158.33658 0.0002319647
4275 4176.14688 4157.67337 0.0002339181
4178 4178.07168 4157.01093 0.000239349
4217 4180.40293 4156.34927 0.0002371354
4182 4183.17825 4155.6884 0.00023912
4256 4186.43298 4155.02831 0.0002349624
4238 4190.198 4154.36901 0.0002359604
4260 4194.49825 4153.7105 0.0002347418
4269 4199.35118 4153.05279 0.0002342469
4291 4204.76539 4152.39587 0.0002330459
4363 4210.73922 4151.73976 0.0002292001
4230 4217.25996 4151.08444 0.0002364066
4411 4224.30312 4150.42994 0.000226706
4340 4231.83233 4149.77624 0.0002304147
4312 4239.79958 4149.12336 0.0002319109
4299 4248.14604 4148.47129 0.0002326122
4247 4256.80317 4147.82004 0.0002354603
4387 4265.69445 4147.16961 0.0002279462
4384 4274.73754 4146.52 0.0002281022
4323 4283.84664 4145.87123 0.0002313208
4480 4292.93563 4145.22327 0.0002232143
4350 4301.92142 4144.57616 0.0002298851
4449 4310.72768 4143.92987 0.0002247696
4544 4319.28919 4143.28443 0.0002200704
4556 4327.55579 4142.63982 0.0002194908
4475 4335.49612 4141.99606 0.0002234637
4571 4343.09997 4141.35314 0.0002187705
4588 4350.37851 4140.71108 0.0002179599
4661 4357.36172 4140.06986 0.0002145462
4707 4364.09316 4139.4295 0.0002124495
4783 4370.62222 4138.79 0.0002090738
4569 4376.99495 4138.15135 0.0002188663
4754 4383.24499 4137.51357 0.0002103492
4739 4389.38551 4136.87665 0.000211015
4579 4395.40273 4136.2406 0.0002183883
4688 4401.25203 4135.60542 0.0002133106
4550 4406.85571 4134.97112 0.0002197802
4698 4412.10379 4134.33769 0.0002128565
4534 4416.85656 4133.70514 0.0002205558
4556 4420.9475 4133.07347 0.0002194908
4564 4424.19293 4132.44268 0.000219106
4418 4426.39944 4131.81278 0.0002263468
4552 4427.37394 4131.18377 0.0002196837
4430 4426.93876 4130.55565 0.0002257336
4428 4424.94366 4129.92842 0.0002258356
4513 4421.27935 4129.30209 0.0002215821
4403 4415.88845 4128.67666 0.0002271179
4515 4408.77202 4128.05213 0.0002214839
4374 4399.99128 4127.42851 0.0002286237
4324 4389.66385 4126.80579 0.0002312673
4314 4377.955 4126.18398 0.0002318034
4309 4365.0667 4125.56308 0.0002320724
4477 4351.2255 4124.9431 0.0002233639
4349 4336.67062 4124.32403 0.0002299379
4309 4321.64429 4123.70588 0.0002320724
4314 4306.38302 4123.08866 0.0002318034
4272 4291.11106 4122.47236 0.0002340824
4345 4276.03506 4121.85698 0.0002301496
4269 4261.34011 4121.24253 0.0002342469
4253 4247.18641 4120.62902 0.0002351281
4308 4233.70769 4120.01643 0.0002321263
4233 4221.00991 4119.40478 0.0002362391
4243 4209.17138 4118.79408 0.0002356823
4155 4198.24361 4118.18431 0.0002406739
4192 4188.25297 4117.57548 0.0002385496
4199 4179.20315 4116.9676 0.0002381519
4140 4171.07798 4116.36067 0.0002415459
4176 4163.84471 4115.75468 0.0002394636
4149 4157.45743 4115.14965 0.0002410219
4190 4151.86056 4114.54558 0.0002386635
4323 4146.9918 4113.94245 0.0002313208
4186 4142.78564 4113.34029 0.0002388915
4211 4139.17578 4112.73909 0.0002374733
4307 4136.09745 4112.13885 0.0002321802
4198 4133.48944 4111.53958 0.0002382087
4135 4131.29561 4110.94127 0.000241838
4092 4129.46609 4110.34394 0.0002443793
4195 4127.95826 4109.74757 0.000238379
4064 4126.73738 4109.15218 0.000246063
4170 4125.77717 4108.55777 0.0002398082
4171 4125.06016 4107.96433 0.0002397507
4116 4124.57812 4107.37188 0.0002429543
4269 4124.33237 4106.7804 0.0002342469
4183 4124.33417 4106.18991 0.0002390629
4140 4124.60517 4105.60041 0.0002415459
4068 4125.17783 4105.01189 0.000245821
4064 4126.09592 4104.42437 0.000246063
4118 4127.41501 4103.83784 0.0002428363
4117 4129.2028 4103.2523 0.0002428953
4110 4131.53938 4102.66776 0.000243309
4257 4134.51703 4102.08421 0.0002349072
4061 4138.24055 4101.50167 0.0002462448
4095 4142.82541 4100.92013 0.0002442002
4224 4148.39706 4100.33959 0.0002367424
4192 4155.08869 4099.76006 0.0002385496
4189 4163.03847 4099.18154 0.0002387205
4130 4172.38594 4098.60403 0.0002421308
4221 4183.26757 4098.02753 0.0002369107
4147 4195.81156 4097.45204 0.0002411382
4277 4210.1318 4096.87757 0.0002338087
4211 4226.32139 4096.30411 0.0002374733
4151 4244.44554 4095.73167 0.0002409058
4174 4264.53445 4095.16026 0.0002395783
4155 4286.57629 4094.58986 0.0002406739
4142 4310.51044 4094.02049 0.0002414293
4118 4336.22178 4093.45215 0.0002428363
4237 4363.53607 4092.88483 0.000236016
4303 4392.21673 4092.31855 0.000232396
4338 4421.9635 4091.75329 0.000230521
4260 4452.41342 4091.18907 0.0002347418
4296 4483.14405 4090.62588 0.0002327747
4222 4513.67909 4090.06372 0.0002368546
4278 4543.49744 4089.50261 0.0002337541
4321 4572.04398 4088.94253 0.0002314279
4352 4598.74405 4088.38349 0.0002297794
4390 4623.01994 4087.8255 0.0002277904
4338 4644.30985 4087.26855 0.000230521
4429 4662.0887 4086.71265 0.0002257846
4390 4675.8897 4086.15779 0.0002277904
4451 4685.32671 4085.60398 0.0002246686
4501 4690.1154 4085.05122 0.0002221729
4384 4690.09113 4084.49951 0.0002281022
4427 4685.22256 4083.94885 0.0002258866
4612 4675.61695 4083.39925 0.0002168257
4485 4661.51627 4082.85071 0.0002229654
4553 4643.28404 4082.30322 0.0002196354
4499 4621.3839 4081.75679 0.0002222716
4479 4596.35324 4081.21142 0.0002232641
4468 4568.77611 4080.66711 0.0002238138
4487 4539.25702 4080.12386 0.0002228661
4558 4508.39896 4079.58168 0.0002193945
4339 4476.78453 4079.04056 0.0002304678
4373 4444.96188 4078.50051 0.000228676
4483 4413.43417 4077.96153 0.0002230649
4424 4382.65132 4077.42361 0.0002260398
4497 4353.00553 4076.88677 0.0002223705
4393 4324.82837 4076.351 0.0002276349
4369 4298.39036 4075.8163 0.0002288853
4266 4273.90298 4075.28267 0.0002344116
4309 4251.52197 4074.75012 0.0002320724
4229 4231.3526 4074.21864 0.0002364625
4193 4213.45602 4073.68825 0.0002384927
4242 4197.8564 4073.15893 0.0002357379
4302 4184.54875 4072.63069 0.00023245
4184 4173.50614 4072.10353 0.0002390057
4114 4164.68738 4071.57745 0.0002430724
4118 4158.04318 4071.05246 0.0002428363
4163 4153.52147 4070.52855 0.0002402114
4104 4151.07161 4070.00572 0.0002436647
4126 4150.64699 4069.48398 0.0002423655
4234 4152.20617 4068.96333 0.0002361833
4134 4155.71255 4068.44376 0.0002418965
4225 4161.13267 4067.92528 0.0002366864
4322 4168.43329 4067.4079 0.0002313744
4182 4177.57745 4066.8916 0.00023912
4119 4188.51995 4066.37639 0.0002427774
4188 4201.20215 4065.86228 0.0002387775
4181 4215.54721 4065.34926 0.0002391772
4131 4231.45503 4064.83734 0.0002420721
4214 4248.7984 4064.32651 0.0002373042
4273 4267.41951 4063.81677 0.0002340276
4225 4287.12823 4063.30813 0.0002366864
4193 4307.70119 4062.80059 0.0002384927
4210 4328.88265 4062.29415 0.0002375297
4305 4350.38694 4061.7888 0.000232288
4364 4371.90237 4061.28456 0.0002291476
4313 4393.09689 4060.78141 0.0002318572
4481 4413.62559 4060.27937 0.0002231645
4510 4433.13987 4059.77843 0.0002217295
4633 4451.29953 4059.27858 0.0002158429
4797 4467.7829 4058.77985 0.0002084636
4655 4482.30629 4058.28221 0.0002148228
4882 4494.63656 4057.78568 0.0002048341
4977 4504.60769 4057.29026 0.0002009243
4765 4512.13298 4056.79594 0.0002098636
4939 4517.21315 4056.30272 0.0002024701
4976 4519.93763 4055.81061 0.0002009646
4995 4520.47763 4055.31961 0.0002002002
4984 4519.07198 4054.82972 0.0002006421
4932 4516.00787 4054.34093 0.0002027575
4858 4511.59933 4053.85325 0.000205846
4808 4506.16536 4053.36668 0.0002079867
4774 4500.01058 4052.88122 0.000209468
4553 4493.40939 4052.39687 0.0002196354
4469 4486.59351 4051.91363 0.0002237637
4513 4479.74311 4051.4315 0.0002215821
4381 4472.98141 4050.95048 0.0002282584
4512 4466.37213 4050.47057 0.0002216312
4280 4459.9197 4049.99177 0.0002336449
4349 4453.57244 4049.51408 0.0002299379
4392 4447.22886 4049.03751 0.0002276867
4239 4440.7463 4048.56205 0.0002359047
4370 4433.95313 4048.08769 0.000228833
4408 4426.66309 4047.61446 0.0002268603
4307 4418.69141 4047.14233 0.0002321802
4203 4409.87149 4046.67132 0.0002379253
4345 4400.07073 4046.20142 0.0002301496
4261 4389.20282 4045.73263 0.0002346867
4232 4377.23556 4045.26496 0.0002362949
4421 4364.19375 4044.7984 0.0002261932
4464 4350.1555 4044.33295 0.0002240143
4264 4335.24602 4043.86862 0.0002345216
4345 4319.62751 4043.4054 0.0002301496
4391 4303.4897 4042.9433 0.0002277386
4302 4287.04017 4042.48231 0.00023245
4212 4270.49639 4042.02243 0.0002374169
4194 4254.07906 4041.56367 0.0002384359
4232 4238.00678 4041.10602 0.0002362949
4137 4222.49211 4040.64948 0.0002417211
4221 4207.73842 4040.19406 0.0002369107
4179 4193.93798 4039.73975 0.0002392917
4173 4181.27049 4039.28656 0.0002396358
4197 4169.90302 4038.83448 0.0002382654
4291 4159.99028 4038.38351 0.0002330459
4186 4151.67563 4037.93366 0.0002388915
4120 4145.09263 4037.48491 0.0002427184
4125 4140.36668 4037.03728 0.0002424242
4176 4137.61663 4036.59077 0.0002394636
4154 4136.95611 4036.14536 0.0002407318
4187 4138.49412 4035.70107 0.0002388345
4257 4142.33484 4035.25789 0.0002349072
4096 4148.5763 4034.81583 0.0002441406
4112 4157.30794 4034.37487 0.0002431907
4127 4168.60683 4033.93502 0.0002423068
4308 4182.53282 4033.49629 0.0002321263
4176 4199.12253 4033.05866 0.0002394636
4120 4218.3826 4032.62215 0.0002427184
4267 4240.28258 4032.18674 0.0002343567
4135 4264.74726 4031.75245 0.000241838
4178 4291.65008 4031.31926 0.000239349
4261 4320.80665 4030.88718 0.0002346867
4212 4351.9698 4030.45621 0.0002374169
4275 4384.82621 4030.02635 0.0002339181
4418 4418.99513 4029.59759 0.0002263468
4439 4454.0289 4029.16994 0.000225276
4466 4489.41641 4028.7434 0.000223914
4470 4524.58877 4028.31796 0.0002237136
4446 4558.92783 4027.89363 0.0002249213
4537 4591.77779 4027.4704 0.00022041
4660 4622.4601 4027.04828 0.0002145923
4660 4650.29141 4026.62725 0.0002145923
4584 4674.60577 4026.20733 0.0002181501
4750 4694.78075 4025.78852 0.0002105263
4768 4710.2653 4025.3708 0.0002097315
4707 4720.61036 4024.95419 0.0002124495
4671 4725.49655 4024.53867 0.0002140869
4744 4724.75599 4024.12426 0.0002107926
4848 4718.38668 4023.71094 0.0002062706
4680 4706.55277 4023.29872 0.0002136752
4646 4689.57381 4022.8876 0.0002152389
4805 4667.90157 4022.47757 0.0002081165
4746 4642.09271 4022.06864 0.0002107038
4742 4612.77528 4021.6608 0.0002108815
4721 4580.61883 4021.25406 0.0002118195
4768 4546.3068 4020.84841 0.0002097315
4643 4510.51369 4020.44385 0.000215378
4645 4473.88646 4020.04039 0.0002152853
4560 4437.02997 4019.63801 0.0002192982
4561 4400.49504 4019.23672 0.0002192502
4518 4364.77068 4018.83653 0.0002213369
4563 4330.27779 4018.43742 0.0002191541
4311 4297.36544 4018.03939 0.0002319647
4380 4266.31022 4017.64245 0.0002283105
4311 4237.31741 4017.2466 0.0002319647
4319 4210.52365 4016.85183 0.0002315351
4205 4186.00245 4016.45814 0.0002378121
4141 4163.77007 4016.06554 0.0002414876
4290 4143.79337 4015.67402 0.0002331002
4167 4125.99745 4015.28357 0.0002399808
4114 4110.27429 4014.8942 0.0002430724
4123 4096.49058 4014.50592 0.0002425418
4005 4084.49565 4014.1187 0.0002496879
4095 4074.12848 4013.73256 0.0002442002
4174 4065.2239 4013.3475 0.0002395783
4061 4057.61785 4012.96351 0.0002462448
4127 4051.1516 4012.58059 0.0002423068
4081 4045.67501 4012.19874 0.000245038
4013 4041.0489 4011.81796 0.0002491901
4092 4037.14649 4011.43825 0.0002443793
4100 4033.85416 4011.05961 0.0002439024
4074 4031.0716 4010.68203 0.000245459
4070 4028.71151 4010.30551 0.0002457002
4118 4026.69886 4009.93006 0.0002428363
4200 4024.96997 4009.55567 0.0002380952
4011 4023.47145 4009.18234 0.0002493144
4093 4022.159 4008.81007 0.0002443196
4032 4020.99624 4008.43885 0.0002480159
4026 4019.95363 4008.0687 0.0002483855
3956 4019.00736 4007.69959 0.0002527806
4016 4018.1384 4007.33154 0.000249004
4081 4017.3317 4006.96455 0.000245038
4046 4016.57539 4006.5986 0.0002471577
4056 4015.86019 4006.2337 0.0002465483
4107 4015.17886 4005.86985 0.0002434867
4041 4014.52578 4005.50705 0.0002474635
4015 4013.89658 4005.14529 0.000249066
3949 4013.28787 4004.78458 0.0002532287
4061 4012.69701 4004.4249 0.0002462448
3909 4012.1219 4004.06627 0.0002558199
3934 4011.56092 4003.70868 0.0002541942
4029 4011.01274 4003.35212 0.0002482005
3997 4010.47629 4002.9966 0.0002501876
4028 4009.95069 4002.64211 0.0002482622
4132 4009.4352 4002.28866 0.0002420136
4019 4008.9292 4001.93623 0.0002488181
3968 4008.43215 4001.58484 0.0002520161
4039 4007.94356 4001.23447 0.000247586
4004 4007.46302 4000.88513 0.0002497502
3876 4006.99016 4000.53681 0.0002579979
4035 4006.52463 4000.18951 0.0002478315
4079 4006.06614 3999.84324 0.0002451581
4031 4005.6144 3999.49798 0.0002480774
4055 4005.16915 3999.15375 0.0002466091
4008 4004.73018 3998.81052 0.000249501
4011 4004.29727 3998.46832 0.0002493144
3951 4003.87022 3998.12712 0.0002531005
4069 4003.44887 3997.78693 0.0002457606
4082 4003.03307 3997.44776 0.000244978
3908 4002.62266 3997.10958 0.0002558854
4012 4002.21754 3996.77242 0.0002492522
4085 4001.81761 3996.43626 0.000244798
3965 4001.42277 3996.10109 0.0002522068
3984 4001.03297 3995.76693 0.000251004
3977 4000.64818 3995.43377 0.0002514458
3930 4000.26838 3995.1016 0.0002544529
3970 3999.89361 3994.77042 0.0002518892
3989 3999.52392 3994.44024 0.0002506894
4017 3999.15945 3994.11104 0.000248942
3982 3998.80039 3993.78284 0.0002511301
4007 3998.447 3993.45562 0.0002495633
4046 3998.09968 3993.12938 0.0002471577
3936 3997.75894 3992.80413 0.000254065
4004 3997.42547 3992.47985 0.0002497502
4003 3997.10018 3992.15656 0.0002498126
3929 3996.78367 3991.83424 0.0002545177
3927 3996.47859 3991.51289 0.0002546473
3993 3996.18628 3991.19252 0.0002504383
4020 3995.90912 3990.87311 0.0002487562
3892 3995.65009 3990.55468 0.0002569373
3959 3995.41285 3990.23721 0.000252589
4017 3995.20185 3989.9207 0.000248942
4009 3995.02244 3989.60515 0.0002494388
3983 3994.88101 3989.29057 0.000251067
3965 3994.78508 3988.97694 0.0002522068
4079 3994.74339 3988.66427 0.0002451581
4015 3994.76599 3988.35255 0.000249066
4089 3994.8643 3988.04178 0.0002445586
4137 3995.05105 3987.73196 0.0002417211
4057 3995.3403 3987.42309 0.0002464876
3949 3995.74727 3987.11516 0.0002532287
4044 3996.28815 3986.80817 0.0002472799
3982 3996.97983 3986.50212 0.0002511301
3913 3997.8395 3986.19701 0.0002555584
4138 3998.88419 3985.89284 0.0002416626
3995 4000.13019 3985.5896 0.0002503129
4014 4001.59237 3985.28729 0.0002491281
3963 4003.28347 3984.98591 0.0002523341
4002 4005.21331 3984.68546 0.0002498751
3972 4007.38791 3984.38593 0.0002517623
4035 4009.80875 3984.08732 0.0002478315
4037 4012.47192 3983.78963 0.0002477087
3988 4015.36744 3983.49286 0.0002507523
4087 4018.47865 3983.19701 0.0002446782
4006 4021.78179 3982.90207 0.0002496256
4051 4025.24572 3982.60804 0.0002468526
4027 4028.83184 3982.31491 0.0002483238
4016 4032.49431 3982.02269 0.000249004
4108 4036.18042 3981.73138 0.0002434275
4115 4039.83129 3981.44097 0.0002430134
4104 4043.3828 3981.15145 0.0002436647
3982 4046.76681 3980.86283 0.0002511301
3879 4049.91266 3980.57511 0.0002577984
3972 4052.74918 3980.28827 0.0002517623
4063 4055.20683 3980.00233 0.0002461236
4008 4057.22042 3979.71727 0.000249501
3973 4058.73203 3979.43309 0.000251699
3969 4059.6941 3979.1498 0.0002519526
4155 4060.07223 3978.86739 0.0002406739
4005 4059.84766 3978.58585 0.0002496879
4004 4059.01856 3978.30519 0.0002497502
4123 4057.60032 3978.0254 0.0002425418
3902 4055.62464 3977.74647 0.0002562788
3977 4053.13719 3977.46842 0.0002514458
3950 4050.19488 3977.19123 0.0002531646
3989 4046.86264 3976.9149 0.0002506894
4099 4043.21021 3976.63943 0.0002439619
4016 4039.30939 3976.36482 0.000249004
3980 4035.2316 3976.09106 0.0002512563
3972 4031.04588 3975.81815 0.0002517623
4065 4026.81738 3975.54609 0.0002460025
4016 4022.60602 3975.27488 0.000249004
3918 4018.46568 3975.00451 0.0002552323
4074 4014.44339 3974.73498 0.000245459
4100 4010.57897 3974.46629 0.0002439024
4060 4006.90478 3974.19844 0.0002463054
3932 4003.44581 3973.93142 0.0002543235
3991 4000.21981 3973.66523 0.0002505638
4068 3997.23782 3973.39987 0.000245821
3967 3994.50468 3973.13534 0.0002520797
4036 3992.01974 3972.87163 0.0002477701
4075 3989.77769 3972.60874 0.0002453988
4056 3987.76933 3972.34666 0.0002465483
4016 3985.98247 3972.08541 0.000249004
4117 3984.40271 3971.82496 0.0002428953
3896 3983.01425 3971.56532 0.0002566735
3872 3981.80055 3971.3065 0.0002582645
3964 3980.74502 3971.04847 0.0002522704
4008 3979.83149 3970.79125 0.000249501
4006 3979.04471 3970.53483 0.0002496256
4180 3978.37068 3970.2792 0.0002392344
4141 3977.79699 3970.02437 0.0002414876
4014 3977.31299 3969.77033 0.0002491281
4058 3976.91003 3969.51707 0.0002464268
4018 3976.58153 3969.26461 0.00024888
4042 3976.3232 3969.01292 0.0002474023
3964 3976.13307 3968.76202 0.0002522704
3948 3976.01166 3968.51189 0.0002532928
3979 3975.96205 3968.26254 0.0002513194
3899 3975.99007 3968.01396 0.000256476
4062 3976.10442 3967.76615 0.0002461841
3988 3976.31683 3967.5191 0.0002507523
3946 3976.64225 3967.27282 0.0002534212
3991 3977.09896 3967.0273 0.0002505638
4056 3977.70876 3966.78254 0.0002465483
4002 3978.49702 3966.53853 0.0002498751
3982 3979.49275 3966.29528 0.0002511301
3955 3980.72853 3966.05278 0.0002528445
4061 3982.24038 3965.81102 0.0002462448
3965 3984.06748 3965.57001 0.0002522068
4078 3986.25173 3965.32974 0.0002452182
4008 3988.83719 3965.09021 0.000249501
4028 3991.86928 3964.85142 0.0002482622
3977 3995.39386 3964.61336 0.0002514458
4056 3999.45612 3964.37603 0.0002465483
4083 4004.09925 3964.13943 0.000244918
4098 4009.36305 3963.90355 0.0002440215
3998 4015.28239 3963.66839 0.0002501251
4116 4021.88553 3963.43396 0.0002429543
4013 4029.19255 3963.20024 0.0002491901
4055 4037.21366 3962.96723 0.0002466091
4137 4045.94767 3962.73494 0.0002417211
4076 4055.38056 3962.50335 0.0002453386
4163 4065.48412 3962.27247 0.0002402114
4097 4076.21507 3962.04229 0.000244081
4130 4087.51397 3961.81281 0.0002421308
4177 4099.30494 3961.58403 0.0002394063
4152 4111.49532 3961.35594 0.0002408478
4091 4123.97596 3961.12854 0.000244439
4116 4136.62193 3960.90183 0.0002429543
4064 4149.29389 3960.67581 0.000246063
4214 4161.84026 3960.45047 0.0002373042
4112 4174.10022 3960.22581 0.0002431907
4277 4185.90774 3960.00182 0.0002338087
4297 4197.09652 3959.77852 0.0002327205
4135 4207.50419 3959.55588 0.000241838
4202 4216.98253 3959.33391 0.0002379819
4170 4225.39547 3959.1126 0.0002398082
4229 4232.62751 3958.89196 0.0002364625
4164 4238.58426 3958.67198 0.0002401537
4168 4243.19242 3958.45266 0.0002399232
4228 4246.39837 3958.23399 0.0002365184
4156 4248.16575 3958.01597 0.000240616
4119 4248.47317 3957.7986 0.0002427774
4274 4247.3098 3957.58188 0.0002339729
4381 4244.68728 3957.3658 0.0002282584
4390 4240.62315 3957.15036 0.0002277904
4294 4235.15501 3956.93555 0.0002328831
4395 4228.3405 3956.72138 0.0002275313
4270 4220.25958 3956.50785 0.000234192
4403 4211.01546 3956.29494 0.0002271179
4435 4200.73408 3956.08265 0.0002254791
4304 4189.56068 3955.87099 0.000232342
4311 4177.65551 3955.65995 0.0002319647
4334 4165.18779 3955.44953 0.0002307337
4262 4152.32966 3955.23973 0.0002346316
4298 4139.25046 3955.03053 0.0002326664
4201 4126.11195 3954.82194 0.0002380386
4155 4113.06471 3954.61396 0.0002406739
4084 4100.24549 3954.40658 0.000244858
4066 4087.77546 3954.19981 0.000245942
4043 4075.75926 3953.99363 0.0002473411
4033 4064.2846 3953.78804 0.0002479544
4031 4053.42229 3953.58305 0.0002480774
4100 4043.22659 3953.37864 0.0002439024
4049 4033.73602 3953.17482 0.0002469746
4076 4024.97435 3952.97159 0.0002453386
4088 4016.95188 3952.76894 0.0002446184
4025 4009.6669 3952.56686 0.0002484472
4015 4003.10739 3952.36536 0.000249066
4043 3997.2528 3952.16443 0.0002473411
4025 3992.07594 3951.96407 0.0002484472
3893 3987.54478 3951.76427 0.0002568713
4028 3983.6244 3951.56504 0.0002482622
4120 3980.27871 3951.36637 0.0002427184
4084 3977.47212 3951.16826 0.000244858
4043 3975.17106 3950.97071 0.0002473411
3991 3973.34534 3950.7737 0.0002505638
4021 3971.9693 3950.57725 0.0002486944
4028 3971.02284 3950.38134 0.0002482622
4002 3970.49212 3950.18598 0.0002498751
4120 3970.37026 3949.99116 0.0002427184
3976 3970.65766 3949.79688 0.0002515091
4019 3971.36223 3949.60313 0.0002488181
3993 3972.49943 3949.40992 0.0002504383
3976 3974.092 3949.21723 0.0002515091
3958 3976.16961 3949.02507 0.0002526529
3943 3978.76813 3948.83344 0.000253614
4025 3981.92885 3948.64233 0.0002484472
3940 3985.69719 3948.45174 0.0002538071
4009 3990.12137 3948.26167 0.0002494388
4029 3995.25065 3948.07211 0.0002482005
4020 4001.13337 3947.88306 0.0002487562
4113 4007.8147 3947.69452 0.0002431315
4178 4015.33416 3947.50648 0.000239349
4045 4023.72299 3947.31895 0.0002472188
4022 4033.00137 3947.13191 0.0002486325
4040 4043.17566 3946.94538 0.0002475248
4164 4054.23579 3946.75934 0.0002401537
4138 4066.15264 3946.57379 0.0002416626
4045 4078.87604 3946.38873 0.0002472188
4102 4092.33309 3946.20415 0.0002437835
4064 4106.42692 3946.02006 0.000246063
4143 4121.03622 3945.83645 0.000241371
4045 4136.01542 3945.65332 0.0002472188
4175 4151.19542 3945.47067 0.000239521
4219 4166.38516 3945.28849 0.000237023
4195 4181.37388 3945.10678 0.000238379
4226 4195.93402 3944.92553 0.0002366304
4227 4209.82491 3944.74475 0.0002365744
4321 4222.79756 3944.56444 0.0002314279
4376 4234.60016 3944.38458 0.0002285192
4353 4244.98515 3944.20518 0.0002297266
4534 4253.71731 3944.02624 0.0002205558
4604 4260.58343 3943.84775 0.0002172024
4565 4265.40207 3943.6697 0.0002190581
4706 4268.03457 3943.49211 0.0002124947
4635 4268.39366 3943.31495 0.0002157497
4674 4266.45033 3943.13824 0.0002139495
4643 4262.23688 3942.96197 0.000215378
4511 4255.84535 3942.78614 0.0002216803
4502 4247.42235 3942.61073 0.0002221235
4394 4237.16001 3942.43576 0.0002275831
4488 4225.28525 3942.26122 0.0002228164
4468 4212.04862 3942.08711 0.0002238138
4369 4197.71345 3941.91341 0.0002288853
4319 4182.5465 3941.74014 0.0002315351
4246 4166.81007 3941.56729 0.0002355158
4114 4150.75552 3941.39485 0.0002430724
4088 4134.61831 3941.22283 0.0002446184
4059 4118.61402 3941.05122 0.0002463661
4059 4102.9353 3940.88001 0.0002463661
3925 4087.7497 3940.70921 0.0002547771
4055 4073.19837 3940.53882 0.0002466091
4071 4059.39559 3940.36882 0.0002456399
3901 4046.4289 3940.19923 0.0002563445
4029 4034.36008 3940.03003 0.0002482005
3910 4023.2266 3939.86122 0.0002557545
3904 4013.0438 3939.69281 0.0002561475
3951 4003.8072 3939.52478 0.0002531005
3973 3995.49535 3939.35714 0.000251699
3959 3988.07265 3939.18989 0.000252589
3949 3981.49234 3939.02301 0.0002532287
4004 3975.69928 3938.85652 0.0002497502
3936 3970.63262 3938.6904 0.000254065
3934 3966.22829 3938.52465 0.0002541942
3916 3962.42104 3938.35928 0.0002553626
3924 3959.14632 3938.19428 0.000254842
4078 3956.3417 3938.02964 0.0002452182
3876 3953.94804 3937.86537 0.0002579979
3929 3951.91028 3937.70146 0.0002545177
3949 3950.17799 3937.53791 0.0002532287
3849 3948.70567 3937.37472 0.0002598077
3902 3947.45282 3937.21188 0.0002562788
4025 3946.38383 3937.0494 0.0002484472
3892 3945.46679 3936.88727 0.0002569373
3914 3944.67718 3936.72549 0.0002554931
3906 3943.99144 3936.56405 0.0002560164
3897 3943.39064 3936.40296 0.0002566076
3861 3942.859 3936.24221 0.0002590003
3954 3942.38351 3936.08179 0.0002529084
3856 3941.95353 3935.92172 0.0002593361
3832 3941.56044 3935.76198 0.0002609603
3953 3941.19727 3935.60258 0.0002529724
4016 3940.85847 3935.4435 0.000249004
3910 3940.53963 3935.28475 0.0002557545
3902 3940.23723 3935.12633 0.0002562788
3903 3939.94853 3934.96824 0.0002562132
3894 3939.67135 3934.81046 0.0002568053
3930 3939.40398 3934.65301 0.0002544529
3965 3939.1451 3934.49587 0.0002522068
3946 3938.89362 3934.33905 0.0002534212
3928 3938.64872 3934.18254 0.0002545825
3928 3938.40972 3934.02635 0.0002545825
3988 3938.17607 3933.87046 0.0002507523
3864 3937.94733 3933.71488 0.0002587992
3829 3937.72313 3933.5596 0.0002611648
3901 3937.50317 3933.40463 0.0002563445
4018 3937.28716 3933.24996 0.00024888
3885 3937.07489 3933.09559 0.0002574003
3868 3936.86615 3932.94151 0.0002585315
3931 3936.66077 3932.78773 0.0002543882
3875 3936.45857 3932.63425 0.0002580645
3980 3936.25943 3932.48105 0.0002512563
3923 3936.06319 3932.32814 0.000254907
3816 3935.86976 3932.17552 0.0002620545
3869 3935.679 3932.02318 0.0002584647
3856 3935.49083 3931.87113 0.0002593361
3934 3935.30513 3931.71936 0.0002541942
3820 3935.12184 3931.56787 0.0002617801
3850 3934.94086 3931.41665 0.0002597403
3879 3934.76212 3931.26571 0.0002577984
3859 3934.58556 3931.11504 0.0002591345
3890 3934.4111 3930.96465 0.0002570694
3962 3934.23868 3930.81452 0.0002523978
3905 3934.06826 3930.66466 0.0002560819
3899 3933.89978 3930.51507 0.000256476
3914 3933.73319 3930.36574 0.0002554931
3980 3933.56845 3930.21667 0.0002512563
3925 3933.40552 3930.06787 0.0002547771
3924 3933.24436 3929.91932 0.000254842
3870 3933.08495 3929.77103 0.0002583979
3800 3932.92724 3929.62299 0.0002631579
3863 3932.77123 3929.47521 0.0002588662
3891 3932.61687 3929.32768 0.0002570033
3978 3932.46415 3929.1804 0.0002513826
3966 3932.31306 3929.03337 0.0002521432
3914 3932.16357 3928.88658 0.0002554931
3894 3932.01567 3928.74004 0.0002568053
3804 3931.86935 3928.59374 0.0002628812
3781 3931.72461 3928.44768 0.0002644803
3914 3931.58143 3928.30186 0.0002554931
3777 3931.43982 3928.15628 0.0002647604
3913 3931.29977 3928.01094 0.0002555584
3970 3931.16128 3927.86583 0.0002518892
3936 3931.02436 3927.72096 0.000254065
3891 3930.88901 3927.57631 0.0002570033
3861 3930.75524 3927.4319 0.0002590003
3887 3930.62307 3927.28771 0.0002572678
3863 3930.4925 3927.14375 0.0002588662
3935 3930.36355 3927.00002 0.0002541296
3897 3930.23624 3926.85651 0.0002566076
3930 3930.11059 3926.71322 0.0002544529
3948 3929.98663 3926.57015 0.0002532928
4002 3929.86438 3926.4273 0.0002498751
3872 3929.74386 3926.28467 0.0002582645
3927 3929.62513 3926.14226 0.0002546473
3920 3929.50819 3926.00006 0.000255102
3907 3929.39311 3925.85807 0.0002559509
3796 3929.27992 3925.71629 0.0002634352
3882 3929.16867 3925.57473 0.0002575992
3913 3929.05941 3925.43337 0.0002555584
3785 3928.9522 3925.29223 0.0002642008
3858 3928.84709 3925.15129 0.0002592017
3899 3928.74417 3925.01055 0.000256476
3819 3928.6435 3924.87002 0.0002618487
3894 3928.54516 3924.72968 0.0002568053
3892 3928.44925 3924.58955 0.0002569373
3952 3928.35588 3924.44962 0.0002530364
3799 3928.26517 3924.30989 0.0002632272
3902 3928.17725 3924.17036 0.0002562788
3881 3928.09228 3924.03102 0.0002576656
3922 3928.01045 3923.89187 0.000254972
3901 3927.93198 3923.75292 0.0002563445
3988 3927.85713 3923.61416 0.0002507523
3904 3927.78622 3923.47559 0.0002561475
3951 3927.71962 3923.33721 0.0002531005
3939 3927.6578 3923.19902 0.0002538715
4004 3927.60131 3923.06102 0.0002497502
3854 3927.55081 3922.9232 0.0002594707
4056 3927.50714 3922.78557 0.0002465483
3962 3927.47128 3922.64812 0.0002523978
3913 3927.44442 3922.51085 0.0002555584
3985 3927.428 3922.37376 0.000250941
3986 3927.41989 3922.23686 0.0002508781
3871 3927.42983 3922.10013 0.0002583312
3922 3927.45638 3921.96359 0.000254972
3841 3927.50234 3921.82721 0.0002603489
3940 3927.57101 3921.69102 0.0002538071
3826 3927.66617 3921.555 0.0002613696
3903 3927.79214 3921.41916 0.0002562132
3895 3927.9538 3921.28348 0.0002567394
3786 3928.15664 3921.14798 0.000264131
3955 3928.40675 3921.01266 0.0002528445
3873 3928.71081 3920.8775 0.0002581978
3772 3929.07607 3920.74251 0.0002651113
3937 3929.51033 3920.60769 0.0002540005
3951 3930.02186 3920.47303 0.0002531005
3990 3930.61935 3920.33855 0.0002506266
3944 3931.31181 3920.20422 0.0002535497
3933 3932.1085 3920.07007 0.0002542588
4002 3933.01883 3919.93607 0.0002498751
3915 3934.05226 3919.80224 0.0002554278
3910 3935.21829 3919.66858 0.0002557545
3937 3936.52636 3919.53507 0.0002540005
3774 3937.98595 3919.40172 0.0002649709
3918 3939.6066 3919.26854 0.0002552323
3885 3941.39807 3919.13551 0.0002574003
3958 3943.37059 3919.00264 0.0002526529
3877 3945.53517 3918.86993 0.0002579314
4015 3947.90397 3918.73737 0.000249066
4051 3950.49085 3918.60497 0.0002468526
3919 3953.31188 3918.47273 0.0002551671
3890 3956.38597 3918.34064 0.0002570694
3959 3959.73548 3918.2087 0.000252589
3993 3963.38683 3918.07692 0.0002504383
3962 3967.37113 3917.94529 0.0002523978
3974 3971.72458 3917.81381 0.0002516356
3975 3976.48895 3917.68248 0.0002515723
3921 3981.71173 3917.55131 0.000255037
3902 3987.44629 3917.42028 0.0002562788
4033 3993.75154 3917.2894 0.0002479544
4019 4000.69159 3917.15867 0.0002488181
3988 4008.33484 3917.02809 0.0002507523
4091 4016.75262 3916.89766 0.000244439
4017 4026.01728 3916.76737 0.000248942
4014 4036.19954 3916.63723 0.0002491281
4063 4047.36518 3916.50724 0.0002461236
3960 4059.57107 3916.37739 0.0002525253
3882 4072.86074 3916.24769 0.0002575992
3949 4087.25969 3916.11813 0.0002532287
4120 4102.7708 3915.98872 0.0002427184
3889 4119.37007 3915.85945 0.0002571355
3999 4137.00291 3915.73032 0.0002500625
4078 4155.58127 3915.60134 0.0002452182
4031 4174.98153 3915.4725 0.0002480774
4153 4195.04362 3915.3438 0.0002407898
4162 4215.57103 3915.21524 0.0002402691
4141 4236.33194 3915.08683 0.0002414876
4061 4257.06145 3914.95855 0.0002462448
4145 4277.46522 3914.83042 0.0002412545
4235 4297.22396 3914.70242 0.0002361275
4160 4315.99976 3914.57457 0.0002403846
4231 4333.44336 3914.44685 0.0002363507
4342 4349.20365 3914.31928 0.0002303086
4313 4362.93858 3914.19184 0.0002318572
4499 4374.3277 3914.06454 0.0002222716
4401 4383.08604 3913.93738 0.0002272211
4353 4388.97803 3913.81036 0.0002297266
4317 4391.83051 3913.68348 0.0002316423
4318 4391.54346 3913.55673 0.0002315887
4344 4388.09668 3913.43013 0.0002302026
4312 4381.55103 3913.30366 0.0002319109
4432 4372.04503 3913.17732 0.0002256318
4418 4359.78621 3913.05113 0.0002263468
4418 4345.03922 3912.92507 0.0002263468
4196 4328.11184 3912.79915 0.0002383222
4308 4309.3411 3912.67336 0.0002321263
4251 4289.08002 3912.54771 0.0002352388
4240 4267.6862 3912.4222 0.0002358491
4162 4245.51192 3912.29683 0.0002402691
4033 4222.89627 3912.17159 0.0002479544
4051 4200.15884 3912.04648 0.0002468526
4158 4177.59442 3911.92152 0.0002405002
4203 4155.46912 3911.79669 0.0002379253
4112 4134.01796 3911.67199 0.0002431907
3988 4113.44246 3911.54743 0.0002507523
4005 4093.91036 3911.42301 0.0002496879
4130 4075.55545 3911.29872 0.0002421308
4054 4058.47871 3911.17457 0.00024667
4058 4042.75008 3911.05056 0.0002464268
4186 4028.41088 3910.92668 0.0002388915
4000 4015.47691 3910.80294 0.00025
4146 4003.94161 3910.67933 0.0002411963
4083 3993.77982 3910.55586 0.000244918
3931 3984.95124 3910.43253 0.0002543882
4114 3977.40401 3910.30933 0.0002430724
4086 3971.07802 3910.18627 0.0002447381
4153 3965.90788 3910.06335 0.0002407898
4025 3961.8256 3909.94056 0.0002484472
4041 3958.76269 3909.81791 0.0002474635
4033 3956.65199 3909.6954 0.0002479544
4017 3955.42888 3909.57303 0.000248942
4082 3955.03223 3909.45079 0.000244978
4116 3955.40481 3909.32869 0.0002429543
4019 3956.49342 3909.20673 0.0002488181
4021 3958.24878 3909.08491 0.0002486944
3914 3960.6251 3908.96322 0.0002554931
4116 3963.57949 3908.84167 0.0002429543
3913 3967.07128 3908.72027 0.0002555584
3995 3971.06121 3908.599 0.0002503129
4044 3975.51061 3908.47787 0.0002472799
3939 3980.38052 3908.35688 0.0002538715
3943 3985.63089 3908.23603 0.000253614
4057 3991.21981 3908.11532 0.0002464876
3923 3997.10284 3907.99475 0.000254907
4022 4003.23246 3907.87432 0.0002486325
3911 4009.55783 3907.75403 0.0002556891
3966 4016.02462 3907.63388 0.0002521432
4039 4022.57539 3907.51388 0.000247586
4020 4029.15014 3907.39401 0.0002487562
4042 4035.68721 3907.27429 0.0002474023
3923 4042.12442 3907.15472 0.000254907
3888 4048.40025 3907.03528 0.0002572016
3900 4054.45484 3906.91599 0.0002564103
3854 4060.23068 3906.79684 0.0002594707
3914 4065.67272 3906.67784 0.0002554931
3930 4070.7282 3906.55898 0.0002544529
4034 4075.34585 3906.44027 0.0002478929
3859 4079.47513 3906.3217 0.0002591345
3888 4083.06543 3906.20328 0.0002572016
3989 4086.06591 3906.08501 0.0002506894
3937 4088.42558 3905.96688 0.0002540005
3910 4090.09436 3905.8489 0.0002557545
3991 4091.02488 3905.73107 0.0002505638
4063 4091.17476 3905.61339 0.0002461236
3923 4090.50979 3905.49585 0.000254907
3870 4089.00707 3905.37847 0.0002583979
4010 4086.65823 3905.26123 0.0002493766
3901 4083.4719 3905.14415 0.0002563445
3982 4079.47544 3905.02721 0.0002511301
3975 4074.71483 3904.91043 0.0002515723
3888 4069.25381 3904.7938 0.0002572016
4077 4063.17124 3904.67732 0.0002452784
4140 4056.55787 3904.561 0.0002415459
4029 4049.51282 3904.44483 0.0002482005
4044 4042.14003 3904.32881 0.0002472799
4051 4034.545 3904.21295 0.0002468526
3935 4026.83227 3904.09725 0.0002541296
3969 4019.10322 3903.9817 0.0002519526
3889 4011.45457 3903.8663 0.0002571355
4045 4003.97705 3903.75107 0.0002472188
3916 3996.75458 3903.63599 0.0002553626
3960 3989.86367 3903.52107 0.0002525253
3916 3983.37292 3903.40631 0.0002553626
3891 3977.3428 3903.29171 0.0002570033
3972 3971.82567 3903.17727 0.0002517623
3817 3966.86576 3903.063 0.0002619859
3955 3962.49951 3902.94888 0.0002528445
3939 3958.75587 3902.83493 0.0002538715
3988 3955.65679 3902.72114 0.0002507523
3987 3953.21773 3902.60751 0.0002508151
3757 3951.44821 3902.49405 0.0002661698
3918 3950.35238 3902.38075 0.0002552323
3952 3949.92958 3902.26762 0.0002530364
3957 3950.17482 3902.15466 0.0002527167
3906 3951.07931 3902.04186 0.0002560164
3972 3952.63079 3901.92924 0.0002517623
4075 3954.81397 3901.81678 0.0002453988
3917 3957.61078 3901.70449 0.0002552974
3953 3961.00072 3901.59237 0.0002529724
4069 3964.96103 3901.48042 0.0002457606
3933 3969.46696 3901.36864 0.0002542588
4054 3974.49199 3901.25704 0.00024667
4055 3980.00801 3901.14561 0.0002466091
4001 3985.98551 3901.03435 0.0002499375
4033 3992.3937 3900.92327 0.0002479544
4031 3999.20075 3900.81237 0.0002480774
4002 4006.37377 3900.70164 0.0002498751
3989 4013.8791 3900.59109 0.0002506894
4092 4021.68233 3900.48071 0.0002443793
4239 4029.74864 3900.37052 0.0002359047
4106 4038.04312 3900.2605 0.000243546
4146 4046.53135 3900.15067 0.0002411963
4158 4055.18 3900.04101 0.0002405002
4189 4063.95758 3899.93154 0.0002387205
4110 4072.83512 3899.82225 0.000243309
4211 4081.78632 3899.71314 0.0002374733
4141 4090.7875 3899.60422 0.0002414876
4162 4099.81628 3899.49549 0.0002402691
4168 4108.85008 3899.38694 0.0002399232
4210 4117.86346 3899.27858 0.0002375297
4115 4126.82535 3899.1704 0.0002430134
4274 4135.69611 3899.06241 0.0002339729
4294 4144.42499 3898.95462 0.0002328831
4182 4152.9482 3898.84701 0.00023912
4181 4161.18792 3898.73959 0.0002391772
4099 4169.0516 3898.63237 0.0002439619
4145 4176.4334 3898.52534 0.0002412545
4137 4183.21504 3898.4185 0.0002417211
4151 4189.26901 3898.31186 0.0002409058
4242 4194.46192 3898.20541 0.0002357379
4084 4198.65949 3898.09916 0.000244858
4127 4201.73199 3897.99311 0.0002423068
4207 4203.5615 3897.88725 0.0002376991
4177 4204.04868 3897.7816 0.0002394063
4143 4203.12035 3897.67614 0.000241371
4149 4200.73557 3897.57088 0.0002410219
4207 4196.8906 3897.46583 0.0002376991
4041 4191.62103 3897.36098 0.0002474635
4264 4185.00137 3897.25633 0.0002345216
4287 4177.14228 3897.15188 0.0002332634
4111 4168.18535 3897.04764 0.0002432498
4193 4158.29694 3896.94361 0.0002384927
4183 4147.66148 3896.83978 0.0002390629
4088 4136.47508 3896.73616 0.0002446184
4138 4124.93977 3896.63275 0.0002416626
4196 4113.25838 3896.52955 0.0002383222
4170 4101.63061 3896.42656 0.0002398082
4048 4090.24927 3896.32378 0.0002470356
4101 4079.29751 3896.22121 0.000243843
4155 4068.94609 3896.11885 0.0002406739
4019 4059.35118 3896.01671 0.0002488181
4106 4050.65267 3895.91478 0.000243546
4061 4042.97241 3895.81307 0.0002462448
4104 4036.41292 3895.71158 0.0002436647
4048 4031.05662 3895.6103 0.0002470356
3967 4026.96499 3895.50924 0.0002520797
4045 4024.17818 3895.4084 0.0002472188
4001 4022.71499 3895.30778 0.0002499375
3951 4022.57289 3895.20738 0.0002531005
4121 4023.72832 3895.1072 0.0002426595
4023 4026.13718 3895.00725 0.0002485707
4133 4029.73548 3894.90752 0.000241955
4052 4034.44032 3894.80801 0.0002467917
3995 4040.15073 3894.70873 0.0002503129
4025 4046.74907 3894.60967 0.0002484472
4102 4054.10241 3894.51084 0.0002437835
4120 4062.0644 3894.41224 0.0002427184
3971 4070.47715 3894.31387 0.0002518257
4078 4079.17352 3894.21573 0.0002452182
4116 4087.97937 3894.11781 0.0002429543
4069 4096.71624 3894.02013 0.0002457606
4216 4105.20388 3893.92268 0.0002371917
4336 4113.26264 3893.82547 0.0002306273
4259 4120.71668 3893.72849 0.0002347969
4189 4127.39635 3893.63174 0.0002387205
4105 4133.14186 3893.53523 0.0002436054
4354 4137.80697 3893.43895 0.0002296739
4187 4141.26329 3893.34291 0.0002388345
4190 4143.40496 3893.24711 0.0002386635
4231 4144.15336 3893.15155 0.0002363507
4196 4143.46114 3893.05623 0.0002383222
4332 4141.31524 3892.96115 0.0002308403
4309 4137.73782 3892.86631 0.0002320724
4219 4132.78404 3892.77171 0.000237023
4243 4126.54473 3892.67736 0.0002356823
4225 4119.13292 3892.58325 0.0002366864
4315 4110.68386 3892.48938 0.0002317497
4214 4101.34745 3892.39576 0.0002373042
4266 4091.28229 3892.30239 0.0002344116
4290 4080.65023 3892.20926 0.0002331002
4151 4069.61209 3892.11638 0.0002409058
4211 4058.32356 3892.02375 0.0002374733
4203 4046.93252 3891.93137 0.0002379253
4149 4035.57654 3891.83924 0.0002410219
4180 4024.38106 3891.74736 0.0002392344
4130 4013.45808 3891.65573 0.0002421308
4228 4002.90525 3891.56436 0.0002365184
4055 3992.8054 3891.47324 0.0002466091
4039 3983.22635 3891.38237 0.000247586
4021 3974.2212 3891.29175 0.0002486944
3983 3965.82886 3891.2014 0.000251067
3935 3958.07498 3891.11129 0.0002541296
4000 3950.97305 3891.02145 0.00025
3987 3944.5257 3890.93186 0.0002508151
4057 3938.72615 3890.84253 0.0002464876
3941 3933.55978 3890.75346 0.0002537427
3914 3929.0056 3890.66465 0.0002554931
3869 3925.03777 3890.5761 0.0002584647
4027 3921.62702 3890.48781 0.0002483238
4012 3918.74187 3890.39978 0.0002492522
3911 3916.34979 3890.31202 0.0002556891
3920 3914.41805 3890.22452 0.000255102
3959 3912.91451 3890.13728 0.000252589
4003 3911.80811 3890.05031 0.0002498126
3917 3911.0692 3889.9636 0.0002552974
3779 3910.66971 3889.87716 0.0002646203
3983 3910.58314 3889.79098 0.000251067
3884 3910.78444 3889.70507 0.0002574665
3935 3911.24973 3889.61943 0.0002541296
3935 3911.95604 3889.53406 0.0002541296
3881 3912.8809 3889.44896 0.0002576656
3879 3914.00193 3889.36412 0.0002577984
3992 3915.29651 3889.27956 0.000250501
3931 3916.74141 3889.19526 0.0002543882
3818 3918.31247 3889.11124 0.0002619172
3801 3919.98438 3889.02749 0.0002630887
3937 3921.73053 3888.94401 0.0002540005
3826 3923.52291 3888.8608 0.0002613696
3824 3925.33217 3888.77787 0.0002615063
3931 3927.12771 3888.69521 0.0002543882
3905 3928.8779 3888.61283 0.0002560819
3943 3930.55045 3888.53072 0.000253614
3887 3932.11286 3888.44888 0.0002572678
3838 3933.53299 3888.36732 0.0002605524
3946 3934.77985 3888.28604 0.0002534212
3895 3935.82444 3888.20504 0.0002567394
3892 3936.64087 3888.12431 0.0002569373
3815 3937.20729 3888.04386 0.0002621232
3878 3937.50702 3887.96369 0.0002578649
3926 3937.52942 3887.88379 0.0002547122
3861 3937.27046 3887.80418 0.0002590003
3834 3936.733 3887.72485 0.0002608242
3938 3935.92654 3887.64579 0.000253936
3871 3934.8667 3887.56702 0.0002583312
3792 3933.57423 3887.48852 0.0002637131
3802 3932.07401 3887.41031 0.0002630195
3813 3930.39382 3887.33238 0.0002622607
3788 3928.5633 3887.25473 0.0002639916
3931 3926.61289 3887.17736 0.0002543882
4001 3924.57304 3887.10027 0.0002499375
3898 3922.47345 3887.02347 0.0002565418
3856 3920.34254 3886.94695 0.0002593361
3849 3918.20693 3886.87071 0.0002598077
3785 3916.09109 3886.79476 0.0002642008
3894 3914.01706 3886.71909 0.0002568053
3877 3912.00421 3886.6437 0.0002579314
3829 3910.06915 3886.5686 0.0002611648
3819 3908.22561 3886.49378 0.0002618487
3893 3906.48451 3886.41925 0.0002568713
3800 3904.85376 3886.345 0.0002631579
3760 3903.33941 3886.27104 0.0002659574
3842 3901.94435 3886.19736 0.0002602811
3887 3900.66954 3886.12397 0.0002572678
3899 3899.51405 3886.05087 0.000256476
3789 3898.47535 3885.97805 0.0002639219
3894 3897.54963 3885.90551 0.0002568053
3941 3896.73212 3885.83326 0.0002537427
3952 3896.01741 3885.7613 0.0002530364
3900 3895.39975 3885.68963 0.0002564103
3860 3894.87334 3885.61824 0.0002590674
3790 3894.43262 3885.54714 0.0002638522
3932 3894.07251 3885.47632 0.0002543235
3905 3893.78867 3885.40579 0.0002560819
3895 3893.57771 3885.33555 0.0002567394
3911 3893.4374 3885.26559 0.0002556891
3849 3893.3669 3885.19592 0.0002598077
3820 3893.36689 3885.12654 0.0002617801
3820 3893.43981 3885.05744 0.0002617801
3878 3893.59003 3884.98863 0.0002578649
3891 3893.82401 3884.92011 0.0002570033
3918 3894.15047 3884.85187 0.0002552323
3917 3894.5806 3884.78392 0.0002552974
3953 3895.12813 3884.71626 0.0002529724
3901 3895.80955 3884.64888 0.0002563445
3830 3896.64415 3884.58179 0.0002610966
3835 3897.65413 3884.51498 0.0002607562
3850 3898.86455 3884.44846 0.0002597403
3847 3900.30334 3884.38223 0.0002599428
4077 3902.00114 3884.31628 0.0002452784
4076 3903.99104 3884.25062 0.0002453386
3798 3906.30828 3884.18524 0.0002632965
3921 3908.98976 3884.12015 0.000255037
3867 3912.07343 3884.05534 0.0002585984
3767 3915.59761 3883.99082 0.0002654632
3850 3919.60002 3883.92658 0.0002597403
3846 3924.11687 3883.86262 0.0002600104
3792 3929.18165 3883.79895 0.0002637131
3958 3934.82386 3883.73556 0.0002526529
3995 3941.06779 3883.67245 0.0002503129
3884 3947.93103 3883.60963 0.0002574665
3899 3955.4231 3883.54709 0.000256476
3943 3963.54408 3883.48483 0.000253614
3907 3972.28336 3883.42285 0.0002559509
3966 3981.61837 3883.36115 0.0002521432
3951 3991.51363 3883.29974 0.0002531005
4050 4001.91992 3883.2386 0.0002469136
4023 4012.7738 3883.17775 0.0002485707
3944 4023.99727 3883.11717 0.0002535497
4034 4035.49795 3883.05688 0.0002478929
3970 4047.1695 3882.99686 0.0002518892
4004 4058.89246 3882.93712 0.0002497502
4071 4070.53554 3882.87766 0.0002456399
4167 4081.95741 3882.81847 0.0002399808
4168 4093.00893 3882.75956 0.0002399232
4085 4103.53598 3882.70093 0.000244798
4212 4113.38273 3882.64257 0.0002374169
4235 4122.39547 3882.58449 0.0002361275
4274 4130.42689 3882.52668 0.0002339729
4224 4137.34059 3882.46914 0.0002367424
4358 4143.01576 3882.41188 0.0002294631
4251 4147.35165 3882.35489 0.0002352388
4438 4150.2718 3882.29817 0.0002253267
4363 4151.72689 3882.24172 0.0002292001
4377 4151.69735 3882.18554 0.000228467
4449 4150.19382 3882.12963 0.0002247696
4386 4147.25648 3882.07399 0.0002279982
4398 4142.95312 3882.01862 0.0002273761
4379 4137.37589 3881.96351 0.0002283626
4371 4130.63755 3881.90867 0.0002287806
4319 4122.86757 3881.8541 0.0002315351
4174 4114.20809 3881.79979 0.0002395783
4318 4104.81055 3881.74575 0.0002315887
4259 4094.83228 3881.69196 0.0002347969
4164 4084.43372 3881.63844 0.0002401537
4124 4073.77565 3881.58518 0.000242483
4169 4063.01674 3881.53219 0.0002398657
4100 4052.31136 3881.47945 0.0002439024
3969 4041.80757 3881.42696 0.0002519526
3946 4031.64533 3881.37474 0.0002534212
4059 4021.95533 3881.32277 0.0002463661
3967 4012.85793 3881.27106 0.0002520797
4054 4004.46255 3881.21961 0.00024667
4081 3996.86739 3881.1684 0.000245038
3988 3990.15937 3881.11745 0.0002507523
4006 3984.4143 3881.06675 0.0002496256
3917 3979.69704 3881.0163 0.0002552974
3915 3976.06187 3880.9661 0.0002554278
3875 3973.55276 3880.91615 0.0002580645
3991 3972.20363 3880.86645 0.0002505638
4014 3972.0385 3880.81699 0.0002491281
3912 3973.07149 3880.76777 0.0002556237
3970 3975.30677 3880.7188 0.0002518892
3965 3978.73833 3880.67007 0.0002522068
3912 3983.34954 3880.62159 0.0002556237
4044 3989.11287 3880.57334 0.0002472799
4114 3995.98916 3880.52533 0.0002430724
4043 4003.92716 3880.47756 0.0002473411
3948 4012.86292 3880.43002 0.0002532928
4000 4022.71933 3880.38272 0.00025
4205 4033.40571 3880.33565 0.0002378121
3970 4044.81747 3880.28882 0.0002518892
4116 4056.83618 3880.24222 0.0002429543
4136 4069.32966 3880.19584 0.0002417795
4148 4082.15262 3880.14969 0.00024108
4052 4095.1475 3880.10377 0.0002467917
4171 4108.1458 3880.05808 0.0002397507
4131 4120.97004 3880.01261 0.0002420721
4121 4133.4363 3879.96736 0.0002426595
4220 4145.35744 3879.92233 0.0002369668
4205 4156.54691 3879.87752 0.0002378121
4131 4166.82331 3879.83293 0.0002420721
4273 4176.01529 3879.78856 0.0002340276
4216 4183.96622 3879.7444 0.0002371917
4199 4190.53882 3879.70046 0.0002381519
4353 4195.61901 3879.65672 0.0002297266
4285 4199.11845 3879.6132 0.0002333722
4366 4200.97627 3879.56988 0.0002290426
4448 4201.15977 3879.52677 0.0002248201
4419 4199.6642 3879.48387 0.0002262955
4404 4196.51215 3879.44117 0.0002270663
4294 4191.75298 3879.39867 0.0002328831
4446 4185.46139 3879.35638 0.0002249213
4409 4177.73622 3879.31428 0.0002268088
4344 4168.69808 3879.27238 0.0002302026
4482 4158.48644 3879.23067 0.0002231147
4568 4147.25608 3879.18916 0.0002189142
4544 4135.17242 3879.14784 0.0002200704
4311 4122.407 3879.10671 0.0002319647
4256 4109.13289 3879.06576 0.0002349624
4443 4095.52001 3879.025 0.0002250731
4318 4081.73185 3878.98443 0.0002315887
4314 4067.92195 3878.94404 0.0002318034
4311 4054.23173 3878.90383 0.0002319647
4274 4040.78875 3878.8638 0.0002339729
4199 4027.70552 3878.82395 0.0002381519
4185 4015.07873 3878.78427 0.0002389486
4173 4002.98916 3878.74476 0.0002396358
4084 3991.50177 3878.70542 0.000244858
4083 3980.66614 3878.66626 0.000244918
4159 3970.5172 3878.62726 0.0002404424
3988 3961.07616 3878.58843 0.0002507523
3998 3952.35171 3878.54975 0.0002501251
4016 3944.34126 3878.51124 0.000249004
4010 3937.03237 3878.47289 0.0002493766
4034 3930.40415 3878.4347 0.0002478929
3961 3924.42877 3878.39666 0.0002524615
3995 3919.07284 3878.35877 0.0002503129
3940 3914.29882 3878.32104 0.0002538071
3894 3910.06628 3878.28345 0.0002568053
3897 3906.33311 3878.24601 0.0002566076
3898 3903.05635 3878.20871 0.0002565418
3903 3900.19384 3878.17155 0.0002562132
3889 3897.70388 3878.13454 0.0002571355
3948 3895.54658 3878.09766 0.0002532928
3826 3893.68417 3878.06092 0.0002613696
3772 3892.08132 3878.02431 0.0002651113
3883 3890.70542 3877.98783 0.0002575328
3851 3889.52666 3877.95148 0.0002596728
3783 3888.51107 3877.91526 0.0002643405
3866 3887.64863 3877.87916 0.0002586653
3739 3886.91092 3877.84318 0.0002674512
3824 3886.27916 3877.80732 0.0002615063
3803 3885.73698 3877.77158 0.0002629503
3750 3885.27025 3877.73595 0.0002666667
3774 3884.86687 3877.70044 0.0002649709
3851 3884.51652 3877.66503 0.0002596728
3829 3884.21052 3877.62973 0.0002611648
3780 3883.94157 3877.59454 0.0002645503
3816 3883.70362 3877.55945 0.0002620545
3877 3883.49164 3877.52446 0.0002579314
3844 3883.30153 3877.48957 0.0002601457
3803 3883.12995 3877.45477 0.0002629503
3884 3882.97417 3877.42007 0.0002574665
3774 3882.83205 3877.38546 0.0002649709
3758 3882.70187 3877.35093 0.000266099
3774 3882.58229 3877.31649 0.0002649709
3855 3882.47231 3877.28213 0.0002594034
3825 3882.37118 3877.24785 0.0002614379
3794 3882.27843 3877.21365 0.0002635741
3933 3882.19376 3877.17953 0.0002542588
3827 3882.11709 3877.14547 0.0002613013
3834 3882.04854 3877.11149 0.0002608242
3887 3881.98841 3877.07757 0.0002572678
3844 3881.9372 3877.04372 0.0002601457
3811 3881.89564 3877.00993 0.0002623983
3790 3881.86467 3876.9762 0.0002638522
3897 3881.84554 3876.94252 0.0002566076
3839 3881.83973 3876.9089 0.0002604845
3907 3881.84913 3876.87533 0.0002559509
3956 3881.87593 3876.84181 0.0002527806
3867 3881.92281 3876.80833 0.0002585984
3980 3881.99289 3876.7749 0.0002512563
3962 3882.08981 3876.74151 0.0002523978
3886 3882.21781 3876.70815 0.000257334
3871 3882.38175 3876.67483 0.0002583312
3947 3882.58718 3876.64154 0.000253357
3776 3882.84038 3876.60828 0.0002648305
3837 3883.14841 3876.57504 0.0002606203
3769 3883.51912 3876.54183 0.0002653224
3874 3883.96121 3876.50864 0.0002581311
3775 3884.48419 3876.47547 0.0002649007
3895 3885.09843 3876.44231 0.0002567394
3868 3885.81506 3876.40916 0.0002585315
3895 3886.64594 3876.37602 0.0002567394
3777 3887.60361 3876.34289 0.0002647604
3836 3888.7011 3876.30976 0.0002606882
3818 3889.95187 3876.27664 0.0002619172
3861 3891.36953 3876.24351 0.0002590003
3866 3892.96771 3876.21037 0.0002586653
3845 3894.75973 3876.17722 0.000260078
3855 3896.7583 3876.14407 0.0002594034
4020 3898.97526 3876.1109 0.0002487562
3947 3901.4211 3876.07771 0.000253357
3935 3904.10464 3876.0445 0.0002541296
3786 3907.03255 3876.01127 0.000264131
3924 3910.20893 3875.97801 0.000254842
3970 3913.63484 3875.94472 0.0002518892
4000 3917.30784 3875.9114 0.00025
3962 3921.22153 3875.87805 0.0002523978
3956 3925.36519 3875.84465 0.0002527806
3849 3929.72338 3875.81122 0.0002598077
3891 3934.27569 3875.77774 0.0002570033
3952 3938.99654 3875.74421 0.0002530364
4041 3943.85516 3875.71063 0.0002474635
3917 3948.81568 3875.677 0.0002552974
3956 3953.83741 3875.64331 0.0002527806
4014 3958.87535 3875.60956 0.0002491281
3871 3963.88067 3875.57575 0.0002583312
3903 3968.80158 3875.54187 0.0002562132
3957 3973.58396 3875.50793 0.0002527167
3858 3978.17129 3875.47391 0.0002592017
3879 3982.50937 3875.43981 0.0002577984
3940 3986.54106 3875.40564 0.0002538071
3971 3990.21093 3875.37138 0.0002518257
3961 3993.46519 3875.33704 0.0002524615
3880 3996.25244 3875.30261 0.000257732
3892 3998.52483 3875.26809 0.0002569373
3933 4000.2394 3875.23348 0.0002542588
3846 4001.35972 3875.19877 0.0002600104
3842 4001.85763 3875.16395 0.0002602811
3832 4001.71493 3875.12904 0.0002609603
3924 4000.92487 3875.09401 0.000254842
3995 3999.4932 3875.05888 0.0002503129
3849 3997.43849 3875.02363 0.0002598077
3803 3994.7916 3874.98827 0.0002629503
3934 3991.59466 3874.95278 0.0002541942
3986 3987.89922 3874.91717 0.0002508781
3860 3983.76419 3874.88144 0.0002590674
3877 3979.25352 3874.84558 0.0002579314
3904 3974.43418 3874.80958 0.0002561475
3812 3969.374 3874.77345 0.0002623295
3854 3964.14017 3874.73717 0.0002594707
3767 3958.79781 3874.70076 0.0002654632
3788 3953.40882 3874.6642 0.0002639916
3783 3948.03107 3874.62749 0.0002643405
3902 3942.71767 3874.59063 0.0002562788
3951 3937.51651 3874.55361 0.0002531005
3829 3932.46993 3874.51643 0.0002611648
3834 3927.61442 3874.47909 0.0002608242
3900 3922.98069 3874.44159 0.0002564103
3792 3918.59362 3874.40392 0.0002637131
3834 3914.4725 3874.36607 0.0002608242
3910 3910.63125 3874.32805 0.0002557545
3868 3907.07892 3874.28985 0.0002585315
3858 3903.81576 3874.25148 0.0002592017
3880 3900.8511 3874.21291 0.000257732
3922 3898.17798 3874.17416 0.000254972
3852 3895.7911 3874.13521 0.0002596054
3787 3893.68308 3874.09608 0.0002640613
3816 3891.84513 3874.05674 0.0002620545
3847 3890.26759 3874.0172 0.0002599428
3892 3888.94054 3873.97746 0.0002569373
3870 3887.8542 3873.93751 0.0002583979
3800 3886.99946 3873.89735 0.0002631579
3858 3886.36812 3873.85697 0.0002592017
3753 3885.95323 3873.81638 0.0002664535
3804 3885.74924 3873.77557 0.0002628812
3948 3885.75204 3873.73453 0.0002532928
3787 3885.95907 3873.69326 0.0002640613
3900 3886.36912 3873.65177 0.0002564103
3895 3886.98223 3873.61004 0.0002567394
3837 3887.79943 3873.56807 0.0002606203
3855 3888.82243 3873.52586 0.0002594034
3772 3890.05325 3873.48341 0.0002651113
3879 3891.4938 3873.44072 0.0002577984
3852 3893.14542 3873.39777 0.0002596054
3871 3895.0084 3873.35457 0.0002583312
3853 3897.08151 3873.31111 0.000259538
3874 3899.36146 3873.26739 0.0002581311
3854 3901.84252 3873.22341 0.0002594707
3805 3904.51602 3873.17916 0.0002628121
3800 3907.37005 3873.13465 0.0002631579
3869 3910.38907 3873.08986 0.0002584647
3871 3913.55376 3873.04479 0.0002583312
3938 3916.84085 3872.99945 0.000253936
3868 3920.22309 3872.95382 0.0002585315
3870 3923.66932 3872.90791 0.0002583979
3915 3927.14462 3872.86171 0.0002554278
3981 3930.61057 3872.81522 0.0002511932
3952 3934.02568 3872.76843 0.0002530364
3942 3937.34585 3872.72134 0.0002536783
3993 3940.52498 3872.67396 0.0002504383
4036 3943.51577 3872.62626 0.0002477701
4042 3946.27062 3872.57826 0.0002474023
4047 3948.74271 3872.52995 0.0002470966
4051 3950.88738 3872.48133 0.0002468526
4063 3952.66351 3872.43239 0.0002461236
4051 3954.03508 3872.38312 0.0002468526
3972 3954.97282 3872.33354 0.0002517623
4059 3955.45552 3872.28363 0.0002463661
3966 3955.47133 3872.23338 0.0002521432
4044 3955.01829 3872.18281 0.0002472799
3972 3954.10452 3872.1319 0.0002517623
4166 3952.74779 3872.08065 0.0002400384
4087 3950.97448 3872.02906 0.0002446782
4081 3948.81831 3871.97712 0.000245038
4029 3946.3187 3871.92484 0.0002482005
3882 3943.51923 3871.8722 0.0002575992
4032 3940.46604 3871.81921 0.0002480159
4136 3937.20651 3871.76586 0.0002417795
3919 3933.78804 3871.71216 0.0002551671
3925 3930.25704 3871.65809 0.0002547771
3953 3926.65814 3871.60365 0.0002529724
3955 3923.03346 3871.54885 0.0002528445
3955 3919.4221 3871.49367 0.0002528445
3884 3915.85968 3871.43812 0.0002574665
3981 3912.37801 3871.38219 0.0002511932
3916 3909.00488 3871.32587 0.0002553626
3875 3905.76385 3871.26918 0.0002580645
3907 3902.67419 3871.2121 0.0002559509
3857 3899.75134 3871.15463 0.0002592689
3873 3897.00635 3871.09676 0.0002581978
3925 3894.44657 3871.0385 0.0002547771
3852 3892.07584 3870.97984 0.0002596054
3823 3889.89473 3870.92079 0.0002615747
3777 3887.90102 3870.86132 0.0002647604
3865 3886.09003 3870.80145 0.0002587322
3768 3884.45502 3870.74118 0.0002653928
3870 3882.98763 3870.68049 0.0002583979
3829 3881.67822 3870.61938 0.0002611648
3802 3880.51628 3870.55786 0.0002630195
3917 3879.49074 3870.49591 0.0002552974
3776 3878.59026 3870.43354 0.0002648305
3746 3877.80351 3870.37075 0.0002669514
3753 3877.11937 3870.30753 0.0002664535
3792 3876.52712 3870.24388 0.0002637131
3785 3876.01655 3870.17979 0.0002642008
3824 3875.57809 3870.11527 0.0002615063
3847 3875.20285 3870.0503 0.0002599428
3834 3874.88266 3869.9849 0.0002608242
3710 3874.6101 3869.91905 0.0002695418
3819 3874.37848 3869.85275 0.0002618487
3893 3874.18179 3869.78601 0.0002568713
3789 3874.01469 3869.71881 0.0002639219
3769 3873.87249 3869.65116 0.0002653224
3768 3873.75102 3869.58305 0.0002653928
3862 3873.64666 3869.51448 0.0002589332
3793 3873.55623 3869.44545 0.0002636436
3798 3873.477 3869.37596 0.0002632965
3890 3873.40658 3869.30599 0.0002570694
3780 3873.3429 3869.23556 0.0002645503
3819 3873.28423 3869.16466 0.0002618487
3808 3873.22906 3869.09328 0.000262605
3745 3873.17616 3869.02143 0.0002670227
3750 3873.12452 3868.9491 0.0002666667
3853 3873.07338 3868.87628 0.000259538
3875 3873.02221 3868.80299 0.0002580645
3788 3872.97068 3868.7292 0.0002639916
3749 3872.91873 3868.65493 0.0002667378
3900 3872.86655 3868.58017 0.0002564103
3811 3872.81455 3868.50492 0.0002623983
3861 3872.76342 3868.42918 0.0002590003
3912 3872.71408 3868.35293 0.0002556237
3785 3872.66775 3868.27619 0.0002642008
3748 3872.6259 3868.19895 0.000266809
3815 3872.59033 3868.1212 0.0002621232
3869 3872.56313 3868.04295 0.0002584647
3712 3872.54677 3867.9642 0.0002693966
3952 3872.54412 3867.88493 0.0002530364
3902 3872.55852 3867.80515 0.0002562788
3809 3872.5938 3867.72486 0.0002625361
3924 3872.65439 3867.64406 0.000254842
3971 3872.74535 3867.56273 0.0002518257
3818 3872.87248 3867.48089 0.0002619172
3932 3873.04237 3867.39853 0.0002543235
3871 3873.26249 3867.31565 0.0002583312
3854 3873.54123 3867.23224 0.0002594707
3814 3873.88802 3867.1483 0.0002621919
3828 3874.31329 3867.06384 0.000261233
3837 3874.82858 3866.97885 0.0002606203
3726 3875.44653 3866.89333 0.0002683843
3849 3876.18085 3866.80727 0.0002598077
3825 3877.04628 3866.72068 0.0002614379
3884 3878.05851 3866.63355 0.0002574665
3928 3879.23409 3866.54589 0.0002545825
3766 3880.59024 3866.45768 0.0002655337
3795 3882.14464 3866.36893 0.0002635046
3752 3883.9152 3866.27965 0.0002665245
3787 3885.91978 3866.18981 0.0002640613
3829 3888.1758 3866.09943 0.0002611648
3766 3890.69991 3866.00851 0.0002655337
3910 3893.50757 3865.91703 0.0002557545
3878 3896.6126 3865.82501 0.0002578649
3815 3900.02672 3865.73243 0.0002621232
3935 3903.75911 3865.6393 0.0002541296
3922 3907.81591 3865.54562 0.000254972
3880 3912.19979 3865.45138 0.000257732
3826 3916.9095 3865.35659 0.0002613696
3980 3921.93946 3865.26124 0.0002512563
3960 3927.27946 3865.16533 0.0002525253
3758 3932.91426 3865.06886 0.000266099
3921 3938.82341 3864.97182 0.000255037
3960 3944.98098 3864.87423 0.0002525253
3963 3951.35553 3864.77607 0.0002523341
3884 3957.91003 3864.67735 0.0002574665
3880 3964.60185 3864.57806 0.000257732
3879 3971.38305 3864.47821 0.0002577984
3917 3978.20066 3864.37778 0.0002552974
3924 3984.99714 3864.27679 0.000254842
3992 3991.71124 3864.17523 0.000250501
3861 3998.27885 3864.0731 0.0002590003
3893 4004.63433 3863.9704 0.0002568713
3961 4010.71207 3863.86713 0.0002524615
3887 4016.44804 3863.76329 0.0002572678
3929 4021.78154 3863.65887 0.0002545177
3925 4026.65682 3863.55388 0.0002547771
4056 4031.02425 3863.44831 0.0002465483
3900 4034.84127 3863.34217 0.0002564103
3920 4038.07262 3863.23545 0.000255102
4001 4040.69007 3863.12815 0.0002499375
3840 4042.67206 3863.02028 0.0002604167
3958 4044.00266 3862.91183 0.0002526529
4000 4044.67096 3862.80281 0.00025
3933 4044.67047 3862.6932 0.0002542588
3980 4043.99879 3862.58302 0.0002512563
3945 4042.65781 3862.47226 0.0002534854
4078 4040.65436 3862.36091 0.0002452182
3993 4038.00073 3862.24899 0.0002504383
4033 4034.71609 3862.13649 0.0002479544
4012 4030.82691 3862.0234 0.0002492522
3934 4026.36787 3861.90974 0.0002541942
4176 4021.38179 3861.7955 0.0002394636
4148 4015.91933 3861.68067 0.00024108
4135 4010.03796 3861.56527 0.000241838
3975 4003.80056 3861.44928 0.0002515723
4016 3997.27362 3861.33271 0.000249004
4063 3990.5256 3861.21556 0.0002461236
3958 3983.62506 3861.09783 0.0002526529
3972 3976.63922 3860.97952 0.0002517623
4155 3969.63276 3860.86063 0.0002406739
4075 3962.66671 3860.74116 0.0002453988
4034 3955.79797 3860.62111 0.0002478929
4078 3949.07872 3860.50047 0.0002452182
4017 3942.55616 3860.37926 0.000248942
4124 3936.27238 3860.25747 0.000242483
4005 3930.26441 3860.1351 0.0002496879
3998 3924.5642 3860.01215 0.0002501251
3910 3919.19888 3859.88862 0.0002557545
3941 3914.19087 3859.76451 0.0002537427
4125 3909.55834 3859.63983 0.0002424242
3924 3905.31539 3859.51456 0.000254842
4019 3901.47253 3859.38873 0.0002488181
4135 3898.03698 3859.26231 0.000241838
3897 3895.01321 3859.13532 0.0002566076
3932 3892.40321 3859.00776 0.0002543235
3919 3890.20696 3858.87962 0.0002551671
3966 3888.42274 3858.75091 0.0002521432
3913 3887.04741 3858.62162 0.0002555584
3835 3886.07669 3858.49177 0.0002607562
3940 3885.50529 3858.36134 0.0002538071
3855 3885.32643 3858.23034 0.0002594034
3941 3885.53412 3858.09878 0.0002537427
4025 3886.11971 3857.96664 0.0002484472
3871 3887.07396 3857.83394 0.0002583312
3973 3888.38632 3857.70068 0.000251699
3842 3890.04464 3857.56684 0.0002602811
3941 3892.03488 3857.43245 0.0002537427
3874 3894.34077 3857.29749 0.0002581311
3861 3896.94351 3857.16197 0.0002590003
3925 3899.82144 3857.02589 0.0002547771
3849 3902.94981 3856.88925 0.0002598077
3974 3906.3005 3856.75206 0.0002516356
3965 3909.84186 3856.6143 0.0002522068
3887 3913.5387 3856.47599 0.0002572678
3917 3917.35224 3856.33713 0.0002552974
3891 3921.24019 3856.19772 0.0002570033
3877 3925.15703 3856.05776 0.0002579314
3871 3929.0542 3855.91724 0.0002583312
3899 3932.8806 3855.77618 0.000256476
3985 3936.58306 3855.63457 0.000250941
3901 3940.10701 3855.49242 0.0002563445
3955 3943.39736 3855.34973 0.0002528445
3896 3946.39936 3855.2065 0.0002566735
4071 3949.05991 3855.06272 0.0002456399
4005 3951.32904 3854.91841 0.0002496879
3984 3953.16126 3854.77357 0.000251004
4076 3954.51753 3854.62819 0.0002453386
4046 3955.36673 3854.48228 0.0002471577
4060 3955.68733 3854.33584 0.0002463054
4069 3955.46836 3854.18887 0.0002457606
3928 3954.71004 3854.04138 0.0002545825
3983 3953.42375 3853.89336 0.000251067
4060 3951.63132 3853.74482 0.0002463054
3978 3949.36387 3853.59577 0.0002513826
4001 3946.66028 3853.44619 0.0002499375
4002 3943.56542 3853.2961 0.0002498751
4113 3940.12844 3853.1455 0.0002431315
4052 3936.40115 3852.99439 0.0002467917
3835 3932.43653 3852.84277 0.0002607562
3876 3928.28758 3852.69065 0.0002579979
3943 3924.00624 3852.53802 0.000253614
3999 3919.64247 3852.38489 0.0002500625
4171 3915.24362 3852.23126 0.0002397507
3872 3910.85383 3852.07714 0.0002582645
3892 3906.51345 3851.92253 0.0002569373
3888 3902.25882 3851.76742 0.0002572016
3936 3898.12189 3851.61183 0.000254065
3826 3894.13011 3851.45575 0.0002613696
3867 3890.30634 3851.29919 0.0002585984
4008 3886.66889 3851.14215 0.000249501
3853 3883.23161 3850.98464 0.000259538
3862 3880.00411 3850.82665 0.0002589332
3798 3876.99203 3850.66819 0.0002632965
3949 3874.19735 3850.50926 0.0002532287
3793 3871.61878 3850.34987 0.0002636436
3769 3869.25218 3850.19001 0.0002653224
3957 3867.09095 3850.0297 0.0002527167
3872 3865.1265 3849.86893 0.0002582645
3785 3863.34862 3849.70771 0.0002642008
3847 3861.74595 3849.54604 0.0002599428
3852 3860.3063 3849.38392 0.0002596054
3906 3859.01701 3849.22136 0.0002560164
3794 3857.86527 3849.05836 0.0002635741
3871 3856.83837 3848.89492 0.0002583312
3877 3855.9239 3848.73105 0.0002579314
3790 3855.10996 3848.56675 0.0002638522
3910 3854.38529 3848.40202 0.0002557545
3751 3853.73936 3848.23687 0.0002665956
3835 3853.16242 3848.0713 0.0002607562
3936 3852.6456 3847.90532 0.000254065
3719 3852.18082 3847.73892 0.0002688895
3854 3851.7609 3847.57211 0.0002594707
3833 3851.3794 3847.4049 0.0002608923
3803 3851.03071 3847.23729 0.0002629503
3708 3850.70989 3847.06928 0.0002696872
3796 3850.41269 3846.90088 0.0002634352
3832 3850.13544 3846.73208 0.0002609603
3745 3849.87504 3846.5629 0.0002670227
3794 3849.62886 3846.39334 0.0002635741
3869 3849.39468 3846.2234 0.0002584647
3656 3849.17009 3846.05308 0.000273523
3886 3848.95479 3845.88239 0.000257334
3836 3848.74695 3845.71134 0.0002606882
3865 3848.54561 3845.53992 0.0002587322
3805 3848.35003 3845.36815 0.0002628121
3843 3848.15964 3845.19602 0.0002602134
3956 3847.97406 3845.02354 0.0002527806
3797 3847.79304 3844.85071 0.0002633658
3797 3847.61649 3844.67754 0.0002633658
3904 3847.44447 3844.50403 0.0002561475
3763 3847.27717 3844.33019 0.0002657454
3795 3847.11491 3844.15602 0.0002635046
3789 3846.95818 3843.98153 0.0002639219
3759 3846.80766 3843.80672 0.0002660282
3758 3846.66419 3843.63159 0.000266099
3779 3846.52883 3843.45614 0.0002646203
3944 3846.40291 3843.28039 0.0002535497
3732 3846.28799 3843.10434 0.0002679528
3813 3846.18597 3842.92799 0.0002622607
3870 3846.0991 3842.75134 0.0002583979
3679 3846.03003 3842.57441 0.000271813
3845 3845.98181 3842.39719 0.000260078
3845 3845.95801 3842.2197 0.000260078
3914 3845.96268 3842.04192 0.0002554931
3786 3846.00046 3841.86388 0.000264131
3782 3846.07656 3841.68557 0.0002644104
3933 3846.19682 3841.507 0.0002542588
3870 3846.36769 3841.32818 0.0002583979
3879 3846.59626 3841.1491 0.0002577984
3803 3846.89025 3840.96977 0.0002629503
3758 3847.25794 3840.79021 0.000266099
3843 3847.70814 3840.61041 0.0002602134
3810 3848.25011 3840.43038 0.0002624672
3860 3848.89345 3840.25012 0.0002590674
3838 3849.64795 3840.06963 0.0002605524
3887 3850.52345 3839.88894 0.0002572678
3977 3851.52962 3839.70803 0.0002514458
3901 3852.67575 3839.52691 0.0002563445
3943 3853.97049 3839.3456 0.000253614
3886 3855.42158 3839.16408 0.000257334
3753 3857.03559 3838.98238 0.0002664535
3892 3858.81757 3838.80049 0.0002569373
3884 3860.77077 3838.61842 0.0002574665
3954 3862.89633 3838.43617 0.0002529084
3977 3865.19298 3838.25376 0.0002514458
3894 3867.6568 3838.07118 0.0002568053
3990 3870.28095 3837.88844 0.0002506266
3793 3873.05546 3837.70555 0.0002636436
3838 3875.96712 3837.5225 0.0002605524
3917 3878.99935 3837.33932 0.0002552974
3943 3882.13216 3837.15599 0.000253614
3995 3885.34221 3836.97254 0.0002503129
4035 3888.60286 3836.78896 0.0002478315
4023 3891.88433 3836.60525 0.0002485707
3978 3895.15402 3836.42143 0.0002513826
4020 3898.3767 3836.2375 0.0002487562
4169 3901.51499 3836.05347 0.0002398657
4008 3904.52987 3835.86933 0.000249501
4056 3907.38122 3835.68511 0.0002465483
4141 3910.02867 3835.50079 0.0002414876
4027 3912.4324 3835.31639 0.0002483238
4151 3914.55421 3835.13192 0.0002409058
4163 3916.35863 3834.94737 0.0002402114
4081 3917.81419 3834.76276 0.000245038
4052 3918.89457 3834.57809 0.0002467917
3968 3919.57961 3834.39336 0.0002520161
4043 3919.85621 3834.20859 0.0002473411
3967 3919.71871 3834.02378 0.0002520797
3957 3919.16911 3833.83892 0.0002527167
4095 3918.21667 3833.65404 0.0002442002
4021 3916.87749 3833.46913 0.0002486944
4015 3915.17361 3833.28421 0.000249066
4045 3913.13222 3833.09927 0.0002472188
3910 3910.78471 3832.91432 0.0002557545
4024 3908.16572 3832.72937 0.0002485089
3945 3905.31237 3832.54443 0.0002534854
4030 3902.26338 3832.35949 0.000248139
3974 3899.05832 3832.17457 0.0002516356
3987 3895.73685 3831.98968 0.0002508151
4144 3892.33814 3831.80481 0.0002413127
3896 3888.9002 3831.61998 0.0002566735
3958 3885.45933 3831.43518 0.0002526529
4036 3882.04975 3831.25044 0.0002477701
4020 3878.70318 3831.06574 0.0002487562
3873 3875.44865 3830.8811 0.0002581978
3952 3872.31233 3830.69653 0.0002530364
3895 3869.3174 3830.51203 0.0002567394
3861 3866.48417 3830.3276 0.0002590003
3953 3863.83009 3830.14325 0.0002529724
4018 3861.36993 3829.959 0.00024888
3817 3859.11601 3829.77484 0.0002619859
3885 3857.07849 3829.59077 0.0002574003
3848 3855.26559 3829.40682 0.0002598753
3861 3853.68403 3829.22298 0.0002590003
3885 3852.33929 3829.03925 0.0002574003
3924 3851.23598 3828.85565 0.000254842
3994 3850.37823 3828.67218 0.0002503756
3911 3849.7699 3828.48885 0.0002556891
3898 3849.41498 3828.30566 0.0002565418
3878 3849.31771 3828.12263 0.0002578649
3801 3849.48287 3827.93974 0.0002630887
3917 3849.91582 3827.75702 0.0002552974
3890 3850.6226 3827.57446 0.0002570694
3771 3851.60988 3827.39208 0.0002651816
3876 3852.8849 3827.20988 0.0002579979
3938 3854.45525 3827.02787 0.000253936
3897 3856.32867 3826.84604 0.0002566076
3733 3858.51272 3826.66442 0.0002678811
3759 3861.0144 3826.483 0.0002660282
3842 3863.83972 3826.30179 0.0002602811
3839 3866.99319 3826.1208 0.0002604845
3862 3870.47495 3825.94003 0.0002589332
3827 3874.28976 3825.75949 0.0002613013
3754 3878.43202 3825.57918 0.0002663825
3818 3882.89481 3825.39912 0.0002619172
3797 3887.66692 3825.2193 0.0002633658
3933 3892.7323 3825.03973 0.0002542588
3913 3898.06969 3824.86043 0.0002555584
3946 3903.65208 3824.68139 0.0002534212
3919 3909.44657 3824.50262 0.0002551671
3812 3915.41422 3824.32414 0.0002623295
3889 3921.50996 3824.14593 0.0002571355
3983 3927.68284 3823.96802 0.000251067
3847 3933.87612 3823.7904 0.0002599428
3831 3940.0279 3823.61308 0.0002610285
3817 3946.0716 3823.43607 0.0002619859
3874 3951.93658 3823.25938 0.0002581311
3762 3957.54923 3823.083 0.0002658161
3837 3962.83399 3822.90696 0.0002606203
3955 3967.71459 3822.73124 0.0002528445
3815 3972.11583 3822.55587 0.0002621232
3925 3975.96534 3822.38083 0.0002547771
4009 3979.19568 3822.20615 0.0002494388
3913 3981.74686 3822.03183 0.0002555584
3832 3983.56851 3821.85786 0.0002609603
3958 3984.62225 3821.68427 0.0002526529
4029 3984.88358 3821.51105 0.0002482005
3955 3984.34303 3821.33821 0.0002528445
4007 3983.0067 3821.16575 0.0002495633
4093 3980.89589 3820.99369 0.0002443196
3973 3978.04595 3820.82203 0.000251699
4077 3974.50439 3820.65077 0.0002452784
4043 3970.32885 3820.47992 0.0002473411
3905 3965.58457 3820.30948 0.0002560819
4002 3960.34222 3820.13946 0.0002498751
3920 3954.67553 3819.96987 0.000255102
4034 3948.65978 3819.80072 0.0002478929
3936 3942.36988 3819.632 0.000254065
3973 3935.87904 3819.46373 0.000251699
3973 3929.25784 3819.2959 0.000251699
3862 3922.57321 3819.12853 0.0002589332
3989 3915.88766 3818.96163 0.0002506894
3945 3909.25881 3818.79519 0.0002534854
3959 3902.73877 3818.62922 0.000252589
3930 3896.37401 3818.46373 0.0002544529
3863 3890.20497 3818.29872 0.0002588662
3959 3884.26602 3818.1342 0.000252589
3874 3878.5855 3817.97017 0.0002581311
3815 3873.18578 3817.80665 0.0002621232
3959 3868.08349 3817.64363 0.000252589
3781 3863.28975 3817.48112 0.0002644803
3862 3858.81061 3817.31913 0.0002589332
3915 3854.64747 3817.15766 0.0002554278
3789 3850.79754 3816.99671 0.0002639219
3833 3847.2544 3816.8363 0.0002608923
3794 3844.00852 3816.67643 0.0002635741
3798 3841.04785 3816.51709 0.0002632965
3793 3838.35833 3816.35831 0.0002636436
3821 3835.92439 3816.20008 0.0002617116
3849 3833.72946 3816.0424 0.0002598077
3739 3831.75638 3815.88529 0.0002674512
3853 3829.98778 3815.72875 0.000259538
3838 3828.40642 3815.57278 0.0002605524
3820 3826.99546 3815.41739 0.0002617801
3738 3825.73867 3815.26258 0.0002675227
3827 3824.62064 3815.10836 0.0002613013
3832 3823.62688 3814.95474 0.0002609603
3805 3822.74393 3814.80171 0.0002628121
3800 3821.9594 3814.64928 0.0002631579
3830 3821.26201 3814.49746 0.0002610966
3751 3820.64158 3814.34626 0.0002665956
3794 3820.08903 3814.19567 0.0002635741
3832 3819.59632 3814.0457 0.0002609603
3832 3819.15644 3813.89636 0.0002609603
3812 3818.76334 3813.74765 0.0002623295
3762 3818.4119 3813.59957 0.0002658161
3833 3818.09787 3813.45214 0.0002608923
3787 3817.81781 3813.30535 0.0002640613
3801 3817.56907 3813.15921 0.0002630887
3796 3817.34975 3813.01372 0.0002634352
3830 3817.15868 3812.86889 0.0002610966
3877 3816.99534 3812.72471 0.0002579314
3964 3816.85992 3812.58121 0.0002522704
3800 3816.75326 3812.43838 0.0002631579
3773 3816.67686 3812.29622 0.0002650411
3877 3816.63285 3812.15473 0.0002579314
3844 3816.62404 3812.01393 0.0002601457
3869 3816.65385 3811.87382 0.0002584647
3786 3816.72637 3811.7344 0.000264131
3791 3816.8463 3811.59567 0.0002637826
3755 3817.01895 3811.45764 0.0002663116
3804 3817.25022 3811.32031 0.0002628812
3856 3817.54657 3811.18369 0.0002593361
3705 3817.91492 3811.04777 0.0002699055
3762 3818.36263 3810.91257 0.0002658161
3880 3818.89738 3810.77808 0.000257732
3865 3819.52705 3810.64432 0.0002587322
3791 3820.25961 3810.51128 0.0002637826
3843 3821.10293 3810.37896 0.0002602134
3845 3822.06466 3810.24738 0.000260078
3737 3823.15195 3810.11653 0.0002675943
3787 3824.37129 3809.98641 0.0002640613
3784 3825.72826 3809.85704 0.0002642706
3820 3827.22729 3809.7284 0.0002617801
3883 3828.8714 3809.60052 0.0002575328
3849 3830.66196 3809.47338 0.0002598077
3945 3832.59845 3809.347 0.0002534854
3899 3834.67827 3809.22137 0.000256476
3895 3836.89644 3809.0965 0.0002567394
3931 3839.24555 3808.97239 0.0002543882
3792 3841.71553 3808.84904 0.0002637131
3844 3844.29361 3808.72646 0.0002601457
3922 3846.96425 3808.60465 0.000254972
3726 3849.70914 3808.48361 0.0002683843
3881 3852.50726 3808.36334 0.0002576656
3814 3855.33503 3808.24385 0.0002621919
3918 3858.16639 3808.12514 0.0002552323
3953 3860.97313 3808.00721 0.0002529724
3942 3863.7251 3807.89006 0.0002536783
3877 3866.39059 3807.7737 0.0002579314
3713 3868.93673 3807.65812 0.000269324
3937 3871.33003 3807.54334 0.0002540005
3892 3873.53693 3807.42934 0.0002569373
3710 3875.52456 3807.31614 0.0002695418
3757 3877.2615 3807.20374 0.0002661698
3822 3878.71873 3807.09213 0.0002616431
3985 3879.87063 3806.98132 0.000250941
3869 3880.69591 3806.87131 0.0002584647
3828 3881.17864 3806.7621 0.000261233
3901 3881.30897 3806.6537 0.0002563445
3758 3881.08366 3806.5461 0.000266099
3925 3880.50638 3806.4393 0.0002547771
3908 3879.5875 3806.33332 0.0002558854
3760 3878.34365 3806.22814 0.0002659574
3770 3876.79715 3806.12377 0.000265252
3828 3874.975 3806.02021 0.000261233
3923 3872.90797 3805.91747 0.000254907
3745 3870.62974 3805.81554 0.0002670227
3789 3868.17585 3805.71442 0.0002639219
3884 3865.58307 3805.61411 0.0002574665
3759 3862.88869 3805.51462 0.0002660282
3925 3860.12989 3805.41595 0.0002547771
3880 3857.34339 3805.31809 0.000257732
3723 3854.56497 3805.22106 0.0002686006
3702 3851.82922 3805.12483 0.0002701243
3855 3849.1692 3805.02943 0.0002594034
3855 3846.61635 3804.93484 0.0002594034
3729 3844.20019 3804.84108 0.0002681684
3845 3841.94828 3804.74813 0.000260078
3837 3839.8861 3804.65599 0.0002606203
3792 3838.03697 3804.56468 0.0002637131
3824 3836.42202 3804.47419 0.0002615063
3875 3835.06021 3804.38451 0.0002580645
3915 3833.96824 3804.29565 0.0002554278
3787 3833.16063 3804.20761 0.0002640613
3851 3832.64966 3804.12039 0.0002596728
3872 3832.44537 3804.03398 0.0002582645
3741 3832.55558 3803.94839 0.0002673082
3924 3832.98575 3803.86362 0.000254842
3916 3833.73899 3803.77966 0.0002553626
3832 3834.81596 3803.69651 0.0002609603
3792 3836.21472 3803.61418 0.0002637131
3856 3837.93062 3803.53265 0.0002593361
3903 3839.95618 3803.45194 0.0002562132
3880 3842.28092 3803.37204 0.000257732
3784 3844.89121 3803.29295 0.0002642706
3884 3847.77019 3803.21467 0.0002574665
3869 3850.89759 3803.13719 0.0002584647
3871 3854.24974 3803.06052 0.0002583312
3877 3857.79948 3802.98465 0.0002579314
3779 3861.51618 3802.90958 0.0002646203
3897 3865.36585 3802.83532 0.0002566076
4010 3869.31124 3802.76185 0.0002493766
3836 3873.31204 3802.68917 0.0002606882
3823 3877.32515 3802.6173 0.0002615747
3904 3881.305 3802.54621 0.0002561475
3870 3885.20395 3802.47592 0.0002583979
3814 3888.97285 3802.40641 0.0002621919
3791 3892.5615 3802.33769 0.0002637826
3840 3895.91954 3802.26975 0.0002604167
3851 3898.99714 3802.2026 0.0002596728
3968 3901.74615 3802.13622 0.0002520161
3904 3904.12117 3802.07062 0.0002561475
3827 3906.08087 3802.0058 0.0002613013
3730 3907.58939 3801.94174 0.0002680965
3766 3908.61771 3801.87846 0.0002655337
3864 3909.14476 3801.81593 0.0002587992
3841 3909.15854 3801.75418 0.0002603489
3828 3908.65656 3801.69318 0.000261233
3925 3907.64591 3801.63293 0.0002547771
3782 3906.14218 3801.57345 0.0002644104
3896 3904.17169 3801.51471 0.0002566735
3855 3901.76561 3801.45671 0.0002594034
3784 3898.96183 3801.39946 0.0002642706
3865 3895.80269 3801.34295 0.0002587322
3883 3892.33363 3801.28718 0.0002575328
3837 3888.60194 3801.23214 0.0002606203
3789 3884.6556 3801.17782 0.0002639219
3866 3880.5424 3801.12424 0.0002586653
3950 3876.30906 3801.07137 0.0002531646
3767 3872.00053 3801.01922 0.0002654632
3924 3867.65955 3800.96778 0.000254842
3889 3863.32599 3800.91705 0.0002571355
3875 3859.03666 3800.86702 0.0002580645
3863 3854.82487 3800.8177 0.0002588662
3846 3850.72024 3800.76907 0.0002600104
3908 3846.74856 3800.72113 0.0002558854
3909 3842.93173 3800.67388 0.0002558199
4010 3839.28769 3800.62731 0.0002493766
3943 3835.83059 3800.58141 0.000253614
3750 3832.57083 3800.53619 0.0002666667
3976 3829.51532 3800.49164 0.0002515091
4056 3826.66768 3800.44775 0.0002465483
3830 3824.02854 3800.40452 0.0002610966
3857 3821.59587 3800.36194 0.0002592689
3895 3819.36528 3800.32 0.0002567394
3981 3817.33037 3800.27871 0.0002511932
3874 3815.48312 3800.23806 0.0002581311
3856 3813.81418 3800.19804 0.0002593361
3867 3812.31321 3800.15864 0.0002585984
3841 3810.96919 3800.11987 0.0002603489
3868 3809.77069 3800.08171 0.0002585315
3893 3808.7061 3800.04416 0.0002568713
3866 3807.76391 3800.00721 0.0002586653
3825 3806.93279 3799.97086 0.0002614379
3768 3806.20183 3799.9351 0.0002653928
3880 3805.56063 3799.89992 0.000257732
3778 3804.99938 3799.86533 0.0002646903
3775 3804.50893 3799.83131 0.0002649007
3943 3804.08084 3799.79786 0.000253614
3781 3803.70738 3799.76497 0.0002644803
3775 3803.38155 3799.73263 0.0002649007
3760 3803.09704 3799.70084 0.0002659574
3874 3802.84824 3799.6696 0.0002581311
3904 3802.63017 3799.63889 0.0002561475
3762 3802.43845 3799.6087 0.0002658161
3856 3802.26926 3799.57904 0.0002593361
3795 3802.11928 3799.5499 0.0002635046
3787 3801.98567 3799.52126 0.0002640613
3895 3801.86596 3799.49313 0.0002567394
3740 3801.75808 3799.46549 0.0002673797
3722 3801.66025 3799.43834 0.0002686728
3798 3801.57099 3799.41167 0.0002632965
3891 3801.48905 3799.38547 0.0002570033
3840 3801.41339 3799.35974 0.0002604167
3830 3801.34314 3799.33447 0.0002610966
3883 3801.27757 3799.30965 0.0002575328
3781 3801.21609 3799.28528 0.0002644803
3758 3801.15822 3799.26134 0.000266099
3800 3801.10355 3799.23783 0.0002631579
3789 3801.05175 3799.21475 0.0002639219
3819 3801.00255 3799.19208 0.0002618487
3916 3800.95572 3799.16981 0.0002553626
3806 3800.91108 3799.14795 0.000262743
3850 3800.86849 3799.12648 0.0002597403
3935 3800.82782 3799.10539 0.0002541296
3907 3800.78897 3799.08468 0.0002559509
3755 3800.75186 3799.06434 0.0002663116
3839 3800.71643 3799.04435 0.0002604845
3793 3800.68263 3799.02472 0.0002636436
3630 3800.65044 3799.00544 0.0002754821
3856 3800.61982 3798.98648 0.0002593361
3809 3800.59077 3798.96786 0.0002625361
3828 3800.56331 3798.94956 0.000261233
3833 3800.53745 3798.93157 0.0002608923
3700 3800.51323 3798.91388 0.0002702703
3780 3800.49072 3798.89649 0.0002645503
3816 3800.46999 3798.87938 0.0002620545
3747 3800.45115 3798.86256 0.0002668802
3768 3800.43433 3798.846 0.0002653928
3769 3800.41971 3798.8297 0.0002653224
3755 3800.40749 3798.81366 0.0002663116
3764 3800.39791 3798.79786 0.0002656748
3716 3800.39128 3798.7823 0.0002691066
3805 3800.38795 3798.76696 0.0002628121
3753 3800.38834 3798.75185 0.0002664535
3893 3800.39293 3798.73694 0.0002568713
3745 3800.40229 3798.72224 0.0002670227
3863 3800.41706 3798.70772 0.0002588662
3867 3800.43799 3798.6934 0.0002585984
3768 3800.4659 3798.67924 0.0002653928
3829 3800.50173 3798.66526 0.0002611648
3806 3800.54653 3798.65143 0.000262743
3725 3800.60144 3798.63775 0.0002684564
3847 3800.66773 3798.62421 0.0002599428
3783 3800.74676 3798.6108 0.0002643405
3849 3800.84001 3798.59751 0.0002598077
3737 3800.94904 3798.58434 0.0002675943
3743 3801.07549 3798.57127 0.0002671654
3786 3801.22107 3798.55829 0.000264131
3753 3801.38755 3798.54541 0.0002664535
3728 3801.57671 3798.5326 0.0002682403
3906 3801.7903 3798.51985 0.0002560164
3787 3802.03005 3798.50717 0.0002640613
3796 3802.29761 3798.49454 0.0002634352
3760 3802.59449 3798.48195 0.0002659574
3922 3802.92205 3798.46939 0.000254972
3792 3803.2814 3798.45686 0.0002637131
3887 3803.67342 3798.44434 0.0002572678
3775 3804.09863 3798.43182 0.0002649007
3650 3804.55723 3798.41931 0.0002739726
3774 3805.04896 3798.40678 0.0002649709
3796 3805.57314 3798.39422 0.0002634352
3676 3806.12856 3798.38164 0.0002720348
3754 3806.71353 3798.36902 0.0002663825
3728 3807.32576 3798.35635 0.0002682403
3808 3807.96245 3798.34362 0.000262605
3752 3808.62019 3798.33083 0.0002665245
3800 3809.29505 3798.31796 0.0002631579
3746 3809.98255 3798.30501 0.0002669514
3730 3810.6777 3798.29196 0.0002680965
3797 3811.37506 3798.27882 0.0002633658
3893 3812.06879 3798.26556 0.0002568713
3784 3812.75272 3798.25218 0.0002642706
3681 3813.42041 3798.23868 0.0002716653
3874 3814.06531 3798.22503 0.0002581311
3859 3814.68081 3798.21125 0.0002591345
3775 3815.26044 3798.1973 0.0002649007
3906 3815.798 3798.1832 0.0002560164
3789 3816.28774 3798.16892 0.0002639219
3716 3816.7246 3798.15446 0.0002691066
3878 3817.10444 3798.13981 0.0002578649
3845 3817.42425 3798.12497 0.000260078
3723 3817.68241 3798.10992 0.0002686006
3841 3817.87886 3798.09465 0.0002603489
3790 3818.01529 3798.07917 0.0002638522
3935 3818.09524 3798.06345 0.0002541296
3874 3818.12411 3798.04749 0.0002581311
3860 3818.10908 3798.03128 0.0002590674
3840 3818.05908 3798.01482 0.0002604167
3722 3817.98456 3797.99809 0.0002686728
3939 3817.89733 3797.98109 0.0002538715
3803 3817.81032 3797.96382 0.0002629503
3715 3817.73739 3797.94625 0.000269179
3780 3817.69312 3797.92839 0.0002645503
3819 3817.69257 3797.91022 0.0002618487
3823 3817.7511 3797.89174 0.0002615747
3818 3817.88416 3797.87294 0.0002619172
3850 3818.10708 3797.85382 0.0002597403
3909 3818.4349 3797.83436 0.0002558199
3758 3818.88208 3797.81456 0.000266099
3775 3819.46233 3797.7944 0.0002649007
3825 3820.18836 3797.7739 0.0002614379
3779 3821.07164 3797.75302 0.0002646203
3776 3822.12218 3797.73178 0.0002648305
3821 3823.34825 3797.71016 0.0002617116
3915 3824.75619 3797.68815 0.0002554278
3774 3826.35015 3797.66575 0.0002649709
3800 3828.13188 3797.64296 0.0002631579
3956 3830.10058 3797.61975 0.0002527806
3765 3832.25269 3797.59614 0.0002656042
3807 3834.58177 3797.5721 0.000262674
3814 3837.0784 3797.54764 0.0002621919
3786 3839.73013 3797.52275 0.000264131
3876 3842.52145 3797.49742 0.0002579979
3927 3845.43381 3797.47165 0.0002546473
3919 3848.44571 3797.44542 0.0002551671
3809 3851.53279 3797.41874 0.0002625361
3853 3854.66804 3797.3916 0.000259538
3937 3857.822 3797.36399 0.0002540005
3807 3860.96298 3797.33591 0.000262674
3869 3864.05752 3797.30735 0.0002584647
3939 3867.07061 3797.27831 0.0002538715
3853 3869.96627 3797.24878 0.000259538
3803 3872.70807 3797.21875 0.0002629503
3874 3875.2597 3797.18823 0.0002581311
3890 3877.58573 3797.1572 0.0002570694
4001 3879.65239 3797.12567 0.0002499375
3905 3881.42842 3797.09362 0.0002560819
3968 3882.88594 3797.06105 0.0002520161
3859 3884.00135 3797.02797 0.0002591345
3905 3884.75609 3796.99436 0.0002560819
3842 3885.13727 3796.96022 0.0002602811
3937 3885.13818 3796.92554 0.0002540005
3892 3884.75848 3796.89033 0.0002569373
3866 3884.00418 3796.85458 0.0002586653
4014 3882.88742 3796.81829 0.0002491281
3897 3881.42593 3796.78145 0.0002566076
3984 3879.64245 3796.74406 0.000251004
3984 3877.5639 3796.70611 0.000251004
3910 3875.22056 3796.66761 0.0002557545
3937 3872.6452 3796.62856 0.0002540005
3968 3869.87222 3796.58894 0.0002520161
3859 3866.93688 3796.54876 0.0002591345
4015 3863.87455 3796.50802 0.000249066
3907 3860.72009 3796.46671 0.0002559509
4001 3857.50732 3796.42483 0.0002499375
3805 3854.2685 3796.38238 0.0002628121
3855 3851.03397 3796.33937 0.0002594034
4046 3847.83181 3796.29578 0.0002471577
3817 3844.6876 3796.25161 0.0002619859
3822 3841.62416 3796.20688 0.0002616431
3881 3838.66146 3796.16157 0.0002576656
3820 3835.8165 3796.11568 0.0002617801
3855 3833.10328 3796.06922 0.0002594034
3757 3830.5328 3796.02219 0.0002661698
3773 3828.11316 3795.97458 0.0002650411
3749 3825.84961 3795.92639 0.0002667378
3798 3823.74476 3795.87764 0.0002632965
3920 3821.7987 3795.82831 0.000255102
3737 3820.00855 3795.77841 0.0002675943
3743 3818.37152 3795.72794 0.0002671654
3837 3816.88086 3795.6769 0.0002606203
3812 3815.52903 3795.62529 0.0002623295
3660 3814.30722 3795.57312 0.000273224
3716 3813.20562 3795.52038 0.0002691066
3790 3812.21368 3795.46708 0.0002638522
3721 3811.32041 3795.41323 0.000268745
3797 3810.5146 3795.35882 0.0002633658
3793 3809.78507 3795.30386 0.0002636436
3799 3809.1209 3795.24835 0.0002632272
3824 3808.51169 3795.19229 0.0002615063
3882 3807.94768 3795.13569 0.0002575992
3748 3807.41996 3795.07855 0.000266809
3831 3806.92055 3795.02088 0.0002610285
3842 3806.44255 3794.96268 0.0002602811
3842 3805.98009 3794.90396 0.0002602811
3701 3805.52837 3794.84471 0.0002701972
3850 3805.08364 3794.78495 0.0002597403
3791 3804.64307 3794.72468 0.0002637826
3696 3804.20469 3794.66391 0.0002705628
3754 3803.76728 3794.60264 0.0002663825
3768 3803.33026 3794.54088 0.0002653928
3809 3802.89359 3794.47863 0.0002625361
3880 3802.45764 3794.41591 0.000257732
3839 3802.02318 3794.35271 0.0002604845
3821 3801.58989 3794.28905 0.0002617116
3722 3801.16156 3794.22493 0.0002686728
3732 3800.73819 3794.16036 0.0002679528
3916 3800.32114 3794.09535 0.0002553626
3823 3799.9118 3794.02991 0.0002615747
3882 3799.5115 3793.96405 0.0002575992
3795 3799.1215 3793.89777 0.0002635046
3754 3798.74295 3793.83108 0.0002663825
3777 3798.37686 3793.76399 0.0002647604
3719 3798.0241 3793.69652 0.0002688895
3753 3797.68536 3793.62867 0.0002664535
3812 3797.36119 3793.56045 0.0002623295
3802 3797.05192 3793.49188 0.0002630195
3865 3796.75775 3793.42295 0.0002587322
3757 3796.47869 3793.3537 0.0002661698
3720 3796.21462 3793.28412 0.0002688172
3844 3795.96528 3793.21422 0.0002601457
3813 3795.73026 3793.14403 0.0002622607
3764 3795.50909 3793.07355 0.0002656748
3831 3795.30119 3793.00279 0.0002610285
3858 3795.10591 3792.93177 0.0002592017
3771 3794.92256 3792.86049 0.0002651816
3796 3794.7504 3792.78898 0.0002634352
3830 3794.5887 3792.71725 0.0002610966
3630 3794.4367 3792.64531 0.0002754821
3722 3794.29366 3792.57317 0.0002686728
3795 3794.15887 3792.50085 0.0002635046
3814 3794.03163 3792.42837 0.0002621919
3752 3793.91131 3792.35573 0.0002665245
3731 3793.79728 3792.28296 0.0002680247
3880 3793.689 3792.21007 0.000257732
3855 3793.58597 3792.13707 0.0002594034
3695 3793.48775 3792.06399 0.000270636
3752 3793.39396 3791.99083 0.0002665245
3697 3793.30427 3791.91762 0.0002704896
3792 3793.21843 3791.84437 0.0002637131
3847 3793.13625 3791.77111 0.0002599428
3834 3793.05757 3791.69784 0.0002608242
3789 3792.98234 3791.62458 0.0002639219
3822 3792.91053 3791.55136 0.0002616431
3791 3792.84221 3791.47819 0.0002637826
3804 3792.77745 3791.4051 0.0002628812
3730 3792.71647 3791.33209 0.0002680965
3831 3792.65946 3791.2592 0.0002610285
3678 3792.6067 3791.18644 0.0002718869
3751 3792.55858 3791.11382 0.0002665956
3794 3792.51545 3791.04138 0.0002635741
3818 3792.47777 3790.96913 0.0002619172
3830 3792.4461 3790.89709 0.0002610966
3790 3792.42093 3790.82529 0.0002638522
3831 3792.40287 3790.75374 0.0002610285
3722 3792.39261 3790.68247 0.0002686728
3821 3792.39077 3790.61149 0.0002617116
3743 3792.39803 3790.54084 0.0002671654
3702 3792.41523 3790.47054 0.0002701243
3922 3792.44297 3790.4006 0.000254972
3833 3792.48198 3790.33105 0.0002608923
3637 3792.53313 3790.26192 0.0002749519
3828 3792.59695 3790.19323 0.000261233
3759 3792.67417 3790.125 0.0002660282
3873 3792.76532 3790.05726 0.0002581978
3785 3792.87118 3789.99002 0.0002642008
3724 3792.99203 3789.92333 0.0002685285
3876 3793.12826 3789.8572 0.0002579979
3782 3793.28047 3789.79166 0.0002644104
3828 3793.44864 3789.72673 0.000261233
3846 3793.63301 3789.66244 0.0002600104
3747 3793.83366 3789.59882 0.0002668802
3724 3794.05059 3789.53589 0.0002685285
3670 3794.28373 3789.47368 0.0002724796
3865 3794.53297 3789.41222 0.0002587322
3786 3794.79816 3789.35153 0.000264131
3848 3795.07917 3789.29165 0.0002598753
3907 3795.37589 3789.23259 0.0002559509
3711 3795.68831 3789.1744 0.0002694691
3673 3796.01649 3789.11709 0.000272257
3866 3796.36069 3789.06069 0.0002586653
3839 3796.72135 3789.00525 0.0002604845
3839 3797.09918 3788.95077 0.0002604845
3753 3797.49519 3788.8973 0.0002664535
4002 3797.91077 3788.84486 0.0002498751
3865 3798.34773 3788.79349 0.0002587322
3781 3798.80834 3788.7432 0.0002644803
3769 3799.29543 3788.69404 0.0002653224
3758 3799.81239 3788.64604 0.000266099
3858 3800.36328 3788.59921 0.0002592017
3794 3800.95281 3788.5536 0.0002635741
3782 3801.58636 3788.50924 0.0002644104
3743 3802.27002 3788.46616 0.0002671654
3770 3803.0105 3788.42438 0.000265252
3798 3803.81508 3788.38395 0.0002632965
3739 3804.69144 3788.34489 0.0002674512
3700 3805.6476 3788.30723 0.0002702703
3794 3806.69161 3788.271 0.0002635741
3714 3807.83142 3788.23625 0.0002692515
3871 3809.07458 3788.203 0.0002583312
3831 3810.42752 3788.17128 0.0002610285
3795 3811.89726 3788.14113 0.0002635046
3805 3813.48818 3788.11258 0.0002628121
3790 3815.20378 3788.08566 0.0002638522
3858 3817.0459 3788.0604 0.0002592017
3857 3819.01457 3788.03685 0.0002592689
3801 3821.10781 3788.01502 0.0002630887
3924 3823.31886 3787.99496 0.000254842
3724 3825.64635 3787.97671 0.0002685285
3824 3828.07883 3787.96028 0.0002615063
3887 3830.60494 3787.94572 0.0002572678
3869 3833.21081 3787.93306 0.0002584647
3896 3835.88018 3787.92233 0.0002566735
3959 3838.59436 3787.91358 0.000252589
3897 3841.3324 3787.90682 0.0002566076
3756 3844.07125 3787.9021 0.0002662407
3850 3846.78588 3787.89945 0.0002597403
3912 3849.44969 3787.8989 0.0002556237
3762 3852.03462 3787.90049 0.0002658161
4030 3854.51159 3787.90425 0.000248139
3970 3856.85099 3787.91022 0.0002518892
3839 3859.023 3787.91843 0.0002604845
3880 3860.99831 3787.92891 0.000257732
3821 3862.74867 3787.94169 0.0002617116
3902 3864.24767 3787.95682 0.0002562788
3808 3865.47152 3787.97433 0.000262605
3803 3866.39982 3787.99424 0.0002629503
3948 3867.01621 3788.01659 0.0002532928
3846 3867.30935 3788.04142 0.0002600104
3862 3867.27309 3788.06876 0.0002589332
3848 3866.90671 3788.09864 0.0002598753
3787 3866.21529 3788.13109 0.0002640613
3866 3865.20912 3788.16615 0.0002586653
3917 3863.90331 3788.20385 0.0002552974
3834 3862.31731 3788.24423 0.0002608242
3710 3860.47404 3788.28731 0.0002695418
3849 3858.39908 3788.33313 0.0002598077
3917 3856.12011 3788.38172 0.0002552974
3806 3853.66596 3788.43311 0.000262743
3798 3851.0661 3788.48733 0.0002632965
3893 3848.35008 3788.54442 0.0002568713
3834 3845.54709 3788.6044 0.0002608242
3826 3842.68543 3788.66731 0.0002613696
3916 3839.79227 3788.73317 0.0002553626
3932 3836.89334 3788.80202 0.0002543235
3866 3834.01267 3788.87388 0.0002586653
3780 3831.17238 3788.9488 0.0002645503
3938 3828.39256 3789.02678 0.000253936
3710 3825.6911 3789.10787 0.0002695418
3820 3823.08363 3789.19208 0.0002617801
3878 3820.58349 3789.27946 0.0002578649
3884 3818.20171 3789.37002 0.0002574665
3863 3815.94708 3789.46379 0.0002588662
3851 3813.82615 3789.5608 0.0002596728
3913 3811.8434 3789.66108 0.0002555584
3872 3810.00133 3789.76465 0.0002582645
3878 3808.30062 3789.87153 0.0002578649
3876 3806.74028 3789.98175 0.0002579979
3713 3805.31785 3790.09533 0.000269324
3825 3804.02962 3790.21229 0.0002614379
3841 3802.87074 3790.33267 0.0002603489
3774 3801.83549 3790.45647 0.0002649709
3862 3800.91743 3790.58373 0.0002589332
3837 3800.1096 3790.71445 0.0002606203
3868 3799.40465 3790.84867 0.0002585315
3707 3798.79503 3790.9864 0.0002697599
3805 3798.27311 3791.12765 0.0002628121
3843 3797.83131 3791.27245 0.0002602134
3761 3797.4622 3791.42081 0.0002658867
3847 3797.15861 3791.57275 0.0002599428
3884 3796.91364 3791.72828 0.0002574665
3804 3796.72082 3791.88742 0.0002628812
3824 3796.57405 3792.05018 0.0002615063
3790 3796.46772 3792.21657 0.0002638522
3884 3796.39668 3792.38661 0.0002574665
3732 3796.35628 3792.5603 0.0002679528
3696 3796.34236 3792.73765 0.0002705628
3929 3796.35125 3792.91867 0.0002545177
3774 3796.37772 3793.10337 0.0002649709
3767 3796.42304 3793.29176 0.0002654632
3793 3796.48287 3793.48384 0.0002636436
3739 3796.55526 3793.67961 0.0002674512
3776 3796.63859 3793.87907 0.0002648305
3740 3796.73158 3794.08224 0.0002673797
3863 3796.83319 3794.2891 0.0002588662
3742 3796.94263 3794.49966 0.0002672368
3784 3797.05931 3794.71392 0.0002642706
3839 3797.18278 3794.93186 0.0002604845
3793 3797.31275 3795.1535 0.0002636436
3702 3797.44902 3795.37881 0.0002701243
3763 3797.5915 3795.60779 0.0002657454
3877 3797.74013 3795.84044 0.0002579314
3745 3797.89494 3796.07674 0.0002670227
3791 3798.05595 3796.31668 0.0002637826
3846 3798.22323 3796.56024 0.0002600104
3771 3798.39685 3796.80741 0.0002651816
3759 3798.57687 3797.05818 0.0002660282
3803 3798.76335 3797.31252 0.0002629503
3716 3798.95634 3797.57041 0.0002691066
3879 3799.15587 3797.83184 0.0002577984
3836 3799.36195 3798.09677 0.0002606882
3860 3799.57457 3798.36518 0.0002590674
3776 3799.79368 3798.63705 0.0002648305
3694 3800.01923 3798.91234 0.0002707093
3805 3800.25114 3799.19102 0.0002628121
3784 3800.48931 3799.47306 0.0002642706
3763 3800.73361 3799.75843 0.0002657454
3861 3800.98391 3800.04707 0.0002590003
3797 3801.23864 3800.33897 0.0002633658
3863 3801.50047 3800.63406 0.0002588662
3911 3801.76781 3800.93232 0.0002556891
3785 3802.04048 3801.23369 0.0002642008
3758 3802.31828 3801.53812 0.000266099
3689 3802.60104 3801.84556 0.0002710762
3828 3802.88855 3802.15596 0.000261233
3671 3803.18063 3802.46927 0.0002724053
3647 3803.47709 3802.78542 0.000274198
3883 3803.77774 3803.10435 0.0002575328
3724 3804.08239 3803.42601 0.0002685285
3803 3804.39086 3803.75031 0.0002629503
3804 3804.70298 3804.0772 0.0002628812
3801 3805.01858 3804.40661 0.0002630887
3830 3805.3375 3804.73846 0.0002610966
3738 3805.65956 3805.07266 0.0002675227
3846 3805.98461 3805.40915 0.0002600104
3787 3806.3125 3805.74784 0.0002640613
3856 3806.64309 3806.08864 0.0002593361
3796 3806.97622 3806.43146 0.0002634352
3732 3807.31175 3806.77622 0.0002679528
3766 3807.64954 3807.12281 0.0002655337
3818 3807.98945 3807.47114 0.0002619172
3760 3808.33135 3807.8211 0.0002659574
3847 3808.6751 3808.1726 0.0002599428
3707 3809.02056 3808.52552 0.0002697599
3830 3809.3676 3808.87975 0.0002610966
3811 3809.71608 3809.23517 0.0002623983
3859 3810.06586 3809.59167 0.0002591345
3859 3810.41681 3809.94912 0.0002591345
3747 3810.76878 3810.30739 0.0002668802
3832 3811.12162 3810.66636 0.0002609603
3807 3811.47521 3811.0259 0.000262674
3754 3811.82937 3811.38586 0.0002663825
3845 3812.18398 3811.7461 0.000260078
3877 3812.53886 3812.10647 0.0002579314
3836 3812.89387 3812.46684 0.0002606882
3769 3813.24885 3812.82703 0.0002653224
3849 3813.60363 3813.1869 0.0002598077
3933 3813.95803 3813.54627 0.0002542588
3783 3814.3119 3813.905 0.0002643405
3765 3814.66505 3814.26289 0.0002656042
3849 3815.01731 3814.61978 0.0002598077
3747 3815.36848 3814.97548 0.0002668802
3767 3815.71838 3815.32981 0.0002654632
3846 3816.06682 3815.68258 0.0002600104
3835 3816.4136 3816.0336 0.0002607562
3722 3816.75852 3816.38266 0.0002686728
3879 3817.10136 3816.72956 0.0002577984
3835 3817.44191 3817.07408 0.0002607562
3848 3817.77997 3817.41603 0.0002598753
3877 3818.11529 3817.75516 0.0002579314
3960 3818.44767 3818.09127 0.0002525253
3840 3818.77685 3818.42411 0.0002604167
3780 3819.10261 3818.75345 0.0002645503
loop_
_refln_index_h
_refln_index_k
_refln_index_l
_refln_F_squared_meas
_refln_F_squared_calc
_refln_phase_calc
_pd_refln_d_spacing
_gsas_i100_meas
0 0 1 13610.3078 12915.1725 -180.0 11.258 100.00
0 0 2 11319.1513 10210.6532 -0.0 5.629 20.70
1 1 1 5796.9036 5265.3430 -180.0 4.706 23.60
1 1 2 1727.2028 1885.0550 180.0 3.812 4.92
0 2 0 32154.7321 30430.9693 180.0 3.769 19.92
0 0 3 13079.2216 13043.4819 -180.0 3.753 10.49
0 2 1 7833.0488 7295.4257 0.0 3.574 8.92
2 0 0 4912.3143 4103.0541 180.0 3.566 2.72
2 0 1 10834.1264 9672.5887 -0.0 3.400 11.11
0 2 2 1492.6891 804.7143 -180.0 3.132 1.37
1 1 3 25.2884 14.4025 -0.0 3.039 0.05
2 0 2 6924.6271 6920.2407 -180.0 3.012 5.81
0 0 4 175.0155 231.6625 -0.0 2.815 0.08
0 2 3 232.3243 491.1866 0.0 2.659 0.16
2 2 0 1174.0325 1167.2503 0.0 2.590 0.67
2 0 3 2786.3151 2819.3379 -0.0 2.585 1.78
2 2 1 1105.3251 563.4731 180.0 2.524 1.21
1 1 4 3050.7368 1881.4849 180.0 2.473 3.86
2 2 2 1853.0183 962.7989 -0.0 2.353 1.80
1 3 1 896.5844 171.5508 0.0 2.319 0.82
0 2 4 272.0917 255.5076 180.0 2.255 0.14
0 0 5 17031.2800 16624.9371 180.0 2.252 4.72
3 1 1 1525.7122 796.5812 -0.0 2.223 1.27
2 0 4 5256.0694 5991.0880 180.0 2.209 2.51
1 3 2 93.9618 94.6647 -180.0 2.184 0.08
2 2 3 735.5853 463.9451 180.0 2.132 0.60
3 1 2 779.3219 537.4956 180.0 2.103 0.59
1 1 5 985.9471 1895.9657 0.0 2.065 0.87
1 3 3 384.0380 804.4986 180.0 2.004 0.27
3 1 3 1584.4144 773.5677 0.0 1.941 1.05
0 2 5 3701.0146 2531.7922 -0.0 1.933 1.38
2 2 4 405.3565 548.1962 -0.0 1.906 0.27
2 0 5 4195.9432 5290.0283 -0.0 1.904 1.50
0 4 0 13589.2580 10290.9875 -0.0 1.884 1.98
0 0 6 5783.5525 5608.7252 0.0 1.876 1.09
0 4 1 10626.8824 9258.4814 -180.0 1.859 3.03
1 3 4 639.1220 506.2299 0.0 1.813 0.38
0 4 2 3030.9397 2346.1802 0.0 1.787 0.81
4 0 0 6997.7224 5149.1798 0.0 1.783 0.91
3 1 4 89.2286 58.3697 -0.0 1.766 0.05
1 1 6 100.0510 66.6378 -0.0 1.764 0.06
4 0 1 7101.1990 4861.8962 -180.0 1.761 1.80
3 3 1 295.1849 313.2031 180.0 1.707 0.14
4 0 2 3298.0289 3554.2418 0.0 1.700 0.79
2 2 5 1892.2345 1997.0944 180.0 1.699 1.03
0 4 3 919.9801 1209.8175 180.0 1.684 0.22
0 2 6 1169.0574 2053.4292 -180.0 1.680 0.33
2 4 0 2362.7211 1842.3993 180.0 1.666 0.53
2 0 6 4433.2455 4100.1243 180.0 1.661 1.21
3 3 2 384.3244 296.1124 -0.0 1.651 0.17
2 4 1 3144.5234 2115.6052 -0.0 1.648 1.39
1 3 5 243.7016 385.6593 -180.0 1.632 0.12
4 2 0 1558.7464 1160.4378 180.0 1.612 0.33
4 0 3 4935.7037 3560.6680 -180.0 1.611 1.08
0 0 7 1729.7921 1271.0041 -180.0 1.608 0.24
3 1 5 1.9360 1.3284 -180.0 1.598 0.00
2 4 2 2730.3434 1863.7165 180.0 1.598 1.15
4 2 1 2761.2574 1643.9723 0.0 1.595 1.14
3 3 3 229.6621 281.6402 -180.0 1.569 0.10
0 4 4 1102.8714 2213.6637 -0.0 1.566 0.24
4 2 2 1363.6461 927.4135 -180.0 1.550 0.54
1 1 7 16.5595 8.3217 180.0 1.536 0.01
2 4 3 969.4721 1178.1905 -0.0 1.523 0.38
2 2 6 1407.3517 1115.6159 -0.0 1.520 0.62
4 0 4 3538.4526 2337.3834 0.0 1.506 0.69
4 2 3 2468.1178 908.5920 0.0 1.481 0.90
0 2 7 833.3885 320.7969 0.0 1.479 0.18
3 3 4 20.6798 13.4622 180.0 1.472 0.01
1 3 6 69.3134 51.6751 0.0 1.471 0.03
2 0 7 3526.6035 3523.8745 -0.0 1.466 0.76
1 5 1 67.0969 56.7316 -180.0 1.462 0.02
3 1 6 112.5501 86.4059 -180.0 1.446 0.04
0 4 5 2133.6964 1708.3442 180.0 1.445 0.40
2 4 4 2066.5958 1471.5007 180.0 1.434 0.73
1 5 2 0.2723 0.0364 0.0 1.427 0.00
0 0 8 1880.7934 835.1624 0.0 1.407 0.20
4 2 4 1267.4662 793.7025 -180.0 1.399 0.42
4 0 5 1664.0935 1026.3495 -180.0 1.398 0.29
5 1 1 346.1482 124.1721 -180.0 1.391 0.11
1 5 3 428.0297 114.9379 -0.0 1.373 0.13
3 3 5 1.2774 0.5640 0.0 1.370 0.00
2 2 7 2128.0296 1113.5243 180.0 1.366 0.77
5 1 2 19.0751 3.3045 180.0 1.360 0.01
1 1 8 141.1457 17.0968 -0.0 1.358 0.05
