#------------------------------------------------------------------------------
#$Date: 2021-04-01 01:29:33 +0300 (Thu, 01 Apr 2021) $
#$Revision: 263499 $
#$URL: file:///home/coder/svn-repositories/cod/cif/4/00/38/4003898.cif $
#------------------------------------------------------------------------------
#
# This file is available in the Crystallography Open Database (COD),
# http://www.crystallography.net/
#
# All data on this site have been placed in the public domain by the
# contributors.
#
data_4003898
loop_
_publ_author_name
'M\;aczka, Miros\/law'
'Zar\;eba, Jan K.'
'G\;agor, Anna'
'Stefa\'nska, Dagmara'
'Ptak, Maciej'
'Roleder, Krystian'
'Kajewski, Dariusz'
'Soszy\'nski, Andrzej'
'Fedoruk, Katarzyna'
'Sieradzki, Adam'
_publ_section_title
;
 [Methylhydrazinium]2PbBr4, a Ferroelectric Hybrid Organic--Inorganic
 Perovskite with Multiple Nonlinear Optical Outputs
;
_journal_name_full               'Chemistry of Materials'
_journal_paper_doi               10.1021/acs.chemmater.0c04440
_journal_year                    2021
_chemical_formula_moiety         'Br4 Pb, 2(C H5 N2)'
_chemical_formula_sum            'C2 H14 Br4 N4 Pb'
_chemical_formula_weight         621.00
_space_group_crystal_system      orthorhombic
_space_group_IT_number           59
_space_group_name_Hall           '-P 2c 2a'
_space_group_name_H-M_alt        'P m n m :2'
_atom_sites_solution_hydrogens   geom
_audit_creation_method           SHELXL-2018/3
_cell_angle_alpha                90
_cell_angle_beta                 90
_cell_angle_gamma                90
_cell_formula_units_Z            2
_cell_length_a                   18.0557(12)
_cell_length_b                   6.0554(3)
_cell_length_c                   6.0295(3)
_cell_measurement_reflns_used    2725
_cell_measurement_temperature    360.2(3)
_cell_measurement_theta_max      29.3040
_cell_measurement_theta_min      4.0200
_cell_volume                     659.23(6)
_computing_cell_refinement       'CrysAlisPro 1.171.38.46 (Rigaku OD, 2015)'
_computing_data_collection       'CrysAlisPro 1.171.38.46 (Rigaku OD, 2015)'
_computing_data_reduction        'CrysAlisPro 1.171.38.46 (Rigaku OD, 2015)'
_computing_structure_refinement  'SHELXL-2018/3 (Sheldrick, 2018)'
_computing_structure_solution    'SHELXT 2018/2 (Sheldrick, 2018)'
_diffrn_ambient_environment      air
_diffrn_ambient_temperature      360.2(3)
_diffrn_detector                 'CCD plate'
_diffrn_detector_area_resol_mean 10.6249
_diffrn_detector_type            Atlas
_diffrn_measured_fraction_theta_full 0.997
_diffrn_measured_fraction_theta_max 0.997
_diffrn_measurement_device       'four-circle diffractometer'
_diffrn_measurement_device_type  'Xcalibur, Atlas'
_diffrn_radiation_monochromator  graphite
_diffrn_radiation_probe          x-ray
_diffrn_radiation_type           'Mo K\a'
_diffrn_radiation_wavelength     0.71073
_diffrn_reflns_av_R_equivalents  0.0394
_diffrn_reflns_av_unetI/netI     0.0279
_diffrn_reflns_Laue_measured_fraction_full 0.997
_diffrn_reflns_Laue_measured_fraction_max 0.997
_diffrn_reflns_limit_h_max       22
_diffrn_reflns_limit_h_min       -20
_diffrn_reflns_limit_k_max       7
_diffrn_reflns_limit_k_min       -7
_diffrn_reflns_limit_l_max       7
_diffrn_reflns_limit_l_min       -6
_diffrn_reflns_number            3934
_diffrn_reflns_point_group_measured_fraction_full 0.997
_diffrn_reflns_point_group_measured_fraction_max 0.997
_diffrn_reflns_theta_full        25.679
_diffrn_reflns_theta_max         25.679
_diffrn_reflns_theta_min         3.364
_diffrn_source                   'fine-focus sealed X-ray tube'
_diffrn_source_type              'Enhance (Mo) X-ray Source'
_exptl_absorpt_coefficient_mu    24.881
_exptl_absorpt_correction_T_max  0.421
_exptl_absorpt_correction_T_min  0.042
_exptl_absorpt_correction_type   gaussian
_exptl_absorpt_process_details
;
CrysAlisPro 1.171.38.46 (Rigaku Oxford Diffraction, 2015)
Numerical absorption correction based on gaussian integration over
			a multifaceted crystal model
Empirical absorption correction using spherical harmonics,
 implemented in SCALE3 ABSPACK scaling algorithm.
;
_exptl_crystal_density_diffrn    3.128
_exptl_crystal_description       plate
_exptl_crystal_F_000             552
_exptl_crystal_size_max          0.315
_exptl_crystal_size_mid          0.273
_exptl_crystal_size_min          0.114
_refine_diff_density_max         1.416
_refine_diff_density_min         -2.121
_refine_diff_density_rms         0.477
_refine_ls_extinction_method     none
_refine_ls_goodness_of_fit_ref   1.179
_refine_ls_hydrogen_treatment    constr
_refine_ls_matrix_type           full
_refine_ls_number_parameters     41
_refine_ls_number_reflns         721
_refine_ls_number_restraints     2
_refine_ls_restrained_S_all      1.179
_refine_ls_R_factor_all          0.0487
_refine_ls_R_factor_gt           0.0455
_refine_ls_shift/su_max          0.000
_refine_ls_shift/su_mean         0.000
_refine_ls_structure_factor_coef Fsqd
_refine_ls_weighting_details
'w=1/[\s^2^(Fo^2^)+(0.0950P)^2^] where P=(Fo^2^+2Fc^2^)/3'
_refine_ls_weighting_scheme      calc
_refine_ls_wR_factor_gt          0.1335
_refine_ls_wR_factor_ref         0.1362
_reflns_Friedel_coverage         0.000
_reflns_number_gt                673
_reflns_number_total             721
_reflns_threshold_expression     'I > 2\s(I)'
_cod_data_source_file            cm0c04440_si_003.cif
_cod_data_source_block           II
_cod_original_sg_symbol_H-M      'P m n m'
_cod_database_code               4003898
_shelx_shelxl_version_number     2018/3
_shelx_space_group_comment
;
The symmetry employed for this shelxl refinement is uniquely defined
by the following loop, which should always be used as a source of
symmetry information in preference to the above space-group names.
They are only intended as comments.
;
_oxdiff_exptl_absorpt_empirical_full_min 0.829
_oxdiff_exptl_absorpt_empirical_full_max 1.238
_oxdiff_exptl_absorpt_empirical_details
;
Empirical correction (ABSPACK) includes:
- Absorption correction using spherical harmonics
- Frame scaling
;
_shelx_res_file
;
TITL mhy_pbbr3_ht_2_360_00_a.res in Pmmn
    centro.res
    created by SHELXL-2018/3 at 14:48:08 on 15-Jun-2020
REM Old TITL MHy_PbBr3_HT_2_360_00 in Pmn2(1)
REM SHELXT solution in Pmmn: R1 0.134, Rweak 0.063, Alpha 0.021
REM <I/s> 2.458 for 75 systematic absences, Orientation a'=c, b'=a, c'=b
REM Formula found by SHELXT: Pb Br4
CELL 0.71073 18.0557  6.0554 6.0295 90 90 90

ZERR 2 0.0012 0.0003 0.0003 0 0 0
LATT 1
SYMM 0.5-X,+y, 0.5-z
SYMM -X,-y,0.5+z
SYMM 0.5+X,-Y,-Z
SFAC C H N Br Pb
UNIT 4 28 8 8 2
DFIX 1.4  n2 c3 n2 n1
omit 3 0 1
acta 56
L.S. 25 0 0
PLAN  20
list 4
fmap 2 53
shel 10. 0.82
eqiv  $6   x,  y, -z+1/2
free C3 N2_$6
free n2 N2_$6
bond $H
htab
EQIV $7 -x, -y+1 , -z
HTAB N2 N1_$7
HTAB N2 Br1
WGHT    0.095000
FVAR       0.24855   0.51074
PB1   5    0.250000    0.918522    0.750000    10.25000    0.04392    0.03011 =
         0.02850    0.00000    0.00000    0.00000
BR1   4    0.250000    0.869515    0.250000    10.25000    0.08935    0.06228 =
         0.02909    0.00000    0.00000    0.00000
BR2   4    0.084934    0.908287    0.750000    10.50000    0.04722    0.07954 =
         0.08474    0.00000    0.00000    0.00425
BR3   4    0.250000    0.428802    0.750000    10.25000    0.14799    0.03014 =
         0.07098    0.00000    0.00000    0.00000

N1    3    0.025952    0.639311    0.250000    10.50000    0.23328    0.09581 =
         0.11434    0.00000    0.00000    0.07172
N2    3    0.086049    0.532382    0.160317    10.50000    0.14664    0.12362 =
         0.10079    0.05797    0.01509   -0.02247
AFIX  23
H2A   2    0.122088    0.632285    0.151690    10.50000   -1.20000
H2B   2    0.073726    0.498970    0.021392    10.50000   -1.20000
AFIX   0

C3    1    0.118133    0.341999    0.250000    10.50000    0.07509    0.07983 =
         0.09340    0.00000    0.00000    0.00643
AFIX 133
H3A   2    0.086248    0.217850    0.223768    10.50000   -1.50000
H3B   2    0.124893    0.361208    0.406742    10.50000   -1.50000
H3C   2    0.165273    0.316291    0.181034    10.50000   -1.50000
AFIX   0
HKLF 4 1 1 0 0 0 0 -1 0 1 0




REM  mhy_pbbr3_ht_2_360_00_a.res in Pmmn
REM wR2 = 0.1362, GooF = S = 1.179, Restrained GooF = 1.179 for all data
REM R1 = 0.0455 for 673 Fo > 4sig(Fo) and 0.0487 for all 721 data
REM 41 parameters refined using 2 restraints

END

WGHT      0.1033      0.0000

REM Instructions for potential hydrogen bonds
HTAB N2 Br1
HTAB N2 N1_$7
HTAB C3 Br3
EQIV $2 x, y-1, z
HTAB C3 Br1_$2
EQIV $1 x, y, z-1
HTAB C3 Br3_$1

REM Highest difference peak  1.416,  deepest hole -2.121,  1-sigma level  0.477
Q1    1   0.2500  0.7127  0.4978  10.50000  0.05    1.42
Q2    1   0.2500  1.0227  0.9066  10.50000  0.05    1.35
Q3    1   0.2500  0.1894  0.0195  10.50000  0.05    1.30
Q4    1   0.2500  1.0508  1.0074  10.50000  0.05    1.26
Q5    1   0.2500  0.3194  0.5052  10.50000  0.05    1.26
Q6    1   0.2500  0.7967  0.9251  10.50000  0.05    1.26
Q7    1   0.2500  0.4634  0.4599  10.50000  0.05    1.25
Q8    1   0.2500  0.5012  0.5536  10.50000  0.05    1.15
Q9    1   0.0839  1.0099  0.6171  11.00000  0.05    0.97
Q10   1   0.0801  0.8234  0.5297  11.00000  0.05    0.86
Q11   1   0.0917  0.6850  0.0305  11.00000  0.05    0.84
Q12   1   0.0932  0.1142 -0.0033  11.00000  0.05    0.83
Q13   1   0.0860  0.6917  0.0767  11.00000  0.05    0.82
Q14   1   0.0781  0.9874  0.5038  11.00000  0.05    0.81
Q15   1   0.1634  0.1226  0.0212  11.00000  0.05    0.81
Q16   1   0.0827  0.1762  0.0312  11.00000  0.05    0.80
Q17   1   0.0972  0.6210 -0.0369  11.00000  0.05    0.78
Q18   1   0.1655  0.6881 -0.0032  11.00000  0.05    0.76
Q19   1   0.0776  0.4163 -0.0376  11.00000  0.05    0.76
Q20   1   0.3030  1.0027  0.7500  10.50000  0.05    0.66
;
_shelx_res_checksum              65680
_shelx_hkl_file
;
 -17   0   0    0.83    2.24
 -11   0   0   10.60    4.85
 -10   0   0  953.82   27.38
  -9   0   0   27.63    6.12
  -8   0   0 2099.79   37.21
  -7   0   0    2.34    3.95
  -6   0   0 9999.00   76.44
  -5   0   0    3.16    3.55
  -4   0   0 2286.37   32.64
  -3   0   0  110.92    7.03
   3   0   0  128.00    7.72
   4   0   0 2099.91   30.73
   5   0   0    3.30    3.68
   6   0   0 9253.01   74.00
   7   0   0    4.57    4.68
   8   0   0 2008.97   36.84
   9   0   0   28.75    7.06
  10   0   0  908.76   26.41
  11   0   0    1.82    4.87
  12   0   0 3172.36   50.92
  13   0   0    6.57    5.27
  14   0   0  509.74   20.53
  15   0   0    1.71    4.98
  16   0   0  162.31   12.42
  17   0   0    4.85    5.44
  18   0   0  620.29   23.86
  19   0   0    1.61    5.13
  20   0   0   87.84    9.89
  21   0   0    4.14    5.28
  22   0   0   28.43    6.95
  23   0   0    5.47    5.39
 -16   0  -1   45.40    2.06
 -15   0  -1    6.47    1.07
 -14   0  -1  125.79    3.79
 -13   0  -1  227.89    4.97
 -12   0  -1  775.22    8.78
 -11   0  -1  207.64    4.23
 -11   0   1  326.60   15.09
 -10   0  -1  123.79    9.44
 -10   0   1  136.57    9.61
  -9   0  -1   21.36    4.09
  -9   0   1   24.25    4.26
  -8   0  -1  192.46   10.48
  -8   0   1  201.40    9.29
  -7   0  -1  395.65   13.31
  -7   0   1  383.50   11.20
  -6   0  -1 1828.18   21.76
  -6   0  -1 1816.18   24.85
  -6   0   1 1754.40   20.88
  -5   0  -1  957.24   13.33
  -5   0  -1  969.23   15.72
  -4   0  -1  286.53    6.11
  -4   0   1  289.55    5.75
  -4   0  -1  291.63    7.18
  -3   0  -1   36.80    2.26
  -3   0   1   37.84    1.72
  -3   0  -1   43.08    2.11
  -2   0   1  522.96    5.25
  -2   0  -1  505.04    5.66
  -1   0   1  833.54    5.93
  -1   0  -1  856.63    6.47
   0   0  -1 1643.92    8.42
   0   0   1 1523.75    7.81
   1   0  -1  833.82    5.89
   1   0   1  662.58    5.72
   2   0   1  536.96    6.38
   2   0   1  511.87    5.66
   2   0  -1  524.48    5.26
   3   0  -1   43.54    1.97
   3   0   1   41.06    2.14
   3   0   1   35.52    2.33
   3   0  -1   37.88    1.77
   4   0  -1  312.56    6.15
   4   0  -1  285.53    5.43
   4   0   1  293.12    7.40
   5   0   1  970.02   15.74
   5   0  -1  952.40   12.15
   6   0   1 1738.47   23.97
   6   0  -1 1766.65   19.57
   7   0   1  380.98   12.69
   7   0  -1  395.18   10.94
   8   0  -1  202.78    9.08
   8   0   1  207.37   10.73
   9   0   1   21.49    4.34
   9   0  -1   25.98    4.32
  10   0  -1  123.90    8.39
  10   0   1  126.93    9.80
  11   0   1  290.78   14.97
  11   0  -1  212.82   11.47
  12   0  -1  806.95   23.15
  12   0   1  981.00   27.34
  13   0  -1  245.35   13.62
  13   0   1  281.10   15.07
  14   0   1  157.51   11.67
  14   0  -1  143.53   10.92
  15   0  -1    8.89    4.92
  15   0   1    8.42    4.69
  16   0  -1   67.63    8.40
  16   0   1   56.68    7.86
  17   0  -1   94.48    9.77
  17   0   1   89.69    9.61
  18   0   1  339.26   17.74
  18   0  -1  328.48   17.01
  19   0   1   79.64    9.11
  19   0  -1   84.03    9.56
  20   0  -1   48.43    7.78
  20   0   1   44.44    7.55
  21   0   1    1.43    4.37
  21   0  -1    5.74    5.14
  22   0   1   13.66    5.82
  22   0  -1   20.36    6.16
  23   0  -1   23.65    6.51
 -11   0   2  685.05   17.78
 -10   0   2   59.42    4.91
  -9   0  -2  237.95   10.11
  -9   0  -2  238.44    9.12
  -9   0   2  238.18    8.83
  -8   0   2  136.15    5.89
  -8   0  -2  151.12    6.65
  -8   0  -2  162.03    8.01
  -7   0   2 2242.08   20.88
  -7   0  -2 2270.52   22.74
  -6   0   2  840.39   11.28
  -6   0  -2  852.48   12.73
  -5   0  -2 2185.40   18.49
  -5   0   2 2205.38   15.98
  -4   0   2  294.22    5.79
  -4   0  -2  300.51    6.42
  -4   0   2  290.27    5.13
  -3   0  -2  826.89    9.68
  -3   0   2  827.12    8.95
  -2   0   2  343.57    5.42
  -1   0   2 3545.41   16.94
   0   0   2 1328.05   10.46
   0   0  -2 1319.47   10.64
   1   0  -2 3723.10   17.73
   1   0   2 3762.85   18.68
   2   0  -2  349.93    5.61
   2   0   2  361.68    6.13
   2   0   2  349.80    5.74
   3   0  -2  825.09    9.00
   3   0   2  828.80    9.75
   4   0   2  293.77    7.03
   4   0   2  292.45    6.35
   4   0  -2  293.44    5.75
   5   0   2 2239.02   21.76
   5   0  -2 2197.24   16.89
   5   0   2 2203.87   18.73
   6   0  -2  841.23   11.68
   6   0   2  848.34   12.80
   6   0   2  813.11   14.69
   7   0  -2 2272.56   21.17
   7   0  -2 2289.02   19.45
   8   0   2  141.25    7.56
   8   0  -2  144.77    6.23
   8   0  -2  151.77    5.85
   9   0  -2  250.91    9.07
   9   0  -2  253.60    8.33
  10   0  -2   69.32    5.12
  10   0   2   68.73    6.29
  10   0  -2   69.16    5.52
  11   0  -2  710.87   16.47
  11   0  -2  729.64   18.31
  12   0   2  212.78   12.28
  12   0  -2  225.97   10.35
  12   0  -2  227.35   11.36
  13   0  -2  447.93   15.12
  13   0   2  439.93   18.09
  14   0  -2   25.34    4.72
  14   0   2   30.34    6.06
  15   0  -2   30.72    5.19
  15   0   2   46.36    7.11
  16   0  -2    6.87    3.70
  16   0   2   16.79    5.58
  17   0   2  231.19   14.33
  17   0  -2  147.49   10.90
  18   0  -2   56.95    7.66
  18   0   2   72.79    8.66
  19   0  -2  127.54   10.74
  19   0   2  132.84   11.30
  20   0  -2   15.95    5.52
  20   0   2    7.02    4.86
  21   0   2    7.61    5.11
  21   0  -2    6.98    4.96
  22   0  -2   19.65    7.41
  22   0  -2    4.24    4.70
  23   0  -2   35.83    7.18
 -11   0   3  355.89   11.75
 -10   0   3   22.73    2.94
  -9   0   3   40.84    3.57
  -8   0   3    9.92    1.94
  -7   0   3  728.84   11.31
  -6   0   3   86.81    3.68
  -6   0   3   91.45    4.24
  -6   0  -3   89.88    4.51
  -5   0  -3  845.54   12.57
  -5   0   3  836.61   11.50
  -5   0   3  833.77   10.12
  -4   0   3   45.68    2.73
  -4   0  -3   49.88    3.07
  -3   0   3   22.46    1.95
  -2   0   3   67.29    3.05
  -1   0   3  982.96   11.08
   0   0  -3   75.96    3.42
   0   0   3   77.07    3.27
   1   0  -3 1028.61   11.77
   1   0   3  994.78   11.37
   1   0   3 1014.29   12.02
   2   0   3   71.15    3.50
   2   0  -3   66.93    3.21
   2   0   3   78.46    3.57
   3   0   3   23.02    2.10
   3   0   3   23.97    2.43
   3   0  -3   27.75    2.30
   4   0   3   51.75    3.50
   4   0   3   44.70    2.89
   4   0  -3   46.95    2.90
   4   0   3   45.17    3.10
   5   0   3  838.78   12.75
   5   0   3  850.17   14.02
   5   0  -3  824.86   11.41
   6   0  -3   87.65    4.19
   6   0   3   86.81    4.63
   6   0   3   88.92    5.24
   7   0  -3  724.20   12.09
   7   0   3  727.68   13.42
   7   0   3  716.71   15.21
   8   0   3    2.18    2.79
   8   0   3    6.46    0.84
   8   0  -3    6.07    1.95
   9   0  -3   39.19    3.66
   9   0   3   30.58    4.07
  10   0   3   11.17    3.66
  10   0  -3    5.51    2.41
  11   0  -3  372.36   11.64
  11   0   3  339.51   13.63
  12   0   3   30.18    5.16
  12   0  -3   31.03    4.43
  13   0  -3  310.19   12.09
  13   0   3  285.22   13.95
  14   0  -3    0.81    3.19
  14   0   3   -1.16    3.93
  15   0  -3   18.93    4.25
  15   0  -3   18.40    4.56
  15   0   3   10.02    4.05
  16   0   3   -1.77    4.53
  16   0  -3    0.77    2.81
  16   0  -3    1.98    3.48
  17   0  -3   76.95    7.48
  17   0  -3   75.79    7.96
  18   0   3    2.37    3.90
  18   0  -3   -2.47    4.34
  18   0  -3   -2.88    4.03
  19   0  -3   42.57    6.90
  19   0  -3   48.95    6.51
  20   0  -3  -10.91    5.45
  20   0   3    7.91    5.37
  20   0  -3   -6.23    5.21
  21   0  -3   -0.45    4.96
  21   0  -3    8.01    5.00
  22   0  -3   -6.66    5.39
  22   0  -3    0.73    4.46
  23   0  -3   14.85    5.39
  -9   0   4  142.25    6.11
  -8   0   4  127.42    5.37
  -7   0   4  530.37    9.99
  -6   0   4  426.37    8.44
  -5   0   4  762.70   11.00
   0   0   4  784.56   12.45
   1   0   4  961.01   13.86
   1   0  -4  932.14   13.34
   2   0  -4  193.77    6.22
   2   0   4  197.04    6.57
   3   0   4  350.18    8.84
   3   0  -4  362.05    8.68
   4   0   4  196.27    6.83
   4   0  -4  187.78    6.22
   4   0   4  205.38    7.40
   5   0   4  765.97   13.60
   5   0   4  769.86   14.73
   5   0  -4  751.01   12.47
   6   0   4  444.66   11.02
   6   0  -4  437.51    9.90
   6   0   4  436.42   11.80
   7   0   4  533.55   14.02
   7   0  -4  527.69   11.12
   7   0   4  529.95   12.26
   8   0   4  117.44    7.21
   8   0  -4  128.13    6.02
   8   0   4  118.05    6.44
   9   0   4  126.81    4.10
   9   0   4  136.12    3.91
   9   0   4  122.17    7.81
   9   0  -4  133.99    6.53
  10   0   4   60.86    6.03
  10   0   4   63.41    2.10
  10   0   4   61.98    2.19
  11   0  -4  267.88    9.85
  11   0   4  259.07   12.21
  12   0   4  143.79    9.79
  12   0  -4  146.51    7.91
  13   0  -4  174.48    9.00
  13   0   4  155.13   10.29
  14   0  -4   21.71    4.24
  14   0   4   24.02    5.16
  15   0   4   17.60    5.08
  15   0  -4   23.47    4.50
  16   0  -4    7.86    3.63
  16   0   4    7.88    4.17
  17   0  -4   38.38    5.84
  17   0   4   38.00    6.80
  18   0   4   27.88    6.80
  18   0  -4   16.99    4.75
  19   0   4   40.20    7.49
  19   0  -4   20.24    4.83
  20   0  -4   -9.80    5.63
  -1   0   5    5.92    2.36
   0   0   5  361.81    9.90
   1   0   5    4.70    2.37
   2   0   5   95.45    5.50
   2   0  -5   89.29    5.04
   3   0   5    5.00    2.41
   3   0  -5    2.59    2.16
   3   0   5    4.21    2.40
   4   0   5   74.12    5.13
   4   0  -5   79.02    5.03
   4   0   5   73.02    5.06
   5   0   5    3.46    2.37
   5   0   5    4.69    2.48
   5   0  -5    4.04    2.32
   6   0   5  322.83   10.46
   6   0   5  299.84   10.81
   6   0  -5  300.28    9.26
   7   0   5   13.97    3.41
   7   0  -5   17.15    3.07
   7   0   5   15.35    3.28
   8   0   5   59.40    5.27
   8   0  -5   59.92    4.81
   8   0   5   56.01    5.58
   9   0  -5    0.46    2.43
   9   0   5   -5.85    3.88
   9   0   5   -0.95    2.99
  10   0   5   36.29    5.24
  10   0  -5   56.92    5.08
  11   0   5   15.31    4.42
  11   0  -5    9.10    3.27
  12   0  -5  149.60    8.30
  12   0   5  136.96   10.32
  13   0   5   14.15    4.65
  13   0  -5   19.85    4.28
  14   0  -5   40.41    5.59
  14   0   5   25.61    5.49
  15   0   5    2.32    3.70
  15   0  -5    7.85    4.02
  16   0  -5   19.19    4.81
  16   0   5    9.68    4.67
  17   0  -5    9.97    4.52
  17   0   5    0.17    4.44
  18   0  -5   37.03    6.18
  19   0  -5    7.68    4.43
  -3   0   6    2.21    2.60
  -2   0   6  232.42    9.15
  -1   0   6    1.78    2.69
   0   0   6  403.24   12.08
   1   0   6    1.27    2.64
   2   0   6  219.55    8.60
   2   0   6  240.51    9.41
   3   0   6   10.92    3.09
   3   0   6    8.91    3.23
   4   0  -6  202.05    8.43
   4   0   6  213.35    9.21
   4   0   6  200.03    8.92
   5   0  -6    2.91    2.84
   5   0   6    1.34    2.86
   5   0   6    2.39    2.84
   6   0  -6  291.99   10.32
   6   0   6  298.95   11.37
   6   0   6  286.99   11.77
   7   0  -6    2.41    3.05
   7   0   6   -0.13    3.00
   7   0   6   -0.16    2.87
   8   0  -6  123.55    7.16
   8   0   6  127.77    8.09
   8   0   6  116.33    8.48
   9   0  -6    3.52    3.00
   9   0   6    1.15    3.12
   9   0   6   -3.16    3.97
  10   0   6   81.37    7.15
  10   0   6   64.89    7.15
  10   0  -6   80.43    6.37
  11   0  -6   -0.16    3.02
  11   0   6    8.43    4.27
  12   0  -6  124.72    8.29
  12   0   6  108.61    9.86
  13   0   6    5.47    4.17
  13   0  -6   -2.34    3.68
  14   0   6   31.03    6.14
  14   0  -6   33.06    5.33
  15   0  -6   -0.24    3.58
  15   0   6   -0.26    3.64
  16   0  -6   36.56    6.03
  -6   0   7   29.49    4.62
  -5   0   7   24.12    4.28
  -4   0   7    9.84    3.49
  -3   0   7   10.91    3.50
  -2   0   7    9.72    3.46
  -1   0   7   32.18    4.67
   0   0   7   27.03    4.39
   1   0   7   39.77    4.58
   1   0   7   37.28    4.96
   2   0   7   11.70    3.38
   2   0   7   10.26    3.66
   3   0   7   13.51    3.92
   3   0   7   11.94    3.59
   4   0   7   10.47    3.38
   4   0   7   11.18    3.67
   5   0   7   28.54    4.86
   5   0   7   32.60    4.99
   6   0   7   27.24    4.90
   6   0   7   24.67    4.73
   6   0  -7   30.09    4.64
   7   0   7   17.18    4.47
   7   0  -7   23.75    4.47
   7   0   7   21.03    4.63
   8   0   7   10.98    4.08
   8   0   7    4.52    3.52
   8   0  -7   13.36    3.94
   9   0   7   -2.11    4.54
   9   0   7    3.11    3.89
   9   0  -7    7.92    3.66
  10   0  -7   15.26    4.38
  10   0   7    5.60    4.00
  11   0   7   19.48    5.44
  11   0  -7   15.99    4.63
  12   0   7   22.70    5.74
  12   0  -7   25.75    5.08
 -18   1   0    2.91    2.72
 -17   1   0  264.32   10.10
 -16  -1   0    1.96    2.51
 -16   1   0    2.20    2.57
 -15   1   0    8.94    2.96
 -15  -1   0   11.14    3.22
 -14  -1   0    1.57    2.42
 -14   1   0    2.38    2.48
 -13   1   0  664.90   15.49
 -13  -1   0  681.06   16.58
 -12   1   0   24.02    4.09
 -12  -1   0   16.29    3.98
 -11  -1   0  689.40   16.22
 -11   1   0  671.76   14.92
 -10   1   0   -2.43    3.57
 -10  -1   0   -0.16    1.94
 -10   1   0   -0.87    1.98
 -10  -1   0   -2.51    2.81
  -9  -1   0   15.76    3.33
  -9  -1   0   14.92    2.84
  -9   1   0   13.52    4.12
  -9   1   0   12.00    2.51
  -8   1   0   -0.04    1.63
  -8  -1   0   -0.14    1.55
  -8  -1   0    1.00    1.84
  -8   1   0    1.89    2.51
  -7   1   0 1304.73   17.02
  -7   1   0 1265.28   23.13
  -7  -1   0 1326.69   19.79
  -7  -1   0 1297.67   18.39
  -6   1   0   29.63    3.37
  -6  -1   0   35.84    3.73
  -5   1   0 1509.54   19.78
  -5  -1   0 1524.00   17.10
  -5  -1   0 1533.50   15.14
  -5   1   0 1555.25   15.72
  -4   1   0    2.11    1.21
  -4  -1   0    1.95    1.19
  -4   1   0    0.91    1.17
  -3  -1   0  325.44    6.62
  -3   1   0  321.19    6.13
  -3   1   0  307.43    4.51
  -3   1   0  315.49    6.26
  -2   1   0    2.06    0.38
  -2   1   0    2.17    1.10
  -2  -1   0    2.80    0.97
  -2   1   0    2.98    0.74
  -1   1   0 1622.80   11.81
  -1  -1   0 1592.58   12.30
  -1   1   0 1653.72    8.86
   0   1   0   43.60    2.23
   0  -1   0   27.50    1.90
   1  -1   0 1195.68   11.24
   1   1   0 1675.40   11.87
   2  -1   0    2.53    0.79
   2  -1   0    2.64    0.83
   2  -1   0    1.57    0.41
   2   1   0    3.41    0.95
   3   1   0  319.60    4.66
   3   1   0  319.78    5.86
   3  -1   0  317.03    6.11
   3  -1   0  329.70    5.60
   4   1   0    0.93    1.02
   4  -1   0    4.13    1.70
   4   1   0    1.48    1.02
   5   1   0 1566.21   16.49
   5  -1   0 1569.19   20.06
   6   1   0   26.74    3.25
   6  -1   0   35.78    4.70
   7  -1   0 1243.01   22.79
   7   1   0 1249.13   19.97
   8  -1   0    1.39    2.84
   8   1   0    0.49    2.26
   9   1   0   27.69    4.53
   9  -1   0   12.44    4.02
  10   1   0   -2.81    4.01
  10  -1   0   -2.24    4.15
  11   1   0  753.59   22.77
  11  -1   0  712.93   22.94
  12  -1   0   15.97    6.02
  12   1   0   12.07    5.45
  13  -1   0  650.45   23.03
  13   1   0  656.64   21.64
  14   1   0    4.16    4.27
  14  -1   0    1.80    4.45
  15   1   0    5.87    4.24
  15  -1   0    9.37    5.36
  16  -1   0    1.17    4.66
  16   1   0   -1.16    4.50
  17  -1   0  251.34   15.69
  17   1   0  244.71   14.58
  18   1   0    0.92    4.39
  18  -1   0    5.45    5.81
  19  -1   0  225.56   15.07
  19   1   0  207.07   13.45
  20   1   0    1.78    4.68
  20  -1   0    0.63    5.31
  21   1   0    4.97    4.91
  21  -1   0   10.92    6.06
  22   1   0    2.72    4.66
  22  -1   0    2.25    4.71
  23   1   0   45.05    7.46
 -19   1   1  108.80    7.68
 -16  -1  -1    2.96    1.56
 -16   1  -1    2.58    1.29
 -15  -1  -1    2.06    1.55
 -15   1  -1    1.98    1.32
 -15  -1   1    2.87    3.32
 -14  -1   1    8.08    4.05
 -14   1  -1    5.41    1.50
 -14  -1  -1    4.97    1.73
 -13   1  -1  225.36    6.42
 -13  -1  -1  213.88    7.10
 -12  -1  -1   88.93    4.61
 -12   1  -1   98.75    4.26
 -11   1  -1  180.94    5.57
 -11   1  -1  170.62    9.19
 -10  -1  -1    4.49    2.29
 -10   1   1   -2.28    2.84
 -10  -1   1    9.03    4.25
 -10   1  -1    2.99    1.22
 -10  -1  -1    2.35    1.28
 -10   1  -1    1.05    2.17
 -10   1  -1    9.80    4.83
  -9  -1  -1   27.63    3.77
  -9   1  -1   20.77    1.99
  -9  -1  -1   19.57    2.17
  -9  -1   1   39.34    5.78
  -9   1  -1   18.56    2.74
  -9   1  -1   44.50    7.18
  -9   1   1   19.53    2.92
  -8   1   1   -0.58    1.68
  -8  -1  -1    5.66    2.03
  -8   1  -1   -0.35    1.60
  -8   1  -1    0.13    0.93
  -8   1  -1    6.06    4.42
  -8  -1  -1    0.56    1.02
  -8  -1   1    3.33    3.12
  -7   1  -1  416.21    9.32
  -7  -1  -1  391.77    7.57
  -7   1  -1  396.25    7.15
  -6   1   1  258.28    6.98
  -6   1  -1  233.05    5.40
  -6   1  -1  238.57    6.20
  -6  -1   1  260.21   10.97
  -6  -1  -1  264.91    6.41
  -5  -1  -1  399.63    7.11
  -5   1  -1  399.98    6.94
  -5   1   1  407.03    7.51
  -5   1  -1  400.31    7.00
  -4  -1  -1  131.44    4.09
  -4   1  -1  133.60    4.22
  -4   1  -1  127.42    3.49
  -4   1   1  128.80    3.84
  -4   1  -1  122.22    8.76
  -4  -1   1  123.51    5.52
  -3   1  -1  504.93    8.25
  -3   1   1  499.19    6.65
  -3  -1   1  516.98    7.63
  -3  -1  -1  518.94    8.24
  -3   1  -1  498.12    6.15
  -2  -1  -1    9.22    1.46
  -2  -1  -1    8.48    1.10
  -2   1  -1    8.99    2.64
  -2   1  -1   10.23    1.69
  -2  -1   1   10.07    1.11
  -2   1   1   10.49    0.67
  -2  -1   1    8.53    2.12
  -1  -1  -1  580.52    9.13
  -1  -1   1  570.14   10.59
  -1   1  -1  592.93    5.69
  -1  -1  -1  571.43    5.47
  -1   1   1  564.43    9.74
  -1   1   1  581.36    3.82
  -1   1  -1  566.20   10.53
  -1   1  -1  595.20    9.93
  -1  -1   1  580.86    6.06
   0  -1   1  213.54    3.53
   0   1  -1  215.26    3.53
   0  -1   1  225.59    5.99
   0   1   1  214.53    2.87
   0   1   1  213.14    5.36
   0   1  -1  225.99    6.66
   0  -1  -1  212.13    2.67
   1   1   1  596.54    6.39
   1  -1   1  598.21    8.50
   1  -1   1  600.52    5.84
   1   1   1  606.49    8.16
   1   1  -1  592.76    6.07
   2  -1   1   11.16    1.30
   2   1   1    9.82    1.25
   2  -1  -1   10.35    0.62
   2  -1   1    8.51    3.03
   2  -1   1    9.42    0.89
   2   1  -1    9.47    1.11
   2  -1   1   10.38    1.02
   3  -1   1  504.57    6.42
   3  -1   1  500.53    6.14
   3   1   1  509.49    6.51
   3  -1  -1  502.16    4.72
   3   1  -1  483.95    6.76
   3   1  -1  508.72    7.22
   4  -1  -1  136.49    3.37
   4   1  -1  139.88    4.61
   4  -1   1  132.70    3.16
   4   1  -1  121.47    5.07
   4   1   1  130.44    3.29
   4  -1   1  132.52    9.30
   4  -1   1  130.55    3.61
   5  -1   1  415.34    7.34
   5   1   1  408.13    5.58
   5   1   1  422.15    7.78
   5  -1   1  426.92    5.35
   5  -1  -1  409.29    7.75
   6  -1   1  239.70    4.00
   6  -1  -1  249.34    7.02
   6   1   1  247.75    4.51
   6   1   1  251.38    6.93
   7   1   1  427.29    6.16
   7   1   1  429.70   10.03
   7  -1  -1  422.07   10.10
   8   1   1   -0.64    2.47
   8  -1   1    1.78    4.45
   8   1  -1    0.86    3.23
   8  -1  -1   -0.11    1.94
   9  -1  -1   19.30    3.28
   9  -1   1   39.34    7.26
   9   1  -1   35.09    5.65
   9   1   1   24.01    3.64
  10  -1   1    9.27    5.44
  10   1  -1    7.23    4.09
  10  -1  -1   -1.55    3.11
  10   1   1    6.25    2.78
  11   1  -1  341.44   15.49
  11  -1   1  381.08   18.79
  12   1  -1  211.39   12.77
  12  -1  -1   97.54    7.89
  12  -1   1  225.20   15.10
  12   1   1  105.01    7.96
  13   1  -1  446.91   18.55
  13  -1   1  475.10   21.07
  14   1   1   -0.26    4.13
  14   1  -1   10.26    4.87
  14  -1   1    9.13    5.69
  14  -1  -1    0.36    3.85
  15  -1   1    5.56    5.41
  15   1  -1    6.07    4.95
  15   1   1    1.13    3.76
  15  -1  -1    1.62    3.75
  16  -1   1    5.96    5.77
  16   1  -1    6.67    4.89
  16   1   1    3.20    3.94
  16  -1  -1    3.72    4.02
  17   1   1  104.26    9.66
  17  -1  -1  122.13   10.77
  17   1  -1  155.50   11.87
  17  -1   1  155.74   12.96
  18   1   1   66.60    8.26
  18  -1   1   86.91   10.46
  18   1  -1   69.89    8.78
  18  -1  -1   63.06    8.55
  19  -1   1  152.48   13.04
  19  -1  -1  135.25   11.72
  19   1  -1  155.07   12.11
  20   1  -1    9.27    5.17
  20   1   1   -1.51    5.00
  20  -1  -1   12.17    6.02
  20  -1   1   10.93    6.19
  21  -1  -1    7.73    5.47
  21   1   1   -0.25    4.90
  21  -1   1    6.11    5.40
  21   1  -1    6.32    5.08
  22  -1   1   10.01    6.21
  22  -1  -1    7.67    5.61
  22   1  -1    8.11    5.14
  22   1   1   -1.50    4.60
  23   1  -1   42.64    7.60
 -13  -1   2  255.75   14.26
 -12  -1   2  895.98   24.81
 -11  -1   2  286.77   14.08
 -10  -1   2   99.48    8.55
  -9   1   2   97.54    5.30
  -9   1  -2   94.34    5.30
  -9   1  -2   83.87    7.87
  -9  -1  -2   92.20    6.61
  -8   1   2   98.51    4.90
  -8   1  -2   94.66    4.87
  -8  -1  -2   86.07    5.70
  -8   1  -2   79.81    7.19
  -8  -1   2   82.67    6.85
  -7   1  -2  460.71    9.56
  -7   1  -2  446.30   14.86
  -7   1   2  467.48    9.31
  -7  -1   2  431.54   12.96
  -7  -1  -2  464.61   11.63
  -6   1   2 1346.65   14.66
  -6   1  -2 1379.18   15.27
  -6   1  -2 1328.99   22.57
  -6  -1  -2 1349.68   17.68
  -5   1  -2  561.06    9.08
  -5  -1   2  553.27    9.65
  -5   1  -2  551.99   12.66
  -5  -1  -2  565.68   10.19
  -5   1   2  566.38    8.82
  -4  -1   2  273.96    6.17
  -4   1  -2  268.45    5.91
  -4   1  -2  269.90    7.59
  -4  -1   2  271.15    5.02
  -4  -1  -2  266.82    6.26
  -4   1   2  268.52    5.01
  -3   1  -2  227.42    5.91
  -3  -1  -2  226.89    5.21
  -3  -1   2  226.16    5.21
  -3  -1   2  221.31    3.31
  -3   1   2  223.62    4.18
  -2   1   2  107.72    2.72
  -2  -1   2  111.72    3.52
  -2  -1  -2  112.52    3.39
  -1   1   2  840.54    7.44
  -1   1  -2  845.85    9.17
  -1  -1   2  868.83    9.32
  -1  -1  -2  862.97    8.39
   0   1   2 2272.14   13.68
   0  -1   2 2179.37   12.91
   0  -1   2 2129.90   14.39
   0   1   2 2277.03   12.88
   0   1  -2 2169.41   14.57
   1   1  -2  883.64    9.55
   1  -1   2  882.06    9.40
   1  -1   2  881.86   10.81
   1  -1  -2  879.92    8.00
   1   1   2  857.27    8.18
   1   1   2  860.54    8.84
   2  -1   2  110.91    3.56
   2   1  -2  109.68    3.61
   2  -1  -2  119.20    3.01
   2  -1   2  107.51    4.81
   2  -1   2  114.81    3.55
   2   1   2  112.93    3.63
   2  -1   2  112.33    5.01
   3  -1   2  224.67    6.11
   3  -1  -2  232.36    4.25
   3  -1   2  236.66    8.56
   3  -1   2  233.35    5.37
   3   1   2  219.83    5.60
   3   1   2  222.28    5.57
   3  -1   2  222.62    5.05
   3   1  -2  225.03    5.34
   4   1  -2  262.89    6.05
   4  -1  -2  264.93    4.79
   4  -1   2  265.74    5.89
   4  -1   2  261.69    5.72
   4  -1   2  253.88    9.90
   4   1   2  265.20    5.58
   5  -1   2  524.07   15.94
   5   1   2  551.48    7.25
   5   1  -2  567.78    9.64
   5  -1   2  557.90    7.42
   5  -1  -2  554.78    7.42
   5  -1   2  562.24    9.04
   6   1   2 1384.37   16.44
   6  -1   2 1342.14   15.02
   6   1  -2 1341.64   11.85
   6   1  -2 1349.53   16.09
   6  -1   2 1328.54   10.20
   6   1   2 1355.62   10.67
   6  -1   2 1290.91   28.08
   6  -1  -2 1363.08   13.10
   7  -1  -2  464.88    8.50
   7   1  -2  470.16    8.48
   7  -1   2  462.64    9.67
   7   1   2  489.76   10.69
   7   1  -2  466.52   10.52
   7   1   2  474.31    6.00
   7  -1   2  465.45    5.53
   8  -1   2   83.85    2.10
   8  -1  -2   90.45    4.46
   8   1  -2   89.53    4.46
   8   1  -2   93.51    5.44
   8   1   2   93.55    5.39
   8  -1   2   77.11    8.40
   8   1   2   93.95    2.56
   9   1  -2   97.45    6.09
   9  -1  -2   93.29    5.14
   9  -1   2  106.09   10.35
   9   1   2   90.99    5.73
   9   1   2   89.40    2.45
   9   1  -2   89.22    5.14
   9  -1  -2  109.76    5.86
  10  -1  -2   70.68    5.12
  10   1  -2   55.34    4.65
  10   1  -2   57.55    5.43
  10   1   2   65.38    5.28
  10  -1   2   78.42    9.03
  10  -1  -2   59.97    4.74
  11   1   2  166.28    8.72
  11  -1  -2  168.99    8.14
  11  -1  -2  148.12    7.85
  11   1  -2  155.94    8.97
  12   1   2  469.97   15.26
  12  -1  -2  483.65   14.70
  12   1  -2  490.34   16.77
  12  -1  -2  451.74   14.71
  13   1  -2  100.52    8.59
  13  -1  -2  126.43    8.29
  13   1  -2   93.16    7.59
  13   1   2  119.36    8.14
  14  -1  -2   36.98    5.37
  14   1  -2   18.66    4.64
  14   1  -2   25.62    4.67
  14   1   2   34.29    5.21
  15   1  -2    5.56    5.29
  15   1   2   15.95    4.25
  15   1  -2   14.97    4.23
  15  -1  -2   14.85    4.31
  16   1  -2   19.82    5.14
  16  -1  -2    8.30    3.79
  16  -1   2   15.67    5.64
  16   1   2    6.95    3.58
  17   1   2   26.09    5.41
  17  -1  -2   20.85    4.84
  17   1  -2   49.87    7.23
  17  -1   2   63.72    9.12
  18  -1   2  223.47   15.05
  18  -1  -2  109.18    9.84
  18   1   2  136.27   11.38
  18   1  -2  188.65   12.41
  19   1  -2   48.22    7.30
  19  -1   2   50.94    8.37
  19  -1  -2   27.05    5.91
  19   1  -2   43.16    8.32
  19   1   2   33.54    6.63
  20  -1   2   26.98    6.93
  20   1   2   23.23    5.70
  20  -1  -2   12.76    5.31
  20   1  -2   26.12    7.61
  20   1  -2   27.31    6.16
  21  -1   2    2.58    4.98
  21   1   2    7.55    4.58
  21  -1  -2    2.13    4.44
  21   1  -2   17.49    7.16
  21   1  -2    9.84    5.12
  22  -1  -2   20.18    6.95
  22  -1  -2   -0.22    4.94
  22   1  -2   20.68    7.50
  22   1  -2    5.27    4.76
  23   1  -2   16.84    5.74
  23  -1  -2   31.91    7.63
 -13  -1   3    5.42    3.50
 -12  -1   3  361.27   15.56
 -11  -1   3    6.03    2.87
 -10  -1   3   29.04    4.13
  -9  -1   3   17.01    3.02
  -8  -1   3   32.74    3.17
  -8   1   3   42.94    3.24
  -8   1  -3   44.52    4.50
  -7   1   3   14.11    1.96
  -7  -1   3   10.72    1.75
  -6  -1  -3  605.82   11.63
  -6   1   3  594.56   10.08
  -6   1   3  605.51    9.99
  -6  -1   3  606.01   11.22
  -6  -1   3  577.75    9.32
  -6   1  -3  595.89   11.00
  -5  -1   3   14.00    2.00
  -5   1   3   12.52    1.62
  -5  -1   3   15.39    1.47
  -5  -1  -3   15.64    2.09
  -4  -1  -3   10.20    1.68
  -4   1   3    8.84    1.35
  -4  -1   3    9.64    1.11
  -4  -1   3    9.68    1.64
  -3  -1  -3   84.50    3.69
  -3  -1   3   85.88    3.80
  -3   1   3   82.60    3.14
  -2  -1   3   23.71    2.14
  -2   1   3   22.84    1.74
  -1   1   3   10.64    1.56
  -1  -1   3   10.18    1.49
  -1   1  -3   10.28    1.75
  -1   1   3    9.23    1.25
   0  -1   3  582.02    9.15
   0   1  -3  579.13    9.35
   0   1   3  588.17    8.95
   0   1   3  573.18    8.07
   1   1   3   10.35    1.43
   1  -1   3   12.74    1.77
   1  -1   3   11.50    1.60
   1   1  -3    9.78    1.74
   1   1   3    8.95    1.59
   2  -1   3   23.96    2.11
   2   1  -3   23.31    2.29
   2   1   3   25.40    2.31
   2  -1   3   25.41    2.39
   2  -1   3   25.30    2.53
   2   1   3   23.43    1.93
   2  -1  -3   24.31    1.95
   3   1   3   88.25    4.03
   3  -1   3   84.86    3.99
   3  -1   3   88.25    3.88
   3  -1   3   83.46    4.69
   3   1  -3   80.74    3.84
   3  -1  -3   87.89    3.47
   4   1  -3   10.52    1.97
   4   1   3    8.15    1.86
   4  -1   3   12.11    2.00
   4  -1   3    4.18    1.98
   4  -1  -3    9.91    1.59
   4  -1   3    9.62    1.69
   4  -1   3    7.17    1.71
   5  -1   3   14.77    3.03
   5   1   3   12.47    2.26
   5  -1   3   13.81    2.20
   5  -1   3   12.14    1.85
   5   1  -3   14.23    2.25
   5  -1   3   13.19    1.88
   5   1   3   11.53    1.79
   5  -1  -3   15.18    1.84
   6  -1   3  586.94   10.95
   6   1   3  579.04    8.92
   6  -1   3  572.59    9.14
   6   1  -3  578.92   10.96
   6  -1  -3  586.80    9.33
   6  -1   3  569.39   16.08
   7  -1   3   12.49    2.33
   7  -1   3   14.14    3.81
   7  -1   3   14.34    1.51
   7   1   3   16.27    2.83
   7   1   3   15.16    1.59
   7  -1  -3   15.56    2.15
   7   1  -3   13.15    2.42
   8   1  -3   36.81    3.58
   8  -1   3   39.75    1.97
   8  -1  -3   39.81    3.12
   8   1   3   40.16    4.00
   8  -1   3   30.55    5.17
   8   1   3   44.79    2.33
   8  -1   3   37.67    3.54
   9   1   3   15.06    3.23
   9  -1   3   13.57    2.63
   9   1  -3   11.83    2.82
   9   1   3   16.18    1.31
   9  -1   3   15.14    1.12
   9  -1  -3   15.42    2.44
   9  -1   3   13.13    4.31
  10  -1   3   28.29    5.83
  10   1   3   31.18    4.02
  10   1   3   31.09    1.44
  10   1  -3   30.58    3.88
  10  -1  -3   32.62    3.32
  11  -1   3    3.94    4.26
  11   1   3    6.04    2.78
  11  -1  -3    8.79    2.53
  11   1  -3    8.35    3.20
  12   1  -3  329.34   12.37
  12   1   3  321.35   12.77
  12   1  -3  336.07   10.47
  12  -1  -3  326.75   10.79
  12  -1   3  312.86   17.25
  13  -1   3    4.69    4.30
  13  -1  -3    8.28    3.14
  13   1  -3    4.19    3.41
  13   1   3    8.86    3.82
  13   1  -3   10.42    2.83
  14   1  -3   41.52    4.89
  14  -1  -3   36.52    4.81
  14   1  -3   42.97    5.82
  14  -1   3   49.42    7.87
  14   1   3   46.05    6.02
  15  -1   3   10.50    5.19
  15   1   3    3.88    3.45
  15  -1  -3    5.39    3.31
  15   1  -3    4.88    2.85
  15   1  -3    4.45    4.00
  16  -1  -3   21.50    4.61
  16   1   3   16.78    4.60
  16   1  -3   18.79    5.01
  16   1  -3   19.37    4.02
  17   1   3   -2.31    4.14
  17  -1  -3   -1.53    3.33
  17   1  -3    1.36    3.92
  17  -1   3   -4.72    6.16
  17   1  -3   -0.76    3.21
  18   1  -3   74.04    8.61
  18   1  -3   61.48    6.90
  18  -1  -3   78.44    7.94
  18   1   3   79.90    8.92
  19   1  -3   -4.56    4.32
  19   1   3   -3.88    5.03
  19   1  -3   -2.65    5.06
  19  -1   3   -3.78    5.82
  19  -1  -3   -3.97    4.28
  20  -1  -3    6.27    4.00
  20   1   3   15.79    5.20
  20   1  -3   10.84    4.07
  20   1  -3   10.25    4.93
  21   1  -3   -2.73    4.82
  21  -1  -3   -1.85    4.16
  21   1  -3   -3.35    4.36
  22  -1  -3    7.51    4.77
 -11  -1   4   36.62    4.43
 -10  -1   4  127.60    6.97
  -9  -1   4    1.12    1.65
  -8  -1   4  311.07    8.58
  -7  -1   4   69.53    3.76
  -6   1   4  876.24   13.05
  -6  -1   4  880.77   11.36
  -5   1   4   59.40    3.40
  -5  -1   4   61.85    2.86
  -4   1   4  412.18    8.31
  -4  -1   4  417.38    6.71
  -3   1   4    2.03    1.25
  -2   1   4  541.30    9.16
  -2   1   4  555.29   10.12
  -1   1   4   71.05    3.89
  -1   1   4   80.32    3.68
   0   1   4 1330.59   14.54
   0   1  -4 1303.55   16.26
   1   1   4   70.23    3.61
   1   1  -4   71.91    4.15
   1   1   4   66.43    3.97
   1  -1   4   76.37    4.05
   1  -1   4   73.20    4.31
   2  -1   4  546.82   10.97
   2   1   4  557.65   10.76
   2  -1   4  527.57   10.97
   2   1   4  544.19    9.72
   2   1  -4  567.09   11.15
   3  -1  -4    3.94    1.79
   3   1  -4    2.92    1.99
   3  -1   4    4.78    2.18
   3   1   4    6.32    2.27
   3  -1   4    1.71    1.88
   4  -1   4  410.98    9.85
   4   1   4  421.09   10.12
   4  -1   4  409.40   11.62
   4   1  -4  419.56    9.71
   5  -1   4   55.70    5.03
   5   1  -4   64.18    4.36
   5   1   4   60.88    4.37
   5  -1   4   67.76    4.42
   5  -1   4   57.03    4.31
   5  -1  -4   63.06    3.73
   6   1   4  934.96   16.47
   6   1   4  894.58   16.10
   6  -1   4  830.30   14.10
   6  -1  -4  887.96   13.22
   6  -1   4  884.59   14.80
   6   1  -4  875.59   14.67
   6   1   4  892.40   13.94
   6  -1   4  847.18   19.49
   7   1   4   64.16    3.72
   7  -1   4   66.93    6.47
   7  -1   4   64.14    4.61
   7  -1   4   60.49    3.62
   7   1   4   59.16    4.90
   7   1   4   70.46    5.18
   7  -1  -4   65.02    4.05
   7   1  -4   71.33    4.83
   8  -1   4  284.31   12.96
   8  -1   4  315.04    9.76
   8   1  -4  320.03    9.86
   8  -1   4  300.46    6.90
   8   1   4  326.25   10.85
   8  -1  -4  308.04    8.33
   8   1   4  315.38    6.96
   9  -1   4    3.35    1.12
   9  -1   4    3.53    3.35
   9   1   4    3.49    1.26
   9  -1  -4    5.13    2.28
   9   1   4    3.50    2.71
   9   1  -4    6.36    2.83
   9  -1   4    1.06    2.40
  10   1   4  154.82    8.55
  10  -1   4  132.55    9.90
  10  -1   4  147.69    7.58
  10  -1  -4  147.92    6.58
  10   1  -4  152.05    7.68
  10  -1   4  142.23    3.55
  10   1   4  146.24    3.75
  11  -1   4   32.10    5.99
  11  -1  -4   44.98    4.21
  11   1   4   41.44    5.08
  11   1   4   40.60    1.75
  11   1  -4   43.39    4.93
  12  -1  -4  298.75   10.12
  12   1  -4  301.42   11.66
  12   1   4  300.46   12.93
  13   1  -4   24.20    4.44
  13  -1   4   14.27    5.15
  13  -1  -4   28.47    4.00
  13   1   4   20.13    4.49
  14  -1   4   68.44    9.00
  14  -1  -4   76.92    6.10
  14   1  -4   65.03    6.50
  14   1   4   86.55    8.05
  15  -1  -4   -0.62    2.94
  15   1  -4   -5.42    4.47
  15   1   4    5.31    4.06
  15  -1   4   -1.52    4.53
  16  -1  -4   28.17    4.63
  16   1  -4   22.55    5.04
  16   1   4   31.98    5.67
  17   1  -4    0.92    4.72
  17  -1  -4    6.51    3.38
  17   1   4    9.95    4.46
  18   1   4   53.12    7.83
  18  -1  -4   43.44    6.02
  18   1  -4   44.67    6.65
  19   1  -4   -8.13    6.00
  19  -1  -4    1.25    3.91
  19  -1   4    6.26    5.16
  20  -1  -4    0.35    4.11
  21  -1  -4   -6.62    4.72
  -7  -1   5   93.81    4.35
  -6  -1   5   69.63    3.57
  -5  -1   5   96.63    3.91
  -3   1   5    5.03    2.19
  -2   1   5   38.12    3.62
  -1   1   5  117.01    5.86
   0  -1   5   88.63    4.70
   0   1   5   87.45    5.24
   0  -1   5   83.41    5.21
   1  -1   5  107.93    5.79
   1   1   5  112.60    5.75
   1   1  -5  104.62    5.60
   1  -1   5  111.82    5.51
   2  -1   5   39.63    3.88
   2  -1   5   40.83    3.99
   2   1   5   42.35    3.99
   2   1  -5   39.86    3.85
   3   1   5    5.67    2.49
   3  -1   5    2.32    2.16
   3   1  -5    2.93    2.47
   3  -1   5    3.33    2.14
   4  -1  -5   54.85    4.04
   4  -1   5   56.09    4.59
   4   1   5   56.12    4.65
   4  -1   5   50.91    4.86
   4   1  -5   51.46    4.35
   5  -1   5   99.09    5.96
   5   1   5  104.02    6.20
   5  -1   5   96.72    6.96
   5   1  -5  103.34    5.89
   5  -1  -5  101.26    5.32
   6  -1  -5   85.89    5.57
   6  -1   5   63.07    4.89
   6  -1   5   73.58    5.32
   6   1   5   68.82    5.42
   6  -1   5   59.58    5.90
   6   1   5   89.47    6.26
   6   1  -5   72.89    5.19
   7  -1   5   87.62    7.29
   7  -1   5   91.59    5.31
   7   1   5  105.83    6.69
   7  -1   5  103.29    6.30
   7   1   5  101.18    5.43
   7   1  -5   96.17    5.96
   7   1   5   92.38    6.42
   7  -1  -5   92.11    5.24
   8  -1   5   38.08    4.40
   8  -1   5   36.62    5.66
   8   1   5   38.34    3.31
   8   1   5   36.78    4.67
   8  -1  -5   35.10    3.69
   8   1  -5   33.25    4.18
   8   1   5   31.13    4.35
   9  -1   5   10.53    4.05
   9  -1  -5    6.19    2.52
   9  -1   5    5.08    2.73
   9   1   5    9.70    1.91
   9   1   5    8.96    3.19
   9   1  -5   12.49    3.47
  10   1   5   36.66    5.10
  10   1  -5   37.28    4.74
  10  -1   5   34.48    4.60
  10  -1   5   27.70    5.40
  10  -1  -5   34.35    3.96
  11  -1   5   53.37    7.20
  11  -1  -5   66.07    5.23
  11   1  -5   73.64    6.32
  11   1   5   69.58    6.73
  12   1   5   38.57    5.74
  12  -1   5   30.18    6.22
  12  -1  -5   53.47    5.09
  12   1  -5   50.71    5.66
  13  -1  -5   68.91    5.69
  13  -1   5   49.38    7.78
  13   1  -5   72.83    6.88
  13   1   5   53.49    6.64
  14   1  -5   24.29    5.10
  14   1   5   29.54    5.83
  14  -1  -5   31.17    4.63
  15  -1   5    2.21    4.82
  15  -1  -5   11.97    3.94
  15   1  -5   10.76    4.43
  15   1   5   10.44    4.52
  16   1  -5   12.88    4.63
  16   1   5   11.73    4.45
  16  -1  -5   18.36    4.35
  16  -1   5   11.09    5.43
  17   1  -5   27.67    5.95
  17  -1  -5   31.02    5.34
  17  -1   5   34.41    7.65
  18  -1  -5   18.55    4.87
  19  -1  -5   24.34    5.29
  -5   1   6  292.12   10.02
  -4   1   6   27.35    3.90
  -3   1   6  170.28    7.89
  -2  -1   6   43.12    4.64
  -2   1   6   44.10    4.53
  -1  -1   6  403.25   11.10
  -1  -1   6  384.69   11.78
  -1   1   6  389.29   11.71
   0   1   6   18.89    3.53
   0  -1   6   19.82    3.25
   0  -1   6   23.59    3.89
   1  -1   6  383.21   11.92
   1   1   6  396.08   11.81
   1  -1   6  370.64   11.40
   2  -1   6   36.65    4.38
   2   1   6   47.18    4.79
   2  -1   6   43.35    4.70
   3  -1   6  164.99    8.13
   3   1   6  171.67    8.31
   3  -1   6  167.64    8.83
   3   1  -6  172.09    8.09
   4   1   6   27.16    4.29
   4  -1   6   27.94    4.14
   4  -1   6   21.43    3.91
   4   1  -6   26.94    4.06
   5   1   6  299.89   11.30
   5   1   6  308.18   11.36
   5  -1   6  269.11   12.19
   5   1  -6  304.80   10.77
   5  -1   6  306.90   11.03
   6   1  -6   14.44    3.92
   6  -1   6    3.62    3.81
   6  -1   6   15.94    3.79
   6  -1  -6   17.35    3.36
   6   1   6   19.73    4.09
   6   1   6   15.97    3.89
   7   1   6  243.27   10.99
   7   1   6  250.70    9.63
   7  -1   6  237.65   10.35
   7   1   6  247.84   11.08
   7  -1  -6  232.43    9.04
   7  -1   6  213.31   12.04
   7   1  -6  243.07    9.92
   8  -1   6   15.49    3.85
   8   1   6   14.06    4.02
   8   1  -6   20.15    4.08
   8  -1  -6   20.24    3.77
   8   1   6   16.11    4.03
   8  -1   6   25.06    5.40
   9  -1  -6  101.04    6.86
   9  -1   6   89.07    6.99
   9  -1   6   82.27    8.47
   9   1   6   97.31    7.94
   9   1  -6   89.22    6.78
  10   1   6    5.40    3.53
  10  -1   6    6.41    3.47
  10  -1   6    8.40    4.44
  10   1  -6    5.02    3.44
  10  -1  -6    8.21    3.14
  11  -1  -6  116.80    7.25
  11  -1   6   91.58    9.45
  11   1  -6  115.97    8.16
  11  -1   6  116.51    8.43
  11   1   6  108.53    9.02
  12  -1   6   -1.82    4.71
  12   1   6   -2.15    4.41
  12   1  -6   -1.03    3.73
  12  -1  -6    2.88    2.99
  13  -1   6   59.16    8.79
  13   1  -6   77.56    7.45
  13   1   6   76.10    8.23
  13  -1  -6   82.66    6.87
  14   1  -6   13.96    4.63
  14  -1  -6    1.05    3.15
  14   1   6    9.73    4.83
  15  -1  -6   22.82    4.71
  15  -1   6   19.84    6.24
  16  -1  -6   -5.33    4.39
  17  -1  -6   26.33    5.29
  -8   1   7    3.95    3.18
  -7   1   7   44.60    5.32
  -6   1   7   17.65    4.02
  -5   1   7   39.76    4.93
  -4   1   7    5.45    3.16
  -4  -1   7    4.96    3.53
  -3   1   7   28.92    4.50
  -3  -1   7   30.58    4.84
  -2   1   7    7.55    3.34
  -2  -1   7    4.41    3.25
  -1  -1   7   47.89    5.44
  -1   1   7   46.65    5.21
   0   1   7   19.38    3.99
   0  -1   7   21.15    4.26
   1  -1   7   45.45    5.40
   1   1   7   47.92    5.56
   2  -1   7    6.92    3.44
   2   1   7    7.00    3.38
   3  -1   7   37.74    5.06
   3   1   7   34.12    4.99
   4  -1   7    7.31    3.58
   4   1   7    6.09    3.58
   4  -1   7    0.93    3.58
   5  -1   7   40.70    5.27
   5  -1   7   27.96    5.09
   5   1   7   40.07    5.51
   5   1  -7   42.36    5.24
   5   1   7   44.35    5.40
   6  -1   7   11.16    4.41
   6  -1   7   20.87    4.50
   6   1   7   18.02    4.48
   6   1   7   26.52    4.90
   6   1  -7   18.50    4.23
   7  -1   7   47.41    5.93
   7   1   7   44.53    6.00
   7  -1   7   45.47    7.02
   7   1   7   50.00    6.17
   7   1  -7   48.67    5.71
   8   1  -7    4.14    3.55
   8  -1  -7    6.87    3.35
   8  -1   7    9.56    4.79
   8  -1   7    5.08    3.69
   8   1   7   -0.33    3.99
   8   1   7    3.51    3.58
   9   1  -7   28.56    5.72
   9  -1   7   19.15    5.27
   9   1   7   19.57    4.72
   9  -1  -7   24.46    4.47
  10  -1  -7    6.20    3.40
  10   1   7    2.55    3.55
  10  -1   7    3.12    4.02
  11  -1   7   18.43    5.67
  11  -1  -7   34.33    5.00
  12  -1   7   -0.96    5.05
  12  -1  -7   14.46    4.34
  13  -1  -7   29.47    5.49
  -5   1   8   41.79    5.82
  -4   1   8   34.52    5.35
  -3   1   8   39.53    5.63
  -2   1   8   43.37    5.70
  -1   1   8   55.11    6.30
   0   1   8   65.99    6.83
   2   1   8   52.06    6.43
   3   1   8   47.80    6.06
   4   1   8   41.08    5.80
   5   1   8   45.87    6.23
 -18   2   0  480.08   14.85
 -17   2   0   -0.89    2.83
 -16   2   0  142.81    8.52
 -16  -2   0  131.12    8.58
 -15  -2   0    0.81    2.57
 -15   2   0   -0.36    2.82
 -14   2   0  310.89   12.11
 -14  -2   0  301.65   12.38
 -13  -2   0   -0.94    2.39
 -13   2   0   -1.66    2.76
 -12  -2   0 1046.94   22.29
 -12   2   0 1063.70   21.45
 -11  -2   0    0.04    2.00
 -11   2   0    1.07    2.30
 -11   2   0   -4.17    3.00
 -10   2   0  417.76   12.83
 -10  -2   0  401.51   13.21
 -10   2   0  383.74   11.92
  -9  -2   0    5.33    2.54
  -9   2   0   -0.04    2.33
  -9   2   0    7.05    3.12
  -9   2   0    1.02    1.93
  -8   2   0  973.08   17.78
  -8  -2   0  932.26   18.45
  -8   2   0  945.85   19.23
  -7   2   0    2.06    2.05
  -7   2   0   -0.71    1.30
  -7   2   0   -1.25    1.93
  -7  -2   0    1.60    1.96
  -6  -2   0 3941.27   34.48
  -6   2   0 4011.70   32.68
  -5   2   0    1.50    1.99
  -5   2   0    1.35    1.37
  -5  -2   0    1.79    1.79
  -5   2   0    1.13    0.71
  -4   2   0 1519.64    8.83
  -4   2   0 1565.26   18.88
  -4   2   0 1510.41   15.78
  -4  -2   0 1555.12   19.79
  -3  -2   0   21.24    2.86
  -3   2   0   17.95    2.79
  -2  -2   0 1633.29   18.62
  -2   2   0 1610.76   12.96
  -2   2   0 1641.97   18.19
  -1   2   0    0.69    0.40
  -1   2   0    2.59    1.67
  -1  -2   0    2.30    1.53
   0  -2   0 5177.09   30.48
   0   2   0 4967.65   30.23
   1   2   0    3.26    1.71
   1  -2   0    0.77    0.49
   1  -2   0    1.77    1.39
   1   2   0   -0.10    0.74
   2  -2   0 1668.17    7.03
   2  -2   0 1682.83   16.70
   2   2   0 1624.61   16.93
   3   2   0   16.66    2.61
   3  -2   0   13.45    1.05
   3  -2   0   18.06    2.23
   3  -2   0   13.70    1.04
   4  -2   0 1530.24   14.80
   4   2   0 1512.91   16.70
   5  -2   0    0.32    1.08
   5  -2   0    1.86    1.47
   5   2   0    0.88    1.44
   6   2   0 4136.34   24.63
   6   2   0 4073.56   28.54
   6  -2   0 4116.31   30.99
   6  -2   0 4056.53   26.46
   7  -2   0   -0.93    2.36
   7   2   0    0.34    1.57
   7   2   0    0.59    1.40
   8   2   0  992.33   15.75
   8  -2   0  956.45   18.44
   9  -2   0    0.69    2.73
   9   2   0    8.07    2.58
  10  -2   0  401.32   14.33
  10   2   0  400.18   12.19
  11   2   0    6.30    2.84
  11  -2   0    0.70    3.27
  12   2   0 1038.32   23.89
  12  -2   0  955.21   24.42
  13   2   0   -3.25    3.86
  13  -2   0   -3.23    4.52
  14  -2   0  193.90   12.35
  14   2   0  226.40   12.85
  15  -2   0   -2.66    4.75
  15   2   0    1.54    3.34
  16  -2   0  101.98   10.05
  16   2   0  106.85    9.45
  17  -2   0    3.33    4.80
  17   2   0    8.36    4.71
  18  -2   0  387.46   19.24
  18   2   0  339.05   16.26
  19  -2   0    9.38    6.02
  19   2   0   -4.76    4.89
  20   2   0   63.75    8.17
  20  -2   0   76.52    9.79
  21  -2   0    4.01    5.68
  21   2   0   -1.94    4.52
  22   2   0   19.20    5.44
  23   2   0    0.29    4.36
 -19   2   1   47.94    5.88
 -18   2   1  279.04   12.91
 -17   2   1   90.60    8.00
 -16   2   1   75.28    7.46
 -16   2  -1   69.33    5.09
 -15   2  -1    9.80    2.81
 -15  -2  -1    9.98    2.95
 -15   2   1   15.86    4.77
 -14  -2  -1  104.61    6.72
 -14   2  -1  112.29    6.67
 -13  -2  -1  136.31    7.57
 -13   2  -1  153.48    7.59
 -12   2   1  684.51   20.03
 -12  -2   1  485.25   15.21
 -12  -2   1  760.53   22.30
 -12   2  -1  529.63   13.64
 -12  -2  -1  490.51   13.79
 -11   2  -1  192.43    8.00
 -11   2  -1  179.21    7.95
 -11  -2   1  178.07    8.67
 -11  -2  -1  172.18    8.09
 -11   2   1  182.65   10.51
 -10  -2   1  115.51    8.88
 -10   2  -1  123.69    6.48
 -10  -2   1  129.71    6.78
 -10  -2  -1  113.35    6.41
 -10   2  -1  127.80    5.95
 -10   2   1  106.06    7.92
  -9   2  -1   34.88    3.14
  -9  -2   1   29.11    4.81
  -9   2  -1   29.72    3.48
  -9  -2  -1   30.48    3.46
  -9  -2   1   35.83    3.52
  -9   2   1   32.77    4.97
  -8   2   1  181.44    9.52
  -8   2  -1  173.98    7.29
  -8   2   1  191.52    7.29
  -8  -2  -1  172.18    7.27
  -8   2  -1  189.29    5.94
  -8  -2   1  174.53    9.92
  -8   2  -1  174.40   12.40
  -7   2  -1  327.79    7.01
  -7  -2   1  320.95   12.63
  -7   2  -1  327.54    9.61
  -7   2   1  351.40    9.01
  -7  -2  -1  315.29    9.58
  -7   2   1  339.17   12.21
  -7   2  -1  330.42   16.14
  -6   2   1 1399.44   23.06
  -6   2  -1 1371.89   18.90
  -6  -2  -1 1430.06   20.17
  -6   2  -1 1392.62   13.24
  -6  -2   1 1371.78   24.50
  -6   2  -1 1365.09   29.95
  -6   2   1 1410.33   16.60
  -5   2   1  609.43   14.36
  -5  -2   1  614.57   15.62
  -5   2   1  634.65   10.24
  -5   2  -1  598.39   12.30
  -5   2  -1  583.21   17.63
  -5   2  -1  611.19    7.97
  -4  -2  -1  244.20    7.69
  -4   2   1  250.52    6.01
  -4  -2   1  246.74    9.40
  -4   2  -1  241.01    7.72
  -4   2   1  247.02    8.80
  -4   2  -1  243.96   10.30
  -3   2   1   58.89    2.93
  -3  -2   1   57.68    4.52
  -3   2   1   50.94    4.15
  -3   2  -1   56.32    4.03
  -3  -2  -1   57.18    3.89
  -3   2  -1   49.05    4.21
  -2   2  -1  338.47    8.71
  -2   2  -1  366.08    9.49
  -2  -2   1  362.00    9.88
  -2   2   1  354.05    9.15
  -2  -2  -1  370.16    9.17
  -2  -2   1  371.36    6.62
  -2   2  -1  354.20    4.99
  -1  -2   1  612.61    7.53
  -1  -2  -1  614.76    7.30
  -1   2  -1  619.22   12.28
  -1   2   1  589.42   11.16
  -1  -2   1  603.53   11.92
  -1   2  -1  595.28    9.43
  -1  -2  -1  620.54   11.82
  -1   2  -1  602.48    6.41
   0  -2   1 1456.30   10.81
   0   2  -1 1491.00   10.47
   0  -2  -1 1436.23    7.37
   0  -2   1 1501.44   17.56
   0   2  -1 1485.57   11.12
   0   2  -1 1473.09   19.01
   0   2   1 1477.26   16.92
   0  -2  -1 1487.81   18.12
   1   2   1  634.81   10.74
   1  -2   1  606.05    6.32
   1   2  -1  609.92    7.09
   1   2  -1  611.83    5.35
   1   2  -1  614.85   12.46
   1  -2   1  625.16   10.83
   1  -2   1  606.54    6.79
   1  -2  -1  584.01   11.40
   2  -2   1  364.94    5.17
   2   2  -1  360.28    9.86
   2  -2   1  368.22    6.16
   2  -2   1  359.90    7.75
   2   2   1  339.12    7.33
   2   2  -1  356.14    5.90
   2  -2   1  372.32    5.33
   2  -2  -1  358.43    9.01
   3  -2   1   52.56    2.16
   3  -2   1   52.95    2.22
   3   2  -1   57.80    2.87
   3   2  -1   54.57    4.18
   3  -2   1   51.31    2.99
   3   2  -1   54.65    1.65
   3  -2   1   55.69    3.21
   3   2   1   52.95    3.24
   4  -2   1  249.58    4.83
   4   2  -1  237.39    8.25
   4  -2   1  248.00    7.37
   4   2   1  234.86    6.02
   4  -2   1  233.24    5.76
   4   2  -1  247.52    6.24
   4  -2   1  239.43    4.61
   4   2  -1  245.09    4.83
   5   2  -1  622.10   10.44
   5   2  -1  652.16   11.42
   5   2   1  622.75    9.76
   5  -2   1  628.82   13.69
   5  -2   1  630.81    8.42
   6   2  -1 1278.54   18.61
   6  -2   1 1431.39   14.30
   6   2   1 1405.93   14.55
   6  -2   1 1429.52   13.99
   6  -2   1 1372.12   23.00
   6   2   1 1426.64   14.99
   6   2  -1 1528.09   19.75
   7  -2  -1  363.30    9.44
   7   2   1  335.44    7.34
   7   2   1  357.48    8.30
   7  -2   1  317.34   12.51
   7  -2   1  344.48    6.95
   7   2  -1  323.75   11.49
   8  -2  -1  194.93    7.43
   8   2   1  188.94    5.59
   8   2   1  202.04    6.95
   8   2  -1  191.99   10.14
   8  -2   1  191.91    5.18
   9  -2   1   26.59    5.06
   9   2   1   31.61    3.37
   9   2   1   33.87    2.66
   9  -2  -1   38.45    4.17
  10   2   1  134.99    6.77
  10   2   1  134.91    5.02
  10  -2  -1  139.56    7.63
  11  -2  -1  203.66    9.78
  11  -2   1  206.13   13.11
  11   2   1  197.89    8.83
  12   2   1  551.86   15.37
  12  -2  -1  539.68   16.82
  13   2   1  134.83    8.08
  13  -2  -1  137.15    9.28
  14   2   1   74.44    6.69
  14   2  -1  169.60   11.91
  14  -2  -1   68.69    7.24
  14  -2   1  136.86   12.04
  15  -2  -1    2.53    3.43
  15   2  -1   12.96    5.30
  15  -2   1   14.39    6.26
  15   2   1    4.60    3.22
  16  -2  -1   26.43    5.34
  16   2  -1   76.55    8.53
  16  -2   1   76.25    9.95
  16   2   1   23.77    4.78
  17  -2  -1   37.73    6.34
  17   2  -1   84.79    9.10
  17  -2   1   91.34   10.86
  17   2   1   37.78    6.13
  18   2   1  153.34   11.52
  18  -2   1  287.19   17.60
  18   2  -1  279.11   15.44
  18  -2  -1  153.58   12.11
  19  -2  -1   41.86    7.35
  19  -2   1   74.46   10.08
  19   2  -1   72.09    8.92
  19   2   1   49.91    7.12
  20   2   1   33.59    6.30
  20  -2   1   49.06    8.76
  20   2  -1   47.25    7.58
  20  -2  -1   32.88    7.10
  21   2  -1    3.86    4.77
  21  -2   1    7.08    5.91
  21   2   1   -5.39    5.13
  21  -2  -1    3.88    5.19
  22   2  -1   17.00    5.88
  22   2   1    5.99    4.41
  23   2  -1   16.04    5.83
 -20   2   2   11.16    4.67
 -19   2   2  146.96   10.57
 -18   2   2   71.05    8.03
 -17   2   2  233.48   13.56
 -16   2   2   27.84    6.16
 -15   2   2   91.42    9.42
 -14  -2  -2   55.90    4.32
 -13   2  -2  710.80   12.68
 -13  -2  -2  611.44   13.76
 -12   2  -2  277.69    8.89
 -12  -2  -2  223.43    8.82
 -11  -2   2  488.31   15.72
 -11  -2  -2  549.38   13.88
 -10   2  -2   73.39    5.29
 -10  -2  -2   60.70    4.93
 -10  -2   2   55.37    5.19
  -9   2  -2  223.43    7.38
  -9   2  -2  197.12    8.52
  -9  -2   2  200.64    8.33
  -9  -2  -2  202.03    8.59
  -8  -2  -2  123.25    7.68
  -8  -2   2  119.71   10.32
  -8   2  -2  118.59    6.89
  -8   2  -2  130.61    5.34
  -8  -2   2  118.96    5.47
  -8  -2  -2  122.51    6.75
  -7   2  -2 1617.82   16.97
  -7   2  -2 1682.67   37.90
  -7  -2  -2 1581.15   23.99
  -7  -2  -2 1518.21   22.93
  -7  -2   2 1507.66   33.80
  -7   2  -2 1496.00   23.96
  -7   2   2 1623.67   18.59
  -7  -2   2 1520.79   15.51
  -6  -2  -2  503.45   13.30
  -6  -2  -2  503.40   12.09
  -6   2  -2  512.02    9.08
  -6  -2   2  504.03   18.70
  -6   2   2  515.73    9.97
  -6   2  -2  483.31   13.88
  -6  -2   2  512.49    6.90
  -5   2  -2 1552.28   31.63
  -5  -2  -2 1633.23   19.04
  -5   2  -2 1564.45   24.88
  -5   2   2 1632.29   16.49
  -5  -2   2 1607.00   31.29
  -5   2   2 1580.74   28.49
  -5  -2  -2 1634.38   23.71
  -4   2   2  224.18   10.25
  -4   2  -2  222.15    9.57
  -4  -2   2  238.78   11.61
  -4  -2  -2  236.86    6.41
  -4   2  -2  214.22   10.52
  -4  -2   2  240.73    6.59
  -3  -2  -2  648.72    9.21
  -3   2  -2  649.15   15.39
  -3  -2   2  670.65   10.11
  -3   2  -2  652.55   16.46
  -3  -2   2  636.69   17.58
  -3   2   2  644.13    6.07
  -3   2   2  638.37   15.83
  -2   2   2  303.65    4.33
  -2  -2  -2  290.06    5.41
  -2   2  -2  280.33    5.71
  -2   2  -2  287.17    8.20
  -2  -2   2  296.67   11.03
  -2   2   2  279.53    3.73
  -2   2   2  287.03    9.88
  -2  -2   2  293.40    6.37
  -1  -2   2 2542.55   17.86
  -1   2   2 2423.80   12.98
  -1   2  -2 2522.21   17.61
  -1  -2   2 2474.35   28.93
  -1  -2  -2 2528.32   14.11
  -1   2   2 2477.58   11.33
  -1   2   2 2472.72   27.07
  -1   2  -2 2610.43   17.59
   0   2  -2  728.43    9.15
   0  -2   2  756.60   14.91
   0   2   2  710.96    8.07
   0  -2   2  728.13    6.38
   0   2   2  755.49   14.00
   0  -2   2  750.23    9.63
   0   2   2  713.22    6.64
   1  -2   2 2579.00   25.48
   1   2   2 2526.35   23.85
   1  -2   2 2558.69   17.57
   1   2  -2 2516.57   17.49
   2  -2   2  286.48    5.91
   2   2   2  283.47    7.66
   2   2  -2  286.75    6.23
   2  -2   2  290.86    8.08
   2  -2   2  279.11    8.37
   2  -2   2  298.87    6.08
   3  -2   2  657.79    9.04
   3  -2   2  663.23    9.14
   3  -2   2  656.55   11.24
   3   2   2  645.34   10.80
   3   2  -2  659.38    9.78
   3  -2  -2  673.21    6.13
   4  -2   2  234.01    5.64
   4  -2   2  253.68    6.13
   4  -2   2  227.05    6.30
   4  -2   2  212.19   10.68
   4   2  -2  229.29    6.20
   4  -2  -2  239.78    3.81
   4   2   2  274.99    7.70
   5  -2   2 1641.23   16.02
   5   2  -2 1611.26   17.19
   5  -2   2 1631.21   15.13
   5   2   2 1613.73   15.88
   5  -2   2 1611.52   15.20
   5  -2  -2 1642.89   10.47
   6  -2   2  513.65    9.18
   6  -2   2  501.52    8.90
   6   2  -2  501.53    6.47
   6  -2   2  510.25    8.68
   6   2   2  508.00    8.81
   6   2  -2  536.53   10.99
   6  -2  -2  507.82    6.63
   7   2  -2 1607.31   20.06
   7  -2   2 1602.18   17.05
   7  -2  -2 1580.14   12.96
   7   2  -2 1566.62   15.29
   7   2   2 1563.72   14.81
   7  -2   2 1591.72   14.36
   8  -2   2  131.75    4.12
   8  -2   2  129.10    5.52
   8   2   2  129.27    4.37
   8   2  -2  122.07    5.43
   8   2  -2  132.31    6.55
   8   2   2  141.93    6.23
   8  -2  -2  131.55    4.41
   9  -2   2  221.87    5.12
   9   2   2  241.33    8.38
   9   2   2  226.59    5.70
   9   2  -2  225.05    9.21
   9  -2  -2  223.21    6.47
  10  -2   2   63.99    2.79
  10   2   2   71.13    5.21
  10   2   2   65.66    3.18
  10  -2  -2   64.24    4.22
  10   2  -2   63.50    5.68
  11  -2  -2  564.28   13.13
  11   2   2  612.79   15.09
  11   2   2  601.40    9.25
  11   2  -2  582.28   17.00
  12  -2  -2  153.78    7.84
  12   2  -2  163.77   10.09
  12   2   2  170.23    8.78
  12   2  -2  150.68    9.27
  13   2   2  402.27   14.08
  13  -2  -2  418.45   14.58
  13   2  -2  442.92   16.34
  13   2  -2  367.08   15.67
  13  -2  -2  342.98   12.41
  14  -2  -2   36.72    5.39
  14   2  -2   43.21    6.03
  14   2   2   36.04    5.21
  14  -2  -2   14.21    3.36
  14   2  -2   20.98    4.62
  15   2   2   52.46    6.01
  15   2  -2   26.58    5.22
  15  -2  -2   41.96    5.80
  15  -2   2   92.89   11.17
  15  -2  -2   24.84    4.45
  15   2  -2   69.63    7.50
  16   2  -2   18.35    5.00
  16   2   2   11.30    3.66
  16   2  -2    7.44    4.58
  16  -2  -2   10.41    3.96
  16  -2  -2   -1.10    4.19
  17   2  -2   80.73    9.44
  17   2   2  102.04    9.01
  17  -2  -2   93.04    8.75
  18   2   2   25.05    5.37
  18  -2  -2   17.72    4.72
  18   2  -2   26.78    6.44
  18  -2  -2   32.46    6.00
  19  -2  -2   48.51    6.95
  19   2  -2  129.19   10.37
  19  -2   2  153.11   13.45
  19  -2  -2   88.56    9.15
  19   2  -2   73.91    9.82
  19   2   2   58.43    7.68
  20   2  -2   13.19    5.09
  20  -2   2   22.81    7.37
  20  -2  -2   -1.73    5.44
  20   2   2    5.91    3.92
  20  -2  -2   17.36    5.61
  20   2  -2   14.80    6.72
  21   2  -2   21.67    7.58
  21  -2   2   12.82    6.43
  21   2  -2   17.83    5.46
  21  -2  -2   -2.93    5.42
  21   2   2    8.75    4.61
  21  -2  -2   16.64    5.98
  22   2  -2    8.65    5.08
  22  -2  -2   19.27    6.29
  23  -2  -2   43.03    7.50
 -21   2   3   13.01    5.35
 -20   2   3    1.73    4.70
 -19   2   3  133.27   11.60
 -13  -2   3  482.69   17.86
 -12  -2   3   38.97    5.80
 -11  -2   3  497.68   17.17
 -10  -2   3   13.51    3.79
  -9  -2   3   68.75    5.98
  -8   2  -3    8.51    3.25
  -8  -2   3    6.13    2.26
  -7  -2   3  508.84   11.94
  -7   2  -3  530.33   15.51
  -6  -2  -3   62.70    4.11
  -6  -2   3   47.19    2.96
  -6   2  -3   58.69    4.91
  -5  -2  -3  678.03   11.71
  -5   2  -3  637.80   13.15
  -5   2   3  664.74    9.13
  -4   2   3   35.09    2.06
  -4  -2  -3   39.81    2.82
  -4   2  -3   42.71    3.23
  -3   2   3   53.38    2.64
  -3  -2  -3   51.67    2.96
  -3  -2   3   44.71    6.13
  -3   2   3   46.22    2.22
  -3  -2   3   50.04    3.25
  -2  -2  -3   54.70    2.80
  -2   2   3   54.52    2.72
  -2  -2   3   53.99    5.98
  -2   2   3   51.60    2.30
  -2  -2   3   53.48    3.22
  -1  -2   3  760.11   11.33
  -1   2   3  753.01    9.57
  -1  -2   3  776.44   19.82
  -1   2   3  766.86   18.18
  -1   2   3  723.56    8.27
  -1   2  -3  731.43   10.84
   0   2   3   48.72    2.82
   0   2   3   49.40    2.39
   0  -2   3   58.42    5.60
   0   2  -3   55.27    3.58
   0  -2   3   48.24    3.07
   0   2   3   51.73    4.95
   1   2   3  742.19   10.63
   1  -2   3  774.37   16.89
   1   2  -3  740.19   11.21
   1  -2   3  771.92   11.31
   1   2   3  750.52   15.38
   1   2   3  750.83    9.20
   2  -2   3   52.36    3.30
   2   2   3   52.73    3.29
   2  -2   3   54.92    4.46
   2  -2   3   55.73    3.26
   2   2   3   52.26    4.28
   2   2  -3   53.93    3.38
   2  -2   3   46.91    7.41
   2   2   3   51.76    2.67
   3  -2   3   49.55    3.27
   3  -2   3   51.86    3.21
   3   2   3   43.46    3.28
   3  -2   3   49.85    3.91
   3   2  -3   50.94    3.43
   3   2   3   48.88    3.91
   4   2  -3   35.95    3.07
   4  -2   3   36.53    2.98
   4   2   3   36.76    3.26
   4  -2   3   34.99    3.10
   4  -2   3   37.57    2.77
   4  -2   3   46.56    8.11
   4  -2  -3   35.68    2.19
   5  -2   3  643.09   11.12
   5   2  -3  649.63   11.94
   5  -2   3  644.23   11.55
   5   2   3  644.24   11.26
   5  -2  -3  665.23    8.69
   6  -2   3   56.76    3.75
   6  -2   3   52.65    3.32
   6   2   3   56.47    3.51
   6   2  -3   54.51    4.04
   6  -2  -3   57.35    2.86
   7  -2  -3  556.22    8.56
   7  -2   3  561.68   11.26
   7   2  -3  551.16   12.15
   7  -2   3  556.00    9.54
   7   2   3  555.59    9.66
   8   2  -3    6.92    2.59
   8  -2   3    6.61    2.20
   8  -2   3   16.24    7.37
   8   2   3   14.98    3.12
   8  -2   3    9.89    1.58
   8   2   3   10.57    1.72
   8  -2  -3    9.51    1.73
   9  -2   3   49.32    4.08
   9   2   3   58.17    4.87
   9   2   3   50.18    2.85
   9   2  -3   48.98    4.62
   9  -2   3   50.60    2.61
   9  -2  -3   51.72    3.27
  10   2  -3    4.41    2.72
  10  -2  -3    8.83    2.02
  10   2   3    7.91    1.44
  10  -2   3    7.97    1.26
  10  -2   3   13.33    6.63
  10   2   3   10.64    2.99
  11   2  -3  310.87   11.90
  11   2   3  317.69    6.37
  11  -2  -3  297.40    8.35
  11  -2   3  317.17    5.61
  12   2  -3   17.54    4.20
  12  -2  -3   15.22    2.80
  12   2   3   17.52    3.78
  12   2  -3   23.03    3.14
  12   2   3   18.61    1.75
  13   2  -3  242.38    9.12
  13   2  -3  263.76   12.25
  13  -2  -3  247.86    9.15
  13   2   3  272.78   11.84
  14  -2  -3   -4.85    3.13
  14  -2   3    5.80    6.25
  14   2   3   -5.03    4.34
  14   2  -3    1.61    2.24
  14   2  -3    6.72    4.18
  15   2   3   29.59    5.22
  15   2  -3   18.68    3.63
  15   2  -3   28.38    5.66
  15  -2  -3   23.54    3.93
  16   2  -3    1.56    4.03
  16  -2  -3    3.72    2.98
  16  -2   3    0.31    5.72
  16   2  -3   -0.21    2.38
  16   2   3    1.66    3.11
  17   2   3   81.36    7.97
  17  -2  -3   72.16    6.67
  17   2  -3   70.37    8.40
  18   2  -3   -0.99    4.38
  18   2   3    0.75    3.55
  18  -2  -3    0.73    2.99
  18  -2   3    9.29    6.55
  18   2  -3   -0.95    2.86
  19   2  -3   41.46    7.17
  19  -2  -3   46.24    6.08
  19   2   3   58.29    7.93
  20  -2  -3   -5.49    4.10
  20   2  -3   -6.97    5.78
  20  -2   3    0.80    5.70
  20   2   3   -4.75    4.97
  21  -2  -3    1.68    3.54
  -9  -2   4  230.36   10.77
  -8  -2   4  182.66    9.24
  -7  -2   4  617.23   15.36
  -6   2   4  353.08    8.13
  -6  -2   4  359.90    9.66
  -5  -2   4  528.13    8.36
  -5   2   4  546.23    9.42
  -4   2   4  159.71    5.41
  -4  -2   4  143.07    3.55
  -4  -2   4  145.16    3.30
  -4   2   4  146.17    4.83
  -3   2   4  286.31    7.16
  -3  -2   4  273.82    6.23
  -3  -2   4  270.59    3.94
  -3   2   4  259.09    6.10
  -2  -2   4  149.90    5.85
  -2   2   4  153.23    5.45
  -2   2   4  143.28    4.58
  -1   2  -4  679.50   12.22
  -1   2   4  708.43   11.42
  -1  -2   4  738.25   15.36
  -1   2   4  660.16    9.69
   0   2   4  589.86   10.74
   0   2   4  581.83    9.37
   0   2  -4  556.59   11.07
   1   2   4  687.91   11.93
   1  -2   4  683.56   12.53
   1  -2   4  707.74   19.32
   1   2   4  686.58   10.32
   1   2   4  718.45   18.14
   1   2  -4  721.03   13.04
   2  -2   4  158.15   10.66
   2  -2   4  153.99    6.18
   2   2   4  150.23    6.01
   2   2   4  152.62    8.07
   2   2   4  151.69    5.26
   2   2  -4  145.16    5.97
   3   2  -4  277.86    8.23
   3  -2   4  303.69   15.81
   3  -2   4  288.40    8.36
   3   2   4  275.92    8.35
   3  -2   4  280.80   10.40
   3   2   4  287.22   10.03
   3   2   4  273.38    7.05
   4  -2   4  156.73   12.57
   4  -2   4  153.74    6.41
   4   2  -4  148.56    6.36
   4   2   4  150.27    6.69
   4   2   4  150.63    7.00
   4  -2   4  148.15    7.05
   5  -2   4  538.86   23.64
   5  -2   4  565.02   11.78
   5   2  -4  557.31   12.09
   5   2   4  569.67   12.52
   5  -2   4  539.35   12.41
   5  -2  -4  581.97    9.92
   6  -2   4  369.36    9.87
   6  -2   4  346.71    9.42
   6   2  -4  358.75   10.08
   6   2   4  352.38    9.24
   7  -2   4  419.00   10.74
   7  -2   4  404.78    9.43
   7   2   4  407.96    9.37
   7   2  -4  410.12   11.26
   7  -2  -4  420.55    8.85
   7  -2   4  416.31   22.53
   8   2   4  118.75    5.54
   8  -2   4   98.80    4.48
   8   2  -4   96.94    6.07
   8  -2   4   97.19    5.69
   8   2   4  119.53    7.04
   8  -2  -4  100.13    4.65
   8  -2   4  114.66   12.57
   9   2  -4  121.03    6.97
   9  -2   4  112.41    6.30
   9  -2   4  115.21    4.49
   9   2   4  127.45    7.26
   9   2   4  112.63    4.54
   9  -2  -4  115.88    5.19
  10  -2   4   55.02    4.94
  10   2   4   64.25    5.74
  10   2   4   62.63    3.34
  10   2  -4   60.52    5.54
  10  -2  -4   60.80    4.08
  11  -2  -4  207.76    7.43
  11  -2   4  206.17    9.12
  11   2   4  220.96   10.42
  11   2   4  218.29    5.56
  11   2  -4  219.48   10.14
  12   2   4  133.69    8.67
  12   2  -4  126.06    8.41
  12  -2  -4  125.43    6.21
  13   2   4  146.62    9.43
  13   2  -4  135.05    8.92
  13  -2  -4  142.88    6.98
  14   2  -4   18.43    4.64
  14  -2   4   34.98    8.02
  14   2   4   21.01    4.56
  14  -2  -4   26.50    3.82
  15   2  -4   20.58    5.06
  15   2   4   17.38    4.46
  15  -2  -4   29.09    4.22
  16   2  -4    6.19    4.31
  16  -2  -4   11.01    3.34
  16  -2   4   22.89    7.64
  16   2   4   17.96    4.88
  17   2  -4   28.19    5.96
  17  -2  -4   38.61    5.10
  18   2  -4   12.55    4.53
  18  -2  -4   22.04    4.37
  18   2   4   27.44    5.70
  19  -2  -4   25.93    4.73
  -5   2   5    3.19    1.92
  -5  -2   5    5.78    1.28
  -4   2   5   74.43    4.59
  -4  -2   5   71.71    3.51
  -3  -2   5    0.47    1.42
  -3   2   5    2.21    2.04
  -2  -2   5   82.00    5.03
  -2   2   5   88.69    5.08
  -1  -2   5    0.95    2.88
  -1   2   5    7.54    2.42
   0  -2   5  277.46    9.17
   0   2   5  282.87    8.72
   0  -2   5  296.13   11.91
   0   2  -5  276.56    8.96
   1   2  -5    4.59    2.44
   1  -2   5   12.44    4.16
   1  -2   5    5.73    2.58
   1   2   5    5.56    2.38
   2  -2   5   87.43    5.46
   2  -2   5   97.65    8.52
   2   2   5   88.64    5.46
   2   2  -5   82.97    5.32
   2   2   5   83.65    7.12
   3   2  -5    1.93    2.52
   3  -2   5    0.54    2.32
   3   2   5   -0.56    2.86
   3   2   5    0.35    2.25
   3  -2   5    2.88    3.60
   4  -2   5   69.84    8.38
   4  -2   5   70.13    5.08
   4   2   5   68.11    5.29
   4   2   5   75.40    5.98
   4   2  -5   71.48    5.16
   5   2  -5    2.81    2.53
   5   2   5    3.15    2.43
   5  -2   5    7.33    2.77
   5   2   5    1.63    2.62
   5  -2   5    1.85    4.53
   6  -2   5  220.72   15.85
   6  -2   5  229.22    8.93
   6   2  -5  235.63    9.19
   6   2   5  246.44    9.14
   6  -2  -5  239.98    7.75
   7   2  -5   13.56    3.50
   7   2   5   20.66    3.70
   7  -2   5    6.48    4.93
   7  -2   5   15.05    3.27
   7   2   5   15.07    2.70
   7  -2  -5   13.69    2.65
   8  -2   5   65.12    5.31
   8   2   5   75.39    6.23
   8   2   5   61.39    4.23
   8  -2  -5   64.13    4.53
   8   2  -5   61.17    5.44
   9   2  -5    4.72    3.20
   9  -2   5   -1.19    6.42
   9  -2  -5    2.87    2.17
   9  -2   5    0.61    2.55
   9   2   5    2.77    1.86
   9   2   5    5.98    3.25
  10  -2   5   54.07    5.29
  10   2   5   52.33    5.77
  10   2  -5   57.96    5.74
  10  -2  -5   48.74    4.18
  10  -2   5   57.16    9.75
  11   2  -5   13.66    4.30
  11  -2  -5    7.22    2.60
  11  -2   5    5.02    3.10
  11   2   5    6.68    3.66
  11  -2   5    9.39    6.21
  12   2   5  113.22    8.69
  12   2  -5  125.67    8.65
  12  -2  -5  112.75    6.38
  13   2  -5   19.56    4.80
  13  -2  -5   10.60    3.04
  13  -2   5   23.32    7.32
  13   2   5   11.42    4.14
  14  -2  -5   28.60    4.11
  14   2   5   25.00    5.29
  14   2  -5   34.62    6.02
  15   2  -5    7.43    4.49
  15  -2  -5   13.05    3.56
  15   2   5   -3.00    4.91
  15  -2   5    1.98    5.56
  16   2  -5   18.79    5.44
  16  -2   5   26.11    7.21
  16  -2  -5   21.87    4.27
  17  -2   5    4.81    5.76
  -7   2   6    2.21    2.54
  -6   2   6  243.14    9.13
  -5   2   6    1.53    2.32
  -4   2   6  167.98    7.78
  -3   2   6    1.65    2.53
  -2   2   6  182.34    8.13
  -1  -2   6   -0.53    2.54
  -1   2   6    4.90    2.82
   0  -2   6  320.64   11.06
   0   2   6  337.47   10.99
   1   2   6    2.75    2.59
   1  -2   6    3.68    2.96
   2  -2   6  178.64    8.49
   2   2   6  184.38    8.78
   2  -2   6  187.38   12.49
   2   2   6  186.48   11.48
   2   2  -6  176.96    8.37
   3   2  -6    4.84    3.12
   3  -2   6    1.37    2.59
   3   2   6    1.20    3.37
   3   2   6    0.57    2.79
   3  -2   6    3.83    3.95
   4  -2   6  159.33   12.55
   4  -2   6  168.30    8.36
   4   2   6  158.47    8.56
   4   2   6  166.18    9.61
   4   2  -6  166.57    8.31
   5   2  -6    3.43    3.67
   5   2   6   -1.67    3.37
   5   2   6    0.99    2.80
   5  -2   6    5.89    3.19
   5  -2   6    1.44    4.39
   6  -2   6  238.17   10.04
   6   2   6  230.52   10.96
   6   2   6  246.24   10.28
   6   2  -6  243.71   10.30
   6  -2   6  212.29   16.13
   7   2  -6    2.24    3.28
   7   2   6    7.08    3.68
   7  -2   6   -1.87    5.71
   7   2   6    1.92    2.45
   7  -2   6    1.63    2.96
   8   2  -6  102.18    7.30
   8  -2   6  102.36    7.24
   8   2   6  118.16    8.15
   8  -2  -6  106.14    6.30
   9   2  -6   -0.02    3.37
   9  -2  -6    2.12    2.54
   9  -2   6   -6.39    7.19
   9   2   6    4.01    3.60
   9  -2   6   -0.21    3.00
  10  -2   6   71.40    6.57
  10   2  -6   72.21    6.83
  10   2   6   75.20    7.29
  10  -2  -6   71.47    5.52
  10  -2   6   62.11   10.54
  11   2  -6   -2.61    4.01
  11  -2  -6    2.63    2.92
  11  -2   6   -2.06    3.54
  11   2   6    0.53    3.57
  11  -2   6    0.26    5.39
  12  -2   6  101.35    8.11
  12   2   6  102.27    8.96
  12   2  -6  100.06    8.46
  12  -2   6  121.62   13.50
  12  -2  -6  107.17    7.02
  13  -2   6    5.31    6.18
  14  -2   6   48.23    9.61
  15  -2   6    6.66    6.10
  -7   2   7   18.04    3.98
  -6   2   7   24.22    4.20
  -5   2   7   23.69    4.25
  -4  -2   7   11.10    3.88
  -4   2   7   12.35    3.59
  -3  -2   7    9.69    3.77
  -3   2   7   12.26    3.60
  -2  -2   7    8.27    3.60
  -2   2   7   10.96    3.48
  -1  -2   7   27.01    4.58
  -1   2   7   30.78    4.52
   0  -2   7   26.09    4.59
   0   2   7   27.61    4.55
   1   2   7   26.46    4.68
   1  -2   7   26.61    4.63
   1   2   7   21.66    6.27
   2  -2   7   12.40    3.97
   2   2   7    4.56    4.38
   2   2   7    7.26    3.49
   3   2   7    6.80    4.26
   3  -2   7    9.56    3.60
   3   2   7    6.04    3.45
   4   2  -7   16.87    4.28
   4   2   7   10.74    4.19
   4  -2   7   13.35    3.94
   4   2   7    8.04    3.75
   5   2   7   19.34    4.61
   5  -2   7   24.47    4.66
   5   2   7   19.78    4.70
   5   2   7   31.69    5.04
   5   2  -7   24.57    4.67
   6  -2   7   24.39    4.52
   6   2   7   38.10    5.68
   6   2  -7   26.34    4.79
   7   2   7   23.69    4.91
   8   2   7   19.61    4.79
  -1   2   8   40.13    5.80
   0   2   8   26.98    5.18
   1   2   8   35.81    5.73
   1   2   8   33.23    7.42
   2   2   8   22.75    6.49
   2   2   8   21.93    5.06
 -17   3   0  153.22   10.02
 -16   3   0    1.78    3.74
 -15   3   0   15.67    4.47
 -14   3   0    2.37    3.55
 -13   3   0  208.49    8.75
 -13   3   0  258.13   12.76
 -12   3   0    3.70    3.31
 -12   3   0    2.21    1.76
 -11   3   0  328.39    9.03
 -11  -3   0  330.70   14.12
 -11   3   0  341.72   13.91
 -10  -3   0    1.32    2.56
 -10   3   0    0.93    2.82
 -10   3   0    2.27    1.44
  -9   3   0   19.97    4.24
  -9   3   0   23.26    2.16
  -9  -3   0   19.79    3.89
  -8  -3   0   -0.26    2.25
  -8   3   0    1.53    2.73
  -8   3   0    0.19    0.89
  -7   3   0  700.42    8.05
  -7  -3   0  699.07   17.70
  -7   3   0  709.51   15.20
  -6  -3   0    4.62    2.75
  -6   3   0    6.33    3.12
  -6   3   0    5.05    2.06
  -5   3   0  843.58   13.98
  -5  -3   0  860.17   18.47
  -5   3   0  865.48   18.13
  -4   3   0   -1.01    1.36
  -4  -3   0    0.12    1.74
  -4   3   0    0.57    2.18
  -3   3   0   95.33    4.13
  -3   3   0  104.77    6.16
  -3  -3   0   99.58    6.05
  -2   3   0    0.13    2.00
  -2  -3   0    0.95    1.51
  -2   3   0    1.22    1.02
  -1   3   0 1067.12   11.99
  -1   3   0 1018.27   17.27
  -1  -3   0 1029.06   17.28
  -1   3   0 1022.07    6.75
   0   3   0    7.49    2.79
   0  -3   0    7.71    2.49
   0   3   0    4.50    0.89
   1   3   0  981.39   15.91
   1   3   0 1013.09    8.95
   2   3   0    1.71    1.99
   2  -3   0    1.61    1.57
   2  -3   0    1.15    0.49
   2  -3   0    0.17    0.60
   2   3   0   -0.20    0.97
   3   3   0   97.75    3.92
   3  -3   0  102.84    5.29
   3  -3   0   94.41    2.13
   3   3   0  102.10    5.54
   3  -3   0   96.43    2.16
   4   3   0    2.02    1.98
   4  -3   0    0.53    0.50
   4  -3   0    1.58    1.62
   5   3   0  822.53   14.90
   5  -3   0  838.04    6.90
   6   3   0    3.64    2.20
   6  -3   0    2.19    0.84
   6  -3   0    3.37    1.87
   7  -3   0  730.73   13.90
   7   3   0  704.02   14.02
   7   3   0  746.96   11.26
   7  -3   0  719.70   13.43
   8   3   0    0.98    1.53
   8  -3   0    4.55    2.63
   8   3   0    0.67    1.87
   9   3   0   20.00    2.67
   9   3   0   19.20    2.91
  10   3   0   -2.57    2.57
  10  -3   0    1.35    2.75
  11   3   0  352.03   11.35
  11  -3   0  359.89   13.52
  12   3   0    3.38    2.65
  12  -3   0    3.17    3.55
  13   3   0  213.36   10.28
  13  -3   0  227.42   12.21
  14  -3   0    0.17    3.36
  14   3   0   -2.27    3.27
  15   3   0    1.76    3.09
  15  -3   0    4.27    3.78
  16  -3   0   -7.61    5.38
  16   3   0   -4.10    4.23
  17  -3   0   77.00    9.07
  17   3   0   93.64    8.73
  18  -3   0    2.27    4.60
  18   3   0    2.85    3.98
  19   3   0  107.01    9.55
  19  -3   0   92.95   10.25
  20  -3   0    2.55    5.29
  20   3   0   -5.39    4.91
  21   3   0   -1.58    4.68
  22   3   0   -3.82    4.83
  23   3   0   26.76    6.09
 -19   3   1   64.87    7.14
 -18   3   1   38.88    6.31
 -17   3   1   90.54    8.54
 -16   3  -1    8.41    3.75
 -16   3   1   -0.43    3.76
 -15   3  -1   12.84    4.08
 -15   3   1    4.52    4.04
 -14   3  -1    9.65    3.73
 -14  -3  -1    2.87    2.84
 -14   3   1    3.51    3.92
 -14   3   1    0.51    2.79
 -13   3  -1  148.73    9.35
 -13  -3  -1  127.74    8.79
 -13   3   1  150.60   10.57
 -12   3   1   40.36    4.34
 -12   3   1   52.05    6.64
 -12   3  -1   59.14    6.22
 -12  -3  -1   51.85    5.82
 -11   3  -1  119.92    5.61
 -11   3   1   94.24    5.69
 -11   3  -1  113.82    8.12
 -11  -3  -1  111.60    7.90
 -11   3   1  109.23    8.80
 -10   3  -1    0.81    2.82
 -10  -3  -1    0.28    2.26
 -10   3   1    1.05    3.27
 -10   3  -1    0.26    1.20
 -10   3   1   -2.55    2.07
  -9   3  -1    3.44    2.95
  -9  -3  -1    2.89    2.56
  -9   3   1    4.49    3.39
  -9   3  -1    3.43    1.42
  -9   3   1    0.56    1.37
  -8   3  -1    2.37    2.77
  -8  -3  -1    1.81    2.28
  -8   3   1    4.96    3.52
  -8   3  -1    2.12    1.21
  -8   3   1    0.49    0.93
  -8   3  -1    1.40    2.43
  -7  -3  -1  225.95   10.47
  -7   3   1  208.65   10.29
  -7   3   1  203.56    3.89
  -7  -3   1  209.43   10.92
  -7   3  -1  203.86    9.48
  -7   3  -1  204.12   10.90
  -6   3   1  103.38    1.97
  -6   3   1  115.55    5.29
  -6  -3   1  112.42    7.71
  -6   3  -1  114.02    7.13
  -6   3   1  111.11    7.59
  -6   3  -1   99.21    7.17
  -5   3   1  200.05    6.46
  -5  -3   1  201.05    9.71
  -5   3  -1  197.01    9.00
  -5  -3  -1  203.99    9.24
  -5   3   1  193.88    9.07
  -5   3  -1  189.25    9.02
  -4   3  -1   18.03    3.35
  -4   3   1   18.34    3.56
  -4   3   1   19.53    2.18
  -4   3  -1   15.56    2.60
  -4  -3   1   17.90    3.41
  -4  -3  -1   17.98    3.14
  -3   3   1   30.96    2.50
  -3   3  -1   29.99    3.94
  -3  -3   1   30.77    3.75
  -3   3  -1   30.71    3.16
  -3  -3  -1   29.14    3.61
  -3   3   1   35.86    4.74
  -2   3  -1    1.29    0.83
  -2  -3   1    2.75    2.01
  -2   3   1    2.03    2.22
  -2   3  -1    1.94    2.36
  -2  -3  -1    3.55    2.12
  -2   3  -1    4.80    1.61
  -1   3  -1  236.65    9.34
  -1   3  -1  236.18    6.03
  -1  -3   1  250.64    9.06
  -1   3   1  239.63    8.53
  -1  -3   1  244.47    5.83
  -1  -3  -1  244.52    9.04
  -1   3  -1  224.27    4.47
   0  -3   1   99.64    3.50
   0   3  -1   99.26    3.19
   0  -3  -1   98.48    2.51
   0   3  -1  105.41    6.32
   0   3  -1   96.31    3.45
   0  -3   1   98.27    5.51
   0   3   1   95.39    5.34
   0  -3  -1  105.90    6.04
   1   3  -1  239.38    5.00
   1   3  -1  238.37    4.64
   1   3  -1  237.08    9.11
   1  -3   1  242.58    8.33
   1   3   1  238.66    8.18
   1  -3   1  240.67    5.08
   1  -3  -1  241.21    8.84
   2  -3   1    1.56    0.80
   2   3  -1    2.65    1.10
   2   3   1    2.72    1.92
   2  -3   1    2.82    1.66
   2  -3  -1    1.36    1.86
   2   3  -1    1.57    2.26
   3  -3   1   28.94    1.79
   3   3  -1   30.59    3.81
   3  -3  -1   29.84    3.34
   3   3   1   25.55    2.87
   3  -3   1   31.60    3.00
   3   3  -1   28.44    2.26
   3  -3   1   30.32    1.83
   4  -3   1   17.22    1.54
   4  -3   1   20.75    2.31
   4   3   1   17.59    2.58
   4  -3   1   19.26    2.47
   4   3  -1   17.13    2.12
   4  -3   1   18.33    1.53
   4  -3  -1   17.30    2.76
   4   3  -1   18.32    3.22
   5  -3   1  224.18    7.58
   5  -3   1  203.81    4.87
   5   3  -1  200.72    8.59
   5  -3   1  204.19    6.71
   5   3  -1  203.37    4.67
   5   3   1  192.29    6.61
   5   3  -1  195.68    6.40
   5  -3   1  203.96    4.69
   6  -3   1  108.65    4.03
   6   3  -1  109.92    4.11
   6   3  -1  102.55    6.43
   6  -3   1  113.03    5.77
   6   3   1  108.15    5.27
   6  -3   1  112.92    5.12
   6  -3   1  120.22    3.93
   6   3  -1  109.67    5.52
   7   3  -1  216.30    6.75
   7  -3   1  216.21    8.48
   7   3   1  220.12    7.34
   7   3  -1  221.99    8.34
   7  -3   1  218.67    5.42
   7  -3   1  228.13    7.05
   8   3   1    1.07    1.67
   8  -3   1    0.29    2.80
   8   3  -1    4.11    2.11
   8   3   1    2.96    1.91
   8  -3   1    1.02    1.41
   8   3  -1   -0.84    3.23
   9  -3   1   -0.87    3.15
   9   3   1    4.70    2.12
   9  -3   1    1.21    1.33
   9   3  -1    2.07    1.94
   9   3  -1   -3.11    3.97
   9   3   1    1.42    1.72
  10  -3   1   -0.62    3.36
  10   3  -1   -0.84    2.56
  10  -3   1   -0.20    1.41
  10   3   1    0.78    1.91
  10   3   1    0.04    1.61
  11   3  -1  107.06    8.01
  11   3   1  124.43    6.70
  11  -3  -1  132.02    8.05
  11   3   1  121.08    5.73
  11  -3   1  107.50    8.51
  12   3   1   57.38    5.17
  12  -3  -1   72.26    6.55
  12   3  -1   69.40    7.10
  13   3   1  138.91    8.13
  13  -3  -1  144.35    9.22
  14   3   1   11.03    3.49
  14  -3   1   -2.04    4.78
  14   3  -1   10.63    4.40
  14  -3  -1    7.31    3.84
  15  -3   1    8.39    4.81
  15   3   1    6.17    3.16
  15   3  -1    7.21    3.78
  15  -3  -1    7.11    3.74
  16  -3   1    6.55    5.14
  16   3   1    1.49    2.70
  16   3  -1    2.28    4.09
  16  -3  -1    1.21    3.64
  17   3   1   39.06    5.98
  17  -3  -1   35.48    6.14
  17  -3   1   79.37    9.84
  17   3  -1  102.20    9.49
  18   3  -1   41.40    6.66
  18   3   1   11.69    4.27
  18  -3  -1   12.28    4.20
  18  -3   1   48.80    8.55
  19  -3   1   81.53   10.34
  19   3  -1   79.69    8.53
  19  -3  -1   29.93    5.88
  19   3   1   38.61    6.48
  20  -3   1   11.85    6.27
  20   3  -1    4.46    4.47
  20  -3  -1   -6.06    5.88
  20   3   1    3.16    3.60
  21   3  -1    8.42    4.99
  21   3   1    4.75    4.09
  22   3   1    9.21    4.81
 -20   3   2   16.54    5.32
 -19   3   2   27.25    6.39
 -18   3   2  122.29   10.70
 -17   3   2   45.60    7.58
 -16   3   2   26.65    6.50
 -15   3   2   26.16    6.41
 -14   3  -2   60.94    5.89
 -14   3   2   45.72    7.78
 -13   3  -2  127.50    8.47
 -13  -3  -2   97.57    7.81
 -13   3   2  107.64   10.42
 -12  -3  -2  260.19   12.33
 -12   3   2  282.73   15.69
 -11   3  -2  102.06    7.85
 -11  -3  -2   87.33    7.35
 -11   3   2   91.34    9.42
 -10   3  -2   38.67    5.21
 -10  -3  -2   48.07    5.72
 -10   3   2   42.32    6.90
  -9   3  -2   50.43    5.77
  -9  -3  -2   50.90    5.62
  -9   3   2   55.91    7.35
  -8   3  -2   62.42    6.38
  -8  -3  -2   65.09    6.21
  -8   3   2   64.80    7.51
  -7  -3  -2  241.50   10.37
  -7   3  -2  233.13   11.48
  -7   3   2  239.78   12.72
  -7  -3  -2  248.41   11.42
  -6  -3  -2  601.81   14.35
  -6   3  -2  574.05   17.52
  -6   3   2  604.72   18.95
  -6  -3  -2  624.28   17.49
  -5   3   2  284.59    3.06
  -5  -3  -2  306.65    9.02
  -5   3  -2  309.00   12.99
  -5   3   2  311.51   12.84
  -5  -3  -2  323.07   12.70
  -4   3   2  148.19    8.68
  -4  -3  -2  149.88    5.54
  -4   3  -2  143.03    8.97
  -4  -3  -2  150.86    8.56
  -3   3  -2  149.96   12.58
  -3  -3  -2  123.86    4.32
  -3   3  -2  119.44    8.16
  -3  -3   2  127.53    5.17
  -3   3   2  125.76    7.52
  -3  -3  -2  131.90    7.88
  -2  -3   2  108.90    4.49
  -2  -3  -2  105.22    3.40
  -2  -3  -2  112.48    7.22
  -2   3  -2  103.95    7.72
  -2  -3   2  107.06    7.02
  -2   3   2   92.90    1.71
  -2   3   2  101.34    6.60
  -2   3  -2  100.45    3.79
  -1  -3  -2  442.76    5.88
  -1  -3   2  445.79    8.50
  -1   3  -2  438.60   14.95
  -1  -3   2  447.51   13.05
  -1   3   2  424.71    4.08
  -1   3   2  431.66   12.27
  -1  -3  -2  465.07   14.26
   0  -3   2  956.25   12.11
   0   3  -2  920.55   20.95
   0  -3   2  953.27   17.94
   0   3   2  898.12   16.69
   0   3  -2  918.55   11.11
   0   3   2  916.15    6.98
   1   3  -2  431.65   14.74
   1  -3   2  453.95   11.93
   1  -3   2  448.73    8.15
   1   3  -2  438.60    8.06
   2   3  -2   99.09    4.06
   2  -3   2  108.32    3.57
   2  -3   2  112.84    5.85
   2   3   2  105.74    5.66
   2  -3   2  118.84    4.23
   3  -3   2  124.87    4.24
   3  -3   2  124.58    4.55
   3  -3   2  121.91    5.88
   3   3   2  118.33    5.76
   3   3  -2  122.46    4.77
   3  -3   2  127.25    4.41
   4  -3   2  148.61    4.78
   4  -3   2  155.16    5.84
   4  -3   2  155.62    6.40
   4   3   2  145.36    6.19
   4   3  -2  146.04    5.38
   4  -3   2  155.40    4.91
   5  -3   2  311.73    6.93
   5  -3   2  311.46    9.53
   5   3   2  309.72    8.67
   5  -3   2  327.35    8.81
   5   3  -2  315.53    8.12
   5  -3   2  324.60    7.16
   6  -3   2  606.97   10.04
   6  -3   2  611.37   14.72
   6   3   2  597.84   11.50
   6  -3   2  613.69   11.39
   6  -3   2  632.07   10.17
   6   3  -2  610.60   12.08
   7  -3   2  259.68    7.12
   7  -3   2  252.03   10.85
   7   3   2  254.48    7.64
   7  -3   2  272.42    7.75
   7   3  -2  256.91    8.65
   7  -3  -2  261.69    3.90
   7  -3   2  272.26    7.20
   8  -3   2   69.79    4.15
   8   3   2   73.01    4.23
   8  -3   2   72.75    7.02
   8   3  -2   54.80    4.39
   8  -3   2   74.70    4.05
   8   3  -2   71.90    5.24
   8  -3  -2   73.76    2.50
   8  -3   2   71.42    3.89
   9  -3  -2   57.51    2.64
   9   3   2   57.10    3.83
   9  -3   2   62.17    7.10
   9   3   2   66.36    4.68
   9   3  -2   48.42    4.78
   9   3  -2   57.78    5.11
   9  -3   2   60.37    3.65
  10   3  -2   50.90    5.33
  10   3   2   50.13    3.58
  10   3   2   57.98    4.67
  10  -3   2   48.89    6.79
  10   3  -2   56.19    5.66
  10  -3  -2   50.56    2.96
  10  -3   2   55.63    3.50
  11   3   2  108.46    5.03
  11   3   2  119.70    6.89
  11   3  -2  106.55    7.67
  11  -3  -2  101.78    4.59
  11  -3   2  106.87    4.61
  12   3  -2  254.27   12.22
  12   3   2  288.79   10.89
  12   3   2  283.82    8.00
  12  -3   2  239.31   15.05
  12  -3  -2  257.82    8.06
  13   3   2   76.78    6.30
  13   3   2   77.43    4.38
  13  -3   2   87.34   10.00
  13   3  -2   66.60    7.12
  13  -3  -2   70.27    4.90
  14   3   2   21.58    3.97
  14  -3  -2   26.55    3.66
  14   3  -2   20.44    4.81
  15   3   2   23.85    4.61
  15  -3   2   20.73    6.62
  15   3  -2   27.67    5.48
  15  -3  -2    8.32    2.79
  15   3  -2    9.06    4.56
  16  -3   2   20.43    6.70
  16   3  -2   24.95    5.50
  16  -3  -2    6.63    2.90
  16   3   2   16.18    4.18
  16   3  -2    6.63    4.26
  17   3  -2   29.70    5.47
  17   3   2   20.05    4.60
  17  -3  -2   12.09    3.38
  17   3  -2   17.35    5.72
  18   3   2   57.93    7.03
  18  -3  -2   48.83    6.07
  18   3  -2   37.73    7.27
  19   3   2   13.64    4.70
  19   3  -2    6.18    5.54
  20   3   2    2.90    3.79
  20  -3   2   24.89    7.45
 -21   3   3    2.05    4.90
 -20   3   3   27.14    6.76
 -19   3   3   -1.18    5.01
 -18   3   3  122.75   11.96
 -17   3   3    3.76    5.84
 -16   3   3   45.11    8.66
 -15   3   3    9.28    6.15
 -14   3   3   60.89    9.56
 -13   3   3    7.62    5.83
 -12   3   3  216.49   15.62
 -11   3   3    1.92    4.88
 -10   3   3   28.30    6.78
  -9   3   3   13.03    5.11
  -8   3   3   35.94    6.89
  -7   3   3    6.11    4.33
  -7   3  -3    3.39    3.00
  -6  -3  -3  339.99    9.30
  -6   3  -3  310.62   13.25
  -6   3   3  309.14   15.70
  -5   3   3    9.19    1.25
  -5  -3  -3   10.66    2.01
  -5   3  -3    7.50    2.68
  -5   3   3    9.16    4.37
  -4  -3  -3   24.84    2.40
  -4   3   3   25.55    1.74
  -4   3   3   23.86    5.02
  -4   3  -3   24.07    3.18
  -4   3   3   23.05    1.61
  -3  -3  -3   59.20    3.16
  -3   3   3   60.67    2.61
  -3   3  -3   61.96    3.86
  -3   3   3   60.10    2.26
  -3   3   3   57.33    6.43
  -2  -3  -3   35.57    2.32
  -2   3   3   34.06    2.20
  -2   3   3   33.49    4.94
  -2   3  -3   41.10    2.60
  -2   3   3   36.19    1.78
  -2   3  -3   37.49    3.00
  -1   3  -3    7.56    1.94
  -1   3   3    7.97    3.32
  -1   3   3    6.65    1.43
  -1   3   3    8.04    1.04
   0   3   3  335.93   11.67
   0   3   3  322.00    5.45
   1   3  -3    7.55    2.04
   1   3   3    7.23    1.17
   1   3   3    9.69    2.97
   1  -3   3    8.96    1.15
   2  -3   3   39.05    3.07
   2  -3   3   37.05    2.60
   2   3   3   35.40    3.94
   2   3  -3   34.24    3.06
   3  -3   3   58.28    3.66
   3  -3   3   63.25    4.68
   3  -3   3   71.32    4.43
   3   3   3   56.11    4.44
   3   3  -3   59.27    3.93
   4  -3   3   22.27    2.53
   4  -3   3   24.64    3.10
   4  -3   3   30.49    3.91
   4   3   3   26.61    3.65
   4   3  -3   23.66    2.85
   5   3  -3   10.28    2.50
   5  -3   3    8.91    2.30
   5   3   3    8.08    2.25
   5  -3   3    7.19    2.01
   5  -3   3   13.33    3.63
   6  -3   3  320.64    8.40
   6  -3   3  314.19    8.77
   6  -3   3  341.81   14.38
   6   3   3  306.23    8.53
   6   3  -3  334.43    9.53
   7   3  -3    8.69    2.73
   7  -3   3    8.55    1.96
   7   3   3    8.30    2.12
   7  -3   3    8.82    2.26
   7  -3   3    6.77    3.80
   7  -3  -3   10.65    1.40
   8  -3   3   41.88    3.74
   8  -3   3   33.93    6.28
   8   3   3   44.84    3.47
   8  -3   3   40.22    3.22
   8   3  -3   43.66    4.31
   8  -3  -3   47.92    2.47
   9   3  -3   16.50    3.46
   9  -3   3   16.51    2.83
   9  -3   3   13.16    4.99
   9   3   3   19.29    2.57
   9  -3   3   18.48    2.33
   9   3   3   25.23    3.79
   9  -3  -3   18.16    1.87
  10  -3  -3   38.30    2.61
  10  -3   3   36.19    3.83
  10  -3   3   32.15    6.82
  10   3   3   38.78    3.16
  10   3   3   43.18    4.47
  10   3  -3   33.71    4.46
  10  -3   3   34.40    2.80
  11   3  -3    0.37    3.33
  11  -3  -3    5.23    1.65
  11   3   3    4.81    1.74
  11   3   3    5.40    2.87
  11  -3   3    8.91    5.87
  12   3  -3  187.75    6.30
  12   3   3  210.57    9.92
  12   3   3  197.23    6.37
  12   3  -3  190.00   10.39
  12  -3  -3  194.22    6.38
  13   3   3   -0.86    3.10
  13   3  -3   -5.71    5.06
  13  -3  -3    2.03    1.78
  13  -3   3    7.85    6.46
  13   3  -3    5.60    2.13
  13   3   3    3.32    1.63
  14   3  -3   34.34    5.96
  14   3   3   33.73    5.02
  14  -3  -3   34.78    3.51
  15   3  -3   11.29    4.94
  15  -3  -3    1.66    2.09
  15   3   3   -1.02    4.10
  15  -3   3   11.65    6.62
  16   3  -3   24.63    5.74
  16  -3  -3   15.88    3.07
  16   3   3   30.14    5.04
  17   3  -3    2.23    4.24
  17  -3   3    3.91    6.23
  17   3   3    6.00    4.02
  18   3   3   62.07    7.16
  18   3  -3   51.89    7.67
  19  -3   3    5.59    6.43
  19   3   3    0.17    3.03
 -18   3   4   76.29   11.00
 -17   3   4   22.79    7.97
 -16   3   4   70.18   11.10
 -15   3   4   13.79    7.97
 -14   3   4  102.34   13.33
 -13   3   4   38.65    9.60
 -12   3   4  223.85   18.10
 -11   3   4   22.29    7.80
 -10   3   4   79.52   11.32
  -9   3   4   -3.11    6.30
  -8   3   4  164.97   14.62
  -7   3   4   24.78    6.71
  -6   3   4  516.22    9.12
  -6   3   4  461.07   21.58
  -5   3   4   32.16    2.62
  -5   3   4   26.33    6.43
  -5   3   4   28.94    2.39
  -4   3   4  284.16    6.85
  -4   3   4  266.71    6.03
  -4   3   4  271.87   14.96
  -3   3   4    0.78    1.03
  -3   3   4    0.52    3.91
  -3   3   4    1.92    1.45
  -2   3   4  355.17   15.39
  -2   3   4  342.49    7.94
  -2   3   4  322.76    6.44
  -1   3   4   30.87    2.89
  -1   3   4   32.37    2.26
  -1   3   4   35.38    5.56
  -1   3  -4   34.13    3.44
   0   3   4  707.54   19.09
   0   3   4  698.98   12.67
   0  -3   4  676.58    6.38
   0   3   4  674.13    9.58
   0   3  -4  685.86   12.84
   1   3   4   33.86    3.40
   1  -3   4   43.44    2.85
   1   3   4   39.78    5.16
   1   3   4   31.94    2.41
   1   3  -4   40.24    4.21
   2  -3   4  330.62    9.31
   2  -3   4  373.59   10.48
   2   3   4  345.47   11.98
   2   3  -4  337.91    9.34
   2   3   4  359.12    7.99
   3   3  -4    1.23    2.18
   3   3   4    2.03    1.32
   3   3   4    3.20    2.60
   3  -3   4    2.15    2.13
   3  -3   4    0.69    2.57
   4  -3   4  276.93    8.56
   4  -3   4  277.33   13.15
   4   3   4  276.28    9.76
   4   3  -4  279.34    9.00
   5  -3   4   30.38    3.43
   5  -3   4   30.75    5.54
   5   3   4   33.22    3.75
   5   3  -4   31.62    3.75
   6  -3   4  480.36   11.43
   6   3  -4  491.08   12.33
   7  -3   4   36.20    3.77
   7   3   4   34.51    3.50
   7   3  -4   36.70    4.39
   8  -3   4  214.61   16.04
   8  -3   4  197.29    7.95
   8   3   4  195.25    7.19
   8   3  -4  199.39    8.77
   8  -3  -4  210.44    5.96
   9   3  -4    3.53    3.12
   9  -3  -4    1.02    1.60
   9   3   4    2.02    1.75
   9  -3   4   -0.47    2.37
   9  -3   4    3.35    5.48
   9   3   4    5.14    3.09
  10  -3   4  109.34    6.65
  10   3   4  108.61    5.05
  10   3   4  126.74    7.59
  10   3  -4  116.26    7.59
  10  -3  -4  121.33    4.97
  11   3  -4   22.76    4.53
  11  -3   4   20.50    3.71
  11   3   4   31.06    4.67
  11   3   4   25.11    2.68
  11  -3  -4   26.35    2.76
  12   3   4  194.04   10.08
  12   3  -4  183.38   10.23
  12  -3  -4  184.65    6.72
  13   3  -4   15.45    4.41
  13   3   4   16.74    4.20
  13  -3  -4   18.75    2.77
  14   3   4   60.54    6.66
  14   3  -4   57.66    6.95
  15   3  -4   -4.76    4.84
  15  -3   4    6.34    7.09
  15   3   4   -1.73    3.82
  16   3  -4   21.21    5.35
  16   3   4   21.01    4.94
  17   3   4   18.41    5.10
  17  -3   4   22.05    8.09
  18  -3   4   78.22   11.11
 -15   3   5   26.58    9.56
 -14   3   5   46.31   11.26
 -13   3   5   75.06   13.10
 -12   3   5   45.67   11.09
 -11   3   5   53.58   11.37
 -10   3   5   10.76    6.85
  -9   3   5   -4.94    8.17
  -8   3   5   32.98    3.30
  -8   3   5   15.75    7.19
  -7   3   5   69.08    4.36
  -7   3   5   49.59    9.66
  -6   3   5   56.58    4.07
  -6   3   5   37.30    8.47
  -5   3   5   79.99    4.66
  -5   3   5   60.68    9.43
  -4   3   5   45.95    3.72
  -4   3   5   32.53    7.27
  -3   3   5    0.38    5.11
  -3   3   5    8.07    2.24
  -2   3   5   38.83    3.65
  -2   3   5   33.70    6.37
  -1   3   5   77.68    4.96
  -1   3   5   81.79    8.49
   0  -3   5   60.62    4.89
   0   3   5   59.63    4.61
   0   3   5   60.19    7.02
   0   3  -5   60.55    4.79
   1  -3   5   82.05    5.52
   1   3   5   73.04    5.30
   1   3   5   79.16    7.42
   1   3  -5   81.32    5.47
   2  -3   5   36.99    4.11
   2   3   5   35.88    4.17
   2  -3   5   31.92    4.64
   2   3   5   39.45    5.36
   2   3  -5   38.91    4.28
   3   3  -5    5.57    2.96
   3   3   5    6.96    3.31
   3  -3   5    5.73    2.67
   3  -3   5    0.13    5.22
   4  -3   5   44.44    4.43
   4  -3   5   35.19    6.65
   4   3   5   45.19    5.07
   4   3  -5   43.28    4.47
   5  -3   5   76.83    5.50
   5   3   5   76.19    5.82
   5   3  -5   73.19    5.62
   6  -3   5   51.70    4.81
   6  -3   5   45.87    8.99
   6   3   5   55.58    4.86
   6   3  -5   53.35    5.14
   7  -3   5   71.39    5.50
   7   3   5   72.27    5.64
   7   3  -5   66.52    5.75
   8  -3   5   34.74    4.26
   8   3   5   31.34    3.59
   8   3  -5   28.65    4.35
   9   3  -5   16.25    4.13
   9  -3  -5   11.15    2.36
   9   3   5    8.25    2.30
   9  -3   5    8.06    3.06
   9  -3   5   18.80    8.16
   9   3   5   17.85    4.45
  10  -3   5   25.33    4.07
  10   3   5   34.67    5.07
  10   3  -5   37.98    5.32
  10  -3  -5   28.68    3.15
  11  -3   5   46.52    5.18
  11   3   5   58.09    6.30
  11   3  -5   60.94    6.61
  12  -3   5   27.54    4.43
  12   3   5   37.19    5.56
  12   3  -5   41.49    6.00
  13   3   5   45.52    6.35
  13   3  -5   51.03    6.70
  14   3  -5   28.08    5.97
  14   3   5   18.38    4.68
  15  -3   5   15.09    7.59
  16  -3   5   17.85    7.99
  17  -3   5   36.10    9.10
 -10   3   6    0.40    7.89
  -9   3   6   53.65   12.00
  -8   3   6   -5.50    9.02
  -7   3   6  126.31   15.27
  -6   3   6   -5.79    8.29
  -5   3   6  174.25   16.17
  -4   3   6   18.37    3.37
  -4   3   6   13.79    6.31
  -3   3   6  126.94    6.84
  -3   3   6  119.47   12.30
  -2   3   6   27.32    3.80
  -2   3   6   20.04    6.47
  -1  -3   6  227.09    9.83
  -1   3   6  230.63    9.53
  -1   3   6  223.59   14.66
   0   3   6   11.99    5.10
   0  -3   6   11.73    3.60
   0   3   6   10.17    3.16
   1  -3   6  231.29    9.82
   1   3   6  228.11   10.00
   1   3   6  234.79   13.31
   2  -3   6   24.85    4.16
   2   3   6   26.01    5.42
   2   3   6   21.14    4.02
   2   3  -6   28.47    4.40
   3  -3   6  134.27    7.85
   3   3   6  129.27    9.21
   3   3  -6  132.74    7.68
   4   3  -6   19.26    4.21
   4   3   6   22.50    4.50
   4  -3   6   18.02    3.75
   5  -3   6  179.10    8.91
   5   3   6  189.58    9.89
   6   3  -6    7.31    3.57
   6   3   6   10.42    3.36
   6  -3   6    8.29    3.42
   7  -3   6  154.22    8.54
   7   3   6  152.04    8.07
   7   3  -6  161.45    9.09
   8   3  -6   11.33    3.85
   8  -3   6   11.27    3.69
   8   3   6   19.54    4.48
   9  -3   6   69.95    6.43
   9   3   6   85.36    7.37
   9   3  -6   70.48    6.80
  10   3  -6    5.65    3.93
  10  -3   6    5.09    3.43
  10   3   6    8.51    3.92
  11  -3   6   73.36    6.92
  -4   3   7   -1.23    7.00
  -3   3   7   20.77    7.26
  -2   3   7   -3.53    6.34
  -1   3   7   38.62    8.07
   0   3   7   13.74    5.83
   1   3   7   35.12    5.20
   1   3   7   34.15    6.86
   2   3   7    5.89    4.59
   2   3   7    0.18    3.59
   3   3   7   26.61    5.72
   4   3   7    6.82    4.13
 -17   4   0   -0.33    3.70
 -16   4   0  107.52   10.06
 -15   4   0   -0.07    4.09
 -14   4   0  175.07   12.27
 -13   4   0   -0.51    3.86
 -12   4   0  461.33   19.04
 -11   4   0    0.87    3.95
 -11   4   0    2.50    1.42
 -10   4   0  269.06   14.23
  -9   4   0    1.34    3.91
  -8   4   0  518.73   18.32
  -7   4   0    2.39    3.76
  -6   4   0 1491.54   28.63
  -5   4   0    5.44    3.70
  -4   4   0  815.49   14.25
  -4   4   0  777.11   19.22
  -3   4   0    1.89    1.50
  -3   4   0   10.11    3.80
  -2   4   0  933.83   13.63
  -2   4   0  920.94   20.20
  -1   4   0    0.49    0.72
  -1   4   0    4.60    3.35
  -1   4   0    3.61    1.68
   0   4   0 2051.79   27.57
   0   4   0 2289.82   12.76
   1   4   0    0.94    1.02
   1   4   0    6.97    3.23
   2  -4   0  930.26    7.03
   2   4   0  910.43   18.31
   2   4   0  902.77    9.91
   3   4   0    2.67    1.38
   3   4   0    4.71    2.84
   3  -4   0    1.97    0.66
   4   4   0  802.89   17.15
   4  -4   0  799.64    7.50
   4   4   0  788.32   11.84
   5  -4   0    0.45    0.59
   5   4   0    2.70    2.72
   5   4   0    0.10    1.79
   6   4   0 1456.29   20.31
   6   4   0 1484.36   23.10
   6  -4   0 1517.12    9.77
   7  -4   0    1.03    0.79
   7   4   0    5.54    2.00
   7   4   0    2.01    2.61
   8   4   0  554.47   10.78
   8  -4   0  562.32    7.11
   9  -4   0    0.33    0.98
   9   4   0    0.04    1.62
   9   4   0    0.26    2.36
  10   4   0  298.71    9.41
  10   4   0  275.90   10.35
  10  -4   0  296.05    6.27
  11  -4   0   16.83    4.28
  11   4   0   -2.86    2.52
  12   4   0  485.84   13.93
  12  -4   0  497.26   16.36
  13   4   0    3.59    2.92
  13  -4   0    7.01    4.15
  14   4   0  117.20    7.76
  14  -4   0  128.21    9.75
  15   4   0   -0.24    2.53
  15  -4   0    1.86    3.88
  16   4   0   49.22    6.20
  16  -4   0   52.00    7.05
  17   4   0   -4.83    3.93
  17  -4   0   -3.34    4.90
  18  -4   0   69.45    8.63
  18   4   0  110.13    9.65
  19  -4   0   -9.47    6.35
  19   4   0    2.50    3.82
  20   4   0   39.19    6.55
  21   4   0   -8.84    5.36
 -18   4   1  128.13   11.16
 -17   4   1   45.76    7.72
 -16   4  -1   69.26    8.00
 -16   4   1   60.11    8.76
 -15   4  -1   15.63    4.73
 -15   4   1   21.27    6.53
 -14   4  -1   90.66    8.65
 -14   4   1   85.39   10.07
 -13   4  -1   89.62    8.87
 -13   4   1   84.96    9.99
 -12   4  -1  243.29   13.78
 -12   4   1  269.88   16.10
 -11   4  -1   98.47    8.84
 -11   4   1  110.35   10.73
 -10   4   1  112.34    3.22
 -10   4  -1   97.71    8.67
 -10   4   1  111.73   10.41
  -9   4  -1   35.01    5.58
  -9   4   1   36.91    6.53
  -8   4  -1  136.51    9.85
  -8   4   1  139.24   10.36
  -7   4  -1  173.32   10.68
  -7   4   1  169.53   10.67
  -6   4  -1  617.41   19.19
  -6   4  -1  589.74   17.12
  -6   4   1  617.16   18.91
  -5   4  -1  254.01   12.15
  -5   4   1  249.82   11.77
  -5   4  -1  247.77   10.25
  -4   4  -1  205.38   10.70
  -4   4   1  180.82    9.46
  -4   4  -1  196.30    8.61
  -3   4  -1   71.99    6.73
  -3   4  -1   67.21    4.71
  -3   4   1   63.31    6.02
  -2   4  -1  234.27   10.98
  -2   4  -1  241.09    7.90
  -2   4   1  232.98   10.39
  -2   4  -1  222.22    4.77
  -1   4  -1  283.22   11.95
  -1   4  -1  276.17    7.53
  -1   4   1  273.39   10.77
  -1   4  -1  302.85    5.95
   0  -4  -1  735.21    7.45
   0   4  -1  756.70   18.79
   0   4  -1  749.80   11.26
   0   4   1  734.08   16.95
   0   4   1  738.52    5.61
   0   4  -1  741.52    9.26
   1   4  -1  274.68    6.37
   1   4  -1  285.48   11.52
   1   4   1  269.49   10.15
   1  -4   1  284.39    6.61
   1   4   1  276.31    4.53
   1   4  -1  272.60    5.88
   2  -4   1  224.12    5.56
   2   4  -1  223.81    5.35
   2   4  -1  217.47   10.05
   2   4   1  226.14    9.05
   2   4   1  230.68    5.27
   2   4  -1  228.23    5.73
   3  -4   1   71.47    2.89
   3   4  -1   71.56    6.14
   3   4   1   65.99    5.20
   3  -4   1   69.83    3.12
   3   4  -1   68.68    3.54
   4  -4   1  195.08    4.74
   4   4  -1  196.48    9.48
   4   4   1  180.54    7.63
   4   4  -1  187.73    5.89
   4  -4   1  195.82    4.89
   5  -4   1  252.00    5.60
   5   4  -1  251.65   10.74
   5   4   1  243.72    9.00
   5   4  -1  247.14    7.35
   5  -4   1  259.97    5.66
   6  -4   1  632.41    9.50
   6   4  -1  598.91   16.36
   6   4   1  610.29   14.09
   6   4  -1  637.07    9.38
   6   4  -1  590.22   11.99
   6  -4   1  631.47    8.84
   7   4  -1  159.44    8.69
   7   4  -1  180.81    5.80
   7   4   1  178.68    7.75
   7   4  -1  169.83    7.15
   7  -4   1  181.87    5.10
   8   4  -1  133.01    5.69
   8  -4   1  151.16    7.37
   8   4  -1  134.52    8.15
   8   4   1  141.94    7.02
   8   4  -1  135.16    7.05
   8  -4   1  141.14    4.69
   9   4  -1   39.73    3.69
   9  -4   1   46.40    4.95
   9   4   1   35.29    3.82
   9   4   1   43.23    3.77
   9   4  -1   34.59    4.46
   9  -4   1   39.98    2.96
   9  -4  -1   36.05    1.43
  10   4  -1  104.04    6.14
  10  -4   1  121.74    7.81
  10   4   1  112.40    6.29
  10   4   1  117.97    6.17
  10   4  -1   99.92    7.36
  10  -4   1  110.83    4.60
  11   4  -1   94.89    6.51
  11   4   1  106.64    6.22
  11  -4   1  112.66    8.28
  11   4   1  111.24    6.54
  11   4  -1   89.98    7.69
  11  -4   1  108.11    4.88
  12   4  -1  235.94   11.31
  12   4   1  281.34   10.44
  12   4   1  264.76    9.44
  12  -4   1  263.84   12.96
  12   4  -1  251.23   12.83
  13   4   1   71.22    5.88
  13  -4   1   75.62    7.85
  13   4  -1   60.43    7.01
  13   4  -1   62.97    6.64
  14   4   1   51.50    5.43
  14  -4   1   51.55    6.98
  14   4  -1   42.55    6.40
  15   4  -1   17.14    4.61
  15   4   1   14.07    3.81
  15  -4   1    4.85    3.87
  15   4  -1   -1.82    5.96
  16   4   1   33.54    4.99
  16   4  -1   45.97    6.35
  16   4  -1   11.15    5.26
  16  -4   1   23.10    5.55
  17   4   1   20.28    4.43
  17   4  -1   24.71    4.91
  17   4  -1   12.20    5.55
  17  -4   1   17.28    5.45
  18   4  -1   61.40    9.41
  18   4   1   57.91    7.08
  18  -4   1   71.89    9.36
  19   4   1    8.27    4.01
  19  -4   1   21.87    6.64
  19   4  -1   22.23    7.28
  20   4   1    9.30    4.36
  21   4   1    1.63    3.72
 -19   4   2   75.03    9.20
 -18   4   2   24.56    6.61
 -17   4   2  106.83   10.94
 -16   4   2    7.25    5.37
 -15   4   2   53.95    8.51
 -14   4   2   16.87    5.95
 -14   4  -2   39.24    6.58
 -13   4  -2  296.09   15.49
 -13   4   2  183.86   13.83
 -12   4  -2   81.71    8.90
 -12   4   2   44.60    7.34
 -11   4  -2  254.16   14.59
 -11   4   2  241.04   15.14
 -10   4  -2   32.36    5.98
 -10   4   2   36.38    6.88
  -9   4  -2  140.81   11.03
  -9   4   2  138.68   11.27
  -8   4  -2   63.33    7.79
  -8   4   2   81.99    8.69
  -7  -4  -2  607.65   16.99
  -7   4  -2  624.82   21.57
  -7   4   2  649.30   21.36
  -6  -4  -2  166.05    8.10
  -6   4  -2  175.86   11.65
  -6   4   2  171.70   11.03
  -6   4  -2  200.14   16.90
  -5  -4  -2  720.82   14.36
  -5   4  -2  703.75   22.24
  -5   4   2  716.21   20.66
  -4  -4  -2  117.11    5.12
  -4   4  -2  116.51    9.43
  -4   4   2  123.45    8.89
  -4   4  -2  116.73   12.32
  -3  -4  -2  373.67    7.60
  -3   4  -2  368.35   15.85
  -3   4  -2  389.21   20.03
  -2  -4  -2  144.73    4.02
  -2   4  -2  145.84   10.12
  -2  -4   2  152.28    6.18
  -2   4   2  151.23    9.04
  -2   4  -2  157.62   12.16
  -2   4  -2  140.09    4.76
  -1  -4  -2 1060.22    8.76
  -1   4  -2 1040.37   25.49
  -1   4   2 1020.79   20.97
  -1   4  -2 1063.48   27.53
  -1   4  -2 1043.96   12.78
   0   4  -2  256.46   12.93
   0   4   2  238.08   10.12
   0  -4   2  247.85    7.10
   0   4  -2  258.11   12.18
   0   4  -2  242.40    6.34
   0   4   2  231.72    3.09
   1   4  -2 1029.10   24.68
   1  -4   2 1080.89   14.34
   1   4  -2 1055.37   20.96
   1   4  -2 1044.94   13.25
   2   4  -2  135.75    6.48
   2   4  -2  140.16    9.44
   2   4   2  140.30    7.56
   2  -4   2  150.27    5.29
   2   4  -2  142.20    5.21
   3  -4   2  368.17    7.63
   3   4  -2  362.96   14.73
   3   4   2  372.34   11.46
   3   4  -2  383.65    4.29
   3  -4   2  381.15    8.19
   3   4  -2  372.74    8.55
   4  -4   2  121.27    4.63
   4   4  -2  111.57    2.82
   4   4   2  115.30    6.50
   4  -4   2  126.51    4.85
   4   4  -2  117.29    5.21
   5   4  -2  728.56   10.46
   5  -4   2  751.22   11.20
   5  -4   2  790.56   13.12
   5   4   2  704.92   14.75
   5   4  -2  733.98   12.99
   5  -4   2  774.76   11.68
   6  -4   2  168.62    5.57
   6  -4   2  182.37    7.26
   6   4   2  173.21    7.57
   6   4  -2  170.30    6.81
   6  -4   2  176.74    5.78
   7  -4   2  684.52   11.75
   7  -4   2  686.81   15.07
   7  -4   2  708.57   11.84
   8  -4   2   72.52    4.30
   8  -4   2   74.96    5.96
   8   4   2   69.96    4.95
   8   4  -2   68.79    5.14
   9  -4   2  160.52    8.98
   9   4   2  164.66    7.27
   9   4  -2  151.61    7.91
   9   4   2  168.04    7.24
  10  -4   2   40.50    5.29
  10   4   2   45.74    4.10
  10   4   2   48.28    4.43
  10   4  -2   44.98    5.13
  11   4   2  292.03    9.48
  11   4   2  306.27   10.64
  11   4  -2  276.69   11.70
  11  -4  -2  295.16    4.94
  12   4   2   68.66    4.91
  12   4   2   69.94    5.89
  12  -4   2   55.46    6.98
  12   4  -2   64.03    6.67
  13   4   2  203.56    9.75
  13   4   2  201.73    8.07
  13   4  -2  180.38   11.03
  14  -4   2   16.26    5.05
  14   4   2   20.16    3.06
  14   4   2   17.41    3.79
  14   4  -2   23.15    5.50
  15  -4   2   24.62    5.96
  15   4   2   36.10    5.10
  15   4  -2   35.84    6.40
  16  -4   2    6.98    4.69
  16   4   2   19.09    4.52
  16   4  -2    8.33    4.82
  17   4   2   65.71    7.10
  17  -4   2   77.66    9.83
  18   4   2   15.84    4.30
  18   4  -2    7.99    4.69
  19   4   2   31.42    5.55
 -19   4   3   59.54    9.23
 -18   4   3   -2.86    5.76
 -17   4   3   88.85   11.18
 -16   4   3   -4.73    6.15
 -15   4   3   32.49    8.31
 -14   4   3   -2.29    5.80
 -13   4   3  141.38   13.78
 -12   4   3    5.34    5.25
 -11   4   3  131.44   12.86
 -10   4   3    5.33    5.41
 -10   4  -3    8.02    5.27
  -9   4  -3   76.65    9.51
  -9   4   3   63.14    9.10
  -8   4   3    6.68    5.28
  -8   4  -3    4.79    4.54
  -7   4  -3  262.14   16.72
  -7   4   3  281.12   15.82
  -6  -4  -3   23.17    2.94
  -6   4  -3   10.86    4.04
  -6   4   3   24.80    6.21
  -6   4  -3   17.02    5.88
  -5  -4  -3  332.45    8.53
  -5   4  -3  295.28   14.60
  -5   4   3  332.73   15.65
  -4  -4  -3   18.18    2.17
  -4   4   3   21.81    5.23
  -4   4  -3   11.26    3.06
  -3  -4  -3   94.49    3.82
  -3   4  -3   83.87    5.85
  -3   4   3   93.51    8.11
  -2  -4  -3   24.99    1.96
  -2   4  -3   24.24    2.70
  -2   4   3   20.57    1.06
  -2   4   3   26.50    5.04
  -1   4  -3  380.49    6.89
  -1   4   3  376.07   13.73
  -1   4   3  373.88    4.66
  -1   4  -3  383.58    8.90
   0   4   3   23.41    4.45
   0   4   3   25.30    1.51
   0   4  -3   30.77    3.47
   1   4  -3  376.85    9.17
   1   4   3  399.95    6.19
   2  -4   3   22.81    2.71
   2   4   3   23.73    4.04
   2   4  -3   22.04    2.82
   3  -4   3   91.79    4.64
   3   4   3   90.90    6.22
   3   4  -3   92.29    5.10
   4  -4   3   16.02    2.48
   4   4   3   16.27    3.20
   4  -4   3   22.58    2.54
   4   4  -3   17.85    2.86
   5  -4   3  327.92    8.67
   5  -4   3  358.23    9.44
   5   4   3  323.05   10.67
   5   4  -3  326.15    9.55
   6  -4   3   22.66    2.97
   6  -4   3   20.99    3.14
   6   4   3   21.73    3.37
   6   4  -3   23.36    3.49
   7  -4   3  290.83    8.49
   7  -4   3  291.76   10.80
   7   4   3  273.87    9.32
   7   4  -3  290.39    9.79
   8   4  -3    6.18    2.92
   8  -4   3    1.42    2.94
   8   4   3    7.60    2.54
   8  -4   3    4.65    2.06
   9  -4   3   65.17    4.75
   9  -4   3   61.29    6.48
   9   4   3   62.89    4.53
   9   4  -3   66.95    5.67
  10   4  -3    3.86    2.97
  10   4   3    3.89    2.01
  10  -4   3   -0.36    4.20
  10  -4   3    3.24    2.27
  11   4   3  174.73    7.26
  11   4   3  184.27    8.73
  11   4  -3  163.82    9.09
  12   4   3    7.98    2.29
  12   4  -3    0.94    3.66
  12   4   3    8.80    3.28
  12  -4   3   -0.29    4.63
  13   4   3  140.45    8.72
  13   4   3  139.16    6.40
  13   4  -3  119.56    8.77
  14   4  -3   -8.38    5.29
  14  -4   3   -4.86    5.44
  14   4   3   -1.93    3.28
  15   4  -3   10.94    4.71
  15  -4   3   24.82    6.66
  15   4   3   23.79    4.67
  16   4  -3  -12.82    6.48
  16  -4   3    1.66    5.08
  16   4   3   -3.66    4.01
  17   4  -3   33.17    6.24
  17   4   3   56.81    6.74
  18  -4   3    8.27    6.45
 -16   4   4   12.84    8.00
 -15   4   4   32.56    9.10
 -14   4   4   25.58    8.97
 -13   4   4   89.49   12.53
 -12   4   4   57.58   10.36
 -11   4   4   77.86   11.49
 -10   4   4   23.96    7.89
  -9   4   4   69.11   10.83
  -8   4   4   52.02    9.51
  -7   4   4  193.82   15.43
  -6   4   4  170.09   13.75
  -5   4   4  251.83   15.55
  -4   4   4   87.01    9.31
  -3   4   4  162.08   11.50
  -2   4   4   96.73    8.72
  -1   4   4  318.23   14.00
  -1   4  -4  299.36    9.03
   0   4   4  264.98   12.24
   0   4  -4  261.55    8.55
   1  -4   4  310.88    9.34
   1   4   4  302.35   12.55
   1   4  -4  317.21    9.69
   2  -4   4   89.90    5.34
   2   4   4   88.41    6.86
   2   4  -4   85.43    5.40
   3  -4   4  164.20    6.95
   3  -4   4  169.21    5.02
   3   4   4  183.74   10.20
   3   4  -4  161.01    7.17
   3   4   4  161.25    5.29
   4  -4   4   83.25    5.16
   4  -4   4   88.33    4.53
   4   4   4   78.85    6.25
   4   4  -4   80.01    5.48
   5  -4   4  250.61    8.56
   5  -4   4  259.33    8.71
   5   4   4  244.17    9.79
   5   4  -4  259.87    9.45
   6  -4   4  175.72    7.35
   6  -4   4  173.72    8.30
   6   4   4  160.49    7.64
   6   4  -4  170.72    8.03
   7  -4   4  199.29    7.99
   7  -4   4  193.24    9.83
   7   4   4  187.55    8.32
   7   4  -4  197.87    8.76
   8  -4   4   53.58    4.70
   8  -4   4   62.40    6.66
   8   4   4   54.46    4.67
   8   4  -4   55.08    5.48
   9  -4   4   71.23    5.43
   9  -4   4   74.38    7.81
   9   4   4   72.99    5.00
   9   4  -4   82.87    6.55
  10  -4   4   35.26    4.28
  10  -4   4   35.43    6.44
  10   4   4   35.65    3.82
  10   4   4   45.63    5.48
  10   4  -4   38.49    5.26
  11  -4   4  102.70    6.82
  11   4   4  101.25    5.69
  11   4   4  113.22    7.71
  11   4  -4  110.39    8.12
  12   4   4   69.85    6.53
  12   4  -4   69.19    7.05
  13   4   4   81.09    7.24
  13   4  -4   73.17    7.45
  14   4  -4   12.81    4.96
  14   4   4   17.51    4.43
  14  -4   4   14.43    6.15
  15   4  -4   22.34    5.58
  15  -4   4   19.43    6.79
  15   4   4   19.89    4.82
  16  -4   4    6.71    5.92
  17  -4   4   38.97    8.42
 -12   4   5   56.50   11.88
 -11   4   5   -1.23    7.09
 -10   4   5   24.83    8.84
  -9   4   5    1.13    5.83
  -8   4   5   43.53    9.91
  -7   4   5    8.10    6.50
  -6   4   5  122.44   13.33
  -5   4   5    6.38    6.16
  -4   4   5   63.58    9.44
  -3   4   5    4.99    5.01
  -2   4   5   66.51    8.32
  -1   4   5    5.04    4.39
   0  -4   5  137.06    7.25
   0   4   5  139.80   10.26
   0   4  -5  137.01    7.16
   1   4  -5    4.63    2.80
   1   4   5    6.54    4.13
   1  -4   5    5.27    2.87
   2  -4   5   69.18    5.41
   2   4   5   76.28    7.16
   2   4  -5   73.28    5.64
   3   4  -5    4.29    3.44
   3   4   5    4.22    3.35
   3  -4   5    1.73    2.57
   4  -4   5   62.71    5.28
   4   4   5   58.07    6.00
   4   4  -5   58.59    5.29
   5   4  -5    3.73    3.04
   5   4   5    4.13    3.11
   5  -4   5    5.72    2.81
   6  -4   5  116.08    6.92
   6   4   5  112.75    7.27
   6   4  -5  121.68    7.43
   7   4  -5    8.34    3.54
   7   4   5    7.51    2.87
   7  -4   5   10.89    3.26
   8  -4   5   50.00    5.11
   8   4   5   50.24    4.83
   8   4  -5   43.73    5.43
   9   4   5   11.18    3.79
   9   4  -5    0.41    3.65
   9   4   5    5.97    2.55
   9  -4   5    3.01    2.86
  10  -4   5   38.11    4.73
  10   4   5   45.01    5.67
  10   4  -5   51.35    6.12
  11   4  -5   17.18    4.82
  11  -4   5    4.63    3.09
  11   4   5   13.21    4.20
  12  -4   5   49.15    5.66
  12   4   5   69.07    6.98
  12   4  -5   71.23    7.33
  13  -4   5    3.82    5.49
  14  -4   5   23.53    7.79
  15  -4   5    2.42    6.01
  -7   4   6    1.56    6.48
  -6   4   6  109.75   13.83
  -5   4   6    3.28    6.54
  -4   4   6   97.94   12.07
  -3   4   6    1.48    5.77
  -2   4   6   91.83   10.52
  -1   4   6    4.30    4.98
  -1  -4   6    1.72    2.88
   0  -4   6  159.13    8.77
   0   4   6  159.66   12.03
   1   4   6    1.76    4.14
   1  -4   6    0.84    3.08
   2  -4   6   99.43    7.10
   2   4   6  102.32    9.03
   2   4  -6  101.25    7.21
   3   4  -6    1.64    3.29
   3   4   6    3.73    3.97
   3  -4   6    1.86    3.14
   4  -4   6   90.03    6.79
   4   4   6   91.51    7.77
   4   4  -6   94.76    7.19
   5   4  -6    3.13    3.54
   5   4   6    0.82    3.62
   5  -4   6    2.29    3.03
   6  -4   6  124.13    7.92
   6   4   6  124.92    8.68
   6   4  -6  123.79    8.57
   7   4  -6    2.27    3.61
   7   4   6    0.64    2.95
   7  -4   6    3.56    3.35
   8  -4   6   57.86    6.00
   9  -4   6    1.58    3.14
   1   4   7   19.36    5.92
   2   4   7   13.64    5.19
   3   4   7   11.24    4.77
   4   4   7   15.24    4.90
 -16   5   0   -6.68    5.96
 -15   5   0   11.88    5.44
 -14   5   0   -3.21    5.77
 -13   5   0   81.41    9.52
 -12   5   0   -2.18    4.92
 -11   5   0  113.31   10.85
 -10   5   0    1.21    4.03
  -9   5   0   30.21    6.37
  -8   5   0    1.31    4.04
  -7   5   0  213.20   13.07
  -6   5   0    1.83    4.10
  -5   5   0  270.88   13.96
  -4   5   0    0.72    3.66
  -3   5   0   63.42    6.86
  -2   5   0    0.48    3.19
  -1   5   0  300.68   12.95
  -1   5   0  304.41    4.70
   0   5   0    0.47    2.96
   0   5   0    1.85    0.97
   0   5   0    2.89    1.68
   1   5   0  301.71   12.45
   1   5   0  300.33    5.62
   2   5   0    1.02    1.19
   2   5   0    1.31    3.03
   2  -5   0    0.16    0.60
   3  -5   0   53.57    1.82
   3   5   0   62.00    6.08
   3   5   0   63.20    3.17
   4   5   0   -0.02    1.44
   4   5   0    1.24    3.13
   5   5   0  270.53   11.47
   5   5   0  248.53    7.25
   6   5   0    1.45    2.78
   6   5   0    0.47    1.72
   7   5   0  202.52    9.95
   7   5   0  197.76    7.90
   8   5   0    3.86    2.02
   8   5   0    0.36    2.81
   8   5   0   -0.70    2.82
   9   5   0   27.71    4.40
   9   5   0   31.98    3.28
   9   5   0   23.38    3.99
  10   5   0    0.60    1.95
  10   5   0   -0.60    2.87
  10   5   0   -5.47    4.43
  11   5   0  125.71    6.80
  11   5   0  118.34    7.86
  11   5   0  108.62    8.43
  12   5   0   -2.24    2.76
  12   5   0  -13.13    5.93
  13   5   0   93.72    6.76
  14   5   0    2.03    2.64
  15   5   0   12.58    3.52
  16   5   0   -1.45    3.16
 -17   5   1   45.94    8.69
 -16   5   1    4.78    5.68
 -15   5  -1   20.93    6.33
 -15   5   1   18.23    6.58
 -14   5  -1    9.98    5.68
 -14   5   1    4.48    5.27
 -13   5  -1   65.52    9.05
 -13   5   1   46.21    8.16
 -12   5  -1   21.52    6.27
 -12   5   1   15.77    5.91
 -11   5  -1   56.45    8.43
 -11   5   1   49.04    8.11
 -10   5  -1    1.55    4.35
 -10   5   1    0.72    4.49
  -9   5  -1   11.48    5.43
  -9   5   1   12.68    5.25
  -8   5  -1    3.78    4.58
  -8   5   1    3.16    4.38
  -7   5  -1   86.85    9.05
  -7   5   1   88.47    9.16
  -6   5  -1   31.93    6.26
  -6   5   1   26.44    5.66
  -5   5  -1   80.33    8.50
  -5   5   1   82.62    8.25
  -4   5  -1    0.14    3.83
  -4   5   1    3.58    3.89
  -3   5  -1    7.59    4.20
  -3   5   1   12.21    4.20
  -3   5  -1    8.52    2.52
  -2   5  -1    1.12    3.53
  -2   5   1    2.17    3.33
  -2   5  -1    2.36    1.97
  -1   5  -1   92.28    8.14
  -1   5  -1   90.89    5.22
  -1   5   1   83.73    7.01
  -1   5  -1   88.54    3.45
   0  -5  -1   26.60    1.30
   0   5  -1   31.35    5.29
   0   5  -1   28.29    2.94
   0   5   1   31.86    4.87
   0   5   1   26.94    1.08
   0   5  -1   28.39    2.26
   1   5  -1   85.06    4.47
   1   5  -1   86.28    7.77
   1   5   1   91.58    7.15
   1   5   1   91.14    2.56
   1   5  -1   89.71    3.81
   2   5  -1   -0.11    3.49
   2   5   1    0.35    0.95
   2   5  -1    1.86    1.50
   2   5   1    3.52    3.18
   2  -5   1    2.73    1.19
   2   5  -1    0.78    1.26
   3   5  -1    6.94    1.80
   3   5   1    6.45    3.07
   3  -5   1    8.86    1.47
   3   5  -1    6.74    1.57
   3  -5   1    4.20    1.40
   3   5  -1    6.25    3.62
   3   5   1    7.31    1.53
   4   5  -1    0.84    1.53
   4   5   1    0.58    2.74
   4  -5   1    1.10    1.13
   4   5  -1    1.37    3.34
   4   5   1   -0.02    1.46
   4  -5   1    0.12    1.19
   5  -5   1   82.16    3.53
   5   5  -1   80.13    7.17
   5   5   1   75.89    6.13
   5   5   1   76.54    4.44
   5  -5   1   78.97    3.55
   5   5  -1   73.96    4.28
   6  -5   1   31.47    2.45
   6   5  -1   30.28    5.02
   6   5   1   29.64    4.27
   6   5  -1   37.05    2.78
   6  -5   1   30.23    2.35
   6   5  -1   25.67    3.09
   7   5  -1   83.15    7.18
   7   5   1   84.62    6.37
   7   5  -1   87.51    4.22
   7   5  -1   81.28    5.23
   7  -5   1   86.35    3.71
   8   5  -1    2.06    2.28
   8   5   1    2.46    2.67
   8   5  -1    2.50    1.56
   8   5  -1    0.97    3.21
   9   5  -1   17.33    3.47
   9   5   1   11.59    3.21
   9   5  -1   12.08    2.24
   9   5   1   19.05    3.13
  10   5  -1    2.10    2.92
  10   5   1    3.65    2.39
  10   5  -1    5.31    2.20
  10   5   1    3.00    2.71
  11   5  -1   54.17    4.79
  11   5   1   55.17    5.41
  11   5   1   57.85    4.94
  11   5  -1   49.65    5.61
  12   5   1   21.13    3.61
  12   5  -1   16.38    3.36
  12   5   1   19.51    3.75
  12   5  -1   14.97    4.32
  13   5   1   52.10    5.19
  13   5   1   50.70    5.17
  13   5  -1   47.06    6.40
  14   5   1   -3.27    3.35
  14   5  -1   -1.53    4.35
  15   5   1   13.28    3.57
  15  -5   1   16.44    5.29
  15   5  -1    1.20    4.43
  16  -5   1    2.09    3.70
  16   5   1    7.67    3.59
  16   5  -1   -0.33    5.00
  17   5   1   21.57    4.51
  17  -5   1   15.63    5.09
  17   5  -1   13.03    5.43
  18   5   1    3.54    3.12
  19   5   1   12.58    4.37
 -18   5   2   49.02    8.94
 -17   5   2   27.44    7.74
 -16   5   2   24.65    7.95
 -15   5   2   24.59    8.12
 -14   5   2   29.19    8.49
 -13   5  -2   42.74    8.08
 -13   5   2   30.23    7.81
 -12   5  -2  104.14   11.45
 -12   5   2   79.33   10.78
 -11   5  -2   42.85    7.85
 -11   5   2   38.37    8.12
 -10   5  -2   26.79    6.73
 -10   5   2   29.34    7.51
  -9   5  -2   27.86    6.85
  -9   5   2   29.34    6.88
  -8   5  -2   36.03    7.20
  -8   5   2   34.16    6.93
  -7   5  -2   91.45   10.29
  -7   5   2   85.00    9.58
  -6  -5  -2  162.28    7.94
  -6   5  -2  177.60   13.40
  -6   5   2  174.94   12.24
  -5  -5  -2  102.44    5.51
  -5   5  -2  102.05   10.27
  -5   5   2  105.13    9.40
  -4  -5  -2   59.94    3.73
  -4   5  -2   66.42    8.55
  -4   5   2   64.01    7.35
  -4   5  -2   68.67    9.63
  -3  -5  -2   60.45    3.06
  -3   5  -2   62.33    8.11
  -3   5   2   57.85    6.61
  -3   5  -2   72.68    9.41
  -2  -5  -2   59.02    2.46
  -2   5  -2   58.08    7.87
  -2   5   2   61.02    6.73
  -2   5  -2   69.61    8.20
  -1   5  -2  149.60   11.19
  -1   5   2  140.17    9.23
  -1   5  -2  131.18   10.10
  -1   5  -2  139.54    5.13
   0   5  -2  251.54   14.05
   0   5   2  229.76   11.19
   0   5  -2  243.04   12.24
   0   5  -2  251.72    7.26
   1   5  -2  147.01   11.09
   1   5   2  139.71    8.67
   1   5  -2  141.63    8.43
   1   5   2  133.49    2.77
   1   5  -2  140.34    5.43
   2  -5   2   62.03    3.59
   2   5  -2   51.75    7.01
   2   5   2   59.45    5.96
   2   5  -2   56.96    4.86
   2   5   2   55.47    2.62
   2  -5   2   60.88    3.99
   2   5  -2   55.52    3.78
   3  -5   2   65.14    3.64
   3   5  -2   59.46    7.09
   3   5   2   57.89    5.45
   3   5  -2   66.74    4.62
   3  -5   2   63.83    3.95
   3   5  -2   63.83    4.02
   4  -5   2   66.32    3.72
   4   5  -2   63.39    7.27
   4   5  -2   63.80    2.41
   4   5   2   62.54    5.68
   4   5  -2   69.18    3.88
   4  -5   2   63.88    3.97
   4   5  -2   64.46    4.22
   5  -5   2  113.55    4.79
   5   5  -2  104.31    3.50
   5   5  -2   98.44    8.91
   5   5   2   99.54    6.78
   5  -5   2  107.87    4.92
   5   5  -2  107.66    5.59
   6   5  -2  165.75    5.29
   6  -5   2  175.48    6.07
   6   5   2  163.49    8.41
   6   5  -2  172.69    7.23
   7  -5   2   88.31    4.62
   7   5   2   86.37    6.24
   7   5  -2   87.47    5.57
   8  -5   2   39.54    3.49
   8   5   2   42.26    4.63
   8   5  -2   36.62    4.15
   9   5   2   31.37    4.19
   9   5  -2   27.75    3.97
  10   5  -2   25.82    4.15
  10  -5   2   42.13    5.48
  10   5   2   31.37    4.22
  10   5   2   39.44    4.49
  11  -5   2   53.12    6.18
  11   5   2   44.26    4.66
  11   5   2   43.28    4.73
  11   5  -2   33.92    4.91
  12  -5   2   95.37    8.17
  12   5   2   85.42    6.21
  12   5   2   96.81    6.72
  12   5  -2   73.83    6.98
  13   5  -2   22.47    4.81
  13  -5   2   38.43    6.11
  13   5   2   30.32    4.57
  13   5   2   34.11    4.33
  14   5  -2   23.31    5.05
  14   5   2   16.27    3.93
  14  -5   2   20.43    5.28
  14   5   2   18.54    3.53
  15   5  -2   13.43    4.98
  15   5   2    4.43    3.23
  15  -5   2    8.57    4.46
  16   5  -2   13.41    5.24
  16   5   2    2.87    3.61
  16  -5   2    6.61    4.16
  17  -5   2   -0.02    4.93
  17   5   2   16.06    4.40
  18   5   2   23.62    4.94
 -16   5   3   42.28    9.29
 -15   5   3   11.25    6.52
 -14   5   3   32.37    8.61
 -13   5   3   -1.44    5.96
 -12   5  -3  104.18   12.02
 -12   5   3   55.08    9.66
 -11   5   3   -2.05    5.83
 -11   5  -3   -0.20    6.32
 -10   5   3   26.77    7.50
 -10   5  -3   33.45    8.00
  -9   5   3    6.75    5.00
  -9   5  -3    2.68    5.01
  -8   5   3   26.23    6.95
  -8   5  -3   29.46    7.55
  -7   5   3    0.90    5.08
  -7   5  -3    0.82    5.25
  -6   5  -3  110.49   12.57
  -6   5   3  123.77   11.56
  -5   5   3    2.66    5.37
  -5   5  -3    1.26    5.55
  -4   5   3   36.04    6.90
  -4   5  -3   24.11    7.33
  -3   5   3   22.02    5.57
  -3   5  -3   21.18    6.91
  -2   5   3   44.99    6.38
  -2   5  -3   29.59    7.26
  -1   5  -3    6.38    2.20
  -1   5   3    5.33    3.71
   0   5   3  122.72    8.60
   0   5  -3  132.95    5.86
   1   5  -3    5.80    2.37
   1   5   3    7.08    3.60
   2  -5   3   41.06    3.59
   2   5   3   39.25    5.24
   2   5  -3   35.89    3.55
   3  -5   3   26.36    3.09
   3   5   3   20.96    4.21
   3   5  -3   24.52    3.26
   4  -5   3   35.04    3.46
   4   5   3   31.86    4.56
   4   5  -3   33.82    3.80
   5   5  -3    6.54    2.72
   5   5   3    5.45    2.92
   5  -5   3    6.14    2.26
   6  -5   3  126.67    5.92
   6   5   3  119.30    7.35
   6   5  -3  117.21    6.43
   7   5  -3    7.09    2.99
   7   5   3    4.74    2.84
   7  -5   3    5.80    2.22
   8  -5   3   37.24    3.83
   8  -5   3   48.01    4.76
   8   5   3   37.55    4.28
   8   5  -3   37.96    4.64
   9   5  -3   12.22    3.60
   9   5   3   10.63    3.08
   9  -5   3    6.85    2.46
   9  -5   3   16.35    3.66
  10  -5   3   29.92    3.86
  10  -5   3   44.38    5.38
  10   5   3   32.45    4.18
  10   5   3   41.45    4.73
  10   5  -3   33.50    4.85
  11   5   3    2.21    2.41
  11   5  -3    1.91    3.34
  11   5   3    7.22    3.17
  11  -5   3    6.83    3.91
  12  -5   3   75.59    7.76
  12   5   3   74.80    5.60
  12   5   3   87.23    6.85
  12   5  -3   72.52    6.98
  13   5  -3   -0.53    3.75
  13   5   3    3.43    3.14
  13  -5   3    3.81    4.05
  14   5  -3   18.47    4.84
  14   5   3   25.34    4.67
  14  -5   3   20.32    5.36
  15   5  -3   -2.27    4.65
  15   5   3    0.57    3.33
  15  -5   3   -1.97    4.40
  16  -5   3   10.17    5.01
  17  -5   3   -6.89    5.64
 -12   5   4   47.36    9.92
 -11   5   4    5.29    6.02
 -10   5   4   58.95   10.46
  -9   5   4    4.72    6.35
  -8   5   4   88.48   11.31
  -7   5   4   26.35    7.93
  -6   5   4  187.81   14.68
  -5   5   4   24.19    6.92
  -4   5   4  128.81   11.45
  -3   5   4    0.55    4.31
  -2   5   4  159.38   12.12
  -1   5   4   13.25    5.74
   0   5   4  247.47   13.28
   0   5  -4  231.44    8.57
   1   5  -4   12.02    3.09
   1   5   4   13.96    4.48
   1  -5   4   11.67    2.99
   2  -5   4  147.52    6.91
   2   5   4  137.62    9.23
   3   5  -4    2.73    2.57
   3   5   4    3.87    3.19
   3  -5   4    2.01    2.31
   4  -5   4  134.74    6.80
   4   5   4  126.16    8.42
   4   5  -4  126.28    6.86
   5   5  -4   11.36    3.31
   5   5   4   12.86    3.72
   5  -5   4   12.45    3.01
   6  -5   4  161.88    7.55
   6   5   4  153.55    8.78
   6   5  -4  165.56    8.30
   7   5  -4    9.52    3.41
   7   5   4    9.90    3.23
   7  -5   4   11.38    2.96
   8  -5   4   90.79    6.01
   8   5   4   88.44    6.48
   8   5  -4   96.89    7.00
   9   5  -4    7.42    3.54
   9   5   4    3.38    2.68
   9  -5   4    0.76    2.42
  10  -5   4   55.21    5.30
  10   5   4   58.87    5.23
  10   5   4   69.18    6.14
  10   5  -4   64.31    6.43
  11   5  -4   15.69    4.56
  11   5   4   14.50    4.01
  11  -5   4    4.79    2.94
  12   5   4   79.54    7.07
  12   5  -4   72.35    7.43
  14  -5   4   21.98    5.91
  -7   5   5   39.15    9.48
  -6   5   5   36.02    8.59
  -5   5   5   48.77    8.96
  -4   5   5   34.00    7.72
  -3   5   5   22.63    6.81
  -2   5   5   33.61    6.63
  -1   5   5   40.28    6.88
   0  -5   5   33.57    4.43
   0   5   5   33.70    6.53
   1  -5   5   40.13    4.71
   1   5   5   42.84    6.93
   1   5  -5   39.21    4.56
   2  -5   5   27.61    4.16
   2   5   5   28.15    5.50
   2   5  -5   25.91    4.08
   3   5  -5   13.39    3.67
   3   5   5   12.87    4.33
   3  -5   5   12.14    3.37
   4  -5   5   26.14    4.14
   4   5   5   26.02    4.85
   4   5  -5   32.30    4.84
   5  -5   5   37.75    4.63
   5   5   5   34.45    5.14
   5   5  -5   40.24    5.00
   6  -5   5   32.21    4.42
   6   5   5   26.82    4.66
   6   5  -5   28.69    4.59
   7  -5   5   35.77    4.60
   7   5   5   34.79    4.97
   7   5  -5   32.79    4.91
   8   5  -5   18.79    4.34
   8   5   5   21.11    4.05
   8  -5   5   24.01    4.12
   9   5  -5    7.85    3.83
   9  -5   5    8.48    3.25
  10  -5   5   16.84    3.94
  11  -5   5   23.88    4.52
  -1   5   6  105.82   10.77
   0   5   6    2.03    4.68
   0  -5   6    6.70    3.46
   1  -5   6   97.65    7.40
   1   5   6   95.52    9.75
   2   5   6   11.83    6.07
   2  -5   6   11.42    3.83
   3  -5   6   65.70    6.25
   3   5   6   56.53    7.40
   4   5   6    8.48    4.48
   4  -5   6    9.61    3.74
   5   5   6   70.81    7.23
   6   5   6    5.69    3.71
 -15   6   0    9.19    6.81
 -14   6   0   94.26   12.07
 -13   6   0    4.85    6.25
 -12   6   0  134.51   13.72
 -11   6   0    3.63    5.61
 -10   6   0  127.21   12.97
  -9   6   0   -0.26    4.84
  -8   6   0  207.01   14.99
  -7   6   0    3.92    5.31
  -6   6   0  411.75   19.22
  -5   6   0    0.93    4.68
  -4   6   0  311.44   16.29
  -3   6   0    2.83    4.51
  -2   6   0  360.38   16.49
  -1   6   0    2.36    4.39
   0   6   0  623.89   20.66
   1   6   0    1.75    4.12
   2   6   0  366.05   15.43
   2   6   0  360.09    6.94
   3   6   0   -1.06    3.32
   3   6   0    2.03    1.52
   4   6   0  312.33   13.91
   4   6   0  297.26    7.36
   5   6   0    0.56    3.31
   5   6   0    1.47    1.77
   6   6   0  408.38   15.55
   6   6   0  392.36    9.70
   7   6   0   -0.54    2.31
   7   6   0    2.17    3.55
   8   6   0  198.35   11.00
   8   6   0  188.47    7.96
   9   6   0    0.06    2.47
   9   6   0    2.23    1.89
   9   6   0    0.11    3.27
  10   6   0  123.01    8.80
  10   6   0  100.97    5.98
  10   6   0  121.24    7.59
  11   6   0   -0.60    2.17
  11   6   0   -2.58    3.62
  11   6   0   -0.85    3.07
  12   6   0  132.37    9.28
  13   6   0   -3.77    4.50
  14   6   0   44.37    6.69
  15   6   0   -6.42    5.05
  16   6   0   16.64    5.35
 -16   6   1   28.13    8.35
 -15   6   1    6.64    6.03
 -14   6   1   32.97    8.34
 -14   6  -1   60.56   10.37
 -13   6  -1   35.75    8.77
 -13   6   1   24.67    7.40
 -12   6  -1   94.29   12.22
 -12   6   1   71.89   10.63
 -11   6  -1   38.23    8.41
 -11   6   1   38.52    8.45
 -10   6  -1   68.41   10.63
 -10   6   1   69.99   10.16
  -9   6  -1   26.12    7.47
  -9   6   1   27.25    7.31
  -8   6  -1   87.99   11.13
  -8   6   1   74.59   10.02
  -7   6  -1   69.64    9.97
  -7   6   1   67.54    9.28
  -6   6  -1  191.73   14.76
  -6   6   1  189.60   13.52
  -5   6  -1   91.21   10.44
  -5   6   1   88.77    9.52
  -4   6  -1  119.21   11.29
  -4   6   1  125.77   10.70
  -3   6  -1   47.76    7.78
  -3   6   1   52.08    7.33
  -2   6  -1  135.78   11.39
  -2   6   1  128.00   10.07
  -1   6  -1  102.40    9.80
  -1   6   1   96.73    8.81
   0   6  -1  242.66   14.16
   0   6   1  231.35   12.33
   0   6  -1  234.33    6.04
   1  -6   1  105.89    4.08
   1   6  -1   94.41    9.07
   1   6   1   98.60    8.35
   1   6  -1  100.14    4.22
   2  -6   1  142.15    4.54
   2   6  -1  129.86   10.23
   2   6   1  127.11    9.08
   2   6  -1  131.33    5.05
   3  -6   1   53.95    2.88
   3   6  -1   51.92    6.96
   3   6   1   47.18    6.02
   3   6  -1   49.19    3.47
   4   6  -1  127.81    9.87
   4   6   1  118.38    8.61
   4   6  -1  118.49    5.31
   5   6  -1   88.35    8.54
   5   6   1   87.64    7.48
   5   6   1   83.15    4.26
   5   6  -1   83.30    4.80
   6   6  -1  180.98   11.62
   6   6   1  194.51   10.55
   6   6   1  176.76    6.64
   6   6  -1  210.17    6.46
   6   6  -1  180.60    7.08
   7   6  -1   65.96    7.51
   7   6   1   65.73    6.54
   7   6   1   63.46    4.66
   7   6  -1   62.11    4.76
   8   6  -1   78.39    7.82
   8   6   1   83.30    7.22
   8   6   1   75.19    5.56
   8   6  -1   72.92    5.21
   9   6   1   23.75    4.48
   9   6  -1   19.94    3.49
   9   6   1   33.02    3.94
   9   6  -1   21.18    4.87
   9   6   1   20.36    3.74
  10   6   1   65.27    6.43
  10   6   1   72.44    5.46
  10   6   1   54.78    5.87
  10   6  -1   56.55    5.46
  11   6  -1   27.92    4.53
  11   6   1   40.47    5.43
  11   6   1   39.57    4.56
  11   6   1   26.85    4.79
  12   6   1   77.00    6.89
  12   6   1   92.28    6.70
  12   6  -1   76.32    7.05
  13   6   1   27.00    4.27
  13   6  -1   28.68    5.38
  13   6   1   22.56    4.48
  14   6   1   30.75    4.65
  14   6  -1   30.13    5.66
  15   6  -1    4.57    4.23
 -14   6   2   15.30    7.29
 -13   6  -2  114.86   13.73
 -13   6   2   62.93   10.46
 -12   6  -2   24.82    8.19
 -12   6   2   19.38    7.34
 -11   6  -2  100.61   12.91
 -11   6   2   94.53   12.02
 -10   6  -2   11.36    6.65
 -10   6   2   20.10    6.93
  -9   6  -2   78.81   11.62
  -9   6   2   91.10   11.39
  -8   6  -2   18.27    7.43
  -8   6   2   31.04    7.57
  -7   6  -2  203.45   16.84
  -7   6   2  199.12   14.87
  -6   6  -2   56.45    9.88
  -6   6   2   50.69    8.31
  -5   6  -2  264.17   17.79
  -5   6   2  249.48   15.50
  -4   6   2   44.35    7.41
  -4   6  -2   39.71    8.34
  -3   6  -2  192.29   14.87
  -3   6   2  174.83   12.17
  -2   6  -2   52.64    8.71
  -2   6   2   60.24    7.86
  -1   6  -2  320.70   18.14
  -1   6   2  300.91   14.52
   0   6  -2   69.97    9.25
   0   6   2   62.43    7.25
   0   6  -2   66.87    4.11
   1  -6   2  336.81    8.46
   1   6  -2  329.97   17.64
   1   6   2  305.72   13.92
   2  -6   2   52.48    3.63
   2   6  -2   54.43    8.01
   2   6   2   49.81    6.35
   2   6  -2   49.86    3.86
   3  -6   2  186.70    6.34
   3   6  -2  164.25   12.19
   3   6   2  159.45    9.89
   3   6  -2  166.85    6.66
   4  -6   2   47.87    3.46
   4   6  -2   41.74    7.08
   4   6   2   40.33    5.39
   4   6  -2   39.53    3.80
   5  -6   2  246.63    7.21
   5   6  -2  245.66   14.59
   5   6   2  229.20   11.20
   5   6  -2  230.27    8.15
   6   6   2   45.35    5.57
   6   6  -2   51.29    4.46
   7   6   2  195.47   10.27
   7   6  -2  198.66    8.36
   8   6   2   26.52    4.64
   8   6  -2   28.36    3.97
   9   6   2   78.72    6.83
   9   6  -2   79.25    6.13
  10   6   2   17.55    4.12
  10   6  -2   18.06    3.87
  10   6   2   24.88    4.31
  11   6   2   97.13    7.33
  11   6   2  106.02    6.99
  11   6  -2   93.75    7.21
  12   6  -2   17.04    4.30
  12   6   2   24.88    4.41
  12   6   2   25.35    4.29
  13   6   2   65.30    6.16
  13   6   2   67.76    6.44
  13   6  -2   59.62    6.63
  14   6  -2    2.92    3.95
  14   6   2    7.29    3.32
  15   6   2   20.25    4.48
  16   6   2   -1.13    3.76
 -11   6  -3   89.60   13.41
 -11   6   3   62.22   10.75
 -10   6   3    2.88    6.15
 -10   6  -3    0.24    7.12
  -9   6   3   43.15    8.87
  -9   6  -3   38.68    9.86
  -8   6   3   -0.35    5.53
  -8   6  -3   -0.91    6.99
  -7   6  -3   94.43   13.31
  -7   6   3  113.26   12.15
  -6   6   3    4.68    5.30
  -6   6  -3    5.29    7.03
  -5   6  -3  119.25   14.46
  -5   6   3  124.84   11.29
  -4   6   3    6.67    5.10
  -4   6  -3    3.34    6.45
  -3   6  -3   76.51   11.63
  -3   6   3   81.75    9.24
  -2   6   3   11.30    5.42
  -2   6  -3    7.32    6.44
  -1   6  -3  162.23   15.06
  -1   6   3  153.82   11.16
   0   6  -3   10.70    2.70
   0   6   3   12.81    4.75
   1  -6   3  156.84    6.78
   1   6   3  151.39   10.41
   1   6  -3  149.14    6.72
   2   6  -3    7.59    2.86
   2   6   3    7.83    4.20
   2  -6   3    6.82    2.39
   3  -6   3   82.31    5.01
   3   6   3   73.56    7.01
   3   6  -3   75.52    5.20
   4   6  -3    7.07    2.67
   4   6   3    5.67    3.67
   4  -6   3    5.54    2.34
   5  -6   3  133.04    6.30
   5   6   3  121.76    8.61
   5   6  -3  124.43    6.78
   6   6  -3    6.01    2.81
   6   6   3    7.44    3.53
   6  -6   3    7.56    2.35
   7  -6   3  114.96    6.17
   7   6   3  110.14    7.89
   7   6  -3  108.83    6.83
   8   6  -3    3.71    3.04
   8   6   3    5.48    3.33
   9   6   3   52.26    5.70
   9   6  -3   53.19    5.50
  10   6   3    1.60    3.00
  10   6  -3    3.48    3.42
  10   6   3   10.38    3.43
  11   6   3   62.35    6.03
  11   6   3   78.01    6.53
  11   6  -3   66.23    6.61
  12   6   3    2.02    2.91
  12   6  -3    3.92    3.76
  12   6   3    4.44    3.31
  13   6   3   52.93    5.98
  -6   6   4   53.00    9.59
  -5   6   4   80.94   10.64
  -4   6   4   35.82    7.66
  -3   6   4   66.81    8.83
  -2   6   4   40.01    7.17
  -1   6   4   90.27    9.10
   0  -6   4   79.47    5.69
   0   6   4   78.26    8.44
   1  -6   4   99.35    6.26
   1   6   4   94.40    8.81
   1   6  -4   93.52    6.18
   2  -6   4   42.40    4.42
   2   6   4   40.75    6.24
   2   6  -4   37.55    4.40
   3  -6   4   68.08    5.41
   3   6   4   69.20    7.46
   3   6  -4   74.59    6.34
   4  -6   4   35.37    4.13
   4   6   4   37.41    5.74
   4   6  -4   35.53    4.55
   5  -6   4   85.59    5.80
   5   6   4   73.18    6.99
   5   6  -4   82.68    6.22
   6  -6   4   56.61    5.07
   6   6   4   52.96    6.19
   6   6  -4   50.45    5.28
   7  -6   4   64.91    5.46
   7   6   4   62.74    6.44
   7   6  -4   60.71    5.83
   8   6  -4   24.97    4.49
   8   6   4   22.49    4.32
   8  -6   4   23.91    3.89
   9   6   4   36.87    5.06
   9   6  -4   32.39    4.99
  10   6   4   17.17    3.87
  10   6  -4   23.75    4.86
  -1  -6   5    2.86    3.01
   0  -6   5   58.81    5.67
   1   6   5    2.83    4.12
   1  -6   5    4.21    3.11
   2  -6   5   36.75    4.77
   2   6   5   35.72    6.43
   2   6  -5   38.60    4.96
   3   6  -5    4.53    3.33
   3   6   5    2.14    4.00
   3  -6   5    2.72    2.89
   4  -6   5   34.40    4.66
   4   6   5   31.36    5.74
   4   6  -5   35.31    4.98
   5   6  -5    4.65    4.16
   5   6   5    3.25    3.74
   5  -6   5    4.60    3.07
   6  -6   5   50.99    5.38
   6   6   5   46.83    6.25
   7   6   5    5.47    3.60
   7  -6   5    3.27    3.07
   8  -6   5   27.32    4.49
 -12   7   0   -1.28    5.72
 -11   7   0   35.89    8.96
 -10   7   0   -1.69    5.57
  -9   7   0   20.56    7.58
  -8   7   0    4.16    5.80
  -7   7   0   55.18    9.68
  -6   7   0   -1.32    5.59
  -5   7   0   61.55    9.42
  -4   7   0   -0.22    4.93
  -3   7   0   35.48    7.56
  -2   7   0    0.87    4.54
  -1   7   0   70.41    8.84
   0   7   0    1.22    4.57
   1   7   0   70.14    8.47
   2   7   0    5.77    4.92
   3   7   0   34.95    6.50
   4   7   0    0.93    4.01
   5   7   0   56.70    7.28
   6   7   0    3.78    4.03
   7   7   0   54.65    7.20
   8   7   0    0.77    3.63
   9   7   0   20.29    5.17
  10   7   0   -3.54    4.29
  11   7   0   29.64    5.58
 -12   7  -1    5.59    7.00
 -11   7  -1   14.90    7.69
 -10   7  -1    0.86    6.09
  -9   7  -1   14.34    7.61
  -9   7   1   12.72    7.04
  -8   7  -1    4.81    6.34
  -8   7   1    3.95    5.87
  -7   7  -1   34.69    8.97
  -7   7   1   25.99    7.67
  -6   7  -1    9.14    6.82
  -6   7   1    4.22    5.66
  -5   7  -1   33.38    8.23
  -5   7   1   31.34    7.44
  -4   7  -1    2.84    5.44
  -4   7   1    0.71    4.64
  -3   7  -1   15.75    6.56
  -3   7   1   13.30    5.25
  -2   7  -1    7.29    5.88
  -2   7   1   -1.12    4.52
  -1   7  -1   37.18    7.55
  -1   7   1   36.56    6.74
   0   7  -1    6.06    5.24
   0   7   1    5.97    4.73
   1   7   1   33.11    6.13
   1   7  -1   33.63    6.68
   2   7   1   -0.05    3.93
   2   7  -1    1.39    4.74
   3   7   1   13.97    4.91
   3   7  -1   14.33    5.65
   4   7   1    1.63    4.01
   4   7  -1    0.24    4.42
   5   7   1   28.00    5.55
   5   7  -1   34.22    6.61
   6   7   1    4.16    3.94
   6   7  -1    6.58    4.76
   7   7   1   26.97    5.30
   7   7  -1   23.71    5.63
   8   7   1    0.21    3.65
   8   7  -1    1.18    4.13
   9   7  -1    8.29    4.75
   9   7   1   14.36    4.53
  10   7   1    3.78    3.72
  11   7   1   19.77    4.93
  12   7   1    2.88    3.54
 -11   7  -2   26.55    9.84
 -10   7  -2   16.24    8.17
  -9   7  -2   15.77    8.05
  -8   7  -2   22.02    8.57
  -7   7  -2   24.44    8.65
  -6   7   2   37.89    8.23
  -6   7  -2   41.80    9.91
  -5   7   2   31.02    7.29
  -5   7  -2   31.27    8.88
  -4   7   2   26.53    7.07
  -4   7  -2   33.27    9.02
  -3   7   2   28.51    6.99
  -3   7  -2   22.70    7.98
  -2   7   2   21.47    5.96
  -2   7  -2   34.39    8.68
  -1   7   2   36.33    6.89
  -1   7  -2   35.20    8.26
   0   7  -2   52.02    9.02
   0   7   2   51.42    7.41
   1   7   2   33.03    5.96
   1   7  -2   38.12    8.28
   2   7   2   25.11    5.54
   2   7  -2   24.98    6.80
   3   7   2   23.80    5.30
   3   7  -2   22.82    6.61
   4   7   2   27.85    5.61
   4   7  -2   23.47    6.61
   5   7   2   30.53    5.64
   5   7  -2   20.21    6.25
   6   7   2   41.42    6.16
   7   7   2   22.93    5.04
   8   7   2   17.62    4.54
   9   7   2   12.29    4.18
  10   7   2   11.61    4.02
  10   7  -2   19.14    4.01
  10   7   2   20.13    4.03
  11   7  -2   16.12    4.12
  11   7   2   14.03    3.65
  11   7   2   12.80    4.29
  12   7   2   18.92    4.62
  -9   7  -3   -5.76    9.42
  -8   7  -3   13.62    8.53
  -7   7  -3   -5.70    8.84
  -6   7  -3   38.19   10.87
  -5   7  -3    0.63    7.84
  -4   7  -3   18.17    8.90
  -3   7  -3    1.94    7.42
  -2   7  -3   20.33    8.27
   0   7   3   46.01    7.34
   1   7   3    4.10    4.19
   2   7   3   24.06    5.48
   3   7   3    6.93    4.29
   4   7   3   22.44    5.04
   5   7   3    3.14    3.87
   6   7   3   38.73    5.89
   6   7  -3   35.30    4.45
   7   7   3    2.09    3.59
   7   7  -3    0.93    2.82
   8   7   3   19.83    4.75
   8   7  -3   17.82    3.88
   9   7  -3    5.49    3.13
   4   7  -4   44.33    5.11
   5   7  -4    5.92    3.56
   0   0   0    0.00    0.00


TITL MHy_PbBr3_HT_2_360_00 in Pmn2(1)
REM Pmn2(1) (#31 in standard setting)
CELL 0.71073   6.029489   6.055442  18.055724  90.0000  90.0000  90.0000
ZERR    3.00   0.000321   0.000322   0.001110   0.0000   0.0000   0.0000
LATT -1
SYMM -x+1/2,-y, z+1/2
SYMM  x+1/2,-y, z+1/2
SYMM -x, y, z
SFAC C H N O
UNIT 33.00 30.00 3.00 3.00
TREF
HKLF 4
END
_computing_structure_solution     'SHELXT 2018/2 (Sheldrick, 2018)'
;
_shelx_hkl_checksum              45813
loop_
_space_group_symop_operation_xyz
'x, y, z'
'-x+1/2, y, -z+1/2'
'-x, -y, z+1/2'
'x+1/2, -y, -z'
'-x, -y, -z'
'x-1/2, -y, z-1/2'
'x, y, -z-1/2'
'-x-1/2, y, z'
loop_
_atom_site_label
_atom_site_type_symbol
_atom_site_fract_x
_atom_site_fract_y
_atom_site_fract_z
_atom_site_U_iso_or_equiv
_atom_site_adp_type
_atom_site_occupancy
_atom_site_site_symmetry_order
_atom_site_calc_flag
_atom_site_refinement_flags_posn
_atom_site_refinement_flags_adp
_atom_site_refinement_flags_occupancy
_atom_site_disorder_assembly
_atom_site_disorder_group
Pb1 Pb 0.250000 0.91852(10) 0.750000 0.0342(4) Uani 1 4 d S T P . .
Br1 Br 0.250000 0.8695(4) 0.250000 0.0602(7) Uani 1 4 d S T P . .
Br2 Br 0.08493(12) 0.9083(3) 0.750000 0.0705(6) Uani 1 2 d S T P . .
Br3 Br 0.250000 0.4288(3) 0.750000 0.0830(11) Uani 1 4 d S T P . .
N1 N 0.026(2) 0.639(4) 0.250000 0.148(13) Uani 1 2 d DS T P . .
N2 N 0.0860(17) 0.532(4) 0.160(5) 0.124(12) Uani 0.5 1 d D . P . .
H2A H 0.122088 0.632285 0.151690 0.148 Uiso 0.5 1 calc R U P . .
H2B H 0.073726 0.498970 0.021392 0.148 Uiso 0.5 1 calc R U P . .
C3 C 0.1181(13) 0.342(4) 0.250000 0.083(6) Uani 1 2 d DS T P . .
H3A H 0.086248 0.217850 0.223768 0.124 Uiso 0.5 1 calc R U P . .
H3B H 0.124893 0.361208 0.406742 0.124 Uiso 0.5 1 calc R U P . .
H3C H 0.165273 0.316291 0.181034 0.124 Uiso 0.5 1 calc R U P . .
loop_
_atom_site_aniso_label
_atom_site_aniso_U_11
_atom_site_aniso_U_22
_atom_site_aniso_U_33
_atom_site_aniso_U_23
_atom_site_aniso_U_13
_atom_site_aniso_U_12
Pb1 0.0439(6) 0.0301(5) 0.0285(5) 0.000 0.000 0.000
Br1 0.089(2) 0.0623(13) 0.0291(10) 0.000 0.000 0.000
Br2 0.0472(12) 0.0795(13) 0.0847(14) 0.000 0.000 0.0043(7)
Br3 0.148(4) 0.0301(12) 0.0710(19) 0.000 0.000 0.000
N1 0.23(4) 0.096(16) 0.114(18) 0.000 0.000 0.07(2)
N2 0.15(3) 0.12(2) 0.10(2) 0.058(19) 0.02(2) -0.02(2)
C3 0.075(15) 0.080(13) 0.093(15) 0.000 0.000 0.006(11)
loop_
_atom_type_symbol
_atom_type_description
_atom_type_scat_dispersion_real
_atom_type_scat_dispersion_imag
_atom_type_scat_source
C C 0.0033 0.0016 'International Tables Vol C Tables 4.2.6.8 and 6.1.1.4'
H H 0.0000 0.0000 'International Tables Vol C Tables 4.2.6.8 and 6.1.1.4'
N N 0.0061 0.0033 'International Tables Vol C Tables 4.2.6.8 and 6.1.1.4'
Br Br -0.2901 2.4595 'International Tables Vol C Tables 4.2.6.8 and 6.1.1.4'
Pb Pb -3.3944 10.1111 'International Tables Vol C Tables 4.2.6.8 and 6.1.1.4'
loop_
_exptl_crystal_face_index_h
_exptl_crystal_face_index_k
_exptl_crystal_face_index_l
_exptl_crystal_face_perp_dist
-10 -9 1 0.1264
-24 0 0 0.0536
24 0 0 0.0604
6 10 2 0.0843
-22 4 1 0.0658
-3 0 -8 0.1267
2 -1 8 0.1436
4 8 0 0.0933
loop_
_geom_angle_atom_site_label_1
_geom_angle_atom_site_label_2
_geom_angle_atom_site_label_3
_geom_angle
_geom_angle_site_symmetry_1
_geom_angle_site_symmetry_3
_geom_angle_publ_flag
Br3 Pb1 Br2 88.81(4) . . ?
Br3 Pb1 Br2 88.81(4) . 2_556 ?
Br2 Pb1 Br2 177.62(7) . 2_556 ?
Br3 Pb1 Br1 84.38(5) . 1_556 ?
Br2 Pb1 Br1 89.883(4) . 1_556 ?
Br2 Pb1 Br1 89.883(4) 2_556 1_556 ?
Br3 Pb1 Br1 84.38(5) . . ?
Br2 Pb1 Br1 89.883(4) . . ?
Br2 Pb1 Br1 89.883(4) 2_556 . ?
Br1 Pb1 Br1 168.76(10) 1_556 . ?
Br3 Pb1 Br3 180.0 . 1_565 ?
Br2 Pb1 Br3 91.19(4) . 1_565 ?
Br2 Pb1 Br3 91.19(4) 2_556 1_565 ?
Br1 Pb1 Br3 95.62(5) 1_556 1_565 ?
Br1 Pb1 Br3 95.62(5) . 1_565 ?
Pb1 Br1 Pb1 168.76(10) 1_554 . ?
Pb1 Br3 Pb1 180.0 . 1_545 ?
N2 N1 N2 46(3) 7_556 . ?
N1 N2 C3 124(2) . . ?
N1 N2 H2A 106.3 . . ?
C3 N2 H2A 106.3 . . ?
N1 N2 H2B 106.3 . . ?
C3 N2 H2B 106.3 . . ?
H2A N2 H2B 106.4 . . ?
N2 C3 H3A 109.5 . . ?
N2 C3 H3B 109.5 . . ?
H3A C3 H3B 109.5 . . ?
N2 C3 H3C 109.5 . . ?
H3A C3 H3C 109.5 . . ?
H3B C3 H3C 109.5 . . ?
H3A C3 H3B 109.5 7_556 7_556 ?
H3A C3 H3C 109.5 7_556 7_556 ?
H3B C3 H3C 109.5 7_556 7_556 ?
loop_
_geom_bond_atom_site_label_1
_geom_bond_atom_site_label_2
_geom_bond_distance
_geom_bond_site_symmetry_2
_geom_bond_publ_flag
Pb1 Br3 2.9654(19) . ?
Pb1 Br2 2.981(2) . ?
Pb1 Br2 2.981(2) 2_556 ?
Pb1 Br1 3.0293(3) 1_556 ?
Pb1 Br1 3.0293(3) . ?
Pb1 Br3 3.0899(19) 1_565 ?
N1 N2 1.374(19) 7_556 ?
N1 N2 1.374(19) . ?
N2 C3 1.399(17) . ?
N2 H2A 0.8900 . ?
N2 H2B 0.8900 . ?
C3 H3A 0.9600 . ?
C3 H3B 0.9600 . ?
C3 H3C 0.9600 . ?
C3 H3A 0.9600 7_556 ?
C3 H3B 0.9600 7_556 ?
C3 H3C 0.9600 7_556 ?
loop_
_geom_hbond_atom_site_label_D
_geom_hbond_atom_site_label_H
_geom_hbond_atom_site_label_A
_geom_hbond_distance_DH
_geom_hbond_distance_HA
_geom_hbond_distance_DA
_geom_hbond_angle_DHA
_geom_hbond_site_symmetry_A
_geom_hbond_publ_flag
N2 H2B N1 0.89 2.57 3.36(4) 147.9 5_565 yes
N2 H2A Br1 0.89 2.78 3.64(3) 160.9 . yes
