#------------------------------------------------------------------------------
#$Date: 2019-10-29 23:31:12 +0200 (Tue, 29 Oct 2019) $
#$Revision: 220444 $
#$URL: file:///home/coder/svn-repositories/cod/cif/4/00/30/4003025.cif $
#------------------------------------------------------------------------------
#
# This file is available in the Crystallography Open Database (COD),
# http://www.crystallography.net/
#
# All data on this site have been placed in the public domain by the
# contributors.
#
data_4003025
loop_
_publ_author_name
'McCall, Kyle M.'
'Stoumpos, Constantinos C.'
'Kontsevoi, Oleg Y.'
'Alexander, Grant C. B.'
'Wessels, Bruce W.'
'Kanatzidis, Mercouri G.'
_publ_section_title
;
 From 0D Cs3Bi2I9 to 2D Cs3Bi2I6Cl3: Dimensional Expansion Induces a
 Direct Band Gap but Enhances Electron--Phonon Coupling
;
_journal_issue                   7
_journal_name_full               'Chemistry of Materials'
_journal_page_first              2644
_journal_paper_doi               10.1021/acs.chemmater.9b00636
_journal_volume                  31
_journal_year                    2019
_chemical_formula_moiety         '3(Cs), 2(Bi1 Cl1.5 I3)'
_chemical_formula_sum            'Bi2 Cl3 Cs3 I6'
_chemical_formula_weight         1684.44
_space_group_crystal_system      trigonal
_space_group_IT_number           164
_space_group_name_Hall           '-P 3 2"'
_space_group_name_H-M_alt        'P -3 m 1'
_symmetry_space_group_name_Hall  '-P 3 2"'
_symmetry_space_group_name_H-M   'P -3 m 1'
_audit_creation_date             2018-12-06
_audit_creation_method
;
Olex2 1.2
(compiled 2018.05.29 svn.r3508 for OlexSys, GUI svn.r5506)
;
_cell_angle_alpha                90
_cell_angle_beta                 90
_cell_angle_gamma                120
_cell_formula_units_Z            1
_cell_length_a                   8.2432(17)
_cell_length_b                   8.2432(17)
_cell_length_c                   10.021(2)
_cell_measurement_reflns_used    2463
_cell_measurement_temperature    293(2)
_cell_measurement_theta_max      29.28
_cell_measurement_theta_min      3.50
_cell_volume                     589.7(2)
_computing_molecular_graphics    'Olex2 (Dolomanov et al., 2009)'
_computing_publication_material  'Olex2 (Dolomanov et al., 2009)'
_computing_structure_refinement  'ShelXL (Sheldrick, 2015)'
_computing_structure_solution    'olex2.solve (Bourhis et al., 2015)'
_diffrn_ambient_temperature      293(2)
_diffrn_detector_area_resol_mean 7.9
_diffrn_detector_type            'Bruker SMART CCD 1K area detector'
_diffrn_measured_fraction_theta_full 1.000
_diffrn_measured_fraction_theta_max 0.999
_diffrn_measurement_device       'three-circle diffractometer'
_diffrn_measurement_device_type  'Bruker SMART CCD 1K area detector'
_diffrn_measurement_method       '\w scans'
_diffrn_radiation_type           MoK\a
_diffrn_radiation_wavelength     0.71073
_diffrn_reflns_av_R_equivalents  0.0313
_diffrn_reflns_av_unetI/netI     0.0214
_diffrn_reflns_Laue_measured_fraction_full 1.000
_diffrn_reflns_Laue_measured_fraction_max 0.999
_diffrn_reflns_limit_h_max       11
_diffrn_reflns_limit_h_min       -11
_diffrn_reflns_limit_k_max       11
_diffrn_reflns_limit_k_min       -10
_diffrn_reflns_limit_l_max       10
_diffrn_reflns_limit_l_min       -14
_diffrn_reflns_number            5768
_diffrn_reflns_point_group_measured_fraction_full 1.000
_diffrn_reflns_point_group_measured_fraction_max 0.999
_diffrn_reflns_theta_full        26.000
_diffrn_reflns_theta_max         30.035
_diffrn_reflns_theta_min         2.032
_exptl_absorpt_coefficient_mu    27.642
_exptl_absorpt_correction_T_max  0.7460
_exptl_absorpt_correction_T_min  0.4127
_exptl_absorpt_correction_type   multi-scan
_exptl_absorpt_process_details
;
SADABS-2016/2 (Bruker,2016/2) was used for absorption correction.
wR2(int) was 0.1167 before and 0.0435 after correction.
The Ratio of minimum to maximum transmission is 0.5532.
The \l/2 correction factor is Not present.
;
_exptl_crystal_density_diffrn    4.745
_exptl_crystal_description       'orange plate'
_exptl_crystal_F_000             700
_exptl_crystal_size_max          0.305
_exptl_crystal_size_mid          0.029
_exptl_crystal_size_min          0.025
_refine_diff_density_max         2.916
_refine_diff_density_min         -2.641
_refine_diff_density_rms         0.405
_refine_ls_extinction_method     none
_refine_ls_goodness_of_fit_ref   1.160
_refine_ls_hydrogen_treatment    undef
_refine_ls_matrix_type           full
_refine_ls_number_parameters     19
_refine_ls_number_reflns         696
_refine_ls_number_restraints     0
_refine_ls_restrained_S_all      1.160
_refine_ls_R_factor_all          0.0459
_refine_ls_R_factor_gt           0.0426
_refine_ls_shift/su_max          0.000
_refine_ls_shift/su_mean         0.000
_refine_ls_structure_factor_coef Fsqd
_refine_ls_weighting_details
'w=1/[\s^2^(Fo^2^)+(0.0645P)^2^+6.4922P] where P=(Fo^2^+2Fc^2^)/3'
_refine_ls_weighting_scheme      calc
_refine_ls_wR_factor_gt          0.1206
_refine_ls_wR_factor_ref         0.1242
_reflns_Friedel_coverage         0.000
_reflns_number_gt                649
_reflns_number_total             696
_reflns_threshold_expression     'I > 2\s(I)'
_cod_data_source_file            cm9b00636_si_002.cif
_cod_data_source_block           Cs3Bi2Cl3I6
_cod_original_cell_volume        589.7(3)
_cod_database_code               4003025
_shelx_shelxl_version_number     2016/4
_shelx_space_group_comment
;
The symmetry employed for this shelxl refinement is uniquely defined
by the following loop, which should always be used as a source of
symmetry information in preference to the above space-group names.
They are only intended as comments.
;
_olex2_refinement_description
;
1. Others
 Fixed Sof: Cs1(0.16667) Cs2(0.08333)
;
_shelx_res_file
;
TITL
 jana.res created by SHELXL-2016/4 at 10:40:07 on 06-Dec-2018
CELL 0.71073 8.2423 8.2423 10.0199 90 90 120
ZERR 1 0 0 0 0 0 0
LATT 1
SYMM -Y,+X-Y,+Z
SYMM +Y-X,-X,+Z
SYMM -Y+X,-Y,-Z
SYMM -X,-X+Y,-Z
SYMM +Y,+X,-Z
SFAC Bi Cl Cs I
UNIT 2 3 3 6

L.S. 10 0 0
PLAN  20
CONN 0 Cs2
CONN 0 Cs1
LIST 4
MORE -1
CONF
fmap 2 53
acta 52
REM <olex2.extras>
REM <HklSrc "%.\\jana.hkl">
REM </olex2.extras>

WGHT    0.064500    6.492200
FVAR       0.20773
CS1   3    0.333333    0.666667    0.310728    10.16667    0.05906    0.05906 =
         0.07876    0.00000    0.00000    0.02953
Bi2   1    0.333333    0.666667    0.830076    10.16667    0.02910    0.02910 =
         0.02814    0.00000    0.00000    0.01455
Cs2   3    0.000000    0.000000    0.000000    10.08333    0.09585    0.09585 =
         0.04388    0.00000    0.00000    0.04793
I1    4    0.164702    0.329405    0.668120    10.50000    0.06570    0.04490 =
         0.06759   -0.02251   -0.01126    0.02245
CL1   2    0.500000    0.500000    1.000000    10.25000    0.08673    0.08673 =
         0.04863    0.01448   -0.01448    0.06712
HKLF 4




REM
REM R1 =  0.0426 for     649 Fo > 4sig(Fo)  and  0.0459 for all     696 data
REM     19 parameters refined using      0 restraints

END

WGHT      0.0646      6.4920

REM Highest difference peak  2.916,  deepest hole -2.641,  1-sigma level  0.405
Q1    1   0.4268  0.7134  0.8145  10.50000  0.05    2.92
Q2    1   0.5686  0.5686  1.0000  10.50000  0.05    1.62
Q3    1   0.3988  0.7976  0.8258  10.50000  0.05    1.56
Q4    1   0.3333  0.6667  0.7609  10.16667  0.05    1.25
Q5    1   0.2940  0.5881  0.3112  10.50000  0.05    1.04
Q6    1   0.4966  0.5034  0.3338  10.50000  0.05    1.00
Q7    1   0.3333  0.6667  0.3658  10.16667  0.05    0.99
Q8    1   0.2253  0.2330  0.6699  11.00000  0.05    0.98
Q9    1   0.0921  0.1842  0.6694  10.50000  0.05    0.94
Q10   1   0.0638  0.4576  0.6600  11.00000  0.05    0.94
Q11   1   0.3119  0.3778  0.6628  11.00000  0.05    0.91
Q12   1   0.2313  0.4626  0.6632  10.50000  0.05    0.90
Q13   1   0.1537  0.4460  0.6673  11.00000  0.05    0.87
Q14   1   0.2199  0.1099  0.6692  10.50000  0.05    0.87
Q15   1  -0.0016  0.0737  0.6728  11.00000  0.05    0.87
Q16   1   0.1505  0.5753  0.6655  10.50000  0.05    0.84
Q17   1   0.2348  0.7652  0.8226  10.50000  0.05    0.84
Q18   1  -0.0624  0.3631  0.6635  11.00000  0.05    0.82
Q19   1  -0.0648  0.2968  0.6780  11.00000  0.05    0.80
Q20   1   0.2993  0.5986  0.6595  10.50000  0.05    0.77
;
_shelx_res_checksum              44588
_shelx_hkl_file
;
   0  -1   0   99.59    3.50
  -1  -1   0 1321.17   45.30
   0  -2   0  943.31   31.70
  -2   0   0  905.51   31.90
  -1  -2   0  112.69    4.00
  -2   3   0  107.19    4.30
  -2  -1   0  112.59    4.20
  -3   3   0 1073.89   36.40
   0  -3   0 1099.09   36.20
   3   0   0 1030.10   36.40
  -3   0   0 1055.19   36.40
   3  -3   0 1004.40   36.70
   1   3   0   62.19    2.60
   3  -4   0   71.09    3.50
   4  -1   0   61.59    3.10
  -1  -3   0   61.79    2.50
  -3   4   0   65.09    2.80
  -4   2   0 6558.54  221.98
   2   2   0 6484.55  222.08
   4  -2   0 6631.14  222.38
  -2  -2   0 6511.15  221.98
  -2   4   0 6253.67  221.98
  -4   3   0   65.89    2.90
   3   1   0   64.79    2.80
  -1   4   0   67.29    2.70
   4  -3   0   65.99    3.40
  -1   4   0   65.49    3.80
  -3  -1   0   59.89    2.70
   4   0   0  499.45   17.60
  -4   4   0  496.85   17.60
   0  -4   0  501.65   17.30
  -4   4   0  498.25   17.30
  -4   0   0  499.05   17.60
   4  -4   0  496.45   18.00
   0   4   0  494.25   17.40
  -5   1   0  476.35   16.60
   1   4   0  434.46   16.10
  -5   1   0  453.55   16.20
   4  -5   0  487.85   16.90
  -1  -4   0  457.95   16.10
  -4   5   0  474.75   16.40
   5  -1   0  442.66   16.60
   3  -5   0   39.40    2.90
  -5   2   0   36.70    2.00
   2   3   0   37.70    1.90
   5  -2   0   34.00    2.60
  -3   5   0   35.40    2.10
  -2  -3   0   36.80    1.80
   3   2   0   38.30    2.00
   2  -5   0   38.20    2.80
  -5   3   0   34.70    2.10
   5  -3   0   33.90    2.70
  -3  -2   0   37.60    1.90
  -2   5   0   33.90    3.40
  -2   5   0   39.50    2.00
   4   1   0  450.35   16.10
  -5   4   0  481.45   16.30
   5  -4   0  456.35   16.60
  -1   5   0  428.66   16.00
  -4  -1   0  455.95   16.10
  -1   5   0  459.45   17.00
   5   0   0   89.09    3.90
  -5   5   0   82.29    3.90
   0   5   0   84.89    3.50
  -5   0   0   87.29    3.80
   5  -5   0   86.59    4.40
   0   5   0   85.89    4.20
  -6   1   0   48.40    2.90
   5  -6   0   51.29    3.50
   1   5   0   46.20    2.40
  -5   6   0   46.80    2.80
   6  -1   0   40.60    2.90
  -6   2   0  303.47   11.10
   4  -6   0  330.07   11.70
  -6   2   0  300.17   11.10
   2   4   0  298.97   11.00
  -2  -4   0  312.57   10.90
  -4   6   0  306.47   11.30
   6  -2   0  294.27   11.60
   3   3   0  268.87    9.90
   3  -6   0  291.67   10.60
  -6   3   0  268.37   10.10
   6  -3   0  268.07   10.60
  -3  -3   0  279.97    9.90
  -3   6   0  271.07   10.10
  -3   6   0  265.37   11.80
   4   2   0  294.37   11.20
  -6   4   0  311.67   11.40
  -2   6   0  291.57   11.20
   6  -4   0  317.87   11.90
  -4  -2   0  316.27   11.20
  -2   6   0  330.57   12.80
  -6   5   0   41.20    2.80
   5   1   0   40.40    2.60
   6  -5   0   48.80    3.40
  -1   6   0   44.50    2.40
  -5  -1   0   46.70    2.60
  -1   6   0   42.10    3.50
  -6   6   0 1573.14   55.49
   6   0   0 1596.74   55.49
   6  -6   0 1677.83   55.89
   0   6   0 1556.34   57.29
   0   6   0 1595.74   55.19
  -6   0   0 1580.04   55.39
  -7   1   0   22.90    2.30
   6  -7   0   29.20    2.80
   1   6   0   23.80    1.80
  -6   7   0   25.20    2.30
   7  -1   0   21.40    2.30
   5  -7   0  311.27   11.80
   2   5   0  301.27   11.10
  -7   2   0  289.87   11.60
   7  -2   0  305.27   11.80
  -5   7   0  312.97   11.50
  -7   3   0   59.59    3.10
   4  -7   0   63.19    3.90
   3   4   0   59.79    3.00
  -3  -4   0   64.09    2.90
  -4   7   0   54.59    3.30
   7  -3   0   57.39    3.80
  -4   7   0   51.19    5.40
  -7   4   0   54.69    3.10
   4   3   0   56.19    3.00
   7  -4   0   59.19    3.90
  -3   7   0   60.49    5.20
  -3   7   0   56.89    3.10
  -4  -3   0   58.39    2.90
   5   2   0  285.37   10.80
  -7   5   0  287.07   10.90
  -2   7   0  269.97   10.70
  -5  -2   0  293.87   10.70
   7  -5   0  315.87   11.60
  -2   7   0  292.17   12.10
   6   1   0   23.90    2.10
  -7   6   0   23.80    2.20
  -6  -1   0   23.70    2.00
   7  -6   0   29.40    2.80
  -1   7   0   21.20    2.70
  -1   7   0   21.80    1.80
   7   0   0   16.40    2.00
  -7   7   0   13.80    2.00
   0   7   0   15.70    1.60
  -7   0   0   16.10    2.00
   7  -7   0   18.50    2.60
  -8   1   0   75.19    4.20
   7  -8   0   80.89    5.00
   1   7   0   74.29    3.80
  -7   8   0   73.49    4.40
   8  -1   0   80.99    4.60
  -8   2   0  110.09    5.60
   6  -8   0  122.29    6.00
   2   6   0  115.79    5.10
  -6   8   0  112.99    5.60
   8  -2   0  122.09    5.90
  -6   8   0  127.49    8.70
   3   5   0   26.70    2.10
  -8   3   0   21.90    2.50
  -5   8   0   22.30    2.30
  -5   8   0   29.20    4.70
   8  -3   0   22.90    2.70
  -8   4   0  911.31   31.70
   4   4   0  887.01   31.60
  -4   8   0  905.81   34.00
   8  -4   0  922.01   32.20
  -4   8   0  869.91   31.70
   5   3   0   25.30    2.10
  -8   5   0   22.10    2.20
   8  -5   0   23.80    2.80
  -5  -3   0   22.00    1.90
  -3   8   0   20.70    2.10
  -3   8   0   19.20    3.50
  -8   6   0  112.09    5.30
   6   2   0  111.39    5.10
  -2   8   0  103.59    6.40
   8  -6   0  115.89    6.00
  -6  -2   0  107.29    4.90
  -2   8   0  116.29    5.00
  -8   7   0   74.29    4.40
   7   1   0   78.39    4.20
  -7  -1   0   78.19    4.10
  -1   8   0   74.09    3.90
   8  -7   0   81.19    5.00
   8   0   0   80.09    4.70
  -8   8   0   83.29    4.80
   0   8   0   76.69    4.20
  -8   0   0   86.39    4.50
   8  -8   0   86.19    5.30
  -9   1   0   18.50    2.50
   8  -9   0   21.50    2.90
   1   8   0   14.70    2.00
  -8   9   0   12.90    4.20
  -8   9   0   13.40    2.50
   9  -1   0   13.30    2.50
  -9   2   0   37.00    3.30
   2   7   0   37.90    2.80
  -7   9   0   35.20    3.20
   9  -2   0   39.70    3.60
  -7   9   0   34.30    5.40
   3   6   0   92.29    4.50
  -9   3   0   91.49    5.10
  -6   9   0   90.39    8.00
   9  -3   0   94.99    5.40
  -6   9   0   89.59    5.00
  -9   4   0   10.30    2.20
   4   5   0   13.10    1.70
  -5   9   0   10.50    2.00
   9  -4   0   12.10    2.40
  -5   9   0   10.90    4.00
   5   4   0   13.50    1.80
   9  -5   0   12.40    2.40
  -4   9   0   14.00    2.10
  -4   9   0   10.20    3.50
   6   3   0   86.59    4.50
  -9   6   0   89.59    4.70
  -3   9   0   86.49    4.70
   9  -6   0   97.19    5.50
  -3   9   0   90.09    6.60
   7   2   0   34.70    2.90
  -9   7   0   29.80    2.90
  -7  -2   0   33.80    2.70
   9  -7   0   35.80    3.60
  -2   9   0   34.10    2.70
  -9   8   0   14.20    2.40
   8   1   0   12.10    2.20
  -8  -1   0   15.90    2.20
   9  -8   0   15.60    2.80
  -1   9   0   18.60    2.20
  -9   9   0   86.09    8.20
  -9   9   0   73.89    5.20
   9   0   0   77.99    5.00
   9  -9   0   78.99    5.50
  -9   0   0   79.09    4.60
   0   9   0   78.79    4.50
   1   9   0    8.90    2.20
 -10   1   0    5.10    2.20
  10  -1   0    6.60    2.50
  -9  10   0    8.40    2.60
  -9  10   0    6.10    4.40
   2   8   0  174.08    7.50
 -10   2   0  164.58    7.90
  10  -2   0  172.68    8.20
  -8  10   0  175.28    8.10
  -8  10   0  173.28   11.10
   3   7   0    9.50    2.00
 -10   3   0    8.30    2.40
  10  -3   0    7.50    2.40
  -7  10   0    7.80    4.30
  -7  10   0    9.40    2.30
   4   6   0   49.80    3.50
 -10   4   0   50.39    3.90
  -6  10   0   47.70    3.70
  10  -4   0   43.70    3.90
  -6  10   0   44.90    6.00
   5   5   0   35.30    2.90
 -10   5   0   29.90    3.30
  -5  10   0   28.70    4.90
  -5  10   0   37.30    3.30
  10  -5   0   35.90    3.50
 -10   6   0   45.00    3.90
   6   4   0   46.80    3.50
  -4  10   0   48.30    3.60
  -4  10   0   46.20    5.50
  10  -6   0   51.49    4.10
 -10   7   0   10.90    2.90
   7   3   0   12.90    2.10
  -3  10   0    7.50    2.20
  -3  10   0    6.70    3.20
  10  -7   0   12.40    2.70
 -10   8   0  183.68    8.30
   8   2   0  180.98    8.10
 -10   8   0  216.88   11.50
  -2  10   0  168.58    8.00
  10  -8   0  188.28    8.80
   9   1   0    6.80    2.30
 -10   9   0    6.10    4.30
 -10   9   0    5.50    2.10
  10  -9   0    6.60    2.50
  -1  10   0    1.60    2.00
  10   0   0   22.40    3.10
 -10  10   0   13.50    5.00
 -10  10   0   20.70    3.20
   0  10   0   15.50    2.60
  -8  11   0   10.70    2.70
  -8  11   0    0.30    4.10
  11  -3   0    6.60    2.60
  11  -4   0   47.90    4.30
  -7  11   0   37.50    5.90
  -7  11   0   54.39    4.30
  11  -5   0   12.80    2.80
  -6  11   0   12.60    2.70
  -6  11   0   12.40    4.60
   6   5   0   14.40    2.40
  -5  11   0   17.30    4.40
  11  -6   0   13.90    3.00
  -5  11   0   18.20    2.90
   7   4   0   41.50    3.50
  11  -7   0   50.79    4.30
  -4  11   0   45.10    3.90
  -4  11   0   40.90    5.20
   8   3   0    3.40    2.10
 -11   8   0    8.10    4.30
  11  -8   0    5.50    2.60
  -3  11   0    2.80    2.40
   0   0  -1    5.70    0.40
  -1   0  -1  388.36   13.40
   0  -1  -1  539.55   18.90
  -1   1  -1  555.64   18.80
  -1  -1  -1  451.95   15.70
  -2  -1  -1  282.17   10.30
   3  -2  -1  302.27   10.70
  -2   0  -1 3032.30  103.79
  -2   1  -1  450.25   15.50
  -1  -1   1  436.56   15.30
   0  -2  -1   17.40    1.00
  -1  -2  -1  453.95   15.60
  -2   3  -1  444.36   15.60
   4  -2  -1    1.20    1.10
  -2  -2  -1    3.60    0.70
  -2   4  -1    0.20    1.60
  -2   4  -1    1.50    0.70
   2   2   1    2.80    0.70
  -2   5  -1   99.59    5.10
  -3  -2  -1   99.69    3.90
  -2   5  -1   93.99    3.80
   5  -3  -1   87.29    4.30
  -5   3   1   94.79    3.90
   3   2   1   90.79    3.90
   4  -3  -1  407.16   14.30
  -1   4  -1  385.76   13.70
  -1   4  -1  403.16   14.50
  -3  -1  -1  381.96   13.80
   3   1   1  395.26   13.80
  -4   3   1  370.86   13.80
   3  -3  -1  337.27   12.50
  -3   0  -1  344.07   12.20
  -3   3   1  343.37   12.20
   3   0   1  355.06   12.30
  -3   1  -1  296.47   10.30
  -1  -2   1  296.37   10.00
   3  -1   1  284.67   10.40
  -2   3   1  273.37   10.20
  -3   2  -1  451.95   15.40
   3  -2   1  436.46   15.70
  -1   3   1  426.96   15.30
  -2  -1   1  440.16   15.30
  -3   3  -1  222.38    7.80
   0  -3  -1  224.78    7.60
   0   3   1  219.08    7.60
   3  -3   1  177.88    8.10
  -1  -3  -1  167.78    6.00
   4  -1  -1  165.88    6.40
  -3   4  -1  158.88    6.00
  -3   4  -1  168.98    7.70
  -3   4  -1  150.68    6.20
   1   3   1  178.88    6.10
  -3   5  -1  182.28    8.20
   5  -2  -1  180.28    7.00
  -2  -3  -1  177.38    6.40
  -3   5  -1  177.58    6.60
  -5   2   1  173.08    6.50
   2   3   1  175.38    6.50
   3  -5   1  153.48    7.00
   6  -3  -1  117.79    5.30
  -3  -3  -1  118.39    4.70
  -3   6  -1  116.39    4.80
  -3   6  -1  118.79    6.70
  -6   3   1  118.19    4.80
   3  -6   1  107.29    5.20
   3   3   1  114.99    4.70
  -3   7  -1   69.09    3.50
   7  -4  -1   75.99    4.30
  -4  -3  -1   74.49    3.40
  -3   7  -1   63.69    5.20
  -7   4   1   73.69    3.50
   4   3   1   65.69    3.40
  -2   6  -1  300.07   10.90
   6  -4  -1  291.67   11.50
  -4  -2  -1  317.57   11.00
  -2   6  -1  307.17   12.20
  -6   4   1  285.37   11.00
   4   2   1  296.77   11.00
  -1   5  -1  105.49    4.20
  -1   5  -1  107.79    5.10
   5  -4  -1  106.09    5.00
  -4  -1  -1  112.99    4.40
  -5   4   1  103.09    4.50
   4   1   1  113.99    4.50
  -4   0  -1    7.10    1.10
   0   4  -1    8.20    0.80
   0   4  -1    9.10    1.30
   4  -4  -1    9.00    1.60
  -4   0  -1    9.80    1.00
  -4   4   1    9.70    1.20
   4   0   1    7.10    1.10
  -4   1  -1  402.76   13.60
  -4   1  -1  387.66   13.80
  -4   1  -1  377.56   13.60
   3  -4  -1  383.26   14.00
  -3   4   1  380.76   13.70
  -1  -3   1  381.46   13.30
   4  -1   1  379.26   13.80
  -4   2  -1    1.50    0.80
   2  -4  -1    2.60    1.10
  -2   4   1    2.00    0.70
  -2  -2   1    1.60    0.50
   4  -2   1    0.70    1.00
  -4   3  -1  171.18    6.20
   1  -4  -1  165.08    6.20
   3   1  -1  167.68    6.20
   4  -3   1  151.78    6.60
  -3  -1   1  161.08    6.10
  -1   4   1  166.88    6.10
   0  -4  -1  891.21   29.60
   4   0  -1  883.61   29.80
  -4   4  -1  834.92   29.80
   4  -4   1  795.12   30.20
   0   4   1  856.61   29.70
  -4   0   1  869.61   29.80
  -1  -4  -1  182.38    6.40
   5  -1  -1  176.28    6.90
  -4   5  -1  168.58    6.40
  -4   5  -1  164.88    8.60
  -4   5  -1  179.78    6.70
   1   4   1  173.48    6.50
   4  -5   1  170.28    7.20
   6  -2  -1    4.50    1.40
  -4   6  -1    3.70    1.20
  -4   6  -1    6.20    2.70
  -2  -4  -1    5.40    0.90
  -6   2   1    5.60    1.30
   4  -6   1    6.80    1.80
  -6   2   1   10.00    1.70
   2   4   1    4.70    1.00
   7  -3  -1  146.19    6.70
  -4   7  -1  150.08    8.40
  -4   7  -1  152.58    6.30
  -3  -4  -1  158.28    6.00
   3   4   1  155.38    6.10
  -4  -4  -1    2.70    1.20
  -4   8  -1    3.40    1.50
   8  -4  -1    1.40    1.80
  -4   8  -1   -4.50    2.70
   4   4   1    1.60    1.20
  -4   9  -1   14.50    2.20
  -4   9  -1   10.20    3.50
   9  -5  -1   14.60    2.50
   5   4   1   12.40    1.90
   8  -5  -1  158.38    7.30
  -3   8  -1  160.78    8.50
  -3   8  -1  158.88    6.70
  -5  -3  -1  160.98    6.50
   5   3   1  155.58    6.60
  -8   5   1  169.88    6.70
   7  -5  -1   84.49    4.60
  -2   7  -1   76.59    3.80
  -2   7  -1   84.69    5.20
  -5  -2  -1   83.39    3.80
   5   2   1   80.19    3.90
  -7   5   1   82.09    4.00
  -5  -1  -1   84.99    3.80
   6  -5  -1   82.89    4.40
  -1   6  -1   85.49    4.70
  -1   6  -1   85.19    3.60
  -6   5   1   76.29    3.90
   5   1   1   81.39    3.90
  -5   0  -1  171.78    6.60
  -5   0  -1  165.88    6.30
   5  -5  -1  170.08    7.10
   0   5  -1  166.98    6.90
   0   5  -1  168.18    6.20
   5   0   1  167.98    6.60
  -5   5   1  159.38    6.50
  -5   1  -1  114.79    4.80
   1   4  -1  110.89    4.30
  -5   1  -1  117.29    4.50
   4  -5  -1  112.19    5.20
   1   4  -1  113.89    4.80
  -1  -4   1  107.89    4.10
   5  -1   1  112.99    4.90
  -4   5   1  111.39    4.60
   3  -5  -1   97.99    4.50
  -5   2  -1   97.49    4.30
  -5   2  -1   92.49    3.90
   2   3  -1   92.89    3.70
  -3   5   1   94.39    4.00
   5  -2   1   90.49    4.40
  -2  -3   1   97.99    3.60
   2  -5  -1  179.88    7.10
   3   2  -1  182.78    6.60
  -5   3  -1  180.08    6.90
   5  -3   1  178.58    7.30
  -3  -2   1  178.08    6.60
  -2   5   1  180.58    6.80
   1  -5  -1  180.18    6.90
   4   1  -1  174.18    6.70
  -5   4  -1  188.58    6.90
   5  -4   1  167.98    7.40
  -4  -1   1  175.68    6.70
  -1   5   1  177.38    6.70
  -5   5  -1  121.09    4.70
   5   0  -1  129.29    5.00
  -5   5  -1  117.89    5.10
   0   5   1  119.79    5.40
   0   5   1  117.99    4.80
   5  -5   1  124.79    5.70
  -5   0   1  119.49    5.00
   6  -1  -1  261.17   10.10
  -1  -5  -1  265.27    9.60
  -5   6  -1  238.38   12.10
  -5   6  -1  272.47   10.00
   5  -6   1  283.17   10.60
   1   5   1  266.67    9.70
  -6   1   1  267.67   10.10
  -5   7  -1   32.30    2.40
   7  -2  -1   30.30    2.70
  -5   7  -1   32.10    4.60
   5  -7   1   35.20    2.90
   2   5   1   32.30    2.30
   8  -3  -1   37.30    3.20
  -5   8  -1   46.00    5.40
  -5   8  -1   38.00    2.80
   3   5   1   35.90    2.70
   9  -4  -1   44.60    3.60
  -5   9  -1   45.00    3.70
  -5   9  -1   52.49    5.70
   4   5   1   43.60    3.20
  -5  10  -1   21.00    2.80
  10  -5  -1   22.40    2.90
  -5  10  -1   15.80    4.30
 -10   5   1   21.80    2.90
   5   5   1   23.80    2.60
  -5  11  -1   11.20    2.70
  -5  11  -1    9.80    4.10
  11  -6  -1   12.50    2.80
   6   5   1   10.30    2.40
  -4  10  -1    0.80    2.00
  -4  10  -1    4.10    3.20
  10  -6  -1    1.80    2.20
   6   4   1    1.50    1.80
   9  -6  -1   14.60    2.60
  -3   9  -1   12.40    3.30
  -6  -3  -1   13.60    2.10
  -3   9  -1   14.90    2.20
   6   3   1   12.30    1.90
  -2   8  -1    0.90    1.30
  -2   8  -1    1.90    2.20
   8  -6  -1   -0.60    1.80
  -6  -2  -1    1.60    1.30
   6   2   1    1.70    1.40
  -8   6   1    0.10    1.50
   7  -6  -1  138.79    6.30
  -6  -1  -1  134.69    5.70
  -1   7  -1  127.19    6.40
  -1   7  -1  128.29    5.40
  -7   6   1  132.29    5.80
   6   1   1  131.09    5.80
  -6   0  -1   -0.20    1.20
   6  -6  -1    1.40    1.70
   0   6  -1    1.40    1.40
   0   6  -1    3.50    0.90
   6   0   1    1.00    1.30
  -6   6   1   -0.10    1.20
  -6   1  -1   86.19    4.20
   5  -6  -1   86.29    4.70
   1   5  -1   87.99    3.60
  -6   1  -1   89.79    3.80
   6  -1   1   87.09    4.40
  -5   6   1   83.99    4.10
   2   4  -1  294.47   10.70
  -6   2  -1  310.17   10.90
  -6   2  -1  294.07   11.20
   4  -6  -1  292.27   11.50
  -6   2  -1  285.37   10.80
  -4   6   1  301.37   11.00
   6  -2   1  303.27   11.40
  -6   3  -1  114.89    5.20
   3  -6  -1  122.49    5.50
   3   3  -1  119.69    4.60
  -6   3  -1  113.29    4.80
   6  -3   1  117.49    5.50
  -3   6   1  112.09    4.80
  -3  -3   1  114.29    4.50
   4   2  -1    4.40    1.00
   2  -6  -1    7.30    1.70
  -6   4  -1    3.50    1.20
   6  -4   1    4.70    1.80
  -2   6   1    3.70    1.00
  -4  -2   1    5.70    1.00
   5   1  -1  262.97    9.80
  -6   5  -1  235.88    9.90
  -1   6   1  276.47    9.70
   6  -5   1  268.77   10.50
  -1   6   1  266.77   10.80
  -5  -1   1  265.87    9.80
  -6   6  -1    2.40    1.30
   6   0  -1    1.00    1.20
  -6   0   1   -0.60    1.10
   0   6   1    0.80    1.00
   6  -6   1    2.50    1.80
   7  -1  -1   39.60    3.00
  -6   7  -1   32.60    2.60
  -6   7  -1   33.40    4.90
  -7   1   1   37.10    2.80
   6  -7   1   43.30    3.30
   1   6   1   30.60    2.30
  -6   8  -1   37.70    5.40
   8  -2  -1   38.20    3.10
  -6   8  -1   35.10    2.90
   2   6   1   38.30    2.70
  -8   2   1   38.30    3.00
   9  -3  -1   35.10    3.20
  -6   9  -1   34.70    3.00
  -6   9  -1   32.20    5.10
  -9   3   1   32.00    3.10
   3   6   1   40.40    3.00
  -6  10  -1    1.80    2.10
  10  -4  -1    2.40    2.10
  -6  10  -1    1.20    3.60
   4   6   1   -3.00    1.60
 -10   4   1    3.20    2.10
  11  -5  -1   25.70    3.40
  -6  11  -1   33.50    3.50
  -6  11  -1   25.30    5.10
   5   6   1   38.30    3.60
  -4  11  -1   12.00    2.70
  11  -7  -1   16.30    3.00
  -4  11  -1    8.20    3.80
   7   4   1   13.20    2.50
  -3  10  -1   13.90    3.60
  10  -7  -1   22.50    3.10
  -3  10  -1   17.00    2.50
   7   3   1   19.30    2.50
   9  -7  -1   38.70    3.60
  -2   9  -1   43.40    3.30
  -7  -2  -1   40.70    3.00
  -2   9  -1   42.30    4.30
  -9   7   1   46.40    3.60
   7   2   1   45.30    3.60
  -1   8  -1   22.30    2.10
  -7  -1  -1   25.90    2.40
   8  -7  -1   26.90    3.00
  -8   7   1   27.10    2.50
   7   1   1   25.60    2.50
   0   7  -1   17.50    1.70
  -7   0  -1   21.60    2.20
   7  -7  -1   16.10    2.50
   7   0   1   17.00    2.20
  -7   7   1   19.60    2.10
  -7   1  -1  131.09    5.80
   6  -7  -1  137.79    6.30
   1   6  -1  128.69    5.20
  -6   7   1  124.89    5.70
   7  -1   1  128.79    6.00
  -7   2  -1   82.29    4.40
   5  -7  -1   85.79    4.80
  -7   2  -1   85.89    3.90
   2   5  -1   87.89    3.70
   7  -2   1   84.49    4.70
  -5   7   1   82.19    4.20
   3   4  -1   75.89    3.40
   4  -7  -1   75.29    4.40
  -7   3  -1   77.09    3.70
  -7   3  -1   70.49    4.20
   7  -3   1   68.99    4.40
  -4   7   1   77.89    3.80
   4   3  -1  160.48    6.20
   3  -7  -1  161.48    7.00
  -7   4  -1  151.78    6.50
   7  -4   1  165.28    7.20
  -3   7   1  156.18    6.40
  -4  -3   1  158.98    6.10
  -7   5  -1   33.40    2.70
   5   2  -1   35.30    2.40
  -5  -2   1   34.00    2.20
   7  -5   1   37.10    3.10
  -2   7   1   30.90    2.40
  -2   7   1   32.60    3.60
  -7   6  -1   32.70    2.60
   6   1  -1   34.50    2.50
  -1   7   1   32.30    2.40
   7  -6   1   33.00    3.10
  -1   7   1   32.80    3.20
  -6  -1   1   29.70    2.40
  -7   7  -1   44.30    3.50
   7   0  -1   56.19    3.40
  -7   7  -1   46.10    5.50
   0   7   1   45.50    2.90
  -7   0   1   46.80    3.10
   7  -7   1   52.39    4.20
  -7   8  -1   41.70    3.30
  -7   8  -1   46.00    6.00
   8  -1  -1   46.90    3.50
   1   7   1   41.40    3.00
  -8   1   1   46.10    3.40
   7  -8   1   45.80    3.70
   9  -2  -1   21.90    2.80
  -7   9  -1   21.40    2.60
  -7   9  -1   19.20    4.80
   2   7   1   25.40    2.40
  -9   2   1   24.10    2.70
  10  -3  -1   86.99    5.30
  -7  10  -1   75.19    7.80
  -7  10  -1   73.79    5.00
 -10   3   1   66.89    4.90
   3   7   1   70.89    4.40
  -7  11  -1    6.60    2.60
  11  -4  -1    5.10    2.50
  -7  11  -1    7.60    4.50
   4   7   1    4.90    2.10
  -3  11  -1   32.10    3.40
  11  -8  -1   29.20    3.50
   8   3   1   22.50    3.10
  10  -8  -1   -3.60    2.20
  -2  10  -1    1.10    1.90
   8   2   1    1.70    2.00
   9  -8  -1   19.90    3.00
  -8  -1  -1   13.80    2.20
  -1   9  -1   21.10    2.20
   8   1   1   22.60    2.80
  -9   8   1   20.90    2.60
   8  -8  -1    8.60    2.40
  -8   0  -1    9.40    1.90
   0   8  -1    7.90    1.60
   8   0   1    9.90    2.10
  -8   8   1    9.90    2.10
   7  -8  -1   23.70    2.90
  -8   1  -1   26.50    2.70
   1   7  -1   28.00    2.10
   8  -1   1   23.00    2.70
  -7   8   1   27.60    2.70
  -8   2  -1    1.40    1.60
   2   6  -1    2.50    1.20
   6  -8  -1    3.30    1.90
  -6   8   1    0.80    1.60
   8  -2   1    1.40    1.80
  -8   3  -1  161.08    7.20
   3   5  -1  159.88    6.50
   5  -8  -1  161.38    7.30
   8  -3   1  164.38    7.50
  -5   8   1  168.28    7.00
  -8   4  -1    1.00    1.80
  -8   4  -1    1.10    1.40
   4   4  -1    1.20    1.10
   8  -4   1   -0.70    1.90
  -4   8   1    0.30    1.40
  -4   8   1    0.30    3.00
  -8   5  -1   36.20    3.10
   5   3  -1   37.20    2.60
  -8   5  -1   40.30    3.00
   8  -5   1   44.70    3.60
  -3   8   1   37.50    2.90
  -3   8   1   33.90    4.30
  -8   6  -1   35.80    2.90
   6   2  -1   33.30    2.70
  -2   8   1   39.70    4.10
  -6  -2   1   35.70    2.60
  -2   8   1   39.20    2.90
   8  -6   1   43.20    3.50
  -8   7  -1   55.49    5.90
   7   1  -1   43.90    3.20
  -8   7  -1   43.30    3.50
  -1   8   1   38.60    3.00
   8  -7   1   47.20    3.70
  -7  -1   1   41.60    3.00
  -8   8  -1    2.60    3.80
   8   0  -1    2.80    1.70
  -8   8  -1    1.10    1.90
  -8   0   1    1.30    1.50
   0   8   1    3.00    1.50
   8  -8   1    4.50    2.30
  -8   9  -1   83.69    5.00
  -8   9  -1   98.29    8.70
   9  -1  -1   69.19    4.70
  -9   1   1   74.29    4.60
   1   8   1   69.49    4.30
  10  -2  -1    1.10    2.20
  -8  10  -1   -1.50    3.80
  -8  10  -1    2.70    2.20
 -10   2   1   -0.90    2.00
   2   8   1    0.40    1.70
  11  -3  -1    6.50    2.60
  -8  11  -1    5.10    4.40
  -8  11  -1    4.80    2.50
   3   8   1    3.00    2.10
  -9  -1  -1   37.70    3.40
  -1  10  -1   48.90    3.70
  10  -9  -1   50.89    4.30
 -10   9   1   36.80    3.50
   9   1   1   52.09    4.10
   9  -9  -1   17.70    3.10
   0   9  -1   16.50    2.20
  -9   0  -1   15.80    2.50
  -9   9   1   16.40    2.80
   9   0   1   15.20    2.70
   8  -9  -1   24.50    3.10
   1   8  -1   19.80    2.20
  -9   1  -1   24.50    2.80
   9  -1   1   21.80    2.80
  -8   9   1   22.80    2.80
  -9   2  -1   52.09    3.90
   7  -9  -1   49.80    3.90
   9  -2   1   48.30    3.90
  -7   9   1   45.00    3.60
  -9   3  -1   14.80    2.50
   9  -3   1   15.50    2.70
  -6   9   1   13.20    2.20
  -9   4  -1    8.00    2.20
  -5   9   1   12.10    2.10
   9  -4   1   15.60    2.60
  -5   9   1   16.00    4.10
  -9   5  -1   52.49    3.50
  -9   5  -1   46.60    3.80
  -4   9   1   45.60    5.30
  -4   9   1   41.10    3.20
   9  -5   1   52.49    4.10
  -9   6  -1   32.40    3.20
  -9   6  -1   37.10    3.00
  -9   6  -1   43.40    5.40
   6   3  -1   36.00    2.90
  -3   9   1   41.50    3.10
   9  -6   1   41.10    3.60
  -3   9   1   37.50    4.50
  -9   7  -1   23.90    2.70
  -9   7  -1   32.70    5.10
   7   2  -1   21.80    2.30
  -2   9   1   22.60    2.40
   9  -7   1   27.90    3.30
   8   1  -1   81.69    4.60
  -9   8  -1   94.69    8.30
  -9   8  -1   67.19    4.70
  -8  -1   1   71.99    4.30
  -1   9   1   76.69    4.40
   9  -8   1   85.49    5.50
   9   0  -1    5.40    2.10
  -9   9  -1    5.80    2.30
  -9   9  -1    7.30    4.50
  -9   0   1    7.40    2.10
   0   9   1    9.10    2.00
   9  -9   1    7.30    2.60
  -9  10  -1    5.80    4.20
  10  -1  -1    7.40    2.40
  -9  10  -1    6.90    2.70
   1   9   1    7.00    2.20
 -10   1   1    2.80    2.00
   0  10  -1    1.30    2.10
  10 -10  -1    1.10    2.50
 -10  10   1    3.10    2.50
 -10  10   1    4.60    4.30
  10   0   1    2.10    2.50
   9 -10  -1   42.30    4.00
 -10   1  -1   41.80    3.60
  10  -1   1   47.50    4.20
  -9  10   1   45.10    4.10
  -9  10   1   45.00    6.30
 -10   2  -1   -3.10    1.90
  10  -2   1    2.10    2.30
  -8  10   1    0.70    2.30
  -8  10   1    1.80    4.00
 -10   3  -1   18.70    2.80
  -7  10   1   14.60    4.50
  10  -3   1   16.30    2.90
  -7  10   1   10.10    2.50
 -10   4  -1    3.80    2.20
  10  -4   1    6.70    2.50
  -6  10   1    7.40    4.10
  -6  10   1    5.20    2.10
 -10   5  -1   19.70    3.00
  -5  10   1   21.10    2.70
  -5  10   1   21.50    4.80
  10  -5   1   20.80    3.20
 -10   6  -1    2.80    2.20
  -4  10   1    1.00    1.80
  -4  10   1    0.80    3.30
  10  -6   1    3.50    2.60
 -10   7  -1   91.89    8.00
 -10   7  -1   80.79    5.30
 -10   7  -1   70.19    4.70
  10  -7   1   81.49    5.80
  -3  10   1   76.99    4.90
 -10   8  -1    3.00    4.30
   8   2  -1    1.80    1.80
 -10   8  -1   -3.50    1.70
 -10   8  -1    5.90    2.30
  10  -8   1    2.60    2.50
  -2  10   1   -0.60    1.90
 -10   9  -1    2.30    2.10
   9   1  -1    7.80    3.10
 -10   9  -1    4.00    4.30
  -1  10   1    8.80    2.20
  10  -9   1    3.10    2.60
  10   0  -1    3.70    2.40
 -10  10  -1   -2.30    2.50
 -10  10  -1    3.90    4.50
   0  10   1    5.70    2.10
  -8  11   1   27.80    3.50
  11  -3   1   28.90    3.70
  -8  11   1   28.50    5.60
  11  -4   1   10.30    2.90
  -7  11   1   11.80    2.80
  -7  11   1   10.20    4.60
  -6  11   1   18.50    2.80
  11  -5   1   15.20    3.10
  -6  11   1    8.60    4.30
  -5  11   1   32.70    3.50
  -5  11   1   28.10    5.00
  11  -6   1   34.70    3.90
  -4  11   1    1.90    2.20
  11  -7   1    6.20    2.80
  -4  11   1    4.40    3.60
  -3  11   1    7.20    2.50
  11  -8   1    4.90    2.80
   0   0  -2 1932.71   66.19
   0   1  -2 1339.87   47.20
   0   1  -2 1428.66   47.40
  -1   0  -2 1373.56   47.40
  -1   1  -2   28.40    1.20
   0  -1  -2   23.60    1.30
  -1   2  -2  198.98    7.20
  -1  -1  -2  199.28    7.20
  -1   2  -2  201.68    7.00
   3  -2  -2 1046.90   36.60
  -2  -1  -2 1037.70   36.50
   2   1   2 1089.49   36.50
  -2   0  -2  463.15   16.20
  -2   1  -2  199.28    7.10
  -2   2  -2 9999.00  329.67
   0  -2  -2 9254.87  329.67
  -2   3  -2   11.00    0.90
  -1  -2  -2   11.30    1.00
  -2   3  -2    8.70    0.90
  -2   3  -2   11.30    1.80
   1   2   2   10.40    0.90
   4  -2  -2  733.03   26.20
  -2  -2  -2  743.83   25.90
  -2   4  -2  742.73   25.90
  -2  -2  -2  748.83   25.90
  -2   4  -2  766.32   26.80
   2   2   2  743.63   26.00
  -2   5  -2  456.75   15.70
  -2   5  -2  459.05   16.70
   5  -3  -2  438.96   16.20
  -3  -2  -2  445.26   15.60
  -3  -2  -2  455.85   15.80
   3   2   2  412.86   15.70
  -5   3   2  438.96   15.70
  -3  -1  -2   21.60    1.50
  -1   4  -2   26.20    1.40
  -3  -1  -2   19.30    1.50
   4  -3  -2   21.10    1.90
  -1   4  -2   26.70    2.30
   3   1   2   26.10    1.60
  -4   3   2   21.30    1.60
  -3   0  -2  175.58    6.50
  -3   0  -2  167.28    6.50
   3  -3  -2  183.68    6.70
   3   0   2  176.38    6.60
  -3   3   2  179.88    6.50
   2  -3  -2  998.90   36.00
  -3   1  -2 1049.20   36.00
  -3   1  -2 1051.69   36.00
  -1  -2   2 1043.30   35.70
  -2   3   2 1024.20   36.00
   3  -1   2 1084.39   36.10
   1  -3  -2   10.90    1.00
  -3   2  -2   10.20    1.00
  -3   2  -2   10.30    1.10
  -1   3   2    9.90    0.90
   3  -2   2   12.00    1.20
  -3   3  -2  130.39    5.80
  -3   3  -2  118.79    4.70
   0  -3  -2  114.99    4.60
   0  -3  -2  121.99    4.60
   0   3   2  119.79    4.60
   3  -3   2  127.99    5.40
  -3   4  -2  477.25   18.20
  -3   4  -2  516.75   18.10
   4  -1  -2  528.95   18.40
  -3   4  -2  549.54   19.40
  -1  -3  -2  511.95   18.10
  -1  -3  -2  519.05   18.20
   1   3   2  528.05   18.20
   5  -2  -2   44.90    2.80
  -3   5  -2   48.40    4.00
  -2  -3  -2   45.40    2.20
  -3   5  -2   38.20    2.30
  -2  -3  -2   42.10    2.20
   2   3   2   47.70    2.30
  -3   6  -2   76.59    5.10
  -3  -3  -2   73.79    3.30
   6  -3  -2   66.19    3.80
  -3   6  -2   75.39    3.40
  -6   3   2   71.39    3.30
   3   3   2   70.89    3.40
   7  -4  -2  267.87   11.00
  -3   7  -2  262.87   12.00
  -4  -3  -2  293.87   10.60
  -3   7  -2  295.77   10.60
   4   3   2  291.17   10.60
  -4  -2  -2  187.08    7.10
  -2   6  -2  185.28    8.20
  -2   6  -2  188.38    7.00
   6  -4  -2  174.48    7.60
  -6   4   2  183.28    7.10
   4   2   2  186.28    7.20
  -1   5  -2   78.49    4.20
  -1   5  -2   83.39    3.40
   5  -4  -2   82.99    4.20
  -4  -1  -2   80.09    3.50
  -4  -1  -2   86.59    3.70
   4   1   2   79.19    3.60
  -5   4   2   87.59    3.70
  -4   0  -2 4391.56  148.39
   0   4  -2 4275.87  148.79
  -4   0  -2 4414.36  148.49
   0   4  -2 4280.07  148.09
   4  -4  -2 4373.36  148.69
   4   0   2 4144.09  148.49
  -4   4   2 4433.36  148.49
   1   3  -2   24.90    2.20
  -4   1  -2   22.30    1.60
  -4   1  -2   22.60    1.80
   3  -4  -2   21.20    1.70
  -1  -3   2   23.60    1.00
   4  -1   2   21.60    1.70
  -3   4   2   21.40    1.60
  -4   2  -2  745.73   25.60
  -4   2  -2  725.43   25.50
   2  -4  -2  697.73   25.50
  -2   4   2  758.42   25.50
  -2  -2   2  739.03   25.20
   4  -2   2  720.43   25.70
   1  -4  -2  491.25   17.90
  -4   3  -2  492.95   18.00
  -4   3  -2  514.35   19.20
  -4   3  -2  521.45   18.20
   4  -3   2  504.05   18.30
  -1   4   2  533.35   17.90
  -4   4  -2  292.37   10.60
   4   0  -2  290.57   10.50
   0  -4  -2  296.77   10.50
  -4   4  -2  302.27   10.40
  -4   4  -2  291.37   12.20
   0  -4  -2  297.87   10.40
   4  -4   2  246.38   10.90
   0   4   2  304.07   10.50
  -4   5  -2  108.29    4.40
   5  -1  -2  101.19    4.50
  -4   5  -2  103.59    4.20
  -1  -4  -2  104.69    4.20
  -1  -4  -2  106.39    4.20
  -4   5  -2  111.39    6.40
   1   4   2  101.89    4.30
  -2  -4  -2 2225.68   75.09
  -4   6  -2 2148.89   76.99
  -4   6  -2 2171.88   75.19
   6  -2  -2 2140.29   75.39
   2   4   2 2212.88   75.09
  -3  -4  -2   11.70    1.40
  -4   7  -2   11.90    1.50
   7  -3  -2    5.50    1.60
  -4   7  -2    9.70    3.00
   3   4   2    8.60    1.40
  -4   8  -2  148.39    8.70
   8  -4  -2  158.58    7.10
  -4   8  -2  160.38    6.60
  -4  -4  -2  157.88    6.40
   4   4   2  153.08    6.60
   9  -5  -2   81.99    5.00
  -4   9  -2   79.29    4.60
  -4   9  -2   83.79    6.80
   5   4   2   85.89    4.50
  -5  -3  -2   11.00    1.70
  -3   8  -2   14.40    1.80
  -3   8  -2   11.70    2.90
   8  -5  -2    9.90    2.20
   5   3   2   10.30    1.70
  -2   7  -2   65.69    3.40
   7  -5  -2   66.59    4.20
  -5  -2  -2   72.29    3.50
  -2   7  -2   74.79    4.80
   5   2   2   67.79    3.60
  -7   5   2   68.79    3.60
  -1   6  -2  222.08    9.30
   6  -5  -2  230.98    9.30
  -1   6  -2  230.88    8.30
  -5  -1  -2  236.08    8.70
   5   1   2  213.48    8.70
  -6   5   2  222.28    8.60
   0   5  -2    7.20    0.90
  -5   0  -2    7.70    1.30
   0   5  -2    6.80    1.40
   5  -5  -2    1.70    1.50
  -5   0  -2    5.20    1.00
   5   0   2    5.40    1.20
  -5   5   2    4.80    1.10
   1   4  -2   78.59    3.10
  -5   1  -2   79.99    3.70
   4  -5  -2   83.49    4.10
  -5   1  -2   79.69    3.50
   1   4  -2   81.19    3.90
   5  -1   2   83.49    3.90
  -4   5   2   76.29    3.60
  -5   2  -2  455.75   16.20
  -5   2  -2  437.36   16.00
   3  -5  -2  431.96   16.20
   2   3  -2  457.15   16.20
   5  -2   2  431.76   16.30
  -3   5   2  463.35   16.00
  -2  -3   2  463.35   15.60
  -5   3  -2   45.40    2.40
   2  -5  -2   44.60    2.50
  -5   3  -2   32.90    3.60
  -5   3  -2   44.80    2.80
   3   2  -2   41.90    2.00
  -3  -2   2   44.80    2.00
   5  -3   2   38.00    3.00
  -2   5   2   44.00    2.30
   4   1  -2  104.89    4.20
   1  -5  -2  105.19    4.40
  -5   4  -2  104.59    4.40
  -1   5   2  105.69    4.30
  -4  -1   2  110.69    4.30
   5  -4   2   86.19    4.90
   0  -5  -2  545.45   19.70
   5   0  -2  563.54   19.80
  -5   5  -2  550.94   19.60
  -5   5  -2  588.04   19.90
   0  -5  -2  566.94   19.60
   0   5   2  534.35   19.70
  -1  -5  -2   11.80    1.30
  -5   6  -2   12.60    1.60
   6  -1  -2   14.10    1.70
  -5   6  -2    8.20    3.10
  -5   6  -2   12.10    1.30
   5  -6   2    3.70    1.80
   1   5   2   11.70    1.30
  -5   7  -2   35.70    4.60
   7  -2  -2   38.70    3.00
  -5   7  -2   38.10    2.90
  -2  -5  -2   38.60    2.30
   2   5   2   39.30    2.50
  -5   8  -2   77.99    4.30
   8  -3  -2   71.49    4.50
  -5   8  -2   81.89    7.00
   3   5   2   77.39    4.00
   9  -4  -2   24.00    2.90
  -5   9  -2   26.10    2.60
  -5   9  -2   21.10    4.40
   4   5   2   22.90    2.40
  -5  10  -2   12.80    2.40
  -5  10  -2   16.70    4.20
  10  -5  -2    9.50    2.60
   5   5   2    9.80    2.30
  -5  11  -2   48.40    6.00
  11  -6  -2   40.10    4.00
  -5  11  -2   51.19    4.10
   6   5   2   48.30    3.80
  10  -6  -2   32.70    3.50
  -4  10  -2   34.90    4.90
  -4  10  -2   30.00    3.10
   6   4   2   36.70    3.20
  -3   9  -2   18.60    3.50
  -6  -3  -2   18.00    2.10
  -3   9  -2   24.60    2.40
   9  -6  -2   16.70    2.70
   6   3   2   19.10    2.30
   8  -6  -2  606.34   23.00
  -6  -2  -2  621.24   22.50
  -2   8  -2  580.44   23.60
  -2   8  -2  663.73   22.40
  -8   6   2  648.24   22.60
   6   2   2  639.54   22.70
   7  -6  -2   17.80    2.50
  -6  -1  -2   21.20    2.10
  -1   7  -2   25.40    2.80
  -1   7  -2   24.00    1.80
  -7   6   2   24.50    2.20
   6   1   2   23.20    2.20
  -6   0  -2  256.87    9.80
   0   6  -2  254.17    9.30
   0   6  -2  251.37   10.20
   6  -6  -2  259.27   10.40
   6   0   2  247.48    9.90
  -6   6   2  261.57    9.80
   1   5  -2  225.98    8.30
   1   5  -2  232.28    9.10
  -6   1  -2  233.88    8.60
  -6   1  -2  231.18    8.90
   5  -6  -2  217.18    9.40
   6  -1   2  241.48    9.10
  -5   6   2  225.48    8.80
   4  -6  -2  182.28    7.70
  -6   2  -2  187.88    7.40
  -6   2  -2  190.38    7.10
  -6   2  -2  177.58    7.10
  -4   6   2  177.18    7.20
   6  -2   2  186.18    7.60
   3  -6  -2   69.49    3.90
  -6   3  -2   72.89    3.50
  -6   3  -2   73.79    3.90
   6  -3   2   65.99    4.10
  -3   6   2   69.59    3.40
  -3  -3   2   72.39    3.00
  -6   4  -2 2200.88   74.69
   2  -6  -2 2115.19   74.69
  -6   4  -2 2247.08   74.99
   4   2  -2 2188.58   74.29
   6  -4   2 2026.00   75.09
  -2   6   2 2105.89   74.49
  -4  -2   2 2241.58   74.39
  -6   5  -2   10.90    1.60
  -6   5  -2    5.80    3.20
   1  -6  -2   12.00    1.60
   5   1  -2   16.20    1.50
   6  -5   2    8.40    2.10
  -5  -1   2   12.40    1.40
  -1   6   2   14.20    1.50
  -6   6  -2  184.78   11.20
  -6   6  -2  222.48    8.80
   6   0  -2  229.08    8.60
   6  -6   2  233.78    9.40
   0   6   2  223.38    8.50
  -6   0   2  239.88    8.70
  -6   7  -2  113.89    5.20
  -6   7  -2   94.79    8.00
   7  -1  -2  112.49    5.20
  -7   1   2  111.99    5.20
   1   6   2  113.09    4.90
   6  -7   2  121.59    5.90
  -6   8  -2   76.29    7.60
  -6   8  -2   86.19    4.50
   8  -2  -2   76.09    4.60
  -8   2   2   82.39    4.50
   2   6   2   87.89    4.20
  -6   9  -2   20.50    4.70
  -6   9  -2   28.00    2.80
   9  -3  -2   26.60    2.90
   3   6   2   28.90    2.60
  -9   3   2   26.40    2.80
  -6  10  -2  221.18   12.50
  -6  10  -2  222.78    9.90
  10  -4  -2  243.48   10.10
 -10   4   2  233.48   10.00
   4   6   2  245.58    9.70
  -6  11  -2    3.30    4.00
  11  -5  -2    4.60    2.40
  -6  11  -2    5.40    2.60
   5   6   2    4.30    2.20
  11  -7  -2   14.20    3.10
  -4  11  -2   12.10    3.90
  -4  11  -2   19.00    3.00
   7   4   2   15.90    2.80
  -3  10  -2   31.70    3.10
  -3  10  -2   25.70    4.00
  10  -7  -2   28.80    3.40
   7   3   2   37.70    3.20
  -2   9  -2    5.50    2.50
   9  -7  -2    2.10    2.10
  -2   9  -2    4.00    1.70
  -7  -2  -2    2.40    1.60
   7   2   2    4.20    1.80
  -7  -1  -2   24.40    2.30
  -1   8  -2   23.30    2.10
  -1   8  -2   28.60    3.20
   8  -7  -2   24.10    3.00
  -8   7   2   24.20    2.40
   7   1   2   25.30    2.60
   0   7  -2  152.58    6.00
   7  -7  -2  145.89    7.10
  -7   0  -2  143.79    6.50
   7   0   2  148.69    6.70
  -7   7   2  151.58    6.50
  -7   1  -2   22.50    2.40
   6  -7  -2   20.20    2.80
  -6   7   2   23.60    2.30
   7  -1   2   22.50    2.50
  -7   2  -2   72.39    4.10
  -7   2  -2   74.79    3.70
   5  -7  -2   73.89    4.70
  -5   7   2   77.39    4.00
   7  -2   2   76.29    4.50
  -7   3  -2  291.37   10.80
   4  -7  -2  282.87   11.40
  -7   3  -2  285.47   11.20
  -7   3  -2  287.07   10.80
  -4   7   2  283.17   10.90
   7  -3   2  303.87   11.60
  -7   4  -2    8.80    1.50
  -7   4  -2    9.00    2.00
   3  -7  -2    5.80    1.90
  -7   4  -2    3.70    3.00
  -3   7   2    5.90    1.30
   7  -4   2    6.10    2.10
   5   2  -2   38.40    2.30
  -7   5  -2   31.10    4.70
  -7   5  -2   34.50    3.00
  -7   5  -2   37.00    2.90
  -5  -2   2   40.40    2.30
  -2   7   2   37.00    2.50
   7  -5   2   34.00    3.30
   6   1  -2  117.19    4.90
  -7   6  -2   96.09    8.00
  -7   6  -2  117.09    5.30
  -6  -1   2  111.89    4.90
   7  -6   2  116.39    6.10
  -1   7   2  105.59    4.90
  -7   7  -2   38.30    3.10
  -7   7  -2   34.00    5.30
   7   0  -2   38.20    2.80
   7  -7   2   46.00    3.70
  -7   0   2   35.40    2.80
   0   7   2   40.90    2.80
   8  -1  -2   26.70    2.60
  -7   8  -2   20.50    4.80
  -7   8  -2   24.50    2.60
  -8   1   2   28.20    2.60
   1   7   2   25.20    2.30
   9  -2  -2  137.19    6.40
  -7   9  -2  128.99    6.30
  -7   9  -2  121.29    9.50
   2   7   2  125.59    5.90
  -9   2   2  124.19    6.20
  -7  10  -2    3.00    4.20
  10  -3  -2    3.70    2.30
  -7  10  -2    5.90    2.30
 -10   3   2    6.50    2.20
   3   7   2    3.00    1.90
  -7  11  -2    0.60    4.00
  -7  11  -2    9.20    2.70
  11  -4  -2    8.90    2.60
   4   7   2   10.40    2.50
  -3  11  -2    8.20    2.50
  11  -8  -2    9.30    2.90
   8   3   2    7.90    2.50
  -8  -2  -2   42.00    3.40
  -2  10  -2   44.10    3.50
  10  -8  -2   41.40    4.00
   8   2   2   36.60    3.50
   9  -8  -2   53.19    4.30
  -8  -1  -2   53.69    3.80
  -1   9  -2   53.99    3.70
   8   1   2   52.59    4.20
  -9   8   2   59.49    4.10
   8  -8  -2   51.69    4.00
  -8   0  -2   51.69    3.70
   8   0   2   42.70    3.60
  -8   8   2   47.80    3.80
  -8   1  -2   27.80    2.60
   7  -8  -2   22.50    2.90
   8  -1   2   20.90    2.70
  -7   8   2   25.00    2.60
   6  -8  -2  631.84   23.40
  -8   2  -2  620.24   23.10
   8  -2   2  652.93   23.50
  -6   8   2  639.74   23.00
   5  -8  -2   10.90    2.50
  -8   3  -2   14.10    1.80
  -8   3  -2   12.60    2.20
   8  -3   2   10.30    2.30
  -5   8   2   13.30    2.00
   4  -8  -2  151.48    7.20
  -8   4  -2  155.98    7.10
  -8   4  -2  162.28    6.60
  -4   8   2  144.69    6.50
   8  -4   2  156.28    7.50
  -8   5  -2   82.89    7.30
  -8   5  -2   79.69    4.70
  -8   5  -2   81.39    4.20
  -3   8   2   76.19    4.00
   8  -5   2   69.99    5.00
  -8   6  -2   92.99    5.00
  -8   6  -2   83.59    4.60
  -8   6  -2   83.19    8.00
  -2   8   2   79.39    6.10
  -2   8   2   77.49    4.20
   8  -6   2   95.69    5.50
  -8   7  -2   29.40    3.00
  -8   7  -2   31.10    5.30
  -8   7  -2   25.80    2.70
   7   1  -2   35.10    2.70
  -7  -1   2   27.00    2.40
   8  -7   2   28.90    3.30
  -1   8   2   25.70    2.30
  -8   8  -2  419.46   15.40
  -8   8  -2  378.86   18.10
   8   0  -2  402.26   15.10
   8  -8   2  455.15   15.90
  -8   0   2  382.76   15.00
   0   8   2  378.86   14.90
  -8   9  -2    5.60    4.30
   9  -1  -2    3.30    2.00
  -8   9  -2    7.60    2.20
  -9   1   2    6.40    2.00
   1   8   2    5.20    1.80
  -8  10  -2   33.50    3.40
  10  -2  -2   28.80    3.20
  -8  10  -2   25.30    5.40
 -10   2   2   30.60    3.20
   2   8   2   35.90    3.10
  11  -3  -2   16.30    3.00
  -8  11  -2   10.40    4.70
  -8  11  -2   17.10    3.00
   3   8   2   18.60    2.80
  10  -9  -2    3.10    2.70
  -9  -1  -2    6.00    2.10
   9   1   2    7.70    2.50
   9  -9  -2   28.00    3.40
  -9   0  -2   21.20    2.70
   9   0   2   23.90    3.10
  -9   9   2   21.00    2.90
  -9   1  -2   54.59    4.00
   8  -9  -2   54.09    4.30
   9  -1   2   47.70    4.10
  -8   9   2   59.59    4.40
   7  -9  -2    4.10    2.30
  -9   2  -2    0.30    1.80
  -7   9   2    3.90    2.00
   9  -2   2    4.20    2.30
   6  -9  -2   17.20    2.90
  -9   3  -2   20.70    2.80
   9  -3   2   21.80    3.10
  -6   9   2   23.00    2.60
  -9   4  -2   81.39    5.10
  -9   4  -2   94.29    4.80
  -9   4  -2   83.59    4.60
   9  -4   2   91.09    5.60
  -5   9   2   81.09    4.70
  -9   5  -2   21.80    2.90
  -9   5  -2   22.40    2.50
   9  -5   2   24.70    3.20
  -4   9   2   25.30    4.40
  -4   9   2   25.40    2.50
  -9   6  -2   33.00    5.20
  -9   6  -2   27.00    3.10
  -9   6  -2   30.00    2.80
  -3   9   2   31.30    4.40
  -3   9   2   23.80    2.50
   9  -6   2   31.20    3.50
  -9   7  -2  145.39    9.90
  -9   7  -2  130.19    6.70
  -9   7  -2  119.59    6.20
  -2   9   2  122.99    5.90
   9  -7   2  135.59    7.00
  -9   8  -2    7.40    2.30
  -9   8  -2    4.10    2.00
  -9   8  -2   11.20    4.50
   8   1  -2    7.40    1.90
   9  -8   2    7.10    2.70
  -1   9   2    3.60    1.70
  -9   9  -2    8.20    4.50
  -9   9  -2   10.70    2.50
   9   0  -2    6.70    2.10
   0   9   2   10.60    2.20
  -9   0   2    7.50    2.20
  10  -1  -2   18.80    2.70
  -9  10  -2   16.90    5.20
  -9  10  -2    9.10    2.80
   1   9   2   16.40    2.60
 -10   1   2   17.30    2.60
   9 -10  -2    6.10    2.80
  -9  10   2    5.90    2.50
  10  -1   2    6.90    2.70
 -10   2  -2   36.50    3.50
   8 -10  -2   40.70    3.90
  -8  10   2   41.00    3.70
  10  -2   2   42.40    4.00
 -10   3  -2   27.80    3.20
  -7  10   2   35.40    3.40
  10  -3   2   34.00    3.70
 -10   4  -2   29.60    3.30
  -6  10   2   32.80    3.20
  -6  10   2   33.30    5.40
  10  -4   2   35.00    3.70
 -10   5  -2    9.20    2.60
  -5  10   2   15.90    4.30
  10  -5   2   15.50    3.00
  -5  10   2   12.20    2.30
 -10   6  -2  224.38    9.80
 -10   6  -2  220.78   10.20
  -4  10   2  253.87   12.50
  -4  10   2  230.88    9.70
  10  -6   2  254.07   10.80
 -10   7  -2    2.30    1.90
 -10   7  -2    6.60    2.50
  -3  10   2    2.10    2.00
  10  -7   2    2.30    2.60
 -10   8  -2   30.20    3.20
 -10   8  -2   36.20    3.70
 -10   8  -2   39.10    5.90
  10  -8   2   49.60    4.30
  -2  10   2   35.10    3.20
 -10   9  -2   20.70    5.40
 -10   9  -2   18.50    2.90
  -1  10   2   16.50    2.60
  -8  11   2    7.80    4.50
  -8  11   2    9.60    2.80
  11  -3   2    5.20    2.80
  11  -4   2   12.40    3.20
  -7  11   2   17.40    3.00
  -7  11   2   15.40    4.80
  -6  11   2   47.00    6.30
  11  -5   2   49.80    4.60
  -6  11   2   42.40    3.80
  -5  11   2    4.20    2.30
  11  -6   2    3.20    2.70
  -5  11   2    2.30    3.80
  11  -7   2    7.90    3.00
  -4  11   2    7.20    2.40
 -11   8  -2   17.80    2.70
  -3  11   2   17.70    2.90
  11  -8   2   24.30    3.60
   0   0  -3 3875.51  132.89
   0   0  -3 3891.41  132.89
  -1   0  -3  609.64   21.40
   0   1  -3  634.74   21.40
   0   1  -3  611.64   21.30
  -1   1  -3  332.27   11.20
   0  -1  -3  307.07   11.20
  -1   2  -3  500.55   17.70
  -1   2  -3  523.05   17.50
  -1  -1  -3  504.55   17.70
  -1  -1  -3  505.25   17.70
   3  -2  -3  295.57   10.60
  -2  -1  -3  294.17   10.60
  -2  -1  -3  309.67   10.60
  -1   3  -3  288.17   11.10
   2   1   3  298.47   10.60
  -2   0  -3   18.10    1.30
   2  -2  -3   18.70    1.30
  -2   0  -3   17.90    1.30
   2   0   3   16.90    1.30
   1  -2  -3  512.55   17.40
  -2   1  -3  498.15   17.40
  -2   1  -3  487.75   17.40
  -2   2  -3   25.50    1.50
  -2   2  -3   27.10    1.40
   0  -2  -3   25.60    1.50
   0  -2  -3   24.40    1.60
   0   2   3   27.60    1.50
  -2   3  -3  167.18    6.40
  -2   3  -3  165.38    6.20
  -1  -2  -3  167.58    6.30
  -1  -2  -3  172.58    6.40
  -2   3  -3  168.78    6.30
  -2   3  -3  177.58    7.00
   1   2   3  184.18    6.40
  -2   4  -3  832.62   28.90
  -2   4  -3  807.82   28.70
  -2   4  -3  851.61   29.60
   4  -2  -3  812.82   28.90
  -2  -2  -3  835.72   28.90
  -2   4  -3  820.92   28.60
  -2  -2  -3  838.12   28.90
   2   2   3  841.42   28.90
  -2   5  -3  218.48    7.90
  -2   5  -3  223.38    9.00
  -3  -2  -3  212.38    8.00
  -3  -2  -3  213.58    8.00
   5  -3  -3  206.08    8.40
  -5   3   3  213.38    7.90
   3   2   3  217.38    8.10
  -1   4  -3  134.69    5.90
   4  -3  -3  131.79    5.50
  -1   4  -3  144.29    5.10
  -3  -1  -3  136.09    5.40
  -3  -1  -3  135.59    5.40
   3   1   3  151.48    5.50
  -4   3   3  138.99    5.30
   0   3  -3  413.26   15.00
   3  -3  -3  402.06   14.60
  -3   0  -3  417.76   14.60
  -3   0  -3  412.96   14.60
  -3   3   3  414.66   14.60
   3   0   3  415.26   14.60
  -3   1  -3  293.87   10.60
  -3   1  -3  289.97   10.60
   2  -3  -3  290.17   10.60
   1   2  -3  295.07   10.90
  -2   3   3  306.17   10.60
   3  -1   3  296.17   10.60
  -3   2  -3  173.68    6.30
  -3   2  -3  161.78    6.30
   1  -3  -3  166.58    6.30
  -1   3   3  173.28    6.30
   3  -2   3  175.38    6.40
  -3   3  -3  192.48    7.40
  -3   3  -3  210.28    8.10
   0  -3  -3  202.48    7.30
   0  -3  -3  197.78    7.30
  -3   3  -3  203.88    7.30
   0   3   3  189.68    7.30
  -3   4  -3  250.27    9.40
  -3   4  -3  269.67   10.40
  -1  -3  -3  257.87    9.40
  -3   4  -3  256.57    9.40
  -3   4  -3  257.57    9.40
   4  -1  -3  259.37    9.40
  -1  -3  -3  257.07    9.40
   1   3   3  259.97    9.40
  -3   5  -3  103.49    4.40
  -3   5  -3  113.19    5.70
  -3   5  -3  109.99    4.40
   5  -2  -3  103.89    4.70
  -2  -3  -3  107.89    4.40
  -2  -3  -3  108.79    4.40
  -3   5  -3  101.59    4.40
   2   3   3  113.49    4.40
  -3   6  -3  276.27   10.20
  -3   6  -3  279.47   11.70
  -3  -3  -3  281.57   10.20
  -3  -3  -3  273.67   10.10
   6  -3  -3  267.97   10.70
   3   3   3  274.57   10.30
   7  -4  -3   43.70    3.30
  -3   7  -3   42.50    2.70
  -3   7  -3   39.20    4.00
  -4  -3  -3   41.50    2.60
   4   3   3   41.80    2.80
   6  -4  -3    4.50    1.70
  -4  -2  -3    5.30    1.20
  -2   6  -3    5.90    1.10
  -4  -2  -3    4.80    1.10
  -2   6  -3    5.80    1.90
  -6   4   3    6.50    1.10
   4   2   3    3.70    1.20
  -4  -1  -3  180.48    7.00
  -1   5  -3  180.68    7.70
   5  -4  -3  194.28    7.50
  -1   5  -3  188.58    6.80
  -4  -1  -3  186.58    7.10
  -5   4   3  186.38    7.10
   4   1   3  179.48    7.10
  -4   0  -3    7.80    1.00
  -4   0  -3    5.60    1.10
   0   4  -3    6.40    1.40
   4  -4  -3    7.00    1.30
  -4   4   3    7.90    1.10
   4   0   3    5.60    1.10
  -4   1  -3  140.39    5.30
   1   3  -3  140.89    5.70
   3  -4  -3  127.99    5.40
  -4   1  -3  136.29    5.40
  -3   4   3  136.19    5.30
   4  -1   3  134.09    5.40
   2   2  -3  811.62   28.90
  -4   2  -3  824.62   28.70
  -4   2  -3  839.92   28.80
   2  -4  -3  793.92   28.70
   4  -2   3  848.42   28.90
  -2   4   3  824.62   28.70
   3   1  -3  252.97    9.70
   1  -4  -3  258.67    9.40
  -4   3  -3  281.87   10.30
  -4   3  -3  256.97    9.50
  -4   3  -3  249.68    9.40
   4  -3   3  256.27    9.60
  -1   4   3  244.88    9.30
   0  -4  -3   10.10    1.20
   0  -4  -3   11.00    1.20
  -4   4  -3    9.80    1.10
  -4   4  -3    8.60    1.40
  -4   4  -3   10.20    2.10
  -4   4  -3    8.20    1.20
   4   0  -3   13.20    1.30
   4  -4   3   10.30    1.50
   0   4   3   11.80    1.10
  -4   5  -3  341.97   13.20
   5  -1  -3  310.37   11.80
  -1  -4  -3  337.77   11.50
  -1  -4  -3  317.37   11.50
  -4   5  -3  326.07   11.50
  -4   5  -3  321.67   11.70
  -4   5  -3  290.17   11.70
   1   4   3  325.07   11.60
   4  -5   3  297.47   11.80
  -4   6  -3    4.30    1.20
  -2  -4  -3    6.30    1.20
  -2  -4  -3    4.30    1.10
   6  -2  -3    3.40    1.50
  -4   6  -3    6.10    2.50
   2   4   3    4.80    1.10
   7  -3  -3   32.80    2.80
  -4   7  -3   34.20    2.60
  -4   7  -3   41.00    4.40
  -3  -4  -3   30.80    2.40
   3   4   3   34.20    2.50
   8  -4  -3   30.90    2.90
  -4   8  -3   34.90    2.60
  -4  -4  -3   32.30    2.40
  -4   8  -3   35.40    4.60
   4   4   3   28.20    2.50
  -4   9  -3   39.80    4.90
   9  -5  -3   37.50    3.40
  -4   9  -3   44.10    3.20
  -5  -4  -3   39.00    3.00
   5   4   3   38.60    3.10
  -5  -3  -3   27.80    2.40
  -3   8  -3   29.70    2.40
  -3   8  -3   34.20    4.00
   8  -5  -3   28.40    2.90
   5   3   3   30.10    2.60
  -2   7  -3  139.79    7.20
   7  -5  -3  139.99    6.90
  -5  -2  -3  152.28    6.20
  -2   7  -3  152.08    6.00
   5   2   3  150.38    6.30
  -7   5   3  154.58    6.40
  -1   6  -3   81.09    4.60
  -1   6  -3   82.59    3.50
   6  -5  -3   79.69    4.60
  -5  -1  -3   77.29    3.70
  -5  -1  -3   82.89    3.90
   5   1   3   82.09    4.00
  -6   5   3   77.99    3.80
  -5   0  -3   54.09    2.80
   0   5  -3   56.39    3.50
   5  -5  -3   61.79    3.60
  -5   0  -3   59.39    3.00
   5   0   3   55.39    3.10
  -5   5   3   54.49    2.90
  -5   1  -3  184.08    7.10
  -5   1  -3  180.78    6.90
   4  -5  -3  176.18    7.30
   1   4  -3  191.88    7.40
   5  -1   3  180.48    7.20
  -4   5   3  175.68    7.00
  -5   2  -3  234.98    9.20
  -5   2  -3  220.28    8.30
   3  -5  -3  214.68    8.40
   2   3  -3  213.58    8.50
  -5   2  -3  208.78    8.20
  -5   2  -3  230.68    8.50
   5  -2   3  224.98    8.60
  -3   5   3  216.28    8.30
  -5   3  -3  114.79    4.90
  -5   3  -3  114.99    5.70
   2  -5  -3  104.79    4.70
  -5   3  -3  109.59    4.70
   3   2  -3  105.89    4.70
  -3  -2   3  109.09    4.30
  -2   5   3  116.69    4.60
   5  -3   3  115.99    5.10
  -5   4  -3  319.97   13.10
  -5   4  -3  326.37   11.80
   1  -5  -3  315.27   11.50
   4   1  -3  319.67   11.40
  -5   4  -3  328.17   11.60
  -1   5   3  309.47   11.50
   5  -4   3  284.97   11.90
   0  -5  -3   75.99    3.50
  -5   5  -3   72.69    5.50
   5   0  -3   72.39    3.40
  -5   5  -3   67.39    4.00
  -5   5  -3   78.19    3.40
  -5   5  -3   74.59    3.70
   0  -5  -3   80.69    3.30
   0   5   3   77.99    3.40
   5  -5   3   51.39    3.90
  -5   6  -3   52.59    5.20
  -1  -5  -3   44.40    2.80
  -5   6  -3   49.99    2.70
  -5   6  -3   37.20    3.00
  -5   6  -3   50.99    3.10
  -1  -5  -3   50.09    2.70
   6  -1  -3   55.39    3.10
   1   5   3   52.19    2.80
  -5   7  -3   55.49    3.30
  -2  -5  -3   52.89    2.80
   7  -2  -3   45.50    3.30
  -5   7  -3   43.60    5.00
   2   5   3   49.80    3.00
  -5   8  -3   52.29    3.60
  -5   8  -3   44.70    5.40
   8  -3  -3   51.89    3.80
  -3  -5  -3   56.59    3.20
   3   5   3   52.59    3.40
  -5   9  -3   20.00    2.50
   9  -4  -3   23.10    2.80
  -5   9  -3   18.90    4.30
   4   5   3   19.40    2.40
  10  -5  -3   75.89    5.30
  -5  10  -3   71.79    5.00
  -5  10  -3   76.19    7.60
   5   5   3   84.19    4.80
  -5  11  -3    1.30    2.40
  -5  11  -3    3.90    3.70
  11  -6  -3    5.10    2.70
   6   5   3    2.60    2.20
  -4  10  -3    0.30    2.00
  -4  10  -3   -1.70    2.90
  10  -6  -3    4.30    2.30
   6   4   3    0.00    1.90
  -3   9  -3   46.60    4.80
   9  -6  -3   43.80    3.80
  -6  -3  -3   44.60    3.30
  -3   9  -3   46.00    3.60
   6   3   3   49.80    3.70
   8  -6  -3    2.80    2.00
  -6  -2  -3    1.60    1.40
  -2   8  -3    3.80    1.40
  -2   8  -3    3.00    2.20
   6   2   3    3.40    1.50
  -6  -1  -3   42.30    3.00
  -1   7  -3   43.60    2.50
   7  -6  -3   44.30    3.60
  -1   7  -3   34.10    3.60
   6   1   3   42.00    3.10
  -7   6   3   39.30    2.90
  -6   0  -3   79.99    4.00
  -6   0  -3   78.09    3.80
   6  -6  -3   83.79    5.00
   0   6  -3   75.89    4.50
  -6   6   3   81.99    4.00
   6   0   3   85.89    4.30
  -6   1  -3   76.39    4.00
   1   5  -3   81.89    4.30
   5  -6  -3   76.49    4.60
  -6   1  -3   83.89    3.80
   6  -1   3   86.39    4.40
  -5   6   3   85.09    4.00
   2   4  -3    3.90    1.30
   4  -6  -3    5.80    1.70
  -6   2  -3    3.80    1.20
  -6   2  -3    7.00    1.50
   6  -2   3    7.80    1.70
  -4   6   3    5.40    1.30
   3  -6  -3  262.17   10.30
  -6   3  -3  277.97   10.50
  -6   3  -3  279.07   10.20
  -6   3  -3  269.97   11.20
  -3   6   3  271.77   10.10
   6  -3   3  259.77   10.60
  -6   4  -3    3.70    1.60
  -6   4  -3    4.60    2.60
  -6   4  -3    2.80    1.30
   2  -6  -3    7.20    1.50
   6  -4   3    4.50    1.70
  -4  -2   3    4.60    1.00
  -2   6   3    5.40    1.20
   1  -6  -3   50.79    3.00
  -6   5  -3   56.49    3.10
  -6   5  -3   53.69    3.60
  -6   5  -3   32.50    4.50
  -1   6   3   53.09    2.80
  -5  -1   3   47.00    2.60
   6  -5   3   34.60    3.30
  -6   6  -3   94.29    5.30
  -6   6  -3  110.39    5.10
  -6   6  -3  108.19    4.60
   6   0  -3  108.59    4.80
   0   6   3  109.09    4.70
   7  -1  -3   75.59    4.00
  -1  -6  -3   71.89    3.60
  -6   7  -3   56.39    6.30
  -6   7  -3   76.99    4.20
   1   6   3   81.09    3.80
  -6   8  -3    2.50    1.70
  -6   8  -3    3.60    3.60
   8  -2  -3   -1.50    1.50
   2   6   3    0.90    1.40
  -6   9  -3   82.79    8.10
  -6   9  -3   91.09    5.20
   9  -3  -3   95.39    5.30
   3   6   3   96.99    4.90
  10  -4  -3    1.80    2.20
  -6  10  -3    3.20    2.20
  -6  10  -3    4.60    4.10
   4   6   3    2.50    1.90
  11  -5  -3    6.50    2.60
  -6  11  -3    6.40    2.70
  -6  11  -3    3.00    4.10
   5   6   3   10.40    2.50
  -4  11  -3   35.70    3.50
  -4  11  -3   20.70    4.20
  11  -7  -3   29.10    3.70
   7   4   3   35.30    3.50
  -7  -3  -3   11.60    2.10
  -3  10  -3   13.00    2.40
  -3  10  -3   11.60    3.30
  10  -7  -3   22.40    3.20
   7   3   3    9.00    2.40
  -7  -2  -3    3.90    1.80
  -2   9  -3   12.70    2.00
  -2   9  -3   11.40    3.00
   9  -7  -3    8.60    2.40
   7   2   3   11.10    2.20
  -1   8  -3   82.19    5.60
  -7  -1  -3   88.39    4.60
   8  -7  -3   91.19    5.50
  -8   7   3   86.99    4.70
   7   1   3   88.19    4.90
   0   7  -3   59.49    4.40
   7  -7  -3   63.29    4.70
  -7   0  -3   62.39    3.80
   7   0   3   60.19    4.00
  -7   7   3   55.49    3.60
   6  -7  -3   42.00    3.60
  -7   1  -3   41.10    3.10
  -7   1  -3   40.30    2.90
   7  -1   3   42.80    3.20
  -6   7   3   40.50    3.10
  -7   2  -3  144.49    6.70
   5  -7  -3  163.18    7.20
  -7   2  -3  150.18    6.30
   7  -2   3  159.98    7.10
  -5   7   3  150.08    6.50
   4  -7  -3   43.00    3.30
  -7   3  -3   43.40    3.00
  -7   3  -3   49.40    2.90
  -7   3  -3   39.80    3.20
  -4   7   3   45.80    3.00
   7  -3   3   44.60    3.50
  -7   4  -3   30.50    2.50
   3  -7  -3   35.00    2.80
  -7   4  -3   27.70    4.00
  -7   4  -3   35.50    3.10
  -3   7   3   34.80    2.60
   7  -4   3   34.50    3.10
   2  -7  -3   44.30    3.40
  -7   5  -3   49.30    3.90
  -7   5  -3   54.99    3.40
   7  -5   3   45.10    3.90
  -2   7   3   49.50    3.00
  -7   6  -3   73.09    4.70
  -7   6  -3   78.79    4.20
   7  -6   3   57.39    4.80
  -1   7   3   82.19    3.90
  -6  -1   3   76.59    3.70
   7   0  -3   27.40    2.30
  -7   7  -3   15.80    4.60
  -7   7  -3   31.40    3.10
  -7   7  -3   29.20    2.70
  -7   0   3   25.90    2.40
   7  -7   3   25.60    3.10
   0   7   3   30.80    2.40
   8  -1  -3  137.89    6.10
  -7   8  -3  109.69    9.40
  -7   8  -3  135.59    6.30
  -8   1   3  134.09    6.10
   1   7   3  128.39    5.90
   9  -2  -3    8.00    2.10
  -7   9  -3    5.80    4.10
  -7   9  -3   10.70    2.30
  -9   2   3    9.00    2.20
   2   7   3    9.60    2.00
  10  -3  -3    7.50    2.30
  -7  10  -3    7.60    2.30
  -7  10  -3    7.00    4.40
 -10   3   3   13.10    2.50
   3   7   3    9.50    2.30
  -7  11  -3   10.90    5.00
  11  -4  -3   21.20    3.10
  -7  11  -3   12.60    2.90
   4   7   3   13.50    2.70
  10  -8  -3    5.00    2.60
  -8  -2  -3   -0.30    1.80
   8   2   3    1.70    2.20
  -8  -1  -3   13.00    2.20
   9  -8  -3    7.40    2.70
   8   1   3   12.70    2.40
  -8   0  -3    2.30    1.70
   8  -8  -3   -3.80    2.10
   8   0   3    1.40    1.90
  -8   8   3    1.30    1.70
   7  -8  -3   83.79    5.70
  -8   1  -3   90.29    4.90
   8  -1   3   92.29    5.30
  -7   8   3   90.09    4.90
   6  -8  -3    2.50    2.30
  -8   2  -3    2.80    1.80
  -8   2  -3    2.90    1.80
  -6   8   3    2.10    1.70
   8  -2   3    0.10    2.00
  -8   3  -3   32.80    3.10
   5  -8  -3   28.70    3.30
  -8   3  -3   35.00    2.70
   8  -3   3   30.40    3.30
  -5   8   3   37.50    2.80
   4  -8  -3   32.40    3.30
  -8   4  -3   33.50    2.70
  -8   4  -3   35.90    2.80
  -8   4  -3   37.60    3.40
   8  -4   3   29.10    3.30
  -4   8   3   31.30    2.60
   3  -8  -3   50.49    3.80
  -8   5  -3   46.60    3.50
  -8   5  -3   50.89    3.90
  -8   5  -3   42.40    5.20
  -3   8   3   47.80    3.20
   8  -5   3   53.49    4.20
  -8   6  -3   -1.10    3.50
  -8   6  -3   -1.30    2.00
  -8   6  -3   -0.60    1.60
   8  -6   3    2.10    2.40
  -2   8   3    1.90    1.40
  -8   7  -3   93.19    9.00
  -8   7  -3  124.09    6.10
  -8   7  -3  122.39    6.50
  -1   8   3  128.19    5.60
   8  -7   3  134.29    6.90
  -8   8  -3   -1.20    4.00
   8   0  -3    1.60    1.60
  -8   8  -3   -1.10    1.80
  -8   0   3    0.70    1.60
   0   8   3    4.80    1.70
  -8   9  -3   12.00    2.40
  -8   9  -3   10.00    4.50
   9  -1  -3    9.10    2.10
   1   8   3   11.40    2.10
  -9   1   3   11.30    2.20
  10  -2  -3    1.20    2.00
  -8  10  -3    2.60    2.40
  -8  10  -3   -4.10    3.90
   2   8   3    2.90    2.10
 -10   2   3    1.50    2.00
  10  -9  -3   12.90    3.10
  -9  -1  -3    7.50    3.50
   9   1   3    8.70    2.60
  -9   0  -3   32.80    3.30
   9  -9  -3   41.40    4.10
   9   0   3   44.40    3.90
  -9   9   3   38.80    3.50
  -9   1  -3    7.90    2.20
   8  -9  -3   10.10    2.80
  -8   9   3   13.10    2.40
   9  -1   3   10.80    2.60
   7  -9  -3   12.80    2.90
  -9   2  -3    9.30    2.20
  -7   9   3    7.60    2.10
   9  -2   3   10.90    2.70
  -9   3  -3   49.20    3.90
   6  -9  -3   46.40    4.10
   9  -3   3   44.30    4.10
  -6   9   3   43.90    3.40
  -9   4  -3   38.90    3.10
  -9   4  -3   41.80    3.60
   5  -9  -3   46.30    4.00
   9  -4   3   33.40    3.80
  -5   9   3   38.90    3.20
  -9   5  -3   22.30    2.50
  -9   5  -3   18.90    3.00
  -4   9   3   20.90    2.40
   9  -5   3   23.00    3.30
  -9   6  -3  100.49    5.80
  -9   6  -3   93.69    5.10
  -3   9   3   84.49    7.20
  -3   9   3   86.89    4.80
   9  -6   3   99.99    6.20
  -9   7  -3    9.20    2.60
  -9   7  -3    7.00    4.40
  -9   7  -3    8.20    2.10
  -2   9   3    9.90    2.00
   9  -7   3   15.40    3.10
  -9   8  -3   10.10    2.30
  -9   8  -3    5.00    4.40
  -1   9   3   10.80    2.00
  -9   9  -3   15.20    2.80
  -9   9  -3   18.50    5.20
   0   9   3   13.30    2.30
  10  -1  -3   17.20    2.70
  -9  10  -3   15.40    5.20
  -9  10  -3   15.50    3.00
   1   9   3   17.80    2.70
   9 -10  -3   14.40    3.20
  -9  10   3   12.80    2.80
  10  -1   3   13.30    2.90
 -10   2  -3    2.20    2.20
   8 -10  -3    2.20    2.60
  10  -2   3    2.10    2.50
  -8  10   3    1.10    2.20
 -10   3  -3   10.30    2.50
   7 -10  -3   11.70    3.00
  10  -3   3   11.30    3.00
  -7  10   3   13.70    2.70
 -10   4  -3    1.40    2.30
  10  -4   3    1.10    2.60
  -6  10   3    0.60    1.90
 -10   5  -3   73.49    4.90
 -10   5  -3   68.89    5.20
 -10   5  -3   64.99    4.50
  10  -5   3   85.69    6.20
  -5  10   3   73.49    4.80
 -10   6  -3    3.40    2.50
 -10   6  -3    1.50    2.00
  10  -6   3    5.40    2.90
  -4  10   3   -1.20    3.30
  -4  10   3    3.60    1.90
 -10   7  -3   11.20    2.40
 -10   7  -3   11.70    2.90
  10  -7   3   17.60    3.30
  -3  10   3    9.00    2.20
 -10   8  -3    3.50    2.00
 -10   8  -3    1.20    4.20
 -10   8  -3    2.90    2.60
  10  -8   3    3.00    2.60
  -2  10   3    0.50    1.80
 -10   9  -3   13.80    2.80
 -10   9  -3   18.10    5.20
  -1  10   3   18.50    2.70
  -7  11   3   33.30    3.70
  11  -4   3   34.60    4.30
  11  -5   3    6.70    3.10
  -6  11   3    2.80    2.30
  -6  11   3    3.70    4.20
  -5  11   3   10.10    4.40
  11  -6   3    5.20    3.10
  -5  11   3    4.60    2.30
 -11   7  -3   14.70    2.60
  11  -7   3   17.80    3.60
  -4  11   3    8.10    2.40
   0   0  -4  225.78    8.00
   0   0  -4  222.58    8.00
   1  -1  -4  276.47    9.50
  -1   0  -4  266.27    9.40
   0   1  -4  264.57    9.30
   1  -1  -4  255.07    9.30
  -1   0  -4  251.87    9.40
   0   1  -4  273.67    9.50
  -1   1  -4 1164.58   38.20
  -1   1  -4 1067.69   38.30
   0  -1  -4 1074.39   38.20
   1   0  -4 1097.79   38.70
   1   0  -4 1149.48   38.20
   0  -1  -4 1095.99   38.20
  -1  -1  -4    1.60    0.70
  -1   2  -4    3.30    0.60
  -1   2  -4    3.00    1.10
  -1  -1  -4    1.90    0.70
  -1   2  -4    3.80    0.80
   1   1   4    2.40    0.70
  -2  -1  -4  161.88    6.20
  -1   3  -4  166.88    6.20
  -1   3  -4  162.98    6.70
   3  -2  -4  163.68    6.10
  -2  -1  -4  166.48    6.20
   2   1   4  158.38    6.20
   0   2  -4 6346.77  220.88
  -2   0  -4 6367.16  220.58
   2  -2  -4 6575.24  220.38
  -2   0  -4 6363.56  220.38
   2   0   4 6557.14  220.58
  -2   1  -4    1.60    0.70
  -2   1  -4    2.00    0.70
  -2   1  -4    2.30    0.80
   1   1  -4    3.00    1.00
   1  -2  -4    3.00    0.70
   2   0  -4  954.60   33.90
   0  -2  -4  968.20   33.40
  -2   2  -4  954.90   33.50
  -2   2  -4  952.50   33.80
  -2   2  -4  989.70   33.30
  -2   2  -4  936.11   33.40
   0  -2  -4  990.90   33.40
   0   2   4  973.50   33.40
   3  -1  -4  488.85   16.70
  -2   3  -4  477.75   17.40
  -1  -2  -4  482.05   16.90
  -1  -2  -4  473.15   16.90
  -2   3  -4  474.15   16.70
  -2   3  -4  467.25   16.80
  -2   3  -4  489.35   17.00
   1   2   4  487.75   16.90
  -2  -2  -4  131.49    5.40
  -2   4  -4  141.49    6.10
  -2   4  -4  135.99    5.00
   4  -2  -4  139.09    5.30
  -2   4  -4  140.99    5.20
  -2  -2  -4  139.09    5.40
  -2   4  -4  129.29    5.40
   2   2   4  139.39    5.40
  -2   5  -4  110.99    5.50
   5  -3  -4  115.89    4.90
  -3  -2  -4  109.79    4.70
  -3  -2  -4  116.29    4.70
  -2   5  -4  113.79    4.50
   3   2   4  109.89    4.70
   4  -3  -4  427.76   15.10
  -1   4  -4  406.86   15.60
  -3  -1  -4  416.06   15.10
  -3  -1  -4  423.76   15.10
  -1   4  -4  424.16   14.70
   3   1   4  417.46   15.10
  -4   3   4  438.26   14.90
  -3   0  -4    2.30    0.80
   0   3  -4    4.20    1.20
  -3   0  -4    4.40    0.90
   3  -3  -4    3.20    0.90
  -3   3   4    3.30    0.80
   3   0   4    1.90    0.80
  -3   1  -4  150.78    6.10
   2  -3  -4  171.28    6.20
  -3   1  -4  163.08    6.10
   1   2  -4  163.28    6.60
  -3   1  -4  164.58    6.20
  -2   3   4  161.58    6.10
   3  -1   4  166.88    6.10
   2   1  -4  471.95   17.20
  -3   2  -4  467.45   16.80
   1  -3  -4  479.65   16.80
  -3   2  -4  469.35   17.20
  -3   2  -4  482.05   16.80
  -1   3   4  487.05   16.80
   3  -2   4  482.75   16.80
  -3   3  -4    7.30    1.00
   0  -3  -4    8.20    1.00
  -3   3  -4    6.60    1.40
   0  -3  -4    6.50    1.00
  -3   3  -4    7.90    0.90
  -3   3  -4    4.60    1.00
   0   3   4    6.10    0.90
  -3   4  -4  144.79    6.20
  -1  -3  -4  136.09    5.40
  -3   4  -4  132.39    5.40
  -3   4  -4  132.79    5.30
  -1  -3  -4  135.89    5.40
   4  -1  -4  135.89    5.20
  -3   4  -4  138.09    5.20
   1   3   4  136.79    5.40
   5  -2  -4  548.35   19.30
  -3   5  -4  535.85   19.10
  -3   5  -4  547.15   20.20
  -2  -3  -4  543.05   19.20
  -2  -3  -4  539.05   19.20
  -3   5  -4  536.25   19.20
   2   3   4  537.05   19.20
  -3   6  -4    4.50    2.10
  -3   6  -4    2.50    1.10
  -3  -3  -4    2.50    1.20
   6  -3  -4    6.30    1.70
  -3  -3  -4    1.60    1.10
   3   3   4    4.00    1.20
   7  -4  -4   48.70    3.90
  -4  -3  -4   52.69    3.00
  -3   7  -4   53.49    4.70
  -3   7  -4   53.09    3.00
   4   3   4   48.30    3.20
  -2   6  -4 1487.25   51.99
  -2   6  -4 1480.05   50.69
  -4  -2  -4 1462.25   50.79
  -4  -2  -4 1470.65   50.89
   6  -4  -4 1399.76   51.29
   4   2   4 1500.15   50.99
  -4  -1  -4    8.00    1.20
  -4  -1  -4    6.40    1.20
   5  -4  -4   10.50    1.60
  -1   5  -4   10.40    1.00
  -1   5  -4    9.80    1.80
   4   1   4    8.00    1.30
  -5   4   4    9.30    1.20
  -4   0  -4  534.75   18.80
   0   4  -4  521.05   19.30
   4  -4  -4  516.25   18.80
  -4   0  -4  545.35   18.70
  -4   4   4  525.55   18.70
   4   0   4  524.15   18.80
   1   3  -4  415.26   15.30
  -4   1  -4  408.26   14.80
   3  -4  -4  393.86   14.80
  -4   1  -4  411.26   14.80
   4  -1   4  431.16   14.90
  -3   4   4  424.86   14.80
  -4   2  -4  134.19    5.40
  -4   2  -4  133.79    5.60
   2  -4  -4  134.59    5.40
  -4   2  -4  139.59    5.40
   2   2  -4  129.79    5.60
  -2   4   4  137.69    5.30
   4  -2   4  135.29    5.40
  -4   3  -4  139.99    6.10
  -4   3  -4  142.49    5.50
  -4   3  -4  138.99    5.50
   1  -4  -4  137.59    5.50
   3   1  -4  130.19    5.80
  -1   4   4  134.19    5.40
   4  -3   4  144.49    5.50
  -4   4  -4 3090.89  105.79
  -4   4  -4 3088.69  105.79
   0  -4  -4 3026.30  105.79
   0  -4  -4 3111.79  105.69
  -4   4  -4 3144.29  106.79
   4   0  -4 2942.91  105.49
  -4   4  -4 3168.18  105.79
   4  -4   4 3079.09  105.79
   0   4   4 3050.49  105.69
  -4   5  -4    2.70    1.10
  -1  -4  -4    0.10    1.00
  -1  -4  -4    3.00    1.00
   5  -1  -4    1.20    1.10
  -4   5  -4    0.50    1.80
  -4   5  -4    2.00    1.00
  -4   5  -4    1.10    1.00
   1   4   4    1.00    0.90
  -2  -4  -4  302.57   11.10
  -4   6  -4  285.27   11.00
  -2  -4  -4  300.07   11.00
  -4   6  -4  307.57   11.10
  -4   6  -4  307.37   12.90
   6  -2  -4  296.47   11.40
   2   4   4  295.57   11.10
  -4   7  -4  111.89    6.90
  -3  -4  -4   97.59    4.50
  -4   7  -4  102.99    4.70
   7  -3  -4   97.69    5.10
   3   4   4   97.09    4.60
   8  -4  -4   50.89    4.00
  -4  -4  -4   54.99    3.30
  -4   8  -4   52.29    5.30
  -4   8  -4   53.99    3.50
   4   4   4   46.40    3.40
  -4   9  -4   30.70    2.70
  -4   9  -4   21.40    4.10
  -5  -4  -4   23.00    2.40
   9  -5  -4   24.10    3.00
   5   4   4   28.80    2.70
  -3   8  -4   59.79    5.20
   8  -5  -4   73.19    4.80
  -5  -3  -4   61.79    3.70
  -3   8  -4   72.09    3.80
   5   3   4   62.69    3.90
   7  -5  -4   -1.40    1.80
  -5  -2  -4    3.30    1.40
  -2   7  -4    2.60    2.00
  -2   7  -4   -0.90    1.00
   5   2   4    0.60    1.30
   6  -5  -4   67.79    4.20
  -1   6  -4   61.59    4.20
  -5  -1  -4   64.19    3.40
  -5  -1  -4   65.09    3.40
   5   1   4   67.19    3.60
  -6   5   4   63.19    3.30
   0   5  -4  198.98    8.30
  -5   0  -4  197.78    7.60
  -5   0  -4  189.88    7.60
   5  -5  -4  192.88    8.00
  -5   5   4  195.18    7.60
   5   0   4  203.38    7.80
   4  -5  -4    7.60    1.50
   1   4  -4    9.60    1.60
  -5   1  -4    8.70    1.30
  -5   1  -4    7.80    1.40
   5  -1   4    9.90    1.50
  -4   5   4    7.60    1.20
  -5   2  -4  122.29    5.00
   2   3  -4  113.09    5.20
  -5   2  -4  114.19    4.80
  -5   2  -4  112.19    4.80
  -5   2  -4  117.39    5.10
   3  -5  -4  112.99    5.00
   5  -2   4  117.29    5.10
  -3   5   4  115.99    4.80
   2  -5  -4  527.05   19.20
  -5   3  -4  553.84   19.90
  -5   3  -4  541.25   19.30
   3   2  -4  507.75   19.50
  -5   3  -4  550.44   19.40
   5  -3   4  562.14   19.50
  -2   5   4  539.65   19.10
  -5   4  -4    1.10    1.20
  -5   4  -4    0.30    1.80
  -5   4  -4    2.00    1.20
   1  -5  -4    0.50    1.10
   5  -4   4   -0.10    1.30
  -1   5   4    0.20    0.90
  -5   5  -4   76.19    5.30
   0  -5  -4   72.19    3.60
  -5   5  -4   72.89    3.50
  -5   5  -4   75.89    3.70
   0  -5  -4   71.19    3.40
  -5   5  -4   75.39    3.90
   5   0  -4   73.29    3.90
   0   5   4   70.89    3.50
   5  -5   4   72.29    3.90
  -5   6  -4  103.69    6.90
   6  -1  -4  104.99    4.90
  -5   6  -4  104.99    4.70
  -1  -5  -4  111.29    4.60
  -5   6  -4  110.79    4.90
  -1  -5  -4  106.29    4.70
   1   5   4  105.99    4.70
  -2  -5  -4   21.00    1.90
   7  -2  -4   20.70    2.30
  -5   7  -4   18.00    2.10
  -5   7  -4   19.30    3.90
   2   5   4   22.30    2.10
   8  -3  -4   35.00    3.10
  -5   8  -4   29.80    4.70
  -5   8  -4   34.30    2.80
  -3  -5  -4   35.80    2.60
   3   5   4   34.60    2.90
  -5   9  -4  114.09    8.40
  -5   9  -4  119.39    6.00
   9  -4  -4  128.99    6.30
  -4  -5  -4  127.39    5.70
   4   5   4  117.79    5.90
  -5  10  -4    3.90    3.50
  10  -5  -4    4.00    2.40
  -5  10  -4    4.00    2.20
   5   5   4    5.20    2.20
  -5  11  -4    5.00    3.80
  -5  11  -4   13.60    2.90
  11  -6  -4    7.20    2.70
   6   5   4   11.20    2.60
  10  -6  -4  153.48    7.90
  -4  10  -4  158.78    9.60
  -4  10  -4  168.78    7.40
  -6  -4  -4  161.88    7.10
   6   4   4  152.08    7.50
  -3   9  -4   12.80    2.00
   9  -6  -4    7.90    2.50
  -3   9  -4   12.50    3.50
  -6  -3  -4    7.20    1.80
   6   3   4    8.60    2.10
   8  -6  -4  111.49    6.40
  -6  -2  -4  113.49    5.50
  -2   8  -4  116.09    6.80
   6   2   4  122.69    5.70
   7  -6  -4  135.59    7.20
  -6  -1  -4  144.89    6.20
  -1   7  -4  148.19    7.30
  -7   6   4  152.58    7.60
   6   1   4  142.69    6.40
   6  -6  -4   58.69    4.50
  -6   0  -4   74.19    3.60
  -6   0  -4   65.79    3.70
   0   6  -4   64.89    4.30
   6   0   4   66.29    3.90
  -6   6   4   66.39    3.60
   1   5  -4   65.79    4.10
  -6   1  -4   66.09    3.50
  -6   1  -4   66.79    3.70
   5  -6  -4   70.09    4.20
   6  -1   4   66.49    3.90
  -5   6   4   62.09    3.50
  -6   2  -4 1442.56   52.29
   4  -6  -4 1478.95   52.49
   2   4  -4 1505.05   52.79
  -6   2  -4 1501.55   52.49
  -4   6   4 1531.35   52.29
   6  -2   4 1577.74   52.69
   3   3  -4    3.90    1.40
  -6   3  -4    5.10    1.80
  -6   3  -4    5.10    1.60
   3  -6  -4    2.80    1.50
  -6   3  -4    3.20    1.30
  -3   6   4    2.00    1.20
   6  -3   4    3.80    1.60
   2  -6  -4  301.07   11.30
   4   2  -4  298.47   11.50
  -6   4  -4  300.57   11.50
  -6   4  -4  305.67   11.30
  -6   4  -4  300.07   12.50
   6  -4   4  279.97   11.60
  -2   6   4  305.37   11.10
   1  -6  -4  113.99    4.90
  -6   5  -4  119.19    5.10
  -6   5  -4   98.99    5.20
  -6   5  -4   99.69    6.70
  -1   6   4  108.09    4.70
   6  -5   4   90.39    5.30
  -6   6  -4   65.09    3.50
  -6   6  -4   72.89    3.90
  -6   6  -4   52.99    4.10
  -6   6  -4   60.79    6.20
   0  -6  -4   72.89    3.80
   0   6   4   73.69    3.60
   7  -1  -4   37.70    2.80
  -1  -6  -4   37.50    2.70
  -6   7  -4   43.10    3.40
  -6   7  -4   27.00    4.60
   1   6   4   48.80    3.00
   8  -2  -4  497.75   18.10
  -6   8  -4  515.35   18.10
  -6   8  -4  419.06   20.60
  -2  -6  -4  504.65   17.80
   2   6   4  496.55   18.00
   9  -3  -4    3.70    2.00
  -6   9  -4    1.90    1.90
  -6   9  -4    5.70    4.00
   3   6   4    1.30    1.70
  -6  10  -4   43.30    3.70
  10  -4  -4   39.10    3.70
  -6  10  -4   37.70    5.90
   4   6   4   45.80    3.60
  -6  11  -4   20.30    3.20
  -6  11  -4    8.90    4.30
  11  -5  -4   12.50    2.90
   5   6   4   18.00    2.90
  -3  10  -4   10.80    3.60
  -3  10  -4    7.00    2.60
  -7  -3  -4   14.70    2.30
  10  -7  -4   12.10    2.80
   7   3   4    9.20    2.40
  -7  -2  -4   39.30    3.20
  -2   9  -4   46.90    4.70
   9  -7  -4   49.10    4.10
   7   2   4   42.00    3.50
  -7  -1  -4    5.90    1.70
   8  -7  -4    7.70    2.60
  -1   8  -4    4.90    2.50
   7   1   4    3.70    1.90
   0   7  -4   44.10    4.10
   7  -7  -4   40.40    3.90
  -7   0  -4   47.40    3.40
   7   0   4   41.20    3.40
  -7   7   4   47.90    3.30
   6  -7  -4  155.98    7.40
   1   6  -4  151.48    7.20
  -7   1  -4  146.39    6.70
  -7   1  -4  152.98    6.40
   7  -1   4  153.58    7.00
  -6   7   4  149.69    6.50
  -7   2  -4    0.30    1.30
  -7   2  -4    3.20    1.60
   5  -7  -4    1.60    1.90
  -5   7   4   -0.50    1.30
   7  -2   4    1.40    1.80
  -7   3  -4   49.80    3.40
   4  -7  -4   54.89    3.90
  -7   3  -4   59.69    3.40
  -7   3  -4   48.90    3.80
  -4   7   4   59.79    3.40
   7  -3   4   52.09    3.90
   3  -7  -4  109.09    5.20
  -7   4  -4  102.89    4.80
  -7   4  -4  100.99    6.80
  -7   4  -4   97.09    5.30
  -3   7   4  100.99    4.70
   7  -4   4   86.79    5.60
   2  -7  -4   18.60    2.30
  -7   5  -4   19.50    2.60
  -7   5  -4   22.50    3.80
  -7   5  -4   13.30    1.90
  -2   7   4   16.20    1.80
   7  -5   4   14.40    2.60
  -7   6  -4   40.50    3.60
  -7   6  -4   41.10    3.20
   1  -7  -4   47.30    3.50
  -7   6  -4   49.50    3.00
  -1   7   4   47.60    3.10
  -7   7  -4  211.58    9.00
  -7   0   4  220.08    8.70
   0   7   4  223.48    8.70
  -7   8  -4   -0.30    3.90
   8  -1  -4    3.80    1.70
  -7   8  -4    5.00    2.00
   1   7   4    4.10    1.70
   9  -2  -4   18.20    2.50
  -7   9  -4   15.10    2.50
  -7   9  -4    6.10    4.50
   2   7   4   19.40    2.40
  10  -3  -4   11.90    2.60
  -7  10  -4    7.20    4.50
  -7  10  -4   17.90    2.90
   3   7   4   17.40    2.70
  -2  10  -4   13.70    3.60
  -8  -2  -4   16.50    2.50
  10  -8  -4   10.80    3.00
   8   2   4   14.20    2.80
   9  -8  -4   17.70    3.10
  -8  -1  -4   14.00    2.30
   8   1   4   16.00    2.70
  -8   0  -4  248.58   10.10
   8  -8  -4  247.98   11.00
  -8   8   4  247.48   10.00
   8   0   4  239.78   10.30
   7  -8  -4    4.90    2.80
  -8   1  -4    7.20    2.00
  -7   8   4    8.10    2.00
   8  -1   4    8.40    2.30
  -8   2  -4  117.89    5.80
   6  -8  -4  112.39    6.60
  -8   2  -4  112.59    5.40
  -6   8   4  110.79    5.50
   8  -2   4  119.19    6.30
  -8   3  -4   70.59    4.10
  -8   3  -4   63.99    4.40
   5  -8  -4   69.29    5.10
   8  -3   4   68.49    5.10
  -5   8   4   64.59    4.10
  -8   4  -4   48.40    3.60
  -8   4  -4   53.19    3.50
  -8   4  -4   52.29    4.00
   4  -8  -4   49.90    3.90
   8  -4   4   42.40    4.00
  -4   8   4   46.30    3.40
   3  -8  -4   33.50    3.10
  -8   5  -4   28.40    3.30
  -8   5  -4   30.30    2.80
   8  -5   4   29.90    3.60
  -3   8   4   31.50    2.60
  -8   6  -4  446.56   17.30
  -8   6  -4  510.35   17.00
   8  -6   4  367.26   17.30
  -2   8   4  473.75   16.70
  -8   7  -4    1.30    2.50
  -8   7  -4    1.70    4.00
  -8   7  -4    4.10    1.90
  -1   8   4    3.80    1.60
  -8   8  -4   71.49    4.40
  -8   8  -4   39.40    6.20
   0   8   4   57.39    3.90
  -8   9  -4   10.90    4.90
  -8   9  -4   23.80    3.00
   1   8   4   17.10    2.40
  -9   1   4   22.90    2.70
  -8  10  -4   18.40    3.20
  10  -2  -4   23.00    2.90
  -8  10  -4   15.80    5.40
 -10   2   4   25.30    3.00
   2   8   4   25.30    3.00
  10  -9  -4   23.90    3.70
   9   1   4   23.20    3.30
  -9   0  -4    2.60    2.00
   9  -9  -4   -0.30    2.60
   9   0   4    1.90    2.30
   8  -9  -4   10.90    3.10
  -9   1  -4   13.60    2.50
   9  -1   4   19.50    3.10
  -8   9   4   15.20    2.50
   7  -9  -4   50.49    4.60
  -9   2  -4   43.40    3.80
   9  -2   4   51.59    4.30
  -7   9   4   52.19    4.10
   6  -9  -4   14.90    3.20
  -9   3  -4   10.10    2.10
  -9   3  -4   13.60    2.60
   9  -3   4   13.00    3.00
  -6   9   4   12.80    2.20
  -9   4  -4   29.30    3.40
  -9   4  -4   31.10    2.90
   5  -9  -4   30.50    3.70
  -5   9   4   32.20    2.90
   9  -4   4   26.20    3.60
  -9   5  -4  132.69    6.40
  -9   5  -4  123.69    6.80
  -9   5  -4  124.99    6.20
   4  -9  -4  141.59    9.30
  -4   9   4  126.19    6.10
   9  -5   4  128.99    7.40
  -9   6  -4   -1.00    2.40
  -9   6  -4    2.80    1.90
  -3   9   4    3.10    1.80
   9  -6   4   -0.60    2.60
  -9   7  -4   11.80    4.50
  -9   7  -4   16.50    2.50
  -9   7  -4   16.50    3.10
  -2   9   4   17.00    2.30
   9  -7   4   19.00    3.30
  -9   8  -4    9.70    4.70
  -9   8  -4   21.40    2.80
  -1   9   4   15.60    2.30
  -9   9  -4   15.80    2.70
  -9   9  -4    4.30    4.80
   0   9   4   12.00    2.30
  -9  10  -4    2.80    4.80
  -9  10  -4    5.40    2.60
   1   9   4    5.10    2.30
   9 -10  -4   19.70    3.60
  10  -1   4   24.10    3.60
   8 -10  -4   13.40    3.40
  -8  10   4   18.30    2.90
  10  -2   4   16.80    3.20
 -10   3  -4   13.00    2.90
   7 -10  -4   14.40    3.30
  10  -3   4   12.30    3.20
  -7  10   4   19.10    2.90
 -10   4  -4  168.38    8.30
   6 -10  -4  155.48    9.50
  -6  10   4  168.58    7.90
  10  -4   4  180.88    9.10
 -10   5  -4    3.40    2.50
 -10   5  -4    5.90    2.30
  10  -5   4    1.70    3.00
  -5  10   4    2.50    2.10
 -10   6  -4   39.90    4.10
 -10   6  -4   41.50    3.60
 -10   6  -4   46.10    3.80
  10  -6   4   51.89    4.80
  -4  10   4   46.80    3.70
 -10   7  -4    8.60    2.90
 -10   7  -4   12.20    2.50
  -3  10   4   17.80    2.50
  10  -7   4   23.30    3.70
 -10   8  -4   18.80    5.20
 -10   8  -4   13.40    2.60
  -2  10   4   15.40    2.50
 -10   9  -4    3.30    4.90
 -10   9  -4    6.40    2.40
  -1  10   4    6.60    2.30
  -6  11   4   11.70    2.80
  11  -5   4   12.50    3.60
 -11   6  -4   19.80    4.00
  -5  11   4   10.70    4.40
  -5  11   4   17.60    3.00
  11  -6   4   28.40    4.10
   0   0  -5    7.90    1.30
   0   0  -5    6.40    0.80
   0   0  -5    8.40    0.90
   0   0  -5    7.90    0.90
   1  -1  -5  519.05   18.40
  -1   0  -5  513.25   18.90
   0   1  -5  528.55   18.40
  -1   0  -5  503.95   18.50
   0   1  -5  542.65   18.50
   1  -1  -5  546.85   18.40
   0   1  -5  545.55   19.00
  -1   0  -5  527.45   18.50
  -1   1  -5  436.96   15.00
  -1   1  -5  425.76   15.50
  -1   1  -5  407.56   15.10
   1   0  -5  434.76   15.10
   0  -1  -5  450.35   15.10
   0  -1  -5  395.26   15.10
   1   0  -5  417.76   15.60
  -1   1  -5  460.95   15.00
  -1   1  -5  419.76   15.00
  -1   2  -5  180.28    6.70
  -1   2  -5  183.98    6.50
  -1  -1  -5  170.98    6.70
  -1  -1  -5  179.58    6.70
  -1   2  -5  180.78    7.20
  -1   2  -5  175.08    6.50
   2  -1  -5  179.58    6.50
   1   1   5  177.38    6.60
  -2  -1  -5  225.18    8.50
  -1   3  -5  230.28    9.10
  -1   3  -5  226.18    8.20
   3  -2  -5  239.98    8.40
  -1   3  -5  226.28    8.10
  -2  -1  -5  230.88    8.50
  -1   3  -5  228.48    8.60
   2   1   5  236.08    8.50
   0   2  -5   51.39    3.00
   2  -2  -5   48.60    2.10
  -2   0  -5   49.00    2.50
   2  -2  -5   52.69    2.40
  -2   0  -5   48.70    2.40
   2   0   5   48.80    2.30
  -2   1  -5  169.68    6.40
   1   1  -5  165.98    6.90
  -2   1  -5  179.08    6.40
  -2   1  -5  172.88    6.80
  -2   1  -5  173.18    6.40
   1  -2  -5  177.48    6.40
  -1   2   5  164.28    6.30
   0  -2  -5  777.72   26.80
  -2   2  -5  762.42   27.20
   0  -2  -5  778.62   26.80
  -2   2  -5  733.73   26.70
   2   0  -5  796.52   27.40
  -2   2  -5  785.12   26.60
  -2   2  -5  760.42   26.80
   0   2   5  747.93   26.70
  -2   3  -5  311.37   11.30
   3  -1  -5  326.67   11.00
  -2   3  -5  291.87   11.00
  -1  -2  -5  310.77   11.20
  -2   3  -5  308.17   10.90
  -2   3  -5  309.17   11.80
  -1  -2  -5  305.37   11.20
   1   2   5  308.87   11.20
   4  -2  -5    3.80    0.90
  -2   4  -5    4.10    0.90
  -2   4  -5    5.20    1.50
  -2  -2  -5    4.40    1.10
  -2  -2  -5    3.80    1.00
  -2   4  -5    3.20    1.00
   2   2   5    5.40    1.00
  -3  -2  -5  301.37   11.10
  -2   5  -5  291.17   10.80
  -3  -2  -5  308.07   11.10
  -2   5  -5  300.37   12.00
   5  -3  -5  299.47   11.10
   3   2   5  294.47   11.10
  -3  -1  -5  177.18    6.80
  -1   4  -5  182.98    7.50
  -3  -1  -5  179.48    6.80
   4  -3  -5  176.18    6.80
  -1   4  -5  174.48    6.40
   3   1   5  167.38    6.80
  -3   0  -5  117.49    4.70
  -3   0  -5  115.89    4.80
   0   3  -5  115.79    5.30
   3  -3  -5  120.19    4.70
   3   0   5  113.09    4.70
  -3   3   5  120.29    4.60
  -3   1  -5  227.88    8.40
  -3   1  -5  226.38    8.40
  -3   1  -5  225.48    8.60
   2  -3  -5  216.28    8.40
   1   2  -5  232.38    9.00
   2  -3  -5  233.28    8.00
  -2   3   5  219.08    8.30
   3  -1   5  236.18    8.40
  -3   2  -5  306.07   11.50
  -3   2  -5  300.57   11.10
   2   1  -5  304.47   11.70
  -3   2  -5  308.77   11.10
   1  -3  -5  316.17   11.20
  -1   3   5  314.67   11.10
   3  -2   5  305.37   11.00
  -3   3  -5  129.89    4.90
  -3   3  -5  122.89    5.10
  -3   3  -5  126.49    5.10
  -3   3  -5  130.19    5.70
   0  -3  -5  130.49    5.10
   0  -3  -5  127.99    5.10
   0   3   5  121.89    5.00
   4  -1  -5  359.06   12.70
  -3   4  -5  370.66   13.90
  -1  -3  -5  354.56   13.00
  -3   4  -5  351.36   12.90
  -1  -3  -5  368.16   13.00
  -3   4  -5  353.46   12.70
  -3   4  -5  357.76   13.00
   1   3   5  357.76   13.00
  -2  -3  -5   96.99    4.40
  -3   5  -5  104.19    4.40
  -2  -3  -5   93.29    4.40
  -3   5  -5   97.39    4.40
   5  -2  -5  105.79    4.40
  -3   5  -5  106.19    5.50
   2   3   5  103.29    4.50
  -3   6  -5   52.29    4.50
  -3  -3  -5   48.90    3.10
  -3  -3  -5   54.69    3.10
  -3   6  -5   63.29    3.10
   6  -3  -5   51.99    3.40
   3   3   5   47.40    3.00
   7  -4  -5   58.29    4.20
  -3   7  -5   58.69    3.30
  -4  -3  -5   54.49    3.40
  -3   7  -5   52.49    5.00
  -4  -3  -5   60.89    3.30
   4   3   5   53.29    3.40
  -2   6  -5   10.60    2.30
  -2   6  -5   12.80    1.40
   6  -4  -5   10.20    2.00
  -4  -2  -5    9.40    1.50
  -4  -2  -5    8.70    1.50
   4   2   5    9.90    1.60
  -1   5  -5   69.79    4.20
  -4  -1  -5   69.39    3.40
  -4  -1  -5   68.29    3.40
   5  -4  -5   64.79    3.60
   4   1   5   65.49    3.40
  -4   0  -5  222.18    8.50
   0   4  -5  222.58    9.10
  -4   0  -5  223.28    8.50
   4  -4  -5  227.68    8.50
   4   0   5  221.58    8.50
  -4   4   5  222.28    8.30
   1   3  -5  172.78    7.30
  -4   1  -5  176.68    6.80
   3  -4  -5  167.78    6.80
  -4   1  -5  178.68    6.90
  -4   1  -5  175.58    6.80
   4  -1   5  179.48    6.80
  -3   4   5  177.68    6.70
  -4   2  -5    4.00    1.30
  -4   2  -5    5.20    1.10
  -4   2  -5    4.30    1.10
   2   2  -5    3.40    1.20
  -4   2  -5    5.50    1.10
   2  -4  -5    2.90    1.00
   4  -2   5    4.90    1.00
  -2   4   5    5.00    1.00
   1  -4  -5  363.76   13.20
  -4   3  -5  361.46   13.10
  -4   3  -5  355.36   13.10
  -4   3  -5  360.66   13.70
   3   1  -5  349.17   13.60
  -1   4   5  379.86   13.10
   4  -3   5  365.96   13.10
  -4   4  -5   24.50    1.90
   0  -4  -5   21.60    1.80
  -4   4  -5   17.80    2.50
   0  -4  -5   21.90    1.80
  -4   4  -5   23.00    1.80
  -4   4  -5   19.50    1.70
   4  -4   5   22.80    2.20
   0   4   5   22.60    1.70
  -1  -4  -5   61.99    3.20
  -4   5  -5   62.49    3.40
  -4   5  -5   67.79    4.70
  -1  -4  -5   64.59    3.40
   5  -1  -5   65.79    3.20
  -4   5  -5   66.59    3.40
   1   4   5   61.79    3.20
  -4   6  -5   87.49    4.20
  -4   6  -5   89.09    4.20
   6  -2  -5   85.69    4.40
  -2  -4  -5   88.39    4.20
  -4   6  -5   93.39    6.00
  -2  -4  -5   84.19    4.10
   2   4   5   86.09    4.20
   7  -3  -5   81.99    4.70
  -4   7  -5   86.39    6.30
  -4   7  -5   81.59    4.10
  -3  -4  -5   80.79    4.10
  -3  -4  -5   79.99    4.10
   3   4   5   75.39    4.20
  -4  -4  -5   -0.50    1.40
  -4   8  -5   -1.20    1.50
   8  -4  -5    0.50    1.90
  -4   8  -5    1.90    3.00
   4   4   5    0.70    1.60
  -4   9  -5   74.69    7.00
  -5  -4  -5   81.49    4.50
  -4   9  -5   84.39    4.80
   9  -5  -5   82.59    5.60
   5   4   5   78.99    4.70
   8  -5  -5   36.70    3.70
  -5  -3  -5   35.60    2.90
  -3   8  -5   41.00    2.80
  -3   8  -5   40.80    4.60
   5   3   5   33.70    2.90
  -5  -2  -5   27.70    2.40
   7  -5  -5   30.00    3.10
  -5  -2  -5   29.30    2.40
  -2   7  -5   30.40    3.50
   5   2   5   29.60    2.50
  -1   6  -5  143.49    7.00
  -5  -1  -5  153.08    6.20
  -5  -1  -5  146.99    6.20
   6  -5  -5  146.09    6.80
   5   1   5  148.59    6.30
  -5   0  -5  131.69    5.70
  -5   0  -5  141.09    5.70
   5  -5  -5  134.89    6.00
   0   5  -5  134.39    6.40
   5   0   5  141.79    5.90
  -5   5   5  135.59    5.60
   4  -5  -5   74.39    3.80
   1   4  -5   71.09    4.10
  -5   1  -5   66.09    3.50
  -5   1  -5   69.89    3.50
   5  -1   5   71.99    3.70
  -4   5   5   71.89    3.40
  -5   2  -5  303.07   11.30
  -5   2  -5  305.07   11.30
   2   3  -5  299.67   11.80
  -5   2  -5  303.77   11.50
   3  -5  -5  313.67   11.40
  -5   2  -5  305.07   11.30
   5  -2   5  297.27   11.40
  -3   5   5  309.07   11.20
   3   2  -5   94.89    4.80
  -5   3  -5   95.89    4.50
  -5   3  -5   99.49    4.50
   2  -5  -5  103.09    4.50
  -5   3  -5  100.09    5.00
   5  -3   5   97.19    4.60
  -2   5   5  101.49    4.40
  -5   4  -5   68.49    4.50
  -5   4  -5   66.29    3.50
  -5   4  -5   62.29    3.40
   1  -5  -5   64.79    3.40
   5  -4   5   66.59    3.50
  -1   5   5   60.99    3.30
  -5   5  -5   52.39    3.20
  -5   5  -5   56.89    4.70
   0  -5  -5   50.79    3.10
  -5   5  -5   49.30    3.00
   0  -5  -5   53.09    3.00
  -5   5  -5   54.39    3.20
   0   5   5   54.49    3.00
  -5   6  -5   87.89    4.30
  -1  -5  -5   93.89    4.40
  -5   6  -5   85.79    4.50
  -1  -5  -5   94.39    4.40
   6  -1  -5   91.49    4.50
  -5   6  -5  100.09    6.50
   1   5   5   92.69    4.40
  -5   7  -5   27.80    4.20
   7  -2  -5   29.60    2.80
  -5   7  -5   28.20    2.30
  -2  -5  -5   34.40    2.50
  -5   7  -5   30.10    2.60
  -2  -5  -5   36.30    2.60
   2   5   5   31.90    2.60
  -3  -5  -5  144.89    6.20
  -5   8  -5  140.29    6.40
  -5   8  -5  135.69    8.90
   8  -3  -5  137.19    6.70
   3   5   5  141.49    6.30
  -5   9  -5   10.60    3.90
  -4  -5  -5   10.50    2.00
  -5   9  -5   10.40    2.20
   9  -4  -5   11.90    2.50
   4   5   5   10.00    2.20
  -5  10  -5    9.80    2.40
  10  -5  -5   11.70    2.80
  -5  -5  -5   10.50    2.30
  -5  10  -5    6.60    4.40
   5   5   5   11.10    2.40
  -6  -4  -5    0.00    1.80
  10  -6  -5    1.70    2.40
  -4  10  -5    3.40    3.80
  -4  10  -5    2.50    2.00
   6   4   5    3.20    2.10
  -3   9  -5   14.80    3.70
  -6  -3  -5   14.10    2.20
   9  -6  -5   13.30    2.90
   6   3   5   15.50    2.40
  -2   8  -5    2.10    2.50
  -6  -2  -5    3.90    1.60
   8  -6  -5    9.70    2.80
   6   2   5    1.40    1.70
  -6  -1  -5   34.80    2.50
  -1   7  -5   26.40    3.30
   7  -6  -5   33.30    3.40
  -6  -1  -5   32.40    2.70
   6   1   5   34.40    2.80
   0   6  -5    1.80    1.80
  -6   0  -5    3.70    1.50
   6  -6  -5    0.40    1.90
  -6   0  -5    1.40    1.40
  -6   6   5    2.70    1.30
   6   0   5    3.60    1.60
  -6   1  -5  143.49    6.40
  -6   1  -5  154.58    6.30
   1   5  -5  152.98    7.00
   5  -6  -5  154.08    6.80
  -5   6   5  148.19    6.20
   6  -1   5  150.08    6.60
   2   4  -5   10.30    2.00
  -6   2  -5   10.10    1.60
   4  -6  -5    9.50    1.90
  -6   2  -5   12.10    1.80
   6  -2   5   10.30    1.90
  -4   6   5   11.10    1.60
  -6   3  -5   56.79    3.50
   3   3  -5   50.69    3.50
   3  -6  -5   51.19    3.50
  -6   3  -5   53.19    3.30
  -6   3  -5   59.89    3.30
   6  -3   5   54.59    3.70
  -3   6   5   49.40    3.10
   2  -6  -5   90.19    4.50
  -6   4  -5   90.79    4.50
   4   2  -5   86.19    4.70
  -6   4  -5   89.09    5.30
  -6   4  -5   90.89    4.70
   6  -4   5   91.39    4.80
  -2   6   5   88.79    4.20
  -6   5  -5   95.39    4.70
  -6   5  -5   88.69    4.80
  -6   5  -5   94.99    4.40
   1  -6  -5   94.99    4.60
  -6   5  -5   91.99    6.20
  -1   6   5   90.39    4.40
   6  -5   5   94.49    5.00
  -6   6  -5    1.40    2.90
  -6   6  -5    1.10    1.50
   0  -6  -5    1.00    1.50
  -6   6  -5    0.40    1.30
   0   6   5    0.90    1.30
  -6   7  -5  147.59    9.90
  -1  -6  -5  177.58    7.10
  -6   7  -5  179.68    7.50
  -6   7  -5  166.98    7.10
   1   6   5  178.98    7.20
  -6   8  -5    4.90    2.00
  -2  -6  -5    3.30    1.60
  -6   8  -5    3.00    3.70
   8  -2  -5    5.80    1.90
   2   6   5    6.20    1.80
  -3  -6  -5   13.40    2.10
   9  -3  -5   12.60    2.40
  -6   9  -5   13.70    2.40
  -6   9  -5   10.20    4.30
   3   6   5   13.70    2.30
  10  -4  -5    0.30    2.20
  -6  10  -5   -2.80    3.80
  -6  10  -5    1.40    2.20
   4   6   5    2.10    2.00
  -3  10  -5   42.70    5.40
  -7  -3  -5   42.00    3.50
  10  -7  -5   41.40    4.20
   7   3   5   44.20    3.80
   9  -7  -5   21.80    3.40
  -2   9  -5   27.90    4.10
  -7  -2  -5   26.70    2.70
   7   2   5   22.90    2.90
  -7  -1  -5   17.50    2.40
  -1   8  -5   17.80    3.20
   8  -7  -5   13.30    3.20
   7   1   5   21.10    2.60
  -7   0  -5  104.49    5.00
   7  -7  -5  105.29    6.30
  -7   0  -5  103.69    5.20
   0   7  -5   97.89    6.10
   7   0   5  101.29    5.40
  -7   1  -5   32.80    2.90
  -7   1  -5   31.30    2.60
   6  -7  -5   33.90    3.50
   1   6  -5   36.90    3.50
  -6   7   5   35.10    2.70
   7  -1   5   34.00    3.10
   2   5  -5   32.80    3.40
  -7   2  -5   35.10    2.70
  -7   2  -5   25.20    2.60
   5  -7  -5   31.20    3.10
  -5   7   5   31.70    2.60
   7  -2   5   33.60    3.10
   4  -7  -5   59.69    4.10
  -7   3  -5   61.09    4.10
  -7   3  -5   64.29    3.80
   7  -3   5   57.59    4.40
  -4   7   5   62.29    3.60
  -7   4  -5   81.29    4.80
   3  -7  -5   90.39    4.80
  -7   4  -5   83.09    4.50
   7  -4   5   76.89    5.10
  -3   7   5   86.69    4.20
  -7   5  -5   30.50    4.10
  -7   5  -5   27.10    2.60
  -7   5  -5   27.80    2.90
   2  -7  -5   32.40    2.80
   7  -5   5   26.00    3.10
  -2   7   5   29.30    2.40
   1  -7  -5  181.88    7.40
  -7   6  -5  136.59    7.50
  -7   6  -5  180.18    7.40
  -7   6  -5  172.88    7.00
  -7   6  -5  151.28    9.50
  -1   7   5  171.08    7.00
  -7   7  -5    9.60    4.20
  -7   7  -5   20.10    2.50
   0   7   5   19.70    2.20
  -7   8  -5   16.60    2.60
  -7   8  -5    5.80    4.40
   1   7   5   17.20    2.20
  -7   9  -5   19.10    2.80
  -7   9  -5    5.00    4.50
   9  -2  -5   12.40    2.30
   2   7   5   12.40    2.20
  10  -3  -5   20.40    2.90
  -7  10  -5   15.40    2.90
  -7  10  -5    7.60    4.80
   3   7   5   16.80    2.70
  -2  10  -5    1.90    3.20
  10  -8  -5   -1.70    2.60
   8   2   5    1.10    2.30
  -8  -1  -5   35.00    3.30
  -1   9  -5   38.60    4.50
   9  -8  -5   40.00    4.40
   8   1   5   39.90    3.80
  -8   0  -5    4.70    2.00
   8  -8  -5    3.90    2.80
   8   0   5    2.40    2.20
  -8   1  -5   21.90    2.70
   7  -8  -5   22.60    3.50
   8  -1   5   24.50    3.00
  -7   8   5   24.10    2.70
  -8   2  -5    6.50    2.10
   6  -8  -5    2.00    2.50
  -8   2  -5    3.10    1.70
  -6   8   5    9.10    1.90
   8  -2   5    3.00    2.30
  -8   3  -5   35.70    3.40
  -8   3  -5   34.70    3.00
   5  -8  -5   39.60    3.70
  -5   8   5   43.50    3.50
   8  -3   5   36.40    3.70
  -8   4  -5    0.90    2.00
  -8   4  -5    0.80    1.70
  -8   4  -5    2.50    1.70
   4  -8  -5    3.00    2.20
  -4   8   5    2.90    1.70
   8  -4   5   -1.60    2.30
  -8   5  -5  134.39    6.30
  -8   5  -5  127.69    6.90
   3  -8  -5  145.59    6.80
  -3   8   5  140.89    6.10
   8  -5   5  110.59    7.10
   2  -8  -5    3.70    2.10
  -8   6  -5    4.30    2.50
  -8   6  -5    0.80    1.80
  -8   6  -5   -0.10    3.40
  -2   8   5    4.00    1.70
   8  -6   5    1.70    2.50
  -8   7  -5    3.00    4.10
  -8   7  -5   13.60    2.40
  -1   8   5   12.10    2.00
  -8   8  -5    3.20    4.40
  -8   8  -5    3.20    2.10
   0   8   5    4.00    1.80
  -8   9  -5    6.60    4.90
  -8   9  -5   20.10    3.00
   1   8   5   28.70    2.90
  -8  10  -5   -4.90    4.40
  -8  10  -5    4.40    2.60
   2   8   5    0.20    2.10
   9  -9  -5   11.80    3.40
   9   0   5    6.30    2.70
   8  -9  -5   31.40    4.20
  -9   1  -5   37.80    3.60
   9  -1   5   37.50    3.90
   7  -9  -5   29.10    4.00
  -9   2  -5   21.10    3.00
  -7   9   5   26.70    2.90
   9  -2   5   23.00    3.40
  -9   3  -5   12.80    2.30
   6  -9  -5   21.90    3.60
  -9   3  -5   12.20    2.60
  -6   9   5   14.70    2.40
   9  -3   5   15.40    3.20
  -9   4  -5   76.29    5.60
   5  -9  -5   91.29    6.10
  -9   4  -5   86.59    5.10
  -5   9   5   86.79    5.10
   9  -4   5   80.09    6.20
  -9   5  -5    5.30    2.60
  -9   5  -5   11.80    2.20
  -9   5  -5   13.70    2.40
   4  -9  -5    7.10    2.70
   9  -5   5   11.10    3.20
  -4   9   5   10.30    2.20
  -9   6  -5   13.50    2.30
  -9   6  -5   12.70    3.00
  -3   9   5    9.80    2.10
   9  -6   5    3.40    2.90
  -9   7  -5    9.70    4.60
  -9   7  -5   16.30    2.60
  -2   9   5   16.10    2.20
  -9   8  -5   23.40    2.90
  -9   8  -5    9.80    4.90
  -1   9   5   24.10    2.60
  -9   9  -5    5.70    2.50
  -9   9  -5   -1.20    4.70
   0   9   5    4.60    2.10
   8 -10  -5    4.00    3.30
  -8  10   5    0.80    2.20
  10  -2   5   -3.80    2.60
   7 -10  -5   39.10    4.70
  -7  10   5   47.60    4.00
  10  -3   5   47.30    4.80
 -10   4  -5    5.20    2.30
 -10   4  -5    3.70    2.60
   6 -10  -5    2.20    3.10
  -6  10   5    3.00    2.20
  10  -4   5    7.90    3.20
 -10   5  -5   16.80    2.90
 -10   5  -5   10.90    2.90
  -5  10   5   15.90    2.70
  10  -5   5   11.50    3.40
 -10   6  -5   -0.30    2.50
 -10   6  -5    0.80    2.30
 -10   6  -5    1.60    2.00
  10  -6   5   -1.00    3.00
  -4  10   5    3.90    2.20
 -10   7  -5   20.20    2.90
 -10   7  -5   10.70    3.20
  -3  10   5   16.30    2.80
 -10   8  -5   -2.50    2.00
  -2  10   5    1.30    2.00
   0   0  -6 4952.50  169.88
   0   0  -6 4875.91  169.98
   0   0  -6 5016.80  169.98
   0   0  -6 5007.10  170.58
   0   1  -6   21.90    1.50
   0   1  -6   18.20    1.90
   1  -1  -6   18.20    1.30
   0   1  -6   17.50    1.30
  -1   0  -6   14.90    1.30
   1  -1  -6   18.60    1.50
  -1   0  -6   17.50    1.80
  -1   0  -6   20.10    1.50
   0  -1  -6  181.88    6.80
  -1   1  -6  172.68    6.90
  -1   1  -6  193.08    6.80
   0  -1  -6  169.88    6.90
  -1   1  -6  178.48    6.70
  -1   1  -6  184.58    7.40
   1   0  -6  182.68    7.50
   1   0  -6  181.98    6.80
   1   0  -6  187.78    6.60
   0   1   6  187.58    6.90
   2  -1  -6  406.26   14.20
  -1   2  -6  402.16   15.00
  -1  -1  -6  378.76   14.40
  -1  -1  -6  401.46   14.90
  -1   2  -6  410.16   14.50
  -1   2  -6  421.26   14.20
  -1   2  -6  412.26   14.20
  -1  -1  -6  397.56   14.50
   1   1   6  408.86   14.40
  -2  -1  -6    2.20    1.00
   3  -2  -6    1.20    0.80
  -1   3  -6    1.60    0.90
  -1   3  -6    1.10    0.70
  -2  -1  -6    1.60    1.00
  -1   3  -6    3.00    1.40
   2   1   6    1.00    0.90
   2  -2  -6  597.24   20.60
   0   2  -6  591.44   20.70
   0   2  -6  567.74   20.30
  -2   0  -6  580.74   20.70
  -2   0  -6  583.14   20.70
  -2   0  -6  583.84   21.00
   2  -2  -6  584.44   20.40
   0   2  -6  583.14   21.30
   2   0   6  610.14   20.60
   1   1  -6  384.86   14.60
  -2   1  -6  380.26   13.90
   1  -2  -6  394.36   13.80
  -2   1  -6  395.36   13.90
  -2   1  -6  387.46   14.40
   1  -2  -6  402.56   13.90
  -1   2   6  388.86   13.80
   2  -1   6  393.56   13.80
   0  -2  -6   44.00    2.40
   2   0  -6   41.00    3.00
  -2   2  -6   41.20    2.40
  -2   2  -6   42.00    2.90
  -2   2  -6   46.70    2.20
  -2   2  -6   43.80    2.30
   2   0  -6   42.30    1.90
   0  -2  -6   45.40    2.50
   0   2   6   42.30    2.30
  -1  -2  -6  120.59    5.20
  -1  -2  -6  130.09    5.20
  -2   3  -6  126.79    5.80
  -2   3  -6  124.59    5.20
  -2   3  -6  128.39    5.00
  -2   3  -6  129.29    4.80
   3  -1  -6  125.19    4.80
   1   2   6  128.79    5.10
  -2   4  -6 1972.10   69.59
  -2  -2  -6 1973.90   68.79
   4  -2  -6 2013.20   68.69
  -2   4  -6 1914.01   68.59
  -2  -2  -6 2052.79   68.79
  -2   4  -6 2003.90   68.89
   2   2   6 2021.50   68.79
  -2   5  -6    3.50    1.10
  -3  -2  -6    2.30    1.20
  -2   5  -6    1.90    1.70
  -3  -2  -6    4.30    1.20
   5  -3  -6    3.30    1.20
   3   2   6    4.30    1.30
   4  -3  -6  103.59    4.20
  -3  -1  -6   97.99    4.40
  -1   4  -6   87.89    4.90
  -3  -1  -6   98.89    4.30
   3   1   6   89.09    4.20
   3  -3  -6  202.98    7.60
  -3   0  -6  206.88    7.90
   0   3  -6  195.88    8.40
  -3   0  -6  197.88    7.70
  -3   0  -6  197.68    7.70
  -3   3   6  202.68    7.80
   3   0   6  211.38    7.70
   2  -3  -6    2.10    0.70
  -3   1  -6    2.80    0.90
  -3   1  -6    1.80    0.90
   2  -3  -6    2.80    0.90
  -3   1  -6    1.10    1.10
   1   2  -6    3.10    1.30
   3  -1   6    2.20    0.90
  -2   3   6    1.70    0.80
  -3   2  -6  126.29    5.00
   2   1  -6  125.69    5.80
  -3   2  -6  130.79    5.10
   1  -3  -6  127.59    5.10
  -3   2  -6  123.69    5.60
   3  -2   6  131.89    4.90
  -1   3   6  122.09    5.00
  -3   3  -6  462.75   17.60
  -3   3  -6  497.15   17.70
   0  -3  -6  515.05   17.70
  -3   3  -6  499.05   18.30
  -3   3  -6  494.95   17.50
   0  -3  -6  501.65   17.70
   0   3   6  498.55   17.60
  -3   4  -6    0.90    1.00
   4  -1  -6    1.50    0.80
  -3   4  -6    1.20    1.50
  -3   4  -6    0.80    1.10
  -2  -3  -6   80.39    3.90
   5  -2  -6   77.19    3.70
  -3   5  -6   78.09    4.90
  -3   5  -6   82.59    4.00
  -2  -3  -6   78.59    4.00
  -3   5  -6   80.29    3.80
   2   3   6   83.19    3.90
  -3   6  -6   93.29    4.30
  -3   6  -6   94.59    5.70
   6  -3  -6  104.49    4.70
  -3  -3  -6   90.49    4.40
  -3  -3  -6   91.69    4.50
   3   3   6   87.59    4.50
  -4  -3  -6    4.50    1.50
  -4  -3  -6    3.20    1.60
  -3   7  -6    5.60    1.60
   7  -4  -6    7.90    2.20
  -3   7  -6    7.10    2.60
   4   3   6    5.60    1.60
  -4  -2  -6  192.98    7.80
   6  -4  -6  214.58    8.20
  -2   6  -6  193.88    9.00
  -4  -2  -6  197.68    7.90
   4   2   6  188.38    7.90
  -1   5  -6  227.58   10.00
  -4  -1  -6  243.68    9.20
   5  -4  -6  249.28    9.30
  -4  -1  -6  226.88    9.10
   4   1   6  241.08    9.20
  -4   0  -6   37.80    2.50
   4  -4  -6   39.80    2.60
   0   4  -6   37.20    3.10
  -4   0  -6   40.60    2.70
   4   0   6   37.70    2.50
   1   3  -6  101.79    5.10
  -4   1  -6  106.09    4.50
  -4   1  -6  103.49    4.90
   3  -4  -6  101.39    4.50
  -4   1  -6  105.59    4.50
  -3   4   6  103.39    4.40
   4  -1   6   99.69    4.40
   2   2  -6 1921.71   67.79
  -4   2  -6 1900.51   67.09
  -4   2  -6 1953.10   67.09
  -4   2  -6 1930.41   67.09
   2  -4  -6 1971.20   67.09
  -4   2  -6 1957.50   67.49
  -2   4   6 1958.40   66.99
   4  -2   6 1951.50   66.99
   3   1  -6    2.40    1.50
  -4   3  -6    2.20    1.20
   1  -4  -6    1.10    1.10
  -4   3  -6    1.30    1.40
  -4   3  -6    5.10    1.10
   4  -3   6    3.90    1.00
  -1   4   6    2.60    1.10
   0  -4  -6  317.87   11.80
  -4   4  -6  316.47   11.90
  -4   4  -6  323.87   11.60
  -4   4  -6  322.77   11.90
  -4   4  -6  316.97   12.70
   0  -4  -6  321.77   11.90
   0   4   6  324.37   11.80
  -4   5  -6   96.69    4.50
  -1  -4  -6   94.99    4.40
  -4   5  -6   93.89    4.40
  -1  -4  -6   94.69    4.50
  -4   5  -6   90.69    5.60
   1   4   6   94.89    4.40
  -4   6  -6   37.50    2.80
  -2  -4  -6   30.30    2.50
  -4   6  -6   33.20    3.80
   6  -2  -6   32.80    2.60
  -4   6  -6   34.30    2.60
  -2  -4  -6   33.50    2.50
   2   4   6   33.60    2.50
   7  -3  -6   38.70    3.30
  -3  -4  -6   41.80    3.10
  -3  -4  -6   40.00    2.90
  -4   7  -6   39.90    3.10
  -4   7  -6   39.90    4.50
   3   4   6   39.70    3.20
  -4   8  -6  331.47   13.30
  -4   8  -6  375.26   15.80
   8  -4  -6  345.07   14.10
  -4  -4  -6  362.96   13.40
   4   4   6  347.87   13.50
  -5  -4  -6   -2.30    1.60
  -4   9  -6    0.50    1.90
   9  -5  -6    1.70    2.40
  -4   9  -6    3.50    3.50
   5   4   6   -1.70    1.70
   8  -5  -6   25.20    3.30
  -5  -3  -6   27.00    2.50
  -3   8  -6   26.90    4.10
   5   3   6   24.60    2.70
  -2   7  -6   56.69    4.90
  -5  -2  -6   52.29    3.40
  -5  -2  -6   57.79    3.60
   7  -5  -6   45.80    3.80
   5   2   6   49.20    3.50
  -5  -1  -6    0.10    1.30
   6  -5  -6    0.10    1.70
  -5  -1  -6    1.00    1.40
  -1   6  -6    0.80    1.90
   5   1   6    2.20    1.40
   0   5  -6   67.69    4.40
   5  -5  -6   63.49    3.80
  -5   0  -6   58.79    3.50
  -5   0  -6   64.49    3.50
   5   0   6   62.69    3.60
   1   4  -6  242.08   10.10
  -5   1  -6  238.78    9.30
   4  -5  -6  252.67    9.50
  -5   1  -6  251.77    9.40
  -4   5   6  241.48    9.20
   5  -1   6  231.98    9.40
   3  -5  -6    4.00    1.40
  -5   2  -6    3.10    1.40
   2   3  -6    1.70    1.50
  -5   2  -6    2.20    1.30
  -3   5   6    3.10    1.20
   5  -2   6    4.80    1.30
  -5   3  -6   80.09    4.10
  -5   3  -6   83.29    4.60
   2  -5  -6   93.79    4.20
   3   2  -6   82.69    4.60
  -5   3  -6   82.19    4.10
  -2   5   6   83.69    3.90
   5  -3   6   82.09    4.00
  -5   4  -6   96.19    4.50
  -5   4  -6   97.99    5.50
   1  -5  -6   99.99    4.60
  -5   4  -6  105.89    4.70
  -1   5   6   94.39    4.40
  -5   5  -6    3.30    1.50
   0  -5  -6    5.40    1.40
  -5   5  -6    7.10    1.50
   0  -5  -6    4.80    1.50
  -5   5  -6    4.20    2.30
   0   5   6    4.70    1.30
  -5   6  -6   57.09    5.40
  -5   6  -6   50.79    3.40
  -1  -5  -6   48.20    3.20
  -5   6  -6   45.80    3.30
  -1  -5  -6   51.09    3.40
   1   5   6   40.90    3.10
  -2  -5  -6  199.48    8.20
  -5   7  -6  198.38    8.30
  -2  -5  -6  206.78    8.20
   7  -2  -6  188.08    8.50
  -5   7  -6  215.58   10.70
  -5   7  -6  198.48    8.20
   2   5   6  207.78    8.30
  -5   8  -6    3.70    1.80
   8  -3  -6    1.50    2.10
  -3  -5  -6    6.10    1.70
  -5   8  -6    1.00    3.30
   3   5   6    1.60    1.70
  -5   9  -6   18.00    2.60
  -5   9  -6   12.50    4.30
  -4  -5  -6   19.40    2.50
   9  -4  -6   21.30    3.10
   4   5   6   16.30    2.50
  -5  -5  -6   17.00    2.60
  -5  10  -6   24.80    5.30
  -5  10  -6   16.50    2.70
  10  -5  -6   11.70    3.00
   5   5   6   15.30    2.70
  -4  10  -6   32.50    5.30
  10  -6  -6   35.80    4.00
  -6  -4  -6   28.90    3.00
   6   4   6   32.60    3.50
  -6  -3  -6   58.69    4.00
  -3   9  -6   60.69    6.00
   9  -6  -6   60.69    5.00
   6   3   6   57.89    4.30
   8  -6  -6   16.00    3.20
  -2   8  -6   23.00    3.70
  -6  -2  -6   17.30    2.40
   6   2   6   22.90    2.70
  -1   7  -6   37.80    3.90
   7  -6  -6   30.70    3.40
  -6  -1  -6   34.10    2.80
  -6  -1  -6   33.50    2.80
   6   1   6   39.10    3.20
  -6   0  -6  529.45   19.60
   0   6  -6  530.25   20.50
   6  -6  -6  551.24   20.10
  -6   0  -6  543.25   19.50
   6   0   6  532.65   19.70
   5  -6  -6    4.00    1.90
  -6   1  -6    2.10    1.50
  -6   1  -6    1.00    1.40
   1   5  -6    2.90    1.80
  -5   6   6    0.50    1.30
   6  -1   6    4.50    1.70
   2   4  -6  198.18    8.70
  -6   2  -6  201.08    8.10
  -6   2  -6  196.08    8.20
   4  -6  -6  204.08    8.30
   6  -2   6  212.68    8.30
  -4   6   6  192.98    7.90
  -6   3  -6   95.99    4.70
  -6   3  -6   86.79    4.60
  -6   3  -6  103.39    4.70
   3  -6  -6   87.59    4.70
   3   3  -6   94.09    5.00
  -3   6   6   91.89    4.40
   6  -3   6   90.49    4.80
  -6   4  -6   32.40    2.70
   2  -6  -6   34.70    2.70
  -6   4  -6   40.70    4.00
  -6   4  -6   33.60    2.80
   4   2  -6   31.10    3.30
   6  -4   6   34.80    2.80
  -2   6   6   35.80    2.60
   1  -6  -6   51.09    3.60
  -6   5  -6   51.49    5.00
  -6   5  -6   53.29    3.70
  -6   5  -6   48.50    3.40
  -6   5  -6   56.79    3.60
  -1   6   6   54.39    3.30
  -6   6  -6  650.03   23.60
  -6   6  -6  646.34   23.40
  -6   6  -6  659.63   25.50
   0  -6  -6  665.93   23.50
   0   6   6  636.44   23.40
  -6   7  -6   -1.90    3.20
  -1  -6  -6    0.90    1.50
  -6   7  -6   -0.70    1.40
  -1  -6  -6   -1.10    1.60
  -6   7  -6    1.10    1.80
   1   6   6    0.90    1.50
  -2  -6  -6   79.59    4.30
  -6   8  -6   77.79    4.80
  -6   8  -6   73.49    7.50
   2   6   6   74.09    4.40
  -6   9  -6   18.50    2.80
  -6   9  -6   13.00    4.80
   9  -3  -6   18.20    2.70
  -3  -6  -6   17.60    2.50
   3   6   6   18.90    2.50
  -6  10  -6   20.10    3.00
  -6  10  -6   18.60    5.30
  10  -4  -6   12.60    2.90
   4   6   6   15.80    2.70
  -3  10  -6    2.70    3.60
  10  -7  -6   -2.40    2.70
   7   3   6    2.00    2.20
   9  -7  -6   16.10    3.50
  -7  -2  -6   17.00    2.50
  -2   9  -6   17.60    4.00
   7   2   6   15.80    2.70
  -7  -1  -6   42.60    3.40
   8  -7  -6   39.20    4.30
  -1   8  -6   41.30    4.40
   7   1   6   44.20    3.70
   0   7  -6    0.10    2.30
  -7   0  -6   -1.50    1.70
  -7   0  -6   -2.60    1.50
   7  -7  -6   -0.80    2.30
   7   0   6   -1.60    1.70
   1   6  -6   37.20    3.70
  -7   1  -6   30.70    2.90
  -7   1  -6   34.10    2.80
   6  -7  -6   32.00    3.40
   7  -1   6   35.70    3.20
   5  -7  -6   54.99    4.40
  -7   2  -6   55.49    3.90
   2   5  -6   57.19    4.50
  -7   2  -6   54.29    3.80
  -5   7   6   56.39    3.60
   7  -2   6   60.09    4.30
   3   4  -6    6.90    2.00
  -7   3  -6    8.00    2.00
  -7   3  -6    7.90    1.90
   4  -7  -6    5.10    2.10
   7  -3   6    4.00    2.10
  -4   7   6    5.00    1.60
  -7   4  -6   41.60    3.10
  -7   4  -6   40.50    3.40
   4   3  -6   50.39    5.70
  -7   4  -6   34.30    2.90
   3  -7  -6   43.90    3.30
   7  -4   6   38.70    3.40
  -3   7   6   44.00    3.20
  -7   5  -6  204.38   10.10
  -7   5  -6  207.78    8.50
   2  -7  -6  206.68    8.50
  -7   5  -6  192.68    8.70
  -2   7   6  197.78    8.20
  -7   6  -6    0.30    1.50
  -7   6  -6   -0.30    3.20
   1  -7  -6    3.30    1.90
  -7   6  -6    2.00    1.80
  -1   7   6    2.00    1.50
  -7   7  -6   27.70    2.90
   0  -7  -6   32.60    4.30
  -7   7  -6   25.60    2.50
  -7   7  -6   23.80    4.80
   0   7   6   28.50    2.60
  -7   8  -6    4.70    4.30
  -7   8  -6   17.10    2.60
   1   7   6   18.10    2.40
  -7   9  -6   -1.40    4.30
  -7   9  -6    8.50    2.50
   2   7   6   12.40    2.40
  10  -3  -6    8.10    2.60
  -7  10  -6   13.60    2.90
  -7  10  -6    5.40    5.00
   3   7   6   13.30    2.70
  -1   9  -6    3.00    2.90
   9  -8  -6    8.20    3.20
   8   1   6    1.50    2.30
  -8   0  -6   51.89    4.00
   0   8  -6   47.70    4.70
   8  -8  -6   46.80    4.80
   8   0   6   48.80    4.10
   7  -8  -6   51.39    4.70
  -8   1  -6   49.90    3.90
  -8   1  -6   46.80    3.90
   8  -1   6   55.49    4.20
   6  -8  -6   18.80    3.20
  -8   2  -6   21.60    2.50
  -8   2  -6   24.80    2.90
  -6   8   6   19.70    2.50
   8  -2   6   16.40    2.90
   5  -8  -6   28.70    3.40
  -8   3  -6   26.80    2.80
  -8   3  -6   32.30    3.30
  -5   8   6   30.70    2.80
   8  -3   6   23.20    3.30
  -8   4  -6  340.57   13.80
  -8   4  -6  369.26   13.60
   4  -8  -6  343.57   13.80
   8  -4   6  329.27   14.10
  -4   8   6  356.16   13.40
  -8   5  -6   -0.20    1.80
   3  -8  -6   -0.50    2.10
  -8   5  -6   -1.50    2.20
  -3   8   6   -0.10    1.60
   8  -5   6    0.20    2.40
   2  -8  -6   80.69    5.00
  -8   6  -6   45.10    4.50
  -8   6  -6   77.19    4.70
  -8   6  -6   74.59    4.40
  -8   6  -6   69.59    6.60
  -2   8   6   70.79    4.40
  -8   7  -6   14.20    4.60
  -8   7  -6   11.80    2.40
  -1   8   6   13.80    2.20
  -8   8  -6   19.20    2.90
  -8   8  -6   -0.20    4.30
   0   8   6   15.10    2.40
  -8   9  -6    9.80    2.70
  -8   9  -6   -2.90    4.40
   1   8   6    9.20    2.30
   9  -9  -6   18.60    3.80
   9   0   6   13.00    3.10
   8  -9  -6    3.10    3.40
   9  -1   6    4.60    2.80
   7  -9  -6   15.50    3.70
  -9   2  -6   15.70    4.10
  -9   2  -6   18.00    2.90
   9  -2   6   17.50    3.40
  -9   3  -6   65.79    4.60
  -9   3  -6   59.59    4.70
   6  -9  -6   61.19    5.20
   9  -3   6   66.39    5.20
  -6   9   6   58.19    4.50
  -9   4  -6   -0.60    2.00
  -9   4  -6   -2.00    2.30
   5  -9  -6    1.30    2.60
   9  -4   6   -0.80    2.70
  -5   9   6    0.50    2.00
  -9   5  -6   18.40    3.20
   4  -9  -6   20.80    3.30
  -9   5  -6   19.10    2.60
  -9   5  -6   20.10    2.80
  -4   9   6   20.80    2.70
   9  -5   6   11.60    3.30
  -9   6  -6   16.30    2.60
   3  -9  -6   16.20    4.90
  -9   6  -6   13.20    3.30
  -3   9   6   16.40    2.60
  -9   7  -6   12.40    2.60
  -2   9   6   10.50    2.20
  -9   8  -6    1.30    4.40
  -9   8  -6   14.60    2.70
  -1   9   6    8.60    2.20
  -9   9  -6   68.49    5.60
   0   9   6   69.69    5.00
   7 -10  -6    4.20    3.50
  10  -3   6    0.10    2.90
  -7  10   6    4.70    2.50
 -10   4  -6   31.00    3.40
   6 -10  -6   25.90    4.20
  10  -4   6   26.40    4.20
  -6  10   6   37.00    3.50
   5 -10  -6   11.40    3.50
 -10   5  -6   19.80    3.00
  -5  10   6   15.80    2.80
  10  -5   6   15.70    3.70
 -10   6  -6   12.70    2.90
 -10   6  -6   11.20    2.50
 -10   6  -6   11.50    3.30
  -4  10   6    9.60    2.50
 -10   7  -6   10.30    2.60
  -3  10   6    9.60    2.60
   0   0  -7   77.69    3.30
   0   0  -7   77.89    4.20
   0   0  -7   74.49    3.40
   0   0  -7   73.39    3.30
   1  -1  -7  147.59    6.00
  -1   0  -7  157.18    6.10
  -1   0  -7  156.08    6.10
   1  -1  -7  158.38    6.00
   0   1  -7  161.68    6.20
   0   1  -7  163.98    5.90
  -1   0  -7  152.18    6.70
   0   1  -7  162.48    6.90
  -1   1  -7  287.67    9.80
   0  -1  -7  269.07    9.80
   0  -1  -7  259.67    9.80
  -1   1  -7  262.47    9.70
   1   0  -7  264.27    9.60
   0  -1  -7  262.07    9.90
   1   0  -7  271.17    9.80
  -1   1  -7  268.77   10.50
  -1   1  -7  269.27    9.90
   1   0  -7  269.77   10.70
   0   1   7  252.87    9.90
  -1  -1  -7  218.58    8.40
  -1   2  -7  222.08    8.10
  -1  -1  -7  206.88    8.30
  -1   2  -7  231.08    8.10
  -1   2  -7  223.58    9.10
   2  -1  -7  220.58    8.10
  -1   2  -7  234.08    8.50
   1   1   7  217.78    8.20
   3  -2  -7  103.89    4.10
  -1   3  -7   98.39    5.20
  -1   3  -7  100.39    4.00
  -1   3  -7   97.69    4.40
  -2  -1  -7   95.99    4.40
  -2  -1  -7   96.19    4.40
   2   1   7   95.09    4.20
   2  -2  -7  194.88    7.20
  -2   0  -7  186.88    7.30
  -2   0  -7  183.08    7.30
  -2   0  -7  186.28    7.80
   0   2  -7  197.18    7.40
   2  -2  -7  192.88    7.10
   0   2  -7  195.48    8.10
   2   0   7  187.48    7.20
  -2   1  -7  217.58    8.00
  -2   1  -7  212.08    8.00
   1  -2  -7  213.68    8.00
  -2   1  -7  214.38    8.60
   1  -2  -7  213.68    7.80
   1   1  -7  211.78    8.70
  -1   2   7  202.28    7.90
   0  -2  -7    2.30    1.10
  -2   2  -7    4.00    1.10
   0  -2  -7    1.50    1.10
  -2   2  -7    4.50    1.00
  -2   2  -7    4.50    1.00
   2   0  -7    3.90    0.80
  -2   2  -7    3.90    1.00
   2   0  -7    2.50    1.60
  -2   2  -7    2.90    1.40
   0   2   7    5.70    1.00
  -2   3  -7  329.77   11.90
  -2   3  -7  324.17   12.80
  -2   3  -7  335.47   12.20
  -1  -2  -7  320.07   12.10
   3  -1  -7  332.17   11.80
  -1  -2  -7  334.87   12.10
   1   2   7  328.17   12.00
  -2  -2  -7   27.50    2.20
  -2   4  -7   30.90    3.00
  -2   4  -7   29.60    2.10
  -2   4  -7   26.50    2.10
  -2  -2  -7   25.30    2.20
   4  -2  -7   30.10    2.10
   2   2   7   27.20    2.10
  -2   5  -7   56.09    4.40
  -3  -2  -7   63.29    3.40
   5  -3  -7   63.39    3.30
  -3  -2  -7   56.49    3.50
   3   2   7   57.19    3.40
   4  -3  -7  187.58    7.50
  -3  -1  -7  187.08    7.60
  -1   4  -7  196.68    8.50
  -3  -1  -7  208.98    7.80
   3   1   7  193.18    7.60
  -3   0  -7  174.08    7.20
  -3   0  -7  170.38    7.00
   3  -3  -7  168.28    6.80
  -3   0  -7  175.48    6.90
   0   3  -7  181.98    7.80
   3   0   7  178.58    6.80
  -3   1  -7  101.19    4.40
   1   2  -7   97.99    5.10
  -3   1  -7   93.79    4.80
  -3   1  -7   95.39    4.30
   2  -3  -7  103.49    4.30
   3  -1   7  103.39    4.20
  -2   3   7   99.99    4.50
   2   1  -7  324.57   12.70
  -3   2  -7  325.87   11.80
  -3   2  -7  329.07   11.70
  -3   2  -7  320.77   11.80
   1  -3  -7  313.07   11.80
  -3   2  -7  327.67   12.40
  -1   3   7  316.57   11.70
  -3   3  -7  123.89    5.30
  -3   3  -7  116.79    5.80
  -3   3  -7  120.69    5.10
   0  -3  -7  121.69    5.20
  -3   3  -7  128.29    4.90
   0  -3  -7  116.49    5.20
   0   3   7  124.99    5.10
   4  -1  -7   76.99    3.60
  -3   4  -7   75.39    4.70
  -3   4  -7   75.89    3.90
  -3   4  -7   67.99    3.70
  -1  -3  -7   75.89    3.80
  -1  -3  -7   75.59    3.80
   1   3   7   79.99    3.70
   5  -2  -7   69.69    3.40
  -3   5  -7   65.69    4.80
  -3   5  -7   61.89    3.50
  -3   5  -7   65.69    3.70
  -2  -3  -7   68.39    3.70
  -2  -3  -7   65.49    3.60
   2   3   7   68.79    3.60
  -3  -3  -7   61.49    3.80
  -3   6  -7   66.09    5.00
  -3  -3  -7   64.59    3.70
   6  -3  -7   62.19    3.70
  -3   6  -7   63.39    3.70
   3   3   7   65.29    3.80
  -4  -3  -7   25.80    2.50
  -4  -3  -7   20.80    2.40
   7  -4  -7   23.60    2.80
  -3   7  -7   18.30    3.30
   4   3   7   19.50    2.40
  -4  -2  -7   15.10    2.00
  -4  -2  -7   18.80    2.10
  -2   6  -7   14.90    2.80
   6  -4  -7   15.50    2.10
   4   2   7   16.80    2.00
  -1   5  -7   62.99    4.50
  -4  -1  -7   68.19    3.60
  -4  -1  -7   60.39    3.50
   5  -4  -7   57.39    3.60
   4   1   7   64.59    3.50
   4  -4  -7   -0.10    1.20
  -4   0  -7    1.70    1.40
  -4   0  -7    2.20    1.20
   0   4  -7    1.80    1.70
   4   0   7    2.50    1.20
  -4   1  -7  194.28    7.50
   1   3  -7  178.38    8.10
  -4   1  -7  188.88    7.40
   3  -4  -7  176.78    7.30
   4  -1   7  195.78    7.30
  -4   2  -7   28.30    2.80
   2   2  -7   24.20    2.60
  -4   2  -7   26.50    2.10
   2  -4  -7   27.30    2.10
  -4   2  -7   26.90    2.00
  -2   4   7   28.50    2.10
   4  -2   7   25.30    2.10
  -4   3  -7   73.49    3.60
  -4   3  -7   73.89    4.40
   3   1  -7   70.69    4.50
   1  -4  -7   74.29    3.80
  -4   3  -7   77.89    3.80
  -1   4   7   77.39    3.60
   0  -4  -7   72.99    3.70
  -4   4  -7   68.49    4.60
  -4   4  -7   67.19    3.70
  -4   4  -7   68.09    3.70
   0  -4  -7   71.49    3.80
   0   4   7   71.29    3.60
  -4   5  -7   95.59    4.70
  -1  -4  -7   92.99    4.70
  -4   5  -7   97.89    5.80
  -4   5  -7   98.19    4.60
  -1  -4  -7   86.79    4.50
   1   4   7   99.59    4.50
   6  -2  -7    2.90    1.50
  -4   6  -7    2.90    1.50
  -4   6  -7    4.80    2.50
  -2  -4  -7    1.50    1.60
  -2  -4  -7   -0.60    1.40
  -4   6  -7    3.00    1.50
   2   4   7    3.80    1.50
  -4   7  -7  146.59    6.70
   7  -3  -7  155.18    7.00
  -4   7  -7  149.69    8.50
  -3  -4  -7  155.08    6.70
  -3  -4  -7  143.99    6.50
   3   4   7  149.29    6.70
  -4   8  -7    3.20    1.80
  -4   8  -7    5.40    3.20
  -4  -4  -7    6.70    2.00
   8  -4  -7    5.60    2.60
   4   4   7    4.70    1.90
   9  -5  -7   10.50    3.10
  -4   9  -7   10.90    3.90
  -5  -4  -7   15.10    2.40
   5   4   7   14.20    2.60
  -5  -3  -7   82.19    4.60
  -3   8  -7   82.89    6.80
   8  -5  -7   78.49    5.80
   5   3   7   78.49    4.80
  -2   7  -7   50.99    5.00
  -5  -2  -7   47.10    3.40
   7  -5  -7   49.50    4.00
  -5  -2  -7   56.39    3.80
   5   2   7   50.69    3.60
  -5  -1  -7   35.40    2.80
  -5  -1  -7   33.80    2.80
   6  -5  -7   35.60    3.10
  -1   6  -7   36.90    3.80
   5   1   7   33.70    2.70
  -5   0  -7  182.18    7.70
   0   5  -7  185.58    8.70
   5  -5  -7  191.08    8.00
  -5   0  -7  198.18    7.90
   5   0   7  202.28    7.90
  -5   1  -7   63.99    3.60
   4  -5  -7   63.19    3.70
  -5   1  -7   65.69    3.70
   1   4  -7   59.59    4.40
   5  -1   7   62.89    3.60
  -5   2  -7   62.99    3.60
   3  -5  -7   60.29    3.70
   2   3  -7   56.79    4.20
  -5   2  -7   61.39    3.50
  -3   5   7   65.19    3.40
   5  -2   7   62.39    3.40
  -5   3  -7   63.09    3.70
  -5   3  -7   68.19    4.30
   2  -5  -7   68.99    3.70
  -5   3  -7   66.19    3.70
  -5   3  -7   64.29    3.60
   3   2  -7   63.89    4.30
  -2   5   7   63.29    3.50
  -5   4  -7   99.19    4.80
  -5   4  -7   96.39    4.50
  -5   4  -7   93.09    5.60
  -5   4  -7   93.29    4.80
   1  -5  -7  104.09    4.80
  -1   5   7   99.79    4.60
   0  -5  -7   37.70    2.90
  -5   5  -7   36.30    2.80
  -5   5  -7   42.00    4.10
  -5   5  -7   39.20    3.10
   0   5   7   41.70    3.00
  -1  -5  -7  188.48    7.80
  -5   6  -7  183.78    7.90
  -5   6  -7  175.78    7.70
  -1  -5  -7  178.08    7.60
  -5   6  -7  197.48    9.70
   1   5   7  195.68    7.80
  -5   7  -7   22.80    2.60
  -2  -5  -7   20.90    2.50
  -2  -5  -7   23.10    2.50
  -5   7  -7   24.70    2.50
  -5   7  -7   24.30    4.10
   2   5   7   23.80    2.50
  -3  -5  -7   20.90    2.50
  -5   8  -7   26.70    2.80
   8  -3  -7   21.20    3.10
  -5   8  -7   16.20    4.00
   3   5   7   21.20    2.60
   9  -4  -7   15.70    3.10
  -5   9  -7   13.30    2.60
  -5   9  -7   20.10    4.80
  -4  -5  -7   18.10    2.50
   4   5   7   14.50    2.50
  10  -5  -7   10.20    3.10
  -5  10  -7    6.40    2.60
  -5  10  -7    8.40    4.60
   5   5   7   10.60    2.70
  -4  10  -7    0.20    3.90
  10  -6  -7   -1.80    2.90
   6   4   7    1.40    2.30
  -3   9  -7    9.40    3.80
  -6  -3  -7    8.00    2.20
   9  -6  -7    8.70    3.30
   6   3   7    8.50    2.30
   8  -6  -7   -0.70    2.50
  -2   8  -7    0.20    2.70
  -6  -2  -7    1.40    1.80
   6   2   7    3.30    1.90
  -6  -1  -7   54.79    3.70
  -6  -1  -7   53.09    3.90
  -1   7  -7   54.89    5.20
   7  -6  -7   55.89    4.30
   6   1   7   54.89    4.00
  -6   0  -7    7.10    1.80
   6  -6  -7    5.10    2.20
  -6   0  -7    8.50    1.90
   0   6  -7    6.90    2.50
   6   0   7    8.60    2.00
   1   5  -7   34.60    3.60
   5  -6  -7   36.80    3.10
  -6   1  -7   43.10    3.20
  -6   1  -7   29.40    2.70
   6  -1   7   34.20    3.00
   2   4  -7   15.70    2.60
   4  -6  -7   16.60    2.30
  -6   2  -7   21.70    2.30
  -6   2  -7   18.20    2.20
   6  -2   7   18.60    2.20
  -4   6   7   19.00    2.10
  -6   3  -7   61.69    4.00
  -6   3  -7   65.09    3.90
   3   3  -7   64.29    4.50
   3  -6  -7   68.59    4.10
  -3   6   7   68.49    3.80
   6  -3   7   59.99    3.90
   2  -6  -7    0.90    1.60
  -6   4  -7    2.90    1.60
  -6   4  -7    1.30    1.60
   4   2  -7    1.10    1.80
  -6   4  -7    3.30    2.20
  -2   6   7    5.40    1.50
  -6   5  -7  198.98    9.50
  -6   5  -7  188.68    7.90
  -6   5  -7  184.28    8.00
   1  -6  -7  185.78    7.90
  -1   6   7  188.68    7.70
  -6   6  -7    8.80    1.90
  -6   6  -7   10.80    3.40
   0  -6  -7    9.70    2.00
  -6   6  -7   12.30    2.10
   0   6   7    7.20    1.80
  -1  -6  -7   24.00    2.50
  -6   7  -7   21.30    2.40
  -1  -6  -7   17.30    2.30
  -6   7  -7   17.90    4.10
  -6   7  -7   23.40    2.80
   1   6   7   20.80    2.50
  -6   8  -7    4.20    3.90
  -6   8  -7    2.60    2.10
  -2  -6  -7    1.30    1.80
   2   6   7    4.30    1.90
  -3  -6  -7   21.70    2.80
   9  -3  -7   25.50    3.50
  -6   9  -7   25.10    3.10
  -6   9  -7   20.80    5.30
   3   6   7   21.90    2.90
  -6  10  -7   -3.60    2.40
  -6  10  -7   -0.50    4.40
  10  -4  -7    0.30    2.40
   4   6   7   -1.10    2.20
  -2   9  -7   49.99    5.50
   9  -7  -7   47.70    4.90
   7   2   7   54.39    4.30
  -7  -1  -7   12.20    2.30
  -1   8  -7   15.50    3.50
   8  -7  -7   16.80    3.50
   7   1   7   14.20    2.70
  -7   0  -7   18.10    2.50
   0   7  -7   20.60    3.50
  -7   0  -7   19.10    2.40
   7  -7  -7   16.80    3.10
   7   0   7   16.10    2.60
  -7   1  -7   59.19    4.00
   1   6  -7   56.79    4.90
   6  -7  -7   53.89    4.40
  -7   1  -7   49.20    3.90
   7  -1   7   53.99    4.30
   2   5  -7   46.30    4.50
   5  -7  -7   55.49    4.20
  -7   2  -7   59.09    3.90
  -7   2  -7   47.60    3.90
   7  -2   7   55.19    4.30
  -5   7   7   55.49    4.50
  -7   3  -7   26.30    2.70
  -7   3  -7   26.90    2.90
   4  -7  -7   24.20    2.80
   3   4  -7   26.00    3.20
   7  -3   7   25.80    2.90
  -4   7   7   26.30    2.50
   3  -7  -7  156.08    7.10
  -7   4  -7  158.38    7.00
  -7   4  -7  150.38    7.00
  -7   4  -7  149.59    7.00
   4   3  -7  146.69    7.50
  -3   7   7  157.48    6.80
   2  -7  -7   23.60    2.70
  -7   5  -7   25.10    3.90
  -7   5  -7   23.60    2.80
  -7   5  -7   18.00    2.50
  -2   7   7   21.10    2.30
  -7   6  -7   23.80    2.60
   1  -7  -7   23.30    2.70
  -7   6  -7   22.50    2.70
  -7   6  -7   21.40    4.10
  -1   7   7   23.20    2.50
  -7   7  -7   14.00    2.20
  -7   7  -7   16.10    4.30
  -7   7  -7   16.40    2.60
   0  -7  -7   14.10    2.50
   0   7   7   18.00    2.40
  -7   8  -7   27.70    3.30
  -7   8  -7   19.00    5.10
   1   7   7   27.60    2.90
  -2  -7  -7    5.60    2.10
  -7   9  -7    6.50    4.80
  -7   9  -7    6.30    2.60
   2   7   7    3.70    2.20
   9  -8  -7    3.40    3.30
  -1   9  -7    9.20    3.80
   8   1   7    6.60    2.70
   0   8  -7    6.70    3.10
  -8   0  -7    2.50    2.50
   8  -8  -7    1.20    2.90
   8   0   7    3.20    2.60
  -8   1  -7   19.00    2.60
   7  -8  -7   11.10    3.20
   1   7  -7   16.90    3.50
  -8   1  -7   20.50    2.70
   8  -1   7   16.60    3.00
   6  -8  -7    1.60    2.50
  -8   2  -7    0.20    2.00
  -8   2  -7   -1.40    1.80
   8  -2   7    1.10    2.40
   5  -8  -7   87.09    5.90
  -8   3  -7   91.69    5.20
  -8   3  -7   83.19    5.40
  -5   8   7   87.89    4.90
   8  -3   7   83.29    5.80
   4  -8  -7    3.70    2.40
  -8   4  -7    5.80    2.40
  -8   4  -7    2.90    2.10
   8  -4   7    6.10    2.60
  -4   8   7    8.40    2.10
  -8   5  -7   19.00    2.60
  -8   5  -7   19.90    2.70
   3  -8  -7   19.30    3.00
  -8   5  -7   19.00    3.10
  -3   8   7   17.10    2.50
  -8   6  -7    5.00    1.90
   2  -8  -7    7.50    2.40
  -8   6  -7    2.70    2.00
  -2   8   7    4.00    1.90
  -8   7  -7   20.90    2.90
  -8   7  -7   23.80    2.70
  -8   7  -7   18.50    4.80
  -1   8   7   24.00    2.70
  -8   8  -7   -0.40    2.30
  -8   8  -7   -6.70    3.70
   0   8   7   -2.60    2.00
  -8   9  -7   63.29    5.00
   1   8   7   68.99    5.20
   8  -9  -7    6.40    3.60
   9  -1   7    7.30    3.10
  -9   2  -7   53.99    4.10
   7  -9  -7   46.90    5.00
   9  -2   7   53.59    4.90
   6  -9  -7    8.30    3.20
  -9   3  -7    5.20    2.30
  -9   3  -7   12.80    2.80
   9  -3   7    5.90    3.00
  -9   4  -7   15.60    3.10
   5  -9  -7   12.90    3.30
  -9   4  -7   10.80    2.50
   9  -4   7   10.20    3.10
  -5   9   7   13.30    2.60
  -9   5  -7   13.00    3.10
  -9   5  -7   16.60    2.90
   4  -9  -7   14.40    3.10
  -4   9   7   16.30    2.60
  -9   6  -7   19.90    2.90
  -9   6  -7   25.60    3.30
   3  -9  -7   21.50    3.30
  -9   6  -7   21.00    2.90
  -3   9   7   27.20    3.10
  -9   7  -7    8.80    2.60
  -2   9   7    6.90    2.30
  -9   8  -7   46.10    6.90
  -9   8  -7   62.79    4.80
  -1   9   7   65.39    5.00
   6 -10  -7    0.70    3.30
 -10   4  -7    1.20    2.40
  -6  10   7    2.20    2.40
  10  -4   7    5.00    3.20
 -10   5  -7   11.90    2.80
   5 -10  -7   12.70    3.70
  -5  10   7   19.30    3.00
 -10   6  -7    0.40    2.50
  -4  10   7   -0.60    2.30
   0   0  -8  375.96   13.70
   0   0  -8  383.86   14.70
   0   0  -8  383.56   13.80
   1  -1  -8  189.58    7.30
   0   1  -8  196.88    7.40
   1  -1  -8  190.68    7.20
  -1   0  -8  191.38    7.40
   0   1  -8  195.28    7.20
  -1   0  -8  188.48    8.10
  -1   0  -8  172.98    7.30
   0   1  -8  193.88    8.30
  -1   0  -8  202.48    7.50
  -1   1  -8    9.00    1.30
   1   0  -8   10.90    2.10
   1   0  -8   10.90    1.30
   1   0  -8   12.80    1.30
  -1   1  -8   11.80    1.30
   0  -1  -8   10.40    1.40
  -1   1  -8    9.40    1.90
   0  -1  -8    9.30    1.30
  -1   1  -8    9.40    1.40
   0  -1  -8   12.20    1.50
  -1   2  -8   83.99    3.70
  -1  -1  -8   84.89    4.10
  -1   2  -8   90.59    4.10
  -1  -1  -8   78.29    4.00
  -1   2  -8   86.69    4.90
   2  -1  -8   84.29    3.70
  -1   2  -8   89.39    3.70
  -1   3  -8  237.58    8.80
  -2  -1  -8  221.18    8.70
  -2  -1  -8  227.88    8.80
  -1   3  -8  228.48    9.60
   3  -2  -8  215.48    8.40
   2   1   8  222.18    8.50
   2  -2  -8   10.30    1.30
  -2   0  -8   10.20    1.90
   2  -2  -8    9.60    1.20
  -2   0  -8    9.80    1.50
   0   2  -8   10.60    1.50
   0   2  -8    9.20    2.10
  -2   0  -8   11.50    1.50
  -2   1  -8   83.99    4.70
   1   1  -8   87.09    4.90
  -2   1  -8   85.99    3.90
   1  -2  -8   83.49    3.80
  -2   1  -8   90.69    4.20
   1  -2  -8   81.39    3.90
  -2   1  -8   86.69    3.90
  -2   2  -8 1367.36   47.10
  -2   2  -8 1363.76   46.80
  -2   2  -8 1380.76   46.80
   0  -2  -8 1294.37   46.90
  -2   2  -8 1311.97   47.70
   2   0  -8 1382.66   48.00
   0  -2  -8 1356.76   47.00
  -1  -2  -8    6.80    1.50
  -2   3  -8    9.60    1.60
  -1  -2  -8    6.50    1.50
  -2   3  -8    6.70    1.90
  -2   3  -8    9.00    1.30
   3  -1  -8    8.60    1.10
   1   2   8    6.90    1.30
  -2  -2  -8  189.18    7.60
  -2   4  -8  188.28    7.30
   4  -2  -8  185.78    7.20
  -2   4  -8  191.28    7.70
  -2  -2  -8  183.98    7.60
  -2   4  -8  188.08    8.50
   2   2   8  190.18    7.50
  -3  -2  -8   51.59    3.50
  -2   5  -8   54.09    4.50
  -3  -2  -8   43.50    3.20
   5  -3  -8   55.29    3.20
   3   2   8   49.80    3.20
  -3  -1  -8   -0.80    1.30
   4  -3  -8    3.00    1.20
  -1   4  -8    2.40    1.80
  -3  -1  -8   -0.50    1.30
   3   1   8    2.30    1.30
  -3   0  -8   67.69    3.60
   3  -3  -8   60.69    3.20
  -3   0  -8   58.39    3.30
   0   3  -8   61.19    4.30
   3   0   8   54.59    3.10
  -3   1  -8  218.08    8.40
  -3   1  -8  216.58    8.40
   2  -3  -8  218.98    8.40
  -3   1  -8  215.38    9.00
   1   2  -8  219.98    9.40
  -3   2  -8    8.50    1.40
  -3   2  -8    8.10    1.70
   1  -3  -8    7.40    1.40
  -3   2  -8    9.00    1.90
  -3   2  -8    5.80    1.40
   2   1  -8    5.90    2.00
  -3   3  -8   71.89    4.50
   0  -3  -8   70.69    3.80
   0  -3  -8   74.49    3.80
  -3   3  -8   71.39    3.80
  -3   3  -8   65.69    3.60
   0   3   8   68.89    3.50
  -1  -3  -8   83.19    4.30
  -3   4  -8   79.99    5.20
  -3   4  -8   81.19    4.30
  -3   4  -8   94.99    4.20
  -1  -3  -8   78.89    4.20
   1   3   8   81.19    4.00
  -2  -3  -8    3.00    1.60
  -3   5  -8   -0.80    2.00
  -3   5  -8   -0.40    1.40
  -3   5  -8    3.50    1.50
   5  -2  -8    0.20    1.20
  -2  -3  -8    0.90    1.40
   2   3   8    0.00    1.20
  -3   6  -8   35.80    4.10
  -3  -3  -8   31.60    2.70
   6  -3  -8   40.90    3.10
  -3  -3  -8   30.60    2.80
   3   3   8   29.20    2.70
  -4  -3  -8   96.09    5.00
  -4  -3  -8   94.69    5.20
  -3   7  -8   98.09    7.00
   7  -4  -8  103.99    5.60
   4   3   8   95.99    5.20
  -4  -2  -8   11.70    2.20
   6  -4  -8   15.40    2.20
  -4  -2  -8    9.80    1.80
  -2   6  -8   13.20    2.90
   4   2   8   10.80    2.00
  -4  -1  -8   47.20    3.40
  -4  -1  -8   45.70    3.20
  -1   5  -8   43.70    4.20
   5  -4  -8   51.09    3.30
   4   1   8   43.90    3.20
   4  -4  -8  701.93   24.60
  -4   0  -8  707.23   24.70
   0   4  -8  703.23   25.70
  -4   0  -8  656.43   24.60
   4   0   8  680.83   24.50
   1   3  -8    0.10    1.80
  -4   1  -8    3.10    1.30
   3  -4  -8    0.50    1.30
  -4   1  -8    0.70    1.40
   4  -1   8    1.50    1.20
  -4   2  -8  201.78    7.80
  -4   2  -8  190.28    8.30
   2   2  -8  192.98    8.70
  -4   2  -8  184.08    7.60
   2  -4  -8  199.78    7.80
   1  -4  -8   85.39    4.20
  -4   3  -8   82.39    4.20
  -4   3  -8   80.79    4.40
   3   1  -8   83.09    5.20
  -4   3  -8   81.59    4.90
  -4   3  -8   77.39    3.90
  -4   3  -8   85.09    4.20
  -1   4   8   83.09    4.00
   0  -4  -8   13.30    1.80
   0  -4  -8    9.50    1.80
  -4   4  -8   12.90    1.90
  -4   4  -8   10.10    2.40
  -4   4  -8   12.50    1.80
   0   4   8   14.20    1.80
  -4   5  -8   36.20    2.90
  -1  -4  -8   39.80    3.00
  -4   5  -8   45.40    4.60
  -4   5  -8   38.70    3.10
  -1  -4  -8   43.50    3.30
   1   4   8   39.00    3.00
  -2  -4  -8  435.16   15.90
  -4   6  -8  422.96   15.90
  -2  -4  -8  425.16   16.00
  -4   6  -8  418.06   16.00
  -4   6  -8  439.96   17.60
   2   4   8  424.26   15.90
  -3  -4  -8    1.20    1.70
   7  -3  -8    2.30    2.00
  -4   7  -8    1.50    2.80
  -4   7  -8    3.50    1.80
  -3  -4  -8   -0.30    1.80
   3   4   8    0.50    1.80
  -4  -4  -8   50.09    3.70
  -4  -4  -8   50.29    4.10
   8  -4  -8   55.29    4.50
  -4   8  -8   47.20    5.60
   4   4   8   53.89    3.90
   9  -5  -8    8.70    3.20
  -4   9  -8   12.60    4.30
   5   4   8    7.40    2.50
   8  -5  -8    2.30    2.60
  -5  -3  -8   -3.00    1.80
  -3   8  -8    2.60    3.10
  -5  -3  -8   -0.70    1.80
   5   3   8   -2.50    1.80
  -2   7  -8   24.60    3.90
  -5  -2  -8   20.70    2.60
  -5  -2  -8   19.60    2.40
   7  -5  -8   23.10    3.00
   5   2   8   19.30    2.50
  -1   6  -8   66.69    5.40
  -5  -1  -8   63.39    4.00
   6  -5  -8   68.99    4.40
  -5  -1  -8   67.29    4.10
   5   1   8   60.99    4.00
  -5   0  -8    3.10    1.70
   5  -5  -8    0.90    1.60
  -5   0  -8    1.20    1.50
   0   5  -8    2.90    2.10
   5   0   8   -0.80    1.30
  -5   1  -8   44.90    3.40
  -5   1  -8   47.90    3.20
   4  -5  -8   44.30    3.40
   1   4  -8   47.60    4.30
   5  -1   8   43.60    3.20
  -5   2  -8   52.99    3.30
   2   3  -8   54.79    4.40
  -5   2  -8   50.49    3.50
   3  -5  -8   47.90    3.50
  -5   3  -8   -0.30    1.80
  -5   3  -8    2.00    1.50
   3   2  -8   -0.70    1.80
  -5   3  -8    1.50    1.40
   2  -5  -8    0.90    1.50
  -2   5   8   -0.80    1.20
  -5   4  -8   38.90    3.10
   1  -5  -8   38.50    2.90
  -5   4  -8   44.30    4.30
  -5   4  -8   35.40    2.90
  -1   5   8   39.90    3.00
  -5   5  -8  195.68    8.10
  -5   5  -8  187.18    9.20
  -5   5  -8  181.38    7.90
   0  -5  -8  188.08    7.90
   0   5   8  184.18    7.70
  -1  -5  -8   -0.80    1.70
  -5   6  -8    2.20    2.70
  -1  -5  -8   -0.50    1.60
  -5   6  -8   -1.10    1.70
  -5   6  -8   -1.00    1.50
   1   5   8    0.30    1.50
  -2  -5  -8   23.40    2.60
  -2  -5  -8   28.50    2.80
  -5   7  -8   22.90    2.60
  -5   7  -8   24.40    4.20
  -5   7  -8   25.10    2.80
   2   5   8   22.70    2.50
  -5   8  -8   17.80    4.30
  -3  -5  -8   14.20    2.50
  -5   8  -8   20.60    2.70
  -3  -5  -8   14.20    2.50
   3   5   8   17.70    2.50
   9  -4  -8    4.10    2.80
  -4  -5  -8    6.50    2.80
  -5   9  -8    4.10    2.40
  -5   9  -8    4.70    3.90
   4   5   8    2.10    2.30
  -3   9  -8   13.50    4.20
   9  -6  -8   18.60    3.70
   6   3   8    9.70    2.60
  -6  -2  -8  135.89    6.60
   8  -6  -8  148.99    7.90
  -2   8  -8  138.89    8.60
  -6  -2  -8  138.59    6.60
   6   2   8  127.89    6.80
   7  -6  -8    0.70    2.40
  -6  -1  -8   -2.70    1.60
  -1   7  -8    4.40    2.80
  -6  -1  -8    0.50    1.80
   6   1   8    2.60    1.90
  -6   0  -8   76.19    4.70
   0   6  -8   83.39    5.90
  -6   0  -8   78.89    4.60
   6  -6  -8   82.99    5.20
   6   0   8   78.49    4.70
   1   5  -8   65.89    5.20
  -6   1  -8   70.19    4.30
   5  -6  -8   62.99    4.40
  -6   1  -8   65.09    4.10
   6  -1   8   65.39    4.20
  -6   2  -8   14.40    2.20
   2   4  -8   13.00    2.70
   4  -6  -8   12.50    2.20
  -6   2  -8   12.30    2.10
   6  -2   8   14.10    2.10
   3   3  -8   37.70    3.80
  -6   3  -8   33.20    2.90
   3  -6  -8   35.70    3.10
  -6   3  -8   34.00    2.90
  -3   6   8   39.10    3.10
   2  -6  -8  417.16   16.30
  -6   4  -8  441.86   16.30
  -6   4  -8  437.86   17.20
   4   2  -8  426.36   17.30
  -6   4  -8  437.06   16.30
  -6   4  -8  441.96   16.30
  -2   6   8  452.65   16.10
  -6   5  -8    1.00    1.80
   1  -6  -8    1.00    1.80
  -6   5  -8    0.10    1.70
  -6   5  -8    2.90    2.70
  -1   6   8   -1.40    1.40
  -6   6  -8   74.29    4.80
  -6   6  -8   76.29    4.60
   0  -6  -8   78.89    4.70
  -6   6  -8   80.39    6.70
   0   6   8   76.49    4.50
  -6   7  -8   14.60    2.60
  -6   7  -8   14.20    2.30
  -6   7  -8   13.70    4.00
  -1  -6  -8   16.90    2.30
  -1  -6  -8   18.60    2.50
   1   6   8   17.40    2.40
  -6   8  -8    5.10    4.00
  -6   8  -8   14.20    2.70
  -2  -6  -8   12.00    2.40
   2   6   8   11.60    2.40
  -6   9  -8    4.80    4.20
  -6   9  -8    8.50    2.70
   3   6   8    7.90    2.50
   9  -7  -8    1.70    3.10
  -2   9  -8   -2.20    3.30
   7   2   8   -0.30    2.30
   8  -7  -8   15.60    3.50
  -7  -1  -8   13.70    2.60
  -7  -1  -8   16.00    3.20
  -1   8  -8   11.20    3.70
   7   1   8   11.60    2.70
   0   7  -8   28.20    4.00
  -7   0  -8   25.60    3.00
  -7   0  -8   22.40    2.80
   7  -7  -8   22.50    3.40
   7   0   8   17.50    2.90
  -7   1  -8    0.50    1.80
   6  -7  -8    6.10    2.50
   1   6  -8    1.80    2.50
  -7   1  -8    1.60    1.90
   7  -1   8    2.00    2.00
  -7   2  -8   21.00    2.80
   2   5  -8   20.60    3.30
  -7   2  -8   24.00    2.70
   5  -7  -8   23.80    3.00
   7  -2   8   19.40    2.80
  -7   3  -8   98.09    5.60
  -7   3  -8  109.89    5.60
   4  -7  -8  103.39    5.80
   3   4  -8  104.09    6.50
   3  -7  -8   -1.30    1.90
   4   3  -8   -1.10    2.10
  -7   4  -8   -0.60    2.00
  -7   4  -8   -2.00    1.80
  -3   7   8   -1.90    1.60
  -7   5  -8   25.80    2.90
   2  -7  -8   26.50    3.00
  -7   5  -8   27.00    2.80
  -7   5  -8   26.00    2.90
  -2   7   8   23.40    2.60
  -7   6  -8   15.90    2.50
  -7   6  -8   18.90    4.10
  -7   6  -8   15.80    2.60
   1  -7  -8   15.20    2.60
  -1   7   8   15.50    2.30
   0  -7  -8    2.80    2.20
  -7   7  -8    3.90    3.70
  -7   7  -8    2.10    1.90
  -7   7  -8    6.90    2.40
   0   7   8    1.60    1.90
  -7   8  -8   12.30    2.80
  -7   8  -8    9.40    2.30
  -7   8  -8    8.90    4.60
   1   7   8   12.20    2.60
  -7   9  -8   39.70    6.60
  -7   9  -8   59.29    4.80
   2   7   8   69.49    4.70
   0   8  -8   11.70    4.60
   8  -8  -8    8.00    3.40
   8   0   8    8.70    2.90
   1   7  -8   17.60    3.60
   7  -8  -8   12.50    3.40
  -8   1  -8   15.60    2.60
  -8   1  -8   14.40    3.50
   8  -1   8   19.50    3.30
   2   6  -8  148.39    8.20
  -8   2  -8  133.59    7.30
  -8   2  -8  141.29    7.00
   6  -8  -8  155.08    7.90
   8  -2   8  144.89    7.60
  -8   3  -8    0.90    2.00
   5  -8  -8    0.60    2.50
  -8   3  -8    3.00    2.30
   8  -3   8   -2.80    2.60
  -8   4  -8   47.00    4.10
  -8   4  -8   51.79    4.00
   4  -8  -8   54.49    4.40
  -4   8   8   47.70    3.70
  -8   5  -8   16.90    2.80
  -8   5  -8   17.00    2.70
  -8   5  -8   19.40    3.50
   3  -8  -8   16.20    3.00
  -3   8   8   23.30    2.80
  -8   6  -8    8.80    2.50
  -8   6  -8    7.90    2.30
   2  -8  -8   12.30    2.70
  -2   8   8    8.60    2.20
  -8   7  -8    8.00    4.20
   1  -8  -8   12.70    2.70
  -8   7  -8    8.80    2.70
  -8   7  -8    9.00    2.30
  -1   8   8    9.60    2.40
  -8   8  -8  117.19    7.10
   0   8   8  124.29    6.70
   7  -9  -8   -6.50    2.90
  -9   2  -8    3.00    2.40
   9  -2   8    2.70    3.00
  -9   3  -8    8.70    2.60
   6  -9  -8    8.40    3.40
   9  -3   8   10.20    3.40
   5  -9  -8   10.10    3.30
  -9   4  -8   13.10    3.90
  -9   4  -8   15.00    2.90
   4  -9  -8    4.40    2.80
  -9   5  -8   -0.10    2.70
  -9   5  -8    4.40    2.50
  -4   9   8    3.80    2.30
  -9   6  -8    9.50    2.60
  -9   6  -8   13.00    2.90
  -9   6  -8    6.00    2.50
   3  -9  -8   11.70    3.10
  -3   9   8   14.90    2.80
  -9   7  -8   65.99    4.90
  -9   7  -8   59.19    4.70
  -2   9   8   63.29    5.10
   0   0  -9   46.20    4.10
   0   0  -9   49.70    3.00
   0   0  -9   45.00    2.80
   1  -1  -9  128.89    5.40
  -1   0  -9  122.99    5.50
   0   1  -9  137.39    5.60
  -1   0  -9  126.59    6.50
   0   1  -9  134.19    5.30
   1  -1  -9  121.79    5.40
  -1   0  -9  127.69    5.50
   0   1  -9  141.29    6.70
  -1   0  -9  133.89    5.70
  -1   1  -9  103.09    5.60
  -1   1  -9  101.49    4.50
   1   0  -9  110.69    6.00
  -1   1  -9  100.89    4.50
  -1   1  -9  106.99    4.90
   1   0  -9  102.69    4.40
   0  -1  -9  105.79    4.70
   1   0  -9  101.89    4.70
   0  -1  -9  105.19    4.60
  -1  -1  -9  183.88    7.50
  -1   2  -9  190.18    8.40
  -1   2  -9  184.38    7.20
  -1  -1  -9  175.98    7.40
  -1   2  -9  194.18    7.60
   2  -1  -9  185.68    7.10
   3  -2  -9   67.09    3.50
  -2  -1  -9   69.99    3.90
  -2  -1  -9   71.69    3.90
  -1   3  -9   69.39    3.90
  -1   3  -9   73.69    4.80
   0   2  -9   12.20    2.50
  -2   0  -9   15.30    2.40
  -2   0  -9   16.30    1.90
  -2   0  -9   16.60    1.90
   2  -2  -9   10.20    1.50
   1  -2  -9  187.18    7.40
  -2   1  -9  181.28    7.40
   1   1  -9  200.18    8.60
  -2   1  -9  187.98    7.60
   1  -2  -9  184.38    7.30
  -2   1  -9  191.88    7.40
  -2   1  -9  173.38    8.20
  -2   2  -9   31.30    3.10
   0  -2  -9   31.90    2.30
  -2   2  -9   33.80    2.60
   0  -2  -9   29.20    2.30
  -2   2  -9   32.80    3.20
  -2   2  -9   27.00    2.20
  -1  -2  -9   71.99    4.00
  -2   3  -9   75.39    5.10
   3  -1  -9   74.79    3.50
  -2   3  -9   72.09    4.10
  -1  -2  -9   82.49    4.20
  -2   3  -9   74.49    3.80
  -2   3  -9   79.59    3.80
  -2  -2  -9   12.40    2.00
  -2  -2  -9   13.30    2.00
  -2   4  -9   12.50    1.90
   4  -2  -9   10.10    1.50
  -2   4  -9   10.90    2.50
   2   2   9   12.20    1.70
   5  -3  -9   58.19    3.50
  -3  -2  -9   56.49    3.60
  -2   5  -9   55.79    4.90
  -3  -2  -9   57.59    4.00
   3   2   9   53.69    3.60
  -3  -1  -9   46.40    3.30
  -3  -1  -9   55.69    3.50
   4  -3  -9   52.39    3.20
  -1   4  -9   50.79    4.60
   3   1   9   53.79    3.20
   0   3  -9  216.48    9.20
  -3   0  -9  190.28    7.90
  -3   0  -9  203.28    8.10
   3  -3  -9  187.18    7.80
  -3   1  -9   66.89    3.70
  -3   1  -9   68.19    4.60
   1   2  -9   79.09    5.10
   2  -3  -9   70.29    3.70
  -3   1  -9   69.69    3.80
   1  -3  -9   71.79    3.90
  -3   2  -9   70.59    3.90
  -3   2  -9   75.49    4.70
  -3   2  -9   71.49    4.10
   2   1  -9   74.69    5.10
  -3   2  -9   76.09    3.70
   0  -3  -9   74.09    4.10
  -3   3  -9   75.59    4.00
  -3   3  -9   72.19    3.90
  -3   3  -9   77.09    5.00
  -3   3  -9   81.89    4.30
  -3   4  -9   61.69    3.70
  -3   4  -9   61.69    4.90
  -1  -3  -9   62.29    3.80
  -3   4  -9   58.59    4.00
  -1  -3  -9   60.89    3.80
   1   3   9   64.89    3.60
  -2  -3  -9   36.70    2.90
  -3   5  -9   38.40    2.80
  -3   5  -9   35.10    3.00
  -2  -3  -9   34.30    2.90
  -3   5  -9   32.30    3.80
   2   3   9   33.30    2.70
  -3   6  -9  106.29    6.90
   6  -3  -9  105.39    5.20
  -3  -3  -9   97.79    5.20
  -3  -3  -9  110.09    5.50
   3   3   9   98.49    5.20
  -4  -3  -9   16.20    2.50
  -4  -3  -9   14.50    2.30
   7  -4  -9   12.60    2.60
  -3   7  -9   15.60    3.60
   4   3   9   19.60    2.50
   6  -4  -9    3.10    1.80
  -2   6  -9    1.60    2.50
  -4  -2  -9    4.80    2.10
  -4  -2  -9    4.00    1.80
   4   2   9    2.20    1.70
   5  -4  -9   60.69    3.80
  -4  -1  -9   62.89    4.00
  -1   5  -9   65.49    5.20
  -4  -1  -9   59.99    3.70
   4   1   9   59.39    3.80
   4  -4  -9   14.10    2.00
  -4   0  -9   15.50    2.10
  -4   0  -9   15.50    2.10
   0   4  -9   16.40    2.90
   3  -4  -9   56.29    3.50
   1   3  -9   54.59    4.80
  -4   1  -9   49.70    3.30
  -4   1  -9   55.39    3.60
  -4   2  -9   10.90    1.70
   2   2  -9   16.20    2.80
   2  -4  -9   10.10    1.80
  -4   2  -9   15.50    2.50
  -4   2  -9   10.90    1.90
  -4   3  -9   63.19    4.00
   3   1  -9   63.59    4.90
   1  -4  -9   61.79    3.80
  -4   3  -9   68.09    4.70
  -4   3  -9   59.69    3.80
  -4   4  -9    6.50    2.40
  -4   4  -9    9.40    1.90
  -4   4  -9    3.40    1.80
   0  -4  -9    7.40    1.80
   0   4   9    6.00    1.60
  -4   5  -9  153.98    7.00
  -1  -4  -9  154.08    7.00
  -1  -4  -9  160.28    6.90
  -4   5  -9  156.78    6.90
  -4   5  -9  157.58    8.30
   1   4   9  148.09    6.70
  -2  -4  -9    7.40    2.00
  -4   6  -9   11.30    3.20
  -2  -4  -9    7.00    2.10
  -4   6  -9   12.60    2.20
  -4   6  -9    6.90    2.00
   2   4   9    4.30    1.80
  -3  -4  -9   21.50    2.60
  -4   7  -9   27.00    4.10
  -3  -4  -9   18.90    2.60
   3   4   9   19.10    2.60
  -4  -4  -9    1.70    1.90
   8  -4  -9    4.40    2.60
  -4  -4  -9    2.00    2.10
  -4   8  -9    0.10    3.20
   4   4   9    2.60    2.20
   8  -5  -9   11.80    3.00
  -5  -3  -9   10.50    3.70
  -5  -3  -9   11.00    2.50
  -3   8  -9   17.20    4.10
   5   3   9   13.80    2.70
   7  -5  -9   85.69    5.60
  -2   7  -9   79.89    6.60
  -5  -2  -9   75.79    4.80
  -5  -2  -9   84.49    5.10
   5   2   9   80.79    5.00
   6  -5  -9   21.50    2.80
  -5  -1  -9   20.80    2.60
  -5  -1  -9   24.60    2.60
  -1   6  -9   22.40    3.70
   5   1   9   20.40    2.50
   5  -5  -9   36.40    3.10
   0   5  -9   35.20    3.90
  -5   0  -9   38.80    3.10
  -5   0  -9   38.10    3.00
   5   0   9   33.70    2.90
  -5   1  -9   55.49    3.80
   4  -5  -9   62.59    4.10
  -5   1  -9   73.39    4.20
   1   4  -9   68.39    5.30
  -5   2  -9   56.89    3.60
   2   3  -9   61.69    5.00
  -5   2  -9   57.69    3.90
   3  -5  -9   55.19    3.90
  -5   3  -9   35.60    3.60
  -5   3  -9   37.20    3.00
  -5   3  -9   33.10    3.10
   3   2  -9   41.40    4.20
  -5   3  -9   39.60    3.10
   2  -5  -9   37.40    3.00
  -5   4  -9  155.88    7.00
  -5   4  -9  158.68    8.00
  -5   4  -9  158.28    7.00
  -5   4  -9  151.38    7.10
   1  -5  -9  157.48    7.00
  -1   5   9  154.28    6.70
  -5   5  -9   23.30    2.70
  -5   5  -9   23.50    3.70
   0  -5  -9   29.80    2.90
  -5   5  -9   24.00    2.70
   0   5   9   24.50    2.50
  -5   6  -9   32.80    4.40
  -1  -5  -9   29.60    2.80
  -5   6  -9   29.60    2.90
  -5   6  -9   29.20    3.00
  -1  -5  -9   24.80    2.90
   1   5   9   24.30    2.60
  -2  -5  -9   13.30    2.40
  -5   7  -9   16.50    2.60
  -2  -5  -9   19.10    2.70
  -5   7  -9   14.00    3.90
  -5   7  -9   15.00    2.60
   2   5   9   19.50    2.60
  -5   8  -9   17.00    2.90
  -3  -5  -9   15.50    2.70
  -3  -5  -9   14.70    2.60
  -5   8  -9   21.60    4.70
   3   5   9   14.80    2.60
   8  -6  -9    2.50    2.90
  -2   8  -9   -0.50    3.20
  -6  -2  -9    3.30    2.20
   6   2   9    1.80    2.30
  -6  -1  -9   16.40    2.60
  -6  -1  -9   10.20    2.20
   7  -6  -9   10.90    3.00
  -1   7  -9   11.80    3.40
   6   1   9   15.20    2.60
   0   6  -9    2.60    2.80
   6  -6  -9    0.30    2.20
  -6   0  -9    2.20    2.00
  -6   0  -9    3.20    1.80
   6   0   9    1.00    1.80
   1   5  -9   22.70    3.60
   5  -6  -9   22.80    2.80
  -6   1  -9   23.70    2.80
  -6   1  -9   23.60    2.60
  -6   2  -9    6.60    2.00
   4  -6  -9    6.60    2.10
  -6   2  -9    3.50    1.90
   2   4  -9    5.60    2.60
   3   3  -9  108.79    6.70
  -6   3  -9  110.49    5.70
   3  -6  -9  109.79    5.80
  -6   3  -9   99.59    5.40
  -6   4  -9    6.90    2.20
   2  -6  -9   11.70    2.30
  -6   4  -9   10.50    2.30
   1  -6  -9   27.00    2.90
  -6   5  -9   24.90    2.90
  -6   5  -9   26.20    2.90
  -6   5  -9   31.20    4.10
  -1   6   9   29.30    2.70
   0  -6  -9    4.40    2.10
  -6   6  -9    0.50    1.90
  -6   6  -9    1.30    2.20
  -6   6  -9    1.90    3.10
   0   6   9    4.50    1.90
  -6   7  -9   19.40    4.40
  -6   7  -9   23.40    2.90
  -6   7  -9   20.30    3.10
  -1  -6  -9   21.70    2.80
   1   6   9   26.80    2.90
  -2  -6  -9    2.80    2.20
  -6   8  -9    2.30    3.80
  -6   8  -9    0.50    2.40
   2   6   9    3.10    2.20
  -1   8  -9   38.00    5.00
   8  -7  -9   26.50    4.00
  -7  -1  -9   31.70    3.40
   7   1   9   34.70    3.80
   0   7  -9   18.60    3.90
  -7   0  -9   17.60    2.80
   7  -7  -9   15.30    3.20
   7   0   9   18.00    2.80
   6  -7  -9   19.00    3.20
  -7   1  -9   16.10    2.70
   1   6  -9   16.40    3.60
  -7   1  -9   16.90    2.60
   7  -1   9   14.10    2.70
   2   5  -9   93.59    6.90
  -7   2  -9   85.59    5.30
  -7   2  -9   93.39    5.40
   5  -7  -9   83.69    5.70
  -7   3  -9    8.90    2.40
   4  -7  -9   11.80    2.60
   3   4  -9   14.60    3.20
  -7   3  -9   14.60    2.60
   3  -7  -9   19.80    2.90
  -7   4  -9   26.00    3.00
   4   3  -9   26.90    3.80
  -7   4  -9   23.30    2.90
  -7   5  -9   17.40    2.80
   2  -7  -9   20.20    2.90
  -7   5  -9   16.70    2.70
  -7   5  -9   18.80    2.90
  -2   7   9   20.60    2.60
   1  -7  -9   24.60    3.10
  -7   6  -9   24.90    4.40
  -7   6  -9   27.60    3.20
  -7   6  -9   22.40    3.00
  -1   7   9   24.10    2.70
  -7   7  -9   13.40    4.40
   0  -7  -9    9.80    2.60
  -7   7  -9    8.50    2.40
  -7   7  -9   11.00    2.80
   0   7   9   11.00    2.50
  -7   8  -9   55.99    7.10
  -7   8  -9   57.99    4.40
  -7   8  -9   84.49    5.90
   1   7   9   76.29    5.30
  -8   1  -9   46.40    3.80
   7  -8  -9   28.50    4.10
   1   7  -9   32.80    4.60
   8  -1   9   37.10    4.00
   2   6  -9    5.00    3.20
  -8   2  -9    3.50    2.40
   6  -8  -9    5.70    3.10
  -8   3  -9   14.50    2.70
   5  -8  -9   11.60    3.10
  -8   3  -9   14.70    2.90
   3   5  -9   11.10    3.30
  -8   4  -9    1.10    2.40
  -8   4  -9   -0.40    2.20
   4  -8  -9    4.20    2.60
  -8   5  -9   19.60    3.10
   3  -8  -9   15.90    3.10
  -8   5  -9   17.10    3.00
  -3   8   9   15.30    3.50
  -8   6  -9    3.40    2.50
  -8   6  -9    1.40    2.50
   2  -8  -9   -5.10    2.20
  -8   6  -9    1.60    2.20
  -2   8   9    3.60    2.20
   1  -8  -9   72.39    5.40
  -8   7  -9   62.69    4.90
  -8   7  -9   69.89    5.10
  -8   7  -9   60.29    7.00
  -1   8   9   61.49    4.50
   0   0 -10    3.30    1.40
   0   0 -10    5.00    1.50
   0   0 -10    2.00    2.10
   1  -1 -10   40.10    3.00
  -1   0 -10   46.10    4.30
   0   1 -10   49.80    3.30
  -1   0 -10   42.80    3.20
   0   1 -10   44.00    4.40
   0   1 -10   44.70    2.90
  -1   0 -10   42.40    3.20
   1  -1 -10   45.40    3.00
  -1   0 -10   46.50    3.10
  -1   1 -10  127.59    5.70
   1   0 -10  134.79    5.60
   0  -1 -10  134.79    5.80
   0  -1 -10  129.49    5.70
  -1   1 -10  136.49    7.10
   1   0 -10  137.19    7.30
  -1   1 -10  137.29    6.00
   1   0 -10  136.59    5.80
  -1   1 -10  131.59    5.70
  -1  -1 -10    6.40    1.70
   2  -1 -10    3.00    1.30
  -1   2 -10    4.40    1.40
  -1   2 -10    0.60    1.50
  -1   2 -10    5.30    2.30
  -1  -1 -10    1.20    1.50
  -1  -1 -10    2.60    1.50
  -2  -1 -10   36.70    2.90
  -1   3 -10   37.00    2.90
   3  -2 -10   33.20    2.50
  -2  -1 -10   34.80    2.90
  -1   3 -10   37.90    3.90
   0   2 -10  530.75   19.50
  -2   0 -10  485.65   18.20
   2  -2 -10  491.55   18.00
  -2   0 -10  516.95   19.30
  -2   0 -10  500.15   18.40
  -2   0 -10  478.75   18.20
  -2   1 -10    4.60    1.70
  -2   1 -10    1.40    1.40
   1  -2 -10    3.90    1.50
  -2   1 -10    3.10    1.50
  -2   1 -10    3.80    2.20
   1   1 -10    3.40    2.40
  -2   2 -10  112.59    5.50
  -2   2 -10  106.29    5.00
  -2   2 -10  110.69    6.30
   0  -2 -10  107.29    5.20
   0  -2 -10  114.69    5.10
  -2   3 -10   48.20    3.70
  -1  -2 -10   45.30    3.60
  -2   3 -10   51.19    3.10
  -1  -2 -10   50.19    3.50
  -2   3 -10   49.80    4.50
  -2  -2 -10    8.30    1.90
  -2   4 -10    4.80    1.80
  -2  -2 -10    3.40    1.80
   4  -2 -10    4.00    1.40
  -2   4 -10    4.00    2.40
  -3  -2 -10   17.90    2.50
   5  -3 -10   23.40    2.40
  -3  -2 -10   19.70    2.40
  -2   5 -10   25.70    3.80
  -1   4 -10   67.89    5.40
  -3  -1 -10   62.89    4.10
  -3  -1 -10   60.39    3.90
   4  -3 -10   62.09    3.70
   0   3 -10    2.70    2.40
  -3   0 -10    2.70    1.60
   3  -3 -10    1.80    1.40
  -3   0 -10    3.60    1.70
   1   2 -10   36.30    3.80
   2  -3 -10   31.50    2.60
  -3   1 -10   37.60    3.10
  -3   1 -10   34.30    2.80
  -3   1 -10   39.90    3.70
  -3   1 -10   37.30    2.90
  -3   2 -10   50.59    3.50
   1  -3 -10   55.49    3.50
  -3   2 -10   51.39    3.90
  -3   2 -10   48.70    4.50
   2   1 -10   44.40    4.60
  -3   3 -10   -2.20    1.60
   0  -3 -10    0.10    1.50
  -3   3 -10    2.30    1.50
  -3   3 -10    0.70    2.10
  -1  -3 -10   26.20    2.70
  -3   4 -10   28.20    3.60
  -3   4 -10   28.40    2.70
  -1  -3 -10   24.80    2.60
  -3   4 -10   31.60    2.60
  -3   4 -10   25.20    2.50
  -2  -3 -10   92.19    5.10
  -2  -3 -10   99.69    5.30
  -3   5 -10   97.19    6.30
  -3   5 -10   92.59    5.30
  -3   6 -10    1.40    2.60
  -3  -3 -10   -0.80    1.80
   6  -3 -10   -1.90    1.70
  -3  -3 -10   -2.40    2.00
   3   3  10   -1.60    1.70
  -3   7 -10    9.80    3.50
   7  -4 -10   18.10    2.80
  -4  -3 -10   17.80    2.60
  -4  -3 -10   13.90    2.70
   4   3  10   17.00    2.60
  -4  -2 -10  185.98    8.00
  -4  -2 -10  156.98    7.50
  -2   6 -10  171.48    9.10
   6  -4 -10  176.18    7.70
   4   2  10  170.08    7.70
  -4  -1 -10    0.60    1.80
   5  -4 -10    1.50    1.70
  -1   5 -10    0.60    2.40
  -4  -1 -10    1.30    1.70
  -4   0 -10   69.09    4.30
  -4   0 -10   65.09    4.10
   4  -4 -10   69.59    4.20
   0   4 -10   70.29    5.50
  -4   1 -10   61.69    4.10
   1   3 -10   66.19    5.20
   3  -4 -10   56.29    3.80
  -4   1 -10   59.29    3.70
  -4   2 -10    3.80    1.60
   2  -4 -10    5.30    1.70
  -4   2 -10    4.60    1.80
  -4   2 -10    3.90    2.30
   2   2 -10    6.30    2.50
  -4   2 -10    5.60    2.00
   1  -4 -10   28.10    2.70
  -4   3 -10   31.50    3.60
  -4   3 -10   30.70    2.90
  -4   3 -10   24.20    2.60
   0  -4 -10  294.77   11.70
  -4   4 -10  305.27   11.60
  -4   4 -10  304.27   11.90
  -4   4 -10  291.97   11.60
  -4   4 -10  286.97   12.80
  -4   5 -10    1.50    1.90
  -1  -4 -10    0.50    1.80
  -1  -4 -10    1.00    1.90
  -4   5 -10    1.10    2.50
  -4   5 -10   -1.30    1.80
  -4   6 -10   49.50    3.70
  -4   6 -10   45.60    5.00
  -4   6 -10   36.20    3.40
  -2  -4 -10   40.10    3.60
  -2  -4 -10   55.19    3.80
   2   4  10   42.00    3.30
  -3  -4 -10   10.70    2.40
  -4   7 -10    7.90    3.60
  -3  -4 -10   14.10    2.60
   3   4  10   10.60    2.30
  -4   8 -10    2.00    3.60
   8  -4 -10    6.00    2.90
  -4  -4 -10   10.10    2.60
   4   4  10    3.10    2.40
   8  -5 -10   17.20    3.40
  -5  -3 -10   15.30    2.80
  -3   8 -10    9.00    3.90
   5   3  10   16.90    2.90
   7  -5 -10    1.80    2.40
  -2   7 -10   -1.30    2.90
  -5  -2 -10    4.40    2.20
   5   2  10    0.80    2.00
  -1   6 -10   12.20    3.50
  -5  -1 -10   16.30    2.60
   6  -5 -10   13.60    2.60
  -5  -1 -10   16.60    2.40
   5  -5 -10   21.80    2.70
   0   5 -10   22.70    3.70
  -5   0 -10   22.10    2.70
  -5   0 -10   21.60    2.60
  -5   1 -10    1.90    1.70
  -5   1 -10   -0.60    1.80
   4  -5 -10    1.20    1.90
   1   4 -10   -5.10    2.10
   3  -5 -10   14.10    2.30
   2   3 -10   19.70    3.40
  -5   2 -10   18.20    2.40
  -5   2 -10   20.50    2.40
   2  -5 -10   93.29    5.20
  -5   3 -10   88.89    5.20
  -5   3 -10   98.09    5.70
   3   2 -10   96.89    6.40
   1  -5 -10   -0.40    1.90
  -5   4 -10    0.70    2.40
  -5   4 -10    0.90    1.90
  -5   4 -10   -2.70    1.80
  -5   5 -10   23.50    2.90
   0  -5 -10   20.90    2.80
  -5   5 -10   22.30    2.80
  -5   5 -10   23.90    2.80
  -5   5 -10   24.90    3.90
  -5   6 -10   12.50    2.40
  -5   6 -10   13.00    3.60
  -1  -5 -10   15.90    2.60
  -5   6 -10   17.80    2.80
   1   5  10   13.40    2.30
  -2  -5 -10    1.60    2.10
  -5   7 -10    1.70    2.40
  -2  -5 -10   -0.60    2.60
  -5   7 -10   -0.10    3.20
   2   5  10    3.00    2.00
  -5   8 -10    6.90    4.00
  -3  -5 -10    7.30    2.60
   3   5  10    9.70    2.60
   7  -6 -10   29.70    3.80
  -1   7 -10   34.70    4.80
  -6  -1 -10   38.10    3.50
   6   1  10   29.70    3.30
   6  -6 -10    1.50    2.40
  -6   0 -10    5.40    2.30
  -6   0 -10    4.50    2.00
   0   6 -10    4.10    3.10
   1   5 -10   19.30    3.80
  -6   1 -10   20.60    2.80
   5  -6 -10   17.80    2.80
  -6   1 -10   14.50    2.50
   2   4 -10  181.38    9.50
  -6   2 -10  180.48    7.90
  -6   2 -10  161.38    7.60
   4  -6 -10  169.88    8.00
  -6   3 -10    2.40    2.00
   3  -6 -10   -0.50    2.10
  -6   3 -10   -3.50    1.90
   3   3 -10   -3.30    2.40
  -6   4 -10   44.60    3.60
   2  -6 -10   39.50    3.60
  -6   4 -10   40.10    3.70
  -6   5 -10   13.90    3.50
  -6   5 -10   13.40    2.60
  -6   5 -10   17.00    2.90
  -6   5 -10   15.90    2.70
   1  -6 -10   15.90    2.70
  -6   6 -10    3.50    2.20
   0  -6 -10    6.20    2.40
  -6   6 -10    7.90    3.60
  -6   6 -10    4.80    2.50
   0   6  10    6.70    2.10
  -6   7 -10   13.50    2.60
  -6   7 -10   14.90    3.10
  -6   7 -10   11.10    4.10
  -1  -6 -10    9.50    2.60
   1   6  10    6.10    2.30
   7  -7 -10    7.10    3.20
   0   7 -10    8.90    3.70
  -7   0 -10    5.10    2.60
   1   6 -10   36.10    4.80
  -7   1 -10   38.00    3.60
   6  -7 -10   28.60    3.90
  -7   2 -10    3.30    2.20
   2   5 -10   -0.60    2.90
   5  -7 -10    4.40    2.60
  -7   2 -10    4.30    2.40
  -7   3 -10   16.30    2.80
  -7   3 -10   18.00    2.90
   3   4 -10   15.10    3.60
   4  -7 -10   18.70    3.00
  -7   4 -10   14.00    3.00
  -7   4 -10    6.60    2.50
   3  -7 -10   11.30    2.80
   2  -7 -10    0.10    2.30
  -7   5 -10    2.60    2.30
  -7   5 -10    0.40    2.40
  -7   6 -10    7.90    2.90
  -7   6 -10    8.80    2.80
  -7   6 -10    9.50    2.60
   1  -7 -10   10.00    2.80
  -7   6 -10   13.50    4.00
  -7   7 -10   48.00    4.20
   0  -7 -10   50.99    4.30
  -7   7 -10   57.59    6.50
  -7   7 -10   58.29    4.80
   0   7  10   58.99    4.80
  -8   3 -10   15.30    3.00
   3   5 -10   18.10    4.00
   5  -8 -10   14.60    3.40
   4  -8 -10    4.60    2.80
  -8   4 -10    4.50    2.70
   4   4 -10    6.20    3.30
   3  -8 -10   11.00    3.00
  -8   5 -10   10.70    2.80
  -8   5 -10    4.80    2.80
   0   0 -11   20.50    2.30
   0   0 -11   24.80    2.30
   1  -1 -11  125.29    5.60
  -1   0 -11  124.29    5.80
  -1   0 -11  121.49    7.10
   0   1 -11  128.19    7.40
   1  -1 -11  110.29    6.50
   0   1 -11  123.79    5.90
  -1   0 -11  121.29    6.00
   0   1 -11  140.89    6.00
  -1   1 -11   46.10    4.80
  -1   1 -11   46.90    3.40
   0  -1 -11   44.50    3.40
   0  -1 -11   43.50    3.40
  -1   1 -11   41.80    3.30
   1   0 -11   48.50    3.10
  -1   2 -11   59.89    5.00
  -1  -1 -11   55.99    3.80
  -1  -1 -11   50.19    3.60
  -1  -1 -11   52.39    3.80
  -1   2 -11   56.59    4.00
   2  -1 -11   51.59    3.30
  -1   2 -11   59.99    3.80
  -2  -1 -11   54.69    4.00
   3  -2 -11   55.29    3.50
  -2  -1 -11   50.79    3.80
  -1   3 -11   65.69    5.30
  -2  -1 -11   56.89    4.30
   0   2 -11   15.00    3.10
   2  -2 -11   12.60    1.90
  -2   0 -11   15.40    3.00
  -2   0 -11   10.40    2.00
  -2   0 -11   14.50    2.10
  -2   0 -11   16.40    2.30
  -2   1 -11   46.60    3.70
  -2   1 -11   51.49    4.90
   1   1 -11   61.39    5.40
  -2   1 -11   57.59    4.20
   1  -2 -11   58.19    3.70
  -2   1 -11   51.89    4.50
   0  -2 -11    3.10    1.70
  -2   2 -11    0.30    1.80
  -2   2 -11    3.00    1.60
  -2   2 -11    2.00    2.40
  -1  -2 -11   34.50    2.90
  -2   3 -11   37.30    4.10
  -1  -2 -11   35.80    3.10
  -1  -2 -11   29.30    2.80
  -2   3 -11   35.40    2.70
  -2   3 -11   33.70    3.10
  -2  -2 -11   14.00    2.30
  -2   4 -11   13.80    3.10
  -2  -2 -11   10.00    2.30
  -2   4 -11   10.80    2.20
  -3  -2 -11   86.99    5.00
   5  -3 -11   80.79    4.80
  -3  -2 -11   94.79    5.50
  -2   5 -11   85.19    6.40
  -3  -1 -11   22.90    2.50
  -3  -1 -11   22.10    2.70
   4  -3 -11   26.00    2.50
  -1   4 -11   28.90    3.90
   3  -3 -11   40.70    3.30
  -3   0 -11   48.20    3.70
   0   3 -11   39.40    4.20
  -3   0 -11   42.20    3.30
  -3   0 -11   38.50    3.10
  -3   1 -11   60.89    5.00
  -3   1 -11   54.09    3.70
   2  -3 -11   59.99    3.90
  -3   1 -11   67.19    4.60
  -3   1 -11   56.79    4.10
   1   2 -11   63.09    5.30
   1  -3 -11   40.90    3.20
   2   1 -11   30.00    4.10
  -3   2 -11   45.50    3.50
  -3   2 -11   34.40    2.90
  -3   2 -11   41.10    4.10
  -3   3 -11   32.50    2.80
  -3   3 -11   34.20    3.20
  -3   3 -11   40.10    4.20
   0  -3 -11   39.50    3.20
  -3   4 -11   85.29    6.30
  -3   4 -11   86.59    5.30
  -1  -3 -11   94.69    5.00
  -1  -3 -11   91.79    5.30
  -3   4 -11   92.19    4.90
  -3   5 -11   18.00    2.70
  -2  -3 -11   11.20    2.30
  -2  -3 -11   13.10    2.60
  -3   5 -11   13.10    3.30
  -3  -3 -11   20.50    3.00
  -3   6 -11   17.20    3.80
  -3  -3 -11   22.70    3.00
   7  -4 -11   15.70    2.90
  -3   7 -11   16.60    4.00
  -4  -3 -11   16.70    2.90
  -4  -2 -11    2.20    2.30
  -4  -2 -11    2.70    2.50
   6  -4 -11    8.20    2.30
  -2   6 -11    2.00    2.90
  -1   5 -11   18.40    3.60
  -4  -1 -11   20.00    2.80
   5  -4 -11   20.60    2.60
  -4  -1 -11   19.10    2.60
  -4   0 -11    0.00    1.90
  -4   0 -11    0.10    1.80
   0   4 -11    2.10    2.70
   4  -4 -11    2.90    1.90
  -4   1 -11   27.50    2.70
   3  -4 -11   21.40    2.50
  -4   1 -11   28.40    3.30
   1   3 -11   22.20    3.60
  -4   1 -11   22.00    2.70
   2  -4 -11   11.90    2.20
  -4   2 -11    9.20    2.40
   2   2 -11   11.40    3.20
  -4   2 -11   10.10    2.20
  -4   3 -11   88.49    5.50
  -4   3 -11   86.19    6.10
  -4   3 -11   92.59    5.00
   1  -4 -11   78.39    5.10
  -4   4 -11    9.10    3.00
   0  -4 -11    6.50    2.20
  -4   4 -11    7.10    2.10
  -4   4 -11    8.90    2.30
  -4   5 -11   24.00    2.90
  -4   5 -11   29.80    3.20
  -4   5 -11   27.40    2.90
  -4   5 -11   20.80    3.80
  -1  -4 -11   27.10    3.00
  -2  -4 -11    2.70    2.30
  -2  -4 -11    3.80    2.80
  -4   6 -11    0.40    2.90
  -3  -4 -11   12.30    2.80
  -4   7 -11   11.90    3.70
  -2   7 -11   16.70    4.10
   7  -5 -11   15.20    3.00
  -5  -2 -11   12.90    2.80
  -1   6 -11   36.00    4.80
  -5  -1 -11   37.50    3.60
   6  -5 -11   42.90    3.70
   0   5 -11   14.80    3.70
  -5   0 -11   19.50    2.80
  -5   0 -11   17.70    2.60
   5  -5 -11   16.00    2.60
  -5   1 -11   17.80    2.70
  -5   1 -11   19.30    2.60
   4  -5 -11   21.10    2.80
   1   4 -11   27.40    4.20
  -5   2 -11   92.39    5.80
   3  -5 -11   87.99    5.20
  -5   2 -11   85.29    5.10
  -5   2 -11   77.19    4.70
   2   3 -11   77.69    6.30
   2  -5 -11   11.60    2.50
  -5   3 -11   19.40    3.00
  -5   3 -11   19.20    2.70
   3   2 -11   14.40    3.60
  -5   4 -11   27.10    3.10
   1  -5 -11   24.70    3.10
  -5   4 -11   24.70    3.20
  -5   4 -11   27.30    3.90
  -5   5 -11   15.40    2.70
  -5   5 -11   14.00    2.80
   0  -5 -11   21.40    2.90
  -5   5 -11   15.00    2.80
  -5   5 -11   20.40    4.00
  -5   6 -11    7.00    2.60
  -5   6 -11   13.70    2.90
  -5   6 -11   19.70    3.10
  -1  -5 -11   15.10    2.80
  -5   6 -11   18.50    4.00
  -2  -5 -11   10.60    2.70
  -5   7 -11    9.10    4.10
  -5   7 -11   11.90    3.00
   0   6 -11    3.60    3.30
  -6   0 -11    0.80    2.40
   6  -6 -11    3.10    2.60
  -6   1 -11   33.30    3.30
   1   5 -11   39.60    4.90
  -6   1 -11   37.00    3.60
   5  -6 -11   38.20    3.60
   4  -6 -11    4.20    2.40
  -6   2 -11    2.30    2.30
  -6   2 -11    3.70    2.10
   2   4 -11    2.70    3.00
  -6   3 -11   20.20    3.20
   3   3 -11   14.50    3.70
   3  -6 -11   20.20    3.10
  -6   3 -11   17.10    2.90
   2  -6 -11    0.30    2.30
  -6   4 -11    1.90    2.40
  -6   4 -11    3.00    2.40
  -6   5 -11   18.20    4.00
  -6   5 -11   15.30    2.90
   1  -6 -11   14.40    2.90
  -6   5 -11   14.90    3.00
  -6   6 -11    4.00    2.90
  -6   6 -11    7.10    3.60
   0  -6 -11    5.00    2.60
  -6   6 -11   -0.20    2.50
  -6   6 -11    2.90    2.40
   2   5 -11   16.60    4.10
   5  -7 -11   16.30    3.30
  -7   2 -11   22.90    3.20
   4  -7 -11   18.60    3.30
   3   4 -11   19.90    4.10
  -7   3 -11   13.00    2.90
   3  -7 -11    8.60    2.90
  -7   4 -11    9.70    2.80
  -7   4 -11   14.70    3.10
  -7   5 -11   11.40    2.90
   2  -7 -11   10.20    2.90
  -7   5 -11    8.40    2.90
   0   0 -12  226.68    9.30
   0   0 -12  228.48    9.10
  -1   0 -12    0.60    1.80
   0   1 -12    3.00    2.90
   1  -1 -12   -1.00    1.60
   0   1 -12    2.10    1.80
  -1   0 -12    1.70    1.90
   0  -1 -12   19.20    2.40
  -1   1 -12   24.20    2.50
  -1   1 -12   23.00    3.80
  -1   1 -12   24.60    2.70
  -1   2 -12   45.40    3.50
   2  -1 -12   46.90    3.40
  -1  -1 -12   40.20    3.40
  -1  -1 -12   44.80    3.50
  -1   2 -12   47.20    4.80
   3  -2 -12   -1.20    1.60
  -1   3 -12    0.70    2.70
  -2  -1 -12   -4.20    1.70
  -2  -1 -12    1.40    1.80
  -2  -1 -12    0.30    2.00
  -2   0 -12   36.30    3.20
   2  -2 -12   36.40    2.90
   0   2 -12   38.70    4.50
  -2   0 -12   28.80    3.00
  -2   0 -12   36.20    3.00
  -2   1 -12   46.40    3.80
  -2   1 -12   44.70    4.80
   1   1 -12   48.30    4.90
  -2   1 -12   44.40    3.30
   1  -2 -12   41.50    3.30
  -2   2 -12    7.20    3.00
   0  -2 -12    2.00    1.90
  -2   2 -12    2.50    1.80
  -2   2 -12    3.20    2.00
  -1  -2 -12   11.00    2.40
  -2   3 -12   15.30    2.60
  -2   3 -12   18.10    3.70
  -2  -2 -12  119.69    6.20
  -2  -2 -12  129.89    6.70
  -2   4 -12  128.69    8.10
  -3  -2 -12   -2.60    2.30
  -2   5 -12   -2.90    2.70
   5  -3 -12    0.20    1.90
   4  -3 -12   12.20    2.20
  -3  -1 -12   13.60    2.40
  -1   4 -12   15.60    3.60
  -3  -1 -12   17.10    2.70
  -3   0 -12   21.40    2.80
  -3   0 -12   22.80    3.00
   3  -3 -12   18.10    2.40
   0   3 -12   19.50    3.70
  -3   0 -12   22.70    2.60
  -3   1 -12   -1.00    1.80
   1   2 -12    0.70    2.80
  -3   1 -12   -2.30    2.10
   2  -3 -12    2.00    1.90
   1  -3 -12   13.10    2.40
  -3   2 -12   13.70    2.70
  -3   2 -12   13.10    3.40
  -3   2 -12   12.60    2.30
  -3   3 -12   59.59    4.30
  -3   3 -12   55.09    4.20
   0  -3 -12   52.79    4.00
  -3   3 -12   62.29    6.00
  -3   4 -12   -3.20    2.10
  -1  -3 -12   -0.30    2.10
  -3   4 -12    0.80    2.00
  -3   4 -12    0.00    2.90
  -2  -3 -12   14.60    2.90
  -3   5 -12   13.10    3.70
  -3   6 -12   11.20    3.70
  -3  -3 -12   16.10    3.00
   6  -4 -12   13.60    2.70
  -4  -1 -12   36.20    3.60
   5  -4 -12   28.70    3.10
  -1   5 -12   33.60    4.60
  -4   0 -12   -0.20    1.90
  -4   0 -12    2.60    2.30
   0   4 -12    0.90    2.90
   4  -4 -12    5.10    2.10
   1   3 -12   13.50    3.40
  -4   1 -12   14.10    2.50
   3  -4 -12   17.80    2.60
  -4   1 -12   15.40    3.00
  -4   1 -12   11.20    2.20
   2  -4 -12  116.59    6.40
  -4   2 -12  136.49    7.00
  -4   2 -12  127.69    6.50
   2   2 -12  126.99    8.20
  -4   3 -12   -2.50    2.00
  -4   3 -12   -5.00    2.10
   1  -4 -12    3.30    2.20
  -4   3 -12   -0.50    2.80
  -4   4 -12   24.50    3.20
   0  -4 -12   20.50    3.10
  -4   4 -12   25.60    2.90
  -4   4 -12   27.50    4.10
  -4   5 -12   13.30    2.60
  -4   5 -12   15.30    2.90
  -1  -4 -12   10.40    2.80
  -4   5 -12   16.60    3.60
   5  -5 -12    7.70    2.50
  -5   0 -12    6.00    2.70
   0   5 -12    6.90    3.40
  -5   1 -12   31.40    4.00
   1   4 -12   35.10    4.80
   4  -5 -12   35.50    3.50
  -5   1 -12   36.40    3.60
  -5   1 -12   32.00    3.20
  -5   2 -12   -4.20    2.10
   2   3 -12   -0.10    3.00
   3  -5 -12    1.40    2.20
  -5   2 -12    4.20    2.70
   2  -5 -12   12.50    2.70
  -5   3 -12    6.10    2.50
  -5   3 -12   14.40    3.00
  -5   4 -12   16.80    3.90
  -5   4 -12   12.80    2.90
   1  -5 -12   12.30    2.80
  -5   4 -12    9.60    2.60
   0  -5 -12    4.50    2.60
  -5   5 -12    3.70    3.10
  -5   5 -12   -1.90    2.20
  -5   5 -12   -0.20    2.40
  -6   3 -12   12.00    2.90
  -6   3 -12   11.20    3.10
   3   3 -12   21.40    4.30
   3  -6 -12   13.70    3.10
   0   0 -13    5.00    2.00
   0   0 -13    4.90    2.10
   1  -1 -13   33.20    3.00
  -1   0 -13   31.10    3.00
  -1   0 -13   35.00    3.30
  -1   1 -13   39.30    3.40
  -1   1 -13   49.20    3.90
   0  -1 -13   37.40    3.30
  -1   1 -13   42.00    5.00
  -1   2 -13   14.00    2.60
  -1   2 -13   16.80    4.00
  -1  -1 -13   14.00    2.60
  -2  -1 -13   24.50    3.00
  -2  -1 -13   21.80    3.10
  -1   3 -13   23.50    4.30
   3  -2 -13   23.40    2.70
   0   2 -13    5.60    3.50
   2  -2 -13    2.30    1.90
  -2   0 -13    6.50    2.20
  -2   0 -13    4.40    2.40
  -2   1 -13   12.80    3.60
  -2   1 -13   19.10    2.80
   1  -2 -13   11.80    2.40
  -2   1 -13    9.00    2.30
   0  -2 -13   13.00    2.60
  -2   2 -13   16.60    2.40
  -2   2 -13   18.40    3.90
  -2   2 -13   21.90    3.00
  -2   3 -13   54.59    4.10
  -2   3 -13   52.99    5.60
  -1  -2 -13   43.00    3.80
  -2  -2 -13    3.40    2.60
  -2   4 -13    7.50    3.60
  -3  -1 -13   27.10    3.50
   4  -3 -13   29.10    3.00
  -3  -1 -13   25.20    3.40
  -1   4 -13   31.70    4.80
   3  -3 -13    9.40    2.40
   0   3 -13   15.40    3.80
  -3   0 -13    8.90    2.80
  -3   0 -13   11.80    2.30
  -3   0 -13    8.10    2.50
   1   2 -13   24.10    4.30
  -3   1 -13   22.20    3.20
   2  -3 -13   19.50    2.70
  -3   1 -13   19.80    2.90
   1  -3 -13   45.20    3.80
  -3   2 -13   41.70    3.50
  -3   2 -13   44.40    4.10
  -3   2 -13   48.00    5.10
   0  -3 -13    9.70    2.60
  -3   3 -13    6.80    2.60
  -3   3 -13    5.00    2.20
  -3   3 -13    7.50    3.60
  -1  -3 -13   20.20    3.20
  -3   4 -13   16.20    4.10
  -3   4 -13   19.50    3.10
   3  -4 -13   31.30    3.20
  -4   1 -13   27.90    3.60
  -4   1 -13   31.80    3.50
   1   3 -13   34.00    5.00
  -4   2 -13    6.40    2.80
  -4   2 -13    1.30    2.20
   2  -4 -13    3.80    2.40
   1  -4 -13   26.30    3.20
  -4   3 -13   22.70    5.20
  -4   3 -13   17.80    2.80
  -4   3 -13   20.50    3.20
   0   0 -14   13.50    2.50
   1  -1 -14   20.10    2.70
  -1   0 -14   18.80    2.80
  -1   1 -14    2.10    2.30
  -1   1 -14    1.70    2.10
   0  -1 -14    0.60    2.10
   0   0   0    0.00    0.00






_computing_structure_solution     'SHELXT 2014/5 (Sheldrick, 2014)'
_computing_structure_solution     'SHELXT 2014/5 (Sheldrick, 2014)'
_computing_structure_solution     'SHELXT 2014/5 (Sheldrick, 2014)'
_computing_structure_solution     'SHELXT 2014/5 (Sheldrick, 2014)'
_computing_structure_solution     'SHELXT 2014/5 (Sheldrick, 2014)'
_computing_structure_solution     'SHELXT 2014/5 (Sheldrick, 2014)'
;
_shelx_hkl_checksum              3844
_olex2_submission_special_instructions 'No special instructions were received'
loop_
_space_group_symop_operation_xyz
'x, y, z'
'-y, x-y, z'
'-x+y, -x, z'
'x-y, -y, -z'
'-x, -x+y, -z'
'y, x, -z'
'-x, -y, -z'
'y, -x+y, -z'
'x-y, x, -z'
'-x+y, y, z'
'x, x-y, z'
'-y, -x, z'
loop_
_atom_site_label
_atom_site_type_symbol
_atom_site_fract_x
_atom_site_fract_y
_atom_site_fract_z
_atom_site_U_iso_or_equiv
_atom_site_adp_type
_atom_site_occupancy
_atom_site_site_symmetry_order
_atom_site_calc_flag
_atom_site_refinement_flags_posn
_atom_site_refinement_flags_adp
_atom_site_refinement_flags_occupancy
Cs1 Cs 0.333333 0.666667 0.3107(2) 0.0656(6) Uani 1 6 d . . .
Bi2 Bi 0.333333 0.666667 0.83008(6) 0.0288(2) Uani 1 6 d S T P
Cs2 Cs 0.000000 0.000000 0.000000 0.0785(10) Uani 1 12 d . . .
I1 I 0.16470(7) 0.32940(14) 0.66812(10) 0.0617(4) Uani 1 2 d S T P
Cl1 Cl 0.500000 0.500000 1.000000 0.0635(17) Uani 1 4 d S T P
loop_
_atom_site_aniso_label
_atom_site_aniso_U_11
_atom_site_aniso_U_22
_atom_site_aniso_U_33
_atom_site_aniso_U_23
_atom_site_aniso_U_13
_atom_site_aniso_U_12
Cs1 0.0591(7) 0.0591(7) 0.0788(13) 0.000 0.000 0.0295(4)
Bi2 0.0291(3) 0.0291(3) 0.0281(4) 0.000 0.000 0.01455(14)
Cs2 0.0959(15) 0.0959(15) 0.0439(13) 0.000 0.000 0.0479(8)
I1 0.0657(6) 0.0449(6) 0.0676(8) -0.0225(5) -0.0113(2) 0.0224(3)
Cl1 0.087(4) 0.087(4) 0.049(3) 0.0145(10) -0.0145(10) 0.067(4)
loop_
_atom_type_symbol
_atom_type_description
_atom_type_scat_dispersion_real
_atom_type_scat_dispersion_imag
_atom_type_scat_source
Bi Bi -4.1077 10.2566 'International Tables Vol C Tables 4.2.6.8 and 6.1.1.4'
Cl Cl 0.1484 0.1585 'International Tables Vol C Tables 4.2.6.8 and 6.1.1.4'
Cs Cs -0.3680 2.1192 'International Tables Vol C Tables 4.2.6.8 and 6.1.1.4'
I I -0.4742 1.8119 'International Tables Vol C Tables 4.2.6.8 and 6.1.1.4'
loop_
_geom_angle_atom_site_label_1
_geom_angle_atom_site_label_2
_geom_angle_atom_site_label_3
_geom_angle
_geom_angle_site_symmetry_1
_geom_angle_site_symmetry_3
I1 Bi2 I1 91.80(4) 3_565 .
I1 Bi2 I1 91.80(4) 3_565 2_665
I1 Bi2 I1 91.80(4) . 2_665
I1 Bi2 Cl1 89.319(16) 3_565 3_565
I1 Bi2 Cl1 89.318(16) 2_665 .
I1 Bi2 Cl1 178.40(3) 3_565 .
I1 Bi2 Cl1 178.40(3) 2_665 3_565
I1 Bi2 Cl1 89.319(16) 3_565 2_665
I1 Bi2 Cl1 89.319(16) . .
I1 Bi2 Cl1 178.40(3) . 2_665
I1 Bi2 Cl1 89.319(16) 2_665 2_665
I1 Bi2 Cl1 89.319(16) . 3_565
Cl1 Bi2 Cl1 89.543(15) 2_665 3_565
Cl1 Bi2 Cl1 89.543(15) 3_565 .
Cl1 Bi2 Cl1 89.543(15) 2_665 .
Bi2 Cl1 Bi2 180.0 . 7_667
loop_
_geom_bond_atom_site_label_1
_geom_bond_atom_site_label_2
_geom_bond_distance
_geom_bond_site_symmetry_2
Bi2 I1 2.9032(10) 3_565
Bi2 I1 2.9033(10) .
Bi2 I1 2.9033(10) 2_665
Bi2 Cl1 2.9258(4) 3_565
Bi2 Cl1 2.9258(4) .
Bi2 Cl1 2.9258(4) 2_665
Cl1 Bi2 2.9258(4) 7_667
