#------------------------------------------------------------------------------
#$Date: 2020-06-03 01:23:26 +0300 (Wed, 03 Jun 2020) $
#$Revision: 252545 $
#$URL: file:///home/coder/svn-repositories/cod/cif/4/00/35/4003568.cif $
#------------------------------------------------------------------------------
#
# This file is available in the Crystallography Open Database (COD),
# http://www.crystallography.net/
#
# All data on this site have been placed in the public domain by the
# contributors.
#
data_4003568
loop_
_publ_author_name
'Liu, Kun'
'Lei, Yilong'
'Fu, Hongbing'
_publ_section_title
;
 A General Synthetic Strategy to a Library of Luminescent All-Organic
 Core--Shell Microstructures
;
_journal_name_full               'Chemistry of Materials'
_journal_paper_doi               10.1021/acs.chemmater.0c01184
_journal_year                    2020
_chemical_formula_sum            'C22 H10 N4 S'
_chemical_formula_weight         362.40
_space_group_crystal_system      triclinic
_space_group_IT_number           1
_space_group_name_Hall           'P 1'
_space_group_name_H-M_alt        'P 1'
_atom_sites_solution_hydrogens   geom
_audit_creation_method           SHELXL-2018/3
_cell_angle_alpha                72.93(3)
_cell_angle_beta                 85.74(3)
_cell_angle_gamma                88.93(3)
_cell_formula_units_Z            1
_cell_length_a                   7.1580(14)
_cell_length_b                   7.8056(16)
_cell_length_c                   7.9356(16)
_cell_measurement_reflns_used    1348
_cell_measurement_temperature    113(2)
_cell_measurement_theta_max      27.9024
_cell_measurement_theta_min      2.8536
_cell_volume                     422.68(16)
_computing_cell_refinement       crystalclear
_computing_data_collection       crystalclear
_computing_data_reduction        crystalclear
_computing_molecular_graphics    'Bruker SHELXTL'
_computing_publication_material  'Bruker SHELXTL'
_computing_structure_refinement  'SHELXL-97 (Sheldrick, 1997)'
_computing_structure_solution    'SHELXS-97 (Sheldrick, 1990)'
_diffrn_ambient_temperature      113(2)
_diffrn_measured_fraction_theta_full 0.963
_diffrn_measured_fraction_theta_max 0.963
_diffrn_measurement_device_type  'rigaku saturn'
_diffrn_measurement_method       '\w scans'
_diffrn_radiation_type           MoK\a
_diffrn_radiation_wavelength     0.71073
_diffrn_reflns_av_R_equivalents  0.0543
_diffrn_reflns_av_unetI/netI     0.0439
_diffrn_reflns_Laue_measured_fraction_full 0.963
_diffrn_reflns_Laue_measured_fraction_max 0.963
_diffrn_reflns_limit_h_max       8
_diffrn_reflns_limit_h_min       -8
_diffrn_reflns_limit_k_max       9
_diffrn_reflns_limit_k_min       -9
_diffrn_reflns_limit_l_max       9
_diffrn_reflns_limit_l_min       -9
_diffrn_reflns_number            3590
_diffrn_reflns_point_group_measured_fraction_full 0.963
_diffrn_reflns_point_group_measured_fraction_max 0.963
_diffrn_reflns_theta_full        25.020
_diffrn_reflns_theta_max         25.020
_diffrn_reflns_theta_min         2.854
_diffrn_standards_decay_%        0
_diffrn_standards_interval_count 0
_diffrn_standards_interval_time  0
_diffrn_standards_number         0
_exptl_absorpt_coefficient_mu    0.206
_exptl_absorpt_correction_T_max  1
_exptl_absorpt_correction_T_min  0.7524
_exptl_absorpt_correction_type   multi-scan
_exptl_absorpt_process_details   crystalclear
_exptl_crystal_density_diffrn    1.424
_exptl_crystal_F_000             186
_exptl_crystal_size_max          0.200
_exptl_crystal_size_mid          0.180
_exptl_crystal_size_min          0.120
_refine_diff_density_max         0.446
_refine_diff_density_min         -0.341
_refine_diff_density_rms         0.076
_refine_ls_abs_structure_details
;
 Refined as a perfect inversion twin.
;
_refine_ls_abs_structure_Flack   0.5
_refine_ls_extinction_method     none
_refine_ls_goodness_of_fit_ref   1.062
_refine_ls_hydrogen_treatment    constr
_refine_ls_matrix_type           full
_refine_ls_number_parameters     313
_refine_ls_number_reflns         2561
_refine_ls_number_restraints     171
_refine_ls_restrained_S_all      1.055
_refine_ls_R_factor_all          0.0782
_refine_ls_R_factor_gt           0.0702
_refine_ls_shift/su_max          0.004
_refine_ls_shift/su_mean         0.001
_refine_ls_structure_factor_coef Fsqd
_refine_ls_weighting_details
'w=1/[\s^2^(Fo^2^)+(0.1316P)^2^+0.6522P] where P=(Fo^2^+2Fc^2^)/3'
_refine_ls_weighting_scheme      calc
_refine_ls_wR_factor_gt          0.2147
_refine_ls_wR_factor_ref         0.2212
_reflns_Friedel_coverage         1.000
_reflns_Friedel_fraction_full    0.963
_reflns_Friedel_fraction_max     0.963
_reflns_number_gt                2231
_reflns_number_total             2561
_reflns_threshold_expression     'I > 2\s(I)'
_cod_data_source_file            cm0c01184_si_008.cif
_cod_data_source_block           shelxl
_cod_original_cell_volume        422.69(16)
_cod_database_code               4003568
_shelx_shelxl_version_number     2018/3
_shelx_space_group_comment
;
The symmetry employed for this shelxl refinement is uniquely defined
by the following loop, which should always be used as a source of
symmetry information in preference to the above space-group names.
They are only intended as comments.
;
_shelx_estimated_absorpt_t_min   0.960
_shelx_estimated_absorpt_t_max   0.976
_shelx_res_file
;
TITL shelxl in P-1
    shelxl.res
    created by SHELXL-2018/3 at 14:46:54 on 30-Mar-2019
CELL 0.71073   7.1580   7.8056   7.9356  72.935  85.744  88.926
ZERR    1.00   0.0014   0.0016   0.0016   0.030   0.030   0.030
LATT -1
SFAC C  H  N  S
UNIT 22 10 4 1
OMIT  -3.00  50.04
L.S. 10
damp 10000
ACTA
BOND $h
FMAP 2
PLAN 20
dfix 1.52 0.01 c16 c17 c16' c17'
dfix 1.73 0.02 s1 c11 s1 c22 s1' c11' s1' c18'
isor 0.001 c13'
isor 0.01  c3
isor 0.005 c11' c12' c14' c15' c16' c17' c18' c19' c20' c21' c22' c1 c7
isor 0.005 c11 c12 c13 c14 c15 c16 c17 c18 c19 c20 c21 c22
twin
size 0.20 0.18 0.12
htab
conf
temp -160
WGHT    0.131600    0.652200
FVAR       1.73431
N1    3    0.870189    1.183413   -0.319020    11.00000    0.05639    0.02479 =
         0.01456    0.00328    0.01131   -0.01273
N2    3    0.895272    1.503221   -0.005205    11.00000    0.04746    0.02093 =
         0.04099   -0.00728    0.00468   -0.00663
N3    3    0.590714    0.797277    0.712301    11.00000    0.03598    0.04300 =
         0.02372   -0.01541   -0.00529    0.00166
N4    3    0.572832    0.483009    0.389838    11.00000    0.03833    0.02569 =
         0.02101   -0.00376   -0.00019   -0.00524
C1    1    0.830954    1.132511   -0.177001    11.00000    0.02328    0.01875 =
         0.01127    0.00290    0.00258   -0.00447
C2    1    0.779267    1.062347    0.011351    11.00000    0.02106    0.01318 =
         0.01860    0.00420    0.00055   -0.00444
C3    1    0.722424    0.880627    0.080709    11.00000    0.02625    0.02496 =
         0.00592    0.00209    0.00666   -0.00685
AFIX  43
H3A   2    0.718240    0.805220    0.006364    11.00000   -1.20000
AFIX   0
C4    1    0.672276    0.815330    0.263608    11.00000    0.01831    0.01468 =
         0.03595   -0.00766   -0.00709    0.00108
C5    1    0.685593    0.928172    0.371639    11.00000    0.01694    0.03422 =
         0.00945   -0.01144   -0.00123    0.00815
C6    1    0.742554    1.100854    0.302706    11.00000    0.02665    0.02156 =
         0.03330   -0.01853   -0.01241    0.00958
AFIX  43
H6A   2    0.751388    1.174335    0.378361    11.00000   -1.20000
AFIX   0
C7    1    0.787391    1.170287    0.125502    11.00000    0.02454    0.01617 =
         0.00667    0.00264    0.00325   -0.00107
C8    1    0.844467    1.348744    0.057185    11.00000    0.03681    0.02224 =
         0.00910    0.00199    0.00405   -0.00444
C9    1    0.634332    0.855501    0.557655    11.00000    0.03591    0.02237 =
         0.02783   -0.01269   -0.00431    0.00002
C10   1    0.613114    0.623646    0.339946    11.00000    0.02240    0.02054 =
         0.02432   -0.00893   -0.00313    0.00215
PART 1
S1    4    0.222071    0.839336    0.015209    10.50000    0.03527    0.02340 =
         0.03115   -0.01207    0.00371   -0.00826
AFIX  66
C11   1    0.282576    1.050003    0.003907    10.50000    0.02895    0.03145 =
         0.02764   -0.01199   -0.00707    0.00109
C12   1    0.346712    1.169925   -0.156155    10.50000    0.03363    0.02815 =
         0.02244   -0.00154   -0.00275   -0.00562
AFIX  43
H12A  2    0.355170    1.133774   -0.260812    10.50000   -1.20000
AFIX  65
C13   1    0.398475    1.342741   -0.163086    10.50000    0.02446    0.01969 =
         0.01840    0.00222    0.00080    0.00026
AFIX  43
H13A  2    0.442309    1.424701   -0.272482    10.50000   -1.20000
AFIX  65
C14   1    0.386101    1.395636   -0.009957    10.50000    0.02940    0.02307 =
         0.03897   -0.00148   -0.00130    0.00036
AFIX  43
H14A  2    0.421479    1.513748   -0.014695    10.50000   -1.20000
AFIX  65
C15   1    0.321965    1.275716    0.150106    10.50000    0.02940    0.02318 =
         0.02956   -0.00687   -0.00242   -0.00017
AFIX  43
H15A  2    0.313508    1.311868    0.254763    10.50000   -1.20000
AFIX  65
C16   1    0.270202    1.102899    0.157040    10.50000    0.01641    0.01579 =
         0.01378   -0.00720    0.00119   -0.00245
AFIX  66
C17   1    0.198864    0.944793    0.300526    10.50000    0.02351    0.02768 =
         0.02540   -0.00821   -0.00471    0.00304
C18   1    0.162887    0.939219    0.476610    10.50000    0.02611    0.02865 =
         0.01918   -0.00789   -0.00508    0.00222
AFIX  43
H18A  2    0.185350    1.042124    0.513023    10.50000   -1.20000
AFIX  65
C19   1    0.094042    0.783080    0.599416    10.50000    0.03076    0.02784 =
         0.01771   -0.00488    0.00128   -0.00083
AFIX  43
H19A  2    0.069454    0.779272    0.719762    10.50000   -1.20000
AFIX  65
C20   1    0.061175    0.632514    0.546140    10.50000    0.03310    0.02935 =
         0.02476   -0.00006    0.00042   -0.00037
AFIX  43
H20A  2    0.014123    0.525800    0.630074    10.50000   -1.20000
AFIX  65
C21   1    0.097151    0.638086    0.370056    10.50000    0.03251    0.02024 =
         0.03680   -0.00496   -0.00046   -0.00366
AFIX  43
H21A  2    0.074687    0.535180    0.333645    10.50000   -1.20000
AFIX  65
C22   1    0.165995    0.794223    0.247248    10.50000    0.01690    0.01431 =
         0.01930   -0.00789    0.00015   -0.00223
PART 2
AFIX   0
S1'   4    0.238058    1.139211    0.379279    10.50000    0.02844    0.04073 =
         0.02688   -0.01806    0.00156   -0.00029
AFIX  66
C11'  1    0.290744    1.181440    0.159349    10.50000    0.02655    0.02472 =
         0.02640   -0.00228   -0.00468   -0.00271
C12'  1    0.356998    1.344901    0.048046    10.50000    0.02437    0.02345 =
         0.02121   -0.00108    0.00208    0.00228
AFIX  43
H12B  2    0.376398    1.441731    0.094605    10.50000   -1.20000
AFIX  65
C13'  1    0.394866    1.366686   -0.131380    10.50000    0.01121    0.01101 =
         0.01188   -0.00242   -0.00046   -0.00033
AFIX  43
H13B  2    0.440148    1.478404   -0.207450    10.50000   -1.20000
AFIX  65
C14'  1    0.366481    1.225010   -0.199504    10.50000    0.01918    0.02922 =
         0.01613   -0.00060   -0.00536   -0.00202
AFIX  43
H14B  2    0.392362    1.239899   -0.322134    10.50000   -1.20000
AFIX  65
C15'  1    0.300227    1.061548   -0.088203    10.50000    0.02784    0.03610 =
         0.03117   -0.00577    0.00027   -0.00592
AFIX  43
H15B  2    0.280827    0.964719   -0.134764    10.50000   -1.20000
AFIX  65
C16'  1    0.262358    1.039761    0.091223    10.50000    0.01486    0.02117 =
         0.01211   -0.00181   -0.00154   -0.00281
AFIX  66
C17'  1    0.191145    0.885609    0.237182    10.50000    0.02177    0.02351 =
         0.02416   -0.00325   -0.00716    0.00199
C18'  1    0.174565    0.915031    0.402108    10.50000    0.01495    0.02541 =
         0.01112   -0.00545    0.00349    0.00403
C19'  1    0.110662    0.778554    0.550445    10.50000    0.02243    0.02630 =
         0.01503    0.00005    0.00177   -0.00038
AFIX  43
H19B  2    0.099330    0.798663    0.663164    10.50000   -1.20000
AFIX  65
C20'  1    0.063338    0.612654    0.533855    10.50000    0.04567    0.04034 =
         0.04567   -0.00695   -0.00503   -0.00070
AFIX  43
H20B  2    0.019663    0.519378    0.635237    10.50000   -1.20000
AFIX  65
C21'  1    0.079917    0.583230    0.368930    10.50000    0.01584    0.01415 =
         0.01757   -0.00445   -0.00099   -0.00369
AFIX  43
H21B  2    0.047574    0.469844    0.357593    10.50000   -1.20000
AFIX  65
C22'  1    0.143820    0.719706    0.220593    10.50000    0.01707    0.02371 =
         0.02412   -0.00622   -0.00207   -0.00145
AFIX  43
H22A  2    0.155152    0.699596    0.107873    10.50000   -1.20000
PART 0
AFIX   0
HKLF 4




REM  shelxl in P-1
REM wR2 = 0.2212, GooF = S = 1.062, Restrained GooF = 1.055 for all data
REM R1 = 0.0702 for 2231 Fo > 4sig(Fo) and 0.0782 for all 2561 data
REM 313 parameters refined using 171 restraints

END

WGHT      0.1286      0.4636

REM No hydrogen bonds found for HTAB generation

REM Highest difference peak  0.446,  deepest hole -0.341,  1-sigma level  0.076
Q1    1   0.1132  1.2070  0.3187  11.00000  0.05    0.45
Q2    1   0.3537  0.7771  0.0749  11.00000  0.05    0.41
Q3    1   0.6720  1.1886  0.1090  11.00000  0.05    0.35
Q4    1   1.0511  1.1716 -0.2750  11.00000  0.05    0.32
Q5    1   0.4515  0.7879  0.7007  11.00000  0.05    0.31
Q6    1   0.7722  0.8125  0.2576  11.00000  0.05    0.30
Q7    1   0.0923  0.8255  0.0205  11.00000  0.05    0.30
Q8    1   0.7193  0.4456  0.4250  11.00000  0.05    0.30
Q9    1   0.9251  1.1501  0.1679  11.00000  0.05    0.29
Q10   1   0.2198  0.6192  0.4333  11.00000  0.05    0.29
Q11   1   0.5070  1.2855 -0.1499  11.00000  0.05    0.28
Q12   1   0.8441  0.8222  0.5928  11.00000  0.05    0.27
Q13   1   0.8680  0.8656  0.1148  11.00000  0.05    0.27
Q14   1   1.0306  1.3184  0.0849  11.00000  0.05    0.26
Q15   1   0.6378  1.4005  0.0288  11.00000  0.05    0.26
Q16   1   0.7224  1.2094 -0.3595  11.00000  0.05    0.26
Q17   1   0.3692  1.1454  0.3852  11.00000  0.05    0.26
Q18   1   0.4560  0.6410  0.3030  11.00000  0.05    0.25
Q19   1   0.4766  0.8276 -0.0668  11.00000  0.05    0.25
Q20   1  -0.0470  0.7024  0.5446  11.00000  0.05    0.25
;
_shelx_res_checksum              12396
_shelx_hkl_file
;
   0   0  -2  256.38    3.34
   0   0   2  244.71    2.75
   0   0   2  260.20    4.99
   0   0  -2  222.25    3.80
   0   0   2  248.91    3.87
   0   0  -2  229.51    3.68
   0   0   3 2518.23   11.37
   0   0  -4  938.96    8.88
   0   0   4  916.18    9.58
   0   0   4  861.16    7.91
   0   0  -5  171.54    5.69
   0   0   5  173.48    6.24
   0   0   5  186.38    5.71
   0   0  -6  608.41   17.41
   0   0   6  626.58   18.27
   0   0   6  636.10   17.46
   0   0  -7  289.83    8.69
   0   0   7  264.98    8.31
   0   0   7  288.37    7.78
   0   0   8   38.28    5.87
   0   0   8   49.50    3.57
   0   0   9  120.45    8.27
   0   0   9  111.41    5.06
   0   1  -9   82.99    6.18
   0  -1   9   95.73    5.64
   0   1  -8   48.17    8.15
   0  -1   8   40.90    4.49
   0  -1   8   47.35    3.21
   0   1  -7   64.43   10.10
   0  -1   7   18.92    3.69
   0  -1   7   23.08    2.61
   0  -1   6  444.06   12.91
   0   1  -5   14.52    8.17
   0  -1   5   13.26    2.17
   0  -1   3  769.52    8.00
   0  -1   3  781.00    6.67
   0  -1   2  937.88    6.60
   0  -1   2  900.98    6.04
   0   1  -2  883.14    5.73
   0  -1  -2   18.00    0.85
   0   1   2   22.46    0.84
   0   1   2   20.86    0.81
   0   1   2   22.27    1.15
   0   1   2   21.25    2.69
   0  -1  -2   19.92    2.33
   0  -1  -3 1001.37    6.82
   0  -1  -4  521.55    6.10
   0   1   4  569.95    7.25
   0   1   4  551.92    7.96
   0  -1  -5  165.82    5.10
   0   1   5  113.17    5.22
   0   1   5  120.72    4.85
   0  -1  -6  376.51    9.96
   0   1   6  304.83    9.68
   0   1   6  308.48    8.68
   0  -1  -7   59.43    4.99
   0   1   7   42.88    4.34
   0   1   7   40.17    3.05
   0  -1  -8   16.51    2.99
   0   1   8   12.21    4.31
   0   1   8   18.22    3.02
   0   1  10   47.71    7.14
   0   1  10   40.12    3.31
   0   2  -9   95.80    5.16
   0  -2   9  187.64   13.80
   0   2  -8   50.81    4.76
   0  -2   8   97.29   11.76
   0  -2   8   44.74    3.41
   0   2  -7   75.33    4.75
   0  -2   7   77.93    5.38
   0  -2   7   73.90    4.15
   0   2  -6  295.47    7.80
   0  -2   6  300.75    8.86
   0  -2   6  220.85    5.67
   0   2  -5  135.33    4.81
   0  -2   5  118.22    5.18
   0  -2   5  113.48    3.78
   0   2  -4  352.20    8.98
   0  -2   4  344.87    9.01
   0  -2   4  365.58    8.32
   0   2  -3  520.04    6.78
   0  -2   3  484.58    7.38
   0  -2   3  475.10    5.60
   0   2  -1 1213.29    7.34
   0  -2   1 1242.73    7.49
   0  -2   0  172.35    2.53
   0   2   0  166.33    2.43
   0  -2   0  172.69    2.42
   0  -2   0  152.95    1.99
   0  -2  -1    8.30    0.78
   0   2   1    8.16    1.22
   0  -2  -1    7.16    0.61
   0   2   1    8.95    0.59
   0   2   1    5.85    1.60
   0  -2  -1    4.71    0.55
   0  -2  -3  266.34    3.43
   0  -2  -3  239.33    2.99
   0   2   3  262.75    4.04
   0  -2  -5  971.34    9.30
   0   2   5  907.48   10.01
   0   2   5  997.97   11.98
   0  -2  -6  332.12    8.27
   0   2   6  325.51    9.30
   0   2   6  358.05   11.48
   0   2   7   17.72    3.69
   0   2   7   17.51    8.77
   0  -2  -8   40.62    3.44
   0   2   8   33.90    4.18
   0   2   8   38.14    3.60
   0  -2  -9   19.95    3.92
   0   2   9   14.93    3.93
   0   2   9   13.21    4.02
   0  -2 -10    0.02    1.48
   0   2  10   -0.45    3.17
   0   2  10    3.36    2.58
   0   3  -8   17.20    3.03
   0  -3   8   44.86   10.12
   0   3  -7   55.40    3.88
   0  -3   7  148.02   12.19
   0   3  -6   11.91    2.27
   0  -3   6    5.09    1.62
   0   3  -5   58.95    3.67
   0  -3   5  106.64    9.49
   0  -3   5   56.11    3.17
   0   3  -4    2.55    1.39
   0  -3   4   25.58    6.84
   0  -3   4    6.17    2.00
   0   3  -2  306.32    5.02
   0  -3   2  310.80    5.29
   0  -3   0 2824.89   11.02
   0   3   0 2861.32    9.61
   0  -3   0 2934.86   10.72
   0  -3  -1 1002.70    5.81
   0  -3  -2  159.08    2.14
   0  -3  -3   21.93    1.23
   0  -3  -3   19.32    1.09
   0   3   3   15.59    1.73
   0  -3  -4  399.20    5.40
   0  -3  -4  337.05    4.77
   0   3   4  362.96    6.40
   0  -3  -5  428.75    9.73
   0   3   5  427.14    9.54
   0   3   5  394.30   10.27
   0  -3  -6   24.32    2.70
   0   3   6   21.34    2.98
   0   3   6   23.74    4.31
   0  -3  -7  833.07   12.57
   0   3   7  870.95   14.74
   0   3   7  849.62   14.92
   0  -3  -8   57.41    3.59
   0   3   8   58.49    4.99
   0   3   8   56.91    5.10
   0  -3  -9  138.20    7.00
   0   3   9  124.81    6.54
   0   3   9  123.13    6.91
   0  -3 -10   88.09    8.89
   0   3  10   78.36    8.32
   0   3  10  102.20   10.31
   0   4  -7   91.99    6.56
   0  -4   7   92.55    5.64
   0   4  -6   29.85    3.24
   0  -4   6   26.11    3.42
   0   4  -5   39.14    7.20
   0  -4   5   71.59    4.09
   0  -4   5   72.94    2.80
   0   4  -4 1534.03   16.96
   0  -4   4 1446.44   36.26
   0  -4   4 1458.51   35.99
   0   4  -3  313.36    8.92
   0  -4   3  341.62    8.81
   0   4  -3  295.37    6.63
   0  -4   1  871.85    8.01
   0  -4   0 1310.78    8.91
   0  -4  -2  776.08    6.75
   0  -4  -3  191.74    2.73
   0   4   3  200.67    4.60
   0  -4  -4   12.31    5.32
   0  -4  -4   12.11    3.49
   0   4   4    8.60    3.21
   0  -4  -5   93.82    3.87
   0  -4  -5   64.54    4.63
   0   4   5   49.79    3.77
   0  -4  -6  275.95    8.83
   0   4   6  280.81    9.04
   0   4   6  251.42   10.75
   0  -4  -7  226.57    6.29
   0   4   7  240.72    6.96
   0   4   7  201.48    8.97
   0  -4  -8    1.79    1.89
   0   4   8    4.26    4.51
   0   4   8    4.54    3.01
   0  -4  -9    5.54    2.24
   0   4   9    4.46    3.41
   0   4   9    1.94    3.15
   0  -4 -10    1.97    3.05
   0   4  10    5.06    3.56
   0   4  10    2.44    2.57
   0   5  -7   38.80    3.13
   0  -5   7   52.29    4.56
   0   5  -6    4.21    5.81
   0  -5   6    0.93    1.95
   0   5  -5  134.91    7.23
   0  -5   5  123.90    6.51
   0   5  -4  176.35    6.39
   0  -5   4  169.54    6.52
   0   5  -4  152.47    4.25
   0  -5   3  130.11    4.36
   0  -5   3  170.02    7.07
   0   5  -3  136.52    3.19
   0  -5   2    5.56    2.14
   0  -5   2    2.08    1.56
   0   5  -2    2.02    1.50
   0  -5   1  321.38    7.88
   0  -5   1  320.28    7.78
   0   5  -1  316.65    6.92
   0  -5   0   10.51    2.43
   0  -5  -1  122.58    3.73
   0  -5  -1  139.65    4.18
   0   5   1   92.35    2.87
   0  -5  -2 1149.06    9.04
   0  -5  -2 1130.29    8.32
   0  -5  -3  179.93    4.74
   0  -5  -3  149.57    3.79
   0  -5  -4  232.38    5.80
   0  -5  -4  238.01    5.34
   0   5   4  250.40    7.34
   0  -5  -5   51.78    2.79
   0  -5  -5   43.94    4.11
   0   5   5   47.09   11.11
   0  -5  -6   34.19    2.82
   0  -5  -6   26.76    2.54
   0   5   6   17.36    3.90
   0  -5  -7   38.06    3.39
   0   5   7   26.06    2.50
   0   5   7   29.26    4.67
   0  -5  -8   45.89    3.63
   0   5   8   29.10    3.19
   0   5   8   34.89    6.10
   0  -5  -9  411.97   10.64
   0   5   9  359.00   12.25
   0   5   9  390.98   15.15
   0  -5 -10   84.50    4.67
   0   5  10   94.03    6.11
   0   5  10   95.85   17.54
   0  -6   6   13.84    2.12
   0  -6   6   16.88    3.13
   0  -6   5   91.02    5.26
   0  -6   5   85.08    5.05
   0  -6   4    5.64    2.21
   0  -6   4    3.13    1.94
   0  -6   3   25.90    2.65
   0  -6   3   26.40    2.41
   0   6  -3   26.68    1.64
   0  -6   2  310.25    7.14
   0  -6   2  327.41    7.45
   0   6  -2  295.35    5.13
   0  -6   1  581.71   15.65
   0  -6   1  584.43   16.08
   0   6  -1  535.44   13.54
   0  -6   0  373.17   10.42
   0  -6  -1  704.84   18.10
   0  -6  -2  516.86   11.14
   0  -6  -2  522.35   10.88
   0   6   2  456.83   10.35
   0  -6  -3   33.67    2.19
   0  -6  -3   27.10    1.56
   0   6   3   28.72    2.70
   0  -6  -4  144.96    5.41
   0  -6  -4  126.07    2.91
   0   6   4  121.76    5.68
   0  -6  -5   74.54    3.00
   0  -6  -5   97.06    3.05
   0   6   5   85.91    4.99
   0  -6  -6   33.83    2.64
   0  -6  -6   32.74    3.06
   0   6   6   27.57    3.53
   0  -6  -7   53.28    3.86
   0   6   7   50.86    3.54
   0   6   7   51.89    6.61
   0  -6  -8    6.29    2.21
   0   6   8    7.73    1.85
   0   6   8    5.99    3.34
   0  -6  -9  280.09    8.79
   0   6   9  247.81    8.28
   0   6   9  272.36   11.53
   0  -7   5    2.04    1.34
   0  -7   5    1.44    1.85
   0  -7   4   45.87    3.12
   0  -7   4   49.41    4.12
   0  -7   3    2.69    2.40
   0  -7   2    5.85    1.91
   0  -7   2    1.32    1.48
   0   7  -2    8.36    1.08
   0  -7   1    4.41    1.72
   0  -7   1    4.47    2.85
   0   7  -1    6.34    1.15
   0  -7   0  200.58    5.09
   0  -7   0  216.89    6.15
   0   7   0  168.30    3.92
   0  -7  -1    2.54    1.45
   0   7   1    4.31    2.24
   0  -7  -2   99.96    4.34
   0  -7  -2  104.15    3.41
   0   7   2   91.31    3.32
   0  -7  -3  432.28    6.53
   0  -7  -4  171.79    4.32
   0  -7  -4  168.78    3.99
   0   7   4  166.80    5.81
   0  -7  -5   57.21    2.94
   0  -7  -5   52.92    2.15
   0   7   5   56.07    4.16
   0  -7  -6   57.94    3.34
   0  -7  -6   59.86    3.04
   0   7   6   64.00    5.38
   0  -7  -7  185.61    5.96
   0  -7  -7  162.48    4.52
   0   7   7  165.15    7.62
   0  -7  -8   18.24    3.06
   0   7   8   13.19    2.01
   0   7   8   21.50    5.76
   0  -7  -9   13.78    4.85
   0   7   9   18.96    4.43
   0  -8   3    7.93    2.38
   0  -8   3    4.99    2.34
   0  -8   2   23.83    3.53
   0  -8   2   23.25    9.25
   0  -8   1   14.06    2.17
   0  -8   1   14.70    2.60
   0   8  -1   18.57    1.81
   0  -8   0    6.35    3.57
   0   8   0    6.91    1.31
   0  -8  -1   11.58    4.17
   0  -8  -1   99.49   14.61
   0   8   1    6.69    3.33
   0  -8  -2   76.04    3.35
   0  -8  -2   87.98    3.55
   0   8   2   73.71    3.32
   0  -8  -3   40.10    3.02
   0  -8  -3   32.57    2.04
   0   8   3   26.59    3.54
   0  -8  -4    1.06    1.44
   0  -8  -4    2.12    1.07
   0   8   4    2.82    3.25
   0  -8  -5  110.31    5.67
   0  -8  -5  108.60    3.46
   0   8   5  130.65    6.07
   0  -8  -6    2.00    1.35
   0  -8  -6    4.10    1.89
   0   8   6    1.77    3.46
   0  -8  -7   20.81    2.90
   0  -8  -7   16.08    3.10
   0   8   7   20.06    4.88
   0  -8  -8    2.76    2.03
   0   8   8    6.28    3.65
   0  -9   2  146.74    4.97
   0  -9   2  176.54    7.11
   0  -9   1    4.30    2.16
   0  -9   1    5.25    2.06
   0  -9   0  131.28    4.76
   0   9   0  109.10    4.29
   0  -9  -1   74.68    4.21
   0   9   1   60.58    3.65
   0  -9  -2   12.28    2.19
   0  -9  -2    7.13    1.78
   0   9   2    4.73    3.64
   0  -9  -3  153.92    5.96
   0  -9  -3  143.95    5.36
   0   9   3  143.27    6.77
   0  -9  -4    4.09    1.75
   0  -9  -4    5.47    2.04
   0   9   4    6.28    2.44
   0  -9  -5  238.77    6.25
   0  -9  -5  192.26    4.73
   0   9   5  179.95    7.64
   0  -9  -6  317.50    8.45
   0  -9  -6  297.82    6.34
   0   9   6  293.37   10.20
   0  -9  -7   13.41    8.33
   0   9   7   22.75    5.07
   0 -10  -2    0.83    1.41
   0 -10  -2    3.94    1.62
   0  10   2   -1.57    2.26
   0  10   3    1.40    2.36
   0 -10  -4    8.92    3.52
   0 -10  -4   13.77    1.66
   0  10   4   13.73    3.12
   0 -10  -5   31.86    2.84
   0  10   5   22.68    5.49
   1 -10  -4    3.08    2.45
  -1  10   4    3.13    4.50
   1 -10  -3   47.33    3.16
  -1  10   3   44.69    4.15
   1 -10  -2  159.75    5.66
   1 -10  -2  177.73    5.30
   1  -9  -7   86.37    4.20
  -1   9   7  101.63    7.23
   1  -9  -6   14.22    6.32
  -1   9   6   20.54    5.01
   1  -9  -5   25.32    3.12
  -1   9   5   27.31    3.92
   1  -9  -4  170.43    6.86
   1  -9  -4  165.69    5.63
  -1   9   4  174.01    7.14
   1  -9  -3    1.79    1.57
   1  -9  -3    1.56    0.99
  -1   9   3    2.87    2.86
   1  -9  -2   -0.40    1.68
   1  -9  -2    1.91    1.64
  -1   9   2    2.52    2.20
   1  -9  -1   79.23    4.38
  -1   9   1   76.82    4.03
   1  -9   0    1.36    1.43
   1  -9   0    2.03    1.39
   1  -9   1   10.81    2.02
   1  -9   1   14.75    2.15
   1  -9   2   15.75    2.46
   1  -9   2   11.43    2.10
   1  -8  -8   62.72    6.56
  -1   8   8   44.38    5.89
   1  -8  -7   28.69    2.82
  -1   8   7   15.20    4.05
  -1   8   6    4.61    3.63
   1  -8  -5    2.75    3.75
   1  -8  -5    5.75    0.84
  -1   8   5    8.27    3.45
   1  -8  -4   43.84    2.39
  -1   8   4   50.72    4.76
   1  -8  -3   73.81    4.24
   1  -8  -3   81.94    3.51
  -1   8   3   91.37    5.18
   1  -8  -2    0.23    1.71
   1  -8  -2    2.52    1.15
  -1   8   2    3.04    2.04
   1  -8  -1   10.43    1.90
   1  -8  -1   87.64   10.99
  -1   8   1   12.53    2.39
   1  -8   0    8.94    2.38
   1  -8   0    6.84    1.68
  -1   8   0    8.44    1.64
   1  -8   1   34.91    2.53
   1  -8   1   35.44    2.43
   1  -8   2   10.38    2.27
   1  -8   2   14.97    2.90
   1  -8   3    2.08    1.49
   1  -8   3    3.97    2.33
   1  -7  -9   20.04    3.04
  -1   7   9   12.64    5.44
   1  -7  -8  161.41    6.79
  -1   7   8  168.41   11.10
   1  -7  -7    1.23    0.95
  -1   7   7    2.43    1.33
  -1   7   7    6.30    4.02
   1  -7  -6   75.61    4.60
   1  -7  -6   64.97    2.97
  -1   7   6   69.69    6.37
   1  -7  -5   59.80    3.78
   1  -7  -5   67.32    2.26
  -1   7   5   64.08    4.91
   1  -7  -4    7.63    1.60
   1  -7  -4    6.62    1.02
  -1   7   4    8.44    2.35
   1  -7  -3  460.17    7.69
   1  -7  -3  385.97    5.85
  -1   7   3  465.37    9.40
   1  -7  -2  855.18   10.52
  -1   7   2  865.21   13.59
   1  -7  -1   48.22    3.12
   1  -7  -1   52.07    3.63
  -1   7   1   53.60    3.44
   1  -7   0   12.33    2.02
   1  -7   0   19.47    6.48
  -1   7   0   11.72    1.50
   1  -7   1  129.86    4.79
   1  -7   1  139.52    4.70
  -1   7  -1  132.08    3.15
   1  -7   2   99.78    5.18
   1  -7   2  110.46    5.59
   1  -7   3  163.30    5.51
   1  -7   3  166.70    5.96
   1  -7   4    0.79    1.50
   1  -7   4    1.54    1.64
   1  -7   5   62.14    4.30
   1  -7   5   58.65    4.36
   1  -6  -9    5.73    2.87
  -1   6   9    8.17    5.30
   1  -6  -8   27.23    4.17
  -1   6   8   30.71    3.04
  -1   6   8   28.81    5.44
   1  -6  -7   41.92    3.36
  -1   6   7   32.71    2.55
  -1   6   7   39.19    6.76
   1  -6  -6  250.60    6.22
   1  -6  -6  225.54    4.26
  -1   6   6  272.18    8.90
   1  -6  -5   59.41    3.49
   1  -6  -4  422.34   12.98
   1  -6  -4  405.20   10.51
  -1   6   4  432.22   13.06
   1  -6  -3    8.99    1.13
  -1   6   3    4.77    2.56
   1  -6  -2  620.82   16.26
   1  -6  -1  128.36    4.38
   1  -6  -1  145.75    5.17
  -1   6   1  150.35    5.43
   1  -6   0    4.55    2.63
   1  -6   0    1.73    1.58
  -1   6   0    1.53    1.14
   1  -6   1  261.94    8.51
   1  -6   1  263.05    8.44
  -1   6  -1  255.01    6.93
   1  -6   2   23.53    2.59
   1  -6   2   24.73    3.13
  -1   6  -2   19.90    1.09
   1  -6   3   31.49    2.52
   1  -6   3   32.77    2.79
   1  -6   4   24.52    2.61
   1  -6   4   31.92    3.23
   1  -6   5   55.59    4.16
   1  -6   5   47.69    4.54
   1  -6   6    8.94    2.67
   1  -6   6    6.97    2.41
   1  -5 -10    5.30    2.45
  -1   5  10    3.01    2.86
   1  -5  -9   21.48    3.72
  -1   5   9   10.45    3.47
  -1   5   9   14.02    7.80
   1  -5  -8  128.24    6.38
  -1   5   8  126.40    5.30
  -1   5   8  135.00    7.83
   1  -5  -7   16.93    2.50
  -1   5   7   10.26    2.26
  -1   5   7   10.07    5.47
   1  -5  -6    2.32    2.15
  -1   5   6    1.31    1.47
  -1   5   6    0.57    3.42
   1  -5  -5   30.04    5.98
   1  -5  -5   26.01    2.72
  -1   5   5   36.27    5.98
   1  -5  -4  101.13    3.40
   1  -5  -4  109.47    3.06
  -1   5   4  112.09    5.54
   1  -5  -3    2.28    0.64
  -1   5   3    8.95    2.77
   1  -5  -2   18.45    1.69
   1  -5  -2   17.52    1.22
  -1   5   2   22.41    3.04
   1  -5  -1   30.61    2.20
   1  -5  -1   40.81    1.83
  -1   5   1   52.83    3.26
   1  -5   0  186.70    5.55
   1  -5   0  177.76    4.81
  -1   5   0  220.49    4.93
   1  -5   1    9.00    1.53
   1  -5   1    9.55    1.68
  -1   5  -1   10.95    1.08
   1  -5   2  322.90    9.86
   1  -5   2  416.23   12.13
  -1   5  -2  330.25    8.37
   1  -5   3   66.64    3.53
   1  -5   3   71.41    4.11
  -1   5  -3   61.99    1.58
  -1   5  -4  212.66   10.39
   1  -5   4  218.12    6.88
  -1   5  -5    3.66    1.59
   1  -5   5    2.18    1.90
  -1   5  -6    1.62    1.36
   1  -5   6    4.36    2.79
  -1   5  -7   17.22    2.54
   1  -5   7   25.27    3.42
   1  -4 -10    4.54    2.79
  -1   4  10    3.32    2.96
  -1   4  10    7.09    2.62
   1  -4  -9   47.20    3.84
  -1   4   9   45.49    4.14
  -1   4   9   40.65    4.70
   1  -4  -8  173.91    7.73
  -1   4   8  154.99    7.19
  -1   4   8  186.30    9.99
   1  -4  -7    6.25    1.79
  -1   4   7    5.08    1.93
  -1   4   7   12.30    5.84
   1  -4  -6   39.33    2.64
  -1   4   6   38.50    2.59
  -1   4   6   47.89    5.64
   1  -4  -5  579.00   12.20
  -1   4   5  537.81   10.84
  -1   4   5  573.57   14.21
   1  -4  -4   22.35    4.45
   1  -4  -4   15.27    2.45
  -1   4   4   13.12    3.84
   1  -4  -3   49.86    2.28
   1  -4  -3   40.12    1.33
  -1   4   3   31.72    2.90
   1  -4  -2 1691.47    7.80
   1  -4  -1  117.48    3.07
   1  -4  -1  135.04    2.81
   1  -4   0   49.03    2.47
   1  -4   1  271.65    5.02
   1  -4   1  291.05    5.79
  -1   4  -1  256.52    3.58
  -1   4  -1  249.36    2.51
   1  -4   2   42.67    2.53
  -1   4  -2   53.34    1.67
  -1   4  -2   53.09    1.32
  -1   4  -3  198.52    6.51
  -1   4  -3  179.23    4.22
  -1   4  -3  172.72    4.21
  -1   4  -4  156.78    7.39
  -1   4  -4  141.41    4.30
  -1   4  -6   94.37    5.41
  -1   4  -7    0.68    1.66
   1  -4   7    4.73    6.75
   1  -3 -10  267.68   23.87
  -1   3  10  239.17   21.82
  -1   3  10  233.92   21.40
   1  -3  -9   66.16    5.30
  -1   3   9   51.74    4.75
  -1   3   9   58.31    5.16
   1  -3  -8    3.13    1.61
  -1   3   8    1.77    2.40
  -1   3   8    5.83    3.57
   1  -3  -7  753.93   11.54
  -1   3   7  700.76   11.53
  -1   3   7  730.84   17.69
   1  -3  -6  880.20   22.58
  -1   3   6  784.07   20.57
  -1   3   6  791.42   22.19
   1  -3  -5   81.87    3.11
  -1   3   5   76.50    3.82
  -1   3   5   76.04    5.49
  -1   3   4  585.39    5.46
   1  -3  -3  163.39    2.87
   1  -3  -3  157.34    2.08
  -1   3   3  184.74    5.19
  -1   3   2  278.36    2.58
  -1   3   2  272.15    4.01
   1  -3  -1  589.43    4.05
  -1   3   1  606.33    4.34
  -1   3   1  572.75    4.97
   1  -3  -1  621.48    3.82
   1  -3   0  601.35    6.13
   1  -3   0  576.47    4.98
  -1   3   0  573.93    3.54
   1  -3   1   32.96    1.83
  -1   3  -1   34.72    0.83
  -1   3  -2    5.89    2.11
   1  -3   2   19.94    4.97
  -1   3  -2    6.00    0.57
  -1   3  -2    5.15    0.51
  -1   3  -3   14.86    1.96
   1  -3   3   14.89    2.46
  -1   3  -3   12.74    0.89
  -1   3  -4   20.53    2.83
   1  -3   4   14.46    3.43
   1  -3   4   27.35    3.19
  -1   3  -4   15.53    1.68
  -1   3  -5  633.23   18.55
   1  -3   5  571.74   17.73
  -1   3  -6  110.69    5.92
   1  -3   6   99.35    5.90
  -1   3  -7    2.15    2.10
   1  -3   7   22.89   11.34
  -1   3  -8    7.82    2.29
   1  -3   8   24.00    8.54
   1  -2 -10  178.95    7.33
  -1   2  10  155.60    7.10
  -1   2  10  177.98    8.31
   1  -2  -9  162.23    7.37
  -1   2   9  151.18    7.73
  -1   2   9  165.71    8.66
   1  -2  -8   14.35    2.91
  -1   2   8    9.96    3.25
  -1   2   8   16.42    4.55
   1  -2  -7    2.07    2.71
  -1   2   7    0.94    3.22
  -1   2   7    1.11    2.70
   1  -2  -6  888.09   22.92
  -1   2   6  834.86   21.83
  -1   2   6  839.77   22.60
   1  -2  -5   87.29    3.67
  -1   2   5   75.30    3.91
  -1   2   5   84.76    5.37
   1  -2  -4  188.01    3.47
  -1   2   4  168.52    3.81
  -1   2   4  169.18    5.27
  -1   2   3  289.27    3.56
  -1   2   3  300.56    5.46
   1  -2  -2  294.20    2.08
  -1   2   2  291.56    1.82
  -1   2   2  299.17    5.31
   1  -2  -1    1.15    0.45
  -1   2   1    1.49    0.61
   1  -2  -1    7.56    1.64
  -1   2   1    1.02    0.32
  -1   2   1    7.82    2.29
   1  -2  -1    3.01    2.58
   1  -2   0 1245.98    7.73
  -1   2  -2   26.49    2.02
   1  -2   2   25.18    2.10
  -1   2  -3  114.05    4.07
   1  -2   3   94.15    4.58
   1  -2   3  113.53    2.32
  -1   2  -3   95.83    2.37
  -1   2  -4    0.62    1.22
   1  -2   4    3.73    2.98
   1  -2   4    1.38    0.71
  -1   2  -4    1.40    0.88
  -1   2  -5  683.48   18.97
   1  -2   5  715.32   20.38
   1  -2   5  611.60   15.68
  -1   2  -6    0.02    1.85
   1  -2   6    0.29    2.96
   1  -2   6    3.80    1.16
  -1   2  -7  187.86    8.75
   1  -2   7  195.37    9.25
   1  -2   7  206.16    7.75
  -1   2  -8   15.94    3.26
   1  -2   8   18.68    4.67
  -1   2  -9   42.38    4.09
   1  -2   9   47.79    5.98
   1  -1 -10   48.48    4.69
  -1   1  10   44.86    4.39
  -1   1  10   57.41    4.22
   1  -1  -9   71.96    4.74
  -1   1   9   82.57    6.56
  -1   1   9   76.99    5.01
   1  -1  -8  201.10    8.92
  -1   1   8  197.00    9.26
  -1   1   8  189.71    8.65
   1  -1  -7    1.87    2.28
  -1   1   7    0.31    2.80
  -1   1   7    3.26    3.26
   1  -1  -6   20.79    2.68
  -1   1   6   12.02    3.39
  -1   1   6   18.72    2.62
   1  -1  -5  680.86   13.54
  -1   1   5  661.91   13.92
  -1   1   5  748.67   15.62
   1  -1  -4  606.97    6.34
  -1   1   4  627.88    7.21
  -1   1   4  626.79    7.99
   1  -1  -3  884.39    5.82
  -1   1   3  874.32    6.69
   1  -1  -3  878.27    5.67
  -1   1   3  899.43    8.03
   1  -1  -1  111.23    1.54
  -1   1   1  104.94    1.73
  -1   1   1  110.89    2.16
   1  -1   0  139.27    2.15
   1  -1   0  136.02    2.07
   1  -1   0  136.66    1.86
  -1   1   0  139.76    1.82
   1  -1   0  137.81    1.53
  -1   1  -1  467.93    4.74
   1  -1   1  428.98    4.24
   1  -1   1  433.22    5.10
  -1   1  -1  424.15    4.57
  -1   1  -2    9.37    1.16
   1  -1   2    7.09    2.18
   1  -1   2    8.24    0.60
  -1   1  -2   10.24    1.91
  -1   1  -3    0.53    1.11
   1  -1   3    1.25    2.71
   1  -1   3    2.67    1.06
  -1   1  -3    0.21    0.54
   1  -1   4  142.19    4.87
   1  -1   4  160.31    3.46
   1  -1   5  134.15    5.79
   1  -1   5  153.91    4.86
  -1   1  -6   35.34   15.02
   1  -1   6   10.40    5.23
   1  -1   6    5.70    1.32
  -1   1  -7   19.91    2.91
   1  -1   7   31.56    4.11
   1  -1   7   32.84    2.73
  -1   1  -8   29.73    3.75
   1  -1   8   27.82    4.68
   1  -1   8   29.96    2.75
  -1   1  -9   28.07    3.55
   1  -1   9   30.20    5.30
   1   0  -9  104.47   13.96
  -1   0   9   28.22    3.37
  -1   0   9   23.88    2.75
   1   0  -8   53.58    4.49
  -1   0   8   53.38    4.34
  -1   0   8   55.12    4.07
   1   0  -7   28.70    3.13
  -1   0   7   22.15    2.51
  -1   0   7   27.10    3.03
   1   0  -6   61.65    3.80
  -1   0   6   55.00    4.24
  -1   0   6   58.49    3.61
   1   0  -5  150.19    5.35
  -1   0   5  133.01    5.19
  -1   0   5  134.87    5.73
   1   0  -4    8.48    1.40
  -1   0   4    4.68    1.84
  -1   0   4    8.87    2.10
   1   0  -3  269.51    3.42
  -1   0   3  298.58    4.87
  -1   0   3  279.94    4.92
   1   0  -2  280.36    2.74
   1   0  -2  303.51    4.07
  -1   0   2  305.98    4.29
   1   0  -2  269.88    3.97
   1   0  -1    0.42    0.44
  -1   0   1    0.50    0.49
   1   0  -1    0.36    1.34
  -1   0   1    0.09    0.77
   1   0  -1    0.30    0.69
  -1   0   0   37.76    1.01
   1   0   0   38.33    0.88
  -1   0   0   40.10    0.69
   1   0   0   38.50    0.65
   1   0   0   38.76    1.23
  -1   0   0   37.66    1.24
   1   0   1  150.24    1.11
  -1   0  -1  154.41    1.34
  -1   0  -2 1575.64    8.75
   1   0   2 1564.64    9.31
  -1   0  -2 1613.21    7.83
   1   0   2 1644.09    6.35
  -1   0  -3 1172.73    9.08
   1   0   3 1194.92    9.79
   1   0   3 1168.43    6.53
  -1   0  -3 1115.49    5.54
   1   0   4  425.73    7.71
   1   0   4  380.40    5.38
  -1   0  -5  387.11    9.97
   1   0   5  439.33   12.37
   1   0   5  365.31    8.52
  -1   0  -6    1.39    1.69
   1   0   6    5.22    7.41
   1   0   6    2.54    2.17
  -1   0  -7  141.67   15.82
   1   0   7   34.62    5.05
   1   0   7   36.37    3.20
   1   0   8  106.99    8.67
   1   0   8  112.01    5.46
  -1   0  -9   33.95   13.89
   1   0   9    4.34    3.41
   1   0   9    3.38    1.31
   1   1  -9   56.88    6.02
  -1  -1   9  178.10   20.38
  -1  -1   9   64.55    6.62
   1   1  -8   88.08   10.65
  -1  -1   8   69.48   10.86
  -1  -1   8   25.01    2.67
  -1  -1   7   71.76    4.84
  -1  -1   7   67.91    3.93
  -1  -1   6   49.98    3.86
  -1  -1   6   57.56    3.40
  -1  -1   5  498.99   11.66
   1   1  -4   61.03    2.69
  -1  -1   4   66.49    3.58
  -1  -1   4   68.06    3.51
   1   1  -2   10.51    3.27
  -1  -1   2    1.86    0.42
  -1  -1   2    0.96    1.08
   1   1  -1   29.56    0.94
  -1  -1   1   28.79    0.84
  -1  -1   1   36.15    1.30
  -1  -1   1   29.20    1.36
   1   1  -1   28.62    1.24
  -1  -1   0   29.15    0.43
   1   1   0   28.90    0.47
  -1  -1   0   33.45    0.95
   1   1   0   35.05    0.98
  -1  -1   0   31.11    1.21
  -1  -1  -1   45.43    1.15
   1   1   1   45.17    1.17
  -1  -1  -1   44.84    1.11
  -1  -1  -2    3.48    0.84
   1   1   2    3.19    0.64
  -1  -1  -2    2.73    0.78
   1   1   2    3.26    0.45
   1   1   2    5.67    1.24
  -1  -1  -2    3.32    0.56
  -1  -1  -3  599.84    5.58
   1   1   4  557.83    7.26
   1   1   4  585.41    6.27
  -1  -1  -5  209.14    6.38
   1   1   5  188.49    5.22
   1   1   5  173.61    5.02
  -1  -1  -6   43.20    3.31
   1   1   6   62.40    6.27
   1   1   6   35.35    4.32
   1   1   7    3.17    4.72
   1   1   7   15.63    3.58
  -1  -1  -8    5.04    1.90
   1   1   8   15.45    6.14
   1   1   8    7.72    2.61
  -1  -1  -9   78.44   15.14
   1   1   9   13.76    4.11
   1   1   9   13.51    3.34
   1   2  -9   28.98    3.00
  -1  -2   9   88.55   10.25
   1   2  -8   12.40    3.17
  -1  -2   8   29.26    7.90
  -1  -2   8    9.21    2.20
   1   2  -7   48.04    3.64
  -1  -2   7  117.34   11.94
  -1  -2   7   42.71    3.49
   1   2  -6  483.97    9.45
   1   2  -4  318.27    7.95
  -1  -2   4  321.13    8.29
   1   2  -3   68.87    2.64
  -1  -2   3   64.81    2.84
   1   2  -2    8.45    1.01
  -1  -2   2    9.38    0.84
  -1  -2   2   10.88    1.52
  -1  -2   2   10.23    1.70
   1   2  -1   53.54    1.47
  -1  -2   1   50.61    1.46
  -1  -2   1   47.06    1.77
   1   2  -1   50.16    1.89
   1   2   0  396.60    2.83
   1   2   0  402.33    3.75
  -1  -2  -1 3515.23   10.63
  -1  -2  -2  437.85    3.77
   1   2   2  433.97    3.46
   1   2   4 1165.67    9.53
  -1  -2  -5   55.93    3.06
   1   2   5   58.89    2.92
   1   2   5   52.72    3.68
  -1  -2  -6  990.54   20.50
   1   2   6  799.33   17.74
   1   2   6  819.74   17.62
   1   2   7 1020.53   15.91
   1   2   7  996.55   14.19
  -1  -2  -8   22.43    3.05
   1   2   8   18.75    3.82
   1   2   8   24.51    4.21
  -1  -2  -9   73.04    5.53
   1   2   9   51.25    4.61
   1   2   9   51.80    3.77
  -1  -2 -10  181.80   16.93
   1   2  10  183.27   16.77
   1   2  10  200.71   18.05
   1   3  -8  188.35   16.82
  -1  -3   8  175.93   16.22
   1   3  -7   16.54    2.25
  -1  -3   7   15.99    2.68
  -1  -3   7   24.14    2.77
   1   3  -6  149.81    5.35
  -1  -3   6  149.18    5.51
  -1  -3   6  184.30    6.64
   1   3  -5   95.39    4.31
  -1  -3   5   88.48    4.55
  -1  -3   5  116.14    5.11
   1   3  -4  350.37   10.57
  -1  -3   4  325.99   10.22
  -1  -3   4  390.15   11.99
   1   3  -3  354.60    8.18
  -1  -3   3  381.19    9.05
   1   3  -2   32.89    1.60
  -1  -3   2   33.98    2.11
  -1  -3   2   34.42    3.74
  -1  -3   1  466.06    4.72
  -1  -3   1  457.08    4.37
  -1  -3   0  214.33    2.47
   1   3   0  232.09    2.99
   1   3   0  229.78    3.52
   1   3   1  470.07    3.76
   1   3   1  470.83    4.55
  -1  -3  -2  787.49    5.31
  -1  -3  -2  811.50    5.33
   1   3   2  745.60    5.61
  -1  -3  -3  130.66    2.80
  -1  -3  -3  110.99    2.21
   1   3   3  110.44    2.94
  -1  -3  -4   73.66    3.02
  -1  -3  -4   67.74    2.41
   1   3   4   70.83    3.36
  -1  -3  -5   77.51    3.61
   1   3   5   95.76    4.29
  -1  -3  -6   94.11    3.79
   1   3   6  112.18    3.97
   1   3   6  115.32    5.82
  -1  -3  -7  263.63    6.42
   1   3   7  255.57    7.60
   1   3   7  249.48    8.69
  -1  -3  -8    3.97    3.19
   1   3   8    3.12    3.77
   1   3   8    1.51    2.50
  -1  -3  -9   22.77    3.68
   1   3   9   15.49    4.27
   1   3   9   14.90    4.51
  -1  -3 -10   20.32    6.41
   1   3  10   25.44    4.48
   1   3  10   16.22    2.76
   1   4  -7  224.50    6.63
  -1  -4   7  230.50    7.61
   1   4  -6   37.61    8.25
  -1  -4   6   29.39    2.93
  -1  -4   6   64.22   11.36
   1   4  -5   38.18    4.21
  -1  -4   5   33.78    3.27
  -1  -4   5   75.12    5.77
   1   4  -4  884.03   23.70
  -1  -4   4  966.03   25.41
  -1  -4   4  888.35   23.02
   1   4  -3  122.74    5.03
  -1  -4   3  112.69    4.13
  -1  -4   3  143.45    5.49
  -1  -4   2  103.63    3.58
  -1  -4   2  113.00    4.24
   1   4  -2   98.87    3.41
  -1  -4   1   27.24    1.48
  -1  -4   1   33.21    2.01
   1   4  -1   27.40    1.63
  -1  -4   0   10.03    1.81
  -1  -4   0   11.65    1.46
   1   4   0    8.32    2.83
  -1  -4  -2  183.27    2.76
  -1  -4  -2  201.02    3.52
   1   4   2  173.80    3.14
  -1  -4  -3  843.20    7.62
  -1  -4  -3  772.23    6.33
   1   4   3  844.07    7.55
  -1  -4  -4   72.40    2.77
  -1  -4  -4   63.25    2.26
   1   4   4   75.45    3.42
   1   4   5   18.80    2.89
  -1  -4  -6  266.07   10.05
   1   4   6  261.69    8.83
   1   4   6  230.70    8.83
  -1  -4  -7    7.03    1.93
   1   4   7    2.58    2.38
   1   4   7    6.97    4.53
  -1  -4  -8  197.12    8.59
   1   4   8  246.28   11.24
   1   4   8  237.66   11.65
  -1  -4  -9   25.69    4.61
   1   4   9   23.58    4.87
   1   4   9   21.92    4.24
  -1  -4 -10   16.62    3.30
   1   4  10   16.69    4.95
   1   4  10   21.34    4.02
  -1  -5   7    3.64    2.32
   1   5  -6    8.69    6.08
  -1  -5   6   16.48    2.44
   1   5  -5   93.45    4.61
  -1  -5   5   90.29    4.71
  -1  -5   4    7.79    1.34
  -1  -5   4   14.15    2.15
   1   5  -4   12.05    1.60
  -1  -5   3   33.73    2.26
  -1  -5   3   35.46    2.72
   1   5  -3   33.06    2.22
  -1  -5   2  460.36   12.39
  -1  -5   2  500.71   14.05
   1   5  -2  403.45   11.08
  -1  -5   1  750.46   14.37
  -1  -5   1  781.44   15.68
   1   5  -1  771.33   15.05
  -1  -5   0   49.69    2.18
  -1  -5   0   54.04    2.62
   1   5   0   43.04    4.00
  -1  -5  -2  135.07    3.57
  -1  -5  -2  152.67    4.34
   1   5   2  130.45    5.17
  -1  -5  -3   27.64    1.64
  -1  -5  -3   22.81    1.90
   1   5   3   13.55    2.12
  -1  -5  -4  702.38   13.91
  -1  -5  -4  671.85   13.74
   1   5   4  592.20   12.95
  -1  -5  -5   12.96    2.08
  -1  -5  -5    4.37    5.52
   1   5   5    7.17    2.76
  -1  -5  -6  225.11    8.09
  -1  -5  -6  227.58   13.26
   1   5   6  207.20    7.99
  -1  -5  -7   43.42    3.61
   1   5   7   59.49    4.50
   1   5   7   39.86    4.86
  -1  -5  -8   17.47    3.23
   1   5   8   29.64    3.47
   1   5   8   21.59    5.10
  -1  -5  -9    7.11    2.51
   1   5   9    9.51    3.15
   1   5   9   11.09    3.60
  -1  -5 -10   49.71    5.71
   1   5  10   34.04    4.68
   1   5  10   36.87    5.04
  -1  -6   6   17.57    2.80
  -1  -6   5   22.10    2.21
  -1  -6   5   24.51    7.04
  -1  -6   4   19.46    2.03
  -1  -6   4   29.60    3.71
   1   6  -4   19.52    1.92
  -1  -6   3  205.59    5.33
  -1  -6   3  216.92    6.26
   1   6  -3  191.00    4.95
  -1  -6   2  316.37    6.07
  -1  -6   2  338.17    7.63
   1   6  -2  327.52    6.34
  -1  -6   1   48.93    2.59
  -1  -6   1   43.42    2.81
   1   6  -1   37.05    2.44
  -1  -6   0   40.37    2.05
  -1  -6   0   38.80    2.64
   1   6   0   31.75    2.04
  -1  -6  -1   50.56    2.52
   1   6   1   45.20    2.29
  -1  -6  -2  547.25   14.85
  -1  -6  -2  606.29   16.03
   1   6   2  444.01   12.46
  -1  -6  -3  672.48   17.67
  -1  -6  -3  687.65   17.47
   1   6   3  661.29   17.49
  -1  -6  -4    1.81    1.15
  -1  -6  -4    8.61    1.16
   1   6   4   -0.08    2.36
  -1  -6  -5    5.02    3.13
  -1  -6  -5    3.68    0.94
   1   6   5    9.79    2.56
  -1  -6  -6  135.01    4.56
  -1  -6  -6  118.78    4.10
   1   6   6   94.77    4.78
  -1  -6  -7  105.43    6.03
  -1  -6  -7   78.91    4.05
   1   6   7   86.72    5.26
  -1  -6  -8   63.64    4.02
   1   6   8   68.46    4.33
   1   6   8   74.70    6.94
  -1  -6  -9    2.46    2.01
   1   6   9    1.46    4.38
   1   6   9    8.69    6.00
  -1  -7   5    7.47    2.45
  -1  -7   4  222.97    6.29
  -1  -7   4  206.07    6.73
  -1  -7   3   48.63    2.82
  -1  -7   3   49.04    3.39
   1   7  -3   45.89    2.28
  -1  -7   2   26.82    2.16
  -1  -7   2   27.53    2.81
   1   7  -2   18.63    4.94
  -1  -7   1  121.88    3.70
  -1  -7   1  131.20    5.11
   1   7  -1  108.99    3.29
  -1  -7   0   72.34    2.79
  -1  -7   0   82.61    3.87
   1   7   0   72.87    3.17
  -1  -7  -1    2.63    1.50
  -1  -7  -1   40.08   14.27
   1   7   1    5.30    1.41
  -1  -7  -2    3.81    1.19
  -1  -7  -2    3.86    1.63
   1   7   2    0.87    1.31
  -1  -7  -3  909.68   10.67
  -1  -7  -3  912.29   11.80
   1   7   3  931.33   17.70
  -1  -7  -4    4.92    1.31
  -1  -7  -4    5.66    1.38
   1   7   4    5.56    1.90
  -1  -7  -5   36.46    2.31
  -1  -7  -5   37.90    2.18
   1   7   5   42.90    4.20
  -1  -7  -6   78.89    4.54
  -1  -7  -6   76.01    3.74
   1   7   6   84.25    5.62
  -1  -7  -7    1.95    1.59
  -1  -7  -7    1.55    1.58
   1   7   7    0.60    3.41
  -1  -7  -8   55.60    9.18
   1   7   8   56.24    3.73
   1   7   8   62.62    5.96
   1   7   9   39.11    4.96
   1   7   9   50.92    7.06
  -1  -8   3   77.96    7.89
  -1  -8   2   16.34    1.82
  -1  -8   2   20.91    3.36
   1   8  -2   16.12    2.13
  -1  -8   1   56.82    2.86
  -1  -8   1   73.05    4.16
   1   8  -1   61.45    6.75
  -1  -8   0   17.25    2.31
   1   8   0    6.57    1.26
  -1  -8  -1  280.15    9.72
   1   8   1  236.17    8.26
  -1  -8  -2    7.63    2.60
  -1  -8  -2    7.34    1.70
   1   8   2    5.38    1.34
  -1  -8  -3    2.45    1.43
  -1  -8  -3    1.73    0.96
   1   8   3    3.74    2.22
  -1  -8  -4  155.99    6.25
  -1  -8  -4  157.72    6.00
   1   8   4  133.97    5.97
  -1  -8  -5   80.71    4.03
  -1  -8  -5   83.85    3.17
   1   8   5   82.76    4.71
  -1  -8  -6   22.76    2.21
  -1  -8  -6   21.59    2.22
   1   8   6   19.22    3.53
  -1  -8  -7  133.61    5.15
  -1  -8  -7  131.90    4.19
   1   8   7  133.14    6.57
  -1  -8  -8   53.64    6.81
  -1  -8  -8   39.49    4.12
   1   8   8   44.90    7.80
  -1  -9   1   29.94    3.49
  -1  -9   1   27.79    3.72
   1   9  -1   15.79    1.96
  -1  -9   0   19.76    4.45
  -1  -9   0   97.88   14.96
   1   9   0   13.65    2.38
  -1  -9  -1   27.65    3.44
  -1  -9  -1  215.55   38.80
   1   9   1    9.74    2.16
  -1  -9  -2   56.36    3.19
  -1  -9  -2   68.80    4.03
  -1  -9  -3   31.81    2.46
  -1  -9  -3   32.17    2.56
   1   9   3   18.82    7.52
  -1  -9  -4   11.44    2.18
  -1  -9  -4   14.17    3.48
   1   9   4    2.85    2.97
  -1  -9  -5   66.64    3.53
  -1  -9  -5   64.72    2.88
   1   9   5   64.00    4.50
  -1  -9  -6    4.64    2.52
  -1  -9  -6    5.63    2.18
   1   9   6    7.41    4.10
  -1  -9  -7   17.99    3.20
  -1  -9  -7   11.83    4.85
   1   9   7   13.34    8.20
  -1 -10  -1   18.58    1.95
  -1 -10  -1   12.93    1.78
   1  10   1    3.30    1.44
  -1 -10  -2   97.25    3.78
  -1 -10  -2  111.30    4.65
   1  10   2   70.88    4.08
  -1 -10  -3  366.30    7.46
  -1 -10  -3  389.59    7.31
   1  10   3  336.92   28.72
  -1 -10  -4    2.63    1.34
  -1 -10  -4    2.24    1.29
   1  10   4    4.21    3.41
  -1 -10  -5    6.18    3.56
  -1 -10  -5    5.20    1.34
   1  10   5    7.18    3.52
   2  -9  -6   12.95    2.67
  -2   9   6   16.08    4.40
   2  -9  -5   11.86    2.37
  -2   9   5   14.14    4.85
   2  -9  -4   45.15    3.32
  -2   9   4   48.19    6.16
   2  -9  -3   31.27    2.85
  -2   9   3   30.33    3.90
   2  -9  -2    2.11    1.75
  -2   9   2    2.12    1.89
   2  -9  -1    1.68    1.54
   2  -9  -1   27.94    8.43
   2  -9   0   15.28    2.36
   2  -9   0   15.08    2.38
   2  -9   1    8.31    1.71
   2  -9   1    8.97    1.93
   2  -8  -8    0.57    1.03
  -2   8   8   10.26    6.73
   2  -8  -7  110.28   10.17
  -2   8   7  117.47   12.15
   2  -8  -6   36.73    3.40
  -2   8   6   30.01    4.70
   2  -8  -5   68.67    3.61
  -2   8   5   72.16    6.02
   2  -8  -4  261.08    6.68
  -2   8   4  227.00    8.17
   2  -8  -3   65.03    4.55
   2  -8  -3   58.04    2.67
  -2   8   3   70.89    4.90
   2  -8  -2    2.47    1.33
   2  -8  -2    3.20    0.83
  -2   8   2    6.84    2.41
   2  -8  -1   56.68    3.68
  -2   8   1   51.90    3.70
   2  -8   0   17.51    8.25
   2  -8   0   21.08    2.27
   2  -8   1   37.56    3.04
   2  -8   1   35.67    2.86
   2  -8   2    0.99    1.61
   2  -8   2    3.30    1.79
   2  -8   3   14.39    3.34
   2  -8   3   15.56    2.84
   2  -7  -8   15.22    2.54
  -2   7   8   18.01    5.59
   2  -7  -7   51.81    3.28
  -2   7   7   61.07    7.33
   2  -7  -6    1.54    1.87
  -2   7   6   10.35    6.28
   2  -7  -5   48.47    3.81
  -2   7   5   53.37    6.52
   2  -7  -4    2.76    1.59
   2  -7  -4    0.53    0.41
  -2   7   4    0.33    2.93
   2  -7  -3    5.65    1.93
   2  -7  -3    2.09    0.82
  -2   7   3    3.55    3.37
   2  -7  -2  413.28    8.25
  -2   7   2  407.45    7.54
   2  -7  -1  246.76    6.22
   2  -7  -1  287.24    5.85
  -2   7   1  244.37    6.21
   2  -7   0   36.88    3.06
   2  -7   0   39.31    2.48
  -2   7   0   45.03    3.16
   2  -7   1  316.41    7.82
   2  -7   1  318.34    7.14
   2  -7   2   68.89    4.58
   2  -7   2   66.19    3.98
   2  -7   3   12.16    3.03
   2  -7   3   12.13    2.19
   2  -7   4    1.12    1.77
   2  -7   4    1.08    1.63
   2  -6  -9  266.06   23.36
  -2   6   9  198.38   18.90
   2  -6  -8   36.97    3.44
  -2   6   8   28.04    5.97
   2  -6  -7    1.25    2.00
  -2   6   7    1.91    3.63
   2  -6  -6    0.66    1.82
  -2   6   6    1.79    1.28
  -2   6   6    0.89    3.35
   2  -6  -5    0.62    1.43
   2  -6  -5   -0.02    0.50
  -2   6   5   -1.28    3.34
   2  -6  -4  141.40    5.46
   2  -6  -4  139.73    4.08
  -2   6   4  152.75    7.47
   2  -6  -3  165.37    6.53
   2  -6  -3  154.34    4.40
  -2   6   3  178.42    7.49
   2  -6  -2  121.14    3.75
  -2   6   2  125.94    4.39
   2  -6  -1   31.53    2.97
   2  -6  -1   38.38    2.35
  -2   6   1   37.47    2.43
   2  -6   0  302.20    9.82
   2  -6   0  278.64    8.32
  -2   6   0  284.74    7.96
   2  -6   1   18.02    2.71
   2  -6   1   18.76    2.17
  -2   6  -1   14.32    1.53
   2  -6   2  140.23    5.37
   2  -6   2  151.31    5.09
   2  -6   3   21.79    3.31
   2  -6   3   23.78    3.08
   2  -6   4    9.54    2.04
   2  -6   4   11.37    2.63
   2  -6   5   16.49    2.64
   2  -6   5   13.31    2.64
   2  -6   6   62.70    4.70
   2  -5  -9   85.38    4.97
  -2   5   9   63.01    5.87
   2  -5  -8  116.08    5.32
  -2   5   8   99.28    6.05
   2  -5  -7  337.28   11.69
  -2   5   7  281.28   10.01
  -2   5   7  293.91   13.78
   2  -5  -6   14.42    1.88
  -2   5   6   19.16    2.06
  -2   5   6   19.80    4.57
   2  -5  -5    1.44    1.65
  -2   5   5    1.95    1.07
  -2   5   5    5.61    6.10
   2  -5  -4  103.15    3.69
   2  -5  -4   83.96    1.77
  -2   5   4   92.85    6.43
   2  -5  -3  124.27    4.12
   2  -5  -3  127.57    2.89
  -2   5   3  145.41    6.73
   2  -5  -2  221.68    5.86
   2  -5  -2  259.00    5.38
  -2   5   2  250.80    7.80
   2  -5  -1  303.52    7.48
   2  -5  -1  354.28    7.51
  -2   5   1  340.81    7.38
   2  -5   0  465.10   10.46
   2  -5   0  513.32   11.03
  -2   5   0  461.85    9.20
   2  -5   1  260.35    7.66
   2  -5   1  302.18    7.57
  -2   5  -1  249.04    5.34
  -2   5  -1  264.95    5.71
   2  -5   2  110.69    4.79
   2  -5   2  121.76    4.60
  -2   5  -2  112.09    1.87
   2  -5   3  159.57    6.17
   2  -5   3  164.39    5.72
  -2   5  -5   22.92   12.65
   2  -5   5   70.96    9.44
  -2   5  -6   74.84    5.21
  -2   5  -7   42.96   10.00
   2  -5   7  100.62   11.25
   2  -4  -9   91.13    5.03
  -2   4   9  103.43    7.57
   2  -4  -8   31.96    3.16
  -2   4   8   28.80    2.86
  -2   4   8   36.76    3.99
   2  -4  -7  410.75    7.92
  -2   4   7  385.67    7.99
  -2   4   7  393.92   10.39
   2  -4  -6   10.79    1.97
  -2   4   6    7.78    2.06
  -2   4   6    2.53    3.50
   2  -4  -5  416.21   11.70
  -2   4   5  443.07   11.60
  -2   4   5  443.86   15.02
  -2   4   4  113.86    5.99
   2  -4  -3   65.68    2.69
   2  -4  -3   74.80    1.55
  -2   4   3   60.90    1.46
  -2   4   3   64.31    4.43
   2  -4  -2   51.92    2.27
   2  -4  -2   55.04    1.36
  -2   4   2   60.11    3.94
   2  -4  -1  622.70    6.24
  -2   4   1  608.54    7.60
   2  -4   0  829.26    9.14
  -2   4   0  758.69    5.62
   2  -4   1  390.92    9.25
   2  -4   1  405.97    8.79
  -2   4  -1  379.34    7.11
  -2   4  -2  221.54    4.11
  -2   4  -2  212.99    3.90
  -2   4  -3  136.94    4.91
  -2   4  -4  128.74    6.03
  -2   4  -5  202.96    7.84
  -2   4  -6    0.40    1.95
   2  -4   6   10.37    9.65
  -2   4  -7    4.93    2.66
   2  -4   7   11.56    7.14
   2  -3  -9    3.81    1.23
  -2   3   9    5.23    2.90
  -2   3   9    1.53    2.40
   2  -3  -8   33.20    3.03
  -2   3   8   28.49    3.58
  -2   3   8   34.22    6.39
   2  -3  -7   60.17    3.66
  -2   3   7   50.07    3.66
  -2   3   7   52.97    4.29
   2  -3  -6  541.94   16.24
  -2   3   6  512.01   13.83
  -2   3   6  575.78   16.94
   2  -3  -5   30.37    2.43
  -2   3   5   29.63    2.00
  -2   3   5   30.53   12.67
   2  -3  -4    4.53    1.17
  -2   3   4    7.70    0.47
  -2   3   4    3.68    1.13
  -2   3   4    4.10    3.04
   2  -3  -1    1.37    1.46
   2  -3  -1    1.36    0.43
  -2   3   1    0.40    0.52
  -2   3   1    3.11    2.31
   2  -3   0   13.82    1.51
   2  -3   0   13.12    1.02
  -2   3   0   14.21    1.56
  -2   3   0   13.73    1.48
   2  -3   0   13.50    0.67
   2  -3   1   38.74    2.22
   2  -3   1   48.60    2.49
  -2   3  -1   43.43    1.22
   2  -3   1   48.06    1.03
  -2   3  -2  129.50    4.40
   2  -3   2  126.11    4.18
  -2   3  -3   27.89    2.93
   2  -3   3   28.68    2.99
  -2   3  -4   11.17    3.96
   2  -3   4   10.28    2.95
  -2   3  -4    8.53    0.64
  -2   3  -5   50.05    3.79
   2  -3   5   52.27    6.05
  -2   3  -6  182.43    6.65
   2  -3   6  165.22    8.10
  -2   3  -7   60.45    7.58
   2  -3   7   44.91    4.36
  -2   3  -8    1.37    1.83
   2  -3   8    9.47    4.56
   2  -2  -9   21.72    2.59
  -2   2   9   19.42    3.60
  -2   2   9   25.37    4.62
   2  -2  -8   80.15    5.37
  -2   2   8   47.81    3.82
  -2   2   8   62.43    6.10
   2  -2  -7  201.20    5.55
  -2   2   7  209.44    6.39
  -2   2   7  231.10    8.49
   2  -2  -6  166.48    5.90
  -2   2   3  797.96    4.51
  -2   2   3  749.43    8.42
   2  -2  -2  254.54    3.61
  -2   2   2  243.58    4.24
  -2   2   1  840.52    6.52
   2  -2  -1  883.85    6.21
   2  -2   0  243.83    3.83
   2  -2   0  228.56    2.97
  -2   2   0  230.84    3.06
   2  -2   0  225.41    2.30
  -2   2  -1  110.63    3.35
   2  -2   1  128.70    3.28
  -2   2  -1  120.01    1.17
   2  -2   1  111.54    0.73
  -2   2  -2 1149.41   10.57
   2  -2   2 1019.78    9.56
  -2   2  -3  341.05    7.13
   2  -2   3  333.44    7.13
  -2   2  -4  515.13   12.24
   2  -2   4  553.69   13.61
   2  -2   4  494.52    8.99
  -2   2  -4  434.74    7.56
  -2   2  -5   97.80    4.58
   2  -2   5   99.05    5.87
   2  -2   5   94.14    2.22
  -2   2  -6  207.82    6.87
   2  -2   6  194.01    7.38
   2  -2   6  211.58    4.07
  -2   2  -7   26.13    2.96
   2  -2   7   29.82    5.81
  -2   2  -8    2.64    1.57
   2  -2   8    3.80    3.40
  -2   2  -9   79.50    6.26
   2  -2   9   68.48    5.71
   2  -1  -9   58.79    3.70
  -2   1   9   60.19    4.85
   2  -1  -8   18.17    2.22
  -2   1   8   25.42    2.83
  -2   1   8   23.66    3.69
   2  -1  -7  111.49    5.27
  -2   1   7   96.60    5.15
  -2   1   7  107.38    5.89
   2  -1  -6  296.27    9.73
  -2   1   6  334.27   10.49
  -2   1   6  334.86   11.64
   2  -1  -5  269.52    6.59
  -2   1   5  283.47    7.24
  -2   1   5  290.55    8.48
   2  -1  -4  540.35    5.79
  -2   1   4  547.15    6.22
  -2   1   4  531.51    9.03
   2  -1  -3  363.59    3.59
  -2   1   3  338.75    6.30
   2  -1  -2  111.32    1.88
  -2   1   2  106.08    1.97
   2  -1  -2  118.41    1.75
  -2   1   2  125.64    3.63
  -2   1   1  812.93    4.96
  -2   1   1  855.33    7.03
   2  -1   1  477.52    5.17
  -2   1  -1  479.51    4.13
  -2   1  -2  261.15    4.92
   2  -1   2  264.65    4.56
  -2   1  -3  443.27    2.63
  -2   1  -4  356.50    7.29
   2  -1   4  390.40    7.98
   2  -1   4  379.99    3.94
  -2   1  -4  340.21    2.59
  -2   1  -5    5.13    2.71
   2  -1   5    4.27    4.55
   2  -1   5    2.03    1.51
  -2   1  -6  227.89   11.34
   2  -1   6  199.46    8.02
   2  -1   6  234.99    7.24
  -2   1  -7  308.14    9.67
   2  -1   7  284.64   11.93
   2  -1   7  299.56    6.19
  -2   1  -8   14.12    3.15
   2  -1   8    7.61    3.70
  -2   1  -9  116.80   11.64
   2  -1   9  108.45   11.04
   2   0  -9  102.64   14.64
  -2   0   9   71.90   10.39
  -2   0   9   27.17    3.75
   2   0  -8  172.56    6.27
  -2   0   8  160.03    6.88
   2   0  -7   64.82    3.71
  -2   0   7   62.75    4.67
   2   0  -6  378.87   11.49
  -2   0   6  356.44   12.09
   2   0  -5  449.94   10.20
  -2   0   5  411.31   10.54
  -2   0   4  201.86    5.34
  -2   0   2  295.91    2.95
   2   0  -1  773.57    3.94
  -2   0   1  798.32    6.97
   2   0   2  207.12    3.45
  -2   0  -2  187.27    2.29
  -2   0  -3    2.66    5.61
   2   0   3    0.18    2.22
   2   0   3    1.03    0.95
  -2   0  -3    1.59    0.82
   2   0   4  110.31    5.81
   2   0   4  108.25    2.90
   2   0   5  200.03    7.81
   2   0   5  197.43    6.26
   2   0   6  390.21   13.16
   2   0   6  420.05   11.64
  -2   0  -7   27.94   12.29
   2   0   7   10.64    5.11
   2   0   7    7.57    1.55
  -2   0  -8   28.38    9.84
   2   0   8   12.17    3.68
   2   0   8    7.86    2.20
  -2   0  -9   83.00   19.75
   2   0   9   19.65    5.51
   2   1  -9   42.74    4.90
  -2  -1   9   42.33    5.00
  -2  -1   9   34.98    4.20
  -2  -1   7   63.75    4.29
   2   1  -5  237.18    7.65
  -2  -1   5  244.76    8.73
   2   1  -4  905.15   17.14
  -2  -1   4  875.27   16.95
  -2  -1   4  878.97   18.21
   2   1  -3  804.87    6.39
   2   1  -2  189.18    2.44
  -2  -1   2  205.29    4.68
   2   1  -1 2058.27    8.23
  -2  -1   0  441.44    2.12
   2   1   0  459.39    5.09
  -2  -1  -1  177.82    2.58
  -2  -1  -1  156.14    3.58
   2   1   1  170.33    2.88
   2   1   1  181.43    2.80
  -2  -1  -2 2533.67   13.41
  -2  -1  -3   -0.13    1.15
  -2  -1  -3    0.46    0.48
   2   1   3    0.00    0.82
  -2  -1  -4 1073.44   11.76
   2   1   4  991.26    9.51
   2   1   4  997.62    7.43
  -2  -1  -5  935.27   19.34
   2   1   5  921.44   19.18
   2   1   5  754.09   14.42
  -2  -1  -6   11.12    2.62
   2   1   6   10.00    4.55
   2   1   6    6.53    1.97
  -2  -1  -7    3.11    2.28
   2   1   7    2.94    4.20
   2   1   7    1.68    2.28
   2   1   8   47.21    4.77
   2   1   8   67.17    4.61
   2   1   9   43.55    5.27
   2   1   9   47.82    4.06
  -2  -1 -10   47.16   12.58
   2   1  10    2.81    3.96
   2   2  -8   79.44    4.13
  -2  -2   8   99.78    4.97
  -2  -2   8   88.65    5.06
   2   2  -7   33.18    2.76
  -2  -2   7   30.54    3.01
  -2  -2   7   36.28    3.34
   2   2  -6   43.16    2.99
  -2  -2   6   37.10    3.01
  -2  -2   6   38.56    3.44
   2   2  -5  233.38    7.63
  -2  -2   5  224.95    7.65
  -2  -2   5  218.93    8.16
   2   2  -4   87.53    3.53
  -2  -2   4   78.03    3.80
  -2  -2   4   76.94    4.37
   2   2  -2  248.15    2.96
  -2  -2   2  258.45    5.68
  -2  -2  -1  423.63    3.30
  -2  -2  -1  409.49    3.74
  -2  -2  -2  340.90    3.99
  -2  -2  -2  335.95    3.58
  -2  -2  -3  509.77    5.61
  -2  -2  -3  490.10    5.96
   2   2   3  528.50    4.47
  -2  -2  -4  256.47    4.37
   2   2   4  243.72    3.69
  -2  -2  -5   -0.20    1.82
   2   2   5    5.57    2.69
   2   2   5    3.14    2.34
  -2  -2  -6   47.65    3.76
   2   2   6   46.64    4.05
   2   2   6   43.32    3.11
  -2  -2  -7  721.62   13.34
   2   2   7  680.17   13.21
   2   2   7  634.58   11.35
  -2  -2  -8   -0.30    1.88
   2   2   8    6.88    5.81
   2   2   8    2.36    2.49
  -2  -2  -9   37.03    4.23
   2   2   9   29.67    4.48
   2   2   9   33.79    4.01
  -2  -2 -10  204.29   27.68
   2   2  10   34.65    5.21
   2   2  10   34.88    4.49
  -2  -3   8   25.69    3.88
  -2  -3   8   32.83    4.77
   2   3  -7   25.36    3.47
  -2  -3   7   29.13    3.42
  -2  -3   7   31.57    3.49
   2   3  -6   11.98    1.81
  -2  -3   6   13.16    2.79
  -2  -3   6   19.89    3.04
   2   3  -5    2.13    0.98
  -2  -3   5    2.68    2.03
  -2  -3   5    5.09    1.75
   2   3  -4  715.60   18.40
  -2  -3   4  686.62   18.68
  -2  -3   4  825.58   22.52
   2   3  -3  167.70    4.55
  -2  -3   3  224.14    6.22
  -2  -3   2  159.06    2.68
  -2  -3   2  140.92    2.43
  -2  -3   2  164.59    3.82
   2   3   1  440.68    3.34
  -2  -3  -1  458.27    4.92
   2   3   1  439.17    5.56
  -2  -3  -2  864.01    5.83
  -2  -3  -3   57.46    2.08
  -2  -3  -3   48.46    1.83
   2   3   3   56.00    2.00
  -2  -3  -4   55.51    2.52
  -2  -3  -4   53.14    3.08
   2   3   4   54.78    2.59
  -2  -3  -5  147.97    4.78
  -2  -3  -5  143.66    4.19
   2   3   5  172.62    5.57
  -2  -3  -6  457.64   14.18
   2   3   6  602.12   17.23
   2   3   6  605.10   16.59
  -2  -3  -7   87.62    5.11
   2   3   7  103.89    6.36
   2   3   7   94.51    4.70
  -2  -3  -8  213.28    9.72
   2   3   8  199.80   10.00
   2   3   8  194.04    9.51
  -2  -3  -9   41.30    4.42
   2   3   9   64.42    6.39
   2   3   9   36.61    4.04
  -2  -3 -10    6.94    2.89
   2   3  10    8.74    4.21
   2   3  10    2.61    2.77
  -2  -4   7  131.47   12.08
  -2  -4   7  305.45   27.89
   2   4  -6   50.20    4.12
  -2  -4   6   43.91    3.45
  -2  -4   6   94.94   13.81
   2   4  -5  147.98    4.82
  -2  -4   5  138.27    5.07
  -2  -4   4  557.91    9.72
  -2  -4   3  923.33   22.71
  -2  -4   3 1040.95   26.52
  -2  -4   3 1030.43   26.65
  -2  -4   2   90.82    2.82
  -2  -4   2   95.95    3.90
  -2  -4   2  111.46    4.61
  -2  -4   1  925.50   16.43
  -2  -4   1  979.90   18.59
   2   4  -1  916.02   17.77
  -2  -4   0  280.85    2.95
  -2  -4  -1  526.63    3.92
   2   4   1  556.97    5.95
  -2  -4  -3   -0.21    0.99
  -2  -4  -3   -0.29    0.95
   2   4   3    0.47    1.54
  -2  -4  -4  248.46    6.44
  -2  -4  -4  216.58    5.39
   2   4   4  269.44    6.84
  -2  -4  -5   70.11    2.87
  -2  -4  -5   79.08    4.39
   2   4   5   89.16    4.58
  -2  -4  -6    6.09    2.55
  -2  -4  -6    6.10    3.13
   2   4   6    5.69    3.41
  -2  -4  -7    1.39    2.09
   2   4   7   -1.76    2.31
   2   4   7   -1.02    2.89
  -2  -4  -8  132.37    7.43
   2   4   8  123.76    7.87
   2   4   8  138.22    8.37
  -2  -4  -9  221.27    9.66
   2   4   9  233.26   10.74
   2   4   9  218.13   11.43
  -2  -4 -10   46.98    6.47
   2   4  10   36.96    6.45
   2   4  10   43.89    6.34
  -2  -5   6   14.68    2.78
  -2  -5   6   15.84    2.14
  -2  -5   5   93.14    3.64
  -2  -5   5  103.09    6.74
  -2  -5   5  110.76    4.88
  -2  -5   4   56.27    2.47
  -2  -5   4   61.63    3.63
  -2  -5   4   79.95    4.75
  -2  -5   3    4.73    1.16
  -2  -5   3    5.20    1.65
   2   5  -3    4.47    2.45
  -2  -5   2  141.20    4.65
  -2  -5   2  161.43    6.11
   2   5  -2  142.93    5.99
  -2  -5   1  317.19    8.56
  -2  -5   1  384.65   11.10
   2   5  -1  337.16    9.82
  -2  -5   0  155.87    3.72
  -2  -5   0  166.85    5.05
   2   5   0  151.30    5.12
  -2  -5  -1  326.43    6.56
   2   5   1  345.81    7.87
  -2  -5  -2  173.59    4.16
  -2  -5  -2  208.50    5.54
   2   5   2  184.03    5.00
  -2  -5  -3    4.82    1.06
  -2  -5  -3    6.61    1.09
   2   5   3   11.10    5.14
  -2  -5  -4  173.57    5.11
  -2  -5  -4  173.54    4.88
   2   5   4  233.50    6.91
  -2  -5  -5  192.23    6.61
  -2  -5  -5  192.74    6.44
   2   5   5  174.02    6.65
  -2  -5  -6   18.75    2.33
  -2  -5  -6   22.63    9.16
   2   5   6   20.97    6.99
  -2  -5  -7    2.04    2.41
  -2  -5  -7    5.21    1.84
   2   5   7    6.53    2.65
  -2  -5  -8    9.13    2.31
   2   5   8    9.88    2.27
   2   5   8    8.06    2.70
  -2  -5  -9  161.73    7.80
   2   5   9  149.54    7.29
   2   5   9  139.79    8.38
  -2  -5 -10  127.83    6.55
   2   5  10  121.57    7.25
   2   5  10  122.40    8.59
  -2  -6   5   39.35    3.14
   2   6  -5   34.96    2.75
  -2  -6   4   17.57    3.22
   2   6  -4   21.04    2.54
  -2  -6   3    9.13    1.52
  -2  -6   3   11.01    2.18
   2   6  -3    8.80    1.87
  -2  -6   2  113.15    3.55
  -2  -6   2  100.94    4.29
   2   6  -2   93.02    4.00
  -2  -6   1  117.37    3.07
  -2  -6   1  111.15    4.33
   2   6  -1  114.67    4.10
  -2  -6   0  354.50    9.34
   2   6   0  322.65    9.34
  -2  -6  -1  304.63    8.12
   2   6   1  286.72    8.56
  -2  -6  -2  389.89   10.22
  -2  -6  -2  531.94   14.64
   2   6   2  450.19   13.37
  -2  -6  -3  321.05    8.90
  -2  -6  -3  417.69   11.30
   2   6   3  410.58   11.40
  -2  -6  -4    3.06    2.02
  -2  -6  -4    2.19    1.24
   2   6   4    5.08    1.47
  -2  -6  -5    0.59    1.39
  -2  -6  -5    0.62    1.25
   2   6   5   -0.84    2.03
  -2  -6  -6   37.18    3.22
  -2  -6  -6   39.39    3.45
   2   6   6   38.48    4.33
  -2  -6  -7   21.85    6.29
  -2  -6  -7   18.88    1.84
   2   6   7   19.30    3.27
  -2  -6  -8   38.84    3.49
   2   6   8   43.27    3.43
   2   6   8   45.52    5.22
  -2  -6  -9   32.27    3.22
   2   6   9   54.62    5.10
   2   6   9   53.76    7.21
  -2  -7   4  179.17   15.95
   2   7  -4  180.18   15.71
  -2  -7   3   62.43    4.12
   2   7  -3   48.36    3.11
  -2  -7   2   28.89    1.88
  -2  -7   2   27.38    2.91
   2   7  -2   27.34    2.58
  -2  -7   1   68.11    3.13
  -2  -7   1   87.85    5.13
   2   7  -1   64.41    3.73
  -2  -7   0   40.40    2.02
   2   7   0   41.28    4.93
  -2  -7  -1   65.52    2.52
   2   7   1   58.01    3.11
  -2  -7  -2  174.83    3.75
  -2  -7  -2  199.30    5.65
   2   7   2  181.26    5.14
  -2  -7  -3   79.50    3.51
  -2  -7  -3   74.73    3.06
   2   7   3   67.76    3.04
  -2  -7  -4   52.02    2.71
  -2  -7  -4   49.58    2.62
   2   7   4   76.20    3.81
  -2  -7  -5  351.60    7.28
  -2  -7  -5  414.91    7.36
   2   7   5  374.24    8.86
  -2  -7  -6    7.11    3.59
  -2  -7  -6    9.74    3.45
   2   7   6   11.40    2.96
  -2  -7  -7   66.77    4.65
  -2  -7  -7   72.50    3.55
   2   7   7   60.79    7.37
  -2  -7  -8   86.32    4.98
  -2  -7  -8   73.51    3.84
   2   7   8  104.50    7.00
  -2  -7  -9   17.75    3.00
   2   7   9   14.00    3.19
   2   7   9   14.87    4.75
  -2  -8   3   58.62    6.21
   2   8  -3   50.85    5.09
  -2  -8   2   95.74    5.65
   2   8  -2   86.23    3.53
  -2  -8   1   76.80    5.43
   2   8  -1   41.99    2.65
  -2  -8   0   58.76    6.35
   2   8   0   47.94    2.86
  -2  -8  -1   27.39    2.18
  -2  -8  -1   30.72    2.87
   2   8   1   24.40    2.35
  -2  -8  -2   25.43    1.82
  -2  -8  -2   31.72    2.75
   2   8   2   16.14    2.50
  -2  -8  -3   33.38    2.36
  -2  -8  -3   20.29    2.51
   2   8   3   25.76    2.58
  -2  -8  -4    3.72    1.08
   2   8   4    5.06    2.46
  -2  -8  -5   80.61    3.61
  -2  -8  -5   59.18    6.55
   2   8   5   58.12    3.64
  -2  -8  -6   33.77    2.78
  -2  -8  -6   36.08    2.85
   2   8   6   44.57    4.94
  -2  -8  -7    8.45    2.25
  -2  -8  -7    8.61    2.22
   2   8   7   13.04    5.23
  -2  -8  -8    9.16    2.25
  -2  -8  -8    6.51    5.39
   2   8   8    5.95    4.05
   2   9  -1  101.88    9.20
  -2  -9   0   63.39   23.95
   2   9   0   10.57    2.40
  -2  -9  -1  152.67    4.05
  -2  -9  -1  181.23    5.88
   2   9   1  150.74    4.45
  -2  -9  -2   24.41    4.75
  -2  -9  -2   31.07    3.17
   2   9   2   22.83    3.41
  -2  -9  -3    3.32    1.73
  -2  -9  -3    2.83    1.59
   2   9   3    1.90    1.92
  -2  -9  -4  130.28    4.21
  -2  -9  -4  132.94    4.61
   2   9   4  136.99    6.09
  -2  -9  -5   14.05    5.02
  -2  -9  -5   11.96    5.76
   2   9   5   15.43    3.62
  -2  -9  -6  108.63   10.08
  -2  -9  -6  134.70   12.14
   2   9   6  124.31   12.02
  -2  -9  -7  213.90    5.87
   2   9   7  205.63    7.41
  -2 -10  -2   18.90    2.72
   2  10   2    9.38    2.63
  -2 -10  -3    5.14    1.87
  -2 -10  -3    9.21    1.87
   2  10   3    3.96    2.96
  -2 -10  -4    7.95    1.59
  -2 -10  -4   16.66    2.27
   2  10   4    8.72    2.69
   3  -9  -5    1.18    2.67
  -3   9   5    1.71    3.17
   3  -9  -4   99.51    9.41
  -3   9   4  100.67   10.41
   3  -9  -3    8.66    3.79
  -3   9   3   12.56    3.50
   3  -9  -2    2.06    1.91
   3  -9  -1   20.25    3.44
   3  -9   0   35.25    4.64
   3  -8  -7    3.93    2.12
  -3   8   7    4.10    3.16
   3  -8  -6    3.40    1.51
  -3   8   6    9.71    4.60
   3  -8  -5   34.09    3.28
  -3   8   5   42.44    5.42
   3  -8  -4    6.48    2.24
  -3   8   4   13.00    3.96
   3  -8  -3   60.59    7.31
  -3   8   3   65.45    5.41
   3  -8  -2  348.07    8.72
  -3   8   2  340.39    8.57
   3  -8  -1   29.74    3.36
   3  -8   0    2.36    1.91
   3  -8   0    1.89    1.74
   3  -8   1   42.70    3.94
   3  -8   1   39.07    2.62
   3  -8   2   40.16    4.95
   3  -8   2   47.95    5.20
   3  -8   3   39.08    3.54
   3  -8   3   39.38    3.67
   3  -7  -8   10.78    2.65
  -3   7   8   14.53    3.86
   3  -7  -7    4.78    1.95
  -3   7   7    7.19    4.54
   3  -7  -6   93.33    4.38
  -3   7   6   89.18    6.98
   3  -7  -5   37.78    3.14
  -3   7   5   40.77    5.76
   3  -7  -4   34.95    2.74
  -3   7   4   28.96    5.23
   3  -7  -3    7.00    2.55
  -3   7   3    8.02    2.94
   3  -7  -2  539.75    9.97
   3  -7  -2  587.24    7.46
  -3   7   2  602.70    9.99
   3  -7  -1   23.98    3.18
   3  -7  -1   27.38    1.83
  -3   7   1   28.28    3.47
   3  -7   0    8.60    2.61
   3  -7   0    9.26    1.50
   3  -7   1    7.69    2.41
   3  -7   1    5.83    2.06
   3  -7   2   27.25    3.76
   3  -7   2   24.03    3.01
   3  -7   3   25.55    4.04
   3  -7   3   31.71    2.94
   3  -7   4   78.15    7.92
   3  -7   4  100.99    9.67
   3  -6  -8    6.57    2.06
  -3   6   8    7.72    3.46
   3  -6  -7   11.85    2.41
  -3   6   7   10.10    4.59
   3  -6  -6   65.80    3.84
  -3   6   6   83.03   16.01
   3  -6  -5  100.63    4.81
  -3   6   5   94.88    6.30
   3  -6  -4   63.97    3.18
  -3   6   4   84.60    6.34
   3  -6  -3  149.40    4.71
   3  -6  -3  129.42    2.10
  -3   6   3  142.65    5.74
   3  -6  -2    5.11    2.26
   3  -6  -2    1.20    0.48
  -3   6   2   -0.69    2.30
   3  -6  -1    2.72    1.59
   3  -6  -1    0.91    0.98
  -3   6   1    0.93    2.51
   3  -6   0  179.58    5.57
   3  -6   0  194.92    4.63
  -3   6   0  170.76    4.69
   3  -6   1   33.08    3.02
   3  -6   1   27.90    2.37
   3  -6   2  323.49    8.50
   3  -6   2  383.40    8.80
   3  -6   3   23.07    3.09
   3  -6   3   19.95    2.80
   3  -6   4   21.26    4.07
   3  -6   4   15.54    3.13
   3  -6   5    1.58    1.84
   3  -6   5    4.29    1.77
   3  -5  -9   18.51    7.67
  -3   5   9   15.95    4.06
   3  -5  -8  114.89    5.33
  -3   5   8  133.50    7.71
   3  -5  -7   61.57    6.95
  -3   5   7   56.60    5.75
   3  -5  -6    9.72    3.31
  -3   5   6    9.70    3.94
   3  -5  -5  165.28    5.65
  -3   5   5  185.17    6.50
   3  -5  -4    1.75    1.39
  -3   5   4    3.65    3.70
   3  -5  -3    1.95    1.93
   3  -5  -3    2.01    0.79
  -3   5   3    2.52    0.62
  -3   5   3    0.30    2.56
   3  -5  -2  539.48   14.76
   3  -5  -2  525.72   12.74
  -3   5   2  504.92   12.66
  -3   5   2  495.53   14.42
   3  -5  -1   31.41    3.06
   3  -5  -1   27.47    2.46
  -3   5   1   26.62    2.54
   3  -5   0   42.41    2.91
   3  -5   0   41.92    2.13
   3  -5   1   15.66    2.29
   3  -5   1   22.61    2.32
  -3   5  -1   20.74    1.16
   3  -5   2    4.59    1.53
   3  -5   2    9.36    5.80
   3  -5   3    2.63    2.00
   3  -5   3    4.61    4.61
  -3   5  -4  103.18    6.86
  -3   5  -5  245.46   11.50
   3  -5   5  644.04   67.69
  -3   5  -6    9.81    4.99
   3  -5   6   56.76    8.90
   3  -4  -9    2.13    2.14
  -3   4   9    2.64    2.41
   3  -4  -8    1.60    1.60
  -3   4   8    2.91    2.83
   3  -4  -7   18.36    2.11
  -3   4   7   26.66    4.42
   3  -4  -6  109.74    3.77
  -3   4   6  131.83    6.36
   3  -4  -5   92.42    3.90
  -3   4   5   89.16    1.89
  -3   4   5   86.43    4.53
   3  -4  -4    3.54    1.26
  -3   4   4    6.68    2.69
   3  -4  -3   10.53    1.36
  -3   4   3    9.19    5.45
   3  -4  -2  223.96    6.39
   3  -4  -2  208.11    3.75
  -3   4   2  209.01    4.11
  -3   4   2  211.90    6.18
   3  -4  -1   44.71    2.86
   3  -4  -1   42.80    1.26
  -3   4   1   37.75    1.70
  -3   4   1   42.54    2.48
   3  -4   0  193.97    5.88
   3  -4   0  210.00    5.15
  -3   4   0  192.27    4.85
   3  -4   0  196.39    3.90
   3  -4   1    4.33    1.89
   3  -4   1   10.16    3.78
  -3   4  -1    3.07    0.62
   3  -4   1    3.10    0.39
   3  -4   2   34.99    2.72
  -3   4  -3   15.01    4.56
   3  -4   3   10.71    2.56
  -3   4  -4   28.47   11.37
   3  -4   4   25.45    3.67
  -3   4  -5  387.17   15.54
   3  -4   5  347.67   14.06
  -3   4  -6    3.83    2.95
   3  -4   6    6.53    3.41
  -3   4  -7   48.84    5.71
   3  -4   7   51.18    7.51
   3  -3  -9  212.96   18.48
  -3   3   9  268.64   23.94
   3  -3  -8   37.55    3.25
  -3   3   8   38.32    4.33
   3  -3  -7    4.55    1.58
  -3   3   7    4.23    1.49
  -3   3   7    4.09    3.80
  -3   3   6 1294.62   12.64
  -3   3   6 1315.90   18.45
  -3   3   5  315.41   10.92
   3  -3  -4   34.31    1.94
  -3   3   4   37.70    0.63
  -3   3   4   37.30    0.79
  -3   3   4   36.46    2.95
   3  -3  -2  132.89    2.98
  -3   3   2  134.63    4.19
   3  -3  -1   12.16    1.48
  -3   3   1   13.15    1.81
   3  -3   0  781.76    8.43
   3  -3   1  154.27    4.59
   3  -3   1  159.69    4.38
   3  -3   1  157.82    1.43
  -3   3  -2   45.82    3.24
   3  -3   2   43.39    2.95
  -3   3  -3   11.66    3.47
   3  -3   3    4.75    2.66
  -3   3  -4   18.79    7.09
   3  -3   4   10.66    2.59
  -3   3  -5  408.02   11.33
   3  -3   5  381.46   10.27
  -3   3  -6   43.10    4.41
   3  -3   6   55.68    5.67
  -3   3  -7  177.55    8.79
   3  -3   7  152.85    8.11
  -3   3  -8    7.37    4.47
   3  -3   8    7.63    4.52
   3  -2  -9  185.55   16.72
  -3   2   9  189.70   17.45
   3  -2  -8    5.34    1.43
  -3   2   8   14.93    6.69
  -3   2   8    7.15    3.14
   3  -2  -7    2.52    1.45
  -3   2   7    6.05    2.87
  -3   2   7    3.13    2.49
   3  -2  -6   28.27    2.30
  -3   2   6   61.28    4.78
  -3   2   6   25.42    3.19
   3  -2  -5   12.18    1.44
  -3   2   5   32.83    2.96
  -3   2   5    9.48    2.15
   3  -2  -4  109.40    3.26
  -3   2   4  106.99    2.69
  -3   2   4  112.12    2.76
  -3   2   4  125.01    5.88
   3  -2  -3  263.81    3.59
  -3   2   3  242.26    1.25
   3  -2  -2  462.40    4.92
  -3   2   2  499.26    6.74
   3  -2  -1  162.68    1.00
   3  -2   0    0.44    1.29
   3  -2   0    0.14    0.16
   3  -2   0    1.41    1.21
  -3   2   0   -0.01    0.62
   3  -2   0    2.02    1.10
  -3   2  -1   45.30    2.61
   3  -2   1   41.45    2.07
  -3   2  -1   55.42    1.67
   3  -2   1   43.95    1.44
  -3   2  -2    0.45    1.23
   3  -2   2    2.37    3.59
  -3   2  -3    0.71    1.47
   3  -2   3    3.32    3.87
  -3   2  -4  129.61    6.02
   3  -2   4  119.48    5.40
  -3   2  -5   21.65    2.98
   3  -2   5   21.85    3.95
  -3   2  -6   75.86    5.61
   3  -2   6   81.13    7.98
  -3   2  -7   40.75    4.19
   3  -2   7   44.75    5.30
  -3   2  -8    1.55    1.87
   3  -2   8    7.23    3.77
   3  -1  -9    8.10    1.81
  -3   1   9    3.07    1.40
  -3   1   9    5.95    3.05
   3  -1  -8   20.07    2.41
  -3   1   8   65.99    6.85
  -3   1   8   14.32    3.31
   3  -1  -7  118.00    5.13
  -3   1   7   90.05    4.95
   3  -1  -6   13.48    1.81
  -3   1   6   46.36    5.28
  -3   1   6   16.19    4.08
   3  -1  -5   75.15    3.22
  -3   1   5   72.92    2.52
  -3   1   5   95.52    5.42
   3  -1  -4  350.24    7.25
  -3   1   4  384.01    7.83
  -3   1   4  409.14   10.45
   3  -1  -3  383.99    3.93
  -3   1   3  406.72    3.43
   3  -1  -3  391.58    4.05
  -3   1   3  436.54    7.32
   3  -1  -2   27.80    1.15
   3  -1  -2   35.27    1.17
  -3   1   2   32.85    2.61
   3  -1  -1  614.00    4.98
   3  -1  -1  611.14    3.38
  -3   1   1  644.43    7.10
   3  -1   0    9.93    0.92
   3  -1   0   11.13    0.50
   3  -1   0   15.66    0.92
  -3   1   0   11.53    1.41
   3  -1   0   12.34    1.19
   3  -1   1  391.09    4.79
  -3   1  -2    8.42    1.77
   3  -1   2    5.41    2.07
   3  -1   2    6.38    0.59
   3  -1   2    6.10    0.54
  -3   1  -3  223.38    5.58
   3  -1   3  217.80    5.56
  -3   1  -4    8.01    2.33
   3  -1   4   12.94    4.27
   3  -1   4    6.15    1.17
  -3   1  -4    4.85    0.51
  -3   1  -5   53.80    3.74
   3  -1   5   42.88    4.34
   3  -1   5   44.90    1.65
  -3   1  -5   50.34    1.38
  -3   1  -6   39.69    3.80
   3  -1   6   38.11    4.85
   3  -1   6   41.82    2.18
  -3   1  -7   76.93    5.86
   3  -1   7   69.24    6.79
  -3   1  -8   22.33    4.37
   3  -1   8   16.52    4.40
  -3   1  -9    4.52    2.12
   3  -1   9    3.93    3.57
  -3   0   9   50.12    3.43
  -3   0   9   38.25    3.31
   3   0  -8   23.48    3.51
  -3   0   8   23.99    3.54
  -3   0   8   26.67    4.32
   3   0  -7   23.13    2.27
  -3   0   7   15.95    1.90
  -3   0   7   35.77    4.22
   3   0  -6  158.07    4.80
  -3   0   6  161.05    4.64
  -3   0   6  107.75    5.25
   3   0  -5   13.10    5.38
  -3   0   5   17.39    1.64
   3   0  -4  110.58    3.31
  -3   0   4  114.63    3.70
  -3   0   4  108.42    5.21
   3   0  -3  404.82    4.06
  -3   0   3  369.48    4.29
  -3   0   3  382.60    7.20
   3   0  -2   21.70    0.77
  -3   0   2   23.45    0.87
  -3   0   2   22.09    1.00
  -3   0   2   20.88    1.98
   3   0  -1   46.62    1.69
   3   0  -1   46.47    1.44
  -3   0   1   47.63    1.28
   3   0  -1   47.47    1.26
  -3   0   1   47.21    2.57
   3   0   0   72.77    1.82
   3   0   0   67.81    1.79
  -3   0   0   67.20    1.43
   3   0   0   74.43    1.59
  -3   0   0   83.97    3.18
  -3   0  -1    1.60    1.04
   3   0   1    2.42    2.87
  -3   0  -1    0.59    0.54
  -3   0  -1    0.05    0.73
   3   0   1    1.25    0.62
  -3   0  -2   54.53    2.35
   3   0   2   59.83    2.45
   3   0   2   51.03    1.59
  -3   0  -3  665.97    9.10
   3   0   3  632.71    7.20
   3   0   3  636.69    4.85
   3   0   4  719.60   15.72
   3   0   5  399.32   11.50
   3   0   5  390.15    8.24
  -3   0  -6  140.65   13.86
   3   0   6   32.52    5.48
   3   0   6   44.84    4.02
  -3   0  -7   15.14   15.21
   3   0   7   -4.21    4.66
   3   0   7   -1.59    1.50
  -3   0  -8    3.34    3.33
   3   0   8    2.91    5.20
  -3   0  -9    4.65    4.58
   3   0   9    4.40    3.75
  -3  -1   7   47.89    3.02
  -3  -1   7   66.62    4.35
  -3  -1   6  465.92    8.84
   3   1  -5  236.50    7.25
  -3  -1   5  305.42    9.48
  -3  -1   5  229.60    8.64
   3   1  -4  350.38    7.59
  -3  -1   4  344.47    9.46
   3   1  -3   25.48    1.26
  -3  -1   3   19.11    0.70
  -3  -1   3   19.19    1.43
  -3  -1   3   23.60    2.75
  -3  -1   2    0.03    0.10
   3   1  -1    0.34    0.15
   3   1  -1    0.04    0.07
  -3  -1   1    2.76    4.33
  -3  -1   1    1.43    1.56
   3   1   0  140.19    1.73
  -3  -1   0  127.73    2.05
  -3  -1  -2  247.80    3.57
   3   1   2  249.87    3.61
  -3  -1  -3    4.43    5.08
  -3  -1  -3    0.46    0.68
   3   1   3    1.79    0.90
  -3  -1  -4  166.47    4.64
   3   1   4  165.15    5.18
   3   1   4  167.04    2.95
  -3  -1  -5   14.31   13.51
   3   1   5    8.06    5.00
   3   1   5    4.29    2.94
   3   1   6   96.65    4.74
   3   1   6  104.20    4.13
   3   1   7  437.44   12.01
   3   1   7  440.63    9.28
  -3  -1  -8   68.69   16.55
   3   1   8   21.69    4.71
  -3  -1  -9   31.46   15.21
   3   1   9    4.36    4.51
  -3  -2   8   19.13    2.98
  -3  -2   8   21.30    3.21
  -3  -2   7    4.14    1.74
  -3  -2   7    8.43    2.62
   3   2  -6    0.66    0.99
  -3  -2   6   18.25    3.26
   3   2  -5   23.00    1.82
  -3  -2   5   18.56    2.19
   3   2  -4  720.89   17.94
  -3  -2   4  762.10   19.59
  -3  -2   4  885.77   24.25
   3   2  -3   16.04    1.13
  -3  -2   3   14.11    0.59
  -3  -2   3   17.35    1.66
  -3  -2   3   17.49    2.36
  -3  -2   2    0.41    0.17
  -3  -2   2    1.30    0.83
  -3  -2   2    0.38    1.27
  -3  -2   1   13.05    1.25
  -3  -2   1   32.79    5.07
  -3  -2   0  169.18    2.90
  -3  -2   0  178.46    4.69
  -3  -2  -1   17.01    0.99
   3   2   1   13.66    0.58
  -3  -2  -1   15.76    1.00
   3   2   1   15.36    1.20
  -3  -2  -2   22.75    1.56
  -3  -2  -2   17.61    1.13
   3   2   2   20.74    1.86
  -3  -2  -3  232.76    4.56
  -3  -2  -3  204.41    3.74
   3   2   3  225.24    3.37
  -3  -2  -4  302.34    7.70
  -3  -2  -4  253.74    9.37
   3   2   4  290.89    6.38
  -3  -2  -5   38.76    3.96
   3   2   5   42.94    3.39
   3   2   5   47.39    3.34
  -3  -2  -6  203.44    8.31
   3   2   6  235.15    9.02
   3   2   6  185.11    6.55
  -3  -2  -7  735.89   14.27
   3   2   7  675.06   13.24
   3   2   7  754.43   10.87
  -3  -2  -8   65.77    5.39
   3   2   8   75.61    5.85
   3   2   8   70.93    5.27
  -3  -2  -9   12.68   11.09
   3   2   9    4.18    6.54
   3   2   9    1.64    2.03
  -3  -3   7  287.16    7.65
  -3  -3   7  398.30   10.76
  -3  -3   6  122.78    5.24
  -3  -3   6  146.00    7.01
   3   3  -5  137.95    3.77
  -3  -3   5  153.56    5.38
  -3  -3   5  169.76    7.00
   3   3  -4  654.96   16.60
  -3  -3   4  734.37   19.81
  -3  -3   4  785.26   22.91
  -3  -3   3    2.61    0.38
  -3  -3   3    2.03    1.55
  -3  -3   3    3.58    4.43
  -3  -3   2  173.17    3.30
  -3  -3   2  152.43    2.95
  -3  -3   2  177.82    4.96
  -3  -3   1   13.90    1.35
  -3  -3   1   14.32    2.10
  -3  -3   0  247.07    1.88
   3   3   0  250.59    5.00
  -3  -3  -1   79.57    1.86
   3   3   1   81.67    1.50
  -3  -3  -1   94.31    2.88
   3   3   1   73.40    3.16
  -3  -3  -2  178.68    3.19
  -3  -3  -2  167.58    3.55
   3   3   2  164.61    3.66
  -3  -3  -3 1154.79    9.79
  -3  -3  -4   22.69    2.00
  -3  -3  -4   13.90    1.60
   3   3   4   17.85    2.10
  -3  -3  -5    7.43    2.15
  -3  -3  -5    4.74    2.03
   3   3   5    4.97    2.67
  -3  -3  -6  287.62   10.29
   3   3   6  300.95   10.21
   3   3   6  292.18    9.38
  -3  -3  -7   20.53    2.77
   3   3   7   23.07    3.56
   3   3   7   21.72    2.82
  -3  -3  -8   52.27    5.27
   3   3   8   37.27    3.98
   3   3   8   42.18    4.12
  -3  -3  -9   30.85    3.77
   3   3   9   20.75    4.79
   3   3   9   30.40    4.29
  -3  -3 -10   39.21    4.38
   3   3  10   28.54    5.74
   3   3  10   34.41    3.75
  -3  -4   7    0.96    2.18
  -3  -4   7    3.02    4.09
  -3  -4   6  107.48   11.17
  -3  -4   5   49.46    4.59
  -3  -4   5   90.58   11.81
  -3  -4   4   15.47    1.40
  -3  -4   4   16.41    2.20
  -3  -4   4   32.67   14.21
  -3  -4   3  166.02    4.78
  -3  -4   3  166.10    6.41
  -3  -4   0    1.46    0.64
  -3  -4   0    0.17    0.25
  -3  -4   0    6.93    8.57
   3   4   0    0.66    1.65
  -3  -4  -1  432.58    8.11
   3   4   1  515.63    9.49
  -3  -4  -1  507.06   10.62
   3   4   1  517.24   10.97
  -3  -4  -2   30.22    1.50
  -3  -4  -2   31.18    2.10
   3   4   2   27.41    2.29
  -3  -4  -3  125.30    4.16
  -3  -4  -3  121.20    3.89
   3   4   3  120.06    3.86
  -3  -4  -4  125.52    4.24
  -3  -4  -4  111.28    3.77
   3   4   4  120.81    3.75
  -3  -4  -5   22.14    2.06
  -3  -4  -5   33.38    4.98
   3   4   5   25.15    2.03
  -3  -4  -6   31.06   10.46
  -3  -4  -6   22.11    2.42
   3   4   6   30.47    4.56
  -3  -4  -7    0.83    2.13
   3   4   7   -1.29    2.48
   3   4   7   -1.38    2.76
  -3  -4  -8    3.18    1.72
   3   4   8    1.05    3.34
   3   4   8    1.93    2.47
  -3  -4  -9  124.97    6.19
   3   4   9  134.74    7.28
   3   4   9  131.11    7.60
  -3  -4 -10   24.31    3.67
   3   4  10    4.74    4.11
   3   4  10   29.58    5.48
  -3  -5   6    5.32    1.61
  -3  -5   6    6.49    5.79
  -3  -5   5    0.71    1.82
  -3  -5   5    0.00    1.18
  -3  -5   4  106.54    5.39
  -3  -5   4  108.55    6.21
  -3  -5   3   96.91    4.23
  -3  -5   2   99.72    2.12
  -3  -5   2  120.19    5.00
   3   5  -2  104.80    4.78
  -3  -5   1  112.18    2.17
   3   5  -1  125.28    4.81
  -3  -5   0  258.56    6.54
   3   5   0  268.76    9.20
  -3  -5  -1   56.73    1.51
  -3  -5  -1   63.70    2.90
   3   5   1   53.27    2.89
  -3  -5  -2   13.13    0.97
  -3  -5  -2   12.22    1.57
   3   5   2   15.33    4.65
  -3  -5  -3  259.60    7.24
  -3  -5  -3  260.55    7.70
   3   5   3  304.93    8.74
  -3  -5  -4   11.40    4.84
  -3  -5  -4    9.07    1.35
   3   5   4    9.94    2.91
  -3  -5  -5  270.54    8.41
  -3  -5  -5  292.58    9.41
   3   5   5  312.46    9.53
  -3  -5  -6   47.72    4.20
  -3  -5  -6   43.95    2.83
   3   5   6   47.06    3.31
  -3  -5  -7  202.87    8.87
  -3  -5  -7  209.07    8.24
   3   5   7  234.83    9.66
  -3  -5  -8    8.61    2.08
   3   5   8   10.32    3.66
   3   5   8    3.87    3.33
  -3  -5  -9    5.79    2.49
   3   5   9    2.31    3.96
   3   5   9    8.03    4.52
  -3  -6   5   21.70    3.03
   3   6  -5   22.34    3.62
  -3  -6   4  148.25    6.69
   3   6  -4  149.30    6.63
  -3  -6   3  132.64    5.48
   3   6  -3  133.69    5.51
  -3  -6   2   84.60    4.63
   3   6  -2   83.69    4.41
  -3  -6   1  307.41    4.39
  -3  -6   1  347.86    7.97
   3   6  -1  283.14    7.20
  -3  -6   0  193.21    3.23
   3   6   0  224.12    6.07
  -3  -6  -1    2.49    0.96
  -3  -6  -1    3.19    1.43
   3   6   1    3.59    1.91
  -3  -6  -2    4.41    1.05
  -3  -6  -2    5.40    1.57
   3   6   2    4.25    1.47
  -3  -6  -3 1393.98   34.30
   3   6   3 1498.50   13.17
  -3  -6  -4   77.13    3.22
  -3  -6  -4   57.28    2.68
   3   6   4   75.31    3.47
  -3  -6  -5   36.86    2.64
  -3  -6  -5   39.90    2.40
   3   6   5   43.91    3.30
  -3  -6  -6  109.61    4.17
  -3  -6  -6  137.10    4.78
   3   6   6  116.24    5.20
  -3  -6  -7   22.85    3.04
  -3  -6  -7   23.13    7.28
   3   6   7   18.33   15.18
  -3  -6  -8   14.40    3.09
   3   6   8   10.83    2.68
   3   6   8   12.27    4.24
  -3  -6  -9   82.36    9.01
   3   6   9   60.86    6.67
   3   6   9   58.64    6.41
  -3  -7   4    2.51    2.18
   3   7  -4    3.35    1.82
  -3  -7   3  156.96    5.68
   3   7  -3  136.83    5.78
  -3  -7   2    4.77    3.87
   3   7  -2    3.96    1.71
   3   7  -1   39.98    3.04
  -3  -7   0   27.50    1.50
   3   7   0   31.65    3.01
  -3  -7  -1   50.36    1.87
  -3  -7  -1   55.96    3.07
   3   7   1   62.49    3.14
  -3  -7  -2    0.28    0.74
  -3  -7  -2    1.56    1.75
   3   7   2    0.40    2.00
  -3  -7  -3   21.18    1.61
  -3  -7  -3   20.17    5.32
   3   7   3   19.97    1.91
  -3  -7  -4   11.26    1.64
  -3  -7  -4   10.93    1.77
   3   7   4   10.48    1.74
  -3  -7  -5   36.55    3.41
  -3  -7  -5   29.08    2.46
   3   7   5   36.23    3.27
  -3  -7  -6    4.97    1.61
  -3  -7  -6    2.07    1.60
   3   7   6    2.43    2.26
  -3  -7  -7   12.12    3.00
  -3  -7  -7   10.37    4.70
   3   7   7    6.60    3.35
  -3  -7  -8   10.87    2.18
  -3  -7  -8    9.96    4.78
   3   7   8   11.08    3.49
   3   8  -2    2.36    2.17
   3   8  -1   76.31    3.40
  -3  -8   0   77.97   20.81
   3   8   0    2.15    3.58
  -3  -8  -1   29.07    2.54
   3   8   1   25.41    2.56
  -3  -8  -2   72.35    2.52
  -3  -8  -2   93.57    4.23
   3   8   2   91.82    4.00
  -3  -8  -3    3.27    1.37
  -3  -8  -3    5.15    1.49
   3   8   3    3.40    2.33
  -3  -8  -4    5.46    3.18
  -3  -8  -4    6.89    1.35
   3   8   4    6.02    2.02
  -3  -8  -5  249.14    9.50
  -3  -8  -5  270.09    9.11
   3   8   5  259.65    9.21
  -3  -8  -6    0.61    1.70
  -3  -8  -6    0.02    1.25
   3   8   6   -0.40    2.57
  -3  -8  -7   64.52    6.53
  -3  -8  -7   72.71    7.18
   3   8   7   66.18    7.44
  -3  -8  -8   77.04    5.09
  -3  -8  -8   75.20    5.66
   3   8   8   88.64    6.23
  -3  -9   0  163.73   25.62
   3   9   0   14.97    2.12
  -3  -9  -1   18.04    2.89
   3   9   1   15.04    2.12
  -3  -9  -2   21.34    2.28
   3   9   2   34.61    2.83
  -3  -9  -3  314.80    6.32
  -3  -9  -3  323.94    7.51
   3   9   3  361.13    7.81
  -3  -9  -4    5.27    1.94
  -3  -9  -4    5.42    2.10
   3   9   4    6.13    2.23
  -3  -9  -5    7.72    1.84
  -3  -9  -5    2.75    2.57
   3   9   5    6.99    2.36
  -3  -9  -6    2.63    1.70
  -3  -9  -6    2.29    1.14
   3   9   6    2.36    3.06
   4  -9  -4   32.67    3.34
  -4   9   4   24.67    4.31
   4  -9  -3    2.35    1.92
   4  -9  -2    3.59    1.66
   4  -9  -1   19.01    2.69
   4  -8  -6   49.39    5.22
  -4   8   6   54.87    6.55
   4  -8  -5   21.17    2.22
  -4   8   5   20.31    4.68
   4  -8  -4   48.98    3.24
  -4   8   4   48.65    4.36
   4  -8  -3   71.95    4.58
  -4   8   3   67.68    5.10
   4  -8  -2  145.95    6.56
   4  -8  -1   13.00    2.99
   4  -8   0    3.35    1.79
   4  -8   1   75.09    7.60
   4  -8   2    2.68    2.62
   4  -8   2    0.74    1.04
   4  -7  -7    0.88    1.32
  -4   7   7    6.35    2.72
   4  -7  -6    5.56    2.92
  -4   7   6    3.03    3.96
   4  -7  -5    4.59    2.95
  -4   7   5    1.25    2.38
   4  -7  -4   72.79    3.72
  -4   7   4   66.14    4.76
   4  -7  -3   79.58    5.88
  -4   7   3   88.58    5.43
   4  -7  -2   31.61    3.00
  -4   7   2   29.16    2.93
   4  -7  -1  149.41    6.92
   4  -7   0  275.42    8.07
   4  -7   1    2.71    2.23
   4  -7   1    3.93    1.33
   4  -7   2  230.21    9.40
   4  -7   2  232.84    8.31
   4  -7   3   60.93    6.83
   4  -7   3   79.62    8.00
   4  -7   4    2.63    2.08
   4  -7   4    1.95    1.61
   4  -6  -8  152.97    5.47
  -4   6   8  179.01   10.24
   4  -6  -7   55.15    3.40
  -4   6   7   67.54    6.04
   4  -6  -6    0.88    1.79
  -4   6   6    0.53    2.74
   4  -6  -5    0.72    1.36
  -4   6   5   -0.62    3.02
   4  -6  -4   34.75    3.45
  -4   6   4   36.10    3.88
   4  -6  -3  100.05    4.72
  -4   6   3  103.76    5.15
   4  -6  -2    4.95    4.75
  -4   6   2    5.42    2.24
   4  -6  -1  176.77    5.45
   4  -6  -1  193.93    4.19
  -4   6   1  181.70    5.13
   4  -6   0   49.49    3.50
   4  -6   0   56.17    2.42
   4  -6   1    5.07    2.45
   4  -6   1    2.89    1.46
   4  -6   2   44.64    4.23
   4  -6   2   57.83    3.54
   4  -6   3    5.28    2.54
   4  -6   3    2.40    1.63
   4  -6   4  132.65    6.65
   4  -6   4  125.27    5.63
   4  -6   5    4.14    2.02
   4  -6   5   12.76    8.34
   4  -5  -8    5.33    1.52
  -4   5   8    5.29    3.75
   4  -5  -7   63.03    3.65
  -4   5   7   84.15    6.53
   4  -5  -6   20.31    1.95
  -4   5   6   26.35    3.42
   4  -5  -5  123.61    7.19
  -4   5   5  134.90    6.00
   4  -5  -4   37.63    4.84
  -4   5   4   36.38    2.95
   4  -5  -3    0.55    1.67
  -4   5   3    0.88    2.24
   4  -5  -2   14.04    1.72
  -4   5   2   16.40    2.32
   4  -5  -1  516.86   14.84
   4  -5  -1  421.74   11.04
  -4   5   1  510.26   14.09
   4  -5   0   60.01    3.55
   4  -5   0   55.46    2.10
  -4   5   0   68.01    2.63
   4  -5   1  317.64    7.85
   4  -5   1  345.70    6.53
   4  -5   3   19.66    3.29
   4  -5   3   44.64    6.65
   4  -5   4  203.40    7.53
   4  -5   4  627.30   65.52
  -4   5  -6    0.56    2.24
   4  -5   6    5.13    6.27
   4  -4  -8   83.57    4.11
  -4   4   8   83.72    6.71
   4  -4  -7   71.32    3.40
  -4   4   7   74.06    5.40
   4  -4  -6  331.93    6.75
  -4   4   6  370.59   10.58
   4  -4  -5   54.06    3.26
  -4   4   5   56.01    5.01
   4  -4  -4  128.00    5.27
  -4   4   4  148.06    7.18
   4  -4  -3   25.19    2.27
  -4   4   3   26.91    3.39
   4  -4  -2   22.17    1.70
  -4   4   2   25.14    2.92
   4  -4  -1   -0.42    1.33
   4  -4  -1    0.14    0.14
   4  -4  -1    0.41    0.48
  -4   4   1    1.18    1.12
   4  -4   0    0.27    1.47
   4  -4   0    5.65    3.75
  -4   4   0    0.93    0.66
   4  -4   1  284.05    9.34
  -4   4  -1  270.81    6.94
   4  -4   2   64.87    4.26
   4  -4   2   84.07    4.40
  -4   4  -3    5.97    3.30
   4  -4   3    6.32    2.78
  -4   4  -4   24.37    8.83
   4  -4   4   19.57    3.38
  -4   4  -5    3.31    2.34
   4  -4   5    5.28    2.98
  -4   4  -6    8.59    7.24
   4  -4   6    5.69    3.44
  -4   4  -7   12.35   10.44
   4  -4   7   21.19    4.26
   4  -3  -9    3.05    1.64
  -4   3   9    3.97    2.65
   4  -3  -8   28.18    2.68
  -4   3   8   30.65    4.49
   4  -3  -7   52.46    3.30
  -4   3   7   51.64    4.85
   4  -3  -6   40.26    2.42
  -4   3   6   52.26    4.81
   4  -3  -5   96.48    3.19
  -4   3   5  110.97    5.75
   4  -3  -4  506.74   15.67
  -4   3   4  546.53   16.22
   4  -3  -3   98.57    3.37
  -4   3   3  104.01    5.03
   4  -3  -2  215.40    5.47
  -4   3   2  202.43    6.50
   4  -3  -1  897.69   17.61
   4  -3  -1  886.35   15.19
  -4   3   1  892.54   17.50
   4  -3   0   23.56    2.33
   4  -3   0   17.17    0.83
   4  -3   0   31.46    1.89
  -4   3   0   22.77    1.56
   4  -3   1   36.16    2.67
   4  -3   1   43.26    3.08
  -4   3  -1   49.17    1.78
   4  -3   1   44.78    1.27
  -4   3  -2  263.21    9.09
   4  -3   2  241.64    8.25
  -4   3  -3  108.37    6.41
   4  -3   3  106.27    5.58
  -4   3  -4  138.17    7.26
   4  -3   4  117.38    5.87
  -4   3  -5   64.33    7.17
   4  -3   5   57.78    4.92
  -4   3  -6  128.78    6.45
   4  -3   6  131.63    8.38
  -4   3  -7   51.82    4.73
   4  -3   7   51.78    6.15
   4  -2  -9   15.82    2.79
  -4   2   9   17.83    4.20
   4  -2  -8    3.27    1.09
  -4   2   8    6.37    2.45
   4  -2  -7    8.16    1.80
  -4   2   7    4.95    2.79
   4  -2  -6    0.34    1.29
  -4   2   6    1.63    0.84
  -4   2   6    2.53    3.52
   4  -2  -5   54.68    2.34
  -4   2   5   58.28    1.68
  -4   2   5   52.77    4.33
   4  -2  -4    9.80    2.86
  -4   2   4    6.26    0.70
  -4   2   4   11.73    2.61
   4  -2  -3  205.77    5.07
  -4   2   3  214.35    7.56
   4  -2  -2  220.90    5.17
  -4   2   2  237.90    7.12
   4  -2  -1    5.64    1.39
   4  -2  -1   19.99    2.13
   4  -2  -1    3.72    0.74
  -4   2   1    5.88    2.29
   4  -2   1   48.41    2.92
   4  -2   1   61.51    3.40
   4  -2   1   66.93    1.97
  -4   2  -2    6.63    2.47
   4  -2   2    4.24    3.16
   4  -2   2    5.27    0.96
  -4   2  -3    1.11    2.04
   4  -2   3    3.23    3.59
  -4   2  -4  244.04    9.99
   4  -2   4  280.44   10.76
  -4   2  -5   90.99    5.50
   4  -2   5  105.03    7.11
  -4   2  -6   18.37    3.37
   4  -2   6   13.11    3.33
  -4   2  -7  196.81    9.59
   4  -2   7  215.23   12.77
  -4   2  -8    2.78    1.82
   4  -2   8    4.24    3.38
   4  -1  -8  147.35    5.27
  -4   1   8  144.78    6.75
   4  -1  -7   71.06    3.75
  -4   1   7   53.82    2.63
  -4   1   7   69.02    5.56
   4  -1  -6  143.42    4.29
  -4   1   6  132.45    3.88
  -4   1   6  138.44    7.22
   4  -1  -5  669.83   17.28
  -4   1   5  640.89   16.32
  -4   1   5  663.99   19.32
   4  -1  -4    1.83    0.86
  -4   1   4    0.38    0.40
  -4   1   4    2.50    1.93
  -4   1   3  615.90   14.27
   4  -1  -2  442.88    4.86
   4  -1  -1   53.01    1.95
  -4   1   1   52.23    1.49
   4  -1  -1   52.19    1.23
  -4   1   1   47.52    2.53
  -4   1  -2   20.08    2.37
   4  -1   2   24.67    2.12
   4  -1   2   22.74    1.14
   4  -1   2   21.90    1.14
  -4   1  -3  126.83    5.81
   4  -1   3  123.41    5.58
   4  -1   3  115.84    2.83
   4  -1   3  125.08    2.76
  -4   1  -4  292.03   10.76
   4  -1   4  287.00    9.94
   4  -1   4  290.08    7.51
   4  -1   4  304.94    7.70
  -4   1  -5  103.28    5.52
   4  -1   5  113.05    6.14
   4  -1   5  113.95    2.69
  -4   1  -6  261.58    8.38
   4  -1   6  231.11    8.76
  -4   1  -7   34.00    4.65
   4  -1   7   29.48    4.59
  -4   1  -8   46.14    4.57
   4  -1   8   53.78    6.73
  -4   0   8  180.81    5.76
  -4   0   8  133.32    6.54
   4   0  -7    2.06    0.87
  -4   0   7    1.29    1.14
  -4   0   7    1.42    1.58
   4   0  -6   96.67    3.43
  -4   0   6   97.10    3.62
  -4   0   6   96.49    5.57
   4   0  -5   71.51    2.32
  -4   0   5   82.76    2.84
  -4   0   5   81.12    5.59
   4   0  -4   69.57    2.32
  -4   0   4   75.83    2.39
  -4   0   4   77.40    4.32
   4   0  -3  354.58    6.93
  -4   0   3  362.91    7.42
  -4   0   3  361.25    9.98
   4   0  -2  211.82    2.28
  -4   0   2  218.10    2.80
  -4   0   2  231.27    2.99
  -4   0   2  228.30    6.07
   4   0  -1  300.55    4.38
   4   0  -1  293.83    3.05
   4   0   0  332.18    4.11
  -4   0   0  298.36    3.65
  -4   0  -1 1057.91   10.60
  -4   0  -1 1089.72    8.59
  -4   0  -1 1105.79   12.54
  -4   0  -2   40.52    3.43
  -4   0  -2   27.38    1.71
   4   0   2   41.05    2.10
  -4   0  -3   21.08    2.68
   4   0   3   25.98    2.80
   4   0   3   25.05    1.29
  -4   0  -4  215.76    7.74
   4   0   4  204.70    7.65
   4   0   4  197.83    4.40
  -4   0  -5  117.99    5.45
   4   0   5  105.31    5.72
   4   0   5  110.16    2.95
  -4   0  -6    9.03    2.73
   4   0   6    6.37    4.91
   4   0   6    7.92    2.09
  -4   0  -7   31.32    4.64
   4   0   7   56.59    6.77
  -4   0  -8   21.72    4.46
   4   0   8   17.17    4.70
  -4   0  -9   30.22    5.33
   4   0   9   22.47    6.06
  -4  -1   8   21.57    3.06
  -4  -1   8   12.53    2.59
  -4  -1   7    5.87    1.69
  -4  -1   7    7.17    2.47
  -4  -1   6   34.01    2.22
  -4  -1   6   36.02    3.40
   4   1  -5  184.19    4.10
  -4  -1   5  174.04    4.57
  -4  -1   5  165.92    7.57
   4   1  -4  128.76    2.77
  -4  -1   4  123.49    3.37
  -4  -1   4  132.37    6.25
   4   1  -2  265.73    4.95
  -4  -1   2  314.07    9.47
   4   1  -1    6.55    0.32
  -4  -1   1    6.08    0.81
  -4  -1   1    7.95    1.57
   4   1   0   85.44    1.84
   4   1   0   82.24    1.74
  -4  -1   0   70.74    3.19
  -4  -1  -1   13.97    1.30
   4   1   1   16.36    1.03
  -4  -1  -1   11.94    0.95
  -4  -1  -2  319.52    9.15
   4   1   2  295.05    4.32
  -4  -1  -3 1051.14   10.99
  -4  -1  -3 1007.39   18.87
   4   1   3 1038.59   10.39
  -4  -1  -4   53.45   10.45
   4   1   4   12.61    2.52
   4   1   4   11.09    1.04
   4   1   5  430.49   13.90
   4   1   6  181.42    8.11
   4   1   6  183.90    4.72
   4   1   7  181.05    7.96
   4   1   7  176.55    5.23
  -4  -1  -8  139.71   16.24
   4   1   8   35.23    6.75
  -4  -1  -9    6.48    3.14
   4   1   9   -0.04    4.22
  -4  -2   7   18.78    2.49
  -4  -2   7   22.58    3.21
  -4  -2   6   56.86    3.50
  -4  -2   6   58.81    7.67
  -4  -2   5   32.40    2.63
  -4  -2   5   36.45    4.19
   4   2  -4    5.36    0.69
  -4  -2   4    6.94    1.79
  -4  -2   4   11.72    3.65
  -4  -2   3   12.97    0.36
  -4  -2   3   14.98    5.70
  -4  -2   3   12.60    2.23
  -4  -2   2  311.26    7.09
   4   2   0  416.49    1.42
  -4  -2   0  409.63    4.77
   4   2   1  478.24    3.41
   4   2   1  503.74    6.80
  -4  -2  -2  476.12    5.36
  -4  -2  -3   61.57    2.54
   4   2   3   67.04    2.46
  -4  -2  -4    7.06    2.09
  -4  -2  -4    6.13    2.14
   4   2   4    4.71    1.38
  -4  -2  -5  170.77    7.28
   4   2   5  180.31    7.24
   4   2   5  169.01    5.65
   4   2   6  216.73    6.48
   4   2   6  242.88    5.55
   4   2   7   84.77    6.57
   4   2   7   84.65    3.86
   4   2   8  332.33   10.22
   4   2   8  332.80    7.65
  -4  -2  -9   97.42   15.12
   4   2   9   24.43    4.28
  -4  -3   7   43.59    5.12
  -4  -3   7   50.88    6.39
  -4  -3   6   40.93    3.11
  -4  -3   6   54.36    5.17
  -4  -3   5   43.19    3.15
  -4  -3   5   50.44    4.71
  -4  -3   4  261.92    6.22
  -4  -3   2  151.50    5.27
   4   3   1  663.75   11.53
  -4  -3  -1  655.86   12.67
   4   3   1  727.69   14.98
  -4  -3  -2  397.58    9.19
  -4  -3  -2  342.49    7.61
   4   3   2  392.46    8.84
  -4  -3  -3   50.01    2.80
  -4  -3  -3   41.27    2.14
   4   3   3   50.30    2.40
  -4  -3  -4   37.05    2.41
  -4  -3  -4   36.58    2.46
   4   3   4   34.15    1.97
  -4  -3  -5    8.76    3.79
  -4  -3  -5    7.82    2.42
   4   3   5   10.66    1.38
  -4  -3  -6   17.81    2.69
   4   3   6   19.81    3.05
   4   3   6   15.71    1.91
  -4  -3  -7   95.11    5.30
   4   3   7   87.32    5.62
   4   3   7   95.37    4.59
  -4  -3  -8  164.64    6.99
   4   3   8  170.45    8.34
   4   3   8  177.79    6.18
  -4  -3  -9   66.67   14.79
   4   3   9   13.01    5.15
   4   3   9   13.73    3.45
  -4  -4   6   34.37    4.24
  -4  -4   6   79.63   10.63
  -4  -4   5    2.32    2.22
  -4  -4   5    2.46    2.61
  -4  -4   4   45.46    3.41
  -4  -4   4   75.44    6.47
  -4  -4   3  284.79    6.93
  -4  -4   3  312.68    9.30
  -4  -4   2   63.27    3.40
  -4  -4   2   56.50    4.55
  -4  -4   1  658.21   27.28
  -4  -4   0  181.28    6.21
   4   4   0  160.61    6.30
  -4  -4  -1    0.90    0.78
   4   4   1    1.16    0.32
  -4  -4  -1    1.65    1.19
   4   4   1    2.77    1.40
  -4  -4  -2   27.06    2.81
  -4  -4  -2   25.32    2.09
   4   4   2   24.72    2.57
  -4  -4  -3  299.68    8.76
  -4  -4  -3  243.90    7.24
   4   4   3  263.97    8.68
  -4  -4  -4  137.34    4.54
  -4  -4  -4  115.83    3.45
   4   4   4  133.36    3.56
  -4  -4  -5  304.63    7.62
  -4  -4  -5  305.51    6.53
   4   4   5  278.61    5.70
  -4  -4  -6    1.51    2.07
  -4  -4  -6    0.93    1.05
   4   4   6   -0.60    2.09
  -4  -4  -7    3.43    3.57
   4   4   7   -0.87    3.06
   4   4   7    2.25    2.56
  -4  -4  -8   35.63    3.67
   4   4   8   34.70    4.44
   4   4   8   36.50    4.10
  -4  -4  -9   32.97    5.05
   4   4   9   36.35    6.57
   4   4   9   26.84    4.65
  -4  -5   5   98.54    4.39
  -4  -5   5  123.94    6.33
  -4  -5   4   56.50    3.86
  -4  -5   4   50.24    3.97
  -4  -5   3    3.63    1.63
  -4  -5   3    9.11    3.19
  -4  -5   2  152.40    4.97
   4   5  -2  149.21    6.08
   4   5  -1  153.57    5.27
  -4  -5   0  266.64    8.41
   4   5   0  247.10    8.33
  -4  -5  -1  428.60   11.25
  -4  -5  -1  494.39   13.60
   4   5   1  470.19   13.27
  -4  -5  -2  461.71   11.86
  -4  -5  -2  432.98   11.83
   4   5   2  447.04   12.48
  -4  -5  -3  218.42    6.57
  -4  -5  -3  205.71    6.56
   4   5   3  201.31    6.66
  -4  -5  -4   67.17    3.04
  -4  -5  -4   72.12    3.04
   4   5   4   72.81    3.36
  -4  -5  -5   21.45    2.04
  -4  -5  -5   24.08    2.38
   4   5   5   33.54    2.49
  -4  -5  -6   53.31    3.79
  -4  -5  -6   42.70    2.88
   4   5   6   46.24    3.41
  -4  -5  -7    5.46    2.83
  -4  -5  -7    1.56    1.09
   4   5   7    1.52    3.03
  -4  -5  -8   36.63    3.53
   4   5   8   35.28    4.78
   4   5   8   36.18    4.27
  -4  -5  -9   24.39    3.66
   4   5   9   17.17    3.68
   4   5   9   20.45    4.32
  -4  -6   4   29.71    4.25
   4   6  -4   36.68    4.74
  -4  -6   3   23.51    4.10
   4   6  -3   19.08    3.26
  -4  -6   2   77.88   16.21
   4   6  -2   10.26    3.29
  -4  -6   1   17.10   16.34
   4   6  -1    1.15    2.17
  -4  -6   0    0.83    1.72
   4   6   0    1.64    2.11
  -4  -6  -1   55.82    1.68
  -4  -6  -1   73.18    3.62
   4   6   1   61.92    3.53
  -4  -6  -2    1.58    1.66
  -4  -6  -2   -0.57    1.62
   4   6   2    1.15    1.59
  -4  -6  -3  224.13    5.50
  -4  -6  -3  204.18    5.01
   4   6   3  236.43    5.59
  -4  -6  -4   85.86    3.39
  -4  -6  -4   81.83    3.30
   4   6   4   87.35    3.56
  -4  -6  -5  165.76    5.13
  -4  -6  -5  168.24    4.94
   4   6   5  181.79    5.37
  -4  -6  -6    4.56    1.58
  -4  -6  -6    5.66    2.66
   4   6   6    3.30    2.10
  -4  -6  -7   57.26    4.31
  -4  -6  -7   37.22    2.92
   4   6   7   55.55    5.22
  -4  -6  -8  108.38    6.24
  -4  -6  -8   80.68    3.94
   4   6   8  108.96    5.84
  -4  -6  -9    2.67    1.44
   4   6   9    2.17    2.46
   4   6   9    5.00    4.16
  -4  -7   3  255.68   22.33
   4   7  -3  191.65   16.97
  -4  -7   2    9.23   15.00
   4   7  -2    2.91    1.92
  -4  -7   1  174.39   48.15
   4   7  -1   19.17    2.73
  -4  -7   0   39.33    3.48
   4   7   0   28.20    2.40
  -4  -7  -1   -0.89    1.63
   4   7   1   -0.60    1.35
  -4  -7  -2   41.52    2.22
  -4  -7  -2   44.29    2.96
   4   7   2   46.78    2.97
  -4  -7  -3   24.43    2.10
  -4  -7  -3   27.02    3.05
   4   7   3   24.19    3.04
  -4  -7  -4   13.52    2.93
  -4  -7  -4   14.78    2.25
   4   7   4   14.56    5.96
  -4  -7  -5    2.61    1.66
  -4  -7  -5   -0.82    1.29
   4   7   5    3.09    2.12
  -4  -7  -6   49.38    3.32
  -4  -7  -6   49.90    3.51
   4   7   6   48.37    3.47
  -4  -7  -7    3.84    1.56
  -4  -7  -7    1.52    1.70
   4   7   7    2.47    3.21
  -4  -7  -8   19.27    3.54
  -4  -7  -8   11.22    6.61
   4   7   8   18.00    4.50
   4   8  -1  108.24    9.98
  -4  -8   0   14.37    2.89
   4   8   0    8.11    6.27
  -4  -8  -1  199.56    7.77
   4   8   1  156.03    6.31
  -4  -8  -2   27.86    3.54
   4   8   2   34.22    3.41
  -4  -8  -3   -1.04    1.68
   4   8   3    3.67    1.91
  -4  -8  -4  169.86    6.75
  -4  -8  -4  157.80    6.18
   4   8   4  180.86    7.76
  -4  -8  -5   18.29    3.65
  -4  -8  -5   15.34    1.95
   4   8   5   15.86    3.07
  -4  -8  -6  139.77    5.63
  -4  -8  -6  128.49    4.67
   4   8   6  138.36    6.18
  -4  -8  -7  195.20    6.51
  -4  -8  -7  202.58    7.75
  -4  -9  -1   15.57    2.48
   4   9   1   11.01    2.08
  -4  -9  -2   12.52    2.34
   4   9   2   13.79    2.28
  -4  -9  -3   -0.65    1.75
   4   9   3    0.61    2.01
  -4  -9  -4   16.76    1.94
   4   9   4   22.76    3.37
  -4  -9  -5    0.60    1.28
   4   9   5   -0.68    1.90
   5  -8  -5   29.17    2.82
  -5   8   5   24.80    4.59
   5  -8  -4    1.18    1.57
  -5   8   4    3.82    3.12
   5  -8  -3    1.43    1.73
   5  -8  -2  281.19   24.22
   5  -8  -1   74.85    7.60
   5  -8   0   17.77    3.36
   5  -8   1    4.30    2.17
   5  -7  -6   42.19    4.58
  -5   7   6   55.16    7.46
   5  -7  -5   88.23    4.45
  -5   7   5  106.18    7.33
   5  -7  -4    7.95    2.42
  -5   7   4    3.45    2.48
   5  -7  -3  100.19    6.30
  -5   7   3   93.01    5.73
   5  -7  -2   15.12    3.17
   5  -7  -1   58.02    4.13
   5  -7   0   23.35    4.01
   5  -7   1    5.56    2.61
   5  -7   2   67.00    7.41
   5  -7   3   -0.52    1.92
   5  -7   3    3.49    1.48
   5  -6  -7   14.15    2.08
  -5   6   7   24.22    4.49
   5  -6  -6    1.36    1.87
  -5   6   6    1.44    2.43
   5  -6  -5   -0.04    1.72
  -5   6   5    4.07    2.23
   5  -6  -4    3.88    1.93
  -5   6   4    7.71    3.01
   5  -6  -3   47.89    3.71
  -5   6   3   41.80    3.97
   5  -6  -2   30.83    2.84
  -5   6   2   29.50    3.20
   5  -6  -1    4.00    1.55
  -5   6   1    2.25    1.01
   5  -6   0   50.13    3.85
   5  -6   1    8.72    2.83
   5  -6   1    7.85    1.41
   5  -6   2   10.87    2.99
   5  -6   2   11.55    2.13
   5  -6   3   69.71    4.90
   5  -6   3   80.93    4.26
   5  -6   4   33.79    4.89
   5  -6   4  112.90   14.04
   5  -5  -7   50.68    2.99
  -5   5   7   61.72    6.53
   5  -5  -6    1.37    1.61
  -5   5   6    1.38    2.06
   5  -5  -5   56.77    2.90
  -5   5   5   58.51    4.69
   5  -5  -4  105.06    5.09
  -5   5   4  110.26    6.45
   5  -5  -3    2.17    2.00
  -5   5   3    1.06    1.84
   5  -5  -2  111.36    4.24
  -5   5   2  116.34    4.33
   5  -5  -1  185.33    5.98
  -5   5   1  204.62    5.64
   5  -5   0   49.00    3.32
   5  -5   0   54.05    2.08
  -5   5   0   48.04    2.25
   5  -5   1    5.22    2.03
   5  -5   1   10.79    3.60
   5  -5   2   25.83    3.19
   5  -5   2   76.87    7.99
   5  -5   3   14.95    2.79
   5  -5   3   35.84    6.62
   5  -5   4   10.93    3.07
   5  -5   4   21.85    7.50
   5  -5   5  467.24   23.49
   5  -4  -8    6.47    1.65
  -5   4   8    8.55    3.01
   5  -4  -7    1.78    1.52
  -5   4   7    0.74    1.86
   5  -4  -6  504.33    7.61
  -5   4   6  562.87   57.24
   5  -4  -5  150.38    5.86
  -5   4   5  153.95    8.34
   5  -4  -4    0.77    1.18
  -5   4   4    1.73    1.52
   5  -4  -3  188.00    4.79
  -5   4   3  188.76    6.82
   5  -4  -2   45.04    6.36
  -5   4   2   40.12    3.21
   5  -4  -1    6.30    2.67
  -5   4   1    4.25    1.31
   5  -4   0  119.05    4.70
  -5   4   0  127.74    3.52
   5  -4   1  116.87    4.24
   5  -4   2    4.97    2.76
   5  -4   2    6.49    3.31
   5  -4   3    4.01    2.83
   5  -4   3    4.39    2.91
  -5   4  -4    0.73    2.15
   5  -4   4    1.21    2.39
  -5   4  -5   98.45    6.51
   5  -4   5   91.91    8.08
  -5   4  -6   71.07   10.03
   5  -4   6   86.67    9.22
   5  -3  -8   42.77    4.57
  -5   3   8   48.74    6.88
   5  -3  -7   16.82    2.57
  -5   3   7   23.18    4.20
   5  -3  -6   71.98    3.16
  -5   3   6   59.97    7.58
   5  -3  -5  236.90    5.60
  -5   3   5  250.38    8.97
   5  -3  -4    0.80    1.18
  -5   3   4    1.62    1.85
   5  -3  -3  185.58    5.80
  -5   3   3  195.02    7.71
   5  -3  -2   14.82    1.60
  -5   3   2   11.79    1.75
   5  -3  -1   78.62    3.05
  -5   3   1   83.61    3.40
   5  -3   0   72.01    3.32
   5  -3   0   68.87    2.58
  -5   3   0   73.40    2.82
   5  -3   1   24.26    2.54
   5  -3   1   29.75    2.98
  -5   3  -1   52.03    3.06
   5  -3   2   11.76    2.01
   5  -3   2   14.39    2.03
  -5   3  -3   20.57    4.65
   5  -3   3   16.56    3.40
  -5   3  -4   46.78    4.10
   5  -3   4   44.52    4.17
  -5   3  -5    2.13    2.78
   5  -3   5    1.65    2.76
  -5   3  -6  166.79    9.97
   5  -3   6  173.49   10.81
  -5   3  -7   27.66    7.18
   5  -3   7   13.12    4.41
  -5   2   8    7.23    2.44
   5  -2  -7   95.40    4.75
  -5   2   7  107.77    7.81
   5  -2  -6    4.91    1.57
  -5   2   6    7.48    4.11
   5  -2  -5   12.07    1.26
  -5   2   5   15.98    3.27
   5  -2  -4  290.78    4.77
  -5   2   4  319.69    8.52
   5  -2  -3  167.79    5.27
  -5   2   3  186.64    7.65
   5  -2  -2    1.81    1.14
  -5   2   2    2.79    1.58
   5  -2  -1  424.89    9.52
   5  -2  -1  398.35    7.23
   5  -2  -1  393.50    7.71
  -5   2   1  423.24   10.41
   5  -2   0   40.50    2.41
   5  -2   0   44.02    2.31
  -5   2   0   49.79    2.83
   5  -2   1  185.71    5.94
  -5   2  -2   37.99    3.85
   5  -2   2   39.99    3.98
   5  -2   2   34.87    1.97
  -5   2  -3   12.21    6.28
   5  -2   3    8.29    4.66
  -5   2  -4   14.25    2.35
   5  -2   4   12.20    3.80
  -5   2  -5    0.42    1.95
   5  -2   5    3.42    3.66
  -5   2  -6   27.58    3.60
   5  -2   6   18.90    4.19
  -5   2  -7   14.14    5.69
   5  -2   7   14.69    3.99
  -5   1   8   21.00    3.92
  -5   1   7   67.33    5.41
   5  -1  -6   12.55    1.76
  -5   1   6    8.49    2.99
   5  -1  -5    1.71    1.11
  -5   1   5    2.23    0.92
  -5   1   5    3.20    2.51
   5  -1  -4  138.15    3.17
  -5   1   4  133.19    5.54
   5  -1  -3    5.90    2.49
  -5   1   3    5.61    0.51
  -5   1   3    5.09    2.16
   5  -1  -2   68.67    2.96
  -5   1   2   60.10    1.25
   5  -1  -2   65.33    1.60
  -5   1   2   66.57    4.71
   5  -1  -1    1.56    1.20
  -5   1   1    0.94    0.42
   5  -1  -1    0.87    0.41
  -5   1   1    2.17    1.91
   5  -1   0    1.05    1.08
  -5   1   0    1.20    1.31
   5  -1   1    1.80    2.08
   5  -1   1    2.55    2.05
  -5   1  -1    0.22    0.86
  -5   1  -2   14.52    6.86
   5  -1   2   16.18    2.88
   5  -1   2   14.03    1.20
  -5   1  -3  145.49    7.06
   5  -1   3  120.72    4.99
   5  -1   3  122.08    2.62
  -5   1  -4  314.80   12.00
   5  -1   4  284.12   11.41
   5  -1   4  244.18    6.23
  -5   1  -5  125.81    6.33
   5  -1   5   92.86    6.56
  -5   1  -6   55.41    5.05
   5  -1   6   48.26    5.93
  -5   1  -7   13.92    4.52
   5  -1   7    7.35    4.90
  -5   1  -8    9.50    3.19
   5  -1   8    3.15    4.68
  -5   0   8   22.41    3.60
  -5   0   7    4.66    2.25
  -5   0   6  100.53    3.08
  -5   0   6  100.35    5.42
  -5   0   5    5.09    1.25
  -5   0   5    2.65    2.91
   5   0  -4   94.49    2.46
  -5   0   4  112.12    5.89
   5   0  -3    7.17    0.72
  -5   0   3    6.72    0.82
  -5   0   3    8.15    2.75
   5   0  -2  145.17    3.33
  -5   0   2  142.28    3.30
  -5   0   2  162.90    6.49
   5   0  -1    2.54    0.61
  -5   0   1    1.09    0.39
  -5   0   1    1.44    1.55
   5   0   0  127.15    3.63
  -5   0   0  117.51    3.19
  -5   0  -1   91.76    3.98
  -5   0  -1   93.84    3.00
  -5   0  -1  101.32    7.34
  -5   0  -2   13.74    3.25
  -5   0  -2   11.61    1.26
   5   0   2   14.46    1.43
  -5   0  -3  148.28    6.37
   5   0   3  144.00    5.79
   5   0   3  136.30    3.02
  -5   0  -4    2.21    1.44
   5   0   4    0.92    3.66
   5   0   4    1.18    0.82
  -5   0  -5  130.23    5.66
   5   0   5  129.53    6.40
   5   0   5  144.62    3.49
  -5   0  -6   19.87    3.23
   5   0   6   18.83    3.61
  -5   0  -7   88.52    5.92
   5   0   7   70.64    6.57
  -5   0  -8    3.91    1.95
   5   0   8   -2.19    4.77
  -5  -1   7   15.92    2.05
  -5  -1   7   29.10    5.01
  -5  -1   6   61.59    6.76
  -5  -1   6   61.78    5.33
  -5  -1   5  142.51    5.52
  -5  -1   5  159.67    8.78
  -5  -1   4  732.92    9.80
  -5  -1   4  735.85   15.29
  -5  -1   3   34.16    4.06
   5   1  -2    2.65    0.23
  -5  -1   2    2.95    0.75
  -5  -1   2    6.07    2.79
   5   1  -1    4.77    0.41
   5   1  -1    4.60    0.31
  -5  -1   1    4.25    0.82
  -5  -1   1    8.99    5.88
   5   1   0   44.02    1.36
   5   1   0   41.52    1.43
  -5  -1   0   32.81    1.42
  -5  -1   0   83.52    7.53
  -5  -1  -1    3.46    1.30
  -5  -1  -1    2.30    0.88
  -5  -1  -2  226.80    6.30
  -5  -1  -2  229.38    5.96
   5   1   2  183.33    5.95
  -5  -1  -3  157.40    6.16
  -5  -1  -3  140.23    5.19
   5   1   3  140.07    3.97
  -5  -1  -4  106.71    4.74
   5   1   4  101.75    4.46
   5   1   4   98.23    5.10
  -5  -1  -5   71.18    4.74
   5   1   5   76.88    4.63
   5   1   5   80.27    2.66
  -5  -1  -6   89.42    6.07
   5   1   6   93.27    5.93
   5   1   6   91.67    3.31
  -5  -1  -7  436.10   12.74
   5   1   7  426.06   12.43
  -5  -1  -8  111.40    7.39
   5   1   8  102.15    6.58
  -5  -1  -9    7.24    2.28
   5   1   9    9.25    4.98
  -5  -2   7  164.93    5.07
  -5  -2   7  189.27    9.17
  -5  -2   6   53.37    3.42
  -5  -2   6   50.30    5.71
  -5  -2   5   40.24    2.44
  -5  -2   5   44.94    4.79
  -5  -2   4  276.65    6.58
  -5  -2   4  297.96   10.54
  -5  -2   3   25.31    3.59
  -5  -2   1    9.35    1.32
  -5  -2   1   21.31   10.13
   5   2   0  131.78    2.38
  -5  -2   0  121.59    3.54
  -5  -2   0  153.32    7.57
  -5  -2  -1   62.73    2.58
   5   2   1   68.65    1.82
  -5  -2  -1   51.91    2.03
   5   2   1   56.10    2.79
  -5  -2  -2   15.05    1.35
  -5  -2  -2   12.47    1.73
   5   2   2   11.40    1.76
  -5  -2  -3  477.82   14.36
  -5  -2  -3  455.97   12.45
   5   2   3  427.64   11.56
  -5  -2  -4   50.54    8.08
  -5  -2  -4   12.73    4.58
   5   2   4   11.56    1.27
   5   2   5   40.69    4.00
   5   2   5   35.27    1.86
   5   2   6   93.57    5.17
   5   2   6   84.63    3.10
   5   2   7   99.75    5.50
   5   2   7   99.25    3.98
  -5  -2  -8  183.84   21.31
   5   2   8   44.88    5.99
  -5  -2  -9    5.53    2.68
   5   2   9    3.67    5.21
  -5  -3   6   55.84    5.77
  -5  -3   6  105.31   12.63
  -5  -3   5   37.44    3.55
  -5  -3   5   59.81   23.43
  -5  -3   4  124.17    5.81
  -5  -3   4  213.02   14.05
  -5  -3   2    7.48    7.71
  -5  -3   2    1.40    3.75
  -5  -3   1    6.99    1.10
  -5  -3   1   10.52    2.75
  -5  -3   0    4.84    0.93
  -5  -3  -1   19.27    0.98
  -5  -3  -1   16.48    1.30
   5   3   1   18.60    2.29
  -5  -3  -2    0.84    0.72
  -5  -3  -2    1.07    1.04
   5   3   2    0.88    1.45
  -5  -3  -3  234.43    7.46
   5   3   3  247.76    7.69
  -5  -3  -4   36.74    3.04
   5   3   4   32.07    2.05
  -5  -3  -5  127.02   14.35
  -5  -3  -5   36.41    6.25
   5   3   5   38.33    2.34
  -5  -3  -6   28.46    8.37
   5   3   6    6.60    2.65
   5   3   6    8.15    2.24
  -5  -3  -7  118.67   14.41
   5   3   7   32.33    3.62
   5   3   7   29.51    2.78
  -5  -3  -8    8.70    8.28
   5   3   8    3.11    3.70
   5   3   8    0.21    1.82
  -5  -4   5    3.76    2.16
  -5  -4   5    5.27    6.54
  -5  -4   4  145.95    6.09
  -5  -4   4  284.66   21.06
  -5  -4   3  150.87   17.84
  -5  -4   3   33.35    5.99
  -5  -4   2   40.81   18.50
  -5  -4   2    5.46    3.64
  -5  -4   1  333.98    6.62
  -5  -4   0  380.10    7.07
   5   4   0  342.70    7.76
  -5  -4  -1   38.03    1.01
  -5  -4  -1   58.67    2.77
   5   4   1   55.57    3.24
  -5  -4  -2  233.97    7.47
   5   4   2  254.56    8.71
  -5  -4  -3  100.33    3.40
  -5  -4  -3   88.30    3.74
   5   4   3   91.35    3.64
  -5  -4  -4    1.05    1.39
  -5  -4  -4    3.21    2.15
   5   4   4    1.74    1.90
  -5  -4  -5  371.07    8.75
  -5  -4  -5  374.67    8.95
   5   4   5  354.44    6.52
  -5  -4  -6    7.98    2.45
  -5  -4  -6   10.32    3.90
   5   4   6   10.57    1.83
  -5  -4  -7  141.66    7.53
   5   4   7  124.97    7.13
   5   4   7  148.94    5.86
  -5  -4  -8    1.75    1.79
   5   4   8    3.41    3.75
   5   4   8    1.18    2.47
  -5  -4  -9   24.15   11.71
   5   4   9    4.85    3.54
   5   4   9   -0.58    2.22
  -5  -5   5    9.40    2.68
  -5  -5   5    4.26    1.63
  -5  -5   4   73.16    4.10
  -5  -5   4   68.50    5.67
  -5  -5   3  101.10   16.45
   5   5  -2   47.18    4.08
  -5  -5   1  173.24    4.86
   5   5  -1  167.86    6.03
  -5  -5   0   17.46    1.74
   5   5   0   21.13    3.21
  -5  -5  -1   22.27    1.96
   5   5   1   25.06    2.75
  -5  -5  -2   40.64    1.82
  -5  -5  -2   33.43    2.16
   5   5   2   30.80    3.14
  -5  -5  -3  643.94    8.67
  -5  -5  -3  571.50    9.13
   5   5   3  560.22   15.80
  -5  -5  -4   76.62    3.63
  -5  -5  -4   72.49    3.30
   5   5   4   84.57    3.54
  -5  -5  -5    0.20    0.90
  -5  -5  -5    1.45    1.32
   5   5   5    0.80    1.23
  -5  -5  -6    8.16    1.93
  -5  -5  -6    9.46    3.87
   5   5   6    7.11    2.53
  -5  -5  -7   57.20    5.10
  -5  -5  -7   45.62    8.39
   5   5   7   47.98    3.61
  -5  -5  -8   12.93    2.66
   5   5   8   11.61    2.62
   5   5   8    6.97    4.82
  -5  -6   4    8.28    2.02
   5   6  -4   11.89    2.05
   5   6  -3   70.22    4.85
   5   6  -2  114.91    6.16
  -5  -6   1    2.14    1.61
   5   6  -1    2.98    1.85
  -5  -6   0  129.26    5.67
   5   6   0  127.37    6.29
  -5  -6  -1   16.09    1.73
   5   6   1   20.09    2.75
  -5  -6  -2   13.18    2.75
   5   6   2   10.34    2.47
  -5  -6  -3   68.37    3.41
  -5  -6  -3   58.01    3.74
   5   6   3   56.59    3.24
  -5  -6  -4  446.13    8.00
  -5  -6  -4  407.58    7.53
   5   6   4  381.98   12.80
  -5  -6  -5    9.32    1.94
  -5  -6  -5    3.77    1.81
   5   6   5    8.98    2.32
  -5  -6  -6   56.73    4.11
  -5  -6  -6   53.55    7.31
   5   6   6   51.47    8.84
  -5  -6  -7   28.02    3.00
  -5  -6  -7   16.37    7.74
   5   6   7   24.23    3.45
  -5  -6  -8    3.50    2.56
  -5  -6  -8   -0.19    1.49
   5   6   8    2.13    2.86
  -5  -7   2    6.80   14.01
   5   7  -2    3.29    2.32
  -5  -7   1   67.79    3.86
   5   7  -1   64.52    3.98
  -5  -7   0   23.61    3.18
   5   7   0   27.27    4.59
  -5  -7  -1   12.51    2.35
   5   7   1   15.91    3.04
  -5  -7  -2  171.98    6.89
   5   7   2  165.74    5.17
  -5  -7  -3    1.46    1.49
   5   7   3    0.83    1.52
  -5  -7  -4    0.17    0.71
  -5  -7  -4    0.69    1.47
   5   7   4    1.16    1.39
  -5  -7  -5  201.36    8.19
  -5  -7  -5  156.94    6.35
   5   7   5  158.70    6.43
  -5  -7  -6    0.90    1.44
  -5  -7  -6    1.20    1.06
   5   7   6    4.33    2.21
  -5  -7  -7   53.65    5.92
  -5  -7  -7   41.85    4.71
   5   7   7   38.13    4.51
  -5  -8   0    7.89    1.99
   5   8   0    4.38    1.59
  -5  -8  -1   10.39    2.20
   5   8   1    4.28    3.31
  -5  -8  -2    3.79    2.34
   5   8   2    3.19    2.25
  -5  -8  -3   59.76    3.58
   5   8   3   57.62    3.55
  -5  -8  -4    2.62    1.54
   5   8   4    1.26    1.38
  -5  -8  -5   25.13    3.63
   5   8   5   22.68    3.39
  -5  -8  -6   26.02    2.97
   5   8   6   30.03    2.86
   6  -7  -4    3.34    3.25
  -6   7   4    6.16    2.57
   6  -7  -3   62.83    6.48
   6  -7  -2   11.29    2.04
   6  -7  -1   87.39    8.57
   6  -7   0   11.01    3.30
   6  -7   1   37.49    4.58
   6  -6  -6   45.24    3.05
  -6   6   6   70.85    5.81
   6  -6  -5   20.16    2.78
  -6   6   5   24.15    3.87
   6  -6  -4   11.03    1.63
  -6   6   4   14.19    2.60
   6  -6  -3   14.89    4.89
  -6   6   3   15.30    2.93
   6  -6  -2   14.82    3.57
  -6   6   2   19.26    3.19
   6  -6  -1  144.39    6.30
   6  -6   0    2.98    1.96
   6  -6   1  122.04    5.66
   6  -6   2   53.90    4.33
   6  -6   3    2.68    1.87
   6  -5  -6  169.63   14.80
  -6   5   6  156.36   14.96
   6  -5  -5   29.25    2.60
  -6   5   5   27.99    4.38
   6  -5  -4  114.82    4.18
  -6   5   4  133.16    6.17
   6  -5  -3   14.97    2.05
  -6   5   3   16.24    2.57
   6  -5  -2    1.82    1.49
  -6   5   2    2.26    1.06
   6  -5  -1    5.71    2.18
  -6   5   1    1.37    1.01
   6  -5   0   28.59    2.82
   6  -5   1  157.21    6.25
   6  -5   2   92.90    4.98
   6  -5   3   23.53    3.39
   6  -5   3   61.79    7.61
   6  -5   4   21.29    3.53
   6  -5   4   26.34    4.31
   6  -4  -7    4.02    1.25
  -6   4   7    4.57    3.05
   6  -4  -6   62.80    2.91
  -6   4   6   71.73    5.12
   6  -4  -5   77.53    3.11
  -6   4   5   89.27    6.54
   6  -4  -4   23.43    2.54
  -6   4   4   21.62    3.14
   6  -4  -3    0.74    1.21
  -6   4   3    4.24    2.31
   6  -4  -2   34.82    2.47
  -6   4   2   31.49    2.69
   6  -4  -1  176.94    4.90
  -6   4   1  217.12    5.99
   6  -4   0    0.78    1.51
  -6   4   0    2.33    1.13
   6  -4   1   37.11    3.05
   6  -4   1   42.66    2.95
   6  -4   2    6.74    2.54
   6  -4   2    1.51    2.18
   6  -4   3   28.64    3.74
   6  -4   3   28.44    3.47
   6  -4   4    5.00    2.19
   6  -4   4   15.73    3.68
  -6   4  -5   11.20    6.10
   6  -4   5   10.07    3.73
  -6   3   7    1.15    1.46
   6  -3  -6   21.54    2.94
  -6   3   6   30.00    4.73
   6  -3  -5   31.51    1.87
  -6   3   5   34.15    4.38
   6  -3  -4   31.68    1.95
  -6   3   4   32.53    3.62
   6  -3  -3  383.89    6.88
  -6   3   3  400.44   10.03
   6  -3  -2   75.85    3.26
  -6   3   2   76.05    4.00
   6  -3  -1  128.53    4.39
  -6   3   1  138.40    5.54
   6  -3   0   33.34    2.99
   6  -3   0   14.92    1.97
  -6   3   0   38.14    3.76
   6  -3   1    9.20    2.14
   6  -3   1   10.77    1.93
  -6   3  -1   22.26    2.70
   6  -3   2    1.89    1.71
   6  -3   2    1.19    2.26
   6  -3   3   40.89    3.71
  -6   3  -4  117.88    6.25
   6  -3   4  113.21    5.79
  -6   3  -5  101.09    7.78
   6  -3   5   88.64    8.55
  -6   3  -6    1.54    1.61
   6  -3   6    1.86    3.06
  -6   2   7   11.68    2.40
  -6   2   6   48.84    4.60
   6  -2  -5  239.90    4.75
  -6   2   5  242.05    8.56
   6  -2  -4    5.18    1.16
  -6   2   4    1.00    1.89
   6  -2  -3   81.40    2.54
  -6   2   3   94.86    5.16
   6  -2  -2   23.31    2.09
  -6   2   2   27.63    3.20
   6  -2  -1    3.34    1.20
   6  -2  -1    4.59    0.95
  -6   2   1    7.04    2.47
   6  -2   0  553.53   15.41
   6  -2   0  497.00   13.17
  -6   2   0  609.97   17.08
   6  -2   1 2934.67   21.48
   6  -2   1 2879.01   25.93
  -6   2  -1 2903.59   30.95
   6  -2   2    4.00    1.98
   6  -2   2    6.54    2.99
   6  -2   2    4.03    0.85
  -6   2  -3   32.17    4.55
   6  -2   3   21.15    2.67
  -6   2  -4   83.44    6.00
   6  -2   4   95.45    6.60
  -6   2  -5  121.38    8.06
   6  -2   5   90.05    6.03
  -6   2  -6   32.07    9.23
   6  -2   6   28.66    4.52
  -6   2  -7    7.79    4.56
   6  -2   7    9.48    4.43
  -6   1   7   41.98    5.57
  -6   1   6   92.20    5.86
  -6   1   5   23.73    3.76
  -6   1   4   52.22    5.12
   6  -1  -3   97.18    4.33
  -6   1   3  109.97    6.07
   6  -1  -2  330.90    5.22
  -6   1   2  297.61    4.33
  -6   1   2  318.77    8.43
   6  -1  -1    8.73    1.35
  -6   1   1    8.18    0.82
  -6   1   1    9.80    2.14
   6  -1   0   41.13    2.84
   6  -1   0   48.23    2.12
  -6   1   0   91.81    7.47
   6  -1   1 1435.94   35.55
   6  -1   1 1395.38   34.37
  -6   1  -1 1459.89   40.66
  -6   1  -2  988.68   19.61
   6  -1   2 1049.06   14.44
   6  -1   2  911.98   11.06
  -6   1  -3    0.89    1.29
   6  -1   3    2.16    2.65
   6  -1   3    0.79    0.72
  -6   1  -4    4.54    2.74
   6  -1   4    1.98    3.52
  -6   1  -5    2.57    2.39
   6  -1   5    9.58    5.08
  -6   1  -6   10.15    3.16
   6  -1   6    6.88    4.61
  -6   1  -7  107.85   11.66
   6  -1   7   98.32   10.49
  -6   0   7   48.55    4.39
  -6   0   6   25.93    4.62
  -6   0   5   87.39    5.65
  -6   0   4   83.98    2.34
  -6   0   4   79.86    5.95
  -6   0   3  239.74    3.82
  -6   0   3  317.38    9.48
   6   0  -2  178.79    2.84
  -6   0   2  182.46    3.06
  -6   0   2  234.12    8.24
   6   0  -1    8.25    0.97
  -6   0   1    5.48    0.96
  -6   0   1    4.54    2.07
   6   0   0  151.17    4.95
  -6   0   0  129.47    4.29
   6   0   1    7.95    1.33
  -6   0  -1   10.49    1.05
  -6   0  -1   14.43    2.39
  -6   0  -2   12.85    3.76
   6   0   2   12.34    2.27
   6   0   2   18.21    2.45
  -6   0  -3  301.97   12.38
   6   0   3  298.12    7.98
   6   0   3  298.38    5.66
  -6   0  -4    7.98    1.71
   6   0   4    4.26    3.15
   6   0   4    5.72    0.85
  -6   0  -5  305.50   12.87
   6   0   5  264.64   11.11
  -6   0  -6   80.82    5.86
   6   0   6   85.69    6.53
  -6   0  -7   41.95    4.37
   6   0   7   24.01    4.11
  -6   0  -8   38.11    4.62
   6   0   8   16.85    5.76
  -6  -1   6   32.51    4.51
  -6  -1   5   23.83    4.18
  -6  -1   4   28.29    4.98
  -6  -1   3   18.13    1.45
  -6  -1   3   24.02    3.82
  -6  -1   2   20.66    1.39
  -6  -1   2   55.98    6.90
  -6  -1   1   54.51    1.78
  -6  -1   1  129.79   11.08
   6   1   0   19.15    1.03
  -6  -1   0   19.68    1.41
  -6  -1   0   21.29    2.26
   6   1   1   71.56    2.40
  -6  -1  -1   75.94    2.54
  -6  -1  -2   87.69    3.45
  -6  -1  -2   81.23    2.94
   6   1   2   80.76    3.21
  -6  -1  -3  187.82    6.19
  -6  -1  -3  157.99    4.53
   6   1   3  156.62    3.91
  -6  -1  -4   58.23    4.05
   6   1   4   53.59    3.83
   6   1   4   58.02    2.51
  -6  -1  -5   23.80    3.54
   6   1   5   27.75    2.96
   6   1   5   24.47    1.58
  -6  -1  -6    1.03    2.33
   6   1   6   -1.99    3.42
  -6  -1  -7   87.48    6.14
   6   1   7   88.17    8.51
  -6  -1  -8  185.74   17.55
   6   1   8  168.20   16.35
  -6  -2   6    0.47    1.28
  -6  -2   6    3.21    2.01
  -6  -2   5   16.72    8.35
  -6  -2   5    2.32    1.90
  -6  -2   4  107.07   10.61
  -6  -2   4   21.00    4.44
  -6  -2   3  203.39    4.86
  -6  -2   2  124.59    3.74
  -6  -2   2  211.48   11.92
  -6  -2   1    0.23    0.89
  -6  -2   1    1.13    1.91
  -6  -2   0  142.31    3.66
  -6  -2   0  204.83    7.18
  -6  -2  -1  528.21   14.17
   6   2   1  547.66   15.74
  -6  -2  -2    6.69    3.41
  -6  -2  -2    7.20    1.26
   6   2   2    7.45    1.71
  -6  -2  -3  101.73    4.03
  -6  -2  -3   91.74    3.84
   6   2   3   87.51    3.16
  -6  -2  -4    0.48    1.18
  -6  -2  -4    0.53    1.13
   6   2   4    2.15    1.51
  -6  -2  -5    0.60    1.62
   6   2   5    1.23    2.27
   6   2   5    1.30    1.51
  -6  -2  -6   67.80    4.97
   6   2   6   68.93    5.17
   6   2   6   64.78    2.79
  -6  -2  -7  137.20    8.18
   6   2   7  129.45    8.51
  -6  -2  -8  162.96   15.37
   6   2   8  157.42   15.88
  -6  -3   5  156.26   20.60
  -6  -3   5   32.42   19.16
  -6  -3   4   64.07    8.56
  -6  -3   3 3366.75  338.34
  -6  -3   3  929.00   95.06
  -6  -3   2  253.41    5.62
  -6  -3   2  274.59   10.34
  -6  -3   1    7.35    1.56
  -6  -3   1   13.80    2.78
  -6  -3   0  303.54    5.71
   6   3   0  275.84    7.04
  -6  -3  -1   64.08    2.56
   6   3   1   75.97    3.74
  -6  -3  -2   11.84    1.35
  -6  -3  -2    8.27    1.30
   6   3   2   12.11    4.32
  -6  -3  -3  343.04    7.02
  -6  -3  -3  306.60    6.52
   6   3   3  315.15    6.76
  -6  -3  -4   31.73    2.47
  -6  -3  -4   28.17    2.48
   6   3   4   29.25    2.02
  -6  -3  -5  121.00    5.97
  -6  -3  -5  102.73    5.96
   6   3   5  107.87    6.28
  -6  -3  -6    8.15    7.30
   6   3   6    3.74    2.73
   6   3   6    4.04    1.69
  -6  -3  -7    5.09   10.09
   6   3   7    1.33    3.24
   6   3   7   -0.27    2.05
  -6  -3  -8    8.03    4.81
   6   3   8    5.95    3.69
  -6  -4   4   87.59   16.15
  -6  -4   4   16.20    7.70
  -6  -4   3    7.62    9.57
  -6  -4   3    0.18    1.31
  -6  -4   2    3.90    1.29
  -6  -4   2    8.08    2.93
  -6  -4   1   39.23    3.17
  -6  -4   0  162.13    4.69
   6   4   0  165.13    6.10
  -6  -4  -1   71.65    3.76
   6   4   1   76.20    4.94
  -6  -4  -2  126.32    3.84
   6   4   2  130.49    5.42
  -6  -4  -3  148.63    4.25
  -6  -4  -3  117.10    3.90
   6   4   3  118.28    4.36
  -6  -4  -4   53.72    8.45
  -6  -4  -4   11.77    4.61
   6   4   4    6.31    5.14
  -6  -4  -5   75.71    4.97
   6   4   5   71.87    3.65
  -6  -4  -6   89.21    4.52
   6   4   6   89.48    3.99
  -6  -4  -7   14.23    9.20
   6   4   7    2.71    4.34
   6   4   7    4.01    1.73
  -6  -4  -8   28.17   10.66
   6   4   8    6.35    3.31
   6   4   8    2.84    2.69
  -6  -5   4   27.18    4.09
  -6  -5   3   14.86   11.12
  -6  -5   2    2.42    1.53
   6   5  -2    3.94    2.00
  -6  -5   1   76.96    3.58
   6   5  -1   70.97    4.52
  -6  -5   0   46.01    3.13
   6   5   0   59.49    4.67
  -6  -5  -1   36.29    2.73
   6   5   1   31.11    2.89
  -6  -5  -2  143.29    6.00
   6   5   2  134.95    6.04
  -6  -5  -3  302.07   10.73
   6   5   3  282.62   11.88
  -6  -5  -4   37.23    3.12
   6   5   4   40.39    3.10
  -6  -5  -5   34.40    9.51
  -6  -5  -5    9.06    3.90
   6   5   5    6.65    2.05
  -6  -5  -6    0.97    1.34
  -6  -5  -6    0.93    1.03
   6   5   6    1.03    1.51
  -6  -5  -7   75.07   15.81
  -6  -5  -7   11.10    5.58
   6   5   7   12.96    3.53
  -6  -6   2    5.23    1.81
   6   6  -2    4.05    2.31
  -6  -6   1   19.14    2.58
   6   6  -1   13.05    2.52
  -6  -6   0   58.00    3.42
   6   6   0   55.23    3.81
  -6  -6  -1    2.57    1.43
   6   6   1   -0.47    1.70
  -6  -6  -2   59.30    6.69
   6   6   2   57.47    3.66
  -6  -6  -3   15.90    1.99
   6   6   3   19.88    7.64
  -6  -6  -4   53.85    3.32
   6   6   4   60.01    3.92
  -6  -6  -5   34.12    3.30
   6   6   5   29.99    2.63
  -6  -6  -6  136.98    5.99
  -6  -6  -6  142.38    5.82
   6   6   6  144.62    5.55
  -6  -6  -7    1.77    1.31
  -6  -6  -7    1.76    2.31
   6   6   7    5.58    2.34
  -6  -7   1   40.99    3.27
   6   7  -1   35.03    4.01
  -6  -7   0    6.86    1.66
   6   7   0    7.10    2.41
  -6  -7  -1   18.86    2.18
   6   7   1   24.22    2.40
  -6  -7  -2    9.43    4.41
   6   7   2   11.34    6.50
  -6  -7  -3   12.76    1.70
   6   7   3    8.96    2.35
  -6  -7  -4   37.38    3.18
   6   7   4   39.52    3.22
  -6  -7  -5    9.54    2.11
   6   7   5    6.43    2.23
  -6  -7  -6   18.22    8.90
   6   7   6   22.05    2.58
  -6  -8  -3    3.51    2.24
   6   8   3    4.65    2.07
   7  -6  -4   39.14    3.77
  -7   6   4   45.00    3.80
   7  -6  -3    0.67    0.97
   7  -6  -2   13.77    2.19
   7  -6  -1   74.76    7.41
   7  -6   0   20.60    3.51
   7  -6   1   19.04    2.53
   7  -5  -5   30.83    2.57
  -7   5   5   35.17    3.85
   7  -5  -4   19.23    2.65
  -7   5   4   17.95    3.26
   7  -5  -3    0.86    1.20
   7  -5  -2    5.24    1.79
  -7   5   2    5.02    1.63
   7  -5  -1   39.24    3.15
   7  -5   0    0.51    1.62
   7  -5   1   34.75    3.28
   7  -5   2    6.40    2.68
   7  -5   3    4.59    2.12
   7  -4  -5  325.17   27.35
  -7   4   5  379.76   10.33
   7  -4  -4   17.43    1.76
  -7   4   4   16.78    2.81
   7  -4  -3   71.40    3.75
  -7   4   3   74.67    4.78
   7  -4  -2   89.88    3.65
  -7   4   2   93.15    5.32
   7  -4  -1   26.14    2.48
  -7   4   1   28.22    2.71
   7  -4   0   75.77    4.22
   7  -4   1   42.54    3.73
   7  -4   2   47.56    4.25
   7  -4   3    8.29    2.44
   7  -4   4   10.06    2.33
   7  -4   4   13.02    2.99
  -7   3   6    3.93    2.55
  -7   3   5    7.94    2.10
   7  -3  -4   18.66    3.17
   7  -3  -3   41.02    2.99
  -7   3   3   62.59    4.58
   7  -3  -2   18.23    1.79
  -7   3   2   17.59    2.93
   7  -3  -1   50.78    3.32
  -7   3   1   95.02    5.54
   7  -3   0   26.54    2.71
  -7   3   0   63.00    6.09
   7  -3   1    7.57    1.92
   7  -3   2    8.72    2.27
   7  -3   2    8.67    2.41
   7  -3   3    2.46    1.75
   7  -3   3    4.96    2.50
   7  -3   4    1.85    2.48
  -7   3  -5    6.00    3.65
   7  -3   5    6.40    2.92
  -7   2   6   11.50    3.24
  -7   2   5    3.25    2.09
  -7   2   4  103.93    6.79
   7  -2  -3   59.64    6.35
  -7   2   3   83.82    6.01
   7  -2  -2   46.95    2.55
  -7   2   2   58.10    5.51
   7  -2  -1   33.45    2.14
   7  -2   0   37.08    2.40
   7  -2   1   11.95    2.25
   7  -2   1    9.70    2.09
  -7   2  -1   13.80    5.58
   7  -2   2   99.21    5.19
   7  -2   2   95.61    5.25
   7  -2   3    3.69    2.40
  -7   2  -4   45.20    6.80
   7  -2   4   44.61    4.55
  -7   2  -5    4.90    3.35
   7  -2   5    7.25    3.59
  -7   2  -6   12.51    9.44
   7  -2   6   16.31    3.74
  -7   1   6    5.30    2.73
  -7   1   5    6.70    2.40
  -7   1   4   13.48    2.75
  -7   1   3    4.03    2.95
  -7   1   2  105.92    7.04
   7  -1  -1    9.50    1.08
  -7   1   1   12.57    3.36
   7  -1   0   36.72    2.22
   7  -1   0   29.89    2.09
  -7   1   0   62.28    7.00
   7  -1   1    4.56    1.33
   7  -1   1    8.31    1.48
  -7   1  -1   11.50    2.24
   7  -1   2   -0.27    1.28
   7  -1   2   -0.08    2.07
   7  -1   2    2.00    0.97
  -7   1  -3   57.91    5.09
   7  -1   3   53.91    4.61
  -7   1  -4   11.32    4.87
   7  -1   4    9.81    2.61
  -7   1  -5  118.18    6.75
   7  -1   5  121.80    7.09
  -7   1  -6   43.91    5.12
   7  -1   6   54.93    7.31
  -7   0   6   38.16    4.82
  -7   0   5  174.66    8.75
  -7   0   4  285.22   12.97
  -7   0   3   52.75    4.93
  -7   0   2   12.91    0.95
  -7   0   2   17.79    3.79
  -7   0   1    2.19    1.14
  -7   0   1    1.70    1.81
   7   0   0   22.42    1.54
  -7   0   0   17.25    1.31
  -7   0   0   22.52    6.61
   7   0   1    3.15    0.93
  -7   0  -1    4.28    1.54
   7   0   2  117.16    4.46
   7   0   2  105.55    4.06
  -7   0  -3   28.67    2.87
   7   0   3   18.19    2.05
   7   0   3   20.47    1.54
  -7   0  -4    0.91    1.23
   7   0   4    8.69    3.96
  -7   0  -5   36.56    3.36
   7   0   5   31.37    4.65
  -7   0  -6    8.67    6.40
   7   0   6    2.57    3.71
  -7   0  -7   81.58    6.10
   7   0   7   71.89    6.18
  -7  -1   5    6.24    2.95
  -7  -1   4   44.17    5.92
  -7  -1   3  118.99    3.92
  -7  -1   2   20.57    1.35
  -7  -1   2   48.60    7.10
  -7  -1   1    8.61    0.88
  -7  -1   1   16.93   11.68
  -7  -1   0   10.22    1.23
  -7  -1   0   15.41    2.89
   7   1   1   20.36    1.39
  -7  -1  -1   23.69    1.77
   7   1   1   17.35    2.11
  -7  -1  -2   14.68    2.26
  -7  -1  -2   12.37    4.15
   7   1   2   10.41    1.59
  -7  -1  -3   46.70    3.65
  -7  -1  -3   36.79    2.37
   7   1   3   43.31    2.44
  -7  -1  -4   45.81    3.60
   7   1   4   40.12    3.60
   7   1   4   40.46    2.81
  -7  -1  -5   83.28    4.70
   7   1   5   66.46    4.89
  -7  -1  -6   14.85    2.62
   7   1   6   11.76    3.09
  -7  -1  -7  120.34   11.93
   7   1   7   96.81   10.56
  -7  -2   5  162.01   16.37
  -7  -2   4  211.23   13.92
  -7  -2   3  219.86    6.79
  -7  -2   2   19.19    2.82
  -7  -2   2   54.62    6.77
  -7  -2   1   22.40    1.43
  -7  -2   1   30.52    6.02
  -7  -2   0    4.25    2.51
  -7  -2   0    9.67    3.42
  -7  -2  -1   15.10    1.49
   7   2   1   16.68    2.33
  -7  -2  -2    4.00    1.63
  -7  -2  -2    4.02    2.25
   7   2   2    4.19    1.49
  -7  -2  -3  128.55    6.79
  -7  -2  -3  122.19    6.04
   7   2   3  127.94    5.54
  -7  -2  -4  139.40    6.56
  -7  -2  -4  104.49    5.63
   7   2   4  115.19    4.81
  -7  -2  -5    9.41    2.13
   7   2   5    3.10    3.45
   7   2   5    2.84    1.83
  -7  -2  -6    3.41    1.62
   7   2   6    2.90    2.75
  -7  -2  -7   61.01    7.04
   7   2   7   52.96    6.79
  -7  -3   4   22.29    2.73
  -7  -3   4   46.75    7.82
  -7  -3   3   71.23    3.04
  -7  -3   3   69.82    5.34
  -7  -3   2   22.16    1.72
  -7  -3   2   32.48    4.79
  -7  -3   1  102.48    3.42
  -7  -3   1  127.75    8.08
  -7  -3   0   94.43    4.08
   7   3   0  119.72    6.07
  -7  -3  -1    7.34    4.48
   7   3   1    9.30    2.30
  -7  -3  -2  127.59    5.41
   7   3   2  125.29    6.63
  -7  -3  -3   13.92    5.14
   7   3   3    9.73    1.89
  -7  -3  -4   31.65    2.58
  -7  -3  -4   31.46    3.96
   7   3   4   25.44    2.21
  -7  -3  -5  111.01    5.61
  -7  -3  -5  105.82    5.33
   7   3   5  106.37    4.40
  -7  -3  -6    4.23    2.43
   7   3   6    1.84    2.63
   7   3   6    2.42    1.61
  -7  -3  -7   20.02    4.66
   7   3   7   12.72    2.98
  -7  -4   3   16.39    2.26
  -7  -4   3   24.23    4.26
  -7  -4   2   13.89    2.35
  -7  -4   2   15.27    4.34
  -7  -4   1   33.07    2.34
   7   4  -1   31.77    3.49
  -7  -4   0   49.96    2.52
   7   4   0   59.74    7.30
  -7  -4  -1   82.92    3.28
   7   4   1   80.65    4.49
  -7  -4  -2   76.64    3.57
   7   4   2   92.32    4.25
  -7  -4  -3   43.44    3.21
   7   4   3   41.62    2.85
  -7  -4  -4   43.32    3.42
   7   4   4   36.41    2.49
  -7  -4  -5   15.12    2.83
  -7  -4  -5    7.16    3.18
   7   4   5   11.97    2.18
  -7  -4  -6   18.83    9.60
  -7  -4  -6   20.85    2.85
   7   4   6   25.64    2.74
  -7  -4  -7   33.19    3.13
   7   4   7   48.26    4.55
   7   4   7   31.42    2.50
  -7  -5   2  143.65   12.97
   7   5  -2  126.14   11.82
  -7  -5   1    0.95    1.22
   7   5  -1    3.24    2.97
  -7  -5   0  165.73    5.12
   7   5   0  147.69    6.44
  -7  -5  -1   49.37    3.44
   7   5   1   43.59    4.10
  -7  -5  -2    0.54    1.56
   7   5   2    3.19    2.09
  -7  -5  -3   32.26    8.41
   7   5   3   31.09    6.24
  -7  -5  -4  536.78    9.64
   7   5   4  456.65   10.81
  -7  -5  -5    1.93    1.20
   7   5   5    0.74    1.27
  -7  -5  -6   31.08   10.48
   7   5   6   33.42    4.17
  -7  -6   1    0.45    1.22
   7   6  -1    2.01    1.62
  -7  -6   0   14.56    2.03
   7   6   0   12.23    8.15
  -7  -6  -1    3.45    1.52
   7   6   1    8.14    2.46
  -7  -6  -2   37.61    2.69
   7   6   2   35.82    7.89
  -7  -6  -3    2.78    1.54
   7   6   3    3.07    2.95
  -7  -6  -4   23.86    3.15
   7   6   4   25.60    3.24
  -7  -6  -5    1.41    3.02
   7   6   5    3.97    1.78
   8  -5  -2   31.53    2.72
   8  -5  -1   26.30    2.55
   8  -5   0   10.05    2.12
   8  -4  -3   96.87    8.68
  -8   4   3  107.65   10.61
   8  -4  -2   22.09    6.46
  -8   4   2   26.51    3.76
   8  -4  -1   67.55    6.55
   8  -4   0   21.18    3.07
   8  -4   1    0.81    1.39
   8  -4   2   18.07    3.26
  -8   3   4   43.23    5.89
  -8   3   3   10.98    3.00
   8  -3  -2   32.89    2.33
  -8   3   2   41.02    4.40
   8  -3  -1    7.01    1.52
  -8   3   1   17.73    3.64
   8  -3   0   17.29    2.40
   8  -3   1  507.80   10.32
   8  -3   2    6.01    2.05
   8  -3   3    7.54    2.08
  -8   2   4  121.19   12.78
  -8   2   3   99.83    6.00
  -8   2   2  215.45   10.04
  -8   2   1  126.20    8.74
   8  -2   0    8.30    1.86
  -8   2   0   15.15   10.91
   8  -2   1  924.46   12.98
   8  -2   2  847.88   14.54
   8  -2   3    1.38    1.45
   8  -2   4   20.47    3.14
   8  -2   4   21.07    3.82
  -8   1   4   25.39    4.92
  -8   1   3  132.50    7.59
  -8   1   2  223.15   11.84
  -8   1   1   83.64    7.88
  -8   1   0   15.00    6.77
   8  -1   1    1.28    1.04
   8  -1   2  167.16    7.16
   8  -1   2  149.55    6.50
  -8   1  -4    4.70    4.34
   8  -1   4    2.17    2.94
  -8   1  -5   44.09    6.16
   8  -1   5   40.15    4.34
  -8   0   4   40.73    6.54
  -8   0   3  113.51    9.54
  -8   0   2   65.21    9.32
  -8   0   1  155.97    9.42
  -8   0   0   97.95    5.54
   8   0   1    2.65    1.74
   8   0   1    1.01    1.21
   8   0   2    2.66    1.38
   8   0   2    3.98    2.07
   8   0   2    3.00    1.12
   8   0   3  118.15    7.27
  -8   0  -5   -0.13    2.39
   8   0   5    0.14    2.55
  -8  -1   4   12.72    8.69
  -8  -1   3   40.82    9.19
  -8  -1   2   76.01    6.70
  -8  -1   1   58.81    4.67
  -8  -1   0   51.75    3.61
  -8  -1   0   89.73    5.43
  -8  -1  -1  179.82    4.48
   8   1   1  197.59    6.18
  -8  -1  -2    1.37    1.59
   8   1   2    5.91    1.57
  -8  -1  -3   45.13    3.40
   8   1   3   47.19    3.67
   8   1   3   33.53    2.61
  -8  -1  -4    7.75    4.00
   8   1   4    7.68    2.62
  -8  -1  -5    3.99    3.12
   8   1   5    6.20    2.73
  -8  -1  -6   28.72    2.99
   8   1   6   30.19    4.77
  -8  -2   3  467.90   29.07
  -8  -2   2  177.07    8.75
  -8  -2   1    6.95    1.28
  -8  -2   1   12.51    3.32
  -8  -2   0   93.25    3.79
   8   2   0   89.52    5.10
  -8  -2  -1  108.82    4.65
   8   2   1   97.37    5.53
  -8  -2  -2   78.62    4.26
   8   2   2   75.25    4.56
  -8  -2  -3   94.89    4.45
   8   2   3  107.27    4.75
   8   2   4    0.72    0.54
  -8  -2  -5   26.06    6.70
   8   2   5    9.56    1.92
  -8  -2  -6    6.50    1.83
   8   2   6    2.32    2.62
  -8  -3   2   74.89    6.84
  -8  -3   2  120.57   12.30
  -8  -3   1    5.40    1.26
  -8  -3   0   91.88    3.38
   8   3   0  103.85    5.58
  -8  -3  -1    6.31    1.46
   8   3   1   15.55    3.03
  -8  -3  -2    4.01    2.60
   8   3   2   11.28    2.62
  -8  -3  -3   54.37    3.69
   8   3   3   65.16    4.47
  -8  -3  -4    5.71    2.82
   8   3   4    6.32    4.33
  -8  -3  -5   43.01    4.61
   8   3   5   55.03    5.27
  -8  -4   1   60.73    5.79
   8   4  -1   63.38    7.12
  -8  -4   0   43.68    4.38
   8   4   0   43.47    5.50
  -8  -4  -1   16.51    3.08
   8   4   1   24.40    3.14
  -8  -4  -2  152.98    4.52
   8   4   2  171.52    6.54
  -8  -4  -3  196.54    5.79
   8   4   3  178.90    5.75
  -8  -4  -4   19.16    2.72
   8   4   4   18.35    2.59
  -8  -4  -5    1.44    1.41
   8   4   5   17.49    4.22
  -8  -5   0    2.63    1.33
   8   5   0    2.19    1.51
  -8  -5  -1   10.15    1.52
   8   5   1    8.39    2.50
  -8  -5  -2   14.11    1.85
   8   5   2   13.74    3.42
  -8  -5  -3    7.80    2.06
   8   5   3   26.47    5.17
  -8  -5  -4  103.20    4.54
   8   5   4  108.14    4.44
  -9   2   1    7.93    2.08
   9  -2   2    2.24    1.70
  -9   1   2   61.40   15.09
  -9   1   1   18.95    3.75
  -9   1   0   22.61    3.83
   9  -1   3    1.40    1.14
  -9   0   2   40.03   11.00
  -9   0   1    0.52    1.52
   9   0   1   10.96    1.89
  -9  -1   1   42.26    4.69
   9   1   0    2.12    1.68
   9   1   1   13.06    2.31
   9   1   2    4.13    1.63
   9   1   3   12.26    2.04
   9   2   0   16.77    2.36
  -9  -2  -1    0.55    1.44
   9   2   1    0.55    1.23
  -9  -2  -2    8.50    5.54
   9   2   2   17.19    2.90
  -9  -2  -3    0.49    1.39
   9   2   3    1.58    1.09
  -9  -3  -1   63.59    3.15
   9   3   1   53.31    3.61
  -9  -3  -2   56.08    3.68
   9   3   2   62.29    3.97
   0   0   0    0.00    0.00
;
_shelx_hkl_checksum              47443
loop_
_space_group_symop_operation_xyz
'x, y, z'
loop_
_atom_site_label
_atom_site_type_symbol
_atom_site_fract_x
_atom_site_fract_y
_atom_site_fract_z
_atom_site_U_iso_or_equiv
_atom_site_adp_type
_atom_site_occupancy
_atom_site_site_symmetry_order
_atom_site_calc_flag
_atom_site_refinement_flags_posn
_atom_site_refinement_flags_adp
_atom_site_refinement_flags_occupancy
_atom_site_disorder_assembly
_atom_site_disorder_group
N1 N 0.8702(3) 1.1834(2) -0.3190(2) 0.0344(5) Uani 1 1 d . . . . .
N2 N 0.8953(3) 1.5032(2) -0.0052(2) 0.0372(5) Uani 1 1 d . . . . .
N3 N 0.5907(2) 0.7973(2) 0.7123(2) 0.0329(5) Uani 1 1 d . . . . .
N4 N 0.5728(2) 0.4830(2) 0.3898(2) 0.0290(4) Uani 1 1 d . . . . .
C1 C 0.8310(2) 1.1325(2) -0.1770(2) 0.0195(4) Uani 1 1 d . U . . .
C2 C 0.7793(2) 1.0623(2) 0.0114(2) 0.0196(4) Uani 1 1 d . . . . .
C3 C 0.7224(2) 0.8806(2) 0.0807(2) 0.0208(4) Uani 1 1 d . U . . .
H3A H 0.718240 0.805220 0.006364 0.025 Uiso 1 1 calc R U . . .
C4 C 0.6723(2) 0.8153(2) 0.2636(2) 0.0227(5) Uani 1 1 d . . . . .
C5 C 0.6856(2) 0.9282(2) 0.37164(19) 0.0192(4) Uani 1 1 d . . . . .
C6 C 0.7426(2) 1.1009(2) 0.3027(2) 0.0245(4) Uani 1 1 d . . . . .
H6A H 0.751388 1.174335 0.378361 0.029 Uiso 1 1 calc R U . . .
C7 C 0.7874(2) 1.1703(2) 0.12550(19) 0.0173(4) Uani 1 1 d . U . . .
C8 C 0.8445(3) 1.3487(2) 0.0572(2) 0.0244(5) Uani 1 1 d . . . . .
C9 C 0.6343(3) 0.8555(2) 0.5577(2) 0.0275(5) Uani 1 1 d . . . . .
C10 C 0.6131(2) 0.6236(2) 0.3399(2) 0.0219(4) Uani 1 1 d . . . . .
S1 S 0.22207(13) 0.83934(11) 0.01521(11) 0.0293(2) Uani 0.5 1 d D . P A 1
C11 C 0.2826(2) 1.05000(18) 0.00391(18) 0.0284(9) Uani 0.5 1 d DG U P A 1
C12 C 0.3467(3) 1.1699(2) -0.1562(2) 0.0292(9) Uani 0.5 1 d G U P A 1
H12A H 0.355170 1.133774 -0.260812 0.035 Uiso 0.5 1 calc R U P A 1
C13 C 0.3985(4) 1.3427(2) -0.1631(3) 0.0226(8) Uani 0.5 1 d G U P A 1
H13A H 0.442309 1.424701 -0.272482 0.027 Uiso 0.5 1 calc R U P A 1
C14 C 0.3861(4) 1.3956(2) -0.0100(4) 0.0322(10) Uani 0.5 1 d G U P A 1
H14A H 0.421479 1.513748 -0.014695 0.039 Uiso 0.5 1 calc R U P A 1
C15 C 0.3220(4) 1.2757(3) 0.1501(3) 0.0275(9) Uani 0.5 1 d G U P A 1
H15A H 0.313508 1.311868 0.254763 0.033 Uiso 0.5 1 calc R U P A 1
C16 C 0.2702(3) 1.1029(2) 0.15704(19) 0.0148(7) Uani 0.5 1 d DG U P A 1
C17 C 0.1989(2) 0.94479(18) 0.30053(18) 0.0253(9) Uani 0.5 1 d DG U P A 1
C18 C 0.1629(3) 0.9392(2) 0.47661(19) 0.0243(8) Uani 0.5 1 d G U P A 1
H18A H 0.185350 1.042124 0.513023 0.029 Uiso 0.5 1 calc R U P A 1
C19 C 0.0940(4) 0.7831(3) 0.5994(2) 0.0260(8) Uani 0.5 1 d G U P A 1
H19A H 0.069454 0.779272 0.719762 0.031 Uiso 0.5 1 calc R U P A 1
C20 C 0.0612(4) 0.6325(3) 0.5461(3) 0.0309(9) Uani 0.5 1 d G U P A 1
H20A H 0.014123 0.525800 0.630074 0.037 Uiso 0.5 1 calc R U P A 1
C21 C 0.0972(4) 0.6381(2) 0.3701(3) 0.0306(9) Uani 0.5 1 d G U P A 1
H21A H 0.074687 0.535180 0.333645 0.037 Uiso 0.5 1 calc R U P A 1
C22 C 0.1660(3) 0.7942(2) 0.2472(2) 0.0162(7) Uani 0.5 1 d DG U P A 1
S1' S 0.23806(13) 1.13921(12) 0.37928(11) 0.0304(2) Uani 0.5 1 d D . P B 2
C11' C 0.29074(19) 1.18144(18) 0.15935(17) 0.0268(9) Uani 0.5 1 d DG U P B 2
C12' C 0.3570(3) 1.3449(2) 0.0480(2) 0.0244(8) Uani 0.5 1 d G U P B 2
H12B H 0.376398 1.441731 0.094605 0.029 Uiso 0.5 1 calc R U P B 2
C13' C 0.3949(3) 1.3667(3) -0.1314(2) 0.0116(3) Uani 0.5 1 d G U P B 2
H13B H 0.440148 1.478404 -0.207450 0.014 Uiso 0.5 1 calc R U P B 2
C14' C 0.3665(4) 1.2250(3) -0.19950(18) 0.0226(8) Uani 0.5 1 d G U P B 2
H14B H 0.392362 1.239899 -0.322134 0.027 Uiso 0.5 1 calc R U P B 2
C15' C 0.3002(4) 1.0615(3) -0.0882(2) 0.0326(10) Uani 0.5 1 d G U P B 2
H15B H 0.280827 0.964719 -0.134764 0.039 Uiso 0.5 1 calc R U P B 2
C16' C 0.2624(3) 1.0398(2) 0.0912(2) 0.0166(7) Uani 0.5 1 d DG U P B 2
C17' C 0.1911(2) 0.88561(18) 0.23718(18) 0.0237(8) Uani 0.5 1 d DG U P B 2
C18' C 0.1746(3) 0.9150(2) 0.4021(2) 0.0174(7) Uani 0.5 1 d DG U P B 2
C19' C 0.1107(4) 0.7786(3) 0.55044(19) 0.0227(8) Uani 0.5 1 d G U P B 2
H19B H 0.099330 0.798663 0.663164 0.027 Uiso 0.5 1 calc R U P B 2
C20' C 0.0633(4) 0.6127(3) 0.5339(3) 0.0450(11) Uani 0.5 1 d G U P B 2
H20B H 0.019663 0.519378 0.635237 0.054 Uiso 0.5 1 calc R U P B 2
C21' C 0.0799(4) 0.5832(2) 0.3689(3) 0.0159(7) Uani 0.5 1 d G U P B 2
H21B H 0.047574 0.469844 0.357593 0.019 Uiso 0.5 1 calc R U P B 2
C22' C 0.1438(3) 0.7197(2) 0.2206(2) 0.0217(8) Uani 0.5 1 d G U P B 2
H22A H 0.155152 0.699596 0.107873 0.026 Uiso 0.5 1 calc R U P B 2
loop_
_atom_site_aniso_label
_atom_site_aniso_U_11
_atom_site_aniso_U_22
_atom_site_aniso_U_33
_atom_site_aniso_U_23
_atom_site_aniso_U_13
_atom_site_aniso_U_12
N1 0.0564(10) 0.0248(7) 0.0146(6) 0.0033(6) 0.0113(7) -0.0127(7)
N2 0.0475(10) 0.0209(7) 0.0410(9) -0.0073(6) 0.0047(8) -0.0066(7)
N3 0.0360(8) 0.0430(8) 0.0237(6) -0.0154(5) -0.0053(6) 0.0017(7)
N4 0.0383(8) 0.0257(7) 0.0210(7) -0.0038(5) -0.0002(6) -0.0052(7)
C1 0.0233(8) 0.0187(7) 0.0113(6) 0.0029(5) 0.0026(6) -0.0045(6)
C2 0.0211(8) 0.0132(6) 0.0186(7) 0.0042(6) 0.0006(6) -0.0044(6)
C3 0.0262(8) 0.0250(7) 0.0059(6) 0.0021(5) 0.0067(6) -0.0068(7)
C4 0.0183(8) 0.0147(6) 0.0359(8) -0.0077(6) -0.0071(7) 0.0011(6)
C5 0.0169(7) 0.0342(7) 0.0095(6) -0.0114(5) -0.0012(6) 0.0082(6)
C6 0.0267(8) 0.0216(6) 0.0333(7) -0.0185(5) -0.0124(6) 0.0096(6)
C7 0.0245(8) 0.0162(6) 0.0067(6) 0.0026(5) 0.0033(6) -0.0011(6)
C8 0.0368(10) 0.0222(7) 0.0091(7) 0.0020(6) 0.0041(7) -0.0044(7)
C9 0.0359(9) 0.0224(7) 0.0278(8) -0.0127(6) -0.0043(7) 0.0000(7)
C10 0.0224(8) 0.0205(7) 0.0243(7) -0.0089(5) -0.0031(6) 0.0021(6)
S1 0.0353(5) 0.0234(3) 0.0312(4) -0.0121(3) 0.0037(4) -0.0083(3)
C11 0.0289(15) 0.0315(14) 0.0276(13) -0.0120(10) -0.0071(12) 0.0011(12)
C12 0.0336(16) 0.0281(14) 0.0224(14) -0.0015(11) -0.0027(12) -0.0056(13)
C13 0.0245(14) 0.0197(13) 0.0184(13) 0.0022(10) 0.0008(12) 0.0003(12)
C14 0.0294(15) 0.0231(14) 0.0390(16) -0.0015(12) -0.0013(13) 0.0004(12)
C15 0.0294(15) 0.0232(13) 0.0296(14) -0.0069(11) -0.0024(12) -0.0002(12)
C16 0.0164(13) 0.0158(11) 0.0138(11) -0.0072(8) 0.0012(10) -0.0024(10)
C17 0.0235(14) 0.0277(14) 0.0254(14) -0.0082(10) -0.0047(12) 0.0030(12)
C18 0.0261(14) 0.0286(13) 0.0192(12) -0.0079(10) -0.0051(11) 0.0022(12)
C19 0.0308(15) 0.0278(13) 0.0177(12) -0.0049(10) 0.0013(12) -0.0008(12)
C20 0.0331(16) 0.0294(15) 0.0248(14) -0.0001(12) 0.0004(13) -0.0004(13)
C21 0.0325(16) 0.0202(13) 0.0368(15) -0.0050(11) -0.0005(13) -0.0037(12)
C22 0.0169(13) 0.0143(11) 0.0193(12) -0.0079(8) 0.0002(10) -0.0022(10)
S1' 0.0284(4) 0.0407(4) 0.0269(4) -0.0181(3) 0.0016(3) -0.0003(4)
C11' 0.0265(14) 0.0247(14) 0.0264(14) -0.0023(11) -0.0047(12) -0.0027(12)
C12' 0.0244(14) 0.0234(13) 0.0212(13) -0.0011(10) 0.0021(12) 0.0023(12)
C13' 0.0112(5) 0.0110(5) 0.0119(5) -0.0024(4) -0.0005(4) -0.0003(4)
C14' 0.0192(13) 0.0292(14) 0.0161(12) -0.0006(10) -0.0054(11) -0.0020(12)
C15' 0.0278(15) 0.0361(15) 0.0312(15) -0.0058(12) 0.0003(13) -0.0059(13)
C16' 0.0149(12) 0.0212(12) 0.0121(12) -0.0018(9) -0.0015(10) -0.0028(10)
C17' 0.0218(14) 0.0235(13) 0.0242(13) -0.0032(10) -0.0072(11) 0.0020(12)
C18' 0.0150(13) 0.0254(13) 0.0111(11) -0.0055(9) 0.0035(10) 0.0040(11)
C19' 0.0224(14) 0.0263(13) 0.0150(12) 0.0000(10) 0.0018(11) -0.0004(12)
C20' 0.0457(18) 0.0403(17) 0.0457(18) -0.0070(13) -0.0050(15) -0.0007(15)
C21' 0.0158(12) 0.0142(11) 0.0176(11) -0.0044(9) -0.0010(10) -0.0037(10)
C22' 0.0171(13) 0.0237(13) 0.0241(13) -0.0062(10) -0.0021(11) -0.0015(11)
loop_
_atom_type_symbol
_atom_type_description
_atom_type_scat_dispersion_real
_atom_type_scat_dispersion_imag
_atom_type_scat_source
C C 0.0033 0.0016 'International Tables Vol C Tables 4.2.6.8 and 6.1.1.4'
H H 0.0000 0.0000 'International Tables Vol C Tables 4.2.6.8 and 6.1.1.4'
N N 0.0061 0.0033 'International Tables Vol C Tables 4.2.6.8 and 6.1.1.4'
S S 0.1246 0.1234 'International Tables Vol C Tables 4.2.6.8 and 6.1.1.4'
loop_
_geom_angle_atom_site_label_1
_geom_angle_atom_site_label_2
_geom_angle_atom_site_label_3
_geom_angle
_geom_angle_site_symmetry_1
_geom_angle_site_symmetry_3
_geom_angle_publ_flag
N1 C1 C2 179.2(2) . . ?
C7 C2 C3 119.79(14) . . ?
C7 C2 C1 121.42(14) . . ?
C3 C2 C1 118.78(17) . . ?
C4 C3 C2 117.91(17) . . ?
C4 C3 H3A 121.0 . . ?
C2 C3 H3A 121.0 . . ?
C5 C4 C3 119.88(14) . . ?
C5 C4 C10 121.23(15) . . ?
C3 C4 C10 118.84(17) . . ?
C6 C5 C4 121.15(14) . . ?
C6 C5 C9 120.87(17) . . ?
C4 C5 C9 117.98(15) . . ?
C5 C6 C7 120.65(17) . . ?
C5 C6 H6A 119.7 . . ?
C7 C6 H6A 119.7 . . ?
C6 C7 C8 119.70(17) . . ?
C6 C7 C2 120.59(14) . . ?
C8 C7 C2 119.71(14) . . ?
N2 C8 C7 178.7(2) . . ?
N3 C9 C5 179.1(2) . . ?
N4 C10 C4 177.3(2) . . ?
C11 S1 C22 89.50(9) . . ?
C12 C11 C16 120.0 . . ?
C12 C11 S1 120.63(8) . . ?
C16 C11 S1 119.36(8) . . ?
C11 C12 C13 120.0 . . ?
C11 C12 H12A 120.0 . . ?
C13 C12 H12A 120.0 . . ?
C14 C13 C12 120.0 . . ?
C14 C13 H13A 120.0 . . ?
C12 C13 H13A 120.0 . . ?
C13 C14 C15 120.0 . . ?
C13 C14 H14A 120.0 . . ?
C15 C14 H14A 120.0 . . ?
C14 C15 C16 120.0 . . ?
C14 C15 H15A 120.0 . . ?
C16 C15 H15A 120.0 . . ?
C15 C16 C11 120.0 . . ?
C15 C16 C17 134.16(11) . . ?
C11 C16 C17 105.84(11) . . ?
C18 C17 C22 120.0 . . ?
C18 C17 C16 125.23(11) . . ?
C22 C17 C16 114.77(11) . . ?
C19 C18 C17 120.0 . . ?
C19 C18 H18A 120.0 . . ?
C17 C18 H18A 120.0 . . ?
C20 C19 C18 120.0 . . ?
C20 C19 H19A 120.0 . . ?
C18 C19 H19A 120.0 . . ?
C21 C20 C19 120.0 . . ?
C21 C20 H20A 120.0 . . ?
C19 C20 H20A 120.0 . . ?
C22 C21 C20 120.0 . . ?
C22 C21 H21A 120.0 . . ?
C20 C21 H21A 120.0 . . ?
C21 C22 C17 120.0 . . ?
C21 C22 S1 129.47(9) . . ?
C17 C22 S1 110.53(9) . . ?
C11' S1' C18' 91.95(9) . . ?
C12' C11' C16' 120.0 . . ?
C12' C11' S1' 124.35(8) . . ?
C16' C11' S1' 115.65(8) . . ?
C11' C12' C13' 120.0 . . ?
C11' C12' H12B 120.0 . . ?
C13' C12' H12B 120.0 . . ?
C14' C13' C12' 120.0 . . ?
C14' C13' H13B 120.0 . . ?
C12' C13' H13B 120.0 . . ?
C13' C14' C15' 120.0 . . ?
C13' C14' H14B 120.0 . . ?
C15' C14' H14B 120.0 . . ?
C14' C15' C16' 120.0 . . ?
C14' C15' H15B 120.0 . . ?
C16' C15' H15B 120.0 . . ?
C15' C16' C11' 120.0 . . ?
C15' C16' C17' 131.74(11) . . ?
C11' C16' C17' 108.26(11) . . ?
C18' C17' C22' 120.0 . . ?
C18' C17' C16' 114.76(11) . . ?
C22' C17' C16' 125.24(11) . . ?
C19' C18' C17' 120.0 . . ?
C19' C18' S1' 130.64(9) . . ?
C17' C18' S1' 109.33(9) . . ?
C20' C19' C18' 120.0 . . ?
C20' C19' H19B 120.0 . . ?
C18' C19' H19B 120.0 . . ?
C19' C20' C21' 120.0 . . ?
C19' C20' H20B 120.0 . . ?
C21' C20' H20B 120.0 . . ?
C20' C21' C22' 120.0 . . ?
C20' C21' H21B 120.0 . . ?
C22' C21' H21B 120.0 . . ?
C21' C22' C17' 120.0 . . ?
C21' C22' H22A 120.0 . . ?
C17' C22' H22A 120.0 . . ?
loop_
_geom_bond_atom_site_label_1
_geom_bond_atom_site_label_2
_geom_bond_distance
_geom_bond_site_symmetry_2
_geom_bond_publ_flag
N1 C1 1.096(2) . ?
N2 C8 1.213(2) . ?
N3 C9 1.196(2) . ?
N4 C10 1.088(2) . ?
C1 C2 1.455(2) . ?
C2 C7 1.411(3) . ?
C2 C3 1.418(2) . ?
C3 C4 1.411(2) . ?
C3 H3A 0.9500 . ?
C4 C5 1.407(3) . ?
C4 C10 1.496(2) . ?
C5 C6 1.355(2) . ?
C5 C9 1.439(2) . ?
C6 C7 1.366(2) . ?
C6 H6A 0.9500 . ?
C7 C8 1.395(2) . ?
S1 C11 1.6834(18) . ?
S1 C22 1.786(2) . ?
C11 C12 1.3900 . ?
C11 C16 1.3900 . ?
C12 C13 1.3900 . ?
C12 H12A 0.9500 . ?
C13 C14 1.3900 . ?
C13 H13A 0.9500 . ?
C14 C15 1.3900 . ?
C14 H14A 0.9500 . ?
C15 C16 1.3900 . ?
C15 H15A 0.9500 . ?
C16 C17 1.481(2) . ?
C17 C18 1.3900 . ?
C17 C22 1.3900 . ?
C18 C19 1.3900 . ?
C18 H18A 0.9500 . ?
C19 C20 1.3900 . ?
C19 H19A 0.9500 . ?
C20 C21 1.3900 . ?
C20 H20A 0.9500 . ?
C21 C22 1.3900 . ?
C21 H21A 0.9500 . ?
S1' C11' 1.6930(16) . ?
S1' C18' 1.770(2) . ?
C11' C12' 1.3900 . ?
C11' C16' 1.3900 . ?
C12' C13' 1.3900 . ?
C12' H12B 0.9500 . ?
C13' C14' 1.3900 . ?
C13' H13B 0.9500 . ?
C14' C15' 1.3900 . ?
C14' H14B 0.9500 . ?
C15' C16' 1.3900 . ?
C15' H15B 0.9500 . ?
C16' C17' 1.472(2) . ?
C17' C18' 1.3900 . ?
C17' C22' 1.3900 . ?
C18' C19' 1.3900 . ?
C19' C20' 1.3900 . ?
C19' H19B 0.9500 . ?
C20' C21' 1.3900 . ?
C20' H20B 0.9500 . ?
C21' C22' 1.3900 . ?
C21' H21B 0.9500 . ?
C22' H22A 0.9500 . ?
loop_
_geom_torsion_atom_site_label_1
_geom_torsion_atom_site_label_2
_geom_torsion_atom_site_label_3
_geom_torsion_atom_site_label_4
_geom_torsion
_geom_torsion_site_symmetry_1
_geom_torsion_site_symmetry_2
_geom_torsion_site_symmetry_3
_geom_torsion_site_symmetry_4
_geom_torsion_publ_flag
C7 C2 C3 C4 1.2(2) . . . . ?
C1 C2 C3 C4 -179.80(15) . . . . ?
C2 C3 C4 C5 -2.1(2) . . . . ?
C2 C3 C4 C10 -179.58(15) . . . . ?
C3 C4 C5 C6 1.3(2) . . . . ?
C10 C4 C5 C6 178.76(16) . . . . ?
C3 C4 C5 C9 -179.53(16) . . . . ?
C10 C4 C5 C9 -2.1(2) . . . . ?
C4 C5 C6 C7 0.5(3) . . . . ?
C9 C5 C6 C7 -178.65(16) . . . . ?
C5 C6 C7 C8 179.56(16) . . . . ?
C5 C6 C7 C2 -1.4(3) . . . . ?
C3 C2 C7 C6 0.6(2) . . . . ?
C1 C2 C7 C6 -178.44(16) . . . . ?
C3 C2 C7 C8 179.60(16) . . . . ?
C1 C2 C7 C8 0.6(2) . . . . ?
C22 S1 C11 C12 179.72(11) . . . . ?
C22 S1 C11 C16 0.55(12) . . . . ?
C16 C11 C12 C13 0.0 . . . . ?
S1 C11 C12 C13 -179.17(9) . . . . ?
C11 C12 C13 C14 0.0 . . . . ?
C12 C13 C14 C15 0.0 . . . . ?
C13 C14 C15 C16 0.0 . . . . ?
C14 C15 C16 C11 0.0 . . . . ?
C14 C15 C16 C17 179.65(19) . . . . ?
C12 C11 C16 C15 0.0 . . . . ?
S1 C11 C16 C15 179.18(9) . . . . ?
C12 C11 C16 C17 -179.74(14) . . . . ?
S1 C11 C16 C17 -0.57(14) . . . . ?
C15 C16 C17 C18 1.22(19) . . . . ?
C11 C16 C17 C18 -179.09(9) . . . . ?
C15 C16 C17 C22 -179.43(11) . . . . ?
C11 C16 C17 C22 0.26(15) . . . . ?
C22 C17 C18 C19 0.0 . . . . ?
C16 C17 C18 C19 179.32(15) . . . . ?
C17 C18 C19 C20 0.0 . . . . ?
C18 C19 C20 C21 0.0 . . . . ?
C19 C20 C21 C22 0.0 . . . . ?
C20 C21 C22 C17 0.0 . . . . ?
C20 C21 C22 S1 -179.38(14) . . . . ?
C18 C17 C22 C21 0.0 . . . . ?
C16 C17 C22 C21 -179.39(13) . . . . ?
C18 C17 C22 S1 179.49(11) . . . . ?
C16 C17 C22 S1 0.10(14) . . . . ?
C11 S1 C22 C21 179.09(9) . . . . ?
C11 S1 C22 C17 -0.34(11) . . . . ?
C18' S1' C11' C12' -179.29(11) . . . . ?
C18' S1' C11' C16' 1.20(11) . . . . ?
C16' C11' C12' C13' 0.0 . . . . ?
S1' C11' C12' C13' -179.49(9) . . . . ?
C11' C12' C13' C14' 0.0 . . . . ?
C12' C13' C14' C15' 0.0 . . . . ?
C13' C14' C15' C16' 0.0 . . . . ?
C14' C15' C16' C11' 0.0 . . . . ?
C14' C15' C16' C17' 179.47(18) . . . . ?
C12' C11' C16' C15' 0.0 . . . . ?
S1' C11' C16' C15' 179.53(8) . . . . ?
C12' C11' C16' C17' -179.58(14) . . . . ?
S1' C11' C16' C17' -0.05(14) . . . . ?
C15' C16' C17' C18' 178.90(9) . . . . ?
C11' C16' C17' C18' -1.59(15) . . . . ?
C15' C16' C17' C22' -0.37(18) . . . . ?
C11' C16' C17' C22' 179.14(10) . . . . ?
C22' C17' C18' C19' 0.0 . . . . ?
C16' C17' C18' C19' -179.31(13) . . . . ?
C22' C17' C18' S1' -178.27(11) . . . . ?
C16' C17' C18' S1' 2.42(14) . . . . ?
C11' S1' C18' C19' 179.95(9) . . . . ?
C11' S1' C18' C17' -2.03(10) . . . . ?
C17' C18' C19' C20' 0.0 . . . . ?
S1' C18' C19' C20' 177.85(14) . . . . ?
C18' C19' C20' C21' 0.0 . . . . ?
C19' C20' C21' C22' 0.0 . . . . ?
C20' C21' C22' C17' 0.0 . . . . ?
C18' C17' C22' C21' 0.0 . . . . ?
C16' C17' C22' C21' 179.24(14) . . . . ?
