#------------------------------------------------------------------------------
#$Date: 2021-05-19 01:23:07 +0300 (Wed, 19 May 2021) $
#$Revision: 265317 $
#$URL: file:///home/coder/svn-repositories/cod/cif/4/00/39/4003945.cif $
#------------------------------------------------------------------------------
#
# This file is available in the Crystallography Open Database (COD),
# http://www.crystallography.net/
#
# All data on this site have been placed in the public domain by the
# contributors.
#
data_4003945
loop_
_publ_author_name
'Piva, Mario M.'
'Rahn, Marein C.'
'Thomas, Sean M.'
'Scott, Brian L.'
'Pagliuso, Pascoal G.'
'Thompson, Joe D.'
'Schoop, Leslie M.'
'Ronning, Filip'
'Rosa, Priscila F. S.'
_publ_section_title
;
 Robust Narrow-Gap Semiconducting Behavior in Square-Net La3Cd2As6
;
_journal_name_full               'Chemistry of Materials'
_journal_paper_doi               10.1021/acs.chemmater.1c00797
_journal_year                    2021
_chemical_formula_sum            'As6 Cd2 Ce3'
_chemical_formula_weight         1094.7
_space_group_IT_number           12
_space_group_name_Hall           '-C 2y'
_space_group_name_H-M_alt        'C 1 2/m 1'
_symmetry_cell_setting           monoclinic
_symmetry_Int_Tables_number      12
_symmetry_space_group_name_Hall  '-C 2y'
_symmetry_space_group_name_H-M   'C 1 2/m 1'
_cell_angle_alpha                90.00(2)
_cell_angle_beta                 100.84(2)
_cell_angle_gamma                90.00(3)
_cell_formula_units_Z            4
_cell_length_a                   21.621(9)
_cell_length_b                   4.0634(14)
_cell_length_c                   12.224(2)
_cell_measurement_reflns_used    117
_cell_measurement_temperature    293
_cell_measurement_theta_max      27.41
_cell_measurement_theta_min      3.57
_cell_volume                     1054.8(6)
_computing_cell_refinement       'CrysAlisPro 1.171.39.46 (Rigaku OD, 2018)'
_computing_data_collection       'CrysAlisPro 1.171.39.46 (Rigaku OD, 2018)'
_computing_data_reduction        'CrysAlisPro 1.171.39.46 (Rigaku OD, 2018)'
_diffrn_ambient_temperature      293
_diffrn_detector                 'CCD plate'
_diffrn_measured_fraction_theta_full 0.98
_diffrn_measured_fraction_theta_max 0.93
_diffrn_measurement_device       'four-circle diffractometer'
_diffrn_measurement_device_type  'CrysAlisPro - imported SAXI images'
_diffrn_measurement_method       '\f scans'
_diffrn_radiation_monochromator  graphite
_diffrn_radiation_probe          x-ray
_diffrn_radiation_source         'X-ray tube'
_diffrn_radiation_type           'Mo K\a'
_diffrn_radiation_wavelength     0.71073
_diffrn_reflns_av_R_equivalents  0
_diffrn_reflns_av_unetI/netI     0.185
_diffrn_reflns_limit_h_max       29
_diffrn_reflns_limit_h_min       -29
_diffrn_reflns_limit_k_max       5
_diffrn_reflns_limit_k_min       -5
_diffrn_reflns_limit_l_max       16
_diffrn_reflns_limit_l_min       -16
_diffrn_reflns_number            4258
_diffrn_reflns_theta_full        28.68
_diffrn_reflns_theta_max         29.53
_diffrn_reflns_theta_min         1.7
_diffrn_source                   'fine-focus sealed X-ray tube'
_exptl_absorpt_coefficient_mu    35.261
_exptl_absorpt_correction_T_max  1
_exptl_absorpt_correction_T_min  0.506
_exptl_absorpt_correction_type   multi-scan
_exptl_absorpt_process_details
;
CrysAlisPro 1.171.39.46 (Rigaku Oxford Diffraction, 2018)
Empirical absorption correction using spherical harmonics,
 implemented in SCALE3 ABSPACK scaling algorithm.
;
_exptl_crystal_density_diffrn    6.8937
_exptl_crystal_description       platelet
_exptl_crystal_F_000             1872
_refine_ls_extinction_coef       191(13)
_refine_ls_extinction_method
'B-C type 1 Gaussian isotropic (Becker & Coppens, 1974)'
_refine_ls_goodness_of_fit_gt    3.61
_refine_ls_goodness_of_fit_ref   1.70
_refine_ls_number_constraints    0
_refine_ls_number_parameters     42
_refine_ls_number_reflns         4258
_refine_ls_number_restraints     0
_refine_ls_R_factor_all          0.2601
_refine_ls_R_factor_gt           0.0671
_refine_ls_shift/su_max          0.0483
_refine_ls_shift/su_mean         0.0171
_refine_ls_structure_factor_coef F
_refine_ls_weighting_details     w=1/(\s^2^(F)+0.0001F^2^)
_refine_ls_weighting_scheme      sigma
_refine_ls_wR_factor_gt          0.0854
_refine_ls_wR_factor_ref         0.0885
_reflns_number_gt                913
_reflns_number_total             4258
_reflns_threshold_expression     I>3\s(I)
_cod_data_source_file            cm1c00797_si_002.cif
_cod_data_source_block           I
_cod_depositor_comments
;
The following automatic conversions were performed:

data item '_diffrn_radiation_probe' value 'X-ray' was changed to
'x-ray' in accordance with the
/home/data/users/saulius/crontab/automatic-downloads/rss-feeds/ACS/lib/dictionaries/cif_core.dic
dictionary named 'cif_core.dic' version 2.4.2 last updated on
2011-04-26.

Automatic conversion script
Id: cif_fix_values 7556 2019-12-06 15:28:31Z antanas 
;
_cod_database_code               4003945
loop_
_space_group_symop_id
_space_group_symop_operation_xyz
1 x,y,z
2 -x,y,-z
3 -x,-y,-z
4 x,-y,z
5 x+1/2,y+1/2,z
6 -x+1/2,y+1/2,-z
7 -x+1/2,-y+1/2,-z
8 x+1/2,-y+1/2,z
loop_
_atom_site_label
_atom_site_type_symbol
_atom_site_fract_x
_atom_site_fract_y
_atom_site_fract_z
_atom_site_adp_type
_atom_site_U_iso_or_equiv
_atom_site_site_symmetry_multiplicity
_atom_site_occupancy
_atom_site_calc_flag
_atom_site_refinement_flags
_atom_site_disorder_assembly
_atom_site_disorder_group
Ce3 Ce 0.10831(12) 0 0.3686(3) Uani 0.0056(8) 4 1 d . . .
Ce1 Ce 0.10901(12) 0 0.0399(3) Uani 0.0067(9) 4 1 d . . .
Ce2 Ce 0.10917(12) 0 0.7046(3) Uani 0.0065(9) 4 1 d . . .
Cd1 Cd 0.2516(2) 0 0.8949(5) Uani 0.0124(5) 4 1 d . . .
Cd2 Cd 0.2516(2) 0 0.6024(5) Uani 0.0124(5) 4 1 d . . .
As2 As 0.34176(19) 0 0.7814(6) Uani 0.0052(14) 4 1 d . . .
As3 As 0.3340(2) 0 0.4458(6) Uani 0.0075 4 1 d . . .
As1 As 0.3343(2) 0 0.1130(6) Uani 0.0075 4 1 d . . .
As4 As 0 0.5 0 Uani 0.0075 2 1 d . . .
As6 As 0.4992(4) 0 0.3490(4) Uani 0.0075 4 1 d . . .
As5 As 0.9990(3) 0 0.1773(3) Uani 0.0075 4 1 d . . .
As7 As 0 0 0.5 Uani 0.0075 2 1 d . . .
loop_
_atom_site_aniso_label
_atom_site_aniso_type_symbol
_atom_site_aniso_U_11
_atom_site_aniso_U_22
_atom_site_aniso_U_33
_atom_site_aniso_U_12
_atom_site_aniso_U_13
_atom_site_aniso_U_23
Ce3 Ce 0.0050(15) 0.0107(16) 0.0008(10) 0 0 0
Ce1 Ce 0.0059(16) 0.0085(17) 0.0054(11) 0 0 0
Ce2 Ce 0.0069(16) 0.0113(17) 0.0011(11) 0 0 0
Cd1 Cd 0.0049(7) 0.0209(11) 0.0120(8) 0 0.0029(8) 0
Cd2 Cd 0.0049(7) 0.0209(11) 0.0120(8) 0 0.0029(8) 0
As2 As 0.006(2) 0.004(3) 0.006(2) 0 0.001(3) 0
As3 As 0.007218 0.003191 0.013191 0 0.005058 0
As1 As 0.007218 0.003191 0.013191 0 0.005058 0
As4 As 0.007218 0.003191 0.013191 0 0.005058 0
As6 As 0.007218 0.003191 0.013191 0 0.005058 0
As5 As 0.007218 0.003191 0.013191 0 0.005058 0
As7 As 0.007218 0.003191 0.013191 0 0.005058 0
loop_
_atom_type_symbol
_atom_type_scat_dispersion_real
_atom_type_scat_dispersion_imag
_atom_type_scat_source
As 0.0499 2.0058 'International Tables Vol C tables 4.2.6.8 and 6.1.1.1'
Cd -0.8075 1.2024 'International Tables Vol C tables 4.2.6.8 and 6.1.1.1'
Ce -0.2486 2.6331 'International Tables Vol C tables 4.2.6.8 and 6.1.1.1'
loop_
_diffrn_standard_refln_index_h
_diffrn_standard_refln_index_k
_diffrn_standard_refln_index_l
? ? ?
loop_
_exptl_crystal_face_index_h
_exptl_crystal_face_index_k
_exptl_crystal_face_index_l
_exptl_crystal_face_perp_dist
? ? ? ?
loop_
_geom_angle_atom_site_label_1
_geom_angle_atom_site_label_2
_geom_angle_atom_site_label_3
_geom_angle_site_symmetry_1
_geom_angle_site_symmetry_2
_geom_angle_site_symmetry_3
_geom_angle
_geom_angle_publ_flag
As2 Ce3 As2 6_546 . 6_556 83.03(16) ?
As2 Ce3 As3 6_546 . 6_546 82.29(15) ?
As2 Ce3 As3 6_546 . 6_556 136.68(15) ?
As2 Ce3 As6 6_546 . 5_445 82.38(14) ?
As2 Ce3 As6 6_546 . 5_455 137.70(18) ?
As2 Ce3 As5 6_546 . 1_455 81.26(15) ?
As2 Ce3 As7 6_546 . . 134.42(8) ?
As2 Ce3 As3 6_556 . 6_546 136.68(15) ?
As2 Ce3 As3 6_556 . 6_556 82.29(15) ?
As2 Ce3 As6 6_556 . 5_445 137.70(18) ?
As2 Ce3 As6 6_556 . 5_455 82.38(14) ?
As2 Ce3 As5 6_556 . 1_455 81.26(15) ?
As2 Ce3 As7 6_556 . . 134.42(8) ?
As3 Ce3 As3 6_546 . 6_556 81.09(14) ?
As3 Ce3 As6 6_546 . 5_445 79.82(12) ?
As3 Ce3 As6 6_546 . 5_455 132.7(2) ?
As3 Ce3 As5 6_546 . 1_455 135.67(9) ?
As3 Ce3 As7 6_546 . . 81.97(15) ?
As3 Ce3 As6 6_556 . 5_445 132.7(2) ?
As3 Ce3 As6 6_556 . 5_455 79.82(12) ?
As3 Ce3 As5 6_556 . 1_455 135.67(9) ?
As3 Ce3 As7 6_556 . . 81.97(15) ?
As6 Ce3 As6 5_445 . 5_455 82.29(16) ?
As6 Ce3 As5 5_445 . 1_455 57.37(12) ?
As6 Ce3 As7 5_445 . . 52.81(12) ?
As6 Ce3 As5 5_455 . 1_455 57.37(12) ?
As6 Ce3 As7 5_455 . . 52.81(12) ?
As5 Ce3 As7 1_455 . . 80.88(14) ?
As2 Ce1 As2 6_546 . 6_556 84.34(15) ?
As2 Ce1 As1 6_546 . 6_545 82.67(16) ?
As2 Ce1 As1 6_546 . 6_555 137.36(15) ?
As2 Ce1 As4 6_546 . 1_545 80.00(8) ?
As2 Ce1 As4 6_546 . . 135.39(17) ?
As2 Ce1 As5 6_546 . 1_455 79.27(15) ?
As2 Ce1 As1 6_556 . 6_545 137.36(15) ?
As2 Ce1 As1 6_556 . 6_555 82.67(16) ?
As2 Ce1 As4 6_556 . 1_545 135.39(17) ?
As2 Ce1 As4 6_556 . . 80.00(8) ?
As2 Ce1 As5 6_556 . 1_455 79.27(15) ?
As1 Ce1 As1 6_545 . 6_555 80.01(15) ?
As1 Ce1 As4 6_545 . 1_545 81.53(9) ?
As1 Ce1 As4 6_545 . . 134.49(17) ?
As1 Ce1 As5 6_545 . 1_455 136.82(9) ?
As1 Ce1 As4 6_555 . 1_545 134.49(17) ?
As1 Ce1 As4 6_555 . . 81.53(9) ?
As1 Ce1 As5 6_555 . 1_455 136.82(9) ?
As4 Ce1 As4 1_545 . . 82.54(7) ?
As4 Ce1 As5 1_545 . 1_455 56.92(7) ?
As4 Ce1 As5 . . 1_455 56.92(7) ?
Cd1 Ce2 As3 . . 6_546 89.81(14) ?
Cd1 Ce2 As3 . . 6_556 89.81(14) ?
Cd1 Ce2 As1 . . 6_546 48.73(10) ?
Cd1 Ce2 As1 . . 6_556 48.73(10) ?
Cd1 Ce2 As6 . . 6_546 133.04(12) ?
Cd1 Ce2 As6 . . 6_556 133.04(12) ?
Cd1 Ce2 As5 . . 2_656 110.64(18) ?
Cd1 Ce2 As7 . . . 168.43(17) ?
As3 Ce2 As3 6_546 . 6_556 80.59(15) ?
As3 Ce2 As1 6_546 . 6_546 81.49(16) ?
As3 Ce2 As1 6_546 . 6_556 134.54(15) ?
As3 Ce2 As6 6_546 . 6_546 79.32(15) ?
As3 Ce2 As6 6_546 . 6_556 131.95(18) ?
As3 Ce2 As5 6_546 . 2_656 135.64(9) ?
As3 Ce2 As7 6_546 . . 81.39(13) ?
As3 Ce2 As1 6_556 . 6_546 134.54(15) ?
As3 Ce2 As1 6_556 . 6_556 81.49(16) ?
As3 Ce2 As6 6_556 . 6_546 131.95(18) ?
As3 Ce2 As6 6_556 . 6_556 79.32(15) ?
As3 Ce2 As5 6_556 . 2_656 135.64(9) ?
As3 Ce2 As7 6_556 . . 81.39(13) ?
As1 Ce2 As1 6_546 . 6_556 82.10(15) ?
As1 Ce2 As6 6_546 . 6_546 84.37(12) ?
As1 Ce2 As6 6_546 . 6_556 140.3(2) ?
As1 Ce2 As5 6_546 . 2_656 83.71(16) ?
As1 Ce2 As7 6_546 . . 136.01(8) ?
As1 Ce2 As6 6_556 . 6_546 140.3(2) ?
As1 Ce2 As6 6_556 . 6_556 84.37(12) ?
As1 Ce2 As5 6_556 . 2_656 83.71(16) ?
As1 Ce2 As7 6_556 . . 136.01(8) ?
As6 Ce2 As6 6_546 . 6_556 82.62(16) ?
As6 Ce2 As5 6_546 . 2_656 57.71(14) ?
As6 Ce2 As7 6_546 . . 52.72(9) ?
As6 Ce2 As5 6_556 . 2_656 57.71(14) ?
As6 Ce2 As7 6_556 . . 52.72(9) ?
As5 Ce2 As7 2_656 . . 80.92(11) ?
Ce2 Cd1 As2 . . . 107.5(2) ?
Ce2 Cd1 As1 . . 6_546 58.01(15) ?
Ce2 Cd1 As1 . . 6_556 58.01(15) ?
As2 Cd1 As1 . . 6_546 123.6(2) ?
As2 Cd1 As1 . . 6_556 123.6(2) ?
As1 Cd1 As1 6_546 . 6_556 95.64(19) ?
As2 Cd2 As3 . . . 95.7(2) ?
As2 Cd2 As3 . . 6_546 122.8(2) ?
As2 Cd2 As3 . . 6_556 122.8(2) ?
As3 Cd2 As3 . . 6_546 109.7(2) ?
As3 Cd2 As3 . . 6_556 109.7(2) ?
As3 Cd2 As3 6_546 . 6_556 95.90(18) ?
Ce3 As2 Ce3 6_546 . 6_556 83.03(18) ?
Ce3 As2 Ce1 6_546 . 6_546 82.59(10) ?
Ce3 As2 Ce1 6_546 . 6_556 139.55(16) ?
Ce3 As2 Cd1 6_546 . . 134.72(9) ?
Ce3 As2 Cd2 6_546 . . 78.06(19) ?
Ce3 As2 Ce1 6_556 . 6_546 139.55(16) ?
Ce3 As2 Ce1 6_556 . 6_556 82.59(10) ?
Ce3 As2 Cd1 6_556 . . 134.72(9) ?
Ce3 As2 Cd2 6_556 . . 78.06(19) ?
Ce1 As2 Ce1 6_546 . 6_556 84.34(18) ?
Ce1 As2 Cd1 6_546 . . 79.2(2) ?
Ce1 As2 Cd2 6_546 . . 134.60(9) ?
Ce1 As2 Cd1 6_556 . . 79.2(2) ?
Ce1 As2 Cd2 6_556 . . 134.60(9) ?
Cd1 As2 Cd2 . . . 86.0(2) ?
Ce3 As3 Ce3 6_546 . 6_556 81.09(17) ?
Ce3 As3 Ce2 6_546 . 6_546 81.81(10) ?
Ce3 As3 Ce2 6_546 . 6_556 134.30(17) ?
Ce3 As3 Cd2 6_546 . . 74.16(18) ?
Ce3 As3 Cd2 6_546 . 6_546 80.52(13) ?
Ce3 As3 Cd2 6_546 . 6_556 143.2(3) ?
Ce3 As3 Ce2 6_556 . 6_546 134.30(17) ?
Ce3 As3 Ce2 6_556 . 6_556 81.81(10) ?
Ce3 As3 Cd2 6_556 . . 74.16(18) ?
Ce3 As3 Cd2 6_556 . 6_546 143.2(3) ?
Ce3 As3 Cd2 6_556 . 6_556 80.52(13) ?
Ce2 As3 Ce2 6_546 . 6_556 80.59(18) ?
Ce2 As3 Cd2 6_546 . . 139.11(9) ?
Ce2 As3 Cd2 6_546 . 6_546 73.54(15) ?
Ce2 As3 Cd2 6_546 . 6_556 132.6(3) ?
Ce2 As3 Cd2 6_556 . . 139.11(9) ?
Ce2 As3 Cd2 6_556 . 6_546 132.6(3) ?
Ce2 As3 Cd2 6_556 . 6_556 73.54(15) ?
Cd2 As3 Cd2 . . 6_546 70.26(19) ?
Cd2 As3 Cd2 . . 6_556 70.26(19) ?
Cd2 As3 Cd2 6_546 . 6_556 95.90(18) ?
Ce1 As1 Ce1 6_545 . 6_555 80.01(19) ?
Ce1 As1 Ce2 6_545 . 6_546 81.92(10) ?
Ce1 As1 Ce2 6_545 . 6_556 134.74(18) ?
Ce1 As1 Cd1 6_545 . 6_546 80.70(14) ?
Ce1 As1 Cd1 6_545 . 6_556 142.3(3) ?
Ce1 As1 Ce2 6_555 . 6_546 134.74(18) ?
Ce1 As1 Ce2 6_555 . 6_556 81.92(10) ?
Ce1 As1 Cd1 6_555 . 6_546 142.3(3) ?
Ce1 As1 Cd1 6_555 . 6_556 80.70(14) ?
Ce2 As1 Ce2 6_546 . 6_556 82.10(18) ?
Ce2 As1 Cd1 6_546 . 6_546 73.26(14) ?
Ce2 As1 Cd1 6_546 . 6_556 133.3(3) ?
Ce2 As1 Cd1 6_556 . 6_546 133.3(3) ?
Ce2 As1 Cd1 6_556 . 6_556 73.26(14) ?
Cd1 As1 Cd1 6_546 . 6_556 95.64(19) ?
Ce1 As4 Ce1 . . 1_565 82.54(5) ?
Ce1 As4 Ce1 . . 2_555 97.46(5) ?
Ce1 As4 Ce1 . . 2_565 180 ?
Ce1 As4 Ce1 1_565 . 2_555 180 ?
Ce1 As4 Ce1 1_565 . 2_565 97.46(5) ?
Ce1 As4 Ce1 2_555 . 2_565 82.54(5) ?
Ce3 As6 Ce3 5_545 . 5_555 82.3(2) ?
Ce3 As6 Ce2 5_545 . 6_546 97.01(6) ?
Ce3 As6 Ce2 5_545 . 6_556 172.2(2) ?
Ce3 As6 Ce2 5_555 . 6_546 172.2(2) ?
Ce3 As6 Ce2 5_555 . 6_556 97.01(6) ?
Ce2 As6 Ce2 6_546 . 6_556 82.6(2) ?
Ce3 As5 Ce1 1_655 . 1_655 81.54(19) ?
Ce3 As5 Ce2 1_655 . 2_656 101.44(16) ?
Ce1 As5 Ce2 1_655 . 2_656 177.02(19) ?
Ce3 As7 Ce3 . . 2_556 180 ?
Ce3 As7 Ce2 . . . 83.25(10) ?
Ce3 As7 Ce2 . . 2_556 96.75(10) ?
Ce3 As7 Ce2 2_556 . . 96.75(10) ?
Ce3 As7 Ce2 2_556 . 2_556 83.25(10) ?
Ce2 As7 Ce2 . . 2_556 180 ?
loop_
_geom_bond_atom_site_label_1
_geom_bond_atom_site_label_2
_geom_bond_site_symmetry_1
_geom_bond_site_symmetry_2
_geom_bond_distance
_geom_bond_publ_flag
Ce3 As2 . 6_546 3.065(6) ?
Ce3 As2 . 6_556 3.065(6) ?
Ce3 As3 . 6_546 3.125(6) ?
Ce3 As3 . 6_556 3.125(6) ?
Ce3 As6 . 5_445 3.088(7) ?
Ce3 As6 . 5_455 3.088(7) ?
Ce3 As5 . 1_455 2.995(6) ?
Ce3 As7 . . 3.079(4) ?
Ce1 As2 . 6_546 3.026(6) ?
Ce1 As2 . 6_556 3.026(6) ?
Ce1 As1 . 6_545 3.160(7) ?
Ce1 As1 . 6_555 3.160(7) ?
Ce1 As4 . 1_545 3.080(3) ?
Ce1 As4 . . 3.080(3) ?
Ce1 As5 . 1_455 3.159(8) ?
Ce2 Cd1 . . 3.493(6) ?
Ce2 As3 . 6_546 3.142(6) ?
Ce2 As3 . 6_556 3.142(6) ?
Ce2 As1 . 6_546 3.094(6) ?
Ce2 As1 . 6_556 3.094(6) ?
Ce2 As6 . 6_546 3.078(7) ?
Ce2 As6 . 6_556 3.078(7) ?
Ce2 As5 . 2_656 2.971(8) ?
Ce2 As7 . . 3.099(4) ?
Cd1 As2 . . 2.597(8) ?
Cd1 As1 . 6_546 2.742(5) ?
Cd1 As1 . 6_556 2.742(5) ?
Cd2 As2 . . 2.643(8) ?
Cd2 As3 . . 2.850(9) ?
Cd2 As3 . 6_546 2.736(5) ?
Cd2 As3 . 6_556 2.736(5) ?
loop_
_geom_hbond_atom_site_label_D
_geom_hbond_atom_site_label_H
_geom_hbond_atom_site_label_A
_geom_hbond_site_symmetry_D
_geom_hbond_site_symmetry_H
_geom_hbond_site_symmetry_A
_geom_hbond_distance_DH
_geom_hbond_distance_HA
_geom_hbond_distance_DA
_geom_hbond_angle_DHA
_geom_hbond_publ_flag
? ? ? ? ? ? ? ? ? ? ?
loop_
_geom_torsion_atom_site_label_1
_geom_torsion_atom_site_label_2
_geom_torsion_atom_site_label_3
_geom_torsion_atom_site_label_4
_geom_torsion_site_symmetry_1
_geom_torsion_site_symmetry_2
_geom_torsion_site_symmetry_3
_geom_torsion_site_symmetry_4
_geom_torsion
_geom_torsion_publ_flag
? ? ? ? ? ? ? ? ? ?
loop_
_twin_individual_id
_twin_individual_mass_fraction_refined
_twin_individual_twin_matrix_11
_twin_individual_twin_matrix_12
_twin_individual_twin_matrix_13
_twin_individual_twin_matrix_21
_twin_individual_twin_matrix_22
_twin_individual_twin_matrix_23
_twin_individual_twin_matrix_31
_twin_individual_twin_matrix_32
_twin_individual_twin_matrix_33
1 0.410(5) 1 0 0 0 1 0 0 0 1
2 0.291(3) 1.0013 0 -0.0002 0 -0.9997 0.0009 0.6636 0 -0.9995
3 0.136(3) 0.9998 0 0.0004 -0.998 -0.003 3.0044 0.3351 -0.3321 -0.0019
4 0.162(3) 0.9992 0.0001 0.0006 0.9881 0.0029 -3.0035 0.3332 0.3319 0.0024
loop_
_twin_refln_datum_id
_twin_refln_individual_id
_twin_refln_index_h
_twin_refln_index_k
_twin_refln_index_l
_twin_refln_F_squared_calc
_twin_refln_F_squared_meas
_twin_refln_F_squared_sigma
_twin_refln_include_status
1 1 -28 0 1 7. 931. 7323. <
2 1 -26 0 1 2. -821. 5151. <
3 1 -24 0 1 3077. 1933. 3917. <
4 1 -22 0 1 1316. 1452. 3210. <
5 1 -20 0 1 615. 284. 2543. <
6 1 -18 0 1 1634. 1747. 2086. <
7 1 -16 0 1 11. 382. 1640. <
8 1 -14 0 1 245. 149. 1200. <
9 1 -12 0 1 3381. 1915. 922. <
10 1 -10 0 1 105. 143. 1274. <
11 1 -8 0 1 245. -117. 635. <
12 1 -6 0 1 658. 701. 432. <
13 1 -4 0 1 171. 34. 303. <
14 1 -2 0 1 6. 121. 183. <
15 1 2 0 1 300. 21. 195. <
16 1 4 0 1 424. 58. 372. <
17 1 6 0 1 88. 792. 737. <
18 1 8 0 1 81. 338. 690. <
19 1 10 0 1 1364. 328. 828. <
20 1 12 0 1 859. 580. 1168. <
21 1 14 0 1 209. -46. 1276. <
22 1 16 0 1 215. -19. 1515. <
23 1 18 0 1 625. 1839. 2151. <
24 1 20 0 1 395. 103. 2847. <
25 1 22 0 1 3345. 2390. 3755. <
26 1 24 0 1 1606. 1396. 4847. <
27 1 26 0 1 190. -188. 5790. <
28 1 -29 1 1 2968. 2029. 9334. <
29 1 -27 1 1 271. 1740. 4512. <
30 1 -25 1 1 644. 647. 3174. <
31 1 -23 1 1 4707. 4196. 2635. <
32 1 -21 1 1 9689. 11727. 2600. o
33 1 -19 1 1 8508. 10273. 2153. o
34 1 -17 1 1 4974. 6033. 1529. o
35 1 -15 1 1 2822. 3785. 1263. <
36 1 -13 1 1 4487. 5155. 1009. o
37 1 -11 1 1 12112. 11410. 796. o
38 1 -9 1 1 18019. 17978. 750. o
39 1 -7 1 1 15320. 14799. 634. o
40 1 -5 1 1 12064. 11639. 437. o
41 1 -3 1 1 14253. 12909. 443. o
42 1 -1 1 1 15076. 15511. 510. o
43 1 1 1 1 15710. 14826. 358. o
44 1 3 1 1 13486. 12009. 368. o
45 1 5 1 1 13203. 11632. 499. o
46 1 7 1 1 14676. 15254. 633. o
47 1 9 1 1 18200. 16042. 706. o
48 1 11 1 1 9464. 9585. 837. o
49 1 13 1 1 2696. 2880. 1058. <
50 1 15 1 1 2410. 3422. 1540. <
51 1 17 1 1 8292. 8146. 1608. o
52 1 19 1 1 9692. 11047. 2035. o
53 1 21 1 1 6585. 6544. 2320. <
54 1 23 1 1 2567. 2596. 3239. <
55 1 25 1 1 705. 1659. 4731. <
56 1 -26 2 1 1. -1199. 7608. <
57 1 -24 2 1 2523. 251. 3565. <
58 1 -22 2 1 992. 585. 2757. <
59 1 -20 2 1 432. 24. 2117. <
60 1 -18 2 1 1311. 1160. 1527. <
61 1 -16 2 1 5. 251. 1390. <
62 1 -14 2 1 128. 138. 1406. <
63 1 -12 2 1 2403. 966. 1163. <
64 1 -10 2 1 81. 227. 933. <
65 1 -8 2 1 140. -72. 724. <
66 1 -6 2 1 492. 148. 598. <
67 1 -4 2 1 105. -112. 611. <
68 1 -2 2 1 2. 36. 540. <
69 1 0 2 1 47. 26. 610. <
70 1 2 2 1 167. -19. 472. <
71 1 4 2 1 311. -93. 547. <
72 1 6 2 1 60. 364. 682. <
73 1 8 2 1 63. 23. 722. <
74 1 10 2 1 915. 147. 981. <
75 1 12 2 1 569. 211. 1457. <
76 1 14 2 1 151. 9. 1263. <
77 1 16 2 1 187. 232. 1395. <
78 1 18 2 1 566. 924. 1956. <
79 1 20 2 1 297. 667. 2397. <
80 1 22 2 1 2722. 617. 3109. <
81 1 24 2 1 1251. 139. 9158. <
82 1 26 2 1 191. -515. 7907. <
83 1 -23 3 1 2457. 1100. 7114. <
84 1 -21 3 1 5443. 6957. 3462. <
85 1 -19 3 1 4763. 6354. 3535. <
86 1 -17 3 1 2284. 1938. 2286. <
87 1 -15 3 1 931. 1830. 2624. <
88 1 -13 3 1 1719. 1775. 1903. <
89 1 -11 3 1 5190. 5119. 1502. o
90 1 -9 3 1 7106. 9300. 1352. o
91 1 -7 3 1 5575. 6487. 1276. o
92 1 -5 3 1 4171. 5232. 1262. o
93 1 -3 3 1 4449. 5483. 880. o
94 1 -1 3 1 4333. 5122. 1118. o
95 1 1 3 1 5000. 5542. 1074. o
96 1 3 3 1 4463. 4855. 1180. o
97 1 5 3 1 4321. 4294. 1012. o
98 1 7 3 1 5423. 5198. 1235. o
99 1 9 3 1 7953. 7930. 1334. o
100 1 11 3 1 3856. 4622. 1776. <
101 1 13 3 1 793. 559. 2633. <
102 1 15 3 1 915. 1375. 2810. <
103 1 17 3 1 4426. 5297. 2793. <
104 1 19 3 1 5219. 6164. 2899. <
105 1 21 3 1 3568. 564. 6159. <
106 1 23 3 1 1405. 2776. 11394. <
107 1 -18 4 1 718. 1322. 5823. <
108 1 -14 4 1 17. -584. 3697. <
109 1 -12 4 1 1107. 1331. 3830. <
110 1 -10 4 1 58. -970. 3656. <
111 1 -8 4 1 45. -284. 2683. <
112 1 -6 4 1 334. -343. 2158. <
113 1 -4 4 1 55. -374. 1810. <
114 1 -2 4 1 0. -147. 3498. <
115 1 0 4 1 6. 1606. 2825. <
116 1 2 4 1 72. 524. 3818. <
117 1 4 4 1 226. -158. 2382. <
118 1 6 4 1 29. 605. 2231. <
119 1 8 4 1 48. 824. 4528. <
120 1 10 4 1 375. 594. 2412. <
121 1 12 4 1 203. 810. 5970. <
122 1 14 4 1 77. 305. 7451. <
123 1 16 4 1 119. -1184. 7585. <
124 1 -7 5 1 1441. -65. 6819. <
125 1 1 5 1 1213. 1244. 3590. <
126 1 7 5 1 1389. 2195. 8047. <
127 1 -28 0 2 2580. 1816. 11067. <
128 1 -26 0 2 3046. 3546. 5442. <
129 1 -24 0 2 1319. -304. 4259. <
130 1 -22 0 2 11. 362. 4539. <
131 1 -20 0 2 4. -113. 2491. <
132 1 -18 0 2 410. 257. 2124. <
133 1 -16 0 2 4615. 3998. 1712. <
134 1 -14 0 2 4901. 5301. 1234. o
135 1 -12 0 2 2383. 1401. 1573. <
136 1 -10 0 2 252. 481. 698. <
137 1 -8 0 2 1155. 1093. 599. <
138 1 -6 0 2 2996. 2277. 475. o
139 1 -4 0 2 6401. 6966. 486. o
140 1 -2 0 2 3116. 3702. 196. o
141 1 2 0 2 4491. 5146. 309. o
142 1 4 0 2 5992. 5098. 458. o
143 1 6 0 2 973. 758. 553. <
144 1 8 0 2 489. 190. 751. <
145 1 10 0 2 1337. 1952. 990. <
146 1 12 0 2 4457. 3622. 1210. <
147 1 14 0 2 3321. 3504. 1398. <
148 1 16 0 2 2360. 2278. 2937. <
149 1 18 0 2 142. 232. 2297. <
150 1 20 0 2 36. 338. 2492. <
151 1 22 0 2 141. 242. 3695. <
152 1 24 0 2 3873. 5549. 4966. <
153 1 -27 1 2 126. -1802. 6625. <
154 1 -25 1 2 2. -247. 3214. <
155 1 -23 1 2 2853. 2652. 3756. <
156 1 -21 1 2 276. 58. 2285. <
157 1 -19 1 2 367. 972. 1878. <
158 1 -17 1 2 3507. 1653. 1465. <
159 1 -15 1 2 260. -107. 1145. <
160 1 -13 1 2 3. 95. 1009. <
161 1 -11 1 2 1555. 472. 759. <
162 1 -9 1 2 919. 41. 780. <
163 1 -7 1 2 9. 172. 456. <
164 1 -5 1 2 1315. 111. 427. <
165 1 -3 1 2 336. -15. 357. <
166 1 -1 1 2 544. 9. 270. <
167 1 1 1 2 512. -28. 244. <
168 1 3 1 2 155. 142. 288. <
169 1 5 1 2 717. 41. 389. <
170 1 7 1 2 2. 491. 482. <
171 1 9 1 2 97. 149. 639. <
172 1 11 1 2 1587. 1104. 805. <
173 1 13 1 2 46. 566. 1024. <
174 1 15 1 2 710. 2040. 1327. <
175 1 17 1 2 2433. 1011. 1599. <
176 1 19 1 2 0. 157. 2039. <
177 1 21 1 2 475. 1351. 2488. <
178 1 23 1 2 373. 33. 3038. <
179 1 25 1 2 32. -321. 5221. <
180 1 -26 2 2 2402. 1076. 4553. <
181 1 -24 2 2 966. -33. 3399. <
182 1 -22 2 2 5. -244. 2594. <
183 1 -20 2 2 6. -143. 1952. <
184 1 -18 2 2 222. -217. 1616. <
185 1 -16 2 2 3239. 2149. 1554. <
186 1 -14 2 2 3483. 4298. 1250. o
187 1 -12 2 2 1487. 939. 1220. <
188 1 -10 2 2 73. 206. 852. <
189 1 -8 2 2 595. 357. 761. <
190 1 -6 2 2 1640. 1327. 641. <
191 1 -4 2 2 3289. 2378. 686. o
192 1 -2 2 2 1482. 2019. 822. <
193 1 0 2 2 1833. 1206. 594. <
194 1 2 2 2 2304. 2356. 514. o
195 1 4 2 2 3126. 2155. 492. o
196 1 6 2 2 472. 558. 717. <
197 1 8 2 2 246. 152. 837. <
198 1 10 2 2 720. 1143. 1183. <
199 1 12 2 2 2945. 3472. 1157. <
200 1 14 2 2 2387. 1975. 1259. <
201 1 16 2 2 1663. 2058. 1554. <
202 1 18 2 2 59. 339. 1995. <
203 1 20 2 2 47. 497. 2363. <
204 1 22 2 2 103. -237. 5368. <
205 1 24 2 2 3025. 5180. 6253. <
206 1 -23 3 2 2117. 2032. 4911. <
207 1 -21 3 2 161. -1449. 3788. <
208 1 -19 3 2 253. -187. 2883. <
209 1 -17 3 2 2143. 926. 2356. <
210 1 -15 3 2 210. -432. 2192. <
211 1 -13 3 2 4. 367. 2223. <
212 1 -11 3 2 914. 63. 2406. <
213 1 -9 3 2 401. -369. 1490. <
214 1 -7 3 2 11. 158. 963. <
215 1 -5 3 2 777. 109. 1065. <
216 1 -3 3 2 179. -383. 934. <
217 1 -1 3 2 202. -335. 1193. <
218 1 1 3 2 221. 121. 937. <
219 1 3 3 2 101. 241. 944. <
220 1 5 3 2 453. -80. 875. <
221 1 7 3 2 1. 148. 1160. <
222 1 9 3 2 22. 50. 1410. <
223 1 11 3 2 967. 281. 1622. <
224 1 13 3 2 13. -550. 2694. <
225 1 15 3 2 402. 2207. 4023. <
226 1 17 3 2 1427. 776. 2501. <
227 1 19 3 2 0. -1409. 5271. <
228 1 23 3 2 320. -1980. 10955. <
229 1 -16 4 2 1360. 650. 4165. <
230 1 -14 4 2 1626. 976. 7416. <
231 1 -12 4 2 521. -1179. 2886. <
232 1 -10 4 2 4. -757. 5539. <
233 1 -8 4 2 140. 849. 2517. <
234 1 -6 4 2 515. 1475. 2418. <
235 1 -4 4 2 916. 1389. 2806. <
236 1 -2 4 2 345. -530. 1815. <
237 1 0 4 2 630. -511. 2247. <
238 1 2 4 2 673. 1410. 1927. <
239 1 4 4 2 830. 953. 1752. <
240 1 6 4 2 89. 492. 3368. <
241 1 8 4 2 58. -739. 2762. <
242 1 10 4 2 161. 812. 3059. <
243 1 14 4 2 1116. 3292. 7328. <
244 1 16 4 2 707. 1370. 8681. <
245 1 -5 5 2 434. 147. 7755. <
246 1 -3 5 2 82. 1093. 4922. <
247 1 -1 5 2 48. -654. 6436. <
248 1 5 5 2 259. -1869. 8934. <
249 1 9 5 2 0. 227. 9718. <
250 1 -28 0 4 11634. 9258. 7041. <
251 1 -26 0 4 11546. 10889. 5825. <
252 1 -24 0 4 5780. 6546. 4392. <
253 1 -22 0 4 4172. 4842. 3413. <
254 1 -20 0 4 5478. 4854. 2646. <
255 1 -18 0 4 12224. 13610. 2242. o
256 1 -16 0 4 23059. 23040. 2714. o
257 1 -14 0 4 23270. 26918. 1646. o
258 1 -12 0 4 14337. 15700. 1294. o
259 1 -10 0 4 13780. 15400. 1443. o
260 1 -8 0 4 24300. 27581. 1338. o
261 1 -6 0 4 28562. 32637. 802. o
262 1 -4 0 4 30353. 29970. 543. o
263 1 -2 0 4 32279. 36330. 457. o
264 1 0 0 4 33361. 30592. 622. o
265 1 2 0 4 26132. 25776. 542. o
266 1 4 0 4 28529. 30036. 804. o
267 1 6 0 4 20735. 23415. 930. o
268 1 8 0 4 13247. 14379. 1000. o
269 1 10 0 4 13581. 15405. 1272. o
270 1 12 0 4 26932. 25606. 2503. o
271 1 14 0 4 19374. 20713. 1879. o
272 1 16 0 4 7621. 6235. 1809. o
273 1 18 0 4 3481. 2195. 2553. <
274 1 20 0 4 6147. 6829. 3804. <
275 1 22 0 4 6502. 5735. 4014. <
276 1 -27 1 4 35. -521. 4622. <
277 1 -25 1 4 316. -783. 3631. <
278 1 -23 1 4 1496. 1479. 2918. <
279 1 -21 1 4 3481. -36. 2049. <
280 1 -19 1 4 963. 1539. 1695. <
281 1 -17 1 4 5187. 1785. 1663. <
282 1 -15 1 4 620. 14. 1228. <
283 1 -13 1 4 1049. 190. 1067. <
284 1 -11 1 4 1126. 497. 852. <
285 1 -9 1 4 3434. 160. 634. <
286 1 -7 1 4 7. 763. 511. <
287 1 -5 1 4 3393. 155. 486. <
288 1 -3 1 4 1671. 217. 373. <
289 1 -1 1 4 2079. 39. 338. <
290 1 1 1 4 337. 536. 249. <
291 1 3 1 4 230. 457. 305. <
292 1 5 1 4 3003. 316. 412. <
293 1 7 1 4 1016. 72. 593. <
294 1 9 1 4 75. 667. 728. <
295 1 11 1 4 600. 157. 913. <
296 1 13 1 4 705. 72. 1140. <
297 1 15 1 4 176. 1291. 1473. <
298 1 17 1 4 4045. 1054. 1752. <
299 1 19 1 4 2. 441. 3348. <
300 1 21 1 4 425. 2555. 2758. <
301 1 -26 2 4 8766. 7389. 5866. <
302 1 -24 2 4 4253. 4347. 3548. <
303 1 -22 2 4 2836. 2982. 2643. <
304 1 -20 2 4 3524. 3351. 2883. <
305 1 -18 2 4 8350. 8404. 1674. o
306 1 -16 2 4 16050. 15807. 1585. o
307 1 -14 2 4 15252. 16394. 1562. o
308 1 -12 2 4 8514. 10518. 1274. o
309 1 -10 2 4 7947. 8357. 1142. o
310 1 -8 2 4 14023. 15539. 1147. o
311 1 -6 2 4 15752. 14772. 706. o
312 1 -4 2 4 16704. 14888. 885. o
313 1 -2 2 4 17860. 17621. 737. o
314 1 0 2 4 18152. 19353. 677. o
315 1 2 2 4 14066. 15858. 635. o
316 1 4 2 4 16431. 17489. 749. o
317 1 6 2 4 11987. 13874. 1063. o
318 1 8 2 4 7485. 9543. 944. o
319 1 10 2 4 8307. 9928. 1269. o
320 1 12 2 4 18509. 20792. 1345. o
321 1 14 2 4 13284. 10136. 1517. o
322 1 16 2 4 4980. 5242. 1876. <
323 1 18 2 4 2288. 2928. 2096. <
324 1 20 2 4 4425. 3744. 4908. <
325 1 -25 3 4 137. 506. 9817. <
326 1 -21 3 4 2210. -157. 3071. <
327 1 -19 3 4 461. 1092. 2994. <
328 1 -17 3 4 3015. 35. 3500. <
329 1 -15 3 4 418. -53. 2679. <
330 1 -13 3 4 531. 108. 2052. <
331 1 -11 3 4 931. 13. 1419. <
332 1 -9 3 4 1826. -99. 1390. <
333 1 -7 3 4 2. 115. 1357. <
334 1 -5 3 4 1636. 418. 1115. <
335 1 -3 3 4 1019. 207. 946. <
336 1 -1 3 4 1153. 537. 1314. <
337 1 1 3 4 204. -105. 933. <
338 1 3 3 4 89. 266. 967. <
339 1 5 3 4 1638. -106. 1255. <
340 1 7 3 4 718. 136. 1381. <
341 1 9 3 4 43. 398. 1796. <
342 1 11 3 4 372. -413. 2501. <
343 1 13 3 4 366. 570. 2355. <
344 1 15 3 4 81. 97. 5520. <
345 1 19 3 4 3. -206. 6064. <
346 1 -16 4 4 6759. 7987. 4422. <
347 1 -14 4 4 5596. 6578. 3626. <
348 1 -12 4 4 2482. 5358. 2641. <
349 1 -10 4 4 2339. 3249. 2389. <
350 1 -8 4 4 4269. 4280. 2469. <
351 1 -6 4 4 4309. 4801. 2043. <
352 1 -4 4 4 4874. 6092. 2938. <
353 1 0 4 4 5223. 6504. 1924. o
354 1 2 4 4 3710. 5179. 1956. <
355 1 4 4 4 5165. 6832. 5093. <
356 1 6 4 4 3632. 5385. 2343. <
357 1 8 4 4 1931. 1591. 5775. <
358 1 16 4 4 1626. 844. 9980. <
359 1 -7 5 4 2. 79. 4219. <
360 1 5 5 4 688. -1333. 9353. <
361 1 9 5 4 22. -2233. 10313. <
362 1 -28 0 5 2180. -489. 7645. <
363 1 -26 0 5 2298. -441. 5436. <
364 1 -24 0 5 0. 384. 4119. <
365 1 -22 0 5 1797. 1694. 3660. <
366 1 -20 0 5 4636. 1413. 2784. <
367 1 -18 0 5 0. 485. 3155. <
368 1 -16 0 5 2157. 113. 1773. <
369 1 -14 0 5 5411. 1292. 1456. <
370 1 -12 0 5 761. 399. 1542. <
371 1 -10 0 5 1069. 34. 1341. <
372 1 -8 0 5 3973. 209. 667. <
373 1 -6 0 5 2120. 52. 464. <
374 1 -4 0 5 3338. 133. 313. <
375 1 -2 0 5 1783. -24. 304. <
376 1 0 0 5 1325. 102. 289. <
377 1 2 0 5 2273. 1. 388. <
378 1 4 0 5 1840. 69. 555. <
379 1 6 0 5 2891. 195. 745. <
380 1 8 0 5 854. 323. 924. <
381 1 10 0 5 14. 1940. 1908. <
382 1 12 0 5 2674. 196. 1411. <
383 1 14 0 5 3465. 837. 1651. <
384 1 16 0 5 323. 801. 1959. <
385 1 18 0 5 226. -73. 2521. <
386 1 20 0 5 1797. 205. 3333. <
387 1 -27 1 5 2715. 450. 4350. <
388 1 -25 1 5 150. 1188. 4137. <
389 1 -23 1 5 33. 6. 2846. <
390 1 -21 1 5 804. 55. 2127. <
391 1 -19 1 5 406. 167. 1861. <
392 1 -17 1 5 773. 1704. 1494. <
393 1 -15 1 5 2612. 1736. 1352. <
394 1 -13 1 5 97. 589. 1039. <
395 1 -11 1 5 98. 127. 814. <
396 1 -9 1 5 369. 36. 635. <
397 1 -7 1 5 1266. 464. 580. <
398 1 -5 1 5 881. 1557. 664. <
399 1 -3 1 5 1058. 349. 345. <
400 1 -1 1 5 57. 18. 201. <
401 1 1 1 5 2241. 1856. 245. o
402 1 3 1 5 758. 868. 340. <
403 1 5 1 5 126. 4. 439. <
404 1 7 1 5 493. 20. 603. <
405 1 9 1 5 849. 590. 814. <
406 1 11 1 5 535. 1110. 998. <
407 1 13 1 5 1339. 831. 1253. <
408 1 15 1 5 343. 593. 1542. <
409 1 17 1 5 116. 108. 2181. <
410 1 19 1 5 1109. 595. 2337. <
411 1 -26 2 5 1906. -1629. 5650. <
412 1 -24 2 5 1. 904. 3314. <
413 1 -22 2 5 1499. 456. 3516. <
414 1 -20 2 5 3805. 1420. 2522. <
415 1 -18 2 5 0. 527. 1824. <
416 1 -16 2 5 1637. 249. 1653. <
417 1 -14 2 5 4134. 1223. 1575. <
418 1 -12 2 5 594. 43. 1287. <
419 1 -10 2 5 896. 84. 997. <
420 1 -8 2 5 2872. 167. 1034. <
421 1 -6 2 5 1421. -23. 612. <
422 1 -4 2 5 2315. 11. 726. <
423 1 -2 2 5 1345. 225. 824. <
424 1 0 2 5 978. 53. 658. <
425 1 2 2 5 1569. -43. 790. <
426 1 4 2 5 1242. 20. 676. <
427 1 6 2 5 2165. 35. 851. <
428 1 8 2 5 733. -6. 881. <
429 1 10 2 5 9. 1289. 1100. <
430 1 12 2 5 1991. 6. 1323. <
431 1 14 2 5 2704. 1089. 1579. <
432 1 16 2 5 229. 998. 1761. <
433 1 18 2 5 198. -1008. 4359. <
434 1 -23 3 5 25. -367. 5442. <
435 1 -21 3 5 561. -675. 3489. <
436 1 -19 3 5 183. 10. 4290. <
437 1 -17 3 5 404. 228. 2849. <
438 1 -15 3 5 1654. 1458. 2607. <
439 1 -13 3 5 34. -850. 2783. <
440 1 -11 3 5 15. -432. 1866. <
441 1 -9 3 5 271. -46. 1405. <
442 1 -7 3 5 656. 40. 1419. <
443 1 -5 3 5 311. 384. 1266. <
444 1 -3 3 5 443. 298. 1271. <
445 1 -1 3 5 33. -69. 1117. <
446 1 1 3 5 1077. 554. 1437. <
447 1 3 3 5 242. 28. 1377. <
448 1 5 3 5 46. -87. 1681. <
449 1 7 3 5 310. 407. 1734. <
450 1 9 3 5 388. 569. 2186. <
451 1 11 3 5 244. 426. 1994. <
452 1 13 3 5 864. 1312. 3261. <
453 1 17 3 5 34. -589. 5613. <
454 1 -20 4 5 2301. -578. 6925. <
455 1 -16 4 5 806. -738. 5266. <
456 1 -14 4 5 2093. 703. 4453. <
457 1 -12 4 5 338. -1763. 3928. <
458 1 -10 4 5 595. -2200. 3549. <
459 1 -8 4 5 1385. 154. 1960. <
460 1 -6 4 5 580. 427. 3872. <
461 1 -4 4 5 1116. 138. 2663. <
462 1 0 4 5 532. 254. 2221. <
463 1 2 4 5 710. -537. 2457. <
464 1 4 4 5 518. -581. 3008. <
465 1 10 4 5 4. 552. 4718. <
466 1 -9 5 5 147. -1840. 8613. <
467 1 -3 5 5 128. 1899. 7786. <
468 1 -26 0 7 8468. 2131. 5681. <
469 1 -24 0 7 795. 1323. 4613. <
470 1 -22 0 7 3001. 410. 4825. <
471 1 -20 0 7 2571. 1039. 2751. <
472 1 -18 0 7 3367. 44. 2314. <
473 1 -16 0 7 43. -436. 2610. <
474 1 -14 0 7 7817. 1455. 1947. <
475 1 -12 0 7 47. 590. 1131. <
476 1 -10 0 7 5219. -53. 893. <
477 1 -8 0 7 3229. 748. 1107. <
478 1 -6 0 7 3604. -8. 553. <
479 1 -4 0 7 241. 717. 383. <
480 1 -2 0 7 3621. 39. 348. <
481 1 0 0 7 3220. 292. 255. <
482 1 2 0 7 4573. 174. 416. <
483 1 4 0 7 219. 506. 633. <
484 1 6 0 7 816. 418. 833. <
485 1 8 0 7 3824. 381. 1115. <
486 1 10 0 7 559. 514. 1409. <
487 1 12 0 7 1705. -210. 1517. <
488 1 14 0 7 916. 281. 1728. <
489 1 16 0 7 0. 1057. 2390. <
490 1 -25 1 7 7974. 7620. 3674. <
491 1 -23 1 7 13617. 14293. 2880. o
492 1 -21 1 7 13823. 14621. 2472. o
493 1 -19 1 7 11956. 11555. 2679. o
494 1 -17 1 7 5311. 6147. 1683. o
495 1 -15 1 7 9232. 7130. 1099. o
496 1 -13 1 7 20173. 19593. 1233. o
497 1 -11 1 7 25141. 23648. 1424. o
498 1 -9 1 7 16761. 15968. 749. o
499 1 -7 1 7 19303. 18900. 639. o
500 1 -5 1 7 21582. 22182. 504. o
501 1 -3 1 7 18594. 16983. 745. o
502 1 -1 1 7 18560. 18164. 884. o
503 1 1 1 7 22676. 22448. 970. o
504 1 3 1 7 18227. 18770. 547. o
505 1 5 1 7 16267. 16167. 885. o
506 1 7 1 7 23354. 25232. 854. o
507 1 9 1 7 17642. 17416. 1017. o
508 1 11 1 7 6054. 4034. 1127. o
509 1 13 1 7 5159. 4428. 1414. o
510 1 15 1 7 13991. 14930. 2016. o
511 1 17 1 7 13703. 12137. 3573. o
512 1 -24 2 7 569. 235. 4650. <
513 1 -22 2 7 2278. -749. 3184. <
514 1 -20 2 7 2185. 555. 2867. <
515 1 -18 2 7 2568. -123. 2379. <
516 1 -16 2 7 74. 333. 1709. <
517 1 -14 2 7 5879. 215. 1788. <
518 1 -12 2 7 48. 608. 1447. <
519 1 -10 2 7 3780. -133. 1067. <
520 1 -8 2 7 2714. 572. 906. <
521 1 -6 2 7 2627. 20. 716. <
522 1 -4 2 7 214. 265. 761. <
523 1 -2 2 7 2534. 58. 759. <
524 1 0 2 7 2486. 437. 602. <
525 1 2 2 7 3525. 407. 699. <
526 1 4 2 7 184. 680. 704. <
527 1 6 2 7 592. 868. 884. <
528 1 8 2 7 2936. 276. 1192. <
529 1 10 2 7 485. 9. 1299. <
530 1 12 2 7 1366. -100. 1605. <
531 1 14 2 7 759. 133. 1993. <
532 1 -21 3 7 7958. 7983. 5278. <
533 1 -19 3 7 6265. 6580. 4698. <
534 1 -17 3 7 2160. 2848. 3198. <
535 1 -15 3 7 4245. 6056. 2840. <
536 1 -13 3 7 9950. 10919. 2077. o
537 1 -11 3 7 11754. 9189. 3917. <
538 1 -9 3 7 7162. 8066. 1629. o
539 1 -7 3 7 8533. 8448. 1328. o
540 1 -5 3 7 9070. 12556. 1598. o
541 1 -3 3 7 7228. 2161. 1128. <
542 1 -1 3 7 7639. 1704. 1260. <
543 1 1 3 7 10008. 1553. 1231. <
544 1 3 3 7 7635. 7964. 1883. o
545 1 5 3 7 7019. 7615. 1986. o
546 1 7 3 7 11562. 14757. 4452. o
547 1 9 3 7 8584. 8547. 2757. o
548 1 11 3 7 2449. 2842. 2839. <
549 1 13 3 7 2341. 3630. 3827. <
550 1 -12 4 7 33. 58. 6469. <
551 1 -10 4 7 1763. 114. 3461. <
552 1 -8 4 7 1741. -914. 3062. <
553 1 4 4 7 117. -377. 6337. <
554 1 6 4 7 249. -628. 6744. <
555 1 -24 0 8 7572. 5067. 6445. <
556 1 -22 0 8 3776. 6168. 3665. <
557 1 -20 0 8 3774. 1937. 2930. <
558 1 -18 0 8 205. 1802. 3083. <
559 1 -16 0 8 3481. 1181. 1857. <
560 1 -14 0 8 1111. 2388. 1532. <
561 1 -12 0 8 8824. 6027. 1299. o
562 1 -10 0 8 5278. 6998. 1439. o
563 1 -8 0 8 7439. 3424. 756. o
564 1 -6 0 8 363. 1826. 642. <
565 1 -4 0 8 8406. 6478. 465. o
566 1 -2 0 8 5371. 7316. 398. o
567 1 0 0 8 5244. 2606. 326. o
568 1 2 0 8 450. 3111. 716. o
569 1 4 0 8 10526. 8703. 723. o
570 1 6 0 8 5462. 6620. 954. o
571 1 8 0 8 4201. 2710. 1233. <
572 1 10 0 8 640. 868. 1408. <
573 1 12 0 8 3655. 1649. 1541. <
574 1 14 0 8 419. 825. 2025. <
575 1 -25 1 8 6485. 997. 4565. <
576 1 -23 1 8 354. -21. 2920. <
577 1 -21 1 8 1510. 57. 3494. <
578 1 -19 1 8 5006. 1345. 1849. <
579 1 -17 1 8 3584. -312. 1514. <
580 1 -15 1 8 43. 1085. 1440. <
581 1 -13 1 8 7076. 411. 1462. <
582 1 -11 1 8 4110. 395. 877. <
583 1 -9 1 8 3460. 87. 734. <
584 1 -7 1 8 1752. -3. 572. <
585 1 -5 1 8 3211. 21. 320. <
586 1 -3 1 8 3430. -289. 1241. <
587 1 -1 1 8 5670. 200. 722. <
588 1 1 1 8 2154. 129. 1430. <
589 1 3 1 8 1870. 57. 1009. <
590 1 5 1 8 1009. 178. 526. <
591 1 7 1 8 3364. -14. 711. <
592 1 9 1 8 5809. 849. 959. <
593 1 11 1 8 74. 743. 1224. <
594 1 13 1 8 40. 1938. 1503. <
595 1 15 1 8 4026. 545. 3002. <
596 1 -22 2 8 2787. 3265. 3635. <
597 1 -20 2 8 2867. 2404. 2458. <
598 1 -18 2 8 104. 1414. 1970. <
599 1 -16 2 8 2337. 490. 2608. <
600 1 -14 2 8 657. 1298. 1529. <
601 1 -12 2 8 6380. 5016. 1377. o
602 1 -10 2 8 3463. 6219. 1155. o
603 1 -8 2 8 4908. 2536. 1030. <
604 1 -6 2 8 155. 1375. 874. <
605 1 -4 2 8 5642. 3551. 1042. o
606 1 -2 2 8 3255. 5396. 804. o
607 1 0 2 8 3375. 2488. 607. o
608 1 2 2 8 223. 1481. 555. <
609 1 4 2 8 7281. 7801. 805. o
610 1 6 2 8 3593. 5207. 1009. o
611 1 8 2 8 2954. 2146. 1535. <
612 1 10 2 8 385. 1151. 1557. <
613 1 12 2 8 2532. 1301. 1581. <
614 1 -19 3 8 3499. 1374. 3512. <
615 1 -17 3 8 2372. 475. 5276. <
616 1 -15 3 8 63. 151. 2786. <
617 1 -13 3 8 4303. 67. 2867. <
618 1 -11 3 8 2548. 0. 1834. <
619 1 -9 3 8 2120. -146. 1565. <
620 1 -7 3 8 1331. -163. 1820. <
621 1 -5 3 8 1932. -25. 1678. <
622 1 -3 3 8 2029. -119. 1659. <
623 1 -1 3 8 3321. 393. 2295. <
624 1 1 3 8 1464. -419. 1312. <
625 1 3 3 8 1288. -222. 2878. <
626 1 5 3 8 633. 205. 1767. <
627 1 7 3 8 1970. 48. 2066. <
628 1 9 3 8 3753. 444. 2288. <
629 1 11 3 8 88. -559. 3093. <
630 1 13 3 8 32. 921. 4057. <
631 1 -12 4 8 2943. 2383. 3413. <
632 1 -10 4 8 1242. 1895. 3365. <
633 1 -2 4 8 945. 2509. 4102. <
634 1 -22 0 10 3054. 3183. 3792. <
635 1 -20 0 10 8864. 5748. 3114. <
636 1 -18 0 10 13904. 14844. 2624. o
637 1 -16 0 10 17615. 12563. 2196. o
638 1 -14 0 10 5144. 4728. 1428. o
639 1 -12 0 10 8673. 6677. 1371. o
640 1 -10 0 10 12702. 14592. 1203. o
641 1 -8 0 10 16186. 14057. 1452. o
642 1 -6 0 10 9833. 12197. 787. o
643 1 -4 0 10 17713. 17288. 589. o
644 1 2 0 10 11521. 8603. 562. o
645 1 4 0 10 14944. 12244. 921. o
646 1 6 0 10 5884. 5611. 876. o
647 1 8 0 10 6708. 4759. 1188. o
648 1 10 0 10 14613. 14690. 1649. o
649 1 -23 1 10 6053. -254. 4889. <
650 1 -21 1 10 335. 809. 3552. <
651 1 -19 1 10 5386. 197. 2418. <
652 1 -17 1 10 1033. -389. 1816. <
653 1 -15 1 10 3761. -240. 1490. <
654 1 -13 1 10 1706. 424. 1103. <
655 1 -11 1 10 4452. 160. 1065. <
656 1 -9 1 10 35. 934. 723. <
657 1 -7 1 10 5711. 94. 549. <
658 1 -5 1 10 3142. 231. 1067. <
659 1 -3 1 10 3769. -112. 966. <
660 1 -1 1 10 252. 36. 914. <
661 1 1 1 10 1657. 574. 1020. <
662 1 3 1 10 3877. 96. 1328. <
663 1 5 1 10 3027. -239. 1980. <
664 1 7 1 10 288. 377. 736. <
665 1 9 1 10 1232. 116. 1477. <
666 1 11 1 10 975. -84. 1561. <
667 1 -20 2 10 6525. 4775. 2894. <
668 1 -18 2 10 10418. 12591. 2393. o
669 1 -16 2 10 12910. 10718. 2007. o
670 1 -14 2 10 3341. 4121. 2052. <
671 1 -12 2 10 5979. 5299. 1510. o
672 1 -10 2 10 8744. 11628. 1354. o
673 1 -8 2 10 10986. 10241. 1065. o
674 1 -6 2 10 6466. 6865. 483. o
675 1 -2 2 10 9412. 9921. 1703. o
676 1 0 2 10 7879. 4551. 1755. <
677 1 4 2 10 10531. 11094. 3414. o
678 1 6 2 10 3818. 6760. 3884. <
679 1 8 2 10 4610. 3345. 1438. <
680 1 10 2 10 10919. 10515. 2188. o
681 1 -17 3 10 756. -1425. 4013. <
682 1 -15 3 10 2327. -637. 3115. <
683 1 -13 3 10 1410. 544. 2538. <
684 1 -11 3 10 2733. 364. 4472. <
685 1 -9 3 10 33. 134. 1904. <
686 1 -7 3 10 3416. -497. 2682. <
687 1 -5 3 10 2242. -126. 1976. <
688 1 -3 3 10 2422. 107. 1330. <
689 1 5 3 10 2103. -408. 2349. <
690 1 7 3 10 214. -18. 2692. <
691 1 9 3 10 784. 601. 3033. <
692 1 11 3 10 627. -501. 3821. <
693 1 13 3 10 394. 190. 4405. <
694 1 -22 0 11 6723. -1174. 4108. <
695 1 -20 0 11 13. 968. 3998. <
696 1 -18 0 11 6309. 243. 2194. <
697 1 -16 0 11 5405. 679. 2213. <
698 1 -14 0 11 3581. -300. 1764. <
699 1 -12 0 11 278. 399. 1475. <
700 1 -10 0 11 6821. -185. 1353. <
701 1 -8 0 11 3765. -55. 1013. <
702 1 -6 0 11 6867. 296. 1084. <
703 1 4 0 11 3730. 142. 812. <
704 1 6 0 11 808. 13. 909. <
705 1 8 0 11 146. 1740. 1340. <
706 1 -21 1 11 8738. 3637. 2812. <
707 1 -19 1 11 4167. 5385. 2273. <
708 1 -17 1 11 9136. 6088. 1855. o
709 1 -15 1 11 3334. 7282. 1731. o
710 1 -13 1 11 8559. 3736. 1257. <
711 1 -11 1 11 791. 2546. 1392. <
712 1 -9 1 11 10102. 5599. 716. o
713 1 -7 1 11 7785. 10552. 1546. o
714 1 -5 1 11 10244. 6117. 1281. o
715 1 -3 1 11 862. 4007. 1121. o
716 1 -1 1 11 13202. 8486. 990. o
717 1 1 1 11 7557. 6955. 1153. o
718 1 3 1 11 5769. 1476. 1612. <
719 1 5 1 11 702. 2294. 1677. <
720 1 7 1 11 10113. 7851. 1989. o
721 1 9 1 11 3954. 3768. 1067. o
722 1 -20 2 11 5. 574. 6217. <
723 1 -18 2 11 4982. -308. 3011. <
724 1 -16 2 11 4496. 570. 2700. <
725 1 -14 2 11 2860. -509. 4197. <
726 1 -12 2 11 294. 578. 1474. <
727 1 -10 2 11 5330. 119. 1342. <
728 1 -8 2 11 3009. -298. 2001. <
729 1 -6 2 11 5384. -348. 3166. <
730 1 -4 2 11 1116. -540. 1336. <
731 1 -2 2 11 1947. -28. 1734. <
732 1 0 2 11 2214. 480. 1957. <
733 1 2 2 11 4642. 111. 2340. <
734 1 -15 3 11 1670. 3129. 3333. <
735 1 -13 3 11 4523. 2830. 2757. <
736 1 -11 3 11 256. 1099. 2134. <
737 1 -9 3 11 5632. 4003. 2819. <
738 1 -7 3 11 3843. 6582. 2274. <
739 1 -5 3 11 5363. 2888. 1345. <
740 1 -3 3 11 311. 2320. 4247. <
741 1 -1 3 11 7284. 6959. 4659. <
742 1 1 3 11 3682. 3475. 4805. <
743 1 -6 4 11 2901. -720. 4773. <
744 1 -20 0 13 3437. -700. 6222. <
745 1 -18 0 13 95. -673. 3185. <
746 1 -16 0 13 3974. 361. 3899. <
747 1 -14 0 13 182. 527. 2340. <
748 1 -12 0 13 4277. -720. 2459. <
749 1 -10 0 13 2640. 536. 1375. <
750 1 -8 0 13 2343. -63. 1179. <
751 1 8 0 13 1339. -93. 2225. <
752 1 -19 1 13 403. 94. 3101. <
753 1 -17 1 13 3126. 2359. 2069. <
754 1 -15 1 13 5459. 6578. 1973. o
755 1 -13 1 13 10387. 5375. 1581. o
756 1 -11 1 13 1710. 2428. 3012. <
757 1 -9 1 13 6044. 4788. 2209. <
758 1 5 1 13 5187. 3203. 2496. <
759 1 -18 2 13 114. 14. 3604. <
760 1 -16 2 13 3200. 562. 2850. <
761 1 -18 0 14 9447. 3169. 3705. <
762 1 -16 0 14 2023. 2892. 4335. <
763 1 -14 0 14 9141. 6459. 3446. <
764 1 -12 0 14 6369. 8080. 2728. <
765 1 -10 0 14 11104. 3440. 1793. <
766 1 -17 1 14 63. 808. 3002. <
767 1 -13 1 14 3657. 46. 1245. <
768 1 -11 1 14 3955. -138. 3515. <
769 1 -9 1 14 200. 308. 2826. <
770 1 -7 1 14 3098. 565. 2005. <
771 1 3 1 14 631. 439. 1843. <
772 1 5 1 14 5302. -388. 2688. <
773 1 7 1 14 3888. 582. 3221. <
774 1 -10 2 14 8335. 4690. 4959. <
775 1 -11 1 16 25. 1356. 4154. <
776 2 -26 0 1 1. 982. 5377. <
777 2 -24 0 1 2183. 721. 3950. <
778 2 -22 0 1 934. 885. 3203. <
779 2 -20 0 1 436. 514. 2480. <
780 2 -16 0 1 8. 232. 1446. <
781 2 -14 0 1 174. 198. 1156. <
782 2 -12 0 1 2398. 1012. 991. <
783 2 -10 0 1 75. 393. 950. <
784 2 -8 0 1 174. -112. 674. <
785 2 -6 0 1 466. 467. 672. <
786 2 -4 0 1 121. 57. 310. <
787 2 -2 0 1 4. 41. 147. <
788 2 2 0 1 213. 69. 230. <
789 2 4 0 1 301. 94. 301. <
790 2 6 0 1 62. 343. 477. <
791 2 8 0 1 58. 35. 678. <
792 2 10 0 1 968. 323. 726. <
793 2 12 0 1 609. 942. 1150. <
794 2 14 0 1 148. -286. 1429. <
795 2 16 0 1 152. -97. 1564. <
796 2 18 0 1 444. 1857. 2107. <
797 2 22 0 1 2373. 1422. 3872. <
798 2 24 0 1 1139. 1049. 5028. <
799 2 26 0 1 135. 333. 6045. <
800 2 28 0 1 146. -934. 8023. <
801 2 -27 1 1 192. -974. 5833. <
802 2 -25 1 1 457. 983. 3163. <
803 2 -23 1 1 3340. 3667. 2728. <
804 2 -21 1 1 6874. 7333. 2236. o
805 2 -19 1 1 6036. 6853. 2130. o
806 2 -17 1 1 3529. 4640. 1418. o
807 2 -15 1 1 2002. 1967. 1081. <
808 2 -13 1 1 3183. 3109. 949. o
809 2 -11 1 1 8592. 7230. 770. o
810 2 -9 1 1 12783. 12254. 658. o
811 2 -7 1 1 10868. 11410. 553. o
812 2 -5 1 1 8558. 8312. 431. o
813 2 -3 1 1 10111. 9358. 334. o
814 2 -1 1 1 10695. 10272. 379. o
815 2 1 1 1 11145. 9434. 365. o
816 2 3 1 1 9567. 8166. 380. o
817 2 5 1 1 9366. 8410. 544. o
818 2 7 1 1 10411. 10779. 618. o
819 2 9 1 1 12911. 13091. 854. o
820 2 11 1 1 6714. 6601. 759. o
821 2 13 1 1 1913. 1985. 966. <
822 2 15 1 1 1710. 1897. 1229. <
823 2 17 1 1 5882. 6838. 1569. o
824 2 19 1 1 6875. 8156. 1981. o
825 2 21 1 1 4671. 6138. 2625. <
826 2 23 1 1 1821. 2305. 2930. <
827 2 25 1 1 500. -281. 5199. <
828 2 27 1 1 274. -1542. 9101. <
829 2 -26 2 1 1. -87. 7812. <
830 2 -24 2 1 1790. 339. 6014. <
831 2 -22 2 1 704. 1038. 2829. <
832 2 -20 2 1 307. -343. 2256. <
833 2 -18 2 1 930. 834. 1850. <
834 2 -16 2 1 4. 221. 1262. <
835 2 -14 2 1 91. 78. 1265. <
836 2 -12 2 1 1705. 1086. 1243. <
837 2 -10 2 1 58. 153. 870. <
838 2 -8 2 1 100. 0. 727. <
839 2 -6 2 1 349. 152. 649. <
840 2 -4 2 1 75. 0. 537. <
841 2 -2 2 1 2. -1. 620. <
842 2 0 2 1 34. 127. 560. <
843 2 2 2 1 119. -31. 488. <
844 2 4 2 1 221. 31. 718. <
845 2 6 2 1 42. 304. 649. <
846 2 8 2 1 45. -112. 865. <
847 2 10 2 1 649. 375. 941. <
848 2 12 2 1 403. 550. 1187. <
849 2 14 2 1 107. 49. 1366. <
850 2 16 2 1 133. 26. 1401. <
851 2 18 2 1 401. 1321. 1940. <
852 2 20 2 1 211. 336. 2403. <
853 2 22 2 1 1931. 420. 2838. <
854 2 24 2 1 888. 732. 3739. <
855 2 26 2 1 135. -670. 8261. <
856 2 -25 3 1 201. -2517. 12184. <
857 2 -23 3 1 1743. 1015. 10529. <
858 2 -21 3 1 3861. 4592. 5731. <
859 2 -19 3 1 3379. 3130. 2594. <
860 2 -17 3 1 1620. 3024. 4218. <
861 2 -15 3 1 661. 677. 2374. <
862 2 -13 3 1 1220. 2091. 2504. <
863 2 -11 3 1 3682. 4260. 1698. <
864 2 -9 3 1 5041. 6751. 1269. o
865 2 -7 3 1 3955. 4337. 1032. o
866 2 -5 3 1 2959. 3809. 924. o
867 2 -3 3 1 3156. 3213. 1382. <
868 2 -1 3 1 3074. 4303. 1201. o
869 2 1 3 1 3547. 4382. 878. o
870 2 3 3 1 3166. 4654. 1011. o
871 2 5 3 1 3065. 3405. 1035. o
872 2 7 3 1 3847. 4722. 1897. <
873 2 9 3 1 5642. 6595. 1314. o
874 2 11 3 1 2736. 4123. 1735. <
875 2 13 3 1 563. 487. 1896. <
876 2 15 3 1 649. 1888. 2541. <
877 2 17 3 1 3140. 1811. 2473. <
878 2 19 3 1 3702. 2608. 4896. <
879 2 21 3 1 2531. 2308. 4497. <
880 2 23 3 1 997. 387. 8072. <
881 2 -16 4 1 1. 796. 8447. <
882 2 -14 4 1 12. -1705. 6998. <
883 2 -10 4 1 41. 226. 2446. <
884 2 -8 4 1 32. -41. 2774. <
885 2 -6 4 1 237. 193. 2443. <
886 2 -4 4 1 39. -62. 2439. <
887 2 -2 4 1 0. -112. 2806. <
888 2 0 4 1 4. 200. 2237. <
889 2 4 4 1 160. -176. 1724. <
890 2 6 4 1 21. -237. 1874. <
891 2 8 4 1 34. -55. 2624. <
892 2 10 4 1 266. 56. 3692. <
893 2 12 4 1 144. 2147. 6240. <
894 2 14 4 1 54. -654. 3772. <
895 2 -7 5 1 1022. 367. 8074. <
896 2 -1 5 1 557. 1419. 3605. <
897 2 7 5 1 985. 1270. 7068. <
898 2 -26 0 2 2161. 2532. 5255. <
899 2 -24 0 2 936. -907. 3841. <
900 2 -22 0 2 8. -444. 3264. <
901 2 -20 0 2 3. -446. 2435. <
902 2 -18 0 2 291. 814. 1700. <
903 2 -16 0 2 3274. 2141. 1540. <
904 2 -14 0 2 3477. 3396. 1324. <
905 2 -12 0 2 1690. 1193. 1088. <
906 2 -10 0 2 179. 321. 811. <
907 2 -8 0 2 820. 461. 604. <
908 2 -6 0 2 2125. 2712. 475. o
909 2 -4 0 2 4541. 4123. 474. o
910 2 2 0 2 3186. 4670. 415. o
911 2 4 0 2 4251. 4292. 585. o
912 2 6 0 2 690. 732. 472. <
913 2 8 0 2 347. 418. 711. <
914 2 10 0 2 948. 2040. 1332. <
915 2 12 0 2 3162. 2884. 1227. <
916 2 14 0 2 2356. 2786. 1574. <
917 2 16 0 2 1674. 1431. 1833. <
918 2 18 0 2 101. -180. 2299. <
919 2 20 0 2 26. -206. 3280. <
920 2 22 0 2 100. 109. 4060. <
921 2 24 0 2 2747. 1707. 4852. <
922 2 26 0 2 2162. 561. 6872. <
923 2 28 0 2 135. -339. 9255. <
924 2 -25 1 2 1. -241. 3819. <
925 2 -23 1 2 2024. 778. 3235. <
926 2 -21 1 2 196. -69. 2141. <
927 2 -19 1 2 260. 1092. 1795. <
928 2 -17 1 2 2488. 1689. 1585. <
929 2 -15 1 2 184. 172. 1439. <
930 2 -13 1 2 2. 195. 913. <
931 2 -11 1 2 1103. 300. 731. <
932 2 -9 1 2 652. 10. 499. <
933 2 -7 1 2 6. 208. 433. <
934 2 -5 1 2 933. 57. 299. <
935 2 -3 1 2 239. -23. 335. <
936 2 -1 1 2 386. 28. 252. <
937 2 1 1 2 363. 53. 279. <
938 2 3 1 2 110. 28. 388. <
939 2 5 1 2 509. -5. 442. <
940 2 7 1 2 2. 35. 665. <
941 2 9 1 2 69. 104. 711. <
942 2 11 1 2 1126. 565. 838. <
943 2 13 1 2 33. 388. 1112. <
944 2 15 1 2 504. 1395. 1350. <
945 2 17 1 2 1726. 480. 1735. <
946 2 19 1 2 0. -67. 3351. <
947 2 21 1 2 337. 1464. 2457. <
948 2 23 1 2 265. -738. 3126. <
949 2 25 1 2 23. -536. 3941. <
950 2 27 1 2 427. 891. 5140. <
951 2 -26 2 2 1704. -1615. 10546. <
952 2 -22 2 2 4. -781. 2654. <
953 2 -20 2 2 4. -257. 2262. <
954 2 -18 2 2 157. 429. 1656. <
955 2 -16 2 2 2298. 1828. 1351. <
956 2 -14 2 2 2471. 2603. 1194. <
957 2 -12 2 2 1055. 1139. 1059. <
958 2 -10 2 2 52. -109. 898. <
959 2 -8 2 2 422. 232. 707. <
960 2 -6 2 2 1163. 1553. 593. <
961 2 -4 2 2 2333. 1926. 517. o
962 2 -2 2 2 1052. 1129. 544. <
963 2 0 2 2 1300. 785. 578. <
964 2 2 2 2 1634. 1581. 654. <
965 2 4 2 2 2218. 1550. 617. <
966 2 6 2 2 335. 591. 740. <
967 2 8 2 2 174. 247. 863. <
968 2 10 2 2 511. 1236. 1195. <
969 2 12 2 2 2089. 2693. 1211. <
970 2 14 2 2 1693. 1670. 1481. <
971 2 16 2 2 1180. 1364. 1881. <
972 2 18 2 2 42. 29. 1970. <
973 2 20 2 2 33. -605. 2448. <
974 2 22 2 2 73. 196. 3479. <
975 2 24 2 2 2146. 3316. 4273. <
976 2 -23 3 2 1502. 1236. 7057. <
977 2 -21 3 2 114. 370. 5762. <
978 2 -19 3 2 180. -56. 2481. <
979 2 -17 3 2 1520. 565. 2204. <
980 2 -15 3 2 149. 105. 2424. <
981 2 -13 3 2 3. 82. 1734. <
982 2 -11 3 2 648. 173. 1566. <
983 2 -9 3 2 284. 44. 1299. <
984 2 -7 3 2 8. 123. 968. <
985 2 -5 3 2 551. 134. 890. <
986 2 -3 3 2 127. 58. 919. <
987 2 -1 3 2 143. -78. 993. <
988 2 1 3 2 156. -308. 924. <
989 2 3 3 2 71. 231. 970. <
990 2 5 3 2 321. -183. 1082. <
991 2 7 3 2 1. 112. 1183. <
992 2 9 3 2 15. -141. 1976. <
993 2 11 3 2 686. -35. 2023. <
994 2 13 3 2 9. -36. 1962. <
995 2 15 3 2 285. 1107. 2181. <
996 2 17 3 2 1012. 162. 2561. <
997 2 19 3 2 0. -648. 4080. <
998 2 21 3 2 225. -1075. 3845. <
999 2 -20 4 2 10. -1663. 9446. <
1000 2 -18 4 2 23. -201. 10020. <
1001 2 -16 4 2 965. -60. 7620. <
1002 2 -12 4 2 369. -406. 3179. <
1003 2 -10 4 2 3. -62. 2410. <
1004 2 -8 4 2 100. -180. 2418. <
1005 2 -6 4 2 365. 178. 1736. <
1006 2 -4 4 2 650. 738. 1855. <
1007 2 -2 4 2 245. 127. 2177. <
1008 2 0 4 2 447. 38. 1980. <
1009 2 2 4 2 478. 649. 2622. <
1010 2 4 4 2 589. 1067. 1988. <
1011 2 6 4 2 63. -314. 1952. <
1012 2 8 4 2 41. 148. 5235. <
1013 2 10 4 2 114. 36. 2818. <
1014 2 12 4 2 790. 697. 4043. <
1015 2 14 4 2 792. 173. 4137. <
1016 2 16 4 2 502. 2485. 8332. <
1017 2 -11 5 2 282. -1458. 9917. <
1018 2 -7 5 2 8. -300. 7454. <
1019 2 1 5 2 53. -119. 4508. <
1020 2 3 5 2 45. -287. 7178. <
1021 2 -24 0 4 4101. 3638. 3716. <
1022 2 -22 0 4 2960. 2302. 2860. <
1023 2 -20 0 4 3886. 2825. 2153. <
1024 2 -18 0 4 8672. 9971. 1863. o
1025 2 -16 0 4 16358. 16266. 1710. o
1026 2 -14 0 4 16508. 19215. 2015. o
1027 2 -12 0 4 10171. 11546. 1152. o
1028 2 -10 0 4 9775. 11092. 916. o
1029 2 -8 0 4 17238. 17412. 808. o
1030 2 -6 0 4 20262. 20803. 647. o
1031 2 -4 0 4 21533. 21999. 472. o
1032 2 -2 0 4 22899. 19789. 290. o
1033 2 0 0 4 23666. 24712. 432. o
1034 2 2 0 4 18538. 18347. 496. o
1035 2 4 0 4 20238. 23117. 845. o
1036 2 6 0 4 14709. 17472. 1278. o
1037 2 8 0 4 9397. 9737. 994. o
1038 2 10 0 4 9634. 10036. 1332. o
1039 2 12 0 4 19106. 21145. 1669. o
1040 2 14 0 4 13744. 17555. 2096. o
1041 2 16 0 4 5407. 7329. 2414. o
1042 2 18 0 4 2470. 2620. 3124. <
1043 2 20 0 4 4361. 4318. 3323. <
1044 2 22 0 4 4613. 5532. 4910. <
1045 2 24 0 4 7139. 8678. 6054. <
1046 2 26 0 4 6538. 2508. 10111. <
1047 2 -25 1 4 224. 355. 6107. <
1048 2 -23 1 4 1061. -103. 3269. <
1049 2 -21 1 4 2469. 462. 2013. <
1050 2 -19 1 4 683. 958. 1635. <
1051 2 -17 1 4 3680. 1162. 1358. <
1052 2 -15 1 4 440. -133. 1202. <
1053 2 -13 1 4 744. 48. 1071. <
1054 2 -11 1 4 799. 158. 663. <
1055 2 -9 1 4 2436. 44. 548. <
1056 2 -7 1 4 5. 505. 310. <
1057 2 -5 1 4 2407. 52. 304. <
1058 2 -3 1 4 1186. -5. 176. <
1059 2 -1 1 4 1475. 3. 342. <
1060 2 1 1 4 239. 126. 481. <
1061 2 3 1 4 163. 134. 428. <
1062 2 5 1 4 2131. 385. 518. <
1063 2 7 1 4 721. -67. 690. <
1064 2 9 1 4 53. 350. 918. <
1065 2 11 1 4 425. 74. 933. <
1066 2 13 1 4 500. 128. 1232. <
1067 2 15 1 4 125. 149. 1584. <
1068 2 17 1 4 2870. 856. 1875. <
1069 2 19 1 4 1. -77. 2246. <
1070 2 21 1 4 301. 706. 3490. <
1071 2 23 1 4 259. -398. 3947. <
1072 2 25 1 4 1706. -612. 4737. <
1073 2 -24 2 4 3017. 1978. 5587. <
1074 2 -20 2 4 2500. 1794. 1956. <
1075 2 -18 2 4 5923. 7184. 1579. o
1076 2 -16 2 4 11386. 8202. 1481. o
1077 2 -14 2 4 10820. 12506. 1188. o
1078 2 -12 2 4 6040. 7187. 1075. o
1079 2 -10 2 4 5638. 6621. 835. o
1080 2 -8 2 4 9948. 9103. 1281. o
1081 2 -6 2 4 11174. 12962. 700. o
1082 2 -4 2 4 11850. 13534. 635. o
1083 2 -2 2 4 12670. 13715. 672. o
1084 2 0 2 4 12877. 13141. 641. o
1085 2 2 2 4 9979. 11343. 852. o
1086 2 4 2 4 11656. 10429. 707. o
1087 2 6 2 4 8504. 11463. 1102. o
1088 2 8 2 4 5310. 5436. 1165. o
1089 2 10 2 4 5893. 7679. 1339. o
1090 2 12 2 4 13131. 15016. 1584. o
1091 2 14 2 4 9423. 9682. 1876. o
1092 2 16 2 4 3533. 4660. 2050. <
1093 2 18 2 4 1623. 1309. 2797. <
1094 2 20 2 4 3139. 2592. 2965. <
1095 2 22 2 4 3342. 4198. 3682. <
1096 2 -21 3 4 1568. -1113. 5851. <
1097 2 -19 3 4 327. 301. 6905. <
1098 2 -17 3 4 2139. 48. 2294. <
1099 2 -15 3 4 296. -508. 2206. <
1100 2 -13 3 4 376. 264. 1998. <
1101 2 -11 3 4 660. 344. 1642. <
1102 2 -9 3 4 1295. 235. 1503. <
1103 2 -7 3 4 1. 304. 1199. <
1104 2 -5 3 4 1161. 104. 963. <
1105 2 -3 3 4 723. -75. 991. <
1106 2 -1 3 4 818. 167. 1064. <
1107 2 1 3 4 145. -146. 1056. <
1108 2 3 3 4 63. 38. 1137. <
1109 2 5 3 4 1162. 13. 1280. <
1110 2 7 3 4 509. -691. 1429. <
1111 2 9 3 4 31. 93. 1493. <
1112 2 11 3 4 264. 141. 2293. <
1113 2 13 3 4 260. -525. 2645. <
1114 2 15 3 4 57. 41. 3064. <
1115 2 17 3 4 1880. -117. 2896. <
1116 2 19 3 4 2. -1318. 3661. <
1117 2 21 3 4 268. 1193. 6546. <
1118 2 -18 4 4 2280. 1668. 9273. <
1119 2 -10 4 4 1659. 1132. 4935. <
1120 2 -8 4 4 3029. 4509. 2279. <
1121 2 -6 4 4 3057. 4402. 4609. <
1122 2 -4 4 4 3458. 4912. 2018. <
1123 2 -2 4 4 3937. 6051. 1966. o
1124 2 2 4 4 2632. 2921. 2895. <
1125 2 4 4 4 3664. 6468. 2183. <
1126 2 6 4 4 2577. 3540. 2621. <
1127 2 8 4 4 1370. 2267. 2511. <
1128 2 10 4 4 1864. 1457. 2900. <
1129 2 12 4 4 5477. 3191. 3952. <
1130 2 14 4 4 3718. 6557. 7177. <
1131 2 -11 5 4 452. -1489. 10106. <
1132 2 -7 5 4 1. -39. 9265. <
1133 2 5 5 4 488. 807. 5139. <
1134 2 -24 0 5 0. 772. 3669. <
1135 2 -22 0 5 1275. -176. 4409. <
1136 2 -20 0 5 3289. 605. 2264. <
1137 2 -18 0 5 0. 692. 1694. <
1138 2 -16 0 5 1530. -320. 1495. <
1139 2 -14 0 5 3838. 1126. 1319. <
1140 2 -12 0 5 540. -6. 1016. <
1141 2 -10 0 5 758. 98. 825. <
1142 2 -8 0 5 2819. 205. 587. <
1143 2 -6 0 5 1504. 83. 416. <
1144 2 -4 0 5 2368. 96. 255. <
1145 2 -2 0 5 1265. 18. 209. <
1146 2 0 0 5 940. 117. 435. <
1147 2 2 0 5 1612. -14. 392. <
1148 2 4 0 5 1305. -33. 608. <
1149 2 6 0 5 2051. 113. 1143. <
1150 2 8 0 5 606. -138. 1506. <
1151 2 10 0 5 10. 1848. 1340. <
1152 2 12 0 5 1897. 111. 1628. <
1153 2 14 0 5 2458. 533. 3133. <
1154 2 16 0 5 229. 900. 2557. <
1155 2 18 0 5 161. 806. 3111. <
1156 2 20 0 5 1275. 755. 3936. <
1157 2 22 0 5 2. -157. 5475. <
1158 2 24 0 5 181. -3260. 6360. <
1159 2 -23 1 5 24. -237. 2920. <
1160 2 -21 1 5 570. 121. 2351. <
1161 2 -19 1 5 288. 301. 1630. <
1162 2 -17 1 5 548. 669. 1341. <
1163 2 -15 1 5 1853. 1249. 1050. <
1164 2 -13 1 5 69. 696. 910. <
1165 2 -11 1 5 69. 45. 778. <
1166 2 -9 1 5 262. 38. 487. <
1167 2 -7 1 5 898. 387. 367. <
1168 2 -5 1 5 625. 1270. 242. o
1169 2 -3 1 5 750. 173. 205. <
1170 2 -1 1 5 41. 80. 270. <
1171 2 1 1 5 1590. 1145. 791. <
1172 2 3 1 5 538. 515. 539. <
1173 2 5 1 5 89. -89. 581. <
1174 2 7 1 5 350. -14. 649. <
1175 2 9 1 5 602. 348. 928. <
1176 2 11 1 5 379. 1010. 1251. <
1177 2 13 1 5 950. 624. 1336. <
1178 2 15 1 5 243. 448. 1547. <
1179 2 17 1 5 82. 48. 1965. <
1180 2 19 1 5 787. 915. 2653. <
1181 2 21 1 5 1. -1077. 3600. <
1182 2 23 1 5 1132. 1162. 4089. <
1183 2 -22 2 5 1064. -165. 4450. <
1184 2 -20 2 5 2699. 55. 1861. <
1185 2 -18 2 5 0. 161. 2987. <
1186 2 -16 2 5 1161. 84. 1389. <
1187 2 -14 2 5 2933. 706. 1185. <
1188 2 -12 2 5 421. 70. 922. <
1189 2 -10 2 5 635. 165. 985. <
1190 2 -8 2 5 2038. -24. 744. <
1191 2 -6 2 5 1008. -114. 744. <
1192 2 -4 2 5 1643. 23. 653. <
1193 2 -2 2 5 954. -100. 631. <
1194 2 0 2 5 694. 111. 710. <
1195 2 2 2 5 1113. -6. 664. <
1196 2 4 2 5 881. 202. 815. <
1197 2 6 2 5 1536. 11. 1025. <
1198 2 8 2 5 520. -16. 1272. <
1199 2 10 2 5 7. 1085. 1473. <
1200 2 12 2 5 1413. 235. 1560. <
1201 2 14 2 5 1918. 617. 1798. <
1202 2 16 2 5 162. 905. 2321. <
1203 2 18 2 5 141. 183. 3107. <
1204 2 20 2 5 1034. 217. 3285. <
1205 2 22 2 5 0. 334. 4537. <
1206 2 -19 3 5 130. -134. 7059. <
1207 2 -17 3 5 286. 31. 5965. <
1208 2 -15 3 5 1173. 264. 2026. <
1209 2 -13 3 5 24. -294. 1798. <
1210 2 -11 3 5 11. -108. 1968. <
1211 2 -9 3 5 192. 143. 1734. <
1212 2 -7 3 5 465. 92. 1618. <
1213 2 -5 3 5 221. 846. 1219. <
1214 2 -3 3 5 314. -195. 1446. <
1215 2 -1 3 5 24. 40. 1234. <
1216 2 1 3 5 764. 683. 1262. <
1217 2 3 3 5 172. 441. 1365. <
1218 2 5 3 5 33. 148. 1391. <
1219 2 7 3 5 220. -404. 1749. <
1220 2 9 3 5 275. -121. 2621. <
1221 2 11 3 5 173. 783. 2346. <
1222 2 13 3 5 613. -148. 3730. <
1223 2 15 3 5 134. -328. 3285. <
1224 2 17 3 5 24. 254. 3368. <
1225 2 19 3 5 564. 200. 4973. <
1226 2 -14 4 5 1485. 109. 4767. <
1227 2 -8 4 5 983. -899. 3112. <
1228 2 -6 4 5 412. -500. 4722. <
1229 2 -4 4 5 792. 920. 2282. <
1230 2 0 4 5 378. 755. 3346. <
1231 2 2 4 5 504. -336. 3704. <
1232 2 4 4 5 367. 102. 1939. <
1233 2 6 4 5 801. 605. 3343. <
1234 2 8 4 5 357. 303. 3527. <
1235 2 10 4 5 3. -451. 4039. <
1236 2 12 4 5 656. -220. 4424. <
1237 2 16 4 5 61. 591. 6281. <
1238 2 -1 5 5 6. 153. 8168. <
1239 2 5 5 5 8. -1818. 8673. <
1240 2 -22 0 7 2129. 693. 3433. <
1241 2 -20 0 7 1824. 638. 3762. <
1242 2 -18 0 7 2389. 83. 1725. <
1243 2 -16 0 7 31. 153. 1500. <
1244 2 -14 0 7 5545. 641. 1358. <
1245 2 -12 0 7 33. 325. 994. <
1246 2 -8 0 7 2291. 434. 559. <
1247 2 -6 0 7 2557. 94. 378. <
1248 2 -4 0 7 171. 229. 274. <
1249 2 -2 0 7 2568. 20. 355. <
1250 2 0 0 7 2285. 197. 471. <
1251 2 2 0 7 3244. 142. 601. <
1252 2 4 0 7 155. 313. 771. <
1253 2 6 0 7 579. 144. 938. <
1254 2 8 0 7 2713. 52. 1234. <
1255 2 10 0 7 397. 458. 2197. <
1256 2 12 0 7 1210. -841. 2860. <
1257 2 14 0 7 650. -419. 2415. <
1258 2 16 0 7 0. 1806. 3146. <
1259 2 18 0 7 195. -36. 3596. <
1260 2 20 0 7 4071. 1650. 4910. <
1261 2 22 0 7 288. -1170. 9217. <
1262 2 -21 1 7 9806. 10528. 2278. o
1263 2 -19 1 7 8482. 7268. 1764. o
1264 2 -17 1 7 3768. 2495. 1340. <
1265 2 -15 1 7 6549. 4447. 1090. o
1266 2 -13 1 7 14311. 14784. 921. o
1267 2 -11 1 7 17835. 17850. 747. o
1268 2 -9 1 7 11891. 12335. 620. o
1269 2 -7 1 7 13694. 11614. 1486. o
1270 2 -5 1 7 15311. 16006. 898. o
1271 2 -3 1 7 13191. 14465. 779. o
1272 2 -1 1 7 13167. 13120. 297. o
1273 2 1 1 7 16086. 16612. 541. o
1274 2 3 1 7 12930. 12881. 641. o
1275 2 5 1 7 11540. 10798. 819. o
1276 2 7 1 7 16568. 16505. 1065. o
1277 2 9 1 7 12516. 11500. 1022. o
1278 2 11 1 7 4295. 4367. 1190. o
1279 2 13 1 7 3660. 4929. 1849. <
1280 2 15 1 7 9925. 10432. 1984. o
1281 2 17 1 7 9721. 9562. 2508. o
1282 2 19 1 7 6113. 5598. 3355. <
1283 2 21 1 7 4038. 5028. 4108. <
1284 2 -20 2 7 1550. 1248. 4035. <
1285 2 -18 2 7 1822. 136. 1867. <
1286 2 -16 2 7 53. -355. 2208. <
1287 2 -14 2 7 4171. 490. 1235. <
1288 2 -12 2 7 34. 482. 1021. <
1289 2 -10 2 7 2681. 146. 788. <
1290 2 -8 2 7 1926. 568. 717. <
1291 2 -6 2 7 1864. -83. 645. <
1292 2 -4 2 7 152. 788. 521. <
1293 2 -2 2 7 1798. 118. 836. <
1294 2 0 2 7 1764. 330. 809. <
1295 2 2 2 7 2500. 303. 738. <
1296 2 4 2 7 131. 428. 950. <
1297 2 6 2 7 420. 481. 1312. <
1298 2 8 2 7 2082. 530. 1362. <
1299 2 10 2 7 344. -225. 1590. <
1300 2 12 2 7 969. 284. 1792. <
1301 2 14 2 7 538. 16. 2446. <
1302 2 16 2 7 0. 1131. 2659. <
1303 2 18 2 7 171. 304. 3125. <
1304 2 20 2 7 3382. -815. 8215. <
1305 2 -17 3 7 1532. 2624. 3713. <
1306 2 -15 3 7 3012. 3197. 2501. <
1307 2 -13 3 7 7058. 8093. 1904. o
1308 2 -11 3 7 8338. 3145. 3972. <
1309 2 -9 3 7 5081. 6710. 1952. o
1310 2 -7 3 7 6053. 8169. 1864. o
1311 2 -5 3 7 6434. 625. 907. <
1312 2 -3 3 7 5128. 1650. 1075. <
1313 2 -1 3 7 5419. 3084. 1436. <
1314 2 1 3 7 7100. 9112. 1549. o
1315 2 3 3 7 5416. 6228. 1352. o
1316 2 5 3 7 4980. 6305. 1632. o
1317 2 7 3 7 8202. 7074. 3981. <
1318 2 9 3 7 6090. 7652. 2147. o
1319 2 11 3 7 1738. 2467. 2945. <
1320 2 13 3 7 1661. 2960. 3268. <
1321 2 15 3 7 5593. 9653. 7633. <
1322 2 17 3 7 5453. 4012. 4867. <
1323 2 -12 4 7 23. 485. 6544. <
1324 2 -10 4 7 1251. -168. 6326. <
1325 2 -8 4 7 1235. -1674. 6592. <
1326 2 4 4 7 83. -113. 3339. <
1327 2 6 4 7 177. -197. 3823. <
1328 2 8 4 7 1071. -712. 4088. <
1329 2 -20 0 8 2678. 1405. 2306. <
1330 2 -18 0 8 145. 928. 1967. <
1331 2 -16 0 8 2469. 606. 1509. <
1332 2 -14 0 8 788. 1777. 1285. <
1333 2 -12 0 8 6260. 4684. 1049. o
1334 2 -10 0 8 3744. 5142. 757. o
1335 2 -6 0 8 258. 1731. 331. o
1336 2 -4 0 8 5963. 5297. 395. o
1337 2 -2 0 8 3810. 3973. 382. o
1338 2 0 0 8 3720. 1922. 834. <
1339 2 2 0 8 319. 1542. 698. <
1340 2 4 0 8 7467. 5290. 776. o
1341 2 6 0 8 3875. 5575. 1662. o
1342 2 8 0 8 2980. 1853. 1361. <
1343 2 10 0 8 454. 835. 1719. <
1344 2 12 0 8 2593. 2057. 2815. <
1345 2 14 0 8 297. 585. 3774. <
1346 2 16 0 8 2167. 2511. 3403. <
1347 2 18 0 8 3463. 3176. 5518. <
1348 2 20 0 8 3192. 2289. 5414. <
1349 2 -19 1 8 3551. 779. 1625. <
1350 2 -17 1 8 2543. -322. 1504. <
1351 2 -15 1 8 30. 589. 1028. <
1352 2 -13 1 8 5020. 201. 800. <
1353 2 -11 1 8 2915. 132. 582. <
1354 2 -9 1 8 2455. -13. 1130. <
1355 2 -7 1 8 1243. 65. 950. <
1356 2 -5 1 8 2278. 268. 811. <
1357 2 -3 1 8 2433. -186. 1208. <
1358 2 -1 1 8 4022. 137. 797. <
1359 2 1 1 8 1528. 10. 479. <
1360 2 3 1 8 1326. 166. 680. <
1361 2 5 1 8 716. 275. 796. <
1362 2 7 1 8 2386. 215. 1123. <
1363 2 9 1 8 4121. 899. 1330. <
1364 2 11 1 8 53. 482. 1402. <
1365 2 13 1 8 29. 1932. 1602. <
1366 2 15 1 8 2856. 689. 2848. <
1367 2 17 1 8 1319. 446. 2636. <
1368 2 19 1 8 1. -594. 3633. <
1369 2 -18 2 8 74. 984. 3339. <
1370 2 -16 2 8 1658. 1081. 1468. <
1371 2 -14 2 8 466. 1376. 1590. <
1372 2 -12 2 8 4526. 2441. 1065. <
1373 2 -10 2 8 2457. 4306. 846. o
1374 2 -8 2 8 3482. 2074. 681. o
1375 2 -6 2 8 110. 601. 598. <
1376 2 -4 2 8 4002. 3266. 717. o
1377 2 -2 2 8 2309. 4130. 831. o
1378 2 0 2 8 2394. 1123. 809. <
1379 2 2 2 8 158. 1075. 975. <
1380 2 4 2 8 5165. 4474. 1036. o
1381 2 6 2 8 2549. 3624. 1292. <
1382 2 8 2 8 2096. 1307. 1528. <
1383 2 10 2 8 273. 1518. 2482. <
1384 2 12 2 8 1796. 1011. 1961. <
1385 2 14 2 8 174. 746. 2211. <
1386 2 16 2 8 1680. 1235. 3168. <
1387 2 18 2 8 2658. 3019. 4990. <
1388 2 -19 3 8 2482. 163. 4171. <
1389 2 -17 3 8 1683. -590. 3392. <
1390 2 -15 3 8 45. -359. 2674. <
1391 2 -13 3 8 3053. 199. 2149. <
1392 2 -11 3 8 1808. 418. 1622. <
1393 2 -9 3 8 1504. -355. 3053. <
1394 2 -7 3 8 944. -4. 1331. <
1395 2 -5 3 8 1371. -64. 2219. <
1396 2 -3 3 8 1440. -60. 1645. <
1397 2 -1 3 8 2356. 150. 2338. <
1398 2 1 3 8 1039. 259. 1785. <
1399 2 3 3 8 913. -108. 1503. <
1400 2 5 3 8 449. -417. 1734. <
1401 2 7 3 8 1397. -29. 2654. <
1402 2 9 3 8 2663. 288. 2657. <
1403 2 11 3 8 62. -731. 5751. <
1404 2 13 3 8 23. -459. 3029. <
1405 2 15 3 8 1876. 1330. 8629. <
1406 2 -4 4 8 1600. 782. 3892. <
1407 2 4 4 8 2142. 1482. 3191. <
1408 2 6 4 8 885. 225. 3451. <
1409 2 -18 0 10 9864. 11542. 1922. o
1410 2 -16 0 10 12496. 10160. 1520. o
1411 2 -14 0 10 3649. 3047. 1047. <
1412 2 -12 0 10 6153. 4053. 796. o
1413 2 -10 0 10 9011. 8438. 666. o
1414 2 -2 0 10 9935. 11386. 643. o
1415 2 0 0 10 8450. 7558. 825. o
1416 2 2 0 10 8173. 12688. 1220. o
1417 2 4 0 10 10601. 11022. 1272. o
1418 2 6 0 10 4174. 4624. 1450. o
1419 2 8 0 10 4759. 4383. 1628. <
1420 2 10 0 10 10367. 12244. 3097. o
1421 2 12 0 10 10460. 10623. 2714. o
1422 2 14 0 10 2802. 3172. 3304. <
1423 2 16 0 10 2072. 6843. 5752. <
1424 2 -17 1 10 733. -455. 1185. <
1425 2 -15 1 10 2668. -231. 1035. <
1426 2 -13 1 10 1210. 0. 663. <
1427 2 -11 1 10 3159. -185. 1742. <
1428 2 -9 1 10 25. 385. 1984. <
1429 2 -7 1 10 4052. -73. 976. <
1430 2 -5 1 10 2229. 97. 907. <
1431 2 -3 1 10 2674. -214. 994. <
1432 2 -1 1 10 179. 992. 1112. <
1433 2 1 1 10 1175. 408. 777. <
1434 2 3 1 10 2750. 694. 780. <
1435 2 5 1 10 2147. -24. 1189. <
1436 2 7 1 10 204. 492. 1191. <
1437 2 9 1 10 874. 50. 1532. <
1438 2 11 1 10 692. -195. 1901. <
1439 2 13 1 10 373. 360. 3079. <
1440 2 15 1 10 2688. 1157. 2824. <
1441 2 -16 2 10 9158. 2200. 1862. <
1442 2 -14 2 10 2370. 2691. 1210. <
1443 2 -12 2 10 4241. 2691. 3609. <
1444 2 -6 2 10 4587. 6972. 1697. o
1445 2 -4 2 10 8781. 10021. 1679. o
1446 2 0 2 10 5590. 3958. 776. o
1447 2 2 2 10 5585. 6532. 1483. o
1448 2 4 2 10 7471. 7555. 1411. o
1449 2 6 2 10 2709. 3308. 1556. <
1450 2 8 2 10 3271. 3771. 2223. <
1451 2 10 2 10 7746. 10316. 2222. o
1452 2 12 2 10 7813. 7763. 2477. o
1453 2 14 2 10 1931. 3076. 3547. <
1454 2 -19 3 10 2419. -328. 4142. <
1455 2 -17 3 10 537. 205. 3600. <
1456 2 -15 3 10 1651. 129. 2890. <
1457 2 -13 3 10 1000. -279. 2474. <
1458 2 -11 3 10 1939. -549. 2388. <
1459 2 -3 3 10 1718. -244. 1362. <
1460 2 1 3 10 661. 46. 2789. <
1461 2 3 3 10 1822. 68. 1919. <
1462 2 5 3 10 1492. 324. 2850. <
1463 2 7 3 10 152. 99. 3024. <
1464 2 9 3 10 556. -367. 3216. <
1465 2 -16 0 11 3834. -54. 1453. <
1466 2 -2 0 11 1726. 226. 619. <
1467 2 0 0 11 1961. -180. 933. <
1468 2 2 0 11 4236. -57. 1675. <
1469 2 4 0 11 2646. 289. 1360. <
1470 2 6 0 11 573. 45. 1734. <
1471 2 8 0 11 104. 395. 1958. <
1472 2 10 0 11 3761. 445. 2178. <
1473 2 12 0 11 3537. -342. 2851. <
1474 2 14 0 11 6. 989. 5539. <
1475 2 -17 1 11 6481. 5059. 1623. o
1476 2 -15 1 11 2365. 4591. 1984. <
1477 2 -13 1 11 6072. 2371. 1697. <
1478 2 -9 1 11 7167. 4902. 1174. o
1479 2 -7 1 11 5522. 7916. 1039. o
1480 2 -5 1 11 7267. 4184. 1066. o
1481 2 -3 1 11 612. 2484. 1150. <
1482 2 -1 1 11 9366. 9219. 1479. o
1483 2 1 1 11 5361. 4912. 684. o
1484 2 3 1 11 4093. 2523. 1139. <
1485 2 5 1 11 498. 1881. 1131. <
1486 2 7 1 11 7174. 5873. 1471. o
1487 2 9 1 11 2805. 4528. 1993. <
1488 2 11 1 11 3926. 4665. 2100. <
1489 2 13 1 11 2691. 3511. 2552. <
1490 2 -16 2 11 3189. 40. 892. <
1491 2 -10 2 11 3781. -558. 2721. <
1492 2 -8 2 11 2134. -280. 1887. <
1493 2 -6 2 11 3820. -502. 1824. <
1494 2 -4 2 11 791. -63. 1602. <
1495 2 -2 2 11 1382. 656. 3204. <
1496 2 0 2 11 1570. -72. 2021. <
1497 2 2 2 11 3293. 3. 1136. <
1498 2 4 2 11 2184. 98. 1355. <
1499 2 6 2 11 505. 178. 2354. <
1500 2 8 2 11 88. 643. 2122. <
1501 2 10 2 11 3003. -259. 2718. <
1502 2 12 2 11 2898. 681. 3255. <
1503 2 -9 3 11 3996. 3082. 4876. <
1504 2 -7 3 11 2726. 5358. 4630. <
1505 2 -5 3 11 3804. 4208. 4253. <
1506 2 -1 3 11 5167. 3380. 2014. <
1507 2 1 3 11 2612. 3273. 2694. <
1508 2 3 3 11 2136. 1085. 2303. <
1509 2 5 3 11 188. 870. 2630. <
1510 2 7 3 11 4008. 3141. 3176. <
1511 2 9 3 11 1424. 1355. 5266. <
1512 2 -2 4 11 791. -447. 4406. <
1513 2 -16 0 13 2819. -183. 970. <
1514 2 0 0 13 2280. 163. 1092. <
1515 2 2 0 13 31. -107. 1488. <
1516 2 4 0 13 709. -121. 2631. <
1517 2 6 0 13 1706. -760. 3661. <
1518 2 8 0 13 950. -118. 2758. <
1519 2 10 0 13 694. -296. 3364. <
1520 2 -15 1 13 3873. 1670. 3305. <
1521 2 -13 1 13 7368. 4194. 2315. <
1522 2 1 1 13 2288. 1427. 2338. <
1523 2 3 1 13 2736. 1214. 1545. <
1524 2 5 1 13 3680. 6529. 1703. o
1525 2 7 1 13 5929. 4160. 2013. <
1526 2 9 1 13 549. 581. 2195. <
1527 2 11 1 13 841. -250. 5414. <
1528 2 4 2 13 550. -43. 1415. <
1529 2 6 2 13 1413. 323. 3403. <
1530 2 8 2 13 812. -255. 3120. <
1531 2 2 0 14 9166. 7596. 2422. o
1532 2 4 0 14 4894. 4448. 3170. <
1533 2 6 0 14 3623. 2459. 3918. <
1534 2 8 0 14 1118. 684. 3613. <
1535 2 -17 1 14 45. 1264. 4061. <
1536 2 -15 1 14 4887. -181. 2769. <
1537 2 -13 1 14 2594. 918. 2295. <
1538 2 -3 1 14 4411. 417. 2136. <
1539 2 -1 1 14 736. 229. 2494. <
1540 2 1 1 14 693. -68. 3511. <
1541 2 3 1 14 448. 1529. 3733. <
1542 2 7 1 14 2758. -146. 3271. <
1543 2 9 1 14 14. -992. 3539. <
1544 2 0 2 14 203. 2487. 4905. <
1545 2 1 1 16 1640. 3083. 4431. <
1546 3 -28 0 1 2. -1191. 6792. <
1547 3 -26 0 1 1. 488. 4954. <
1548 3 -24 0 1 1022. -45. 4154. <
1549 3 -22 0 1 437. 658. 3314. <
1550 3 -20 0 1 204. -13. 3315. <
1551 3 -18 0 1 543. 898. 2036. <
1552 3 -16 0 1 4. 133. 1621. <
1553 3 -14 0 1 81. -28. 1282. <
1554 3 -12 0 1 1123. 518. 1109. <
1555 3 -10 0 1 35. -72. 633. <
1556 3 -8 0 1 81. 216. 952. <
1557 3 -6 0 1 218. 108. 462. <
1558 3 -4 0 1 57. -10. 241. <
1559 3 -2 0 1 2. -34. 237. <
1560 3 0 0 1 39. 4. 141. <
1561 3 2 0 1 100. 77. 295. <
1562 3 4 0 1 141. 48. 388. <
1563 3 6 0 1 29. 368. 819. <
1564 3 8 0 1 27. 123. 685. <
1565 3 10 0 1 453. 99. 922. <
1566 3 12 0 1 285. 504. 1145. <
1567 3 14 0 1 69. -241. 1450. <
1568 3 16 0 1 71. 293. 1785. <
1569 3 18 0 1 208. 1311. 3371. <
1570 3 20 0 1 131. -358. 2883. <
1571 3 22 0 1 1111. 765. 3711. <
1572 3 24 0 1 533. -171. 4635. <
1573 3 26 0 1 63. -1353. 6772. <
1574 3 -27 1 1 90. -2100. 6300. <
1575 3 -25 1 1 214. 497. 3292. <
1576 3 -23 1 1 1563. 631. 2874. <
1577 3 -21 1 1 3218. 1973. 1921. <
1578 3 -19 1 1 2826. 2157. 1565. <
1579 3 -17 1 1 1652. 1658. 1308. <
1580 3 -15 1 1 937. 862. 1132. <
1581 3 -13 1 1 1490. 1447. 954. <
1582 3 -11 1 1 4022. 2878. 664. o
1583 3 -9 1 1 5984. 4736. 545. o
1584 3 -7 1 1 5088. 3566. 445. o
1585 3 -5 1 1 4007. 2775. 294. o
1586 3 -3 1 1 4733. 3648. 221. o
1587 3 -1 1 1 5007. 5200. 428. o
1588 3 1 1 1 5218. 4490. 298. o
1589 3 3 1 1 4479. 4007. 243. o
1590 3 5 1 1 4385. 3889. 357. o
1591 3 7 1 1 4874. 3217. 377. o
1592 3 9 1 1 6044. 5086. 551. o
1593 3 11 1 1 3143. 3020. 809. o
1594 3 13 1 1 895. 902. 895. <
1595 3 15 1 1 800. 774. 1190. <
1596 3 17 1 1 2754. 2572. 1584. <
1597 3 19 1 1 3219. 2962. 1907. <
1598 3 21 1 1 2187. 1831. 2420. <
1599 3 23 1 1 853. 495. 3020. <
1600 3 25 1 1 234. -453. 5390. <
1601 3 27 1 1 128. -1338. 6975. <
1602 3 -24 2 1 838. -467. 5337. <
1603 3 -22 2 1 329. 367. 4211. <
1604 3 -20 2 1 144. -172. 2000. <
1605 3 -18 2 1 435. 286. 1616. <
1606 3 -16 2 1 2. 41. 1299. <
1607 3 -14 2 1 43. -73. 1014. <
1608 3 -12 2 1 798. 285. 908. <
1609 3 -10 2 1 27. 26. 680. <
1610 3 -8 2 1 47. 128. 531. <
1611 3 -6 2 1 163. 45. 441. <
1612 3 -4 2 1 35. -60. 330. <
1613 3 -2 2 1 1. -26. 264. <
1614 3 0 2 1 16. -105. 638. <
1615 3 2 2 1 56. -84. 658. <
1616 3 4 2 1 103. 85. 271. <
1617 3 6 2 1 20. 114. 389. <
1618 3 8 2 1 21. 9. 556. <
1619 3 10 2 1 304. 70. 720. <
1620 3 12 2 1 189. 108. 731. <
1621 3 14 2 1 50. -213. 1004. <
1622 3 16 2 1 62. 231. 1500. <
1623 3 18 2 1 188. 247. 1980. <
1624 3 20 2 1 99. -378. 2157. <
1625 3 22 2 1 904. -654. 3759. <
1626 3 24 2 1 416. -1015. 5246. <
1627 3 -21 3 1 1808. 1509. 4352. <
1628 3 -19 3 1 1582. 3393. 5295. <
1629 3 -17 3 1 758. 780. 2022. <
1630 3 -15 3 1 309. 403. 1399. <
1631 3 -13 3 1 571. 280. 1262. <
1632 3 -11 3 1 1724. 1009. 944. <
1633 3 -9 3 1 2360. 2476. 772. o
1634 3 -7 3 1 1851. 1625. 589. <
1635 3 -5 3 1 1385. 1309. 661. <
1636 3 -3 3 1 1478. 1373. 344. o
1637 3 -1 3 1 1439. 2416. 600. o
1638 3 1 3 1 1660. 1133. 694. <
1639 3 3 3 1 1482. 1307. 704. <
1640 3 5 3 1 1435. 1478. 988. <
1641 3 7 3 1 1801. 2080. 577. o
1642 3 9 3 1 2641. 2372. 804. <
1643 3 11 3 1 1281. 1739. 932. <
1644 3 13 3 1 263. 147. 1528. <
1645 3 15 3 1 304. 201. 1588. <
1646 3 17 3 1 1470. 878. 3828. <
1647 3 19 3 1 1733. 994. 3313. <
1648 3 21 3 1 1185. 396. 4501. <
1649 3 -16 4 1 0. -109. 2953. <
1650 3 -14 4 1 6. -188. 2584. <
1651 3 -12 4 1 368. 992. 2120. <
1652 3 -10 4 1 19. -26. 1348. <
1653 3 -8 4 1 15. 149. 1227. <
1654 3 -6 4 1 111. 1. 628. <
1655 3 -2 4 1 0. -149. 483. <
1656 3 0 4 1 2. 48. 746. <
1657 3 2 4 1 24. 58. 874. <
1658 3 4 4 1 75. -4. 1543. <
1659 3 6 4 1 10. 128. 1366. <
1660 3 8 4 1 16. -380. 1948. <
1661 3 10 4 1 124. -300. 2303. <
1662 3 12 4 1 67. -67. 1101. <
1663 3 14 4 1 25. 80. 3245. <
1664 3 16 4 1 40. -689. 3896. <
1665 3 -11 5 1 530. 701. 3220. <
1666 3 5 5 1 314. 378. 1861. <
1667 3 9 5 1 875. 106. 3543. <
1668 3 11 5 1 346. -227. 4425. <
1669 3 -28 0 2 857. -791. 6190. <
1670 3 -26 0 2 1012. 173. 5031. <
1671 3 -24 0 2 438. -713. 3706. <
1672 3 -22 0 2 4. -734. 2870. <
1673 3 -20 0 2 1. -731. 3364. <
1674 3 -18 0 2 136. -177. 2157. <
1675 3 -16 0 2 1533. 1368. 1645. <
1676 3 -14 0 2 1628. 1260. 1192. <
1677 3 -12 0 2 791. 225. 1087. <
1678 3 -10 0 2 84. -45. 804. <
1679 3 -8 0 2 384. -161. 710. <
1680 3 -6 0 2 995. 947. 442. <
1681 3 -4 0 2 2126. 1423. 372. o
1682 3 -2 0 2 1035. 1370. 348. o
1683 3 0 0 2 1159. 1184. 365. o
1684 3 2 0 2 1491. 1794. 336. o
1685 3 4 0 2 1990. 2356. 640. o
1686 3 6 0 2 323. 205. 639. <
1687 3 8 0 2 163. 304. 855. <
1688 3 10 0 2 444. 759. 1083. <
1689 3 12 0 2 1480. 1166. 1458. <
1690 3 14 0 2 1103. 1684. 1772. <
1691 3 16 0 2 784. 240. 2046. <
1692 3 18 0 2 47. 365. 2747. <
1693 3 20 0 2 12. 261. 3436. <
1694 3 22 0 2 47. 1415. 4049. <
1695 3 24 0 2 1286. 1567. 4529. <
1696 3 26 0 2 1012. 1653. 6720. <
1697 3 -27 1 2 42. -216. 6442. <
1698 3 -25 1 2 1. -185. 2915. <
1699 3 -23 1 2 948. 416. 2514. <
1700 3 -21 1 2 92. -336. 2068. <
1701 3 -19 1 2 122. 54. 1476. <
1702 3 -17 1 2 1165. 549. 1352. <
1703 3 -15 1 2 86. 64. 1070. <
1704 3 -13 1 2 1. -65. 835. <
1705 3 -11 1 2 517. 161. 626. <
1706 3 -9 1 2 305. 117. 487. <
1707 3 -7 1 2 3. 138. 428. <
1708 3 -5 1 2 437. -13. 250. <
1709 3 -3 1 2 112. -10. 245. <
1710 3 -1 1 2 181. 23. 152. <
1711 3 1 1 2 170. -111. 251. <
1712 3 3 1 2 51. -60. 299. <
1713 3 5 1 2 238. 45. 347. <
1714 3 7 1 2 1. 185. 423. <
1715 3 9 1 2 32. 4. 561. <
1716 3 11 1 2 527. 175. 776. <
1717 3 13 1 2 15. -109. 1206. <
1718 3 15 1 2 236. 684. 1323. <
1719 3 17 1 2 808. -93. 1605. <
1720 3 19 1 2 0. 143. 1994. <
1721 3 21 1 2 158. 611. 5425. <
1722 3 23 1 2 124. -163. 3168. <
1723 3 25 1 2 11. 458. 5512. <
1724 3 -24 2 2 321. 1001. 5422. <
1725 3 -22 2 2 2. -215. 2895. <
1726 3 -20 2 2 2. -296. 2379. <
1727 3 -18 2 2 74. 100. 1597. <
1728 3 -16 2 2 1076. 562. 1290. <
1729 3 -14 2 2 1157. 836. 1156. <
1730 3 -12 2 2 494. 182. 808. <
1731 3 -10 2 2 24. -104. 619. <
1732 3 -8 2 2 198. 87. 490. <
1733 3 -6 2 2 545. 480. 495. <
1734 3 -4 2 2 1092. 528. 334. <
1735 3 -2 2 2 492. 662. 235. <
1736 3 0 2 2 609. 383. 455. <
1737 3 2 2 2 765. 891. 657. <
1738 3 4 2 2 1038. 817. 289. <
1739 3 6 2 2 157. 78. 470. <
1740 3 8 2 2 82. -70. 824. <
1741 3 10 2 2 239. 364. 689. <
1742 3 12 2 2 978. 684. 853. <
1743 3 14 2 2 793. 705. 1137. <
1744 3 16 2 2 552. 633. 1423. <
1745 3 18 2 2 20. -417. 1888. <
1746 3 20 2 2 16. -439. 2860. <
1747 3 22 2 2 34. -114. 4241. <
1748 3 24 2 2 1005. 126. 8711. <
1749 3 -21 3 2 54. -1626. 7457. <
1750 3 -19 3 2 84. 102. 5612. <
1751 3 -17 3 2 712. 75. 1951. <
1752 3 -15 3 2 70. -70. 1317. <
1753 3 -13 3 2 1. -14. 1391. <
1754 3 -11 3 2 303. -51. 969. <
1755 3 -9 3 2 133. -83. 782. <
1756 3 -7 3 2 4. -50. 636. <
1757 3 -5 3 2 258. -100. 531. <
1758 3 -3 3 2 59. -141. 738. <
1759 3 -1 3 2 67. 255. 731. <
1760 3 1 3 2 73. -65. 814. <
1761 3 3 3 2 33. -114. 1011. <
1762 3 5 3 2 150. 80. 1318. <
1763 3 7 3 2 0. 45. 451. <
1764 3 9 3 2 7. -139. 801. <
1765 3 11 3 2 321. -84. 1023. <
1766 3 13 3 2 4. -89. 1838. <
1767 3 15 3 2 133. 104. 1522. <
1768 3 17 3 2 474. 149. 2741. <
1769 3 19 3 2 0. -180. 3600. <
1770 3 21 3 2 105. 1761. 5962. <
1771 3 -16 4 2 452. 758. 3056. <
1772 3 -14 4 2 540. 794. 2494. <
1773 3 -12 4 2 173. 55. 1923. <
1774 3 -10 4 2 1. 398. 1621. <
1775 3 -8 4 2 47. 349. 878. <
1776 3 -6 4 2 171. 550. 667. <
1777 3 0 4 2 209. -104. 1588. <
1778 3 2 4 2 224. 38. 1434. <
1779 3 4 4 2 276. -108. 1332. <
1780 3 6 4 2 30. -6. 1720. <
1781 3 8 4 2 19. 89. 2730. <
1782 3 10 4 2 53. 572. 2547. <
1783 3 12 4 2 370. 46. 846. <
1784 3 14 4 2 371. -222. 3634. <
1785 3 16 4 2 235. -113. 6927. <
1786 3 -13 5 2 2. 2699. 3784. <
1787 3 3 5 2 21. -211. 2118. <
1788 3 5 5 2 86. 309. 2782. <
1789 3 7 5 2 0. 222. 3372. <
1790 3 9 5 2 0. -13. 4121. <
1791 3 -28 0 4 3864. 4046. 8963. <
1792 3 -26 0 4 3835. 2367. 4877. <
1793 3 -24 0 4 1920. 1839. 4390. <
1794 3 -22 0 4 1386. 611. 2854. <
1795 3 -20 0 4 1819. 2343. 2526. <
1796 3 -18 0 4 4060. 4213. 1946. <
1797 3 -16 0 4 7658. 5143. 1667. o
1798 3 -14 0 4 7728. 5027. 1246. o
1799 3 -12 0 4 4761. 3113. 1003. o
1800 3 -10 0 4 4576. 3143. 862. o
1801 3 -8 0 4 8070. 7887. 1232. o
1802 3 -6 0 4 9486. 7652. 826. o
1803 3 -4 0 4 10081. 10565. 841. o
1804 3 -2 0 4 10720. 9642. 542. o
1805 3 0 0 4 11079. 12702. 711. o
1806 3 2 0 4 8679. 11591. 880. o
1807 3 4 0 4 9475. 10233. 758. o
1808 3 6 0 4 6886. 9074. 1069. o
1809 3 8 0 4 4399. 5901. 1293. o
1810 3 10 0 4 4510. 5281. 1469. o
1811 3 12 0 4 8944. 10767. 1870. o
1812 3 14 0 4 6434. 7412. 2199. o
1813 3 16 0 4 2531. 3003. 2507. <
1814 3 18 0 4 1156. 1910. 2838. <
1815 3 20 0 4 2041. 2347. 3978. <
1816 3 22 0 4 2160. 1614. 4275. <
1817 3 24 0 4 3342. 1147. 5654. <
1818 3 -27 1 4 12. 583. 5708. <
1819 3 -25 1 4 105. -1115. 4677. <
1820 3 -23 1 4 497. -151. 2459. <
1821 3 -21 1 4 1156. 173. 2092. <
1822 3 -19 1 4 320. 278. 1568. <
1823 3 -17 1 4 1723. 293. 1274. <
1824 3 -15 1 4 206. 193. 1130. <
1825 3 -13 1 4 348. 67. 874. <
1826 3 -11 1 4 374. 31. 693. <
1827 3 -9 1 4 1140. 15. 595. <
1828 3 -7 1 4 2. 138. 547. <
1829 3 -5 1 4 1127. 70. 394. <
1830 3 -3 1 4 555. 45. 338. <
1831 3 -1 1 4 691. 21. 396. <
1832 3 1 1 4 112. 20. 378. <
1833 3 3 1 4 76. 118. 357. <
1834 3 5 1 4 997. 162. 493. <
1835 3 7 1 4 338. 25. 637. <
1836 3 9 1 4 25. 216. 628. <
1837 3 11 1 4 199. -235. 1056. <
1838 3 13 1 4 234. -315. 1102. <
1839 3 15 1 4 58. 18. 1583. <
1840 3 17 1 4 1344. 403. 1877. <
1841 3 19 1 4 1. -590. 3240. <
1842 3 21 1 4 141. 118. 2845. <
1843 3 23 1 4 121. -816. 5032. <
1844 3 -24 2 4 1412. 1243. 4655. <
1845 3 -22 2 4 942. 850. 2586. <
1846 3 -20 2 4 1170. 984. 2506. <
1847 3 -18 2 4 2773. 1603. 1666. <
1848 3 -16 2 4 5330. 3580. 1513. <
1849 3 -14 2 4 5065. 4258. 1236. o
1850 3 -12 2 4 2827. 2270. 841. <
1851 3 -10 2 4 2639. 1748. 655. <
1852 3 -8 2 4 4657. 3175. 630. o
1853 3 -6 2 4 5231. 3773. 501. o
1854 3 -4 2 4 5548. 4335. 444. o
1855 3 -2 2 4 5932. 5325. 417. o
1856 3 0 2 4 6028. 9849. 491. o
1857 3 2 2 4 4671. 5468. 465. o
1858 3 4 2 4 5457. 5623. 561. o
1859 3 6 2 4 3981. 4690. 782. o
1860 3 8 2 4 2486. 2365. 688. o
1861 3 10 2 4 2759. 2785. 862. o
1862 3 12 2 4 6147. 2832. 1194. <
1863 3 14 2 4 4412. 3019. 1323. <
1864 3 16 2 4 1654. 1327. 1866. <
1865 3 18 2 4 760. 789. 2082. <
1866 3 20 2 4 1469. 1348. 4091. <
1867 3 -21 3 4 734. -983. 4578. <
1868 3 -19 3 4 153. -34. 3232. <
1869 3 -17 3 4 1001. -207. 1854. <
1870 3 -15 3 4 139. -363. 1360. <
1871 3 -13 3 4 176. -118. 1316. <
1872 3 -11 3 4 309. 30. 997. <
1873 3 -9 3 4 606. -19. 843. <
1874 3 -7 3 4 1. -9. 716. <
1875 3 -5 3 4 543. 116. 613. <
1876 3 -3 3 4 338. -40. 1054. <
1877 3 -1 3 4 383. 305. 1827. <
1878 3 1 3 4 68. -262. 1593. <
1879 3 3 3 4 29. 318. 1357. <
1880 3 5 3 4 544. 245. 1816. <
1881 3 7 3 4 238. 23. 555. <
1882 3 9 3 4 14. 3. 944. <
1883 3 11 3 4 124. -191. 1653. <
1884 3 13 3 4 122. 188. 1377. <
1885 3 15 3 4 27. -28. 2783. <
1886 3 17 3 4 880. -236. 4519. <
1887 3 19 3 4 1. 697. 4263. <
1888 3 -16 4 4 2245. 2222. 2831. <
1889 3 -14 4 4 1858. 2461. 3691. <
1890 3 -12 4 4 824. 818. 1992. <
1891 3 -10 4 4 777. 708. 1240. <
1892 3 -8 4 4 1418. 1524. 898. <
1893 3 -6 4 4 1431. 1728. 1666. <
1894 3 -4 4 4 1619. 1227. 1266. <
1895 3 -2 4 4 1843. 2231. 1598. <
1896 3 2 4 4 1232. 1569. 1975. <
1897 3 4 4 4 1715. 1923. 2049. <
1898 3 6 4 4 1206. -413. 3150. <
1899 3 8 4 4 641. 628. 3076. <
1900 3 10 4 4 873. 1785. 4595. <
1901 3 12 4 4 2564. -601. 7245. <
1902 3 14 4 4 1740. 809. 6829. <
1903 3 -13 5 4 66. -637. 4675. <
1904 3 -11 5 4 212. 1143. 3382. <
1905 3 1 5 4 33. -456. 2854. <
1906 3 3 5 4 5. -693. 3530. <
1907 3 5 5 4 228. -105. 4843. <
1908 3 -28 0 5 724. 1736. 9105. <
1909 3 -26 0 5 763. -634. 4794. <
1910 3 -24 0 5 0. -884. 4249. <
1911 3 -22 0 5 597. 447. 3041. <
1912 3 -20 0 5 1540. -23. 2480. <
1913 3 -18 0 5 0. 153. 2238. <
1914 3 -16 0 5 716. -379. 1653. <
1915 3 -14 0 5 1797. 767. 1326. <
1916 3 -12 0 5 253. 138. 1041. <
1917 3 -10 0 5 355. -330. 1015. <
1918 3 -8 0 5 1320. 335. 1198. <
1919 3 -6 0 5 704. -126. 974. <
1920 3 -4 0 5 1109. 152. 809. <
1921 3 -2 0 5 592. 11. 539. <
1922 3 0 0 5 440. 136. 696. <
1923 3 2 0 5 755. -230. 830. <
1924 3 4 0 5 611. 113. 686. <
1925 3 6 0 5 960. -53. 1062. <
1926 3 8 0 5 283. 83. 1353. <
1927 3 10 0 5 5. 1083. 1525. <
1928 3 12 0 5 888. -148. 1842. <
1929 3 14 0 5 1151. -96. 2979. <
1930 3 16 0 5 107. 1134. 2817. <
1931 3 18 0 5 75. -123. 3288. <
1932 3 20 0 5 597. -422. 4121. <
1933 3 22 0 5 1. -2079. 5396. <
1934 3 -27 1 5 902. -700. 5141. <
1935 3 -25 1 5 50. -1115. 3562. <
1936 3 -23 1 5 11. -309. 2649. <
1937 3 -21 1 5 267. 110. 2127. <
1938 3 -19 1 5 135. 162. 1687. <
1939 3 -17 1 5 257. 620. 1452. <
1940 3 -15 1 5 868. 425. 1288. <
1941 3 -13 1 5 32. 274. 891. <
1942 3 -11 1 5 32. 13. 777. <
1943 3 -9 1 5 123. 117. 691. <
1944 3 -7 1 5 421. 246. 653. <
1945 3 -5 1 5 293. 485. 481. <
1946 3 -3 1 5 351. 89. 442. <
1947 3 -1 1 5 19. 104. 541. <
1948 3 1 1 5 744. 494. 522. <
1949 3 3 1 5 252. 156. 722. <
1950 3 5 1 5 42. -69. 561. <
1951 3 7 1 5 164. 16. 697. <
1952 3 9 1 5 282. 664. 1232. <
1953 3 11 1 5 178. 431. 938. <
1954 3 13 1 5 445. 300. 1216. <
1955 3 15 1 5 114. 80. 1671. <
1956 3 17 1 5 38. -5. 2419. <
1957 3 19 1 5 368. 512. 2484. <
1958 3 21 1 5 1. 511. 4051. <
1959 3 23 1 5 530. 221. 6108. <
1960 3 25 1 5 700. 1344. 6905. <
1961 3 -24 2 5 0. 102. 5072. <
1962 3 -22 2 5 498. -517. 3726. <
1963 3 -20 2 5 1264. -89. 2547. <
1964 3 -18 2 5 0. -108. 1883. <
1965 3 -16 2 5 544. -5. 1550. <
1966 3 -14 2 5 1373. 171. 1232. <
1967 3 -12 2 5 197. 49. 907. <
1968 3 -10 2 5 298. 225. 737. <
1969 3 -8 2 5 954. 72. 934. <
1970 3 -6 2 5 472. -107. 544. <
1971 3 -4 2 5 769. -77. 513. <
1972 3 -2 2 5 447. 30. 644. <
1973 3 0 2 5 325. -89. 560. <
1974 3 2 2 5 521. 116. 688. <
1975 3 4 2 5 413. 147. 684. <
1976 3 6 2 5 719. -6. 742. <
1977 3 8 2 5 243. -58. 845. <
1978 3 10 2 5 3. 438. 1063. <
1979 3 12 2 5 661. 215. 1094. <
1980 3 14 2 5 898. 161. 1718. <
1981 3 16 2 5 76. 123. 1769. <
1982 3 18 2 5 66. 121. 3029. <
1983 3 20 2 5 484. -756. 3882. <
1984 3 22 2 5 0. -408. 5366. <
1985 3 -21 3 5 186. -505. 4305. <
1986 3 -19 3 5 61. 109. 3080. <
1987 3 -17 3 5 134. 110. 2865. <
1988 3 -15 3 5 549. 597. 1505. <
1989 3 -13 3 5 11. 1. 1296. <
1990 3 -11 3 5 5. -80. 1131. <
1991 3 -9 3 5 90. 35. 857. <
1992 3 -7 3 5 218. -201. 747. <
1993 3 -5 3 5 103. 205. 684. <
1994 3 -3 3 5 147. 501. 1253. <
1995 3 -1 3 5 11. 152. 1269. <
1996 3 1 3 5 358. 92. 1470. <
1997 3 3 3 5 80. -79. 1638. <
1998 3 5 3 5 15. -192. 1950. <
1999 3 7 3 5 103. -124. 731. <
2000 3 9 3 5 129. -370. 1368. <
2001 3 11 3 5 81. -131. 1206. <
2002 3 13 3 5 287. -453. 1784. <
2003 3 15 3 5 63. -53. 3206. <
2004 3 17 3 5 11. -1039. 4114. <
2005 3 -16 4 5 268. 251. 4388. <
2006 3 -14 4 5 695. -50. 2375. <
2007 3 -12 4 5 112. -154. 1915. <
2008 3 -10 4 5 198. -167. 1552. <
2009 3 -8 4 5 460. -8. 821. <
2010 3 -6 4 5 193. 217. 1842. <
2011 3 6 4 5 375. -40. 4100. <
2012 3 12 4 5 307. 555. 6724. <
2013 3 -28 0 7 43. -1512. 11364. <
2014 3 -26 0 7 2812. 238. 5432. <
2015 3 -24 0 7 264. -231. 4449. <
2016 3 -22 0 7 997. -518. 3749. <
2017 3 -20 0 7 854. -161. 3017. <
2018 3 -18 0 7 1118. 219. 2431. <
2019 3 -16 0 7 14. -734. 2138. <
2020 3 -14 0 7 2596. 439. 1859. <
2021 3 -12 0 7 16. -269. 1577. <
2022 3 -10 0 7 1733. -211. 1365. <
2023 3 -8 0 7 1072. 332. 1373. <
2024 3 -6 0 7 1197. -207. 1603. <
2025 3 -4 0 7 80. 213. 1017. <
2026 3 -2 0 7 1202. -41. 876. <
2027 3 0 0 7 1070. -93. 1074. <
2028 3 2 0 7 1519. 35. 1078. <
2029 3 4 0 7 73. 516. 1500. <
2030 3 6 0 7 271. -93. 1244. <
2031 3 8 0 7 1270. 204. 1629. <
2032 3 10 0 7 186. 367. 3190. <
2033 3 12 0 7 566. -323. 2784. <
2034 3 14 0 7 304. 359. 2712. <
2035 3 16 0 7 0. 185. 3186. <
2036 3 18 0 7 91. -918. 4346. <
2037 3 20 0 7 1906. 2079. 5182. <
2038 3 -27 1 7 1326. 1165. 10100. <
2039 3 -25 1 7 2648. 2820. 3924. <
2040 3 -23 1 7 4522. 3004. 2795. <
2041 3 -21 1 7 4591. 3948. 2487. <
2042 3 -19 1 7 3971. 3217. 2009. <
2043 3 -17 1 7 1764. 1404. 1698. <
2044 3 -15 1 7 3066. 2410. 2795. <
2045 3 -13 1 7 6700. 6025. 1173. o
2046 3 -11 1 7 8350. 6978. 1025. o
2047 3 -9 1 7 5567. 4445. 976. o
2048 3 -7 1 7 6411. 4591. 910. o
2049 3 -5 1 7 7168. 6817. 851. o
2050 3 -3 1 7 6175. 5021. 852. o
2051 3 -1 1 7 6164. 7249. 832. o
2052 3 1 1 7 7531. 8600. 748. o
2053 3 3 1 7 6053. 5673. 945. o
2054 3 5 1 7 5403. 5740. 1010. o
2055 3 7 1 7 7756. 9468. 1194. o
2056 3 9 1 7 5859. 6549. 1218. o
2057 3 11 1 7 2011. 2197. 1350. <
2058 3 13 1 7 1713. 1253. 1555. <
2059 3 15 1 7 4647. 3912. 2322. <
2060 3 17 1 7 4551. 4471. 2630. <
2061 3 19 1 7 2862. 3804. 4677. <
2062 3 21 1 7 1890. 2461. 8144. <
2063 3 23 1 7 1193. 3001. 6913. <
2064 3 -24 2 7 189. 296. 9597. <
2065 3 -22 2 7 756. -592. 6997. <
2066 3 -20 2 7 726. 74. 2563. <
2067 3 -18 2 7 853. -290. 2341. <
2068 3 -16 2 7 25. -201. 1832. <
2069 3 -14 2 7 1953. 67. 1562. <
2070 3 -12 2 7 16. 222. 1132. <
2071 3 -10 2 7 1255. 111. 963. <
2072 3 -8 2 7 901. -38. 1087. <
2073 3 -6 2 7 873. -206. 803. <
2074 3 -4 2 7 71. 51. 847. <
2075 3 -2 2 7 842. -102. 1009. <
2076 3 0 2 7 826. 85. 972. <
2077 3 2 2 7 1171. 84. 1066. <
2078 3 4 2 7 61. 309. 1258. <
2079 3 6 2 7 197. -100. 1096. <
2080 3 8 2 7 975. 127. 1227. <
2081 3 10 2 7 161. -50. 1331. <
2082 3 12 2 7 454. 97. 1589. <
2083 3 14 2 7 252. -527. 2136. <
2084 3 16 2 7 0. -196. 3511. <
2085 3 18 2 7 80. -347. 5867. <
2086 3 20 2 7 1583. -1856. 5773. <
2087 3 -19 3 7 2081. -513. 3594. <
2088 3 -17 3 7 717. 1149. 2576. <
2089 3 -15 3 7 1410. 921. 1901. <
2090 3 -13 3 7 3304. 2810. 1553. <
2091 3 -11 3 7 3904. 3445. 1443. <
2092 3 -9 3 7 2378. 2807. 1185. <
2093 3 -7 3 7 2834. 2799. 1185. <
2094 3 -5 3 7 3012. 2703. 1344. <
2095 3 -3 3 7 2401. 3371. 884. o
2096 3 -1 3 7 2537. 4604. 1162. o
2097 3 1 3 7 3324. 3234. 839. o
2098 3 3 3 7 2536. 4202. 3395. <
2099 3 5 3 7 2331. 2243. 970. <
2100 3 7 3 7 3840. 4127. 1578. <
2101 3 9 3 7 2851. 3427. 1463. <
2102 3 11 3 7 813. 533. 2405. <
2103 3 13 3 7 777. 156. 3330. <
2104 3 15 3 7 2619. 1552. 3668. <
2105 3 -16 4 7 44. -889. 3626. <
2106 3 -14 4 7 963. -352. 2935. <
2107 3 -12 4 7 11. 663. 2537. <
2108 3 -10 4 7 586. -561. 1854. <
2109 3 4 4 7 39. -14. 5705. <
2110 3 6 4 7 83. 30. 6439. <
2111 3 8 4 7 501. -1779. 6880. <
2112 3 -28 0 8 87. 825. 10113. <
2113 3 -26 0 8 92. -375. 5343. <
2114 3 -24 0 8 2515. 2186. 4602. <
2115 3 -22 0 8 1254. 817. 4023. <
2116 3 -20 0 8 1253. -369. 3179. <
2117 3 -18 0 8 68. 113. 2771. <
2118 3 -16 0 8 1156. 141. 2220. <
2119 3 -14 0 8 369. 57. 2065. <
2120 3 -12 0 8 2931. 2340. 1717. <
2121 3 -10 0 8 1753. 1846. 1561. <
2122 3 -8 0 8 2470. 1865. 1732. <
2123 3 -6 0 8 121. 507. 1882. <
2124 3 -4 0 8 2792. 2247. 1441. <
2125 3 -2 0 8 1784. 2035. 1248. <
2126 3 0 0 8 1742. 1107. 1170. <
2127 3 2 0 8 149. 200. 1033. <
2128 3 4 0 8 3496. 3200. 1405. <
2129 3 6 0 8 1814. 1827. 2383. <
2130 3 8 0 8 1395. 1233. 1767. <
2131 3 10 0 8 213. 453. 2403. <
2132 3 12 0 8 1214. 1005. 3520. <
2133 3 14 0 8 139. -35. 3284. <
2134 3 16 0 8 1014. 2212. 3774. <
2135 3 18 0 8 1621. -275. 5415. <
2136 3 -25 1 8 2154. -943. 4135. <
2137 3 -23 1 8 118. 452. 3142. <
2138 3 -21 1 8 502. -676. 2682. <
2139 3 -19 1 8 1662. 735. 2201. <
2140 3 -17 1 8 1190. -109. 2066. <
2141 3 -15 1 8 14. 1028. 3027. <
2142 3 -13 1 8 2350. 160. 1313. <
2143 3 -11 1 8 1365. 6. 1130. <
2144 3 -9 1 8 1149. 88. 998. <
2145 3 -7 1 8 582. -165. 919. <
2146 3 -5 1 8 1066. -73. 936. <
2147 3 -3 1 8 1139. 31. 1042. <
2148 3 -1 1 8 1883. 89. 848. <
2149 3 1 1 8 715. -276. 848. <
2150 3 3 1 8 621. 256. 800. <
2151 3 5 1 8 335. 360. 1079. <
2152 3 7 1 8 1117. 69. 1399. <
2153 3 9 1 8 1929. 575. 1578. <
2154 3 11 1 8 25. 173. 2007. <
2155 3 13 1 8 13. 749. 2469. <
2156 3 15 1 8 1337. 94. 2277. <
2157 3 17 1 8 617. -431. 3989. <
2158 3 19 1 8 1. -6. 5787. <
2159 3 21 1 8 417. -718. 7239. <
2160 3 -22 2 8 926. 1931. 5164. <
2161 3 -20 2 8 952. 180. 2775. <
2162 3 -18 2 8 35. 168. 4371. <
2163 3 -16 2 8 776. 87. 2508. <
2164 3 -14 2 8 218. 144. 1510. <
2165 3 -12 2 8 2119. 635. 1474. <
2166 3 -10 2 8 1150. 1411. 1146. <
2167 3 -8 2 8 1630. 1154. 1271. <
2168 3 -6 2 8 51. 529. 942. <
2169 3 -4 2 8 1874. 1224. 1047. <
2170 3 -2 2 8 1081. 702. 1179. <
2171 3 0 2 8 1121. 127. 1069. <
2172 3 2 2 8 74. 31. 1065. <
2173 3 4 2 8 2418. 762. 1199. <
2174 3 6 2 8 1193. 846. 1277. <
2175 3 8 2 8 981. -255. 2456. <
2176 3 10 2 8 128. 164. 1763. <
2177 3 12 2 8 841. 577. 2194. <
2178 3 14 2 8 81. 820. 4974. <
2179 3 16 2 8 786. 460. 4749. <
2180 3 18 2 8 1244. -986. 7886. <
2181 3 -19 3 8 1162. -799. 3809. <
2182 3 -17 3 8 788. 54. 3208. <
2183 3 -15 3 8 21. 422. 2620. <
2184 3 -13 3 8 1429. -170. 2173. <
2185 3 -11 3 8 846. -397. 1963. <
2186 3 -9 3 8 704. -342. 1689. <
2187 3 -7 3 8 442. -229. 1389. <
2188 3 -5 3 8 642. -219. 1487. <
2189 3 -3 3 8 674. -780. 1827. <
2190 3 -1 3 8 1103. -79. 1550. <
2191 3 1 3 8 486. -72. 2391. <
2192 3 3 3 8 428. 104. 1489. <
2193 3 5 3 8 210. 330. 1479. <
2194 3 7 3 8 654. -653. 1888. <
2195 3 9 3 8 1246. -158. 2162. <
2196 3 11 3 8 29. 814. 2703. <
2197 3 13 3 8 11. 211. 4317. <
2198 3 -14 4 8 53. -308. 3311. <
2199 3 -12 4 8 977. 765. 2654. <
2200 3 -10 4 8 413. 864. 2186. <
2201 3 -8 4 8 596. 303. 1159. <
2202 3 -26 0 10 1183. -310. 6860. <
2203 3 -24 0 10 1810. 696. 5561. <
2204 3 -22 0 10 1014. 835. 4805. <
2205 3 -18 0 10 4618. 3963. 3482. <
2206 3 -16 0 10 5850. 4002. 4170. <
2207 3 -14 0 10 1708. 1860. 2915. <
2208 3 -12 0 10 2880. 2393. 2774. <
2209 3 -10 0 10 4219. 5016. 2658. <
2210 3 -8 0 10 5376. 5316. 2221. <
2211 3 -6 0 10 3265. 2897. 1703. <
2212 3 -4 0 10 5883. 4255. 2490. <
2213 3 -2 0 10 4651. 6663. 1709. o
2214 3 0 0 10 3956. 4160. 1646. <
2215 3 2 0 10 3826. 5530. 1423. o
2216 3 4 0 10 4963. 6445. 2231. <
2217 3 6 0 10 1954. 2542. 2274. <
2218 3 8 0 10 2228. -688. 2364. <
2219 3 10 0 10 4853. -53. 4439. <
2220 3 12 0 10 4897. 5379. 4062. <
2221 3 14 0 10 1312. 2022. 4374. <
2222 3 -23 1 10 2010. -83. 5131. <
2223 3 -21 1 10 111. 105. 3352. <
2224 3 -19 1 10 1789. -151. 2815. <
2225 3 -17 1 10 343. 478. 2971. <
2226 3 -15 1 10 1249. 102. 3124. <
2227 3 -13 1 10 567. 148. 1966. <
2228 3 -11 1 10 1479. -298. 1518. <
2229 3 -9 1 10 12. 463. 1308. <
2230 3 -7 1 10 1897. 351. 1368. <
2231 3 -5 1 10 1044. 354. 1790. <
2232 3 -3 1 10 1252. -753. 1822. <
2233 3 -1 1 10 84. 85. 1373. <
2234 3 1 1 10 550. 711. 1285. <
2235 3 3 1 10 1287. 226. 1181. <
2236 3 5 1 10 1005. -318. 1729. <
2237 3 7 1 10 96. -65. 1746. <
2238 3 9 1 10 409. 74. 3293. <
2239 3 11 1 10 324. -591. 2457. <
2240 3 13 1 10 175. -854. 5335. <
2241 3 15 1 10 1259. 417. 5447. <
2242 3 17 1 10 25. -202. 5416. <
2243 3 -20 2 10 2167. 1424. 5321. <
2244 3 -18 2 10 3460. 3084. 3828. <
2245 3 -16 2 10 4287. 1556. 4162. <
2246 3 -14 2 10 1110. 165. 2302. <
2247 3 -12 2 10 1986. 1020. 1756. <
2248 3 -10 2 10 2904. 1905. 2194. <
2249 3 -8 2 10 3649. 3245. 1833. <
2250 3 -6 2 10 2147. 1538. 1906. <
2251 3 -4 2 10 4111. 2476. 1488. <
2252 3 -2 2 10 3126. 853. 1369. <
2253 3 0 2 10 2617. 1967. 1756. <
2254 3 2 2 10 2615. 2758. 1654. <
2255 3 4 2 10 3497. 3748. 1751. <
2256 3 6 2 10 1268. 1108. 1814. <
2257 3 8 2 10 1531. 970. 2444. <
2258 3 10 2 10 3626. 3826. 3220. <
2259 3 12 2 10 3658. 3679. 3624. <
2260 3 14 2 10 904. -1040. 5979. <
2261 3 16 2 10 693. 649. 6389. <
2262 3 -17 3 10 251. -41. 7014. <
2263 3 -15 3 10 773. -43. 3386. <
2264 3 -13 3 10 468. -761. 2817. <
2265 3 -11 3 10 908. -296. 2405. <
2266 3 -9 3 10 11. 428. 2056. <
2267 3 -7 3 10 1134. -11. 2944. <
2268 3 -5 3 10 745. 195. 2772. <
2269 3 -3 3 10 804. -1237. 3058. <
2270 3 1 3 10 310. 13. 4764. <
2271 3 3 3 10 853. -692. 4046. <
2272 3 5 3 10 698. -934. 2496. <
2273 3 7 3 10 71. -524. 3200. <
2274 3 9 3 10 260. 274. 3788. <
2275 3 11 3 10 208. -1150. 5381. <
2276 3 -12 4 10 776. 40. 4058. <
2277 3 -10 4 10 1134. 1000. 3349. <
2278 3 -24 0 11 408. 1496. 6231. <
2279 3 -22 0 11 2233. 16. 5831. <
2280 3 -20 0 11 4. -896. 6184. <
2281 3 -18 0 11 2095. -561. 6015. <
2282 3 -16 0 11 1795. -788. 5089. <
2283 3 -12 0 11 92. 156. 4217. <
2284 3 -10 0 11 2265. -381. 4190. <
2285 3 -8 0 11 1250. 533. 3324. <
2286 3 -6 0 11 2281. -465. 3036. <
2287 3 -2 0 11 808. -118. 2107. <
2288 3 0 0 11 918. 139. 2038. <
2289 3 2 0 11 1983. 192. 1955. <
2290 3 4 0 11 1239. -807. 2791. <
2291 3 6 0 11 268. -413. 2627. <
2292 3 8 0 11 49. 216. 2759. <
2293 3 12 0 11 1656. 827. 6193. <
2294 3 -23 1 11 88. -506. 6931. <
2295 3 -21 1 11 2902. 879. 4839. <
2296 3 -19 1 11 1384. 1818. 6485. <
2297 3 -17 1 11 3034. 3064. 5919. <
2298 3 -15 1 11 1107. 2490. 4578. <
2299 3 -13 1 11 2843. 589. 3854. <
2300 3 -11 1 11 263. 1131. 2575. <
2301 3 -9 1 11 3355. 2784. 1986. <
2302 3 -7 1 11 2585. 3649. 1747. <
2303 3 -5 1 11 3402. -201. 2482. <
2304 3 -3 1 11 286. 450. 1689. <
2305 3 -1 1 11 4385. 1745. 2027. <
2306 3 1 1 11 2510. 479. 1791. <
2307 3 3 1 11 1916. 1291. 1423. <
2308 3 5 1 11 233. 1391. 2510. <
2309 3 7 1 11 3359. 3605. 2047. <
2310 3 9 1 11 1313. 1304. 5418. <
2311 3 15 1 11 2055. 495. 7913. <
2312 3 -18 2 11 1654. -214. 5897. <
2313 3 -16 2 11 1493. -359. 3508. <
2314 3 -14 2 11 950. -240. 2717. <
2315 3 -12 2 11 98. 555. 2920. <
2316 3 -10 2 11 1770. -88. 2501. <
2317 3 -8 2 11 999. -618. 2843. <
2318 3 -6 2 11 1788. -735. 2756. <
2319 3 -4 2 11 371. -19. 2387. <
2320 3 -2 2 11 647. -322. 1794. <
2321 3 0 2 11 735. -200. 1854. <
2322 3 2 2 11 1542. 65. 2306. <
2323 3 4 2 11 1022. 167. 2916. <
2324 3 12 2 11 1357. -966. 4387. <
2325 3 -15 3 11 555. -388. 7177. <
2326 3 -13 3 11 1502. 739. 3307. <
2327 3 -11 3 11 85. 628. 2967. <
2328 3 -9 3 11 1871. 933. 3357. <
2329 3 1 3 11 1223. 178. 6104. <
2330 3 3 3 11 1000. 681. 6511. <
2331 3 7 3 11 1876. 1311. 4592. <
2332 3 9 3 11 667. 1041. 5346. <
2333 3 -16 0 13 1320. -575. 7977. <
2334 3 -14 0 13 61. -783. 6814. <
2335 3 -12 0 13 1420. -2421. 5927. <
2336 3 -10 0 13 877. -1225. 5688. <
2337 3 -8 0 13 778. -573. 5478. <
2338 3 -6 0 13 20. 588. 3863. <
2339 3 -4 0 13 1006. -667. 2731. <
2340 3 -2 0 13 1019. 639. 2928. <
2341 3 0 0 13 1068. 1019. 3146. <
2342 3 4 0 13 332. -520. 3469. <
2343 3 6 0 13 799. -2158. 4303. <
2344 3 -21 1 13 2100. 3001. 9799. <
2345 3 -17 1 13 1038. -1087. 6728. <
2346 3 -15 1 13 1813. 2219. 3625. <
2347 3 -13 1 13 3449. 210. 6087. <
2348 3 -11 1 13 568. 777. 3126. <
2349 3 -9 1 13 2007. 2323. 3804. <
2350 3 -7 1 13 1560. 199. 5264. <
2351 3 -5 1 13 1891. 655. 2563. <
2352 3 -3 1 13 766. 913. 5774. <
2353 3 -1 1 13 2803. 1272. 4660. <
2354 3 1 1 13 1071. 1950. 4438. <
2355 3 11 1 13 394. -3621. 9356. <
2356 3 -14 2 13 52. 154. 5159. <
2357 3 -12 2 13 1135. -2067. 6429. <
2358 3 -8 2 13 627. 224. 5850. <
2359 3 -6 2 13 19. 393. 3174. <
2360 3 -2 2 13 855. -384. 3263. <
2361 3 2 2 13 14. -937. 4748. <
2362 3 4 2 13 257. 110. 6180. <
2363 3 6 2 13 662. 136. 7030. <
2364 3 10 2 13 281. -2227. 8390. <
2365 3 -14 0 14 3036. 3798. 7706. <
2366 3 -12 0 14 2115. 2562. 6970. <
2367 3 -10 0 14 3688. 130. 6664. <
2368 3 -8 0 14 170. 654. 4628. <
2369 3 0 0 14 157. 2207. 4069. <
2370 3 2 0 14 4291. 3869. 3168. <
2371 3 -19 1 14 1213. -2894. 9266. <
2372 3 -13 1 14 1214. 253. 6979. <
2373 3 -11 1 14 1314. -241. 4686. <
2374 3 -9 1 14 67. 14. 5685. <
2375 3 -7 1 14 1029. 815. 6074. <
2376 3 -5 1 14 931. -209. 5459. <
2377 3 -3 1 14 2065. -292. 3406. <
2378 3 7 1 14 1291. 930. 7251. <
2379 3 -2 2 14 1857. 132. 5819. <
2380 3 2 2 14 3290. 1255. 4943. <
2381 3 -7 1 16 731. -600. 10673. <
2382 4 -24 0 1 1217. 1207. 4198. <
2383 4 -22 0 1 520. 801. 3286. <
2384 4 -20 0 1 243. 58. 2882. <
2385 4 -18 0 1 646. 816. 2170. <
2386 4 -16 0 1 4. -221. 1607. <
2387 4 -14 0 1 97. 305. 1406. <
2388 4 -12 0 1 1337. 616. 962. <
2389 4 -10 0 1 42. 300. 903. <
2390 4 -8 0 1 97. 94. 663. <
2391 4 -6 0 1 260. 225. 480. <
2392 4 -4 0 1 68. -72. 391. <
2393 4 -2 0 1 2. -1. 185. <
2394 4 0 0 1 46. 38. 180. <
2395 4 2 0 1 118. -35. 180. <
2396 4 4 0 1 168. 122. 309. <
2397 4 6 0 1 35. 200. 493. <
2398 4 8 0 1 32. -28. 1013. <
2399 4 10 0 1 539. -114. 788. <
2400 4 12 0 1 340. 387. 1182. <
2401 4 14 0 1 83. 15. 1530. <
2402 4 16 0 1 85. 92. 1900. <
2403 4 18 0 1 247. 633. 1802. <
2404 4 20 0 1 156. 41. 2768. <
2405 4 22 0 1 1323. 23. 3131. <
2406 4 24 0 1 635. 1375. 4452. <
2407 4 26 0 1 75. 443. 8464. <
2408 4 -27 1 1 107. 18. 6142. <
2409 4 -25 1 1 255. -395. 5371. <
2410 4 -23 1 1 1861. 2420. 3482. <
2411 4 -21 1 1 3831. 2669. 2250. <
2412 4 -19 1 1 3364. 3874. 1818. <
2413 4 -17 1 1 1966. 1836. 1379. <
2414 4 -15 1 1 1116. 1225. 1347. <
2415 4 -13 1 1 1774. 1427. 817. <
2416 4 -11 1 1 4788. 3542. 629. o
2417 4 -9 1 1 7124. 6341. 526. o
2418 4 -7 1 1 6057. 4712. 319. o
2419 4 -5 1 1 4769. 4570. 310. o
2420 4 -3 1 1 5635. 5017. 211. o
2421 4 -1 1 1 5960. 5363. 444. o
2422 4 1 1 1 6211. 5093. 181. o
2423 4 3 1 1 5332. 4084. 240. o
2424 4 5 1 1 5220. 3720. 322. o
2425 4 7 1 1 5802. 4931. 512. o
2426 4 9 1 1 7195. 5982. 622. o
2427 4 11 1 1 3742. 3372. 720. o
2428 4 13 1 1 1066. 479. 958. <
2429 4 15 1 1 953. 1281. 1313. <
2430 4 17 1 1 3278. 3703. 1540. <
2431 4 19 1 1 3832. 4007. 1767. <
2432 4 21 1 1 2603. 1739. 2142. <
2433 4 23 1 1 1015. 1980. 3148. <
2434 4 25 1 1 279. 665. 5346. <
2435 4 27 1 1 153. 207. 6915. <
2436 4 -24 2 1 998. 185. 4941. <
2437 4 -22 2 1 392. 113. 3736. <
2438 4 -20 2 1 171. -294. 2011. <
2439 4 -18 2 1 518. 569. 1617. <
2440 4 -16 2 1 2. -48. 1223. <
2441 4 -14 2 1 51. -93. 900. <
2442 4 -12 2 1 950. 510. 781. <
2443 4 -10 2 1 32. 30. 836. <
2444 4 -8 2 1 55. 55. 486. <
2445 4 -6 2 1 194. 112. 340. <
2446 4 -4 2 1 42. -29. 228. <
2447 4 -2 2 1 1. 152. 457. <
2448 4 0 2 1 19. -28. 633. <
2449 4 2 2 1 66. 29. 266. <
2450 4 4 2 1 123. 159. 431. <
2451 4 6 2 1 24. 141. 470. <
2452 4 8 2 1 25. 99. 555. <
2453 4 10 2 1 362. 142. 609. <
2454 4 12 2 1 225. 254. 966. <
2455 4 14 2 1 60. -172. 1077. <
2456 4 16 2 1 74. 215. 1464. <
2457 4 18 2 1 224. 113. 2875. <
2458 4 20 2 1 118. 1029. 2113. <
2459 4 22 2 1 1076. -92. 4344. <
2460 4 24 2 1 495. -500. 5908. <
2461 4 -21 3 1 2152. 1800. 4078. <
2462 4 -19 3 1 1883. 909. 3005. <
2463 4 -17 3 1 903. 443. 2501. <
2464 4 -15 3 1 368. 391. 1398. <
2465 4 -13 3 1 680. 610. 1135. <
2466 4 -11 3 1 2052. 1678. 859. <
2467 4 -9 3 1 2809. 2901. 753. o
2468 4 -7 3 1 2204. 1376. 461. <
2469 4 -5 3 1 1649. 1397. 926. <
2470 4 -3 3 1 1759. 1810. 709. <
2471 4 -1 3 1 1713. 2233. 707. o
2472 4 1 3 1 1977. 1608. 596. <
2473 4 3 3 1 1764. 2101. 480. o
2474 4 5 3 1 1708. 2033. 803. <
2475 4 7 3 1 2144. 1892. 668. <
2476 4 9 3 1 3144. 2944. 844. o
2477 4 11 3 1 1525. 1235. 1210. <
2478 4 13 3 1 314. 647. 1533. <
2479 4 15 3 1 362. -15. 1416. <
2480 4 17 3 1 1750. 1749. 3086. <
2481 4 19 3 1 2063. 1751. 5613. <
2482 4 21 3 1 1410. 1529. 4726. <
2483 4 -16 4 1 0. -4. 3756. <
2484 4 -14 4 1 7. -729. 3057. <
2485 4 -12 4 1 438. 132. 1194. <
2486 4 -10 4 1 23. 185. 2097. <
2487 4 -8 4 1 18. 200. 2215. <
2488 4 -6 4 1 132. 402. 1234. <
2489 4 -4 4 1 22. -193. 1795. <
2490 4 -2 4 1 0. 277. 844. <
2491 4 0 4 1 2. 68. 690. <
2492 4 4 4 1 89. 148. 609. <
2493 4 6 4 1 12. -90. 864. <
2494 4 8 4 1 19. 59. 1057. <
2495 4 10 4 1 148. -262. 1962. <
2496 4 12 4 1 80. 372. 2309. <
2497 4 14 4 1 30. -539. 2704. <
2498 4 16 4 1 47. 50. 3287. <
2499 4 -11 5 1 631. 880. 4044. <
2500 4 -9 5 1 752. 1074. 3230. <
2501 4 -7 5 1 570. -537. 2460. <
2502 4 9 5 1 1041. -92. 2502. <
2503 4 11 5 1 411. -367. 3580. <
2504 4 -26 0 2 1204. 1093. 7239. <
2505 4 -24 0 2 522. 362. 3925. <
2506 4 -22 0 2 4. -20. 3585. <
2507 4 -20 0 2 2. 289. 3098. <
2508 4 -18 0 2 162. 561. 2311. <
2509 4 -16 0 2 1825. 1824. 1883. <
2510 4 -14 0 2 1938. 2170. 1328. <
2511 4 -12 0 2 942. 927. 1315. <
2512 4 -10 0 2 100. 94. 1004. <
2513 4 -8 0 2 457. 333. 744. <
2514 4 -6 0 2 1184. 2858. 1001. <
2515 4 -4 0 2 2531. 2422. 422. o
2516 4 -2 0 2 1232. 2079. 401. o
2517 4 0 0 2 1380. 1348. 271. o
2518 4 2 0 2 1775. 1535. 356. o
2519 4 4 0 2 2369. 1702. 431. o
2520 4 6 0 2 385. 504. 528. <
2521 4 8 0 2 194. 225. 756. <
2522 4 10 0 2 529. 64. 874. <
2523 4 12 0 2 1762. 1275. 1176. <
2524 4 14 0 2 1313. 1372. 1389. <
2525 4 16 0 2 933. 593. 2052. <
2526 4 18 0 2 56. -350. 2502. <
2527 4 20 0 2 14. 353. 2890. <
2528 4 22 0 2 56. 819. 3431. <
2529 4 24 0 2 1531. 444. 4404. <
2530 4 26 0 2 1205. 1792. 9190. <
2531 4 -29 1 2 1079. -4. 7923. <
2532 4 -27 1 2 50. -1048. 6483. <
2533 4 -25 1 2 1. -157. 4814. <
2534 4 -23 1 2 1128. -67. 3093. <
2535 4 -21 1 2 109. -468. 2217. <
2536 4 -19 1 2 145. 531. 1843. <
2537 4 -17 1 2 1386. 137. 1426. <
2538 4 -15 1 2 103. -181. 1240. <
2539 4 -13 1 2 1. 143. 944. <
2540 4 -11 1 2 615. 188. 793. <
2541 4 -9 1 2 363. -24. 500. <
2542 4 -7 1 2 4. 89. 367. <
2543 4 -5 1 2 520. 133. 283. <
2544 4 -3 1 2 133. -24. 242. <
2545 4 -1 1 2 215. -30. 160. <
2546 4 1 1 2 203. 28. 232. <
2547 4 3 1 2 61. -11. 226. <
2548 4 5 1 2 284. 83. 372. <
2549 4 7 1 2 1. 72. 521. <
2550 4 9 1 2 38. 190. 562. <
2551 4 11 1 2 628. 190. 764. <
2552 4 13 1 2 18. 90. 1105. <
2553 4 15 1 2 281. 445. 1139. <
2554 4 17 1 2 962. 185. 1369. <
2555 4 19 1 2 0. 213. 1984. <
2556 4 21 1 2 188. 1292. 2181. <
2557 4 23 1 2 148. 113. 3190. <
2558 4 25 1 2 13. -424. 5538. <
2559 4 27 1 2 238. -728. 6781. <
2560 4 -26 2 2 950. -1605. 8564. <
2561 4 -24 2 2 382. -272. 4587. <
2562 4 -22 2 2 2. -407. 3858. <
2563 4 -20 2 2 2. 40. 2039. <
2564 4 -18 2 2 88. 172. 1573. <
2565 4 -16 2 2 1280. 504. 1365. <
2566 4 -14 2 2 1377. 1092. 979. <
2567 4 -12 2 2 588. 296. 723. <
2568 4 -10 2 2 29. 206. 886. <
2569 4 -8 2 2 235. 171. 541. <
2570 4 -6 2 2 648. 882. 367. <
2571 4 -4 2 2 1300. 1353. 725. <
2572 4 -2 2 2 586. 1014. 425. <
2573 4 0 2 2 725. 616. 470. <
2574 4 2 2 2 911. 982. 308. o
2575 4 4 2 2 1236. 1087. 510. <
2576 4 6 2 2 186. 112. 470. <
2577 4 8 2 2 97. -34. 628. <
2578 4 10 2 2 285. 330. 655. <
2579 4 12 2 2 1164. 877. 1058. <
2580 4 14 2 2 944. 1232. 1232. <
2581 4 16 2 2 657. -43. 1493. <
2582 4 18 2 2 23. 427. 4501. <
2583 4 20 2 2 19. 482. 2383. <
2584 4 22 2 2 41. -478. 4492. <
2585 4 24 2 2 1196. 967. 6292. <
2586 4 -21 3 2 64. -586. 3884. <
2587 4 -19 3 2 100. 404. 2896. <
2588 4 -17 3 2 847. -131. 2270. <
2589 4 -15 3 2 83. 80. 1233. <
2590 4 -13 3 2 1. -311. 1068. <
2591 4 -11 3 2 361. -29. 885. <
2592 4 -9 3 2 159. -31. 613. <
2593 4 -7 3 2 4. -149. 1250. <
2594 4 -5 3 2 307. 82. 977. <
2595 4 -3 3 2 71. -154. 879. <
2596 4 -1 3 2 80. 21. 744. <
2597 4 1 3 2 87. -127. 697. <
2598 4 3 3 2 40. 108. 453. <
2599 4 5 3 2 179. -190. 606. <
2600 4 7 3 2 0. 28. 739. <
2601 4 9 3 2 9. -128. 903. <
2602 4 11 3 2 382. -269. 1101. <
2603 4 13 3 2 5. -16. 1731. <
2604 4 15 3 2 159. 804. 1534. <
2605 4 17 3 2 564. 500. 3618. <
2606 4 19 3 2 0. 389. 6588. <
2607 4 21 3 2 125. -1262. 6811. <
2608 4 -16 4 2 538. -644. 3930. <
2609 4 -14 4 2 643. -324. 3205. <
2610 4 -12 4 2 206. 608. 2591. <
2611 4 -10 4 2 2. -217. 2275. <
2612 4 -8 4 2 55. -19. 1833. <
2613 4 -6 4 2 204. 360. 1479. <
2614 4 -4 4 2 362. 4. 1375. <
2615 4 -2 4 2 136. -339. 1684. <
2616 4 6 4 2 35. -321. 889. <
2617 4 8 4 2 23. -67. 1093. <
2618 4 10 4 2 64. 303. 2409. <
2619 4 12 4 2 440. -236. 2127. <
2620 4 14 4 2 441. 473. 2854. <
2621 4 16 4 2 280. -372. 3506. <
2622 4 -11 5 2 157. -1239. 4427. <
2623 4 -9 5 2 42. 102. 3647. <
2624 4 -7 5 2 4. 207. 2955. <
2625 4 -3 5 2 32. -387. 1431. <
2626 4 11 5 2 178. -1586. 3414. <
2627 4 -26 0 4 4565. 5099. 5703. <
2628 4 -24 0 4 2285. 1185. 4159. <
2629 4 -22 0 4 1649. 1353. 3674. <
2630 4 -20 0 4 2166. 2365. 2835. <
2631 4 -18 0 4 4833. 5474. 3985. <
2632 4 -16 0 4 9116. 12244. 2070. o
2633 4 -14 0 4 9200. 10350. 1491. o
2634 4 -12 0 4 5668. 6961. 1527. o
2635 4 -10 0 4 5448. 7758. 1187. o
2636 4 -8 0 4 9607. 11249. 981. o
2637 4 -6 0 4 11292. 11576. 696. o
2638 4 -4 0 4 12000. 12940. 796. o
2639 4 -2 0 4 12762. 15169. 698. o
2640 4 0 0 4 13189. 14408. 783. o
2641 4 2 0 4 10331. 11495. 811. o
2642 4 4 0 4 11279. 9673. 857. o
2643 4 6 0 4 8197. 7065. 1164. o
2644 4 8 0 4 5237. 3962. 912. o
2645 4 10 0 4 5369. 4636. 1080. o
2646 4 12 0 4 10648. 9800. 1569. o
2647 4 14 0 4 7660. 5752. 1884. o
2648 4 16 0 4 3013. 1769. 2249. <
2649 4 18 0 4 1376. 1779. 3909. <
2650 4 20 0 4 2430. 2928. 3044. <
2651 4 22 0 4 2571. 2048. 4640. <
2652 4 24 0 4 3979. 2600. 5430. <
2653 4 26 0 4 3643. 1229. 6587. <
2654 4 -29 1 4 1910. -314. 8566. <
2655 4 -27 1 4 14. 129. 6367. <
2656 4 -25 1 4 125. 557. 4522. <
2657 4 -23 1 4 591. 583. 2706. <
2658 4 -21 1 4 1376. 64. 2616. <
2659 4 -19 1 4 381. 861. 1777. <
2660 4 -17 1 4 2051. 308. 1375. <
2661 4 -15 1 4 245. -43. 1057. <
2662 4 -13 1 4 415. 88. 1076. <
2663 4 -11 1 4 445. 20. 538. <
2664 4 -9 1 4 1357. 194. 548. <
2665 4 -7 1 4 3. 349. 426. <
2666 4 -5 1 4 1341. -19. 503. <
2667 4 -3 1 4 661. 67. 390. <
2668 4 -1 1 4 822. -23. 373. <
2669 4 1 1 4 133. 72. 344. <
2670 4 3 1 4 91. 50. 436. <
2671 4 5 1 4 1187. 118. 570. <
2672 4 7 1 4 402. 0. 588. <
2673 4 9 1 4 30. 291. 756. <
2674 4 11 1 4 237. -119. 938. <
2675 4 13 1 4 279. -142. 1600. <
2676 4 15 1 4 70. 581. 1417. <
2677 4 17 1 4 1599. 372. 1806. <
2678 4 19 1 4 1. -326. 2375. <
2679 4 21 1 4 168. 161. 3306. <
2680 4 23 1 4 145. 320. 3386. <
2681 4 25 1 4 951. -369. 6765. <
2682 4 -26 2 4 3466. 3169. 5435. <
2683 4 -24 2 4 1681. -480. 4939. <
2684 4 -22 2 4 1121. 1242. 3477. <
2685 4 -20 2 4 1393. 1504. 1984. <
2686 4 -18 2 4 3301. 2482. 1869. <
2687 4 -16 2 4 6345. 4075. 1099. o
2688 4 -14 2 4 6030. 4221. 1132. o
2689 4 -12 2 4 3366. 2930. 823. o
2690 4 -10 2 4 3142. 3430. 676. o
2691 4 -8 2 4 5544. 5825. 801. o
2692 4 -6 2 4 6227. 6752. 485. o
2693 4 -4 2 4 6604. 9465. 497. o
2694 4 -2 2 4 7061. 12264. 484. o
2695 4 0 2 4 7176. 6621. 426. o
2696 4 2 2 4 5561. 5170. 468. o
2697 4 4 2 4 6496. 5187. 653. o
2698 4 6 2 4 4739. 4188. 675. o
2699 4 8 2 4 2959. 2061. 680. o
2700 4 10 2 4 3284. 2369. 906. <
2701 4 12 2 4 7318. 6370. 1329. o
2702 4 14 2 4 5252. 2944. 1502. <
2703 4 16 2 4 1969. 1258. 1871. <
2704 4 18 2 4 904. 1255. 2359. <
2705 4 20 2 4 1749. 2228. 4393. <
2706 4 22 2 4 1862. -716. 5634. <
2707 4 -21 3 4 874. 602. 4019. <
2708 4 -19 3 4 182. -169. 3091. <
2709 4 -17 3 4 1192. -404. 2541. <
2710 4 -15 3 4 165. 507. 1517. <
2711 4 -13 3 4 210. -210. 1171. <
2712 4 -11 3 4 368. 49. 922. <
2713 4 -9 3 4 722. 89. 2050. <
2714 4 -7 3 4 1. 289. 1716. <
2715 4 -5 3 4 647. -6. 1289. <
2716 4 -1 3 4 456. -64. 1777. <
2717 4 1 3 4 81. -49. 1011. <
2718 4 3 3 4 35. 26. 743. <
2719 4 5 3 4 647. 51. 757. <
2720 4 7 3 4 284. -163. 891. <
2721 4 9 3 4 17. -11. 1058. <
2722 4 11 3 4 147. -4. 1372. <
2723 4 13 3 4 145. -136. 1697. <
2724 4 15 3 4 32. 821. 2554. <
2725 4 17 3 4 1048. 212. 3694. <
2726 4 19 3 4 1. -3062. 7099. <
2727 4 -16 4 4 2672. 2610. 6412. <
2728 4 -14 4 4 2212. 2869. 4269. <
2729 4 -12 4 4 981. 284. 4239. <
2730 4 -10 4 4 925. 899. 3144. <
2731 4 -8 4 4 1688. 1440. 2303. <
2732 4 -6 4 4 1703. 2083. 2019. <
2733 4 -4 4 4 1927. 3263. 1899. <
2734 4 0 4 4 2065. 2388. 1592. <
2735 4 2 4 4 1467. 1135. 1352. <
2736 4 4 4 4 2042. 3231. 1662. <
2737 4 6 4 4 1436. 2268. 1131. <
2738 4 8 4 4 763. 1032. 1620. <
2739 4 10 4 4 1039. 666. 2075. <
2740 4 12 4 4 3052. 2994. 3339. <
2741 4 14 4 4 2072. 2718. 3086. <
2742 4 -9 5 4 296. -1277. 5011. <
2743 4 -7 5 4 1. -1465. 4428. <
2744 4 -5 5 4 238. 279. 3198. <
2745 4 -3 5 4 209. 367. 2977. <
2746 4 9 5 4 9. -1819. 3957. <
2747 4 -26 0 5 908. -136. 5731. <
2748 4 -24 0 5 0. 1257. 4445. <
2749 4 -22 0 5 711. 521. 3716. <
2750 4 -20 0 5 1833. 290. 3130. <
2751 4 -18 0 5 0. -143. 2708. <
2752 4 -16 0 5 853. -58. 1806. <
2753 4 -14 0 5 2139. 1119. 1635. <
2754 4 -12 0 5 301. 146. 1464. <
2755 4 -10 0 5 422. 221. 1299. <
2756 4 -8 0 5 1571. 98. 809. <
2757 4 -6 0 5 838. 269. 797. <
2758 4 -4 0 5 1320. 4. 553. <
2759 4 -2 0 5 705. 31. 650. <
2760 4 0 0 5 524. 358. 709. <
2761 4 2 0 5 899. -75. 806. <
2762 4 4 0 5 727. 253. 1169. <
2763 4 6 0 5 1143. 187. 950. <
2764 4 8 0 5 337. -44. 1119. <
2765 4 10 0 5 5. 624. 1361. <
2766 4 12 0 5 1057. -138. 1397. <
2767 4 14 0 5 1370. 315. 1724. <
2768 4 16 0 5 128. -210. 2232. <
2769 4 18 0 5 90. 1426. 4472. <
2770 4 20 0 5 711. 568. 3857. <
2771 4 22 0 5 1. -63. 4232. <
2772 4 24 0 5 101. 359. 9042. <
2773 4 26 0 5 300. -1872. 10120. <
2774 4 -29 1 5 238. 2816. 10250. <
2775 4 -27 1 5 1073. -1933. 9361. <
2776 4 -25 1 5 59. -933. 4673. <
2777 4 -23 1 5 13. 241. 2675. <
2778 4 -21 1 5 318. 475. 2697. <
2779 4 -19 1 5 160. -70. 1702. <
2780 4 -17 1 5 306. 594. 1389. <
2781 4 -15 1 5 1033. 525. 1028. <
2782 4 -13 1 5 38. 70. 768. <
2783 4 -11 1 5 39. 200. 746. <
2784 4 -9 1 5 146. -44. 677. <
2785 4 -7 1 5 501. 296. 629. <
2786 4 -5 1 5 348. 602. 610. <
2787 4 -3 1 5 418. 386. 554. <
2788 4 -1 1 5 23. 59. 441. <
2789 4 1 1 5 886. 357. 470. <
2790 4 3 1 5 300. 360. 584. <
2791 4 5 1 5 50. 53. 665. <
2792 4 7 1 5 195. -48. 687. <
2793 4 9 1 5 336. 256. 850. <
2794 4 11 1 5 211. 162. 1056. <
2795 4 13 1 5 530. -104. 1562. <
2796 4 15 1 5 136. -110. 1605. <
2797 4 17 1 5 46. -421. 2115. <
2798 4 19 1 5 438. 250. 2564. <
2799 4 21 1 5 1. -536. 3491. <
2800 4 23 1 5 631. 2004. 5253. <
2801 4 -26 2 5 754. -112. 5477. <
2802 4 -22 2 5 593. -167. 3206. <
2803 4 -20 2 5 1504. 412. 1984. <
2804 4 -18 2 5 0. -63. 1643. <
2805 4 -16 2 5 647. -102. 1152. <
2806 4 -14 2 5 1634. 192. 1135. <
2807 4 -12 2 5 235. 171. 876. <
2808 4 -10 2 5 354. 206. 715. <
2809 4 -8 2 5 1136. 4. 689. <
2810 4 -6 2 5 562. 26. 667. <
2811 4 -4 2 5 915. 237. 637. <
2812 4 -2 2 5 532. -59. 638. <
2813 4 0 2 5 387. 46. 544. <
2814 4 2 2 5 620. -100. 525. <
2815 4 4 2 5 491. 1. 811. <
2816 4 6 2 5 856. -263. 687. <
2817 4 8 2 5 290. 177. 820. <
2818 4 10 2 5 4. 137. 1032. <
2819 4 12 2 5 787. 79. 1452. <
2820 4 14 2 5 1069. -93. 1726. <
2821 4 16 2 5 90. -481. 3159. <
2822 4 18 2 5 78. 92. 2620. <
2823 4 20 2 5 576. -78. 4665. <
2824 4 22 2 5 0. 339. 7761. <
2825 4 -21 3 5 222. -1986. 4486. <
2826 4 -19 3 5 72. -409. 5072. <
2827 4 -17 3 5 160. 3. 2687. <
2828 4 -15 3 5 654. 221. 1258. <
2829 4 -13 3 5 14. -389. 1977. <
2830 4 -11 3 5 6. 31. 865. <
2831 4 -9 3 5 107. 113. 2112. <
2832 4 -7 3 5 259. -239. 1733. <
2833 4 -5 3 5 123. 708. 1514. <
2834 4 -3 3 5 175. 38. 1079. <
2835 4 -1 3 5 13. 590. 1289. <
2836 4 1 3 5 426. 191. 715. <
2837 4 3 3 5 96. 326. 776. <
2838 4 5 3 5 18. -235. 808. <
2839 4 7 3 5 123. -29. 1032. <
2840 4 9 3 5 153. -56. 1249. <
2841 4 11 3 5 96. -31. 1460. <
2842 4 13 3 5 342. -4. 1959. <
2843 4 15 3 5 75. -416. 2818. <
2844 4 17 3 5 14. -918. 3862. <
2845 4 -16 4 5 319. -246. 7259. <
2846 4 -14 4 5 827. -1158. 5189. <
2847 4 -10 4 5 235. 370. 4165. <
2848 4 2 4 5 281. 298. 1797. <
2849 4 6 4 5 446. 79. 1341. <
2850 4 8 4 5 199. 472. 1778. <
2851 4 10 4 5 2. -564. 2230. <
2852 4 12 4 5 365. -609. 4093. <
2853 4 14 4 5 567. -1330. 4806. <
2854 4 -24 0 7 314. 166. 4676. <
2855 4 -22 0 7 1186. 289. 4005. <
2856 4 -20 0 7 1017. 219. 3133. <
2857 4 -18 0 7 1331. 153. 2562. <
2858 4 -16 0 7 17. 21. 2635. <
2859 4 -14 0 7 3090. 710. 3195. <
2860 4 -12 0 7 19. -56. 1465. <
2861 4 -10 0 7 2063. -23. 1137. <
2862 4 -8 0 7 1277. 20. 1087. <
2863 4 -6 0 7 1425. -114. 791. <
2864 4 -4 0 7 95. -113. 1052. <
2865 4 -2 0 7 1431. 64. 865. <
2866 4 0 0 7 1273. 59. 1004. <
2867 4 2 0 7 1808. 391. 2225. <
2868 4 4 0 7 86. 325. 1448. <
2869 4 6 0 7 322. 786. 1634. <
2870 4 8 0 7 1512. 60. 1703. <
2871 4 10 0 7 221. 384. 1927. <
2872 4 12 0 7 674. -456. 2189. <
2873 4 14 0 7 362. 10. 2574. <
2874 4 16 0 7 0. 1244. 4110. <
2875 4 18 0 7 108. 261. 3913. <
2876 4 20 0 7 2269. -720. 4702. <
2877 4 22 0 7 161. 1013. 5677. <
2878 4 24 0 7 2. 888. 8803. <
2879 4 -27 1 7 1579. 764. 6742. <
2880 4 -25 1 7 3153. 1016. 5553. <
2881 4 -23 1 7 5383. 5305. 4340. <
2882 4 -21 1 7 5465. 6163. 2279. <
2883 4 -19 1 7 4727. 5145. 2275. <
2884 4 -17 1 7 2100. 1902. 1511. <
2885 4 -15 1 7 3650. 3086. 1305. <
2886 4 -13 1 7 7975. 10323. 1249. o
2887 4 -11 1 7 9939. 11649. 1214. o
2888 4 -9 1 7 6627. 6344. 899. o
2889 4 -7 1 7 7631. 6441. 741. o
2890 4 -5 1 7 8533. 10674. 824. o
2891 4 -3 1 7 7351. 7463. 911. o
2892 4 -1 1 7 7338. 7976. 875. o
2893 4 1 1 7 8965. 8038. 874. o
2894 4 3 1 7 7206. 5649. 977. o
2895 4 5 1 7 6431. 6330. 927. o
2896 4 7 1 7 9233. 8956. 1033. o
2897 4 9 1 7 6975. 6784. 1287. o
2898 4 11 1 7 2394. 3659. 2910. <
2899 4 13 1 7 2040. 2229. 1727. <
2900 4 15 1 7 5531. 4656. 2134. <
2901 4 17 1 7 5417. 4170. 2567. <
2902 4 19 1 7 3407. 2651. 3843. <
2903 4 21 1 7 2250. 1640. 5823. <
2904 4 -24 2 7 225. -275. 6104. <
2905 4 -22 2 7 901. 15. 6620. <
2906 4 -20 2 7 864. 728. 2958. <
2907 4 -18 2 7 1015. -342. 1873. <
2908 4 -16 2 7 29. 77. 1743. <
2909 4 -14 2 7 2324. -111. 1233. <
2910 4 -12 2 7 19. 628. 1355. <
2911 4 -10 2 7 1494. -24. 1083. <
2912 4 -8 2 7 1073. 124. 1145. <
2913 4 -6 2 7 1039. -92. 1028. <
2914 4 -4 2 7 85. 221. 987. <
2915 4 -2 2 7 1002. 219. 1052. <
2916 4 0 2 7 983. 6. 866. <
2917 4 2 2 7 1393. 151. 885. <
2918 4 4 2 7 73. 301. 1181. <
2919 4 6 2 7 234. 283. 1007. <
2920 4 8 2 7 1161. -44. 1250. <
2921 4 10 2 7 192. 99. 1833. <
2922 4 12 2 7 540. 19. 1950. <
2923 4 14 2 7 300. -309. 3550. <
2924 4 16 2 7 0. 448. 2752. <
2925 4 18 2 7 95. -191. 7923. <
2926 4 -21 3 7 3146. 1792. 6933. <
2927 4 -19 3 7 2477. 1797. 3871. <
2928 4 -17 3 7 854. 667. 3142. <
2929 4 -15 3 7 1678. 685. 1987. <
2930 4 -13 3 7 3934. 3934. 1427. <
2931 4 -11 3 7 4647. 4834. 2791. <
2932 4 -9 3 7 2831. 1612. 928. <
2933 4 -7 3 7 3373. 3945. 3310. <
2934 4 -5 3 7 3586. 4310. 1005. o
2935 4 -3 3 7 2858. 4350. 1184. o
2936 4 -1 3 7 3020. 4887. 1160. o
2937 4 1 3 7 3957. 4606. 1428. o
2938 4 3 3 7 3018. 3393. 1186. <
2939 4 5 3 7 2775. 2470. 1328. <
2940 4 7 3 7 4571. 4344. 1381. o
2941 4 9 3 7 3394. 3236. 1599. <
2942 4 11 3 7 968. 963. 2420. <
2943 4 13 3 7 925. 220. 2742. <
2944 4 15 3 7 3117. 6284. 6889. <
2945 4 -14 4 7 1146. -1225. 6940. <
2946 4 -12 4 7 13. -30. 6514. <
2947 4 -10 4 7 697. -296. 6440. <
2948 4 -6 4 7 507. -1449. 4386. <
2949 4 6 4 7 99. -380. 2066. <
2950 4 8 4 7 597. -534. 2676. <
2951 4 10 4 7 133. 733. 3178. <
2952 4 12 4 7 310. 1030. 5420. <
2953 4 -24 0 8 2993. 1695. 5176. <
2954 4 -22 0 8 1493. 1533. 5796. <
2955 4 -20 0 8 1492. 160. 3452. <
2956 4 -18 0 8 81. 2070. 4365. <
2957 4 -16 0 8 1376. 505. 2507. <
2958 4 -14 0 8 439. 588. 2076. <
2959 4 -12 0 8 3489. 4269. 2577. <
2960 4 -10 0 8 2087. 3233. 1437. <
2961 4 -8 0 8 2941. 756. 1561. <
2962 4 -6 0 8 144. 550. 986. <
2963 4 -4 0 8 3323. 2689. 1806. <
2964 4 -2 0 8 2123. 2950. 1610. <
2965 4 0 0 8 2073. 1150. 2101. <
2966 4 2 0 8 178. 1607. 1519. <
2967 4 4 0 8 4161. 4772. 1883. <
2968 4 6 0 8 2159. 4017. 2006. <
2969 4 8 0 8 1661. 938. 2009. <
2970 4 10 0 8 253. 136. 2293. <
2971 4 12 0 8 1445. 2046. 2529. <
2972 4 14 0 8 166. -50. 2819. <
2973 4 16 0 8 1207. -255. 5462. <
2974 4 18 0 8 1930. 2506. 4765. <
2975 4 20 0 8 1779. 998. 5745. <
2976 4 22 0 8 31. -1065. 10334. <
2977 4 -27 1 8 10. -458. 9512. <
2978 4 -23 1 8 140. 314. 4647. <
2979 4 -21 1 8 597. 72. 2523. <
2980 4 -19 1 8 1979. 401. 2076. <
2981 4 -17 1 8 1417. 180. 2111. <
2982 4 -15 1 8 17. 44. 1553. <
2983 4 -13 1 8 2798. 301. 1584. <
2984 4 -11 1 8 1625. -89. 1161. <
2985 4 -9 1 8 1368. -9. 817. <
2986 4 -7 1 8 693. 19. 858. <
2987 4 -5 1 8 1269. 108. 900. <
2988 4 -3 1 8 1356. -85. 925. <
2989 4 -1 1 8 2242. -104. 1035. <
2990 4 1 1 8 852. -327. 1049. <
2991 4 3 1 8 739. -128. 1045. <
2992 4 5 1 8 399. -33. 1061. <
2993 4 7 1 8 1330. -197. 1282. <
2994 4 9 1 8 2297. 1206. 2257. <
2995 4 11 1 8 29. -266. 2127. <
2996 4 13 1 8 16. 202. 2005. <
2997 4 15 1 8 1592. 221. 2325. <
2998 4 17 1 8 735. -262. 3115. <
2999 4 19 1 8 1. 237. 3702. <
3000 4 -24 2 8 2324. 1704. 8842. <
3001 4 -22 2 8 1102. -1504. 5523. <
3002 4 -20 2 8 1134. 1634. 4445. <
3003 4 -18 2 8 41. 39. 4723. <
3004 4 -16 2 8 924. 354. 1986. <
3005 4 -12 2 8 2522. 473. 1255. <
3006 4 -10 2 8 1369. 841. 1226. <
3007 4 -8 2 8 1941. 933. 1124. <
3008 4 -6 2 8 61. 221. 885. <
3009 4 -4 2 8 2231. 423. 1241. <
3010 4 -2 2 8 1287. 1206. 1038. <
3011 4 0 2 8 1334. 652. 930. <
3012 4 2 2 8 88. 442. 1107. <
3013 4 4 2 8 2878. 1882. 1177. <
3014 4 6 2 8 1420. 1720. 1440. <
3015 4 8 2 8 1168. 540. 1397. <
3016 4 10 2 8 152. 288. 2200. <
3017 4 12 2 8 1001. 188. 2902. <
3018 4 14 2 8 97. -303. 2497. <
3019 4 16 2 8 936. 192. 5040. <
3020 4 18 2 8 1481. 1783. 9759. <
3021 4 -19 3 8 1383. -152. 4588. <
3022 4 -17 3 8 938. 92. 2778. <
3023 4 -15 3 8 25. -458. 2260. <
3024 4 -13 3 8 1701. -363. 3501. <
3025 4 -11 3 8 1007. 377. 1492. <
3026 4 -9 3 8 838. 377. 1488. <
3027 4 -7 3 8 526. 622. 2827. <
3028 4 -5 3 8 764. 193. 1630. <
3029 4 -3 3 8 802. -514. 1604. <
3030 4 -1 3 8 1313. -72. 1746. <
3031 4 1 3 8 579. 53. 1336. <
3032 4 3 3 8 509. 72. 1643. <
3033 4 5 3 8 250. -321. 1870. <
3034 4 7 3 8 779. -161. 2067. <
3035 4 9 3 8 1484. -285. 2408. <
3036 4 11 3 8 35. -437. 2967. <
3037 4 13 3 8 13. 775. 3455. <
3038 4 6 4 8 493. 457. 2495. <
3039 4 8 4 8 497. -362. 3168. <
3040 4 10 4 8 41. 1533. 3623. <
3041 4 -22 0 10 1208. 2245. 4953. <
3042 4 -20 0 10 3504. 2007. 5767. <
3043 4 -18 0 10 5497. 7864. 3624. <
3044 4 -16 0 10 6964. 3904. 4104. <
3045 4 -14 0 10 2034. 2134. 2227. <
3046 4 -12 0 10 3429. 3006. 2245. <
3047 4 -10 0 10 5022. 5930. 1936. o
3048 4 -8 0 10 6399. 3675. 1626. <
3049 4 -6 0 10 3887. 5902. 2003. <
3050 4 -4 0 10 7003. 10468. 2574. o
3051 4 -2 0 10 5537. 6890. 1861. o
3052 4 0 0 10 4709. 3913. 1912. <
3053 4 2 0 10 4555. 6564. 2315. <
3054 4 4 0 10 5908. 7166. 2735. <
3055 4 6 0 10 2326. 3558. 3108. <
3056 4 8 0 10 2652. 2284. 3169. <
3057 4 10 0 10 5777. 6423. 4991. <
3058 4 12 0 10 5829. 7267. 3642. <
3059 4 14 0 10 1562. 1647. 4299. <
3060 4 16 0 10 1155. 377. 5178. <
3061 4 18 0 10 1964. 689. 6929. <
3062 4 -25 1 10 748. 993. 10716. <
3063 4 -23 1 10 2393. -1296. 8068. <
3064 4 -21 1 10 133. -14. 4815. <
3065 4 -19 1 10 2129. -310. 3672. <
3066 4 -17 1 10 408. -333. 2889. <
3067 4 -15 1 10 1487. -673. 3217. <
3068 4 -13 1 10 674. 193. 1670. <
3069 4 -11 1 10 1760. -488. 1501. <
3070 4 -9 1 10 14. 364. 1061. <
3071 4 -7 1 10 2258. 43. 1240. <
3072 4 -5 1 10 1242. 214. 1368. <
3073 4 -3 1 10 1490. -244. 1533. <
3074 4 -1 1 10 100. 609. 1583. <
3075 4 1 1 10 655. 492. 1407. <
3076 4 3 1 10 1533. 192. 1456. <
3077 4 5 1 10 1197. 67. 1856. <
3078 4 7 1 10 114. -588. 1797. <
3079 4 9 1 10 487. -24. 3362. <
3080 4 11 1 10 386. -918. 2945. <
3081 4 13 1 10 208. -702. 2871. <
3082 4 15 1 10 1498. 69. 3370. <
3083 4 17 1 10 30. -43. 4261. <
3084 4 -22 2 10 810. 3436. 7062. <
3085 4 -20 2 10 2580. 1441. 3781. <
3086 4 -18 2 10 4119. 3374. 4381. <
3087 4 -16 2 10 5104. 3570. 3126. <
3088 4 -14 2 10 1321. 1672. 2373. <
3089 4 -12 2 10 2364. 1927. 1737. <
3090 4 -10 2 10 3457. 4624. 1693. <
3091 4 -8 2 10 4343. 3210. 1820. <
3092 4 -6 2 10 2556. 1643. 1437. <
3093 4 -4 2 10 4893. 1658. 1329. <
3094 4 -2 2 10 3721. 2002. 1758. <
3095 4 0 2 10 3115. 1956. 2299. <
3096 4 2 2 10 3112. 3856. 1878. <
3097 4 4 2 10 4163. 3232. 2361. <
3098 4 6 2 10 1510. 915. 1794. <
3099 4 8 2 10 1823. 1740. 2449. <
3100 4 10 2 10 4317. 2988. 3314. <
3101 4 12 2 10 4354. 1972. 3977. <
3102 4 14 2 10 1076. 1472. 5584. <
3103 4 -17 3 10 299. -1026. 4967. <
3104 4 -15 3 10 920. 343. 3536. <
3105 4 -13 3 10 557. -122. 3054. <
3106 4 -11 3 10 1081. -83. 2420. <
3107 4 -9 3 10 13. -1166. 4030. <
3108 4 -3 3 10 957. -516. 2787. <
3109 4 -1 3 10 78. 249. 2646. <
3110 4 1 3 10 368. 468. 3285. <
3111 4 3 3 10 1016. -175. 2017. <
3112 4 5 3 10 831. -134. 2686. <
3113 4 7 3 10 85. -280. 2962. <
3114 4 9 3 10 310. -427. 3516. <
3115 4 4 4 10 1732. 69. 3558. <
3116 4 -20 0 11 5. 137. 5571. <
3117 4 -16 0 11 2137. -718. 2934. <
3118 4 -14 0 11 1416. 204. 2615. <
3119 4 -12 0 11 110. -1215. 3006. <
3120 4 -10 0 11 2696. 9. 1816. <
3121 4 -8 0 11 1489. 217. 1806. <
3122 4 -6 0 11 2715. -21. 2276. <
3123 4 -2 0 11 962. -745. 3045. <
3124 4 0 0 11 1093. 43. 3124. <
3125 4 2 0 11 2361. 724. 4066. <
3126 4 4 0 11 1475. 111. 4263. <
3127 4 8 0 11 58. -159. 5626. <
3128 4 10 0 11 2096. 1190. 6346. <
3129 4 14 0 11 3. -105. 5114. <
3130 4 16 0 11 165. 1960. 6844. <
3131 4 -23 1 11 105. -1392. 9408. <
3132 4 -15 1 11 1318. 3016. 2456. <
3133 4 -13 1 11 3384. 1574. 1991. <
3134 4 -11 1 11 313. 654. 1562. <
3135 4 -9 1 11 3994. 1472. 1459. <
3136 4 -7 1 11 3078. 104. 2243. <
3137 4 -5 1 11 4050. 2151. 1674. <
3138 4 -3 1 11 341. -213. 2665. <
3139 4 -1 1 11 5219. 5536. 1734. o
3140 4 1 1 11 2988. 3327. 1674. <
3141 4 3 1 11 2281. 1556. 2577. <
3142 4 5 1 11 278. 2058. 3866. <
3143 4 7 1 11 3998. 2717. 3102. <
3144 4 9 1 11 1563. 3245. 5069. <
3145 4 11 1 11 2188. -750. 6634. <
3146 4 13 1 11 1500. 2181. 3871. <
3147 4 15 1 11 2447. -510. 6335. <
3148 4 -20 2 11 2. -775. 5489. <
3149 4 -12 2 11 116. -114. 2987. <
3150 4 -10 2 11 2107. -406. 2541. <
3151 4 -8 2 11 1189. -160. 2262. <
3152 4 -6 2 11 2129. -60. 1699. <
3153 4 -4 2 11 441. 67. 2362. <
3154 4 -2 2 11 770. -100. 3646. <
3155 4 0 2 11 875. 35. 3807. <
3156 4 2 2 11 1835. 421. 2337. <
3157 4 4 2 11 1217. -49. 2747. <
3158 4 6 2 11 282. -78. 2657. <
3159 4 8 2 11 49. 304. 3655. <
3160 4 10 2 11 1673. 1166. 5337. <
3161 4 12 2 11 1615. 3667. 8653. <
3162 4 -17 3 11 2192. 812. 5899. <
3163 4 -15 3 11 660. 396. 4840. <
3164 4 -11 3 11 101. 408. 6635. <
3165 4 -9 3 11 2227. -64. 6709. <
3166 4 1 3 11 1456. 1004. 3390. <
3167 4 3 3 11 1190. 1369. 2934. <
3168 4 5 3 11 105. 520. 3289. <
3169 4 7 3 11 2234. 1592. 3809. <
3170 4 -16 0 13 1571. 1662. 6112. <
3171 4 -14 0 13 72. -467. 4300. <
3172 4 -12 0 13 1691. -88. 3013. <
3173 4 -10 0 13 1044. 157. 3757. <
3174 4 -8 0 13 926. 1284. 3311. <
3175 4 -6 0 13 24. 325. 2813. <
3176 4 -4 0 13 1198. -548. 2815. <
3177 4 -2 0 13 1213. 677. 3656. <
3178 4 0 0 13 1271. -205. 5612. <
3179 4 2 0 13 17. -721. 5261. <
3180 4 4 0 13 395. 82. 6288. <
3181 4 6 0 13 951. 2179. 7503. <
3182 4 8 0 13 530. -1969. 8091. <
3183 4 10 0 13 387. -1782. 8162. <
3184 4 -19 1 13 160. 1086. 8680. <
3185 4 -9 1 13 2389. 1968. 4353. <
3186 4 -7 1 13 1857. 2126. 4868. <
3187 4 -5 1 13 2251. 674. 5713. <
3188 4 -3 1 13 912. 1259. 2702. <
3189 4 1 1 13 1275. 1840. 3976. <
3190 4 3 1 13 1525. 490. 3111. <
3191 4 5 1 13 2051. 1690. 4293. <
3192 4 7 1 13 3304. 2216. 3661. <
3193 4 9 1 13 306. 657. 7097. <
3194 4 13 1 13 1630. 2214. 9575. <
3195 4 -18 2 13 45. -1937. 7895. <
3196 4 -14 2 13 62. 223. 7367. <
3197 4 -12 2 13 1351. -432. 6171. <
3198 4 -10 2 13 914. 584. 3279. <
3199 4 -6 2 13 23. 51. 3285. <
3200 4 -2 2 13 1018. -769. 3475. <
3201 4 4 2 13 306. -1886. 6798. <
3202 4 6 2 13 788. -502. 5256. <
3203 4 -12 0 14 2518. 6575. 4032. <
3204 4 -10 0 14 4390. 1154. 3558. <
3205 4 -2 0 14 2979. 874. 4520. <
3206 4 0 0 14 187. 15. 5416. <
3207 4 2 0 14 5108. 1977. 6239. <
3208 4 4 0 14 2727. 1286. 7602. <
3209 4 -7 1 14 1225. -548. 3213. <
3210 4 -5 1 14 1108. -637. 5551. <
3211 4 -3 1 14 2458. -400. 6050. <
3212 4 -1 1 14 410. -604. 5763. <
3213 4 1 1 14 386. 1362. 4520. <
3214 4 3 1 14 250. -203. 7452. <
3215 4 -12 2 14 1851. 1726. 5901. <
3216 4 -8 2 14 118. -925. 6017. <
3217 4 -3 1 16 2. 188. 10115. <
3218 4 2 -2 0 972. 1109. 272. o
3218 3 2 2 0 972. 1109. 272. o
3218 2 4 0 -6 972. 1109. 272. o
3218 1 0 0 6 972. 1109. 272. o
3219 4 3 -3 0 1605. 368. 762. <
3219 3 3 3 0 1605. 368. 762. <
3219 2 6 0 -9 1605. 368. 762. <
3219 1 0 0 9 1605. 368. 762. <
3220 4 -3 1 6 51257. 61791. 1254. o
3220 3 1 -1 -6 51257. 61791. 1254. o
3220 2 -2 -2 3 51257. 61791. 1254. o
3220 1 0 2 -3 51257. 61791. 1254. o
3221 4 1 1 -6 50818. 55368. 1493. o
3221 3 -3 -1 6 50818. 55368. 1493. o
3221 2 -2 2 3 50818. 55368. 1493. o
3221 1 0 -2 -3 50818. 55368. 1493. o
3222 4 -4 2 6 2046. 501. 636. <
3222 3 0 -2 -6 2046. 501. 636. <
3222 2 -4 -2 6 2046. 501. 636. <
3222 1 0 2 -6 2046. 501. 636. <
3223 4 0 -2 6 1991. 775. 1960. <
3223 3 4 2 -6 1991. 775. 1960. <
3223 2 4 -2 -6 1991. 775. 1960. <
3223 1 0 2 6 1991. 775. 1960. <
3224 4 1 -3 6 1315. 98. 2055. <
3224 3 5 3 -6 1315. 98. 2055. <
3224 2 6 -2 -9 1315. 98. 2055. <
3224 1 0 2 9 1315. 98. 2055. <
3225 4 2 -4 6 56563. 53204. 6465. o
3225 3 6 4 -6 56563. 53204. 6465. o
3225 2 8 -2 -12 56563. 53204. 6465. o
3225 1 0 2 12 56563. 53204. 6465. o
3226 2 8 -2 -13 4003. -320. 4467. <
3226 1 0 2 13 4003. -320. 4467. <
3227 2 10 -2 -14 6239. 499. 3938. <
3227 1 0 2 14 6239. 499. 3938. <
3228 4 -4 0 12 593372. 590437. 5614. o
3228 3 4 0 -12 593372. 590437. 5614. o
3228 2 0 -4 0 593372. 590437. 5614. o
3228 1 0 4 0 593372. 590437. 5614. o
3229 2 0 -4 1 11. -985. 3990. <
3229 1 0 4 -1 11. -985. 3990. <
3230 2 2 -4 -2 876. 1494. 4874. <
3230 1 0 4 2 876. 1494. 4874. <
3231 4 -5 1 12 24835. 37279. 4330. o
3231 3 3 -1 -12 24835. 37279. 4330. o
3231 2 -2 -4 3 24835. 37279. 4330. o
3231 1 0 4 -3 24835. 37279. 4330. o
3232 4 -3 -1 12 24107. 37935. 3933. o
3232 3 5 1 -12 24107. 37935. 3933. o
3232 2 2 -4 -3 24107. 37935. 3933. o
3232 1 0 4 3 24107. 37935. 3933. o
3233 2 4 -4 -5 1327. -2579. 4174. <
3233 1 0 4 5 1327. -2579. 4174. <
3234 4 -6 2 12 4372. 3058. 4427. <
3234 3 2 -2 -12 4372. 3058. 4427. <
3234 2 -4 -4 6 4372. 3058. 4427. <
3234 1 0 4 -6 4372. 3058. 4427. <
3235 4 -2 -2 12 4196. 1841. 4452. <
3235 3 6 2 -12 4196. 1841. 4452. <
3235 2 4 -4 -6 4196. 1841. 4452. <
3235 1 0 4 6 4196. 1841. 4452. <
3236 2 -4 -4 7 1451. 3692. 4380. <
3236 1 0 4 -7 1451. 3692. 4380. <
3237 2 -6 -4 8 1195. 688. 4713. <
3237 1 0 4 -8 1195. 688. 4713. <
3238 4 -7 3 12 740. -920. 8038. <
3238 3 1 -3 -12 740. -920. 8038. <
3238 2 -6 -4 9 740. -920. 8038. <
3238 1 0 4 -9 740. -920. 8038. <
3239 4 -1 -3 12 670. -518. 7943. <
3239 3 7 3 -12 670. -518. 7943. <
3239 2 6 -4 -9 670. -518. 7943. <
3239 1 0 4 9 670. -518. 7943. <
3240 2 -6 -4 10 4340. 5912. 5907. <
3240 1 0 4 -10 4340. 5912. 5907. <
3241 2 9 -1 -14 1182. 466. 2992. <
3241 1 -1 1 14 1182. 466. 2992. <
3242 2 7 -1 -13 11750. 11681. 1830. o
3242 1 -1 1 13 11750. 11681. 1830. o
3243 4 2 -4 3 1667. 2806. 1772. <
3243 3 4 4 -3 1667. 2806. 1772. <
3243 2 7 -1 -12 1667. 2806. 1772. <
3243 1 -1 1 12 1667. 2806. 1772. <
3244 4 1 -3 3 12077. 23218. 1306. o
3244 3 3 3 -3 12077. 23218. 1306. o
3244 2 5 -1 -9 12077. 23218. 1306. o
3244 1 -1 1 9 12077. 23218. 1306. o
3245 4 0 -2 3 54326. 83043. 1550. o
3245 3 2 2 -3 54326. 83043. 1550. o
3245 2 3 -1 -6 54326. 83043. 1550. o
3245 1 -1 1 6 54326. 83043. 1550. o
3246 4 1 1 -3 83591. 84072. 652. o
3246 3 -1 -1 3 83591. 84072. 652. o
3246 2 -1 1 3 83591. 84072. 652. o
3246 1 1 -1 -3 83591. 84072. 652. o
3247 4 -2 0 3 83262. 85333. 952. o
3247 3 0 0 -3 83262. 85333. 952. o
3247 2 -1 -1 0 83262. 85333. 952. o
3247 1 -1 1 0 83262. 85333. 952. o
3248 4 0 0 3 81356. 79146. 970. o
3248 3 2 0 -3 81356. 79146. 970. o
3248 2 1 -1 0 81356. 79146. 970. o
3248 1 1 1 0 81356. 79146. 970. o
3249 4 -3 1 3 5017. 4239. 300. o
3249 3 -1 -1 -3 5017. 4239. 300. o
3249 2 -3 -1 3 5017. 4239. 300. o
3249 1 -1 1 -3 5017. 4239. 300. o
3250 4 1 -1 3 5073. 5110. 602. o
3250 3 3 1 -3 5073. 5110. 602. o
3250 2 3 -1 -3 5073. 5110. 602. o
3250 1 1 1 3 5073. 5110. 602. o
3251 4 -2 2 -3 3533. 3860. 791. o
3251 3 -4 -2 3 3533. 3860. 791. o
3251 2 -5 1 6 3533. 3860. 791. o
3251 1 -1 -1 -6 3533. 3860. 791. o
3252 4 3 -3 3 606904. 768497. 7397. o
3252 3 5 3 -3 606904. 768497. 7397. o
3252 2 7 -1 -9 606904. 768497. 7397. o
3252 1 1 1 9 606904. 768497. 7397. o
3253 4 4 -4 3 132149. 92973. 2238. o
3253 3 6 4 -3 132149. 92973. 2238. o
3253 2 9 -1 -12 132149. 92973. 2238. o
3253 1 1 1 12 132149. 92973. 2238. o
3254 2 9 -1 -13 7482. 4974. 2126. <
3254 1 1 1 13 7482. 4974. 2126. <
3255 2 11 -1 -14 3814. 116. 2942. <
3255 1 1 1 14 3814. 116. 2942. <
3256 4 0 -4 9 964. 64. 9941. <
3256 3 6 4 -9 964. 64. 9941. <
3256 2 7 -3 -12 964. 64. 9941. <
3256 1 -1 3 12 964. 64. 9941. <
3257 2 -5 -3 10 1781. -713. 1697. <
3257 1 1 3 -10 1781. -713. 1697. <
3258 4 -5 3 9 10553. 6043. 1503. o
3258 3 1 -3 -9 10553. 6043. 1503. o
3258 2 -5 -3 9 10553. 6043. 1503. o
3258 1 1 3 -9 10553. 6043. 1503. o
3259 4 -1 -3 9 10691. 5872. 4125. <
3259 3 5 3 -9 10691. 5872. 4125. <
3259 2 5 -3 -9 10691. 5872. 4125. <
3259 1 -1 3 9 10691. 5872. 4125. <
3260 2 5 -3 -8 4697. 268. 4113. <
3260 1 -1 3 8 4697. 268. 4113. <
3261 4 -4 2 9 29217. 10989. 1387. o
3261 3 2 -2 -9 29217. 10989. 1387. o
3261 2 -3 -3 6 29217. 10989. 1387. o
3261 1 1 3 -6 29217. 10989. 1387. o
3262 4 -2 -2 9 28521. 31124. 2805. o
3262 3 4 2 -9 28521. 31124. 2805. o
3262 2 3 -3 -6 28521. 31124. 2805. o
3262 1 -1 3 6 28521. 31124. 2805. o
3263 4 -3 1 9 75799. 91526. 1680. o
3263 3 3 -1 -9 75799. 91526. 1680. o
3263 2 -1 -3 3 75799. 91526. 1680. o
3263 1 1 3 -3 75799. 91526. 1680. o
3264 4 -4 0 9 34578. 38836. 3350. o
3264 3 2 0 -9 34578. 38836. 3350. o
3264 2 -1 -3 0 34578. 38836. 3350. o
3264 1 -1 3 0 34578. 38836. 3350. o
3265 4 2 0 -9 33594. 32143. 1838. o
3265 3 -4 0 9 33594. 32143. 1838. o
3265 2 -1 3 0 33594. 32143. 1838. o
3265 1 -1 -3 0 33594. 32143. 1838. o
3266 4 -5 1 9 9799. 4844. 1276. o
3266 3 1 -1 -9 9799. 4844. 1276. o
3266 2 -3 -3 3 9799. 4844. 1276. o
3266 1 -1 3 -3 9799. 4844. 1276. o
3267 4 -1 -1 9 10000. 5988. 1864. o
3267 3 5 1 -9 10000. 5988. 1864. o
3267 2 3 -3 -3 10000. 5988. 1864. o
3267 1 1 3 3 10000. 5988. 1864. o
3268 4 -6 2 9 2236. 453. 1360. <
3268 3 0 -2 -9 2236. 453. 1360. <
3268 2 -5 -3 6 2236. 453. 1360. <
3268 1 -1 3 -6 2236. 453. 1360. <
3269 4 0 -2 9 2208. 195. 4715. <
3269 3 6 2 -9 2208. 195. 4715. <
3269 2 5 -3 -6 2208. 195. 4715. <
3269 1 1 3 6 2208. 195. 4715. <
3270 4 -7 3 9 323357. 360954. 3177. o
3270 3 -1 -3 -9 323357. 360954. 3177. o
3270 2 -7 -3 9 323357. 360954. 3177. o
3270 1 -1 3 -9 323357. 360954. 3177. o
3271 4 1 -3 9 325556. 424128. 8596. o
3271 3 7 3 -9 325556. 424128. 8596. o
3271 2 7 -3 -9 325556. 424128. 8596. o
3271 1 1 3 9 325556. 424128. 8596. o
3272 2 -7 -3 10 3338. 258. 1400. <
3272 1 -1 3 -10 3338. 258. 1400. <
3273 4 2 -4 9 89837. 39110. 7184. o
3273 3 8 4 -9 89837. 39110. 7184. o
3273 2 9 -3 -12 89837. 39110. 7184. o
3273 1 1 3 12 89837. 39110. 7184. o
3274 4 -4 -2 15 12762. 12561. 9294. <
3274 3 6 2 -15 12762. 12561. 9294. <
3274 2 3 -5 -6 12762. 12561. 9294. <
3274 1 -1 5 6 12762. 12561. 9294. <
3275 2 3 -5 -5 99. -4562. 10655. <
3275 1 -1 5 5 99. -4562. 10655. <
3276 2 1 -5 -4 964. -723. 6801. <
3276 1 -1 5 4 964. -723. 6801. <
3277 4 -5 -1 15 63101. 67597. 7971. o
3277 3 5 1 -15 63101. 67597. 7971. o
3277 2 1 -5 -3 63101. 67597. 7971. o
3277 1 -1 5 3 63101. 67597. 7971. o
3278 2 1 -5 -2 82. -113. 6146. <
3278 1 -1 5 2 82. -113. 6146. <
3279 2 1 -5 1 1648. -67. 6045. <
3279 1 1 5 -1 1648. -67. 6045. <
3280 4 -6 0 15 14380. 8754. 7946. <
3280 3 4 0 -15 14380. 8754. 7946. <
3280 2 -1 -5 0 14380. 8754. 7946. <
3280 1 -1 5 0 14380. 8754. 7946. <
3281 4 -4 0 15 13966. 12520. 8159. <
3281 3 6 0 -15 13966. 12520. 8159. <
3281 2 1 -5 0 13966. 12520. 8159. <
3281 1 1 5 0 13966. 12520. 8159. <
3282 2 3 -5 -2 134. -2604. 6364. <
3282 1 1 5 2 134. -2604. 6364. <
3283 4 -3 -1 15 9025. 3664. 8892. <
3283 3 7 1 -15 9025. 3664. 8892. <
3283 2 3 -5 -3 9025. 3664. 8892. <
3283 1 1 5 3 9025. 3664. 8892. <
3284 2 3 -5 -4 473. 2340. 7055. <
3284 1 1 5 4 473. 2340. 7055. <
3285 2 5 -5 -5 446. -1818. 10886. <
3285 1 1 5 5 446. -1818. 10886. <
3286 4 -2 -2 15 1747. -3598. 11583. <
3286 3 8 2 -15 1747. -3598. 11583. <
3286 2 5 -5 -6 1747. -3598. 11583. <
3286 1 1 5 6 1747. -3598. 11583. <
3287 4 1 -3 0 35790. 40870. 609. o
3287 3 1 3 0 35790. 40870. 609. o
3287 2 4 0 -9 35790. 40870. 609. o
3287 1 -2 0 9 35790. 40870. 609. o
3288 4 0 -2 0 1649980. 1805710. 9523. o
3288 3 0 2 0 1649980. 1805710. 9523. o
3288 2 2 0 -6 1649980. 1805710. 9523. o
3288 1 -2 0 6 1649980. 1805710. 9523. o
3289 4 1 1 0 86241. 87530. 613. o
3289 3 1 -1 0 86241. 87530. 613. o
3289 2 0 0 3 86241. 87530. 613. o
3289 1 2 0 -3 86241. 87530. 613. o
3290 4 -2 0 0 760. 499. 166. o
3290 3 -2 0 0 760. 499. 166. o
3290 2 -2 0 0 760. 499. 166. o
3290 1 -2 0 0 760. 499. 166. o
3291 4 3 -1 0 3694. 4034. 370. o
3291 3 3 1 0 3694. 4034. 370. o
3291 2 4 0 -3 3694. 4034. 370. o
3291 1 2 0 3 3694. 4034. 370. o
3292 4 -4 2 0 24460. 23248. 733. o
3292 3 -4 -2 0 24460. 23248. 733. o
3292 2 -6 0 6 24460. 23248. 733. o
3292 1 -2 0 -6 24460. 23248. 733. o
3293 4 5 -3 0 232142. 244947. 2151. o
3293 3 5 3 0 232142. 244947. 2151. o
3293 2 8 0 -9 232142. 244947. 2151. o
3293 1 2 0 9 232142. 244947. 2151. o
3294 4 1 -5 6 2093. 4369. 8435. <
3294 3 5 5 -6 2093. 4369. 8435. <
3294 2 8 -2 -15 2093. 4369. 8435. <
3294 1 -2 2 15 2093. 4369. 8435. <
3295 2 6 -2 -13 2615. -92. 3711. <
3295 1 -2 2 13 2615. -92. 3711. <
3296 4 0 -4 6 6202. 5364. 3425. <
3296 3 4 4 -6 6202. 5364. 3425. <
3296 2 6 -2 -12 6202. 5364. 3425. <
3296 1 -2 2 12 6202. 5364. 3425. <
3297 4 -1 -3 6 28016. 25955. 1887. o
3297 3 3 3 -6 28016. 25955. 1887. o
3297 2 4 -2 -9 28016. 25955. 1887. o
3297 1 -2 2 9 28016. 25955. 1887. o
3298 4 -2 -2 6 1054730. 1107710. 3614. o
3298 3 2 2 -6 1054730. 1107710. 3614. o
3298 2 2 -2 -6 1054730. 1107710. 3614. o
3298 1 -2 2 6 1054730. 1107710. 3614. o
3299 4 -3 -1 6 53433. 75197. 1986. o
3299 3 1 1 -6 53433. 75197. 1986. o
3299 2 0 -2 -3 53433. 75197. 1986. o
3299 1 -2 2 3 53433. 75197. 1986. o
3300 4 1 -1 -6 52989. 55297. 1202. o
3300 3 -3 1 6 52989. 55297. 1202. o
3300 2 0 2 -3 52989. 55297. 1202. o
3300 1 -2 -2 3 52989. 55297. 1202. o
3301 4 -4 0 6 551. 1189. 741. <
3301 3 0 0 -6 551. 1189. 741. <
3301 2 -2 -2 0 551. 1189. 741. <
3301 1 -2 2 0 551. 1189. 741. <
3302 4 0 0 6 498. 1240. 827. <
3302 3 4 0 -6 498. 1240. 827. <
3302 2 2 -2 0 498. 1240. 827. <
3302 1 2 2 0 498. 1240. 827. <
3303 4 -5 1 6 3120. 2256. 675. o
3303 3 -1 -1 -6 3120. 2256. 675. o
3303 2 -4 -2 3 3120. 2256. 675. o
3303 1 -2 2 -3 3120. 2256. 675. o
3304 4 -1 1 -6 2889. 3671. 1134. o
3304 3 -5 -1 6 2889. 3671. 1134. o
3304 2 -4 2 3 2889. 3671. 1134. o
3304 1 -2 -2 -3 2889. 3671. 1134. o
3305 4 -6 2 6 25087. 26725. 921. o
3305 3 -2 -2 -6 25087. 26725. 921. o
3305 2 -6 -2 6 25087. 26725. 921. o
3305 1 -2 2 -6 25087. 26725. 921. o
3306 4 3 -3 6 177089. 217830. 5243. o
3306 3 7 3 -6 177089. 217830. 5243. o
3306 2 8 -2 -9 177089. 217830. 5243. o
3306 1 2 2 9 177089. 217830. 5243. o
3307 2 8 -2 -10 15594. 17358. 4174. o
3307 1 2 2 10 15594. 17358. 4174. o
3308 4 4 -4 6 5325. 3145. 5838. <
3308 3 8 4 -6 5325. 3145. 5838. <
3308 2 10 -2 -12 5325. 3145. 5838. <
3308 1 2 2 12 5325. 3145. 5838. <
3309 2 10 -2 -13 1665. -592. 4920. <
3309 1 2 2 13 1665. -592. 4920. <
3310 2 12 -2 -14 13242. 10184. 5388. <
3310 1 2 2 14 13242. 10184. 5388. <
3311 2 -4 -4 10 7189. 6110. 6087. <
3311 1 2 4 -10 7189. 6110. 6087. <
3312 4 -5 3 12 16922. 21296. 8741. <
3312 3 3 -3 -12 16922. 21296. 8741. <
3312 2 -4 -4 9 16922. 21296. 8741. <
3312 1 2 4 -9 16922. 21296. 8741. <
3313 4 -3 -3 12 16465. 12225. 7940. <
3313 3 5 3 -12 16465. 12225. 7940. <
3313 2 4 -4 -9 16465. 12225. 7940. <
3313 1 -2 4 9 16465. 12225. 7940. <
3314 2 -4 -4 8 2548. 4471. 5679. <
3314 1 2 4 -8 2548. 4471. 5679. <
3315 2 -2 -4 7 1868. -2287. 3565. <
3315 1 2 4 -7 1868. -2287. 3565. <
3316 4 -4 -2 12 428905. 419727. 4775. o
3316 3 4 2 -12 428905. 419727. 4775. o
3316 2 2 -4 -6 428905. 419727. 4775. o
3316 1 -2 4 6 428905. 419727. 4775. o
3317 2 2 -4 -5 1354. 54. 2829. <
3317 1 -2 4 5 1354. 54. 2829. <
3318 2 0 -4 -4 9262. 13321. 2714. o
3318 1 -2 4 4 9262. 13321. 2714. o
3319 4 -5 -1 12 25661. 37447. 3043. o
3319 3 3 1 -12 25661. 37447. 3043. o
3319 2 0 -4 -3 25661. 37447. 3043. o
3319 1 -2 4 3 25661. 37447. 3043. o
3320 4 -3 1 12 24931. 34056. 4507. o
3320 3 5 -1 -12 24931. 34056. 4507. o
3320 2 0 -4 3 24931. 34056. 4507. o
3320 1 2 4 -3 24931. 34056. 4507. o
3321 2 -2 -4 -1 52. -144. 3873. <
3321 1 -2 4 1 52. -144. 3873. <
3322 4 -6 0 12 4217. 5379. 2531. <
3322 3 2 0 -12 4217. 5379. 2531. <
3322 2 -2 -4 0 4217. 5379. 2531. <
3322 1 -2 4 0 4217. 5379. 2531. <
3323 4 -2 0 12 3998. 4219. 3130. <
3323 3 6 0 -12 3998. 4219. 3130. <
3323 2 2 -4 0 3998. 4219. 3130. <
3323 1 2 4 0 3998. 4219. 3130. <
3324 2 -2 -4 1 73. 362. 3692. <
3324 1 -2 4 -1 73. 362. 3692. <
3325 4 -7 1 12 1838. 2951. 4074. <
3325 3 1 -1 -12 1838. 2951. 4074. <
3325 2 -4 -4 3 1838. 2951. 4074. <
3325 1 -2 4 -3 1838. 2951. 4074. <
3326 4 -1 -1 12 1745. 2816. 4706. <
3326 3 7 1 -12 1745. 2816. 4706. <
3326 2 4 -4 -3 1745. 2816. 4706. <
3326 1 2 4 3 1745. 2816. 4706. <
3327 4 -8 2 12 31833. 36537. 7776. o
3327 3 0 -2 -12 31833. 36537. 7776. o
3327 2 -6 -4 6 31833. 36537. 7776. o
3327 1 -2 4 -6 31833. 36537. 7776. o
3328 4 0 -2 12 32608. 33553. 5352. o
3328 3 8 2 -12 32608. 33553. 5352. o
3328 2 6 -4 -6 32608. 33553. 5352. o
3328 1 2 4 6 32608. 33553. 5352. o
3329 2 6 -4 -7 2863. -1045. 4419. <
3329 1 2 4 7 2863. -1045. 4419. <
3330 2 8 -4 -8 1325. 3552. 5095. <
3330 1 2 4 8 1325. 3552. 5095. <
3331 4 -9 3 12 93011. 84490. 9748. o
3331 3 -1 -3 -12 93011. 84490. 9748. o
3331 2 -8 -4 9 93011. 84490. 9748. o
3331 1 -2 4 -9 93011. 84490. 9748. o
3332 4 1 -3 12 92331. 103293. 14804. o
3332 3 9 3 -12 92331. 103293. 14804. o
3332 2 8 -4 -9 92331. 103293. 14804. o
3332 1 2 4 9 92331. 103293. 14804. o
3333 2 -8 -4 10 5936. 4092. 5884. <
3333 1 -2 4 -10 5936. 4092. 5884. <
3334 4 1 -5 3 10443. 8281. 3077. <
3334 3 3 5 -3 10443. 8281. 3077. <
3334 2 7 -1 -15 10443. 8281. 3077. <
3334 1 -3 1 15 10443. 8281. 3077. <
3335 2 7 -1 -14 8421. 695. 2916. <
3335 1 -3 1 14 8421. 695. 2916. <
3336 2 5 -1 -13 6341. 5329. 2873. <
3336 1 -3 1 13 6341. 5329. 2873. <
3337 4 0 -4 3 31344. 37038. 3759. o
3337 3 2 4 -3 31344. 37038. 3759. o
3337 2 5 -1 -12 31344. 37038. 3759. o
3337 1 -3 1 12 31344. 37038. 3759. o
3338 4 -1 -3 3 110623. 144412. 1481. o
3338 3 1 3 -3 110623. 144412. 1481. o
3338 2 3 -1 -9 110623. 144412. 1481. o
3338 1 -3 1 9 110623. 144412. 1481. o
3339 4 -2 -2 3 56459. 58973. 1112. o
3339 3 0 2 -3 56459. 58973. 1112. o
3339 2 1 -1 -6 56459. 58973. 1112. o
3339 1 -3 1 6 56459. 58973. 1112. o
3340 4 0 -2 -3 55793. 61948. 625. o
3340 3 -2 2 3 55793. 61948. 625. o
3340 2 1 1 -6 55793. 61948. 625. o
3340 1 -3 -1 6 55793. 61948. 625. o
3341 4 -3 -1 3 4775. 4131. 719. o
3341 3 -1 1 -3 4775. 4131. 719. o
3341 2 -1 -1 -3 4775. 4131. 719. o
3341 1 -3 1 3 4775. 4131. 719. o
3342 4 -1 -1 -3 4830. 3861. 487. o
3342 3 -3 1 3 4830. 3861. 487. o
3342 2 -1 1 -3 4830. 3861. 487. o
3342 1 -3 -1 3 4830. 3861. 487. o
3343 4 4 0 -3 5119. 4140. 563. o
3343 3 2 0 3 5119. 4140. 563. o
3343 2 3 1 0 5119. 4140. 563. o
3343 1 3 -1 0 5119. 4140. 563. o
3344 4 2 0 3 5090. 4729. 591. o
3344 3 4 0 -3 5090. 4729. 591. o
3344 2 3 -1 0 5090. 4729. 591. o
3344 1 3 1 0 5090. 4729. 591. o
3345 4 -3 1 -3 1574300. 1460700. 8528. o
3345 3 -5 -1 3 1574300. 1460700. 8528. o
3345 2 -5 1 3 1574300. 1460700. 8528. o
3345 1 -3 -1 -3 1574300. 1460700. 8528. o
3346 4 -6 2 3 294252. 322020. 1528. o
3346 3 -4 -2 -3 294252. 322020. 1528. o
3346 2 -7 -1 6 294252. 322020. 1528. o
3346 1 -3 1 -6 294252. 322020. 1528. o
3347 4 -4 2 -3 294124. 303688. 2593. o
3347 3 -6 -2 3 294124. 303688. 2593. o
3347 2 -7 1 6 294124. 303688. 2593. o
3347 1 -3 -1 -6 294124. 303688. 2593. o
3348 4 5 -3 3 8926. 3104. 2146. <
3348 3 7 3 -3 8926. 3104. 2146. <
3348 2 9 -1 -9 8926. 3104. 2146. <
3348 1 3 1 9 8926. 3104. 2146. <
3349 4 6 -4 3 5147. 1783. 4791. <
3349 3 8 4 -3 5147. 1783. 4791. <
3349 2 11 -1 -12 5147. 1783. 4791. <
3349 1 3 1 12 5147. 1783. 4791. <
3350 2 11 -1 -13 5057. 4179. 2882. <
3350 1 3 1 13 5057. 4179. 2882. <
3351 4 -2 -4 9 20460. 21513. 6293. o
3351 3 4 4 -9 20460. 21513. 6293. o
3351 2 5 -3 -12 20460. 21513. 6293. o
3351 1 -3 3 12 20460. 21513. 6293. o
3352 2 3 -3 -10 4140. 2231. 5969. <
3352 1 -3 3 10 4140. 2231. 5969. <
3353 4 -3 3 9 87324. 79347. 1602. o
3353 3 3 -3 -9 87324. 79347. 1602. o
3353 2 -3 -3 9 87324. 79347. 1602. o
3353 1 3 3 -9 87324. 79347. 1602. o
3354 4 -4 -2 9 30124. 27373. 2255. o
3354 3 2 2 -9 30124. 27373. 2255. o
3354 2 1 -3 -6 30124. 27373. 2255. o
3354 1 -3 3 6 30124. 27373. 2255. o
3355 4 -2 2 9 29426. 12771. 1638. o
3355 3 4 -2 -9 29426. 12771. 1638. o
3355 2 -1 -3 6 29426. 12771. 1638. o
3355 1 3 3 -6 29426. 12771. 1638. o
3356 4 -5 -1 9 9588. 5795. 1575. o
3356 3 1 1 -9 9588. 5795. 1575. o
3356 2 -1 -3 -3 9588. 5795. 1575. o
3356 1 -3 3 3 9588. 5795. 1575. o
3357 4 -1 1 9 9789. 6785. 2413. <
3357 3 5 -1 -9 9789. 6785. 2413. <
3357 2 1 -3 3 9789. 6785. 2413. <
3357 1 3 3 -3 9789. 6785. 2413. <
3358 4 -6 0 9 2981. -329. 1754. <
3358 3 0 0 -9 2981. -329. 1754. <
3358 2 -3 -3 0 2981. -329. 1754. <
3358 1 -3 3 0 2981. -329. 1754. <
3359 4 0 0 -9 2954. -395. 1690. <
3359 3 -6 0 9 2954. -395. 1690. <
3359 2 -3 3 0 2954. -395. 1690. <
3359 1 -3 -3 0 2954. -395. 1690. <
3360 4 -7 1 9 656436. 572920. 3826. o
3360 3 -1 -1 -9 656436. 572920. 3826. o
3360 2 -5 -3 3 656436. 572920. 3826. o
3360 1 -3 3 -3 656436. 572920. 3826. o
3361 4 -1 1 -9 663125. 637345. 5149. o
3361 3 -7 -1 9 663125. 637345. 5149. o
3361 2 -5 3 3 663125. 637345. 5149. o
3361 1 -3 -3 -3 663125. 637345. 5149. o
3362 2 -7 3 5 713. -737. 3506. <
3362 1 -3 -3 -5 713. -737. 3506. <
3363 4 -8 2 9 171233. 50106. 1881. o
3363 3 -2 -2 -9 171233. 50106. 1881. o
3363 2 -7 -3 6 171233. 50106. 1881. o
3363 1 -3 3 -6 171233. 50106. 1881. o
3364 4 2 -2 9 170361. 183880. 3825. o
3364 3 8 2 -9 170361. 183880. 3825. o
3364 2 7 -3 -6 170361. 183880. 3825. o
3364 1 3 3 6 170361. 183880. 3825. o
3365 2 -7 3 7 13628. 5535. 4623. <
3365 1 -3 -3 -7 13628. 5535. 4623. <
3366 2 -9 -3 8 2811. -1319. 3467. <
3366 1 -3 3 -8 2811. -1319. 3467. <
3367 4 -9 3 9 8398. 5292. 1668. o
3367 3 -3 -3 -9 8398. 5292. 1668. o
3367 2 -9 -3 9 8398. 5292. 1668. o
3367 1 -3 3 -9 8398. 5292. 1668. o
3368 4 3 -3 9 8250. 4708. 5576. <
3368 3 9 3 -9 8250. 4708. 5576. <
3368 2 9 -3 -9 8250. 4708. 5576. <
3368 1 3 3 9 8250. 4708. 5576. <
3369 2 -9 -3 10 2590. -370. 2717. <
3369 1 -3 3 -10 2590. -370. 2717. <
3370 2 11 -3 -11 3192. 72. 8138. <
3370 1 3 3 11 3192. 72. 8138. <
3371 4 -6 -2 15 13539. 14287. 9703. <
3371 3 4 2 -15 13539. 14287. 9703. <
3371 2 1 -5 -6 13539. 14287. 9703. <
3371 1 -3 5 6 13539. 14287. 9703. <
3372 2 -1 -5 -4 599. -3708. 10802. <
3372 1 -3 5 4 599. -3708. 10802. <
3373 4 -7 -1 15 8671. 6330. 6999. <
3373 3 3 1 -15 8671. 6330. 6999. <
3373 2 -1 -5 -3 8671. 6330. 6999. <
3373 1 -3 5 3 8671. 6330. 6999. <
3374 2 1 -5 2 135. -2899. 9678. <
3374 1 3 5 -2 135. -2899. 9678. <
3375 2 -3 -5 -1 1823. 2454. 6846. <
3375 1 -3 5 1 1823. 2454. 6846. <
3376 4 -8 0 15 2154. -228. 12316. <
3376 3 2 0 -15 2154. -228. 12316. <
3376 2 -3 -5 0 2154. -228. 12316. <
3376 1 -3 5 0 2154. -228. 12316. <
3377 4 -2 0 15 2268. 1285. 8594. <
3377 3 8 0 -15 2268. 1285. 8594. <
3377 2 3 -5 0 2268. 1285. 8594. <
3377 1 3 5 0 2268. 1285. 8594. <
3378 2 3 -5 -1 1864. 2722. 6538. <
3378 1 3 5 1 1864. 2722. 6538. <
3379 2 5 -5 -2 373. -2655. 9505. <
3379 1 3 5 2 373. -2655. 9505. <
3380 4 -1 -1 15 230057. 221448. 11262. o
3380 3 9 1 -15 230057. 221448. 11262. o
3380 2 5 -5 -3 230057. 221448. 11262. o
3380 1 3 5 3 230057. 221448. 11262. o
3381 2 5 -5 -4 439. -239. 8804. <
3381 1 3 5 4 439. -239. 8804. <
3382 2 7 -5 -5 228. -1755. 9691. <
3382 1 3 5 5 228. -1755. 9691. <
3383 4 -1 -3 0 39632. 58609. 1000. o
3383 3 -1 3 0 39632. 58609. 1000. o
3383 2 2 0 -9 39632. 58609. 1000. o
3383 1 -4 0 9 39632. 58609. 1000. o
3384 4 2 2 0 1216. 1643. 398. o
3384 3 2 -2 0 1216. 1643. 398. o
3384 2 0 0 6 1216. 1643. 398. o
3384 1 4 0 -6 1216. 1643. 398. o
3385 4 3 1 0 3817. 3611. 331. o
3385 3 3 -1 0 3817. 3611. 331. o
3385 2 2 0 3 3817. 3611. 331. o
3385 1 4 0 -3 3817. 3611. 331. o
3386 4 4 0 0 5369. 6437. 418. o
3386 3 4 0 0 5369. 6437. 418. o
3386 2 4 0 0 5369. 6437. 418. o
3386 1 4 0 0 5369. 6437. 418. o
3387 4 -5 1 0 458546. 506921. 2609. o
3387 3 -5 -1 0 458546. 506921. 2609. o
3387 2 -6 0 3 458546. 506921. 2609. o
3387 1 -4 0 -3 458546. 506921. 2609. o
3388 4 6 -2 0 2511. 2616. 672. o
3388 3 6 2 0 2511. 2616. 672. o
3388 2 8 0 -6 2511. 2616. 672. o
3388 1 4 0 6 2511. 2616. 672. o
3389 4 -7 3 0 12545. 15102. 1091. o
3389 3 -7 -3 0 12545. 15102. 1091. o
3389 2 -10 0 9 12545. 15102. 1091. o
3389 1 -4 0 -9 12545. 15102. 1091. o
3390 4 -1 -5 6 14698. 4868. 6151. <
3390 3 3 5 -6 14698. 4868. 6151. <
3390 2 6 -2 -15 14698. 4868. 6151. <
3390 1 -4 2 15 14698. 4868. 6151. <
3391 2 4 -2 -13 4050. -38. 4495. <
3391 1 -4 2 13 4050. -38. 4495. <
3392 4 -2 -4 6 377095. 323279. 5900. o
3392 3 2 4 -6 377095. 323279. 5900. o
3392 2 4 -2 -12 377095. 323279. 5900. o
3392 1 -4 2 12 377095. 323279. 5900. o
3393 2 2 -2 -10 19059. 17651. 2804. o
3393 1 -4 2 10 19059. 17651. 2804. o
3394 4 -3 -3 6 31087. 25335. 1793. o
3394 3 1 3 -6 31087. 25335. 1793. o
3394 2 2 -2 -9 31087. 25335. 1793. o
3394 1 -4 2 9 31087. 25335. 1793. o
3395 4 -1 3 6 30863. 25038. 602. o
3395 3 3 -3 -6 30863. 25038. 602. o
3395 2 -2 -2 9 30863. 25038. 602. o
3395 1 4 2 -9 30863. 25038. 602. o
3396 4 -4 -2 6 2296. 570. 1183. <
3396 3 0 2 -6 2296. 570. 1183. <
3396 2 0 -2 -6 2296. 570. 1183. <
3396 1 -4 2 6 2296. 570. 1183. <
3397 4 0 -2 -6 2241. 856. 909. <
3397 3 -4 2 6 2241. 856. 909. <
3397 2 0 2 -6 2241. 856. 909. <
3397 1 -4 -2 6 2241. 856. 909. <
3398 4 -5 -1 6 3223. 2680. 884. o
3398 3 -1 1 -6 3223. 2680. 884. o
3398 2 -2 -2 -3 3223. 2680. 884. o
3398 1 -4 2 3 3223. 2680. 884. o
3399 4 1 1 6 2992. 3468. 1586. <
3399 3 5 -1 -6 2992. 3468. 1586. <
3399 2 2 -2 3 2992. 3468. 1586. <
3399 1 4 2 -3 2992. 3468. 1586. <
3400 4 -6 0 6 12581. 12480. 835. o
3400 3 -2 0 -6 12581. 12480. 835. o
3400 2 -4 -2 0 12581. 12480. 835. o
3400 1 -4 2 0 12581. 12480. 835. o
3401 4 2 0 6 13040. 13498. 1165. o
3401 3 6 0 -6 13040. 13498. 1165. o
3401 2 4 -2 0 13040. 13498. 1165. o
3401 1 4 2 0 13040. 13498. 1165. o
3402 4 -7 1 6 293039. 271120. 2261. o
3402 3 -3 -1 -6 293039. 271120. 2261. o
3402 2 -6 -2 3 293039. 271120. 2261. o
3402 1 -4 2 -3 293039. 271120. 2261. o
3403 4 -3 1 -6 288541. 278983. 3751. o
3403 3 -7 -1 6 288541. 278983. 3751. o
3403 2 -6 2 3 288541. 278983. 3751. o
3403 1 -4 -2 -3 288541. 278983. 3751. o
3404 4 -8 2 6 4409. 2671. 966. <
3404 3 -4 -2 -6 4409. 2671. 966. <
3404 2 -8 -2 6 4409. 2671. 966. <
3404 1 -4 2 -6 4409. 2671. 966. <
3405 4 -4 2 -6 4483. 2307. 1719. <
3405 3 -8 -2 6 4483. 2307. 1719. <
3405 2 -8 2 6 4483. 2307. 1719. <
3405 1 -4 -2 -6 4483. 2307. 1719. <
3406 4 -9 3 6 9586. 18571. 1070. o
3406 3 -5 -3 -6 9586. 18571. 1070. o
3406 2 -10 -2 9 9586. 18571. 1070. o
3406 1 -4 2 -9 9586. 18571. 1070. o
3407 4 5 -3 6 9546. 11127. 2951. o
3407 3 9 3 -6 9546. 11127. 2951. o
3407 2 10 -2 -9 9546. 11127. 2951. o
3407 1 4 2 9 9546. 11127. 2951. o
3408 2 -10 2 10 16652. 18395. 4165. o
3408 1 -4 -2 -10 16652. 18395. 4165. o
3409 4 6 -4 6 86601. 82300. 9269. o
3409 3 10 4 -6 86601. 82300. 9269. o
3409 2 12 -2 -12 86601. 82300. 9269. o
3409 1 4 2 12 86601. 82300. 9269. o
3410 2 12 -2 -13 3170. 356. 5525. <
3410 1 4 2 13 3170. 356. 5525. <
3411 2 -4 -4 11 1399. -908. 5610. <
3411 1 4 4 -11 1399. -908. 5610. <
3412 2 -2 -4 10 7690. 7524. 6358. <
3412 1 4 4 -10 7690. 7524. 6358. <
3413 4 -5 -3 12 18306. 22894. 7498. o
3413 3 3 3 -12 18306. 22894. 7498. o
3413 2 2 -4 -9 18306. 22894. 7498. o
3413 1 -4 4 9 18306. 22894. 7498. o
3414 4 -3 3 12 17847. 20984. 5335. o
3414 3 5 -3 -12 17847. 20984. 5335. o
3414 2 -2 -4 9 17847. 20984. 5335. o
3414 1 4 4 -9 17847. 20984. 5335. o
3415 2 2 -4 -8 2924. 1585. 4586. <
3415 1 -4 4 8 2924. 1585. 4586. <
3416 2 0 -4 -7 1101. 679. 3658. <
3416 1 -4 4 7 1101. 679. 3658. <
3417 4 -6 -2 12 4568. 2559. 4798. <
3417 3 2 2 -12 4568. 2559. 4798. <
3417 2 0 -4 -6 4568. 2559. 4798. <
3417 1 -4 4 6 4568. 2559. 4798. <
3418 4 -2 2 12 4392. 1598. 4740. <
3418 3 6 -2 -12 4392. 1598. 4740. <
3418 2 0 -4 6 4392. 1598. 4740. <
3418 1 4 4 -6 4392. 1598. 4740. <
3419 2 0 -4 -5 1492. 1025. 3664. <
3419 1 -4 4 5 1492. 1025. 3664. <
3420 2 2 -4 4 7519. 13139. 5827. <
3420 1 4 4 -4 7519. 13139. 5827. <
3421 4 -7 -1 12 1919. 1949. 2969. <
3421 3 1 1 -12 1919. 1949. 2969. <
3421 2 -2 -4 -3 1919. 1949. 2969. <
3421 1 -4 4 3 1919. 1949. 2969. <
3422 4 1 -1 -12 1826. 1860. 3003. <
3422 3 -7 1 12 1826. 1860. 3003. <
3422 2 -2 4 -3 1826. 1860. 3003. <
3422 1 -4 -4 3 1826. 1860. 3003. <
3423 2 -2 -4 -2 1391. 1513. 4086. <
3423 1 -4 4 2 1391. 1513. 4086. <
3424 4 -8 0 12 29932. 33073. 2749. o
3424 3 0 0 -12 29932. 33073. 2749. o
3424 2 -4 -4 0 29932. 33073. 2749. o
3424 1 -4 4 0 29932. 33073. 2749. o
3425 4 0 0 12 30900. 34617. 3971. o
3425 3 8 0 -12 30900. 34617. 3971. o
3425 2 4 -4 0 30900. 34617. 3971. o
3425 1 4 4 0 30900. 34617. 3971. o
3426 2 4 -4 -1 264. 1211. 4767. <
3426 1 4 4 1 264. 1211. 4767. <
3427 2 -6 4 2 1199. 2370. 5686. <
3427 1 -4 -4 -2 1199. 2370. 5686. <
3428 4 -9 1 12 129601. 178352. 3588. o
3428 3 -1 -1 -12 129601. 178352. 3588. o
3428 2 -6 -4 3 129601. 178352. 3588. o
3428 1 -4 4 -3 129601. 178352. 3588. o
3429 4 -1 1 -12 128436. 114002. 6349. o
3429 3 -9 -1 12 128436. 114002. 6349. o
3429 2 -6 4 3 128436. 114002. 6349. o
3429 1 -4 -4 -3 128436. 114002. 6349. o
3430 2 6 -4 -4 8195. 9629. 3066. o
3430 1 4 4 4 8195. 9629. 3066. o
3431 2 -8 4 5 1513. 124. 7552. <
3431 1 -4 -4 -5 1513. 124. 7552. <
3432 4 -10 2 12 5352. 2220. 4571. <
3432 3 -2 -2 -12 5352. 2220. 4571. <
3432 2 -8 -4 6 5352. 2220. 4571. <
3432 1 -4 4 -6 5352. 2220. 4571. <
3433 4 -2 2 -12 5470. 343. 4981. <
3433 3 -10 -2 12 5470. 343. 4981. <
3433 2 -8 4 6 5470. 343. 4981. <
3433 1 -4 -4 -6 5470. 343. 4981. <
3434 2 -8 -4 7 1338. -1864. 5317. <
3434 1 -4 4 -7 1338. -1864. 5317. <
3435 4 -11 3 12 4985. 2949. 8307. <
3435 3 -3 -3 -12 4985. 2949. 8307. <
3435 2 -10 -4 9 4985. 2949. 8307. <
3435 1 -4 4 -9 4985. 2949. 8307. <
3436 4 3 -3 12 4890. 3712. 17063. <
3436 3 11 3 -12 4890. 3712. 17063. <
3436 2 10 -4 -9 4890. 3712. 17063. <
3436 1 4 4 9 4890. 3712. 17063. <
3437 2 5 -1 -14 4790. -197. 2806. <
3437 1 -5 1 14 4790. -197. 2806. <
3438 2 3 -1 -13 7329. 5712. 3047. <
3438 1 -5 1 13 7329. 5712. 3047. <
3439 4 -2 -4 3 34615. 38210. 2398. o
3439 3 0 4 -3 34615. 38210. 2398. o
3439 2 3 -1 -12 34615. 38210. 2398. o
3439 1 -5 1 12 34615. 38210. 2398. o
3440 4 -3 -3 3 11143. 10929. 1426. o
3440 3 -1 3 -3 11143. 10929. 1426. o
3440 2 1 -1 -9 11143. 10929. 1426. o
3440 1 -5 1 9 11143. 10929. 1426. o
3441 4 -4 -2 3 4596. 4196. 746. o
3441 3 -2 2 -3 4596. 4196. 746. o
3441 2 -1 -1 -6 4596. 4196. 746. o
3441 1 -5 1 6 4596. 4196. 746. o
3442 4 2 2 3 4573. 3774. 723. o
3442 3 4 -2 -3 4573. 3774. 723. o
3442 2 1 -1 6 4573. 3774. 723. o
3442 1 5 1 -6 4573. 3774. 723. o
3443 4 -3 -1 -3 1569860. 1351820. 7321. o
3443 3 -5 1 3 1569860. 1351820. 7321. o
3443 2 -3 1 -3 1569860. 1351820. 7321. o
3443 1 -5 -1 3 1569860. 1351820. 7321. o
3444 4 -6 0 3 465490. 458561. 3461. o
3444 3 -4 0 -3 465490. 458561. 3461. o
3444 2 -5 -1 0 465490. 458561. 3461. o
3444 1 -5 1 0 465490. 458561. 3461. o
3445 4 4 0 3 465469. 461672. 3219. o
3445 3 6 0 -3 465469. 461672. 3219. o
3445 2 5 -1 0 465469. 461672. 3219. o
3445 1 5 1 0 465469. 461672. 3219. o
3446 4 7 -1 -3 1387. 1443. 491. <
3446 3 5 1 3 1387. 1443. 491. <
3446 2 7 1 -3 1387. 1443. 491. <
3446 1 5 -1 3 1387. 1443. 491. <
3447 4 -5 1 -3 1355. 1308. 895. <
3447 3 -7 -1 3 1355. 1308. 895. <
3447 2 -7 1 3 1355. 1308. 895. <
3447 1 -5 -1 -3 1355. 1308. 895. <
3448 4 -8 2 3 13182. 9684. 555. o
3448 3 -6 -2 -3 13182. 9684. 555. o
3448 2 -9 -1 6 13182. 9684. 555. o
3448 1 -5 1 -6 13182. 9684. 555. o
3449 4 -6 2 -3 12936. 11272. 1257. o
3449 3 -8 -2 3 12936. 11272. 1257. o
3449 2 -9 1 6 12936. 11272. 1257. o
3449 1 -5 -1 -6 12936. 11272. 1257. o
3450 4 -9 3 3 12774. 8147. 1211. o
3450 3 -7 -3 -3 12774. 8147. 1211. o
3450 2 -11 -1 9 12774. 8147. 1211. o
3450 1 -5 1 -9 12774. 8147. 1211. o
3451 4 7 -3 3 12467. 7720. 2087. o
3451 3 9 3 -3 12467. 7720. 2087. o
3451 2 11 -1 -9 12467. 7720. 2087. o
3451 1 5 1 9 12467. 7720. 2087. o
3452 2 11 -1 -10 6127. -176. 3034. <
3452 1 5 1 10 6127. -176. 3034. <
3453 4 -4 -4 9 22780. 21711. 5826. o
3453 3 2 4 -9 22780. 21711. 5826. o
3453 2 3 -3 -12 22780. 21711. 5826. o
3453 1 -5 3 12 22780. 21711. 5826. o
3454 2 1 -3 -10 2382. -507. 5864. <
3454 1 -5 3 10 2382. -507. 5864. <
3455 4 -5 -3 9 9943. 5436. 4038. <
3455 3 1 3 -9 9943. 5436. 4038. <
3455 2 1 -3 -9 9943. 5436. 4038. <
3455 1 -5 3 9 9943. 5436. 4038. <
3456 4 -1 3 9 10081. 5740. 2230. <
3456 3 5 -3 -9 10081. 5740. 2230. <
3456 2 -1 -3 9 10081. 5740. 2230. <
3456 1 5 3 -9 10081. 5740. 2230. <
3457 2 1 -3 7 16217. 15609. 3861. o
3457 1 5 3 -7 16217. 15609. 3861. o
3458 4 -6 -2 9 2884. 614. 2102. <
3458 3 0 2 -9 2884. 614. 2102. <
3458 2 -1 -3 -6 2884. 614. 2102. <
3458 1 -5 3 6 2884. 614. 2102. <
3459 4 0 -2 -9 2856. 590. 1737. <
3459 3 -6 2 9 2856. 590. 1737. <
3459 2 -1 3 -6 2856. 590. 1737. <
3459 1 -5 -3 6 2856. 590. 1737. <
3460 4 -7 -1 9 653780. 1102990. 6016. o
3460 3 -1 1 -9 653780. 1102990. 6016. o
3460 2 -3 -3 -3 653780. 1102990. 6016. o
3460 1 -5 3 3 653780. 1102990. 6016. o
3461 4 1 1 9 660447. 666457. 7526. o
3461 3 7 -1 -9 660447. 666457. 7526. o
3461 2 3 -3 3 660447. 666457. 7526. o
3461 1 5 3 -3 660447. 666457. 7526. o
3462 4 2 0 9 224949. 253599. 3504. o
3462 3 8 0 -9 224949. 253599. 3504. o
3462 2 5 -3 0 224949. 253599. 3504. o
3462 1 5 3 0 224949. 253599. 3504. o
3463 4 -9 1 9 5588. 2683. 1356. <
3463 3 -3 -1 -9 5588. 2683. 1356. <
3463 2 -7 -3 3 5588. 2683. 1356. <
3463 1 -5 3 -3 5588. 2683. 1356. <
3464 4 3 -1 9 5367. 2644. 2579. <
3464 3 9 1 -9 5367. 2644. 2579. <
3464 2 7 -3 -3 5367. 2644. 2579. <
3464 1 5 3 3 5367. 2644. 2579. <
3465 2 -9 3 5 241. -787. 4311. <
3465 1 -5 -3 -5 241. -787. 4311. <
3466 4 -10 2 9 8192. 5756. 1737. o
3466 3 -4 -2 -9 8192. 5756. 1737. o
3466 2 -9 -3 6 8192. 5756. 1737. o
3466 1 -5 3 -6 8192. 5756. 1737. o
3467 4 4 -2 9 7889. 10504. 3066. o
3467 3 10 2 -9 7889. 10504. 3066. o
3467 2 9 -3 -6 7889. 10504. 3066. o
3467 1 5 3 6 7889. 10504. 3066. o
3468 2 -9 3 7 12030. -807. 4895. <
3468 1 -5 -3 -7 12030. -807. 4895. <
3469 4 -11 3 9 1776. 516. 2641. <
3469 3 -5 -3 -9 1776. 516. 2641. <
3469 2 -11 -3 9 1776. 516. 2641. <
3469 1 -5 3 -9 1776. 516. 2641. <
3470 4 -5 3 -9 1677. 1211. 6149. <
3470 3 -11 -3 9 1677. 1211. 6149. <
3470 2 -11 3 9 1677. 1211. 6149. <
3470 1 -5 -3 -9 1677. 1211. 6149. <
3471 4 -8 -2 15 1960. -1451. 11619. <
3471 3 2 2 -15 1960. -1451. 11619. <
3471 2 -1 -5 -6 1960. -1451. 11619. <
3471 1 -5 5 6 1960. -1451. 11619. <
3472 2 -1 -5 -5 344. 2771. 10038. <
3472 1 -5 5 5 344. 2771. 10038. <
3473 2 -3 -5 -4 612. -1080. 10596. <
3473 1 -5 5 4 612. -1080. 10596. <
3474 4 -9 -1 15 227301. 206130. 6717. o
3474 3 1 1 -15 227301. 206130. 6717. o
3474 2 -3 -5 -3 227301. 206130. 6717. o
3474 1 -5 5 3 227301. 206130. 6717. o
3475 2 -3 -5 -2 478. 1932. 5895. <
3475 1 -5 5 2 478. 1932. 5895. <
3476 2 -5 -5 -1 1821. -812. 7043. <
3476 1 -5 5 1 1821. -812. 7043. <
3477 4 -10 0 15 97427. 121094. 14340. o
3477 3 0 0 -15 97427. 121094. 14340. o
3477 2 -5 -5 0 97427. 121094. 14340. o
3477 1 -5 5 0 97427. 121094. 14340. o
3478 4 0 0 15 96109. 134466. 9795. o
3478 3 10 0 -15 96109. 134466. 9795. o
3478 2 5 -5 0 96109. 134466. 9795. o
3478 1 5 5 0 96109. 134466. 9795. o
3479 2 5 -5 -1 1754. 829. 7167. <
3479 1 5 5 1 1754. 829. 7167. <
3480 4 1 -1 15 7719. 1746. 10455. <
3480 3 11 1 -15 7719. 1746. 10455. <
3480 2 7 -5 -3 7719. 1746. 10455. <
3480 1 5 5 3 7719. 1746. 10455. <
3481 2 9 -5 -5 116. 1011. 16185. <
3481 1 5 5 5 116. 1011. 16185. <
3482 3 -2 4 0 7908. 5007. 482. o
3482 2 2 0 -12 7908. 5007. 482. o
3482 1 -6 0 12 7908. 5007. 482. o
3483 4 -3 -3 0 1729. 1447. 1259. <
3483 3 -3 3 0 1729. 1447. 1259. <
3483 2 0 0 -9 1729. 1447. 1259. <
3483 1 -6 0 9 1729. 1447. 1259. <
3484 4 -4 -2 0 22538. 23575. 1040. o
3484 3 -4 2 0 22538. 23575. 1040. o
3484 2 -2 0 -6 22538. 23575. 1040. o
3484 1 -6 0 6 22538. 23575. 1040. o
3485 4 -6 0 0 432. 873. 496. <
3485 3 -6 0 0 432. 873. 496. <
3485 2 -6 0 0 432. 873. 496. <
3485 1 -6 0 0 432. 873. 496. <
3486 4 -7 1 0 24407. 27677. 928. o
3486 3 -7 -1 0 24407. 27677. 928. o
3486 2 -8 0 3 24407. 27677. 928. o
3486 1 -6 0 -3 24407. 27677. 928. o
3487 4 8 -2 0 432493. 448370. 2891. o
3487 3 8 2 0 432493. 448370. 2891. o
3487 2 10 0 -6 432493. 448370. 2891. o
3487 1 6 0 6 432493. 448370. 2891. o
3488 4 9 -3 0 315109. 291381. 4238. o
3488 3 9 3 0 315109. 291381. 4238. o
3488 2 12 0 -9 315109. 291381. 4238. o
3488 1 6 0 9 315109. 291381. 4238. o
3489 4 10 -4 0 59572. 49355. 1993. o
3489 3 10 4 0 59572. 49355. 1993. o
3489 2 14 0 -12 59572. 49355. 1993. o
3489 1 6 0 12 59572. 49355. 1993. o
3490 4 -3 -5 6 16312. 16540. 10126. <
3490 3 1 5 -6 16312. 16540. 10126. <
3490 2 4 -2 -15 16312. 16540. 10126. <
3490 1 -6 2 15 16312. 16540. 10126. <
3491 2 4 -2 -14 12254. 10506. 5846. <
3491 1 -6 2 14 12254. 10506. 5846. <
3492 2 2 -2 -13 1891. 1068. 4786. <
3492 1 -6 2 13 1891. 1068. 4786. <
3493 4 -4 -4 6 7041. 6000. 6006. <
3493 3 0 4 -6 7041. 6000. 6006. <
3493 2 2 -2 -12 7041. 6000. 6006. <
3493 1 -6 2 12 7041. 6000. 6006. <
3494 4 -5 -3 6 1587. 158. 1568. <
3494 3 -1 3 -6 1587. 158. 1568. <
3494 2 0 -2 -9 1587. 158. 1568. <
3494 1 -6 2 9 1587. 158. 1568. <
3495 4 -1 -3 -6 1445. 638. 947. <
3495 3 -5 3 6 1445. 638. 947. <
3495 2 0 2 -9 1445. 638. 947. <
3495 1 -6 -2 9 1445. 638. 947. <
3496 4 -6 -2 6 23645. 22435. 1196. o
3496 3 -2 2 -6 23645. 22435. 1196. o
3496 2 -2 -2 -6 23645. 22435. 1196. o
3496 1 -6 2 6 23645. 22435. 1196. o
3497 4 2 2 6 23999. 26223. 1307. o
3497 3 6 -2 -6 23999. 26223. 1307. o
3497 2 2 -2 6 23999. 26223. 1307. o
3497 1 6 2 -6 23999. 26223. 1307. o
3498 4 -7 -1 6 293207. 231826. 2275. o
3498 3 -3 1 -6 293207. 231826. 2275. o
3498 2 -4 -2 -3 293207. 231826. 2275. o
3498 1 -6 2 3 293207. 231826. 2275. o
3499 4 3 1 6 288708. 261506. 4145. o
3499 3 7 -1 -6 288708. 261506. 4145. o
3499 2 4 -2 3 288708. 261506. 4145. o
3499 1 6 2 -3 288708. 261506. 4145. o
3500 4 8 0 -6 1976. 1423. 947. <
3500 3 4 0 6 1976. 1423. 947. <
3500 2 6 2 0 1976. 1423. 947. <
3500 1 6 -2 0 1976. 1423. 947. <
3501 4 -4 0 -6 2041. 2173. 1732. <
3501 3 -8 0 6 2041. 2173. 1732. <
3501 2 -6 2 0 2041. 2173. 1732. <
3501 1 -6 -2 0 2041. 2173. 1732. <
3502 4 9 -1 -6 16567. 15757. 1168. o
3502 3 5 1 6 16567. 15757. 1168. o
3502 2 8 2 -3 16567. 15757. 1168. o
3502 1 6 -2 3 16567. 15757. 1168. o
3503 4 -5 1 -6 16514. 11470. 1827. o
3503 3 -9 -1 6 16514. 11470. 1827. o
3503 2 -8 2 3 16514. 11470. 1827. o
3503 1 -6 -2 -3 16514. 11470. 1827. o
3504 4 -10 2 6 278809. 277013. 2355. o
3504 3 -6 -2 -6 278809. 277013. 2355. o
3504 2 -10 -2 6 278809. 277013. 2355. o
3504 1 -6 2 -6 278809. 277013. 2355. o
3505 4 6 -2 6 281809. 253837. 3644. o
3505 3 10 2 -6 281809. 253837. 3644. o
3505 2 10 -2 -6 281809. 253837. 3644. o
3505 1 6 2 6 281809. 253837. 3644. o
3506 4 -11 3 6 250032. 266380. 2133. o
3506 3 -7 -3 -6 250032. 266380. 2133. o
3506 2 -12 -2 9 250032. 266380. 2133. o
3506 1 -6 2 -9 250032. 266380. 2133. o
3507 4 7 -3 6 250729. 264918. 6053. o
3507 3 11 3 -6 250729. 264918. 6053. o
3507 2 12 -2 -9 250729. 264918. 6053. o
3507 1 6 2 9 250729. 264918. 6053. o
3508 2 -12 2 10 7997. 8872. 4406. <
3508 1 -6 -2 -10 7997. 8872. 4406. <
3509 2 14 -2 -13 2101. 36. 7201. <
3509 1 6 2 13 2101. 36. 7201. <
3510 2 0 -4 10 4212. 4016. 6680. <
3510 1 6 4 -10 4212. 4016. 6680. <
3511 4 -7 -3 12 846. 3041. 8842. <
3511 3 1 3 -12 846. 3041. 8842. <
3511 2 0 -4 -9 846. 3041. 8842. <
3511 1 -6 4 9 846. 3041. 8842. <
3512 2 0 -4 8 851. -401. 3657. <
3512 1 6 4 -8 851. -401. 3657. <
3513 2 -2 -4 -7 2683. -648. 3665. <
3513 1 -6 4 7 2683. -648. 3665. <
3514 4 -8 -2 12 31053. 34083. 4770. o
3514 3 0 2 -12 31053. 34083. 4770. o
3514 2 -2 -4 -6 31053. 34083. 4770. o
3514 1 -6 4 6 31053. 34083. 4770. o
3515 4 0 -2 -12 31825. 44461. 4636. o
3515 3 -8 2 12 31825. 44461. 4636. o
3515 2 -2 4 -6 31825. 44461. 4636. o
3515 1 -6 -4 6 31825. 44461. 4636. o
3516 2 -2 -4 -5 1080. -11. 4192. <
3516 1 -6 4 5 1080. -11. 4192. <
3517 4 -9 -1 12 129883. 115942. 3607. o
3517 3 -1 1 -12 129883. 115942. 3607. o
3517 2 -4 -4 -3 129883. 115942. 3607. o
3517 1 -6 4 3 129883. 115942. 3607. o
3518 4 1 1 12 128717. 121423. 3869. o
3518 3 9 -1 -12 128717. 121423. 3869. o
3518 2 4 -4 3 128717. 121423. 3869. o
3518 1 6 4 -3 128717. 121423. 3869. o
3519 2 -6 4 -1 355. -1283. 5042. <
3519 1 -6 -4 1 355. -1283. 5042. <
3520 4 -10 0 12 5694. 2003. 2171. <
3520 3 -2 0 -12 5694. 2003. 2171. <
3520 2 -6 -4 0 5694. 2003. 2171. <
3520 1 -6 4 0 5694. 2003. 2171. <
3521 4 -2 0 -12 5836. 3838. 3316. <
3521 3 -10 0 12 5836. 3838. 3316. <
3521 2 -6 4 0 5836. 3838. 3316. <
3521 1 -6 -4 0 5836. 3838. 3316. <
3522 2 -6 4 1 263. 1648. 5301. <
3522 1 -6 -4 -1 263. 1648. 5301. <
3523 2 -8 -4 2 190. 576. 5343. <
3523 1 -6 4 -2 190. 576. 5343. <
3524 4 -11 1 12 7626. 3098. 2797. <
3524 3 -3 -1 -12 7626. 3098. 2797. <
3524 2 -8 -4 3 7626. 3098. 2797. <
3524 1 -6 4 -3 7626. 3098. 2797. <
3525 4 -3 1 -12 7485. 3812. 4055. <
3525 3 -11 -1 12 7485. 3812. 4055. <
3525 2 -8 4 3 7485. 3812. 4055. <
3525 1 -6 -4 -3 7485. 3812. 4055. <
3526 2 -8 4 4 6628. 4519. 6986. <
3526 1 -6 -4 -4 6628. 4519. 6986. <
3527 2 10 -4 -5 1558. -1445. 3651. <
3527 1 6 4 5 1558. -1445. 3651. <
3528 4 -12 2 12 107673. 95520. 8805. o
3528 3 -4 -2 -12 107673. 95520. 8805. o
3528 2 -10 -4 6 107673. 95520. 8805. o
3528 1 -6 4 -6 107673. 95520. 8805. o
3529 4 4 -2 12 108992. 84305. 7360. o
3529 3 12 2 -12 108992. 84305. 7360. o
3529 2 10 -4 -6 108992. 84305. 7360. o
3529 1 6 4 6 108992. 84305. 7360. o
3530 2 -10 4 7 1483. 293. 4756. <
3530 1 -6 -4 -7 1483. 293. 4756. <
3531 4 -13 3 12 139089. 141500. 5831. o
3531 3 -5 -3 -12 139089. 141500. 5831. o
3531 2 -12 -4 9 139089. 141500. 5831. o
3531 1 -6 4 -9 139089. 141500. 5831. o
3532 4 -4 -4 3 2113. 2382. 2197. <
3532 3 -2 4 -3 2113. 2382. 2197. <
3532 2 1 -1 -12 2113. 2382. 2197. <
3532 1 -7 1 12 2113. 2382. 2197. <
3533 4 -5 -3 3 596940. 658708. 10240. o
3533 3 -3 3 -3 596940. 658708. 10240. o
3533 2 -1 -1 -9 596940. 658708. 10240. o
3533 1 -7 1 9 596940. 658708. 10240. o
3534 4 -3 -3 -3 599204. 629532. 2422. o
3534 3 -5 3 3 599204. 629532. 2422. o
3534 2 -1 1 -9 599204. 629532. 2422. o
3534 1 -7 -1 9 599204. 629532. 2422. o
3535 4 6 2 -3 301220. 287416. 3433. o
3535 3 4 -2 3 301220. 287416. 3433. o
3535 2 3 1 6 301220. 287416. 3433. o
3535 1 7 -1 -6 301220. 287416. 3433. o
3536 4 4 2 3 301091. 279426. 3176. o
3536 3 6 -2 -3 301091. 279426. 3176. o
3536 2 3 -1 6 301091. 279426. 3176. o
3536 1 7 1 -6 301091. 279426. 3176. o
3537 4 7 1 -3 1535. 1584. 667. <
3537 3 5 -1 3 1535. 1584. 667. <
3537 2 5 1 3 1535. 1584. 667. <
3537 1 7 -1 -3 1535. 1584. 667. <
3538 4 5 1 3 1502. 1297. 1204. <
3538 3 7 -1 -3 1502. 1297. 1204. <
3538 2 5 -1 3 1502. 1297. 1204. <
3538 1 7 1 -3 1502. 1297. 1204. <
3539 4 -8 0 3 20551. 21321. 877. o
3539 3 -6 0 -3 20551. 21321. 877. o
3539 2 -7 -1 0 20551. 21321. 877. o
3539 1 -7 1 0 20551. 21321. 877. o
3540 4 6 0 3 20132. 24432. 1773. o
3540 3 8 0 -3 20132. 24432. 1773. o
3540 2 7 -1 0 20132. 24432. 1773. o
3540 1 7 1 0 20132. 24432. 1773. o
3541 4 -9 1 3 75638. 73855. 1195. o
3541 3 -7 -1 -3 75638. 73855. 1195. o
3541 2 -9 -1 3 75638. 73855. 1195. o
3541 1 -7 1 -3 75638. 73855. 1195. o
3542 4 7 -1 3 74725. 79669. 1824. o
3542 3 9 1 -3 74725. 79669. 1824. o
3542 2 9 -1 -3 74725. 79669. 1824. o
3542 1 7 1 3 74725. 79669. 1824. o
3543 4 -10 2 3 428227. 456833. 2748. o
3543 3 -8 -2 -3 428227. 456833. 2748. o
3543 2 -11 -1 6 428227. 456833. 2748. o
3543 1 -7 1 -6 428227. 456833. 2748. o
3544 4 -8 2 -3 426701. 423618. 10058. o
3544 3 -10 -2 3 426701. 423618. 10058. o
3544 2 -11 1 6 426701. 423618. 10058. o
3544 1 -7 -1 -6 426701. 423618. 10058. o
3545 4 11 -3 -3 10414. 12881. 1317. o
3545 3 9 3 3 10414. 12881. 1317. o
3545 2 13 1 -9 10414. 12881. 1317. o
3545 1 7 -1 9 10414. 12881. 1317. o
3546 4 -9 3 -3 10359. 5293. 3116. <
3546 3 -11 -3 3 10359. 5293. 3116. <
3546 2 -13 1 9 10359. 5293. 3116. <
3546 1 -7 -1 -9 10359. 5293. 3116. <
3547 4 -6 -4 9 1309. -550. 9901. <
3547 3 0 4 -9 1309. -550. 9901. <
3547 2 1 -3 -12 1309. -550. 9901. <
3547 1 -7 3 12 1309. -550. 9901. <
3548 2 -1 -3 -10 4081. -1650. 3759. <
3548 1 -7 3 10 4081. -1650. 3759. <
3549 4 -7 -3 9 318618. 253411. 6011. o
3549 3 -1 3 -9 318618. 253411. 6011. o
3549 2 -1 -3 -9 318618. 253411. 6011. o
3549 1 -7 3 9 318618. 253411. 6011. o
3550 4 1 3 9 320799. 304538. 4970. o
3550 3 7 -3 -9 320799. 304538. 4970. o
3550 2 1 -3 9 320799. 304538. 4970. o
3550 1 7 3 -9 320799. 304538. 4970. o
3551 2 -1 -3 -8 2360. 175. 4505. <
3551 1 -7 3 8 2360. 175. 4505. <
3552 4 -8 -2 9 175073. 156578. 2785. o
3552 3 -2 2 -9 175073. 156578. 2785. o
3552 2 -3 -3 -6 175073. 156578. 2785. o
3552 1 -7 3 6 175073. 156578. 2785. o
3553 4 -2 -2 -9 174193. 195157. 4008. o
3553 3 -8 2 9 174193. 195157. 4008. o
3553 2 -3 3 -6 174193. 195157. 4008. o
3553 1 -7 -3 6 174193. 195157. 4008. o
3554 4 -9 -1 9 5735. 3444. 1419. <
3554 3 -3 1 -9 5735. 3444. 1419. <
3554 2 -5 -3 -3 5735. 3444. 1419. <
3554 1 -7 3 3 5735. 3444. 1419. <
3555 4 -3 -1 -9 5514. 5238. 2474. <
3555 3 -9 1 9 5514. 5238. 2474. <
3555 2 -5 3 -3 5514. 5238. 2474. <
3555 1 -7 -3 3 5514. 5238. 2474. <
3556 4 -10 0 9 11478. 16040. 2239. o
3556 3 -4 0 -9 11478. 16040. 2239. o
3556 2 -7 -3 0 11478. 16040. 2239. o
3556 1 -7 3 0 11478. 16040. 2239. o
3557 4 4 0 9 11075. 16878. 2149. o
3557 3 10 0 -9 11075. 16878. 2149. o
3557 2 7 -3 0 11075. 16878. 2149. o
3557 1 7 3 0 11075. 16878. 2149. o
3558 4 -11 1 9 25400. 18267. 1779. o
3558 3 -5 -1 -9 25400. 18267. 1779. o
3558 2 -9 -3 3 25400. 18267. 1779. o
3558 1 -7 3 -3 25400. 18267. 1779. o
3559 4 5 -1 9 25214. 18739. 2616. o
3559 3 11 1 -9 25214. 18739. 2616. o
3559 2 9 -3 -3 25214. 18739. 2616. o
3559 1 7 3 3 25214. 18739. 2616. o
3560 2 -9 3 4 1988. 1583. 4696. <
3560 1 -7 -3 -4 1988. 1583. 4696. <
3561 4 -12 2 9 250265. 233535. 4322. o
3561 3 -6 -2 -9 250265. 233535. 4322. o
3561 2 -11 -3 6 250265. 233535. 4322. o
3561 1 -7 3 -6 250265. 233535. 4322. o
3562 4 -6 2 -9 249729. 208441. 4714. o
3562 3 -12 -2 9 249729. 208441. 4714. o
3562 2 -11 3 6 249729. 208441. 4714. o
3562 1 -7 -3 -6 249729. 208441. 4714. o
3563 2 -11 -3 7 19760. 26206. 3001. o
3563 1 -7 3 -7 19760. 26206. 3001. o
3564 4 -13 3 9 4850. 7449. 2804. <
3564 3 -7 -3 -9 4850. 7449. 2804. <
3564 2 -13 -3 9 4850. 7449. 2804. <
3564 1 -7 3 -9 4850. 7449. 2804. <
3565 4 -10 -2 15 80835. 77350. 6657. o
3565 3 0 2 -15 80835. 77350. 6657. o
3565 2 -3 -5 -6 80835. 77350. 6657. o
3565 1 -7 5 6 80835. 77350. 6657. o
3566 4 -11 -1 15 8151. 4551. 5022. <
3566 3 -1 1 -15 8151. 4551. 5022. <
3566 2 -5 -5 -3 8151. 4551. 5022. <
3566 1 -7 5 3 8151. 4551. 5022. <
3567 2 -5 -5 -2 192. -2078. 10347. <
3567 1 -7 5 2 192. -2078. 10347. <
3568 2 -7 5 -1 2435. 6470. 10298. <
3568 1 -7 -5 1 2435. 6470. 10298. <
3569 4 -12 0 15 4802. 7089. 8606. <
3569 3 -2 0 -15 4802. 7089. 8606. <
3569 2 -7 -5 0 4802. 7089. 8606. <
3569 1 -7 5 0 4802. 7089. 8606. <
3570 4 2 0 15 4652. 7021. 6803. <
3570 3 12 0 -15 4652. 7021. 6803. <
3570 2 7 -5 0 4652. 7021. 6803. <
3570 1 7 5 0 4652. 7021. 6803. <
3571 2 -7 5 1 2402. 4836. 10664. <
3571 1 -7 -5 -1 2402. 4836. 10664. <
3572 2 -9 5 2 76. 3010. 8391. <
3572 1 -7 -5 -2 76. 3010. 8391. <
3573 4 3 -1 15 14160. -790. 9250. <
3573 3 13 1 -15 14160. -790. 9250. <
3573 2 9 -5 -3 14160. -790. 9250. <
3573 1 7 5 3 14160. -790. 9250. <
3574 4 -4 -4 0 62779. 56597. 1707. o
3574 3 -4 4 0 62779. 56597. 1707. o
3574 2 0 0 -12 62779. 56597. 1707. o
3574 1 -8 0 12 62779. 56597. 1707. o
3575 4 -5 -3 0 234932. 268673. 2533. o
3575 3 -5 3 0 234932. 268673. 2533. o
3575 2 -2 0 -9 234932. 268673. 2533. o
3575 1 -8 0 9 234932. 268673. 2533. o
3576 4 6 2 0 2215. 2601. 717. o
3576 3 6 -2 0 2215. 2601. 717. o
3576 2 4 0 6 2215. 2601. 717. o
3576 1 8 0 -6 2215. 2601. 717. o
3577 4 7 1 0 26000. 27189. 1272. o
3577 3 7 -1 0 26000. 27189. 1272. o
3577 2 6 0 3 26000. 27189. 1272. o
3577 1 8 0 -3 26000. 27189. 1272. o
3578 4 -8 0 0 795705. 734595. 5866. o
3578 3 -8 0 0 795705. 734595. 5866. o
3578 2 -8 0 0 795705. 734595. 5866. o
3578 1 -8 0 0 795705. 734595. 5866. o
3579 4 9 -1 0 605644. 640041. 3823. o
3579 3 9 1 0 605644. 640041. 3823. o
3579 2 10 0 -3 605644. 640041. 3823. o
3579 1 8 0 3 605644. 640041. 3823. o
3580 4 -10 2 0 65447. 71088. 2601. o
3580 3 -10 -2 0 65447. 71088. 2601. o
3580 2 -12 0 6 65447. 71088. 2601. o
3580 1 -8 0 -6 65447. 71088. 2601. o
3581 4 -11 3 0 3037. 1412. 1760. <
3581 3 -11 -3 0 3037. 1412. 1760. <
3581 2 -14 0 9 3037. 1412. 1760. <
3581 1 -8 0 -9 3037. 1412. 1760. <
3582 2 2 -2 -14 4248. 1811. 6525. <
3582 1 -8 2 14 4248. 1811. 6525. <
3583 2 0 -2 -13 3798. -162. 5471. <
3583 1 -8 2 13 3798. -162. 5471. <
3584 4 -6 -4 6 53156. 60659. 4711. o
3584 3 -2 4 -6 53156. 60659. 4711. o
3584 2 0 -2 -12 53156. 60659. 4711. o
3584 1 -8 2 12 53156. 60659. 4711. o
3585 2 -2 -2 -10 16618. 13915. 3617. o
3585 1 -8 2 10 16618. 13915. 3617. o
3586 4 -7 -3 6 180865. 198590. 4696. o
3586 3 -3 3 -6 180865. 198590. 4696. o
3586 2 -2 -2 -9 180865. 198590. 4696. o
3586 1 -8 2 9 180865. 198590. 4696. o
3587 4 -3 -3 -6 179402. 209686. 2282. o
3587 3 -7 3 6 179402. 209686. 2282. o
3587 2 -2 2 -9 179402. 209686. 2282. o
3587 1 -8 -2 9 179402. 209686. 2282. o
3588 4 -8 -2 6 4080. 2510. 1366. <
3588 3 -4 2 -6 4080. 2510. 1366. <
3588 2 -4 -2 -6 4080. 2510. 1366. <
3588 1 -8 2 6 4080. 2510. 1366. <
3589 4 -4 -2 -6 4153. 2260. 1714. <
3589 3 -8 2 6 4153. 2260. 1714. <
3589 2 -4 2 -6 4153. 2260. 1714. <
3589 1 -8 -2 6 4153. 2260. 1714. <
3590 4 -9 -1 6 17606. 12935. 1249. o
3590 3 -5 1 -6 17606. 12935. 1249. o
3590 2 -6 -2 -3 17606. 12935. 1249. o
3590 1 -8 2 3 17606. 12935. 1249. o
3591 4 5 1 6 17553. 12791. 2201. o
3591 3 9 -1 -6 17553. 12791. 2201. o
3591 2 6 -2 3 17553. 12791. 2201. o
3591 1 8 2 -3 17553. 12791. 2201. o
3592 4 -10 0 6 455352. 422790. 3250. o
3592 3 -6 0 -6 455352. 422790. 3250. o
3592 2 -8 -2 0 455352. 422790. 3250. o
3592 1 -8 2 0 455352. 422790. 3250. o
3593 4 -6 0 -6 462041. 457494. 4181. o
3593 3 -10 0 6 462041. 457494. 4181. o
3593 2 -8 2 0 462041. 457494. 4181. o
3593 1 -8 -2 0 462041. 457494. 4181. o
3594 4 -11 1 6 430767. 503987. 5249. o
3594 3 -7 -1 -6 430767. 503987. 5249. o
3594 2 -10 -2 3 430767. 503987. 5249. o
3594 1 -8 2 -3 430767. 503987. 5249. o
3595 4 -7 1 -6 433143. 436510. 5693. o
3595 3 -11 -1 6 433143. 436510. 5693. o
3595 2 -10 2 3 433143. 436510. 5693. o
3595 1 -8 -2 -3 433143. 436510. 5693. o
3596 4 -12 2 6 58324. 19591. 1276. o
3596 3 -8 -2 -6 58324. 19591. 1276. o
3596 2 -12 -2 6 58324. 19591. 1276. o
3596 1 -8 2 -6 58324. 19591. 1276. o
3597 4 8 -2 6 57888. 58797. 2742. o
3597 3 12 2 -6 57888. 58797. 2742. o
3597 2 12 -2 -6 57888. 58797. 2742. o
3597 1 8 2 6 57888. 58797. 2742. o
3598 4 -13 3 6 2658. 1560. 1576. <
3598 3 -9 -3 -6 2658. 1560. 1576. <
3598 2 -14 -2 9 2658. 1560. 1576. <
3598 1 -8 2 -9 2658. 1560. 1576. <
3599 4 9 -3 6 2565. 1174. 3291. <
3599 3 13 3 -6 2565. 1174. 3291. <
3599 2 14 -2 -9 2565. 1174. 3291. <
3599 1 8 2 9 2565. 1174. 3291. <
3600 2 2 -4 10 6266. 2074. 7240. <
3600 1 8 4 -10 6266. 2074. 7240. <
3601 4 -9 -3 12 94393. 99775. 8909. o
3601 3 -1 3 -12 94393. 99775. 8909. o
3601 2 -2 -4 -9 94393. 99775. 8909. o
3601 1 -8 4 9 94393. 99775. 8909. o
3602 2 -2 -4 -8 1824. 3093. 4256. <
3602 1 -8 4 8 1824. 3093. 4256. <
3603 2 4 -4 7 1824. 1450. 7148. <
3603 1 8 4 -7 1824. 1450. 7148. <
3604 4 -10 -2 12 5094. 551. 3422. <
3604 3 -2 2 -12 5094. 551. 3422. <
3604 2 -4 -4 -6 5094. 551. 3422. <
3604 1 -8 4 6 5094. 551. 3422. <
3605 4 2 2 12 5213. 2282. 3468. <
3605 3 10 -2 -12 5213. 2282. 3468. <
3605 2 4 -4 6 5213. 2282. 3468. <
3605 1 8 4 -6 5213. 2282. 3468. <
3606 2 6 -4 4 6873. 9725. 6639. <
3606 1 8 4 -4 6873. 9725. 6639. <
3607 4 -11 -1 12 8063. 1998. 2914. <
3607 3 -3 1 -12 8063. 1998. 2914. <
3607 2 -6 -4 -3 8063. 1998. 2914. <
3607 1 -8 4 3 8063. 1998. 2914. <
3608 4 3 1 12 7921. 4010. 3528. <
3608 3 11 -1 -12 7921. 4010. 3528. <
3608 2 6 -4 3 7921. 4010. 3528. <
3608 1 8 4 -3 7921. 4010. 3528. <
3609 2 6 -4 2 203. 1416. 4004. <
3609 1 8 4 -2 203. 1416. 4004. <
3610 2 8 -4 1 79. -554. 4206. <
3610 1 8 4 -1 79. -554. 4206. <
3611 4 -12 0 12 159469. 81297. 3563. o
3611 3 -4 0 -12 159469. 81297. 3563. o
3611 2 -8 -4 0 159469. 81297. 3563. o
3611 1 -8 4 0 159469. 81297. 3563. o
3612 4 -4 0 -12 161362. 147239. 4708. o
3612 3 -12 0 12 161362. 147239. 4708. o
3612 2 -8 4 0 161362. 147239. 4708. o
3612 1 -8 -4 0 161362. 147239. 4708. o
3613 2 8 -4 -1 79. 1709. 5677. <
3613 1 8 4 1 79. 1709. 5677. <
3614 4 -13 1 12 212530. 249486. 4406. o
3614 3 -5 -1 -12 212530. 249486. 4406. o
3614 2 -10 -4 3 212530. 249486. 4406. o
3614 1 -8 4 -3 212530. 249486. 4406. o
3615 4 -5 1 -12 212618. 248949. 5708. o
3615 3 -13 -1 12 212618. 248949. 5708. o
3615 2 -10 4 3 212618. 248949. 5708. o
3615 1 -8 -4 -3 212618. 248949. 5708. o
3616 2 -10 4 4 3570. 5849. 4592. <
3616 1 -8 -4 -4 3570. 5849. 4592. <
3617 2 -12 -4 5 748. -1365. 4177. <
3617 1 -8 4 -5 748. -1365. 4177. <
3618 4 -14 2 12 41851. 32311. 8847. o
3618 3 -6 -2 -12 41851. 32311. 8847. o
3618 2 -12 -4 6 41851. 32311. 8847. o
3618 1 -8 4 -6 41851. 32311. 8847. o
3619 4 -6 2 -12 41301. 24591. 5704. o
3619 3 -14 -2 12 41301. 24591. 5704. o
3619 2 -12 4 6 41301. 24591. 5704. o
3619 1 -8 -4 -6 41301. 24591. 5704. o
3620 2 -12 -4 7 1531. -1893. 5973. <
3620 1 -8 4 -7 1531. -1893. 5973. <
3621 4 -5 -5 3 169899. 145562. 4858. o
3621 3 -3 5 -3 169899. 145562. 4858. o
3621 2 1 -1 -15 169899. 145562. 4858. o
3621 1 -9 1 15 169899. 145562. 4858. o
3622 4 -6 -4 3 135873. 111882. 2910. o
3622 3 -4 4 -3 135873. 111882. 2910. o
3622 2 -1 -1 -12 135873. 111882. 2910. o
3622 1 -9 1 12 135873. 111882. 2910. o
3623 4 -7 -3 3 9949. 9787. 3622. <
3623 3 -5 3 -3 9949. 9787. 3622. <
3623 2 -3 -1 -9 9949. 9787. 3622. <
3623 1 -9 1 9 9949. 9787. 3622. <
3624 4 -5 -3 -3 9916. 8261. 1334. o
3624 3 -7 3 3 9916. 8261. 1334. o
3624 2 -3 1 -9 9916. 8261. 1334. o
3624 1 -9 -1 9 9916. 8261. 1334. o
3625 4 8 2 -3 13400. 13498. 1575. o
3625 3 6 -2 3 13400. 13498. 1575. o
3625 2 5 1 6 13400. 13498. 1575. o
3625 1 9 -1 -6 13400. 13498. 1575. o
3626 4 6 2 3 13155. 11013. 1067. o
3626 3 8 -2 -3 13155. 11013. 1067. o
3626 2 5 -1 6 13155. 11013. 1067. o
3626 1 9 1 -6 13155. 11013. 1067. o
3627 4 9 1 -3 78264. 79253. 1538. o
3627 3 7 -1 3 78264. 79253. 1538. o
3627 2 7 1 3 78264. 79253. 1538. o
3627 1 9 -1 -3 78264. 79253. 1538. o
3628 4 7 1 3 77340. 81933. 2581. o
3628 3 9 -1 -3 77340. 81933. 2581. o
3628 2 7 -1 3 77340. 81933. 2581. o
3628 1 9 1 -3 77340. 81933. 2581. o
3629 4 10 0 -3 591124. 606586. 3673. o
3629 3 8 0 3 591124. 606586. 3673. o
3629 2 9 1 0 591124. 606586. 3673. o
3629 1 9 -1 0 591124. 606586. 3673. o
3630 4 8 0 3 587295. 572824. 4463. o
3630 3 10 0 -3 587295. 572824. 4463. o
3630 2 9 -1 0 587295. 572824. 4463. o
3630 1 9 1 0 587295. 572824. 4463. o
3631 4 -11 1 3 37038. 43367. 1254. o
3631 3 -9 -1 -3 37038. 43367. 1254. o
3631 2 -11 -1 3 37038. 43367. 1254. o
3631 1 -9 1 -3 37038. 43367. 1254. o
3632 4 -9 1 -3 36873. 39939. 1700. o
3632 3 -11 -1 3 36873. 39939. 1700. o
3632 2 -11 1 3 36873. 39939. 1700. o
3632 1 -9 -1 -3 36873. 39939. 1700. o
3633 4 -12 2 3 6391. 7184. 1134. o
3633 3 -10 -2 -3 6391. 7184. 1134. o
3633 2 -13 -1 6 6391. 7184. 1134. o
3633 1 -9 1 -6 6391. 7184. 1134. o
3634 4 -10 2 -3 6408. 7001. 2226. o
3634 3 -12 -2 3 6408. 7001. 2226. o
3634 2 -13 1 6 6408. 7001. 2226. o
3634 1 -9 -1 -6 6408. 7001. 2226. o
3635 4 13 -3 -3 40024. 35681. 1524. o
3635 3 11 3 3 40024. 35681. 1524. o
3635 2 15 1 -9 40024. 35681. 1524. o
3635 1 9 -1 9 40024. 35681. 1524. o
3636 4 11 -3 3 40319. 22393. 2838. o
3636 3 13 3 -3 40319. 22393. 2838. o
3636 2 15 -1 -9 40319. 22393. 2838. o
3636 1 9 1 9 40319. 22393. 2838. o
3637 4 -8 -4 9 92643. 95299. 7447. o
3637 3 -2 4 -9 92643. 95299. 7447. o
3637 2 -1 -3 -12 92643. 95299. 7447. o
3637 1 -9 3 12 92643. 95299. 7447. o
3638 4 2 4 9 92253. 101387. 4596. o
3638 3 8 -4 -9 92253. 101387. 4596. o
3638 2 1 -3 12 92253. 101387. 4596. o
3638 1 9 3 -12 92253. 101387. 4596. o
3639 4 -9 -3 9 9056. 6242. 3291. <
3639 3 -3 3 -9 9056. 6242. 3291. <
3639 2 -3 -3 -9 9056. 6242. 3291. <
3639 1 -9 3 9 9056. 6242. 3291. <
3640 4 3 3 9 8908. 5539. 2247. <
3640 3 9 -3 -9 8908. 5539. 2247. <
3640 2 3 -3 9 8908. 5539. 2247. <
3640 1 9 3 -9 8908. 5539. 2247. <
3641 4 -10 -2 9 8367. 11784. 2376. o
3641 3 -4 2 -9 8367. 11784. 2376. o
3641 2 -5 -3 -6 8367. 11784. 2376. o
3641 1 -9 3 6 8367. 11784. 2376. o
3642 4 4 2 9 8064. 12200. 2365. o
3642 3 10 -2 -9 8064. 12200. 2365. o
3642 2 5 -3 6 8064. 12200. 2365. o
3642 1 9 3 -6 8064. 12200. 2365. o
3643 4 -11 -1 9 26728. 18905. 2099. o
3643 3 -5 1 -9 26728. 18905. 2099. o
3643 2 -7 -3 -3 26728. 18905. 2099. o
3643 1 -9 3 3 26728. 18905. 2099. o
3644 4 -5 -1 -9 26541. 17490. 2423. o
3644 3 -11 1 9 26541. 17490. 2423. o
3644 2 -7 3 -3 26541. 17490. 2423. o
3644 1 -9 -3 3 26541. 17490. 2423. o
3645 4 -12 0 9 307219. 305252. 3600. o
3645 3 -6 0 -9 307219. 305252. 3600. o
3645 2 -9 -3 0 307219. 305252. 3600. o
3645 1 -9 3 0 307219. 305252. 3600. o
3646 4 -6 0 -9 306336. 318022. 4452. o
3646 3 -12 0 9 306336. 318022. 4452. o
3646 2 -9 3 0 306336. 318022. 4452. o
3646 1 -9 -3 0 306336. 318022. 4452. o
3647 2 -11 3 2 686. 619. 4949. <
3647 1 -9 -3 -2 686. 619. 4949. <
3648 4 -13 1 9 10899. 12161. 2033. o
3648 3 -7 -1 -9 10899. 12161. 2033. o
3648 2 -11 -3 3 10899. 12161. 2033. o
3648 1 -9 3 -3 10899. 12161. 2033. o
3649 4 7 -1 9 10737. 20914. 3884. o
3649 3 13 1 -9 10737. 20914. 3884. o
3649 2 11 -3 -3 10737. 20914. 3884. o
3649 1 9 3 3 10737. 20914. 3884. o
3650 2 -11 3 4 688. 1281. 5431. <
3650 1 -9 -3 -4 688. 1281. 5431. <
3651 2 -13 3 5 413. -2282. 6217. <
3651 1 -9 -3 -5 413. -2282. 6217. <
3652 4 -14 2 9 3687. 2438. 2261. <
3652 3 -8 -2 -9 3687. 2438. 2261. <
3652 2 -13 -3 6 3687. 2438. 2261. <
3652 1 -9 3 -6 3687. 2438. 2261. <
3653 4 8 -2 9 3680. 390. 3910. <
3653 3 14 2 -9 3680. 390. 3910. <
3653 2 13 -3 -6 3680. 390. 3910. <
3653 1 9 3 6 3680. 390. 3910. <
3654 4 -15 3 9 16195. 12182. 3420. o
3654 3 -9 -3 -9 16195. 12182. 3420. o
3654 2 -15 -3 9 16195. 12182. 3420. o
3654 1 -9 3 -9 16195. 12182. 3420. o
3655 2 -7 -5 -4 1063. -3417. 7819. <
3655 1 -9 5 4 1063. -3417. 7819. <
3656 4 -13 -1 15 14083. 54. 10391. <
3656 3 -3 1 -15 14083. 54. 10391. <
3656 2 -7 -5 -3 14083. 54. 10391. <
3656 1 -9 5 3 14083. 54. 10391. <
3657 2 -7 -5 -2 106. 1682. 10580. <
3657 1 -9 5 2 106. 1682. 10580. <
3658 2 9 -5 -1 3968. 2318. 8705. <
3658 1 9 5 1 3968. 2318. 8705. <
3659 2 -11 5 2 287. 4205. 14295. <
3659 1 -9 -5 -2 287. 4205. 14295. <
3660 4 5 -1 15 2231. 6839. 11713. <
3660 3 15 1 -15 2231. 6839. 11713. <
3660 2 11 -5 -3 2231. 6839. 11713. <
3660 1 9 5 3 2231. 6839. 11713. <
3661 2 -11 5 4 467. -7386. 16378. <
3661 1 -9 -5 -4 467. -7386. 16378. <
3662 4 7 3 0 14301. 19374. 1273. o
3662 3 7 -3 0 14301. 19374. 1273. o
3662 2 4 0 9 14301. 19374. 1273. o
3662 1 10 0 -9 14301. 19374. 1273. o
3663 4 -8 -2 0 424393. 410146. 3104. o
3663 3 -8 2 0 424393. 410146. 3104. o
3663 2 -6 0 -6 424393. 410146. 3104. o
3663 1 -10 0 6 424393. 410146. 3104. o
3664 4 9 1 0 608438. 647092. 3906. o
3664 3 9 -1 0 608438. 647092. 3906. o
3664 2 8 0 3 608438. 647092. 3906. o
3664 1 10 0 -3 608438. 647092. 3906. o
3665 4 -10 0 0 65049. 69702. 1556. o
3665 3 -10 0 0 65049. 69702. 1556. o
3665 2 -10 0 0 65049. 69702. 1556. o
3665 1 -10 0 0 65049. 69702. 1556. o
3666 4 11 -1 0 5175. 6343. 1158. o
3666 3 11 1 0 5175. 6343. 1158. o
3666 2 12 0 -3 5175. 6343. 1158. o
3666 1 10 0 3 5175. 6343. 1158. o
3667 4 12 -2 0 203033. 242492. 2938. o
3667 3 12 2 0 203033. 242492. 2938. o
3667 2 14 0 -6 203033. 242492. 2938. o
3667 1 10 0 6 203033. 242492. 2938. o
3668 4 -13 3 0 189513. 67465. 3468. o
3668 3 -13 -3 0 189513. 67465. 3468. o
3668 2 -16 0 9 189513. 67465. 3468. o
3668 1 -10 0 -9 189513. 67465. 3468. o
3669 2 -2 -2 -13 2342. 333. 6136. <
3669 1 -10 2 13 2342. 333. 6136. <
3670 4 -8 -4 6 4729. 6517. 7541. <
3670 3 -4 4 -6 4729. 6517. 7541. <
3670 2 -2 -2 -12 4729. 6517. 7541. <
3670 1 -10 2 12 4729. 6517. 7541. <
3671 2 -2 -2 -11 8584. -863. 4646. <
3671 1 -10 2 11 8584. -863. 4646. <
3672 2 -4 -2 -10 16314. 19724. 4200. o
3672 1 -10 2 10 16314. 19724. 4200. o
3673 4 -9 -3 6 10932. 12921. 5540. <
3673 3 -5 3 -6 10932. 12921. 5540. <
3673 2 -4 -2 -9 10932. 12921. 5540. <
3673 1 -10 2 9 10932. 12921. 5540. <
3674 4 5 3 6 10892. 13040. 1602. o
3674 3 9 -3 -6 10892. 13040. 1602. o
3674 2 4 -2 9 10892. 13040. 1602. o
3674 1 10 2 -9 10892. 13040. 1602. o
3675 4 -10 -2 6 272921. 295286. 4192. o
3675 3 -6 2 -6 272921. 295286. 4192. o
3675 2 -6 -2 -6 272921. 295286. 4192. o
3675 1 -10 2 6 272921. 295286. 4192. o
3676 4 -6 -2 -6 275883. 275381. 3197. o
3676 3 -10 2 6 275883. 275381. 3197. o
3676 2 -6 2 -6 275883. 275381. 3197. o
3676 1 -10 -2 6 275883. 275381. 3197. o
3677 4 11 1 -6 432743. 452337. 3746. o
3677 3 7 -1 6 432743. 452337. 3746. o
3677 2 8 2 3 432743. 452337. 3746. o
3677 1 10 -2 -3 432743. 452337. 3746. o
3678 4 7 1 6 435126. 456210. 4337. o
3678 3 11 -1 -6 435126. 456210. 4337. o
3678 2 8 -2 3 435126. 456210. 4337. o
3678 1 10 2 -3 435126. 456210. 4337. o
3679 4 12 0 -6 58951. 57311. 1720. o
3679 3 8 0 6 58951. 57311. 1720. o
3679 2 10 2 0 58951. 57311. 1720. o
3679 1 10 -2 0 58951. 57311. 1720. o
3680 4 -8 0 -6 58372. 57435. 2272. o
3680 3 -12 0 6 58372. 57435. 2272. o
3680 2 -10 2 0 58372. 57435. 2272. o
3680 1 -10 -2 0 58372. 57435. 2272. o
3681 4 13 -1 -6 4078. 5584. 1317. o
3681 3 9 1 6 4078. 5584. 1317. o
3681 2 12 2 -3 4078. 5584. 1317. o
3681 1 10 -2 3 4078. 5584. 1317. o
3682 4 -9 1 -6 3899. 5728. 2089. <
3682 3 -13 -1 6 3899. 5728. 2089. <
3682 2 -12 2 3 3899. 5728. 2089. <
3682 1 -10 -2 -3 3899. 5728. 2089. <
3683 4 -14 2 6 132671. 51773. 1864. o
3683 3 -10 -2 -6 132671. 51773. 1864. o
3683 2 -14 -2 6 132671. 51773. 1864. o
3683 1 -10 2 -6 132671. 51773. 1864. o
3684 4 10 -2 6 130886. 130611. 3641. o
3684 3 14 2 -6 130886. 130611. 3641. o
3684 2 14 -2 -6 130886. 130611. 3641. o
3684 1 10 2 6 130886. 130611. 3641. o
3685 2 -14 2 7 4542. -439. 4941. <
3685 1 -10 -2 -7 4542. -439. 4941. <
3686 4 15 -3 -6 149434. 162737. 2704. o
3686 3 11 3 6 149434. 162737. 2704. o
3686 2 16 2 -9 149434. 162737. 2704. o
3686 1 10 -2 9 149434. 162737. 2704. o
3687 4 11 -3 6 149879. 159553. 4677. o
3687 3 15 3 -6 149879. 159553. 4677. o
3687 2 16 -2 -9 149879. 159553. 4677. o
3687 1 10 2 9 149879. 159553. 4677. o
3688 4 -11 -3 12 5677. 4388. 8537. <
3688 3 -3 3 -12 5677. 4388. 8537. <
3688 2 -4 -4 -9 5677. 4388. 8537. <
3688 1 -10 4 9 5677. 4388. 8537. <
3689 4 3 3 12 5583. 4353. 5375. <
3689 3 11 -3 -12 5583. 4353. 5375. <
3689 2 4 -4 9 5583. 4353. 5375. <
3689 1 10 4 -9 5583. 4353. 5375. <
3690 2 4 -4 8 3363. 8211. 7961. <
3690 1 10 4 -8 3363. 8211. 7961. <
3691 2 6 -4 7 1943. -1254. 8152. <
3691 1 10 4 -7 1943. -1254. 8152. <
3692 4 -12 -2 12 104806. 72662. 8063. o
3692 3 -4 2 -12 104806. 72662. 8063. o
3692 2 -6 -4 -6 104806. 72662. 8063. o
3692 1 -10 4 6 104806. 72662. 8063. o
3693 4 -4 -2 -12 106116. 104937. 4439. o
3693 3 -12 2 12 106116. 104937. 4439. o
3693 2 -6 4 -6 106116. 104937. 4439. o
3693 1 -10 -4 6 106116. 104937. 4439. o
3694 2 6 -4 5 1383. -1851. 7253. <
3694 1 10 4 -5 1383. -1851. 7253. <
3695 4 -13 -1 12 213341. 244951. 6722. o
3695 3 -5 1 -12 213341. 244951. 6722. o
3695 2 -8 -4 -3 213341. 244951. 6722. o
3695 1 -10 4 3 213341. 244951. 6722. o
3696 4 5 1 12 213429. 232643. 7845. o
3696 3 13 -1 -12 213429. 232643. 7845. o
3696 2 8 -4 3 213429. 232643. 7845. o
3696 1 10 4 -3 213429. 232643. 7845. o
3697 2 -8 -4 -2 44. -397. 3341. <
3697 1 -10 4 2 44. -397. 3341. <
3698 2 -10 -4 -1 329. 809. 3631. <
3698 1 -10 4 1 329. 809. 3631. <
3699 4 -14 0 12 45785. 36141. 3576. o
3699 3 -6 0 -12 45785. 36141. 3576. o
3699 2 -10 -4 0 45785. 36141. 3576. o
3699 1 -10 4 0 45785. 36141. 3576. o
3700 4 -6 0 -12 45096. 39086. 4579. o
3700 3 -14 0 12 45096. 39086. 4579. o
3700 2 -10 4 0 45096. 39086. 4579. o
3700 1 -10 -4 0 45096. 39086. 4579. o
3701 2 -10 4 1 415. -574. 7274. <
3701 1 -10 -4 -1 415. -574. 7274. <
3702 2 -12 4 2 537. -481. 5389. <
3702 1 -10 -4 -2 537. -481. 5389. <
3703 4 -15 1 12 2442. 6752. 8027. <
3703 3 -7 -1 -12 2442. 6752. 8027. <
3703 2 -12 -4 3 2442. 6752. 8027. <
3703 1 -10 4 -3 2442. 6752. 8027. <
3704 4 7 -1 12 2331. 4898. 5186. <
3704 3 15 1 -12 2331. 4898. 5186. <
3704 2 12 -4 -3 2331. 4898. 5186. <
3704 1 10 4 3 2331. 4898. 5186. <
3705 2 -12 4 4 4363. 6106. 4296. <
3705 1 -10 -4 -4 4363. 6106. 4296. <
3706 4 -16 2 12 49567. 39330. 6110. o
3706 3 -8 -2 -12 49567. 39330. 6110. o
3706 2 -14 -4 6 49567. 39330. 6110. o
3706 1 -10 4 -6 49567. 39330. 6110. o
3707 4 8 -2 12 48996. 36855. 6736. o
3707 3 16 2 -12 48996. 36855. 6736. o
3707 2 14 -4 -6 48996. 36855. 6736. o
3707 1 10 4 6 48996. 36855. 6736. o
3708 2 -14 -4 7 2352. 1815. 7106. <
3708 1 -10 4 -7 2352. 1815. 7106. <
3709 4 -7 -5 3 15575. 13233. 4856. <
3709 3 -5 5 -3 15575. 13233. 4856. <
3709 2 -1 -1 -15 15575. 13233. 4856. <
3709 1 -11 1 15 15575. 13233. 4856. <
3710 4 -8 -4 3 5877. 2074. 2163. <
3710 3 -6 4 -3 5877. 2074. 2163. <
3710 2 -3 -1 -12 5877. 2074. 2163. <
3710 1 -11 1 12 5877. 2074. 2163. <
3711 4 6 4 3 5779. 3090. 1609. <
3711 3 8 -4 -3 5779. 3090. 1609. <
3711 2 3 -1 12 5779. 3090. 1609. <
3711 1 11 1 -12 5779. 3090. 1609. <
3712 4 -9 -3 3 13543. 9551. 2756. o
3712 3 -7 3 -3 13543. 9551. 2756. o
3712 2 -5 -1 -9 13543. 9551. 2756. o
3712 1 -11 1 9 13543. 9551. 2756. o
3713 4 -7 -3 -3 13234. 10380. 1772. o
3713 3 -9 3 3 13234. 10380. 1772. o
3713 2 -5 1 -9 13234. 10380. 1772. o
3713 1 -11 -1 9 13234. 10380. 1772. o
3714 4 10 2 -3 424889. 462636. 3496. o
3714 3 8 -2 3 424889. 462636. 3496. o
3714 2 7 1 6 424889. 462636. 3496. o
3714 1 11 -1 -6 424889. 462636. 3496. o
3715 4 -8 -2 -3 423372. 422481. 3554. o
3715 3 -10 2 3 423372. 422481. 3554. o
3715 2 -7 1 -6 423372. 422481. 3554. o
3715 1 -11 -1 6 423372. 422481. 3554. o
3716 4 -11 -1 3 37637. 40440. 3416. o
3716 3 -9 1 -3 37637. 40440. 3416. o
3716 2 -9 -1 -3 37637. 40440. 3416. o
3716 1 -11 1 3 37637. 40440. 3416. o
3717 4 -9 -1 -3 37471. 42849. 1638. o
3717 3 -11 1 3 37471. 42849. 1638. o
3717 2 -9 1 -3 37471. 42849. 1638. o
3717 1 -11 -1 3 37471. 42849. 1638. o
3718 4 12 0 -3 8426. 6431. 998. o
3718 3 10 0 3 8426. 6431. 998. o
3718 2 11 1 0 8426. 6431. 998. o
3718 1 11 -1 0 8426. 6431. 998. o
3719 4 10 0 3 8452. 6547. 1507. o
3719 3 12 0 -3 8452. 6547. 1507. o
3719 2 11 -1 0 8452. 6547. 1507. o
3719 1 11 1 0 8452. 6547. 1507. o
3720 4 13 -1 -3 138229. 147069. 2207. o
3720 3 11 1 3 138229. 147069. 2207. o
3720 2 13 1 -3 138229. 147069. 2207. o
3720 1 11 -1 3 138229. 147069. 2207. o
3721 4 11 -1 3 139070. 138628. 2750. o
3721 3 13 1 -3 139070. 138628. 2750. o
3721 2 13 -1 -3 139070. 138628. 2750. o
3721 1 11 1 3 139070. 138628. 2750. o
3722 4 14 -2 -3 227235. 211793. 2604. o
3722 3 12 2 3 227235. 211793. 2604. o
3722 2 15 1 -6 227235. 211793. 2604. o
3722 1 11 -1 6 227235. 211793. 2604. o
3723 4 12 -2 3 228638. 218132. 3528. o
3723 3 14 2 -3 228638. 218132. 3528. o
3723 2 15 -1 -6 228638. 218132. 3528. o
3723 1 11 1 6 228638. 218132. 3528. o
3724 4 -15 3 3 179960. 178674. 3052. o
3724 3 -13 -3 -3 179960. 178674. 3052. o
3724 2 -17 -1 9 179960. 178674. 3052. o
3724 1 -11 1 -9 179960. 178674. 3052. o
3725 4 -13 3 -3 179600. 188208. 3881. o
3725 3 -15 -3 3 179600. 188208. 3881. o
3725 2 -17 1 9 179600. 188208. 3881. o
3725 1 -11 -1 -9 179600. 188208. 3881. o
3726 4 4 4 9 3893. 440. 3319. <
3726 3 10 -4 -9 3893. 440. 3319. <
3726 2 3 -3 12 3893. 440. 3319. <
3726 1 11 3 -12 3893. 440. 3319. <
3727 4 -11 -3 9 2230. 2458. 7967. <
3727 3 -5 3 -9 2230. 2458. 7967. <
3727 2 -5 -3 -9 2230. 2458. 7967. <
3727 1 -11 3 9 2230. 2458. 7967. <
3728 4 5 3 9 2130. -234. 2601. <
3728 3 11 -3 -9 2130. -234. 2601. <
3728 2 5 -3 9 2130. -234. 2601. <
3728 1 11 3 -9 2130. -234. 2601. <
3729 2 -7 -3 -7 20094. 17558. 4435. o
3729 1 -11 3 7 20094. 17558. 4435. o
3730 4 -12 -2 9 248574. 218014. 4017. o
3730 3 -6 2 -9 248574. 218014. 4017. o
3730 2 -7 -3 -6 248574. 218014. 4017. o
3730 1 -11 3 6 248574. 218014. 4017. o
3731 4 6 2 9 248040. 242443. 4028. o
3731 3 12 -2 -9 248040. 242443. 4028. o
3731 2 7 -3 6 248040. 242443. 4028. o
3731 1 11 3 -6 248040. 242443. 4028. o
3732 4 -13 -1 9 11140. 23874. 3222. o
3732 3 -7 1 -9 11140. 23874. 3222. o
3732 2 -9 -3 -3 11140. 23874. 3222. o
3732 1 -11 3 3 11140. 23874. 3222. o
3733 4 7 1 9 10979. 25527. 2801. o
3733 3 13 -1 -9 10979. 25527. 2801. o
3733 2 9 -3 3 10979. 25527. 2801. o
3733 1 11 3 -3 10979. 25527. 2801. o
3734 4 -14 0 9 4208. 2328. 2174. <
3734 3 -8 0 -9 4208. 2328. 2174. <
3734 2 -11 -3 0 4208. 2328. 2174. <
3734 1 -11 3 0 4208. 2328. 2174. <
3735 4 -8 0 -9 4200. 2133. 2865. <
3735 3 -14 0 9 4200. 2133. 2865. <
3735 2 -11 3 0 4200. 2133. 2865. <
3735 1 -11 -3 0 4200. 2133. 2865. <
3736 2 11 3 -1 7446. 11325. 4048. <
3736 1 11 -3 1 7446. 11325. 4048. <
3737 4 -15 1 9 55143. 31963. 2622. o
3737 3 -9 -1 -9 55143. 31963. 2622. o
3737 2 -13 -3 3 55143. 31963. 2622. o
3737 1 -11 3 -3 55143. 31963. 2622. o
3738 4 -9 1 -9 55787. 52649. 4216. o
3738 3 -15 -1 9 55787. 52649. 4216. o
3738 2 -13 3 3 55787. 52649. 4216. o
3738 1 -11 -3 -3 55787. 52649. 4216. o
3739 2 -13 3 4 740. -2419. 6269. <
3739 1 -11 -3 -4 740. -2419. 6269. <
3740 2 -15 3 5 1449. 3631. 7013. <
3740 1 -11 -3 -5 1449. 3631. 7013. <
3741 4 -16 2 9 146117. 138410. 4628. o
3741 3 -10 -2 -9 146117. 138410. 4628. o
3741 2 -15 -3 6 146117. 138410. 4628. o
3741 1 -11 3 -6 146117. 138410. 4628. o
3742 4 -10 2 -9 147695. 169281. 5324. o
3742 3 -16 -2 9 147695. 169281. 5324. o
3742 2 -15 3 6 147695. 169281. 5324. o
3742 1 -11 -3 -6 147695. 169281. 5324. o
3743 2 -15 3 7 5405. 5701. 8393. <
3743 1 -11 -3 -7 5405. 5701. 8393. <
3744 4 -17 3 9 129473. 102935. 4342. o
3744 3 -11 -3 -9 129473. 102935. 4342. o
3744 2 -17 -3 9 129473. 102935. 4342. o
3744 1 -11 3 -9 129473. 102935. 4342. o
3745 2 -7 -5 -5 92. -1297. 12460. <
3745 1 -11 5 5 92. -1297. 12460. <
3746 4 -8 -4 0 114117. 124183. 4586. o
3746 3 -8 4 0 114117. 124183. 4586. o
3746 2 -4 0 -12 114117. 124183. 4586. o
3746 1 -12 0 12 114117. 124183. 4586. o
3747 4 9 3 0 316699. 294240. 5247. o
3747 3 9 -3 0 316699. 294240. 5247. o
3747 2 6 0 9 316699. 294240. 5247. o
3747 1 12 0 -9 316699. 294240. 5247. o
3748 4 10 2 0 67411. 67750. 2595. o
3748 3 10 -2 0 67411. 67750. 2595. o
3748 2 8 0 6 67411. 67750. 2595. o
3748 1 12 0 -6 67411. 67750. 2595. o
3749 4 -11 -1 0 5057. 5748. 1167. o
3749 3 -11 1 0 5057. 5748. 1167. o
3749 2 -10 0 -3 5057. 5748. 1167. o
3749 1 -12 0 3 5057. 5748. 1167. o
3750 4 -12 0 0 376798. 370925. 3354. o
3750 3 -12 0 0 376798. 370925. 3354. o
3750 2 -12 0 0 376798. 370925. 3354. o
3750 1 -12 0 0 376798. 370925. 3354. o
3751 4 13 -1 0 291962. 305135. 4057. o
3751 3 13 1 0 291962. 305135. 4057. o
3751 2 14 0 -3 291962. 305135. 4057. o
3751 1 12 0 3 291962. 305135. 4057. o
3752 4 14 -2 0 145025. 146509. 2684. o
3752 3 14 2 0 145025. 146509. 2684. o
3752 2 16 0 -6 145025. 146509. 2684. o
3752 1 12 0 6 145025. 146509. 2684. o
3753 4 15 -3 0 6049. 5903. 2328. <
3753 3 15 3 0 6049. 5903. 2328. <
3753 2 18 0 -9 6049. 5903. 2328. <
3753 1 12 0 9 6049. 5903. 2328. <
3754 2 -4 -2 -13 3975. -144. 6313. <
3754 1 -12 2 13 3975. -144. 6313. <
3755 4 -6 -4 -6 82063. 93342. 2823. o
3755 3 -10 4 6 82063. 93342. 2823. o
3755 2 -4 2 -12 82063. 93342. 2823. o
3755 1 -12 -2 12 82063. 93342. 2823. o
3756 4 -11 -3 6 251210. 275682. 5796. o
3756 3 -7 3 -6 251210. 275682. 5796. o
3756 2 -6 -2 -9 251210. 275682. 5796. o
3756 1 -12 2 9 251210. 275682. 5796. o
3757 4 -7 -3 -6 251908. 256983. 3158. o
3757 3 -11 3 6 251908. 256983. 3158. o
3757 2 -6 2 -9 251908. 256983. 3158. o
3757 1 -12 -2 9 251908. 256983. 3158. o
3758 4 -12 -2 6 59896. 60046. 3501. o
3758 3 -8 2 -6 59896. 60046. 3501. o
3758 2 -8 -2 -6 59896. 60046. 3501. o
3758 1 -12 2 6 59896. 60046. 3501. o
3759 4 -8 -2 -6 59458. 56182. 2390. o
3759 3 -12 2 6 59458. 56182. 2390. o
3759 2 -8 2 -6 59458. 56182. 2390. o
3759 1 -12 -2 6 59458. 56182. 2390. o
3760 4 13 1 -6 4003. 7429. 2201. o
3760 3 9 -1 6 4003. 7429. 2201. o
3760 2 10 2 3 4003. 7429. 2201. o
3760 1 12 -2 -3 4003. 7429. 2201. o
3761 4 -9 -1 -6 3824. 5728. 2031. <
3761 3 -13 1 6 3824. 5728. 2031. <
3761 2 -10 2 -3 3824. 5728. 2031. <
3761 1 -12 -2 3 3824. 5728. 2031. <
3762 4 14 0 -6 238256. 242919. 2988. o
3762 3 10 0 6 238256. 242919. 2988. o
3762 2 12 2 0 238256. 242919. 2988. o
3762 1 12 -2 0 238256. 242919. 2988. o
3763 4 10 0 6 234920. 260647. 4040. o
3763 3 14 0 -6 234920. 260647. 4040. o
3763 2 12 -2 0 234920. 260647. 4040. o
3763 1 12 2 0 234920. 260647. 4040. o
3764 4 -15 1 6 215174. 205573. 2713. o
3764 3 -11 -1 -6 215174. 205573. 2713. o
3764 2 -14 -2 3 215174. 205573. 2713. o
3764 1 -12 2 -3 215174. 205573. 2713. o
3765 4 11 -1 6 215978. 216450. 5751. o
3765 3 15 1 -6 215978. 216450. 5751. o
3765 2 14 -2 -3 215978. 216450. 5751. o
3765 1 12 2 3 215978. 216450. 5751. o
3766 4 -16 2 6 103443. 62621. 2183. o
3766 3 -12 -2 -6 103443. 62621. 2183. o
3766 2 -16 -2 6 103443. 62621. 2183. o
3766 1 -12 2 -6 103443. 62621. 2183. o
3767 4 -12 2 -6 103136. 53348. 3690. o
3767 3 -16 -2 6 103136. 53348. 3690. o
3767 2 -16 2 6 103136. 53348. 3690. o
3767 1 -12 -2 -6 103136. 53348. 3690. o
3768 2 -16 2 7 1416. 436. 5772. <
3768 1 -12 -2 -7 1416. 436. 5772. <
3769 2 -8 -4 -7 1122. -1204. 9088. <
3769 1 -12 4 7 1122. -1204. 9088. <
3770 4 -14 -2 12 42748. 30224. 4965. o
3770 3 -6 2 -12 42748. 30224. 4965. o
3770 2 -8 -4 -6 42748. 30224. 4965. o
3770 1 -12 4 6 42748. 30224. 4965. o
3771 4 6 2 12 42197. 37486. 4716. o
3771 3 14 -2 -12 42197. 37486. 4716. o
3771 2 8 -4 6 42197. 37486. 4716. o
3771 1 12 4 -6 42197. 37486. 4716. o
3772 2 8 -4 5 688. -2416. 8258. <
3772 1 12 4 -5 688. -2416. 8258. <
3773 4 -15 -1 12 2416. 5896. 5632. <
3773 3 -7 1 -12 2416. 5896. 5632. <
3773 2 -10 -4 -3 2416. 5896. 5632. <
3773 1 -12 4 3 2416. 5896. 5632. <
3774 4 -7 -1 -12 2306. 4252. 4560. <
3774 3 -15 1 12 2306. 4252. 4560. <
3774 2 -10 4 -3 2306. 4252. 4560. <
3774 1 -12 -4 3 2306. 4252. 4560. <
3775 2 -10 4 -2 633. 458. 7746. <
3775 1 -12 -4 2 633. 458. 7746. <
3776 2 -12 4 -1 1255. -1003. 8759. <
3776 1 -12 -4 1 1255. -1003. 8759. <
3777 4 -16 0 12 87319. 77495. 4140. o
3777 3 -8 0 -12 87319. 77495. 4140. o
3777 2 -12 -4 0 87319. 77495. 4140. o
3777 1 -12 4 0 87319. 77495. 4140. o
3778 4 -8 0 -12 86551. 71658. 5447. o
3778 3 -16 0 12 86551. 71658. 5447. o
3778 2 -12 4 0 86551. 71658. 5447. o
3778 1 -12 -4 0 86551. 71658. 5447. o
3779 2 -12 -4 1 971. 171. 4553. <
3779 1 -12 4 -1 971. 171. 4553. <
3780 2 14 -4 -2 2293. 4590. 4546. <
3780 1 12 4 2 2293. 4590. 4546. <
3781 4 -17 1 12 106851. 100155. 6052. o
3781 3 -9 -1 -12 106851. 100155. 6052. o
3781 2 -14 -4 3 106851. 100155. 6052. o
3781 1 -12 4 -3 106851. 100155. 6052. o
3782 4 -9 1 -12 108103. 100491. 6787. o
3782 3 -17 -1 12 108103. 100491. 6787. o
3782 2 -14 4 3 108103. 100491. 6787. o
3782 1 -12 -4 -3 108103. 100491. 6787. o
3783 2 -14 -4 4 11614. 13941. 4932. <
3783 1 -12 4 -4 11614. 13941. 4932. <
3784 2 16 -4 -5 1511. 2099. 7883. <
3784 1 12 4 5 1511. 2099. 7883. <
3785 4 -9 -5 3 15406. 5027. 5768. <
3785 3 -7 5 -3 15406. 5027. 5768. <
3785 2 -3 -1 -15 15406. 5027. 5768. <
3785 1 -13 1 15 15406. 5027. 5768. <
3786 4 -10 -4 3 222165. 246935. 5527. o
3786 3 -8 4 -3 222165. 246935. 5527. o
3786 2 -5 -1 -12 222165. 246935. 5527. o
3786 1 -13 1 12 222165. 246935. 5527. o
3787 4 8 4 3 221846. 242769. 4916. o
3787 3 10 -4 -3 221846. 242769. 4916. o
3787 2 5 -1 12 221846. 242769. 4916. o
3787 1 13 1 -12 221846. 242769. 4916. o
3788 4 -11 -3 3 11123. 13219. 1835. o
3788 3 -9 3 -3 11123. 13219. 1835. o
3788 2 -7 -1 -9 11123. 13219. 1835. o
3788 1 -13 1 9 11123. 13219. 1835. o
3789 4 -9 -3 -3 11068. 15677. 1798. o
3789 3 -11 3 3 11068. 15677. 1798. o
3789 2 -7 1 -9 11068. 15677. 1798. o
3789 1 -13 -1 9 11068. 15677. 1798. o
3790 4 -12 -2 3 7195. 6254. 1322. o
3790 3 -10 2 -3 7195. 6254. 1322. o
3790 2 -9 -1 -6 7195. 6254. 1322. o
3790 1 -13 1 6 7195. 6254. 1322. o
3791 4 -10 -2 -3 7212. 6532. 1565. o
3791 3 -12 2 3 7212. 6532. 1565. o
3791 2 -9 1 -6 7212. 6532. 1565. o
3791 1 -13 -1 6 7212. 6532. 1565. o
3792 4 -13 -1 3 136073. 134545. 2128. o
3792 3 -11 1 -3 136073. 134545. 2128. o
3792 2 -11 -1 -3 136073. 134545. 2128. o
3792 1 -13 1 3 136073. 134545. 2128. o
3793 4 11 1 3 136908. 151343. 2755. o
3793 3 13 -1 -3 136908. 151343. 2755. o
3793 2 11 -1 3 136908. 151343. 2755. o
3793 1 13 1 -3 136908. 151343. 2755. o
3794 4 -14 0 3 308592. 329544. 3409. o
3794 3 -12 0 -3 308592. 329544. 3409. o
3794 2 -13 -1 0 308592. 329544. 3409. o
3794 1 -13 1 0 308592. 329544. 3409. o
3795 4 12 0 3 311228. 309517. 4863. o
3795 3 14 0 -3 311228. 309517. 4863. o
3795 2 13 -1 0 311228. 309517. 4863. o
3795 1 13 1 0 311228. 309517. 4863. o
3796 4 15 -1 -3 230194. 253598. 3148. o
3796 3 13 1 3 230194. 253598. 3148. o
3796 2 15 1 -3 230194. 253598. 3148. o
3796 1 13 -1 3 230194. 253598. 3148. o
3797 4 13 -1 3 229505. 244926. 3676. o
3797 3 15 1 -3 229505. 244926. 3676. o
3797 2 15 -1 -3 229505. 244926. 3676. o
3797 1 13 1 3 229505. 244926. 3676. o
3798 4 16 -2 -3 3440. 1353. 1704. <
3798 3 14 2 3 3440. 1353. 1704. <
3798 2 17 1 -6 3440. 1353. 1704. <
3798 1 13 -1 6 3440. 1353. 1704. <
3799 4 14 -2 3 3377. 3693. 3019. <
3799 3 16 2 -3 3377. 3693. 3019. <
3799 2 17 -1 -6 3377. 3693. 3019. <
3799 1 13 1 6 3377. 3693. 3019. <
3800 4 17 -3 -3 123789. 109928. 6136. o
3800 3 15 3 3 123789. 109928. 6136. o
3800 2 19 1 -9 123789. 109928. 6136. o
3800 1 13 -1 9 123789. 109928. 6136. o
3801 4 15 -3 3 123168. 132728. 9227. o
3801 3 17 3 -3 123168. 132728. 9227. o
3801 2 19 -1 -9 123168. 132728. 9227. o
3801 1 13 1 9 123168. 132728. 9227. o
3802 4 6 4 9 146685. 158889. 3591. o
3802 3 12 -4 -9 146685. 158889. 3591. o
3802 2 5 -3 12 146685. 158889. 3591. o
3802 1 13 3 -12 146685. 158889. 3591. o
3803 2 -5 -3 -11 4707. 815. 9135. <
3803 1 -13 3 11 4707. 815. 9135. <
3804 4 -13 -3 9 5236. 13590. 5053. <
3804 3 -7 3 -9 5236. 13590. 5053. <
3804 2 -7 -3 -9 5236. 13590. 5053. <
3804 1 -13 3 9 5236. 13590. 5053. <
3805 4 -7 -3 -9 5151. 6541. 3067. <
3805 3 -13 3 9 5151. 6541. 3067. <
3805 2 -7 3 -9 5151. 6541. 3067. <
3805 1 -13 -3 9 5151. 6541. 3067. <
3806 2 -7 -3 -8 5671. 526. 5547. <
3806 1 -13 3 8 5671. 526. 5547. <
3807 4 -14 -2 9 4108. 2745. 3024. <
3807 3 -8 2 -9 4108. 2745. 3024. <
3807 2 -9 -3 -6 4108. 2745. 3024. <
3807 1 -13 3 6 4108. 2745. 3024. <
3808 4 -8 -2 -9 4101. 2104. 3025. <
3808 3 -14 2 9 4101. 2104. 3025. <
3808 2 -9 3 -6 4101. 2104. 3025. <
3808 1 -13 -3 6 4101. 2104. 3025. <
3809 2 11 3 4 803. -913. 5235. <
3809 1 13 -3 -4 803. -913. 5235. <
3810 4 9 1 9 54617. 54262. 5116. o
3810 3 15 -1 -9 54617. 54262. 5116. o
3810 2 11 -3 3 54617. 54262. 5116. o
3810 1 13 3 -3 54617. 54262. 5116. o
3811 2 11 3 2 671. 114. 5983. <
3811 1 13 -3 -2 671. 114. 5983. <
3812 4 -16 0 9 185889. 245935. 4287. o
3812 3 -10 0 -9 185889. 245935. 4287. o
3812 2 -13 -3 0 185889. 245935. 4287. o
3812 1 -13 3 0 185889. 245935. 4287. o
3813 4 10 0 9 188179. 208317. 4840. o
3813 3 16 0 -9 188179. 208317. 4840. o
3813 2 13 -3 0 188179. 208317. 4840. o
3813 1 13 3 0 188179. 208317. 4840. o
3814 2 13 3 -1 1982. 2651. 3560. <
3814 1 13 -3 1 1982. 2651. 3560. <
3815 2 15 3 -2 167. 203. 5112. <
3815 1 13 -3 2 167. 203. 5112. <
3816 4 17 -1 -9 167022. 208013. 5764. o
3816 3 11 1 9 167022. 208013. 5764. o
3816 2 15 3 -3 167022. 208013. 5764. o
3816 1 13 -3 3 167022. 208013. 5764. o
3817 4 11 -1 9 165986. 169616. 4953. o
3817 3 17 1 -9 165986. 169616. 4953. o
3817 2 15 -3 -3 165986. 169616. 4953. o
3817 1 13 3 3 165986. 169616. 4953. o
3818 2 -15 3 4 653. 1697. 7272. <
3818 1 -13 -3 -4 653. 1697. 7272. <
3819 2 -17 3 5 1158. -452. 8398. <
3819 1 -13 -3 -5 1158. -452. 8398. <
3820 4 12 -2 9 2708. 2381. 5206. <
3820 3 18 2 -9 2708. 2381. 5206. <
3820 2 17 -3 -6 2708. 2381. 5206. <
3820 1 13 3 6 2708. 2381. 5206. <
3821 4 -19 3 9 64787. 45452. 8068. o
3821 3 -13 -3 -9 64787. 45452. 8068. o
3821 2 -19 -3 9 64787. 45452. 8068. o
3821 1 -13 3 -9 64787. 45452. 8068. o
3822 4 -9 -5 0 132756. 102665. 7557. o
3822 3 -9 5 0 132756. 102665. 7557. o
3822 2 -4 0 -15 132756. 102665. 7557. o
3822 1 -14 0 15 132756. 102665. 7557. o
3823 4 -10 -4 0 62281. 61323. 3190. o
3823 3 -10 4 0 62281. 61323. 3190. o
3823 2 -6 0 -12 62281. 61323. 3190. o
3823 1 -14 0 12 62281. 61323. 3190. o
3824 4 -11 -3 0 3071. 1314. 2580. <
3824 3 -11 3 0 3071. 1314. 2580. <
3824 2 -8 0 -9 3071. 1314. 2580. <
3824 1 -14 0 9 3071. 1314. 2580. <
3825 4 12 2 0 209927. 261077. 4687. o
3825 3 12 -2 0 209927. 261077. 4687. o
3825 2 10 0 6 209927. 261077. 4687. o
3825 1 14 0 -6 209927. 261077. 4687. o
3826 4 -13 -1 0 287595. 315824. 5048. o
3826 3 -13 1 0 287595. 315824. 5048. o
3826 2 -12 0 -3 287595. 315824. 5048. o
3826 1 -14 0 3 287595. 315824. 5048. o
3827 4 -14 0 0 225314. 202280. 2774. o
3827 3 -14 0 0 225314. 202280. 2774. o
3827 2 -14 0 0 225314. 202280. 2774. o
3827 1 -14 0 0 225314. 202280. 2774. o
3828 4 -15 1 0 7307. 8052. 2733. <
3828 3 -15 -1 0 7307. 8052. 2733. <
3828 2 -16 0 3 7307. 8052. 2733. <
3828 1 -14 0 -3 7307. 8052. 2733. <
3829 4 -16 2 0 29273. 14382. 2055. o
3829 3 -16 -2 0 29273. 14382. 2055. o
3829 2 -18 0 6 29273. 14382. 2055. o
3829 1 -14 0 -6 29273. 14382. 2055. o
3830 2 -6 -2 -13 1596. 4414. 6828. <
3830 1 -14 2 13 1596. 4414. 6828. <
3831 4 -12 -4 6 52706. 48573. 5738. o
3831 3 -8 4 -6 52706. 48573. 5738. o
3831 2 -6 -2 -12 52706. 48573. 5738. o
3831 1 -14 2 12 52706. 48573. 5738. o
3832 4 -8 -4 -6 52476. 53131. 2644. o
3832 3 -12 4 6 52476. 53131. 2644. o
3832 2 -6 2 -12 52476. 53131. 2644. o
3832 1 -14 -2 12 52476. 53131. 2644. o
3833 4 -13 -3 6 2692. 3306. 3889. <
3833 3 -9 3 -6 2692. 3306. 3889. <
3833 2 -8 -2 -9 2692. 3306. 3889. <
3833 1 -14 2 9 2692. 3306. 3889. <
3834 4 9 3 6 2599. 1680. 2224. <
3834 3 13 -3 -6 2599. 1680. 2224. <
3834 2 8 -2 9 2599. 1680. 2224. <
3834 1 14 2 -9 2599. 1680. 2224. <
3835 4 -14 -2 6 137898. 145528. 3133. o
3835 3 -10 2 -6 137898. 145528. 3133. o
3835 2 -10 -2 -6 137898. 145528. 3133. o
3835 1 -14 2 6 137898. 145528. 3133. o
3836 4 10 2 6 136089. 140533. 3378. o
3836 3 14 -2 -6 136089. 140533. 3378. o
3836 2 10 -2 6 136089. 140533. 3378. o
3836 1 14 2 -6 136089. 140533. 3378. o
3837 4 -15 -1 6 211998. 212139. 4033. o
3837 3 -11 1 -6 211998. 212139. 4033. o
3837 2 -12 -2 -3 211998. 212139. 4033. o
3837 1 -14 2 3 211998. 212139. 4033. o
3838 4 11 1 6 212796. 208695. 5518. o
3838 3 15 -1 -6 212796. 208695. 5518. o
3838 2 12 -2 3 212796. 208695. 5518. o
3838 1 14 2 -3 212796. 208695. 5518. o
3839 4 -16 0 6 148727. 160921. 3861. o
3839 3 -12 0 -6 148727. 160921. 3861. o
3839 2 -14 -2 0 148727. 160921. 3861. o
3839 1 -14 2 0 148727. 160921. 3861. o
3840 4 12 0 6 148237. 178140. 3946. o
3840 3 16 0 -6 148237. 178140. 3946. o
3840 2 14 -2 0 148237. 178140. 3946. o
3840 1 14 2 0 148237. 178140. 3946. o
3841 4 -17 1 6 5217. 3248. 1792. <
3841 3 -13 -1 -6 5217. 3248. 1792. <
3841 2 -16 -2 3 5217. 3248. 1792. <
3841 1 -14 2 -3 5217. 3248. 1792. <
3842 4 -13 1 -6 5252. 4925. 2899. <
3842 3 -17 -1 6 5252. 4925. 2899. <
3842 2 -16 2 3 5252. 4925. 2899. <
3842 1 -14 -2 -3 5252. 4925. 2899. <
3843 4 18 -2 -6 15738. 16147. 2245. o
3843 3 14 2 6 15738. 16147. 2245. o
3843 2 18 2 -6 15738. 16147. 2245. o
3843 1 14 -2 6 15738. 16147. 2245. o
3844 4 -14 2 -6 15861. 13761. 3661. o
3844 3 -18 -2 6 15861. 13761. 3661. o
3844 2 -18 2 6 15861. 13761. 3661. o
3844 1 -14 -2 -6 15861. 13761. 3661. o
3845 2 -10 -4 -7 3141. 69. 6506. <
3845 1 -14 4 7 3141. 69. 6506. <
3846 4 -16 -2 12 52220. 42408. 8180. o
3846 3 -8 2 -12 52220. 42408. 8180. o
3846 2 -10 -4 -6 52220. 42408. 8180. o
3846 1 -14 4 6 52220. 42408. 8180. o
3847 4 8 2 12 51646. 41051. 8287. o
3847 3 16 -2 -12 51646. 41051. 8287. o
3847 2 10 -4 6 51646. 41051. 8287. o
3847 1 14 4 -6 51646. 41051. 8287. o
3848 2 -10 4 -5 2095. 776. 6286. <
3848 1 -14 -4 5 2095. 776. 6286. <
3849 4 -17 -1 12 105351. 77280. 5329. o
3849 3 -9 1 -12 105351. 77280. 5329. o
3849 2 -12 -4 -3 105351. 77280. 5329. o
3849 1 -14 4 3 105351. 77280. 5329. o
3850 4 9 1 12 106599. 97566. 7320. o
3850 3 17 -1 -12 106599. 97566. 7320. o
3850 2 12 -4 3 106599. 97566. 7320. o
3850 1 14 4 -3 106599. 97566. 7320. o
3851 2 -12 -4 -2 2399. 2259. 5426. <
3851 1 -14 4 2 2399. 2259. 5426. <
3852 2 -14 4 -1 72. -2768. 9795. <
3852 1 -14 -4 1 72. -2768. 9795. <
3853 4 -18 0 12 59211. 105402. 5332. o
3853 3 -10 0 -12 59211. 105402. 5332. o
3853 2 -14 -4 0 59211. 105402. 5332. o
3853 1 -14 4 0 59211. 105402. 5332. o
3854 4 10 0 12 58952. 80603. 9060. o
3854 3 18 0 -12 58952. 80603. 9060. o
3854 2 14 -4 0 58952. 80603. 9060. o
3854 1 14 4 0 58952. 80603. 9060. o
3855 2 -14 4 1 88. 472. 6055. <
3855 1 -14 -4 -1 88. 472. 6055. <
3856 2 -16 -4 2 2105. 1825. 5994. <
3856 1 -14 4 -2 2105. 1825. 5994. <
3857 4 -19 1 12 2892. -2239. 11122. <
3857 3 -11 -1 -12 2892. -2239. 11122. <
3857 2 -16 -4 3 2892. -2239. 11122. <
3857 1 -14 4 -3 2892. -2239. 11122. <
3858 4 11 -1 12 2874. 280. 7070. <
3858 3 19 1 -12 2874. 280. 7070. <
3858 2 16 -4 -3 2874. 280. 7070. <
3858 1 14 4 3 2874. 280. 7070. <
3859 4 12 4 -3 4640. 7535. 3507. <
3859 3 10 -4 3 4640. 7535. 3507. <
3859 2 7 1 12 4640. 7535. 3507. <
3859 1 15 -1 -12 4640. 7535. 3507. <
3860 4 10 4 3 4645. 5151. 4787. <
3860 3 12 -4 -3 4645. 5151. 4787. <
3860 2 7 -1 12 4645. 5151. 4787. <
3860 1 15 1 -12 4645. 5151. 4787. <
3861 4 -13 -3 3 37564. 40013. 2524. o
3861 3 -11 3 -3 37564. 40013. 2524. o
3861 2 -9 -1 -9 37564. 40013. 2524. o
3861 1 -15 1 9 37564. 40013. 2524. o
3862 4 -11 -3 -3 37856. 37193. 2384. o
3862 3 -13 3 3 37856. 37193. 2384. o
3862 2 -9 1 -9 37856. 37193. 2384. o
3862 1 -15 -1 9 37856. 37193. 2384. o
3863 4 -14 -2 3 225314. 225549. 3153. o
3863 3 -12 2 -3 225314. 225549. 3153. o
3863 2 -11 -1 -6 225314. 225549. 3153. o
3863 1 -15 1 6 225314. 225549. 3153. o
3864 4 12 2 3 226710. 200518. 4080. o
3864 3 14 -2 -3 226710. 200518. 4080. o
3864 2 11 -1 6 226710. 200518. 4080. o
3864 1 15 1 -6 226710. 200518. 4080. o
3865 4 15 1 -3 231588. 260539. 3297. o
3865 3 13 -1 3 231588. 260539. 3297. o
3865 2 13 1 3 231588. 260539. 3297. o
3865 1 15 -1 -3 231588. 260539. 3297. o
3866 4 -13 -1 -3 230897. 260157. 5251. o
3866 3 -15 1 3 230897. 260157. 5251. o
3866 2 -13 1 -3 230897. 260157. 5251. o
3866 1 -15 -1 3 230897. 260157. 5251. o
3867 4 16 0 -3 3907. 5362. 1684. o
3867 3 14 0 3 3907. 5362. 1684. o
3867 2 15 1 0 3907. 5362. 1684. o
3867 1 15 -1 0 3907. 5362. 1684. o
3868 4 -14 0 -3 3813. 4787. 2240. <
3868 3 -16 0 3 3813. 4787. 2240. <
3868 2 -15 1 0 3813. 4787. 2240. <
3868 1 -15 -1 0 3813. 4787. 2240. <
3869 4 -17 1 3 310511. 295046. 3777. o
3869 3 -15 -1 -3 310511. 295046. 3777. o
3869 2 -17 -1 3 310511. 295046. 3777. o
3869 1 -15 1 -3 310511. 295046. 3777. o
3870 4 15 -1 3 308782. 332547. 4621. o
3870 3 17 1 -3 308782. 332547. 4621. o
3870 2 17 -1 -3 308782. 332547. 4621. o
3870 1 15 1 3 308782. 332547. 4621. o
3871 4 18 -2 -3 30380. 30129. 2411. o
3871 3 16 2 3 30380. 30129. 2411. o
3871 2 19 1 -6 30380. 30129. 2411. o
3871 1 15 -1 6 30380. 30129. 2411. o
3872 4 -16 2 -3 30570. 26837. 3311. o
3872 3 -18 -2 3 30570. 26837. 3311. o
3872 2 -19 1 6 30570. 26837. 3311. o
3872 1 -15 -1 -6 30570. 26837. 3311. o
3873 4 8 4 9 3086. 2200. 3800. <
3873 3 14 -4 -9 3086. 2200. 3800. <
3873 2 7 -3 12 3086. 2200. 3800. <
3873 1 15 3 -12 3086. 2200. 3800. <
3874 4 -15 -3 9 14688. 13756. 7189. <
3874 3 -9 3 -9 14688. 13756. 7189. <
3874 2 -9 -3 -9 14688. 13756. 7189. <
3874 1 -15 3 9 14688. 13756. 7189. <
3875 4 9 3 9 15030. 11821. 3484. o
3875 3 15 -3 -9 15030. 11821. 3484. o
3875 2 9 -3 9 15030. 11821. 3484. o
3875 1 15 3 -9 15030. 11821. 3484. o
3876 4 16 2 -9 144737. 194174. 4983. o
3876 3 10 -2 9 144737. 194174. 4983. o
3876 2 11 3 6 144737. 194174. 4983. o
3876 1 15 -3 -6 144737. 194174. 4983. o
3877 4 10 2 9 146309. 146827. 6767. o
3877 3 16 -2 -9 146309. 146827. 6767. o
3877 2 11 -3 6 146309. 146827. 6767. o
3877 1 15 3 -6 146309. 146827. 6767. o
3878 2 11 3 5 1822. 2146. 6479. <
3878 1 15 -3 -5 1822. 2146. 6479. <
3879 4 -17 -1 9 167992. 178190. 4298. o
3879 3 -11 1 -9 167992. 178190. 4298. o
3879 2 -13 -3 -3 167992. 178190. 4298. o
3879 1 -15 3 3 167992. 178190. 4298. o
3880 4 -11 -1 -9 166954. 156788. 4648. o
3880 3 -17 1 9 166954. 156788. 4648. o
3880 2 -13 3 -3 166954. 156788. 4648. o
3880 1 -15 -3 3 166954. 156788. 4648. o
3881 2 15 3 1 1596. 573. 5141. <
3881 1 15 -3 -1 1596. 573. 5141. <
3882 4 -18 0 9 3085. 6051. 2934. <
3882 3 -12 0 -9 3085. 6051. 2934. <
3882 2 -15 -3 0 3085. 6051. 2934. <
3882 1 -15 3 0 3085. 6051. 2934. <
3883 4 -12 0 -9 2971. 7135. 4172. <
3883 3 -18 0 9 2971. 7135. 4172. <
3883 2 -15 3 0 2971. 7135. 4172. <
3883 1 -15 -3 0 2971. 7135. 4172. <
3884 2 15 3 -1 1560. 2195. 4852. <
3884 1 15 -3 1 1560. 2195. 4852. <
3885 4 -19 1 9 156299. 161157. 3810. o
3885 3 -13 -1 -9 156299. 161157. 3810. o
3885 2 -17 -3 3 156299. 161157. 3810. o
3885 1 -15 3 -3 156299. 161157. 3810. o
3886 4 -13 1 -9 154946. 158964. 7226. o
3886 3 -19 -1 9 154946. 158964. 7226. o
3886 2 -17 3 3 154946. 158964. 7226. o
3886 1 -15 -3 -3 154946. 158964. 7226. o
3887 2 -17 3 4 2153. 495. 8273. <
3887 1 -15 -3 -4 2153. 495. 8273. <
3888 2 -19 3 5 322. 35. 9471. <
3888 1 -15 -3 -5 322. 35. 9471. <
3889 4 -14 2 -9 19435. 17933. 5958. o
3889 3 -20 -2 9 19435. 17933. 5958. o
3889 2 -19 3 6 19435. 17933. 5958. o
3889 1 -15 -3 -6 19435. 17933. 5958. o
3890 4 -12 -4 0 49668. 43106. 3690. o
3890 3 -12 4 0 49668. 43106. 3690. o
3890 2 -8 0 -12 49668. 43106. 3690. o
3890 1 -16 0 12 49668. 43106. 3690. o
3891 4 -13 -3 0 183346. 212720. 3342. o
3891 3 -13 3 0 183346. 212720. 3342. o
3891 2 -10 0 -9 183346. 212720. 3342. o
3891 1 -16 0 9 183346. 212720. 3342. o
3892 4 14 2 0 146303. 163218. 3191. o
3892 3 14 -2 0 146303. 163218. 3191. o
3892 2 12 0 6 146303. 163218. 3191. o
3892 1 16 0 -6 146303. 163218. 3191. o
3893 4 15 1 0 7729. 6858. 1802. o
3893 3 15 -1 0 7729. 6858. 1802. o
3893 2 14 0 3 7729. 6858. 1802. o
3893 1 16 0 -3 7729. 6858. 1802. o
3894 4 -16 0 0 66289. 76082. 2359. o
3894 3 -16 0 0 66289. 76082. 2359. o
3894 2 -16 0 0 66289. 76082. 2359. o
3894 1 -16 0 0 66289. 76082. 2359. o
3895 4 -17 1 0 41276. 32787. 2080. o
3895 3 -17 -1 0 41276. 32787. 2080. o
3895 2 -18 0 3 41276. 32787. 2080. o
3895 1 -16 0 -3 41276. 32787. 2080. o
3896 4 -18 2 0 268108. 252119. 3907. o
3896 3 -18 -2 0 268108. 252119. 3907. o
3896 2 -20 0 6 268108. 252119. 3907. o
3896 1 -16 0 -6 268108. 252119. 3907. o
3897 4 -14 -4 6 32198. 26352. 9227. <
3897 3 -10 4 -6 32198. 26352. 9227. <
3897 2 -8 -2 -12 32198. 26352. 9227. <
3897 1 -16 2 12 32198. 26352. 9227. <
3898 4 -10 -4 -6 31557. 29473. 3246. o
3898 3 -14 4 6 31557. 29473. 3246. o
3898 2 -8 2 -12 31557. 29473. 3246. o
3898 1 -16 -2 12 31557. 29473. 3246. o
3899 4 15 3 -6 144579. 162776. 4190. o
3899 3 11 -3 6 144579. 162776. 4190. o
3899 2 10 2 9 144579. 162776. 4190. o
3899 1 16 -2 -9 144579. 162776. 4190. o
3900 4 11 3 6 145019. 143386. 3395. o
3900 3 15 -3 -6 145019. 143386. 3395. o
3900 2 10 -2 9 145019. 143386. 3395. o
3900 1 16 2 -9 145019. 143386. 3395. o
3901 4 16 2 -6 104416. 115161. 3229. o
3901 3 12 -2 6 104416. 115161. 3229. o
3901 2 12 2 6 104416. 115161. 3229. o
3901 1 16 -2 -6 104416. 115161. 3229. o
3902 4 12 2 6 104108. 116769. 5163. o
3902 3 16 -2 -6 104108. 116769. 5163. o
3902 2 12 -2 6 104108. 116769. 5163. o
3902 1 16 2 -6 104108. 116769. 5163. o
3903 4 17 1 -6 5500. 4116. 2030. <
3903 3 13 -1 6 5500. 4116. 2030. <
3903 2 14 2 3 5500. 4116. 2030. <
3903 1 16 -2 -3 5500. 4116. 2030. <
3904 4 -13 -1 -6 5535. 4364. 3011. <
3904 3 -17 1 6 5535. 4364. 3011. <
3904 2 -14 2 -3 5535. 4364. 3011. <
3904 1 -16 -2 3 5535. 4364. 3011. <
3905 4 -18 0 6 38072. 34742. 2408. o
3905 3 -14 0 -6 38072. 34742. 2408. o
3905 2 -16 -2 0 38072. 34742. 2408. o
3905 1 -16 2 0 38072. 34742. 2408. o
3906 4 -14 0 -6 38251. 46511. 3483. o
3906 3 -18 0 6 38251. 46511. 3483. o
3906 2 -16 2 0 38251. 46511. 3483. o
3906 1 -16 -2 0 38251. 46511. 3483. o
3907 4 19 -1 -6 33281. 16636. 2064. o
3907 3 15 1 6 33281. 16636. 2064. o
3907 2 18 2 -3 33281. 16636. 2064. o
3907 1 16 -2 3 33281. 16636. 2064. o
3908 4 15 -1 6 33951. 35346. 3740. o
3908 3 19 1 -6 33951. 35346. 3740. o
3908 2 18 -2 -3 33951. 35346. 3740. o
3908 1 16 2 3 33951. 35346. 3740. o
3909 4 -16 2 -6 227128. 240465. 7017. o
3909 3 -20 -2 6 227128. 240465. 7017. o
3909 2 -20 2 6 227128. 240465. 7017. o
3909 1 -16 -2 -6 227128. 240465. 7017. o
3910 2 -12 -4 -7 701. 267. 11860. <
3910 1 -16 4 7 701. 267. 11860. <
3911 4 -18 -2 12 46558. 72631. 7162. o
3911 3 -10 2 -12 46558. 72631. 7162. o
3911 2 -12 -4 -6 46558. 72631. 7162. o
3911 1 -16 4 6 46558. 72631. 7162. o
3912 2 -12 4 -5 1446. -1158. 9517. <
3912 1 -16 -4 5 1446. -1158. 9517. <
3913 4 -19 -1 12 3001. 1516. 8050. <
3913 3 -11 1 -12 3001. 1516. 8050. <
3913 2 -14 -4 -3 3001. 1516. 8050. <
3913 1 -16 4 3 3001. 1516. 8050. <
3914 4 11 1 12 2983. 1502. 7127. <
3914 3 19 -1 -12 2983. 1502. 7127. <
3914 2 14 -4 3 2983. 1502. 7127. <
3914 1 16 4 -3 2983. 1502. 7127. <
3915 2 -16 -4 -1 89. 2085. 6969. <
3915 1 -16 4 1 89. 2085. 6969. <
3916 4 -20 0 12 12900. 11984. 8033. <
3916 3 -12 0 -12 12900. 11984. 8033. <
3916 2 -16 -4 0 12900. 11984. 8033. <
3916 1 -16 4 0 12900. 11984. 8033. <
3917 4 12 0 12 12852. 11088. 8509. <
3917 3 20 0 -12 12852. 11088. 8509. <
3917 2 16 -4 0 12852. 11088. 8509. <
3917 1 16 4 0 12852. 11088. 8509. <
3918 2 -16 -4 1 120. -1643. 6900. <
3918 1 -16 4 -1 120. -1643. 6900. <
3919 2 -18 4 2 730. -2602. 12594. <
3919 1 -16 -4 -2 730. -2602. 12594. <
3920 4 -13 1 -12 20624. 23064. 12916. <
3920 3 -21 -1 12 20624. 23064. 12916. <
3920 2 -18 4 3 20624. 23064. 12916. <
3920 1 -16 -4 -3 20624. 23064. 12916. <
3921 4 -14 -4 3 109212. 99954. 5056. o
3921 3 -12 4 -3 109212. 99954. 5056. o
3921 2 -9 -1 -12 109212. 99954. 5056. o
3921 1 -17 1 12 109212. 99954. 5056. o
3922 4 12 4 3 109651. 97843. 5937. o
3922 3 14 -4 -3 109651. 97843. 5937. o
3922 2 9 -1 12 109651. 97843. 5937. o
3922 1 17 1 -12 109651. 97843. 5937. o
3923 4 15 3 -3 182818. 172890. 8533. o
3923 3 13 -3 3 182818. 172890. 8533. o
3923 2 11 1 9 182818. 172890. 8533. o
3923 1 17 -1 -9 182818. 172890. 8533. o
3924 4 -13 -3 -3 182455. 182667. 5284. o
3924 3 -15 3 3 182455. 182667. 5284. o
3924 2 -11 1 -9 182455. 182667. 5284. o
3924 1 -17 -1 9 182455. 182667. 5284. o
3925 4 -16 -2 3 3281. 3434. 3501. <
3925 3 -14 2 -3 3281. 3434. 3501. <
3925 2 -13 -1 -6 3281. 3434. 3501. <
3925 1 -17 1 6 3281. 3434. 3501. <
3926 4 14 2 3 3218. 3272. 2171. <
3926 3 16 -2 -3 3218. 3272. 2171. <
3926 2 13 -1 6 3218. 3272. 2171. <
3926 1 17 1 -6 3218. 3272. 2171. <
3927 4 -17 -1 3 313712. 351805. 4253. o
3927 3 -15 1 -3 313712. 351805. 4253. o
3927 2 -15 -1 -3 313712. 351805. 4253. o
3927 1 -17 1 3 313712. 351805. 4253. o
3928 4 -15 -1 -3 311974. 345249. 4751. o
3928 3 -17 1 3 311974. 345249. 4751. o
3928 2 -15 1 -3 311974. 345249. 4751. o
3928 1 -17 -1 3 311974. 345249. 4751. o
3929 4 18 0 -3 30963. 35163. 3464. o
3929 3 16 0 3 30963. 35163. 3464. o
3929 2 17 1 0 30963. 35163. 3464. o
3929 1 17 -1 0 30963. 35163. 3464. o
3930 4 -16 0 -3 31201. 34615. 2894. o
3930 3 -18 0 3 31201. 34615. 2894. o
3930 2 -17 1 0 31201. 34615. 2894. o
3930 1 -17 -1 0 31201. 34615. 2894. o
3931 4 -19 1 3 236347. 247718. 4027. o
3931 3 -17 -1 -3 236347. 247718. 4027. o
3931 2 -19 -1 3 236347. 247718. 4027. o
3931 1 -17 1 -3 236347. 247718. 4027. o
3932 4 -17 1 -3 236482. 238708. 4362. o
3932 3 -19 -1 3 236482. 238708. 4362. o
3932 2 -19 1 3 236482. 238708. 4362. o
3932 1 -17 -1 -3 236482. 238708. 4362. o
3933 4 -20 2 3 31382. 33783. 3846. o
3933 3 -18 -2 -3 31382. 33783. 3846. o
3933 2 -21 -1 6 31382. 33783. 3846. o
3933 1 -17 1 -6 31382. 33783. 3846. o
3934 4 -18 2 -3 31447. 33725. 6093. o
3934 3 -20 -2 3 31447. 33725. 6093. o
3934 2 -21 1 6 31447. 33725. 6093. o
3934 1 -17 -1 -6 31447. 33725. 6093. o
3935 4 -17 -3 9 131468. 131777. 8847. o
3935 3 -11 3 -9 131468. 131777. 8847. o
3935 2 -11 -3 -9 131468. 131777. 8847. o
3935 1 -17 3 9 131468. 131777. 8847. o
3936 4 -11 -3 -9 130841. 127560. 4807. o
3936 3 -17 3 9 130841. 127560. 4807. o
3936 2 -11 3 -9 130841. 127560. 4807. o
3936 1 -17 -3 9 130841. 127560. 4807. o
3937 2 -11 -3 -8 2431. -1661. 7414. <
3937 1 -17 3 8 2431. -1661. 7414. <
3938 2 13 3 7 3850. 1211. 8874. <
3938 1 17 -3 -7 3850. 1211. 8874. <
3939 4 18 2 -9 2712. 4077. 5014. <
3939 3 12 -2 9 2712. 4077. 5014. <
3939 2 13 3 6 2712. 4077. 5014. <
3939 1 17 -3 -6 2712. 4077. 5014. <
3940 4 12 2 9 2626. 4078. 6658. <
3940 3 18 -2 -9 2626. 4078. 6658. <
3940 2 13 -3 6 2626. 4078. 6658. <
3940 1 17 3 -6 2626. 4078. 6658. <
3941 2 15 3 4 3072. 1912. 6793. <
3941 1 17 -3 -4 3072. 1912. 6793. <
3942 4 19 1 -9 158250. 161656. 5589. o
3942 3 13 -1 9 158250. 161656. 5589. o
3942 2 15 3 3 158250. 161656. 5589. o
3942 1 17 -3 -3 158250. 161656. 5589. o
3943 4 13 1 9 156892. 150009. 5086. o
3943 3 19 -1 -9 156892. 150009. 5086. o
3943 2 15 -3 3 156892. 150009. 5086. o
3943 1 17 3 -3 156892. 150009. 5086. o
3944 4 20 0 -9 18489. 15173. 3961. o
3944 3 14 0 9 18489. 15173. 3961. o
3944 2 17 3 0 18489. 15173. 3961. o
3944 1 17 -3 0 18489. 15173. 3961. o
3945 4 14 0 9 19062. 19119. 6773. <
3945 3 20 0 -9 19062. 19119. 6773. <
3945 2 17 -3 0 19062. 19119. 6773. <
3945 1 17 3 0 19062. 19119. 6773. <
3946 4 15 -1 9 133475. 76890. 6114. o
3946 3 21 1 -9 133475. 76890. 6114. o
3946 2 19 -3 -3 133475. 76890. 6114. o
3946 1 17 3 3 133475. 76890. 6114. o
3947 4 14 4 0 58029. 54772. 4424. o
3947 3 14 -4 0 58029. 54772. 4424. o
3947 2 10 0 12 58029. 54772. 4424. o
3947 1 18 0 -12 58029. 54772. 4424. o
3948 4 15 3 0 6567. 8331. 2786. <
3948 3 15 -3 0 6567. 8331. 2786. <
3948 2 12 0 9 6567. 8331. 2786. <
3948 1 18 0 -9 6567. 8331. 2786. <
3949 4 16 2 0 28548. 35300. 2850. o
3949 3 16 -2 0 28548. 35300. 2850. o
3949 2 14 0 6 28548. 35300. 2850. o
3949 1 18 0 -6 28548. 35300. 2850. o
3950 4 -17 -1 0 40312. 40084. 2663. o
3950 3 -17 1 0 40312. 40084. 2663. o
3950 2 -16 0 -3 40312. 40084. 2663. o
3950 1 -18 0 3 40312. 40084. 2663. o
3951 4 -18 0 0 305382. 329597. 4267. o
3951 3 -18 0 0 305382. 329597. 4267. o
3951 2 -18 0 0 305382. 329597. 4267. o
3951 1 -18 0 0 305382. 329597. 4267. o
3952 4 -19 1 0 28926. 27135. 2748. o
3952 3 -19 -1 0 28926. 27135. 2748. o
3952 2 -20 0 3 28926. 27135. 2748. o
3952 1 -18 0 -3 28926. 27135. 2748. o
3953 4 20 -2 0 162287. 147630. 4080. o
3953 3 20 2 0 162287. 147630. 4080. o
3953 2 22 0 -6 162287. 147630. 4080. o
3953 1 18 0 6 162287. 147630. 4080. o
3954 4 -12 -4 -6 46106. 50405. 4125. o
3954 3 -16 4 6 46106. 50405. 4125. o
3954 2 -10 2 -12 46106. 50405. 4125. o
3954 1 -18 -2 12 46106. 50405. 4125. o
3955 4 17 3 -6 5169. 7322. 5178. <
3955 3 13 -3 6 5169. 7322. 5178. <
3955 2 12 2 9 5169. 7322. 5178. <
3955 1 18 -2 -9 5169. 7322. 5178. <
3956 4 13 3 6 5188. 5582. 3202. <
3956 3 17 -3 -6 5188. 5582. 3202. <
3956 2 12 -2 9 5188. 5582. 3202. <
3956 1 18 2 -9 5188. 5582. 3202. <
3957 4 18 2 -6 15197. 14260. 2899. o
3957 3 14 -2 6 15197. 14260. 2899. o
3957 2 14 2 6 15197. 14260. 2899. o
3957 1 18 -2 -6 15197. 14260. 2899. o
3958 4 -14 -2 -6 15320. 15298. 3380. o
3958 3 -18 2 6 15320. 15298. 3380. o
3958 2 -14 2 -6 15320. 15298. 3380. o
3958 1 -18 -2 6 15320. 15298. 3380. o
3959 4 -19 -1 6 32499. 29044. 2360. o
3959 3 -15 1 -6 32499. 29044. 2360. o
3959 2 -16 -2 -3 32499. 29044. 2360. o
3959 1 -18 2 3 32499. 29044. 2360. o
3960 4 15 1 6 33167. 33290. 3577. o
3960 3 19 -1 -6 33167. 33290. 3577. o
3960 2 16 -2 3 33167. 33290. 3577. o
3960 1 18 2 -3 33167. 33290. 3577. o
3961 4 -20 0 6 259530. 247602. 3833. o
3961 3 -16 0 -6 259530. 247602. 3833. o
3961 2 -18 -2 0 259530. 247602. 3833. o
3961 1 -18 2 0 259530. 247602. 3833. o
3962 4 16 0 6 259350. 281579. 5625. o
3962 3 20 0 -6 259350. 281579. 5625. o
3962 2 18 -2 0 259350. 281579. 5625. o
3962 1 18 2 0 259350. 281579. 5625. o
3963 4 -17 1 -6 23564. 35281. 5255. o
3963 3 -21 -1 6 23564. 35281. 5255. o
3963 2 -20 2 3 23564. 35281. 5255. o
3963 1 -18 -2 -3 23564. 35281. 5255. o
3964 4 -20 -2 12 4703. -2699. 13014. <
3964 3 -12 2 -12 4703. -2699. 13014. <
3964 2 -14 -4 -6 4703. -2699. 13014. <
3964 1 -18 4 6 4703. -2699. 13014. <
3965 2 -16 -4 -4 4388. 4973. 7751. <
3965 1 -18 4 4 4388. 4973. 7751. <
3966 4 -21 -1 12 19498. 27212. 6417. o
3966 3 -13 1 -12 19498. 27212. 6417. o
3966 2 -16 -4 -3 19498. 27212. 6417. o
3966 1 -18 4 3 19498. 27212. 6417. o
3967 2 -16 4 -2 522. -428. 7625. <
3967 1 -18 -4 2 522. -428. 7625. <
3968 2 -18 4 -1 1025. 8132. 12788. <
3968 1 -18 -4 1 1025. 8132. 12788. <
3969 4 14 0 12 164421. 146775. 8463. o
3969 3 22 0 -12 164421. 146775. 8463. o
3969 2 18 -4 0 164421. 146775. 8463. o
3969 1 18 4 0 164421. 146775. 8463. o
3970 2 18 -4 -1 912. 215. 9226. <
3970 1 18 4 1 912. 215. 9226. <
3971 4 15 -1 12 14210. 16243. 13681. <
3971 3 23 1 -12 14210. 16243. 13681. <
3971 2 20 -4 -3 14210. 16243. 13681. <
3971 1 18 4 3 14210. 16243. 13681. <
3972 4 16 4 -3 3291. 2628. 5864. <
3972 3 14 -4 3 3291. 2628. 5864. <
3972 2 11 1 12 3291. 2628. 5864. <
3972 1 19 -1 -12 3291. 2628. 5864. <
3973 4 14 4 3 3267. 1001. 6114. <
3973 3 16 -4 -3 3267. 1001. 6114. <
3973 2 11 -1 12 3267. 1001. 6114. <
3973 1 19 1 -12 3267. 1001. 6114. <
3974 4 17 3 -3 127784. 123673. 3910. o
3974 3 15 -3 3 127784. 123673. 3910. o
3974 2 13 1 9 127784. 123673. 3910. o
3974 1 19 -1 -9 127784. 123673. 3910. o
3975 4 -15 -3 -3 127158. 133413. 4135. o
3975 3 -17 3 3 127158. 133413. 4135. o
3975 2 -13 1 -9 127158. 133413. 4135. o
3975 1 -19 -1 9 127158. 133413. 4135. o
3976 4 -18 -2 3 27644. 30392. 2966. o
3976 3 -16 2 -3 27644. 30392. 2966. o
3976 2 -15 -1 -6 27644. 30392. 2966. o
3976 1 -19 1 6 27644. 30392. 2966. o
3977 4 16 2 3 27832. 29654. 3022. o
3977 3 18 -2 -3 27832. 29654. 3022. o
3977 2 15 -1 6 27832. 29654. 3022. o
3977 1 19 1 -6 27832. 29654. 3022. o
3978 4 19 1 -3 235981. 240554. 4039. o
3978 3 17 -1 3 235981. 240554. 4039. o
3978 2 17 1 3 235981. 240554. 4039. o
3978 1 19 -1 -3 235981. 240554. 4039. o
3979 4 -17 -1 -3 236115. 240615. 4576. o
3979 3 -19 1 3 236115. 240615. 4576. o
3979 2 -17 1 -3 236115. 240615. 4576. o
3979 1 -19 -1 3 236115. 240615. 4576. o
3980 4 -20 0 3 37826. 36960. 2866. o
3980 3 -18 0 -3 37826. 36960. 2866. o
3980 2 -19 -1 0 37826. 36960. 2866. o
3980 1 -19 1 0 37826. 36960. 2866. o
3981 4 -18 0 -3 37918. 37876. 3476. o
3981 3 -20 0 3 37918. 37876. 3476. o
3981 2 -19 1 0 37918. 37876. 3476. o
3981 1 -19 -1 0 37918. 37876. 3476. o
3982 4 21 -1 -3 38897. 31643. 3185. o
3982 3 19 1 3 38897. 31643. 3185. o
3982 2 21 1 -3 38897. 31643. 3185. o
3982 1 19 -1 3 38897. 31643. 3185. o
3983 4 -19 1 -3 38821. 46872. 3785. o
3983 3 -21 -1 3 38821. 46872. 3785. o
3983 2 -21 1 3 38821. 46872. 3785. o
3983 1 -19 -1 -3 38821. 46872. 3785. o
3984 4 20 -2 3 3727. 4995. 5960. <
3984 3 22 2 -3 3727. 4995. 5960. <
3984 2 23 -1 -6 3727. 4995. 5960. <
3984 1 19 1 6 3727. 4995. 5960. <
3985 4 -19 -3 9 67424. 54746. 8794. o
3985 3 -13 3 -9 67424. 54746. 8794. o
3985 2 -13 -3 -9 67424. 54746. 8794. o
3985 1 -19 3 9 67424. 54746. 8794. o
3986 4 -20 -2 9 17239. 12678. 7103. <
3986 3 -14 2 -9 17239. 12678. 7103. <
3986 2 -15 -3 -6 17239. 12678. 7103. <
3986 1 -19 3 6 17239. 12678. 7103. <
3987 4 -14 -2 -9 17703. 15678. 5149. o
3987 3 -20 2 9 17703. 15678. 5149. o
3987 2 -15 3 -6 17703. 15678. 5149. o
3987 1 -19 -3 6 17703. 15678. 5149. o
3988 2 15 3 5 314. -1485. 7986. <
3988 1 19 -3 -5 314. -1485. 7986. <
3989 4 21 1 -9 132996. 150061. 4895. o
3989 3 15 -1 9 132996. 150061. 4895. o
3989 2 17 3 3 132996. 150061. 4895. o
3989 1 19 -3 -3 132996. 150061. 4895. o
3990 4 15 1 9 133243. 159763. 6076. o
3990 3 21 -1 -9 133243. 159763. 6076. o
3990 2 17 -3 3 133243. 159763. 6076. o
3990 1 19 3 -3 133243. 159763. 6076. o
3991 4 -22 0 9 24735. 23040. 3780. o
3991 3 -16 0 -9 24735. 23040. 3780. o
3991 2 -19 -3 0 24735. 23040. 3780. o
3991 1 -19 3 0 24735. 23040. 3780. o
3992 4 -16 0 -9 24802. 25132. 5646. o
3992 3 -22 0 9 24802. 25132. 5646. o
3992 2 -19 3 0 24802. 25132. 5646. o
3992 1 -19 -3 0 24802. 25132. 5646. o
3993 4 16 4 0 6117. 3960. 4938. <
3993 3 16 -4 0 6117. 3960. 4938. <
3993 2 12 0 12 6117. 3960. 4938. <
3993 1 20 0 -12 6117. 3960. 4938. <
3994 4 17 3 0 22557. 18258. 4595. o
3994 3 17 -3 0 22557. 18258. 4595. o
3994 2 14 0 9 22557. 18258. 4595. o
3994 1 20 0 -9 22557. 18258. 4595. o
3995 4 -18 -2 0 268400. 278623. 6555. o
3995 3 -18 2 0 268400. 278623. 6555. o
3995 2 -16 0 -6 268400. 278623. 6555. o
3995 1 -20 0 6 268400. 278623. 6555. o
3996 4 19 1 0 28552. 28793. 2996. o
3996 3 19 -1 0 28552. 28793. 2996. o
3996 2 18 0 3 28552. 28793. 2996. o
3996 1 20 0 -3 28552. 28793. 2996. o
3997 4 -20 0 0 253849. 272670. 4685. o
3997 3 -20 0 0 253849. 272670. 4685. o
3997 2 -20 0 0 253849. 272670. 4685. o
3997 1 -20 0 0 253849. 272670. 4685. o
3998 4 -21 1 0 7457. 5172. 3184. <
3998 3 -21 -1 0 7457. 5172. 3184. <
3998 2 -22 0 3 7457. 5172. 3184. <
3998 1 -20 0 -3 7457. 5172. 3184. <
3999 4 19 3 -6 19179. 17459. 4422. o
3999 3 15 -3 6 19179. 17459. 4422. o
3999 2 14 2 9 19179. 17459. 4422. o
3999 1 20 -2 -9 19179. 17459. 4422. o
4000 4 -15 -3 -6 19578. 18053. 5824. o
4000 3 -19 3 6 19578. 18053. 5824. o
4000 2 -14 2 -9 19578. 18053. 5824. o
4000 1 -20 -2 9 19578. 18053. 5824. o
4001 4 -20 -2 6 227574. 199080. 4676. o
4001 3 -16 2 -6 227574. 199080. 4676. o
4001 2 -16 -2 -6 227574. 199080. 4676. o
4001 1 -20 2 6 227574. 199080. 4676. o
4002 4 -16 -2 -6 227424. 217507. 5485. o
4002 3 -20 2 6 227424. 217507. 5485. o
4002 2 -16 2 -6 227424. 217507. 5485. o
4002 1 -20 -2 6 227424. 217507. 5485. o
4003 4 21 1 -6 23554. 28523. 3161. o
4003 3 17 -1 6 23554. 28523. 3161. o
4003 2 18 2 3 23554. 28523. 3161. o
4003 1 20 -2 -3 23554. 28523. 3161. o
4004 4 -17 -1 -6 23293. 32824. 4411. o
4004 3 -21 1 6 23293. 32824. 4411. o
4004 2 -18 2 -3 23293. 32824. 4411. o
4004 1 -20 -2 3 23293. 32824. 4411. o
4005 4 -22 0 6 179990. 82360. 3901. o
4005 3 -18 0 -6 179990. 82360. 3901. o
4005 2 -20 -2 0 179990. 82360. 3901. o
4005 1 -20 2 0 179990. 82360. 3901. o
4006 4 18 0 6 179395. 194267. 5634. o
4006 3 22 0 -6 179395. 194267. 5634. o
4006 2 20 -2 0 179395. 194267. 5634. o
4006 1 20 2 0 179395. 194267. 5634. o
4007 4 -23 1 6 6244. 4310. 3466. <
4007 3 -19 -1 -6 6244. 4310. 3466. <
4007 2 -22 -2 3 6244. 4310. 3466. <
4007 1 -20 2 -3 6244. 4310. 3466. <
4008 4 -19 1 -6 6165. 7331. 5308. <
4008 3 -23 -1 6 6165. 7331. 5308. <
4008 2 -22 2 3 6165. 7331. 5308. <
4008 1 -20 -2 -3 6165. 7331. 5308. <
4009 4 -16 -4 -3 21643. 21121. 7022. o
4009 3 -18 4 3 21643. 21121. 7022. o
4009 2 -13 1 -12 21643. 21121. 7022. o
4009 1 -21 -1 12 21643. 21121. 7022. o
4010 4 19 3 -3 128514. 120599. 4152. o
4010 3 17 -3 3 128514. 120599. 4152. o
4010 2 15 1 9 128514. 120599. 4152. o
4010 1 21 -1 -9 128514. 120599. 4152. o
4011 4 -17 -3 -3 128579. 131856. 4690. o
4011 3 -19 3 3 128579. 131856. 4690. o
4011 2 -15 1 -9 128579. 131856. 4690. o
4011 1 -21 -1 9 128579. 131856. 4690. o
4012 4 20 2 -3 32480. 33396. 3596. o
4012 3 18 -2 3 32480. 33396. 3596. o
4012 2 17 1 6 32480. 33396. 3596. o
4012 1 21 -1 -6 32480. 33396. 3596. o
4013 4 18 2 3 32545. 35205. 5333. o
4013 3 20 -2 -3 32545. 35205. 5333. o
4013 2 17 -1 6 32545. 35205. 5333. o
4013 1 21 1 -6 32545. 35205. 5333. o
4014 4 21 1 -3 39190. 45173. 3357. o
4014 3 19 -1 3 39190. 45173. 3357. o
4014 2 19 1 3 39190. 45173. 3357. o
4014 1 21 -1 -3 39190. 45173. 3357. o
4015 4 -19 -1 -3 39114. 39646. 3675. o
4015 3 -21 1 3 39114. 39646. 3675. o
4015 2 -19 1 -3 39114. 39646. 3675. o
4015 1 -21 -1 3 39114. 39646. 3675. o
4016 4 22 0 -3 4293. 4646. 3407. <
4016 3 20 0 3 4293. 4646. 3407. <
4016 2 21 1 0 4293. 4646. 3407. <
4016 1 21 -1 0 4293. 4646. 3407. <
4017 4 -20 0 -3 4078. 5311. 4089. <
4017 3 -22 0 3 4078. 5311. 4089. <
4017 2 -21 1 0 4078. 5311. 4089. <
4017 1 -21 -1 0 4078. 5311. 4089. <
4018 4 -23 1 3 141350. 145844. 4431. o
4018 3 -21 -1 -3 141350. 145844. 4431. o
4018 2 -23 -1 3 141350. 145844. 4431. o
4018 1 -21 1 -3 141350. 145844. 4431. o
4019 4 21 -1 3 141694. 146614. 5565. o
4019 3 23 1 -3 141694. 146614. 5565. o
4019 2 23 -1 -3 141694. 146614. 5565. o
4019 1 21 1 3 141694. 146614. 5565. o
4020 4 -22 -2 9 21921. 21228. 5587. o
4020 3 -16 2 -9 21921. 21228. 5587. o
4020 2 -17 -3 -6 21921. 21228. 5587. o
4020 1 -21 3 6 21921. 21228. 5587. o
4021 4 -16 -2 -9 21970. 27657. 8199. o
4021 3 -22 2 9 21970. 27657. 8199. o
4021 2 -17 3 -6 21970. 27657. 8199. o
4021 1 -21 -3 6 21970. 27657. 8199. o
4022 4 -23 -1 9 16480. 13062. 7297. <
4022 3 -17 1 -9 16480. 13062. 7297. <
4022 2 -19 -3 -3 16480. 13062. 7297. <
4022 1 -21 3 3 16480. 13062. 7297. <
4023 4 -17 -1 -9 16467. 15010. 6211. <
4023 3 -23 1 9 16467. 15010. 6211. <
4023 2 -19 3 -3 16467. 15010. 6211. <
4023 1 -21 -3 3 16467. 15010. 6211. <
4024 4 -18 0 -9 2000. 382. 8583. <
4024 3 -24 0 9 2000. 382. 8583. <
4024 2 -21 3 0 2000. 382. 8583. <
4024 1 -21 -3 0 2000. 382. 8583. <
4025 4 -19 1 -9 109798. 117362. 11182. o
4025 3 -25 -1 9 109798. 117362. 11182. o
4025 2 -23 3 3 109798. 117362. 11182. o
4025 1 -21 -3 -3 109798. 117362. 11182. o
4026 4 19 3 0 22362. 18276. 5769. o
4026 3 19 -3 0 22362. 18276. 5769. o
4026 2 16 0 9 22362. 18276. 5769. o
4026 1 22 0 -9 22362. 18276. 5769. o
4027 4 20 2 0 163892. 179334. 4931. o
4027 3 20 -2 0 163892. 179334. 4931. o
4027 2 18 0 6 163892. 179334. 4931. o
4027 1 22 0 -6 163892. 179334. 4931. o
4028 4 21 1 0 8423. 6342. 3529. <
4028 3 21 -1 0 8423. 6342. 3529. <
4028 2 20 0 3 8423. 6342. 3529. <
4028 1 22 0 -3 8423. 6342. 3529. <
4029 4 -22 0 0 139096. 136642. 4614. o
4029 3 -22 0 0 139096. 136642. 4614. o
4029 2 -22 0 0 139096. 136642. 4614. o
4029 1 -22 0 0 139096. 136642. 4614. o
4030 4 -23 1 0 104141. 91936. 7218. o
4030 3 -23 -1 0 104141. 91936. 7218. o
4030 2 -24 0 3 104141. 91936. 7218. o
4030 1 -22 0 -3 104141. 91936. 7218. o
4031 4 -21 -3 6 18774. 18623. 5857. o
4031 3 -17 3 -6 18774. 18623. 5857. o
4031 2 -16 -2 -9 18774. 18623. 5857. o
4031 1 -22 2 9 18774. 18623. 5857. o
4032 4 -17 -3 -6 18622. 14959. 7176. <
4032 3 -21 3 6 18622. 14959. 7176. <
4032 2 -16 2 -9 18622. 14959. 7176. <
4032 1 -22 -2 9 18622. 14959. 7176. <
4033 4 -22 -2 6 118000. 132145. 5446. o
4033 3 -18 2 -6 118000. 132145. 5446. o
4033 2 -18 -2 -6 118000. 132145. 5446. o
4033 1 -22 2 6 118000. 132145. 5446. o
4034 4 18 2 6 117604. 130126. 8608. o
4034 3 22 -2 -6 117604. 130126. 8608. o
4034 2 18 -2 6 117604. 130126. 8608. o
4034 1 22 2 -6 117604. 130126. 8608. o
4035 4 -23 -1 6 7004. 4845. 3894. <
4035 3 -19 1 -6 7004. 4845. 3894. <
4035 2 -20 -2 -3 7004. 4845. 3894. <
4035 1 -22 2 3 7004. 4845. 3894. <
4036 4 19 1 6 6924. 6864. 5113. <
4036 3 23 -1 -6 6924. 6864. 5113. <
4036 2 20 -2 3 6924. 6864. 5113. <
4036 1 22 2 -3 6924. 6864. 5113. <
4037 4 -20 0 -6 103704. 112091. 5755. o
4037 3 -24 0 6 103704. 112091. 5755. o
4037 2 -22 2 0 103704. 112091. 5755. o
4037 1 -22 -2 0 103704. 112091. 5755. o
4038 4 21 -1 6 85567. 84852. 7138. o
4038 3 25 1 -6 85567. 84852. 7138. o
4038 2 24 -2 -3 85567. 84852. 7138. o
4038 1 22 2 3 85567. 84852. 7138. o
4039 4 21 3 -3 8393. 4802. 5117. <
4039 3 19 -3 3 8393. 4802. 5117. <
4039 2 17 1 9 8393. 4802. 5117. <
4039 1 23 -1 -9 8393. 4802. 5117. <
4040 4 19 3 3 8352. 8688. 7703. <
4040 3 21 -3 -3 8352. 8688. 7703. <
4040 2 17 -1 9 8352. 8688. 7703. <
4040 1 23 1 -9 8352. 8688. 7703. <
4041 4 22 2 -3 4251. 4885. 4248. <
4041 3 20 -2 3 4251. 4885. 4248. <
4041 2 19 1 6 4251. 4885. 4248. <
4041 1 23 -1 -6 4251. 4885. 4248. <
4042 4 20 2 3 4083. 5595. 4678. <
4042 3 22 -2 -3 4083. 5595. 4678. <
4042 2 19 -1 6 4083. 5595. 4678. <
4042 1 23 1 -6 4083. 5595. 4678. <
4043 4 23 1 -3 140249. 153817. 5134. o
4043 3 21 -1 3 140249. 153817. 5134. o
4043 2 21 1 3 140249. 153817. 5134. o
4043 1 23 -1 -3 140249. 153817. 5134. o
4044 4 -21 -1 -3 140593. 143079. 5177. o
4044 3 -23 1 3 140593. 143079. 5177. o
4044 2 -21 1 -3 140593. 143079. 5177. o
4044 1 -23 -1 3 140593. 143079. 5177. o
4045 4 24 0 -3 87663. 36679. 4357. o
4045 3 22 0 3 87663. 36679. 4357. o
4045 2 23 1 0 87663. 36679. 4357. o
4045 1 23 -1 0 87663. 36679. 4357. o
4046 4 -22 0 -3 87304. 92287. 5366. o
4046 3 -24 0 3 87304. 92287. 5366. o
4046 2 -23 1 0 87304. 92287. 5366. o
4046 1 -23 -1 0 87304. 92287. 5366. o
4047 4 23 -1 3 142906. 143477. 6054. o
4047 3 25 1 -3 142906. 143477. 6054. o
4047 2 25 -1 -3 142906. 143477. 6054. o
4047 1 23 1 3 142906. 143477. 6054. o
4048 4 -24 -2 9 2435. 239. 6762. <
4048 3 -18 2 -9 2435. 239. 6762. <
4048 2 -19 -3 -6 2435. 239. 6762. <
4048 1 -23 3 6 2435. 239. 6762. <
4049 4 -25 -1 9 108317. 90552. 6823. o
4049 3 -19 1 -9 108317. 90552. 6823. o
4049 2 -21 -3 -3 108317. 90552. 6823. o
4049 1 -23 3 3 108317. 90552. 6823. o
4050 4 -19 -1 -9 109055. 96208. 11885. o
4050 3 -25 1 9 109055. 96208. 11885. o
4050 2 -21 3 -3 109055. 96208. 11885. o
4050 1 -23 -3 3 109055. 96208. 11885. o
4051 4 -20 0 -9 59494. 37263. 14527. <
4051 3 -26 0 9 59494. 37263. 14527. <
4051 2 -23 3 0 59494. 37263. 14527. <
4051 1 -23 -3 0 59494. 37263. 14527. <
4052 4 21 3 0 3714. 1180. 6249. <
4052 3 21 -3 0 3714. 1180. 6249. <
4052 2 18 0 9 3714. 1180. 6249. <
4052 1 24 0 -9 3714. 1180. 6249. <
4053 4 22 2 0 99418. 99452. 5443. o
4053 3 22 -2 0 99418. 99452. 5443. o
4053 2 20 0 6 99418. 99452. 5443. o
4053 1 24 0 -6 99418. 99452. 5443. o
4054 4 -23 -1 0 105386. 92369. 7325. o
4054 3 -23 1 0 105386. 92369. 7325. o
4054 2 -22 0 -3 105386. 92369. 7325. o
4054 1 -24 0 3 105386. 92369. 7325. o
4055 4 -24 0 0 39318. 46346. 5116. o
4055 3 -24 0 0 39318. 46346. 5116. o
4055 2 -24 0 0 39318. 46346. 5116. o
4055 1 -24 0 0 39318. 46346. 5116. o
4056 4 -24 -2 6 75686. 76907. 6178. o
4056 3 -20 2 -6 75686. 76907. 6178. o
4056 2 -20 -2 -6 75686. 76907. 6178. o
4056 1 -24 2 6 75686. 76907. 6178. o
4057 4 20 2 6 76210. 66525. 6065. o
4057 3 24 -2 -6 76210. 66525. 6065. o
4057 2 20 -2 6 76210. 66525. 6065. o
4057 1 24 2 -6 76210. 66525. 6065. o
4058 4 25 1 -6 86363. 49939. 4645. o
4058 3 21 -1 6 86363. 49939. 4645. o
4058 2 22 2 3 86363. 49939. 4645. o
4058 1 24 -2 -3 86363. 49939. 4645. o
4059 4 -21 -1 -6 86543. 83687. 7335. o
4059 3 -25 1 6 86543. 83687. 7335. o
4059 2 -22 2 -3 86543. 83687. 7335. o
4059 1 -24 -2 3 86543. 83687. 7335. o
4060 4 -26 0 6 25348. 25650. 5293. o
4060 3 -22 0 -6 25348. 25650. 5293. o
4060 2 -24 -2 0 25348. 25650. 5293. o
4060 1 -24 2 0 25348. 25650. 5293. o
4061 4 -22 0 -6 25201. 21071. 6697. o
4061 3 -26 0 6 25201. 21071. 6697. o
4061 2 -24 2 0 25201. 21071. 6697. o
4061 1 -24 -2 0 25201. 21071. 6697. o
4062 4 24 2 -3 74607. 73790. 6040. o
4062 3 22 -2 3 74607. 73790. 6040. o
4062 2 21 1 6 74607. 73790. 6040. o
4062 1 25 -1 -6 74607. 73790. 6040. o
4063 4 -22 -2 -3 74339. 80556. 6407. o
4063 3 -24 2 3 74339. 80556. 6407. o
4063 2 -21 1 -6 74339. 80556. 6407. o
4063 1 -25 -1 6 74339. 80556. 6407. o
4064 4 25 1 -3 143292. 157909. 6149. o
4064 3 23 -1 3 143292. 157909. 6149. o
4064 2 23 1 3 143292. 157909. 6149. o
4064 1 25 -1 -3 143292. 157909. 6149. o
4065 4 -23 -1 -3 143192. 174334. 8924. o
4065 3 -25 1 3 143192. 174334. 8924. o
4065 2 -23 1 -3 143192. 174334. 8924. o
4065 1 -25 -1 3 143192. 174334. 8924. o
4066 4 -26 0 3 30695. 30237. 7388. o
4066 3 -24 0 -3 30695. 30237. 7388. o
4066 2 -25 -1 0 30695. 30237. 7388. o
4066 1 -25 1 0 30695. 30237. 7388. o
4067 4 24 0 3 30665. 12221. 5596. <
4067 3 26 0 -3 30665. 12221. 5596. <
4067 2 25 -1 0 30665. 12221. 5596. <
4067 1 25 1 0 30665. 12221. 5596. <
4068 4 24 2 0 18690. 19775. 6089. o
4068 3 24 -2 0 18690. 19775. 6089. o
4068 2 22 0 6 18690. 19775. 6089. o
4068 1 26 0 -6 18690. 19775. 6089. o
4069 4 -25 -1 0 22037. 27245. 6224. o
4069 3 -25 1 0 22037. 27245. 6224. o
4069 2 -24 0 -3 22037. 27245. 6224. o
4069 1 -26 0 3 22037. 27245. 6224. o
4070 4 -26 -2 6 10846. 9484. 10853. <
4070 3 -22 2 -6 10846. 9484. 10853. <
4070 2 -22 -2 -6 10846. 9484. 10853. <
4070 1 -26 2 6 10846. 9484. 10853. <
4071 4 -27 -1 6 17325. 13716. 10395. <
4071 3 -23 1 -6 17325. 13716. 10395. <
4071 2 -24 -2 -3 17325. 13716. 10395. <
4071 1 -26 2 3 17325. 13716. 10395. <
4072 4 23 1 6 16976. 13084. 7437. <
4072 3 27 -1 -6 16976. 13084. 7437. <
4072 2 24 -2 3 16976. 13084. 7437. <
4072 1 26 2 -3 16976. 13084. 7437. <
4073 4 -24 0 -6 17706. 12476. 13571. <
4073 3 -28 0 6 17706. 12476. 13571. <
4073 2 -26 2 0 17706. 12476. 13571. <
4073 1 -26 -2 0 17706. 12476. 13571. <
4074 4 26 2 -3 23143. 20668. 7449. <
4074 3 24 -2 3 23143. 20668. 7449. <
4074 2 23 1 6 23143. 20668. 7449. <
4074 1 27 -1 -6 23143. 20668. 7449. <
4075 4 -27 -1 3 14214. 9129. 6726. <
4075 3 -25 1 -3 14214. 9129. 6726. <
4075 2 -25 -1 -3 14214. 9129. 6726. <
4075 1 -27 1 3 14214. 9129. 6726. <
4076 4 -25 -1 -3 14380. 8878. 7304. <
4076 3 -27 1 3 14380. 8878. 7304. <
4076 2 -25 1 -3 14380. 8878. 7304. <
4076 1 -27 -1 3 14380. 8878. 7304. <
4077 4 26 0 3 119792. 95916. 8196. o
4077 3 28 0 -3 119792. 95916. 8196. o
4077 2 27 -1 0 119792. 95916. 8196. o
4077 1 27 1 0 119792. 95916. 8196. o
4078 4 27 1 0 101442. 79322. 9694. o
4078 3 27 -1 0 101442. 79322. 9694. o
4078 2 26 0 3 101442. 79322. 9694. o
4078 1 28 0 -3 101442. 79322. 9694. o
4079 4 29 1 -3 7241. 8836. 8679. <
4079 3 27 -1 3 7241. 8836. 8679. <
4079 2 27 1 3 7241. 8836. 8679. <
4079 1 29 -1 -3 7241. 8836. 8679. <
4080 4 -8 -2 11 1935. 2183. 3864. <
4080 3 0 2 -11 1935. 2183. 3864. <
4081 4 -8 2 13 1629. -809. 3550. <
4081 3 0 -2 -13 1629. -809. 3550. <
4082 4 -10 -2 14 3413. 596. 5202. <
4082 3 0 2 -14 3413. 596. 5202. <
4083 4 -2 -4 4 3925. 6564. 3188. <
4083 3 0 4 -4 3925. 6564. 3188. <
4084 4 -4 -4 5 620. -1277. 3589. <
4084 3 0 4 -5 620. -1277. 3589. <
4085 4 -4 -4 7 503. -816. 5523. <
4085 3 0 4 -7 503. -816. 5523. <
4086 4 -6 -4 8 399. -452. 6918. <
4086 3 0 4 -8 399. -452. 6918. <
4087 4 -9 -1 14 425. -142. 3788. <
4087 3 1 1 -14 425. -142. 3788. <
4088 4 -7 1 13 4649. 4002. 4034. <
4088 3 1 -1 -13 4649. 4002. 4034. <
4089 4 -9 1 13 3443. 3244. 5595. <
4089 3 -1 -1 -13 3443. 3244. 5595. <
4090 4 -11 -1 14 1905. -1217. 3945. <
4090 3 -1 1 -14 1905. -1217. 3945. <
4091 4 -7 3 13 2638. 3718. 6436. <
4091 3 1 -3 -13 2638. 3718. 6436. <
4092 4 -7 3 11 3943. 5929. 3103. <
4092 3 1 -3 -11 3943. 5929. 3103. <
4093 4 -5 3 10 948. -776. 2944. <
4093 3 1 -3 -10 948. -776. 2944. <
4094 4 -7 3 8 1017. 2135. 1638. <
4094 3 -1 -3 -8 1017. 2135. 1638. <
4095 4 -7 3 10 1650. -39. 3417. <
4095 3 -1 -3 -10 1650. -39. 3417. <
4096 4 -9 3 11 3468. 1958. 4629. <
4096 3 -1 -3 -11 3468. 1958. 4629. <
4097 4 -9 3 13 1918. 3963. 7474. <
4097 3 -1 -3 -13 1918. 3963. 7474. <
4098 4 -3 -5 5 53. -999. 5740. <
4098 3 1 5 -5 53. -999. 5740. <
4099 4 -1 -5 4 410. -275. 4065. <
4099 3 1 5 -4 410. -275. 4065. <
4100 4 -5 -5 5 158. 59. 5731. <
4100 3 -1 5 -5 158. 59. 5731. <
4101 4 -8 0 14 2702. -82. 7154. <
4101 3 2 0 -14 2702. -82. 7154. <
4102 4 -10 0 13 1046. -1246. 6617. <
4102 3 -2 0 -13 1046. -1246. 6617. <
4103 4 -8 2 14 1973. 133. 6767. <
4103 3 2 -2 -14 1973. 133. 6767. <
4104 4 -10 2 11 3676. 2822. 3474. <
4104 3 -2 -2 -11 3676. 2822. 3474. <
4105 4 -10 2 13 918. 94. 6404. <
4105 3 -2 -2 -13 918. 94. 6404. <
4106 4 -2 -4 7 795. 139. 5146. <
4106 3 2 4 -7 795. 139. 5146. <
4107 4 -2 -4 5 576. -293. 3664. <
4107 3 2 4 -5 576. -293. 3664. <
4108 4 0 -4 2 363. -178. 2173. <
4108 3 2 4 -2 363. -178. 2173. <
4109 4 -6 -4 5 467. -1698. 4673. <
4109 3 -2 4 -5 467. -1698. 4673. <
4110 4 -8 -4 8 729. 310. 7730. <
4110 3 -2 4 -8 729. 310. 7730. <
4111 4 -5 1 13 3014. 1048. 4039. <
4111 3 3 -1 -13 3014. 1048. 4039. <
4112 4 -11 -1 13 1950. 941. 3607. <
4112 3 -3 1 -13 1950. 941. 3607. <
4113 4 -13 -1 14 1677. -838. 6579. <
4113 3 -3 1 -14 1677. -838. 6579. <
4114 4 -5 3 13 1539. 960. 6638. <
4114 3 3 -3 -13 1539. 960. 6638. <
4115 4 -5 -3 11 2227. 222. 3054. <
4115 3 3 3 -11 2227. 222. 3054. <
4116 4 -3 3 10 1762. -1130. 3305. <
4116 3 3 -3 -10 1762. -1130. 3305. <
4117 4 -3 -3 8 1476. -1061. 5039. <
4117 3 3 3 -8 1476. -1061. 5039. <
4118 4 -7 3 7 5875. 6474. 1512. o
4118 3 -3 -3 -7 5875. 6474. 1512. o
4119 4 -9 3 10 865. 1307. 3721. <
4119 3 -3 -3 -10 865. 1307. 3721. <
4120 4 -11 3 11 1101. -1026. 4806. <
4120 3 -3 -3 -11 1101. -1026. 4806. <
4121 4 -1 -5 5 45. -2617. 5811. <
4121 3 3 5 -5 45. -2617. 5811. <
4122 4 1 -5 4 215. -544. 4163. <
4122 3 3 5 -4 215. -544. 4163. <
4123 4 -7 -5 5 121. -927. 5881. <
4123 3 -3 5 -5 121. -927. 5881. <
4124 4 -6 0 14 6916. 4053. 4372. <
4124 3 4 0 -14 6916. 4053. 4372. <
4125 4 -4 0 11 907. -294. 4002. <
4125 3 4 0 -11 907. -294. 4002. <
4126 4 -14 0 14 5957. 6617. 10464. <
4126 3 -4 0 -14 5957. 6617. 10464. <
4127 4 -6 2 14 5163. 2252. 5828. <
4127 3 4 -2 -14 5163. 2252. 5828. <
4128 4 -4 -2 13 1724. 269. 4697. <
4128 3 4 2 -13 1724. 269. 4697. <
4129 4 -4 -2 11 812. 2376. 4325. <
4129 3 4 2 -11 812. 2376. 4325. <
4130 4 -12 2 11 1141. -1564. 4856. <
4130 3 -4 -2 -11 1141. -1564. 4856. <
4131 4 -12 2 13 1592. 2303. 7022. <
4131 3 -4 -2 -13 1592. 2303. 7022. <
4132 4 -14 -2 14 4527. -101. 7246. <
4132 3 -4 2 -14 4527. -101. 7246. <
4133 4 0 -4 7 583. -1028. 4807. <
4133 3 4 4 -7 583. -1028. 4807. <
4134 4 0 -4 5 580. -1032. 2829. <
4134 3 4 4 -5 580. -1032. 2829. <
4135 4 2 -4 2 569. 814. 1325. <
4135 3 4 4 -2 569. 814. 1325. <
4136 4 -8 -4 5 727. -569. 5142. <
4136 3 -4 4 -5 727. -569. 5142. <
4137 4 -10 -4 8 1498. -1179. 9280. <
4137 3 -4 4 -8 1498. -1179. 9280. <
4138 4 -5 -1 16 912. -1492. 12604. <
4138 3 5 1 -16 912. -1492. 12604. <
4139 4 -5 -1 14 2038. -1402. 8594. <
4139 3 5 1 -14 2038. -1402. 8594. <
4140 4 -3 -1 11 3734. 881. 4891. <
4140 3 5 1 -11 3734. 881. 4891. <
4141 4 -11 -1 10 2733. 326. 4865. <
4141 3 -5 1 -10 2733. 326. 4865. <
4142 4 -13 -1 13 5775. 1450. 4135. <
4142 3 -5 1 -13 5775. 1450. 4135. <
4143 4 -15 -1 14 4531. -1399. 6087. <
4143 3 -5 1 -14 4531. -1399. 6087. <
4144 4 -3 3 13 1424. 2265. 6433. <
4144 3 5 -3 -13 1424. 2265. 6433. <
4145 4 -3 3 11 1902. 1474. 3367. <
4145 3 5 -3 -11 1902. 1474. 3367. <
4146 4 -11 -3 8 1235. -612. 5445. <
4146 3 -5 3 -8 1235. -612. 5445. <
4147 4 -13 3 11 1898. 2448. 4713. <
4147 3 -5 -3 -11 1898. 2448. 4713. <
4148 4 1 -5 5 179. -1854. 5210. <
4148 3 5 5 -5 179. -1854. 5210. <
4149 4 -4 0 14 6758. 5914. 4854. <
4149 3 6 0 -14 6758. 5914. 4854. <
4150 4 -2 0 11 3235. 357. 3363. <
4150 3 6 0 -11 3235. 357. 3363. <
4151 4 -16 0 14 2503. 2170. 11474. <
4151 3 -6 0 -14 2503. 2170. 11474. <
4152 4 -4 -2 14 5026. 4253. 4771. <
4152 3 6 2 -14 5026. 4253. 4771. <
4153 4 -2 -2 11 2553. 2092. 4947. <
4153 3 6 2 -11 2553. 2092. 4947. <
4154 4 -14 -2 11 1389. -77. 3422. <
4154 3 -6 2 -11 1389. -77. 3422. <
4155 4 -16 -2 14 1846. 6115. 9361. <
4155 3 -6 2 -14 1846. 6115. 9361. <
4156 4 0 -4 8 471. 1167. 5607. <
4156 3 6 4 -8 471. 1167. 5607. <
4157 4 2 -4 7 1207. 1006. 4976. <
4157 3 6 4 -7 1207. 1006. 4976. <
4158 4 4 -4 2 496. 496. 1630. <
4158 3 6 4 -2 496. 496. 1630. <
4159 4 -12 -4 8 1594. -2781. 10855. <
4159 3 -6 4 -8 1594. -2781. 10855. <
4160 4 -3 -1 14 3479. -1375. 6639. <
4160 3 7 1 -14 3479. -1375. 6639. <
4161 4 -1 -1 13 4913. 5501. 6214. <
4161 3 7 1 -13 4913. 5501. 6214. <
4162 4 -15 -1 13 4903. 4870. 5176. <
4162 3 -7 1 -13 4903. 4870. 5176. <
4163 4 -1 3 13 2806. -1729. 6651. <
4163 3 7 -3 -13 2806. -1729. 6651. <
4164 4 -1 -3 11 4143. 1379. 6132. <
4164 3 7 3 -11 4143. 1379. 6132. <
4165 4 1 3 10 1505. 274. 3620. <
4165 3 7 -3 -10 1505. 274. 3620. <
4166 4 -15 -3 11 2542. 3073. 10191. <
4166 3 -7 3 -11 2542. 3073. 10191. <
4167 4 3 -5 5 104. 684. 5338. <
4167 3 7 5 -5 104. 684. 5338. <
4168 4 5 -5 4 275. -1782. 4171. <
4168 3 7 5 -4 275. -1782. 4171. <
4169 4 0 0 13 2059. -232. 5496. <
4169 3 8 0 -13 2059. -232. 5496. <
4170 4 0 0 -11 2332. 367. 4572. <
4170 3 -8 0 11 2332. 367. 4572. <
4171 4 -16 0 13 1983. 445. 8370. <
4171 3 -8 0 -13 1983. 445. 8370. <
4172 4 -2 -2 14 2300. 2328. 9653. <
4172 3 8 2 -14 2300. 2328. 9653. <
4173 4 14 2 -8 1246. 1740. 2977. <
4173 3 8 -2 8 1246. 1740. 2977. <
4174 4 -16 -2 11 1862. -52. 4304. <
4174 3 -8 2 -11 1862. -52. 4304. <
4175 4 -16 -2 13 1621. 2042. 8431. <
4175 3 -8 2 -13 1621. 2042. 8431. <
4176 4 2 -4 8 613. 608. 5570. <
4176 3 8 4 -8 613. 608. 5570. <
4177 4 4 -4 7 625. 330. 4787. <
4177 3 8 4 -7 625. 330. 4787. <
4178 4 4 -4 5 662. 2124. 3641. <
4178 3 8 4 -5 662. 2124. 3641. <
4179 4 -12 -4 5 303. 588. 6188. <
4179 3 -8 4 -5 303. 588. 6188. <
4180 4 -1 -1 14 473. -276. 7487. <
4180 3 9 1 -14 473. -276. 7487. <
4181 4 1 -1 13 3290. 2958. 4676. <
4181 3 9 1 -13 3290. 2958. 4676. <
4182 4 -17 -1 11 5013. 7634. 7458. <
4182 3 -9 1 -11 5013. 7634. 7458. <
4183 4 -17 -1 13 1474. 263. 7642. <
4183 3 -9 1 -13 1474. 263. 7642. <
4184 4 1 -3 11 3316. -18. 9431. <
4184 3 9 3 -11 3316. -18. 9431. <
4185 4 5 -5 5 53. 2083. 5086. <
4185 3 9 5 -5 53. 2083. 5086. <
4186 4 7 -5 4 424. -24. 4655. <
4186 3 9 5 -4 424. -24. 4655. <
4187 4 0 0 -14 3866. 8211. 9752. <
4187 3 -10 0 14 3866. 8211. 9752. <
4188 4 -2 0 -13 894. 2950. 7983. <
4188 3 -10 0 13 894. 2950. 7983. <
4189 4 -2 0 -11 4594. 459. 5571. <
4189 3 -10 0 11 4594. 459. 5571. <
4190 4 16 0 -10 11653. 16493. 7020. <
4190 3 10 0 10 11653. 16493. 7020. <
4191 4 -18 0 11 4323. 481. 8051. <
4191 3 -10 0 -11 4323. 481. 8051. <
4192 4 -18 0 13 361. 954. 9864. <
4192 3 -10 0 -13 361. 954. 9864. <
4193 4 0 -2 14 2877. -1321. 8727. <
4193 3 10 2 -14 2877. -1321. 8727. <
4194 4 2 2 13 785. 811. 5037. <
4194 3 10 -2 -13 785. 811. 5037. <
4195 4 2 2 11 3584. -281. 4323. <
4195 3 10 -2 -11 3584. -281. 4323. <
4196 4 4 -2 10 7122. 6405. 3203. <
4196 3 10 2 -10 7122. 6405. 3203. <
4197 4 16 2 -8 1074. 1120. 6527. <
4197 3 10 -2 8 1074. 1120. 6527. <
4198 4 -18 -2 11 3424. 1347. 5402. <
4198 3 -10 2 -11 3424. 1347. 5402. <
4199 4 4 -4 8 1594. 138. 6357. <
4199 3 10 4 -8 1594. 138. 6357. <
4200 4 6 -4 7 686. 1512. 6546. <
4200 3 10 4 -7 686. 1512. 6546. <
4201 4 6 -4 5 637. 2366. 4517. <
4201 3 10 4 -5 637. 2366. 4517. <
4202 4 -1 1 -14 1694. -2114. 10600. <
4202 3 -11 -1 14 1694. -2114. 10600. <
4203 4 -3 -1 -13 2110. 696. 7099. <
4203 3 -11 1 13 2110. 696. 7099. <
4204 4 -19 -1 11 3522. 2248. 5952. <
4204 3 -11 1 -11 3522. 2248. 5952. <
4205 4 5 -3 8 1092. -261. 2981. <
4205 3 11 3 -8 1092. -261. 2981. <
4206 4 -7 3 -5 125. -429. 3121. <
4206 3 -11 -3 5 125. -429. 3121. <
4207 4 -17 -3 10 499. -3089. 9068. <
4207 3 -11 3 -10 499. -3089. 9068. <
4208 4 -2 0 -14 7173. 6846. 10798. <
4208 3 -12 0 14 7173. 6846. 10798. <
4209 4 -4 0 -13 1821. 1002. 8670. <
4209 3 -12 0 13 1821. 1002. 8670. <
4210 4 -4 0 -11 1540. -1094. 6480. <
4210 3 -12 0 11 1540. -1094. 6480. <
4211 4 18 0 -8 1296. 3577. 6353. <
4211 3 12 0 8 1296. 3577. 6353. <
4212 4 20 0 -11 1659. 556. 9638. <
4212 3 12 0 11 1659. 556. 9638. <
4213 4 2 -2 14 5436. 8388. 10023. <
4213 3 12 2 -14 5436. 8388. 10023. <
4214 4 4 2 13 1446. -1959. 4692. <
4214 3 12 -2 -13 1446. -1959. 4692. <
4215 4 4 -2 11 1294. 148. 3983. <
4215 3 12 2 -11 1294. 148. 3983. <
4216 4 -6 2 -8 3509. 4035. 3971. <
4216 3 -12 -2 8 3509. 4035. 3971. <
4217 4 18 2 -8 882. 1887. 6139. <
4217 3 12 -2 8 882. 1887. 6139. <
4218 4 6 -4 8 1464. 7877. 7863. <
4218 3 12 4 -8 1464. 7877. 7863. <
4219 4 16 4 -5 634. -3113. 8121. <
4219 3 12 -4 5 634. -3113. 8121. <
4220 4 -3 1 -14 1459. -503. 6919. <
4220 3 -13 -1 14 1459. -503. 6919. <
4221 4 -5 1 -13 5523. 2002. 7826. <
4221 3 -13 -1 13 5523. 2002. 7826. <
4222 4 5 -1 11 3111. 2319. 2982. <
4222 3 13 1 -11 3111. 2319. 2982. <
4223 4 7 -3 8 2192. 1589. 3317. <
4223 3 13 3 -8 2192. 1589. 3317. <
4224 4 19 3 -8 1436. -2417. 6099. <
4224 3 13 -3 8 1436. -2417. 6099. <
4225 4 -4 0 -14 5730. 3776. 11158. <
4225 3 -14 0 14 5730. 3776. 11158. <
4226 4 -6 0 -13 1029. 1683. 9949. <
4226 3 -14 0 13 1029. 1683. 9949. <
4227 4 6 0 11 1499. 2590. 4709. <
4227 3 14 0 -11 1499. 2590. 4709. <
4228 4 -8 2 -10 2966. 2973. 5818. <
4228 3 -14 -2 10 2966. 2973. 5818. <
4229 4 -10 2 -7 2146. -357. 4167. <
4229 3 -14 -2 7 2146. -357. 4167. <
4230 4 20 2 -8 1248. 688. 6845. <
4230 3 14 -2 8 1248. 688. 6845. <
4231 4 -22 -2 11 2273. -3156. 12780. <
4231 3 -14 2 -11 2273. -3156. 12780. <
4232 4 5 -1 14 4350. 465. 6315. <
4232 3 15 1 -14 4350. 465. 6315. <
4233 4 -7 -1 -13 5169. 371. 10639. <
4233 3 -15 1 13 5169. 371. 10639. <
4234 4 -7 1 -11 5031. 4404. 6907. <
4234 3 -15 -1 11 5031. 4404. 6907. <
4235 4 -9 1 -10 1750. 227. 5555. <
4235 3 -15 -1 10 1750. 227. 5555. <
4236 4 23 1 -11 2157. 21. 14881. <
4236 3 15 -1 11 2157. 21. 14881. <
4237 4 -11 3 -5 643. -14. 4307. <
4237 3 -15 -3 5 643. -14. 4307. <
4238 4 -8 0 -11 1849. -80. 7185. <
4238 3 -16 0 11 1849. -80. 7185. <
4239 4 -10 0 -10 11764. 10580. 6740. <
4239 3 -16 0 10 11764. 10580. 6740. <
4240 4 -8 2 -11 1539. 839. 7943. <
4240 3 -16 -2 11 1539. 839. 7943. <
4241 4 -10 2 -8 925. 1682. 5012. <
4241 3 -16 -2 8 925. 1682. 5012. <
4242 4 7 -1 14 1527. 1219. 8439. <
4242 3 17 1 -14 1527. 1219. 8439. <
4243 4 9 -1 13 1347. 1489. 6015. <
4243 3 17 1 -13 1347. 1489. 6015. <
4244 4 9 -1 11 4563. 3603. 4121. <
4244 3 17 1 -11 4563. 3603. 4121. <
4245 4 -11 1 -10 740. 1867. 6351. <
4245 3 -17 -1 10 740. 1867. 6351. <
4246 4 -11 1 -8 1217. 21. 4884. <
4246 3 -17 -1 8 1217. 21. 4884. <
4247 4 8 0 14 3749. 8224. 9895. <
4247 3 18 0 -14 3749. 8224. 9895. <
4248 4 -10 0 -13 428. -3359. 12704. <
4248 3 -18 0 13 428. -3359. 12704. <
4249 4 -10 0 -11 4135. -1325. 8178. <
4249 3 -18 0 11 4135. -1325. 8178. <
4250 4 10 -2 11 3287. -2995. 7885. <
4250 3 18 2 -11 3287. -2995. 7885. <
4251 4 -12 2 -10 7911. 5837. 8038. <
4251 3 -18 -2 10 7911. 5837. 8038. <
4252 4 -24 -2 8 3641. 8215. 10124. <
4252 3 -18 2 -8 3641. 8215. 10124. <
4253 4 -9 1 -14 1220. -2020. 12289. <
4253 3 -19 -1 14 1220. -2020. 12289. <
4254 4 11 -1 11 3517. 4364. 4771. <
4254 3 19 1 -11 3517. 4364. 4771. <
4255 4 12 0 13 1374. -2377. 10125. <
4255 3 20 0 -13 1374. -2377. 10125. <
4256 4 -13 1 -13 3758. 12447. 15414. <
4256 3 -21 -1 13 3758. 12447. 15414. <
4257 4 -13 1 -11 4367. 1013. 9520. <
4257 3 -21 -1 11 4367. 1013. 9520. <
4258 4 -15 1 -11 2480. -1377. 11278. <
4258 3 -23 -1 11 2480. -1377. 11278. <
