#------------------------------------------------------------------------------
#$Date: 2019-10-29 23:44:19 +0200 (Tue, 29 Oct 2019) $
#$Revision: 220480 $
#$URL: file:///home/coder/svn-repositories/cod/cif/4/00/30/4003061.cif $
#------------------------------------------------------------------------------
#
# This file is available in the Crystallography Open Database (COD),
# http://www.crystallography.net/
#
# All data on this site have been placed in the public domain by the
# contributors.
#
data_4003061
loop_
_publ_author_name
'Hirsch, Anna'
'Palmer, Benjamin A.'
'Ramasubramaniam, Ashwin'
'Williams, P. Andrew'
'Harris, Kenneth D. M.'
'Pokroy, Boaz'
'Weiner, Steve'
'Addadi, Lia'
'Leiserowitz, Leslie'
'Kronik, Leeor'
_publ_section_title
;
 Structure and Morphology of Light-Reflecting Synthetic and Biogenic
 Polymorphs of Isoxanthopterin: A Comparison
;
_journal_issue                   12
_journal_name_full               'Chemistry of Materials'
_journal_page_first              4479
_journal_paper_doi               10.1021/acs.chemmater.9b01039
_journal_volume                  31
_journal_year                    2019
_chemical_formula_sum            'C6 H5 N5 O2'
_chemical_formula_weight         179.14
_space_group_IT_number           14
_space_group_name_Hall           '-P 2ybc'
_space_group_name_H-M_alt        'P 1 21/c 1'
_symmetry_cell_setting           monoclinic
_symmetry_space_group_name_Hall  '-P 2ybc'
_symmetry_space_group_name_H-M   'P 1 21/c 1'
_audit_creation_date             2019-03-08T20:45
_audit_creation_method           'from EXP file using GSAS2CIF'
_audit_update_record
' 2019-03-08T20:45  Initial CIF as created by GSAS2CIF'
_cell_angle_alpha                90.0
_cell_angle_beta                 131.157(6)
_cell_angle_gamma                90.0
_cell_formula_units_Z            4
_cell_length_a                   4.4848(6)
_cell_length_b                   9.8986(13)
_cell_length_c                   20.4187(7)
_cell_measurement_temperature    294
_cell_volume                     682.48(14)
_computing_structure_refinement  GSAS
_diffrn_radiation_polarisn_ratio 0.55
_diffrn_radiation_probe          x-ray
_diffrn_radiation_wavelength     1.5406
_exptl_absorpt_correction_T_max  1.00000
_exptl_absorpt_correction_T_min  1.00000
_exptl_absorpt_process_details
;   GSAS Absorption/surface roughness correction: function number 0
 No correction is applied.
;
_pd_block_id                     2019-03-08T20:45|ISOXL||
_pd_calc_method                  'Rietveld Refinement'
_pd_instr_location               ' ?'
_pd_meas_2theta_range_inc        0.01707
_pd_meas_2theta_range_max        70.00054
_pd_meas_2theta_range_min        3.35
_pd_meas_number_of_points        3906
_pd_phase_name                   Isoxanthopterin
_pd_proc_2theta_range_inc        0.01707
_pd_proc_2theta_range_max        69.98142
_pd_proc_2theta_range_min        3.33088
_pd_proc_info_datetime           2019-03-08T20:45:44
_pd_proc_info_excluded_regions   ' ?'
_pd_proc_ls_background_function
;   GSAS Background function number 1 with 28 terms.
 Shifted Chebyshev function of 1st kind
      1:    4555.63     2:   -5867.13     3:    2886.51     4:   -1090.46    
      5:    409.217     6:   -245.955     7:    274.806     8:   -365.892    
      9:    381.304    10:   -226.462    11:   -11.3804    12:    217.505    
     13:   -278.099    14:    153.392    15:   -1.20243    16:   -37.5624    
     17:    15.8851    18:   -26.0270    19:    25.1143    20:    19.2594    
     21:   -56.0063    22:    43.8532    23:    7.67497    24:   -48.7303    
     25:    58.7129    26:   -55.0133    27:    37.1531    28:   -15.6362    
;
_pd_proc_ls_peak_cutoff          0.00500
_pd_proc_ls_profile_function
;
 CW Profile function number 3 with  19 terms
 Pseudovoigt profile coefficients as parameterized in
 P. Thompson, D.E. Cox & J.B. Hastings (1987). J. Appl. Cryst.,20,79-83.
 Asymmetry correction of L.W. Finger, D.E. Cox & A. P. Jephcoat (1994).
 J. Appl. Cryst.,27,892-900.
 #1(GU)   =    0.000 #2(GV)   =   -0.740 #3(GW)   =    7.349
 #4(GP)   =    0.000 #5(LX)   =    0.000 #6(LY)   =   53.993
 #7(S/L)  =   0.0233 #8(H/L)  =   0.0225
 #9(trns) =     0.00 #10(shft)=   0.0000
 #11(stec)=     0.00 #12(ptec)=     0.00 #13(sfec)=     0.00
 #14(L11) =   -0.994 #15(L22) =   -0.455 #16(L33) =   -0.120
 #17(L12) =    0.082 #18(L13) =    0.088 #19(L23) =    0.075
 Peak tails are ignored  where the intensity is below 0.0050 times the peak
   Aniso. broadening axis   0.0   0.0   1.0
;
_pd_proc_ls_prof_R_factor        0.0138
_pd_proc_ls_prof_wR_expected     0.0166
_pd_proc_ls_prof_wR_factor       0.0188
_pd_proc_number_of_points        3906
_pd_spec_mounting                ' ?'
_refine_ls_goodness_of_fit_all   1.13
_refine_ls_matrix_type           full
_refine_ls_number_parameters     72
_refine_ls_number_restraints     66
_refine_ls_R_Fsqd_factor         0.34554
_refine_ls_shift/su_max          0.04
_refine_ls_shift/su_mean         0.01
_reflns_d_resolution_high        1.344
_reflns_d_resolution_low         8.323
_reflns_limit_h_max              3
_reflns_limit_h_min              0
_reflns_limit_k_max              7
_reflns_limit_k_min              0
_reflns_limit_l_max              11
_reflns_limit_l_min              -11
_reflns_number_total             289
_cod_data_source_file            cm9b01039_si_001.cif
_cod_data_source_block           ISOXL_publ
_cod_original_cell_volume        682.48(19)
_cod_original_sg_symbol_H-M      'P 21/c'
_cod_database_code               4003061
_gsas_exptl_extinct_corr_t_min   1.00000
_gsas_exptl_extinct_corr_t_max   1.00000
loop_
_symmetry_equiv_pos_site_id
_symmetry_equiv_pos_as_xyz
1 +x,+y,+z
2 -x,+y+1/2,-z+1/2
-1 -x,-y,-z
-2 +x,-y+1/2,+z+1/2
loop_
_atom_site_type_symbol
_atom_site_label
_atom_site_fract_x
_atom_site_fract_y
_atom_site_fract_z
_atom_site_occupancy
_atom_site_thermal_displace_type
_atom_site_U_iso_or_equiv
_atom_site_symmetry_multiplicity
H H1 -0.242(42) 0.196(6) 0.388(8) 1 Uiso 0.066(5) 4
H H2 -0.177(43) 0.158(5) 0.313(12) 1 Uiso 0.066(5) 4
N N3 -0.2101(43) 0.2279(12) 0.3452(11) 1 Uiso 0.055(4) 4
C C4 -0.1027(62) 0.3550(12) 0.3501(12) 1 Uiso 0.055(4) 4
N N5 -0.0419(50) 0.4387(11) 0.4097(10) 1 Uiso 0.055(4) 4
C C6 0.0536(44) 0.5673(11) 0.4092(10) 1 Uiso 0.055(4) 4
N N7 0.1138(46) 0.6534(11) 0.4689(11) 1 Uiso 0.055(4) 4
H H8 0.0774(92) 0.6179(16) 0.5118(20) 1 Uiso 0.066(5) 4
C C9 0.2266(47) 0.7871(11) 0.4774(11) 1 Uiso 0.055(4) 4
O O10 0.2684(50) 0.8621(11) 0.5318(10) 1 Uiso 0.055(4) 4
C C11 0.2694(54) 0.8303(12) 0.4158(12) 1 Uiso 0.055(4) 4
H H12 0.3454(104) 0.9359(17) 0.4178(22) 1 Uiso 0.066(5) 4
N N13 0.2186(48) 0.7491(13) 0.3585(11) 1 Uiso 0.055(4) 4
C C14 0.1047(42) 0.6190(12) 0.3529(10) 1 Uiso 0.055(4) 4
C C15 0.0516(48) 0.5275(15) 0.2909(11) 1 Uiso 0.055(4) 4
O O16 0.0863(50) 0.5562(19) 0.2371(10) 1 Uiso 0.055(4) 4
N N17 -0.0580(52) 0.3971(15) 0.2930(11) 1 Uiso 0.055(4) 4
H H18 -0.1009(90) 0.3306(19) 0.2477(19) 1 Uiso 0.066(5) 4
loop_
_atom_type_symbol
_atom_type_number_in_cell
_atom_type_scat_dispersion_real
_atom_type_scat_dispersion_imag
_atom_type_scat_Cromer_Mann_a1
_atom_type_scat_Cromer_Mann_a2
_atom_type_scat_Cromer_Mann_a3
_atom_type_scat_Cromer_Mann_a4
_atom_type_scat_Cromer_Mann_b1
_atom_type_scat_Cromer_Mann_b2
_atom_type_scat_Cromer_Mann_b3
_atom_type_scat_Cromer_Mann_b4
_atom_type_scat_Cromer_Mann_c
_atom_type_scat_source
H 20.0 0.000 0.000 0.49300 10.5109 0.32291 26.1257 0.14019 3.14236 0.04081
57.7997 0.00304 International_Tables_Vol_C
N 20.0 0.000 0.000 12.2126 0.00570 3.13220 9.89330 2.01250 28.9975 1.16630
0.58260 -11.529 International_Tables_Vol_C
C 24.0 0.000 0.000 2.31000 20.8439 1.02000 10.2075 1.58860 0.56870 0.86500
51.6512 0.21560 International_Tables_Vol_C
O 8.0 0.000 0.000 3.04850 13.2771 2.28680 5.70110 1.54630 0.32390 0.86700
32.9089 0.25080 International_Tables_Vol_C
loop_
_pd_meas_counts_total
_pd_proc_ls_weight
_pd_proc_intensity_bkg_calc
_pd_calc_intensity_total
35895.0 0.0 28893.52930 .
29996.0 0.0 28069.97852 .
26006.0 0.0 27288.72656 .
22633.0 0.0 26547.93164 .
20817.0 0.0 25845.81055 .
20182.0 0.0 25180.72852 .
19624.0 0.0 24551.04688 .
19594.0 0.0 23955.21875 .
18902.0 0.0 23391.68945 .
18988.0 0.0 22859.05859 .
18679.0 0.0 22355.89453 .
18394.0 0.0 21880.85156 .
18628.0 0.0 21432.64258 .
18521.0 0.0 21009.99414 .
18180.0 0.0 20611.72070 .
17739.0 0.0 20236.64258 .
17861.0 0.0 19883.66406 .
17775.0 0.0 19551.71094 .
17687.0 0.0 19239.71680 .
17680.0 0.0 18946.73047 .
17583.0 0.0 18671.77148 .
17158.0 0.0 18413.93750 .
16859.0 0.0 18172.35156 .
16881.0 0.0 17946.14453 .
16885.0 0.0 17734.52930 .
16756.0 0.0 17536.71289 .
16891.0 0.0 17351.95703 .
16747.0 0.0 17179.53906 .
16687.0 0.0 17018.77539 .
16608.0 0.0 16869.01367 .
16385.0 0.0 16729.61328 .
16385.0 0.0 16599.97852 .
16331.0 0.0 16479.52734 .
16222.0 0.0 16367.71289 .
16194.0 0.0 16264.00391 .
15999.0 0.0 16167.89941 .
16180.0 0.0 16078.91309 .
15984.0 0.0 15996.58398 .
15967.0 0.0 15920.47656 .
15939.0 0.0000627 15850.17188 15850.17188
16119.0 0.0000620 15785.26758 15785.26758
15707.0 0.0000637 15725.38379 15725.38379
15885.0 0.0000630 15670.16016 15670.16016
15553.0 0.0000643 15619.25098 15619.25098
15377.0 0.0000650 15572.32617 15572.32617
15499.0 0.0000645 15529.07715 15529.07715
15833.0 0.0000632 15489.20508 15489.20508
15568.0 0.0000642 15452.43066 15452.43066
15735.0 0.0000636 15418.48730 15418.48730
15598.0 0.0000641 15387.12305 15387.12305
15567.0 0.0000642 15358.09668 15358.09668
15423.0 0.0000648 15331.18359 15331.18359
15457.0 0.0000647 15306.16895 15306.16895
15356.0 0.0000651 15282.85156 15282.85156
15345.0 0.0000652 15261.04199 15261.04199
15052.0 0.0000664 15240.55859 15240.55859
15419.0 0.0000649 15221.23242 15221.23242
15331.0 0.0000652 15202.90723 15202.90723
15076.0 0.0000663 15185.43164 15185.43164
15234.0 0.0000656 15168.66699 15168.66699
15168.0 0.0000659 15152.48047 15152.48047
15330.0 0.0000652 15136.75098 15136.75098
15019.0 0.0000666 15121.36621 15121.36621
15212.0 0.0000657 15106.21582 15106.21582
15069.0 0.0000664 15091.20508 15091.20508
15216.0 0.0000657 15076.23828 15076.23828
14974.0 0.0000668 15061.23145 15061.23145
14868.0 0.0000673 15046.10840 15046.10840
14993.0 0.0000667 15030.79492 15030.79492
15095.0 0.0000662 15015.22559 15015.22559
14905.0 0.0000671 14999.33789 14999.33789
14984.0 0.0000667 14983.07813 14983.07813
14855.0 0.0000673 14966.39746 14966.39746
14929.0 0.0000670 14949.24707 14949.24707
14867.0 0.0000673 14931.59082 14931.59082
14668.0 0.0000682 14913.38770 14913.38770
14718.0 0.0000679 14894.60840 14894.60840
14847.0 0.0000674 14875.22559 14875.22559
15094.0 0.0000663 14855.21289 14855.21289
14878.0 0.0000672 14834.54883 14834.54883
14550.0 0.0000687 14813.22070 14813.22070
14795.0 0.0000676 14791.20898 14791.20898
14857.0 0.0000673 14768.50391 14768.50391
14625.0 0.0000684 14745.09863 14745.09863
14710.0 0.0000680 14720.98535 14720.98535
14756.0 0.0000678 14696.16309 14696.16309
14541.0 0.0000688 14670.62793 14670.62793
14675.0 0.0000681 14644.38184 14644.38184
14489.0 0.0000690 14617.43164 14617.43164
14352.0 0.0000697 14589.77637 14589.77637
14485.0 0.0000690 14561.42871 14561.42871
14401.0 0.0000694 14532.39258 14532.39258
14599.0 0.0000685 14502.68262 14502.68262
14412.0 0.0000694 14472.30469 14472.30469
14246.0 0.0000702 14441.27734 14441.27734
14473.0 0.0000691 14409.61328 14409.61328
14424.0 0.0000693 14377.32422 14377.32422
14451.0 0.0000692 14344.42969 14344.42969
14399.0 0.0000694 14310.94629 14310.94629
14249.0 0.0000702 14276.89160 14276.89160
14231.0 0.0000703 14242.28516 14242.28516
14229.0 0.0000703 14207.14258 14207.14258
14200.0 0.0000704 14171.48926 14171.48926
14335.0 0.0000698 14135.34277 14135.34277
14280.0 0.0000700 14098.72266 14098.72266
14123.0 0.0000708 14061.65332 14061.65332
14240.0 0.0000702 14024.15430 14024.15430
14100.0 0.0000709 13986.24805 13986.24805
13770.0 0.0000726 13947.95703 13947.95703
13776.0 0.0000726 13909.30176 13909.30176
13846.0 0.0000722 13870.30762 13870.30762
13796.0 0.0000725 13830.99219 13830.99219
13977.0 0.0000715 13791.38184 13791.38184
13868.0 0.0000721 13751.49609 13751.49609
13740.0 0.0000728 13711.36133 13711.36133
13633.0 0.0000734 13670.99512 13670.99512
13883.0 0.0000720 13630.42188 13630.42188
13540.0 0.0000739 13589.66211 13589.66211
13700.0 0.0000730 13548.73828 13548.73828
13637.0 0.0000733 13507.67285 13507.67285
13294.0 0.0000752 13466.48633 13466.48633
13330.0 0.0000750 13425.19141 13425.19141
13579.0 0.0000736 13383.82227 13383.82227
13433.0 0.0000744 13342.38965 13342.38965
13469.0 0.0000742 13300.91699 13300.91699
13502.0 0.0000741 13259.41992 13259.41992
13147.0 0.0000761 13217.92188 13217.92188
13090.0 0.0000764 13176.44043 13176.44043
13363.0 0.0000748 13134.99023 13134.99023
13182.0 0.0000759 13093.59570 13093.59570
12953.0 0.0000772 13052.26367 13052.26367
13100.0 0.0000763 13011.01855 13011.01855
13115.0 0.0000762 12969.87598 12969.87598
12893.0 0.0000776 12928.85059 12928.85059
12930.0 0.0000773 12887.95703 12887.95703
12743.0 0.0000785 12847.20898 12847.20898
12877.0 0.0000777 12806.62500 12806.62500
12867.0 0.0000777 12766.21680 12766.21680
12502.0 0.0000800 12725.99414 12725.99414
12754.0 0.0000784 12685.97754 12685.97754
12641.0 0.0000791 12646.16992 12646.16992
12854.0 0.0000778 12606.58887 12606.58887
12736.0 0.0000785 12567.24609 12567.24609
12532.0 0.0000798 12528.15039 12528.15039
12572.0 0.0000795 12489.31250 12489.31250
12555.0 0.0000796 12450.74316 12450.74316
12411.0 0.0000806 12412.45020 12412.45020
12395.0 0.0000807 12374.44434 12374.44434
12390.0 0.0000807 12336.73340 12336.73340
12425.0 0.0000805 12299.32129 12299.32129
12182.0 0.0000821 12262.22168 12262.22168
12173.0 0.0000821 12225.43750 12225.43750
12048.0 0.0000830 12188.97754 12188.97754
12209.0 0.0000819 12152.84570 12152.84570
12109.0 0.0000826 12117.04785 12117.04785
12081.0 0.0000828 12081.59082 12081.59082
12095.0 0.0000827 12046.47754 12046.47754
12112.0 0.0000826 12011.71484 12011.71484
11831.0 0.0000845 11977.30176 11977.30176
12011.0 0.0000833 11943.24707 11943.24707
11833.0 0.0000845 11909.55078 11909.55078
11809.0 0.0000847 11876.21582 11876.21582
11880.0 0.0000842 11843.24609 11843.24609
12036.0 0.0000831 11810.64160 11810.64160
11616.0 0.0000861 11778.40332 11778.40332
11883.0 0.0000842 11746.53613 11746.53613
11597.0 0.0000862 11715.03711 11715.03711
11746.0 0.0000851 11683.91016 11683.91016
11631.0 0.0000860 11653.14941 11653.14941
11675.0 0.0000857 11622.76074 11622.76074
11817.0 0.0000846 11592.74121 11592.74121
11545.0 0.0000866 11563.09180 11563.09180
11691.0 0.0000855 11533.80957 11533.80957
11724.0 0.0000853 11504.89355 11504.89355
11628.0 0.0000860 11476.34277 11476.34277
11535.0 0.0000867 11448.15430 11448.15430
11431.0 0.0000875 11420.33008 11420.33008
11487.0 0.0000871 11392.85938 11392.85938
11587.0 0.0000863 11365.74805 11365.74805
11206.0 0.0000892 11338.98926 11338.98926
11317.0 0.0000884 11312.58301 11312.58301
11312.0 0.0000884 11286.52148 11286.52148
11331.0 0.0000883 11260.80273 11260.80273
11257.0 0.0000888 11235.42676 11235.42676
11279.0 0.0000887 11210.38672 11210.38672
11220.0 0.0000891 11185.67871 11185.67871
11181.0 0.0000894 11161.29980 11161.29980
11155.0 0.0000896 11137.24316 11137.24316
11208.0 0.0000892 11113.50879 11113.50879
11187.0 0.0000894 11090.08984 11090.08984
11109.0 0.0000900 11066.98047 11066.98047
11104.0 0.0000901 11044.17871 11044.17871
11060.0 0.0000904 11021.67676 11021.67676
10891.0 0.0000918 10999.47168 10999.47168
11094.0 0.0000901 10977.55859 10977.55859
11232.0 0.0000890 10955.93359 10955.93359
11026.0 0.0000907 10934.58691 10934.58691
11034.0 0.0000906 10913.51660 10913.51660
10811.0 0.0000925 10892.71777 10892.71777
10871.0 0.0000920 10872.18555 10872.18555
11036.0 0.0000906 10851.91113 10851.91113
10797.0 0.0000926 10831.89258 10831.89258
10891.0 0.0000918 10812.12402 10812.12402
10831.0 0.0000923 10792.59766 10792.59766
10900.0 0.0000917 10773.31055 10773.31055
10857.0 0.0000921 10754.25586 10754.25586
10776.0 0.0000928 10735.42773 10735.42773
10808.0 0.0000925 10716.82227 10716.82227
10824.0 0.0000924 10698.43164 10698.43164
10769.0 0.0000929 10680.25391 10680.25391
10866.0 0.0000920 10662.28027 10662.28027
10659.0 0.0000938 10644.50586 10644.50586
10595.0 0.0000944 10626.92676 10626.92676
10628.0 0.0000941 10609.53613 10609.53613
10574.0 0.0000946 10592.33105 10592.33105
10602.0 0.0000943 10575.30078 10575.30078
10679.0 0.0000936 10558.44531 10558.44531
10698.0 0.0000935 10541.75781 10541.75781
10547.0 0.0000948 10525.23242 10525.23242
10720.0 0.0000933 10508.86621 10508.86621
10543.0 0.0000948 10492.65039 10492.65039
10504.0 0.0000952 10476.58203 10476.58203
10489.0 0.0000953 10460.65723 10460.65723
10658.0 0.0000938 10444.87012 10444.87012
10474.0 0.0000955 10429.21582 10429.21582
10431.0 0.0000959 10413.68945 10413.68945
10216.0 0.0000979 10398.28516 10398.28516
10417.0 0.0000960 10383.00293 10383.00293
10418.0 0.0000960 10367.83301 10367.83301
10542.0 0.0000949 10352.77344 10352.77344
10470.0 0.0000955 10337.82129 10337.82129
10404.0 0.0000961 10322.96973 10322.96973
10291.0 0.0000972 10308.21680 10308.21680
10432.0 0.0000959 10293.55664 10293.55664
10368.0 0.0000965 10278.98535 10278.98535
10410.0 0.0000961 10264.50195 10264.50195
10424.0 0.0000959 10250.09961 10250.09961
10222.0 0.0000978 10235.77637 10235.77637
10248.0 0.0000976 10221.52734 10221.52734
10355.0 0.0000966 10207.35059 10207.35059
10257.0 0.0000975 10193.24219 10193.24219
10045.0 0.0000996 10179.19922 10179.19922
10091.0 0.0000991 10165.21973 10165.21973
10108.0 0.0000989 10151.29688 10151.29688
10387.0 0.0000963 10137.43066 10137.43066
9999.0 0.0001000 10123.61914 10123.61914
10008.0 0.0000999 10109.85742 10109.85742
10152.0 0.0000985 10096.14453 10096.14453
10234.0 0.0000977 10082.47852 10082.47852
10026.0 0.0000997 10068.85449 10068.85449
9949.0 0.0001005 10055.27344 10055.27344
10060.0 0.0000994 10041.73047 10041.73047
10353.0 0.0000966 10028.22559 10028.22559
10173.0 0.0000983 10014.75488 10014.75488
10059.0 0.0000994 10001.31738 10001.31738
10048.0 0.0000995 9987.91211 9987.91211
9961.0 0.0001004 9974.53809 9974.53809
9985.0 0.0001002 9961.19141 9961.19141
10148.0 0.0000985 9947.87305 9947.87305
10146.0 0.0000986 9934.58008 9934.58008
9872.0 0.0001013 9921.31250 9921.31250
10022.0 0.0000998 9908.06934 9908.06934
9949.0 0.0001005 9894.84766 9894.84766
9901.0 0.0001010 9881.64941 9881.64941
9835.0 0.0001017 9868.47168 9868.47168
10043.0 0.0000996 9855.31445 9855.31445
9712.0 0.0001030 9842.17773 9842.17773
9995.0 0.0001001 9829.06055 9829.06055
9963.0 0.0001004 9815.96191 9815.96191
9927.0 0.0001007 9802.88281 9802.88281
9915.0 0.0001009 9789.82129 9789.82129
9555.0 0.0001047 9776.77930 9776.77930
9965.0 0.0001004 9763.75488 9763.75488
9925.0 0.0001008 9750.74902 9750.74902
9606.0 0.0001041 9737.76270 9737.76270
9784.0 0.0001022 9724.79492 9724.79492
9604.0 0.0001041 9711.84668 9711.84668
9684.0 0.0001033 9698.91797 9698.91797
9601.0 0.0001042 9686.00781 9686.00781
9711.0 0.0001030 9673.12012 9673.12012
9798.0 0.0001021 9660.25195 9660.25195
9666.0 0.0001035 9647.40625 9647.40625
9636.0 0.0001038 9634.58398 9634.58398
10016.0 0.0000998 9621.78320 9621.78320
9683.0 0.0001033 9609.00781 9609.00781
9695.0 0.0001031 9596.25781 9596.25781
9539.0 0.0001048 9583.53320 9583.53320
9601.0 0.0001042 9570.83789 9570.83789
9507.0 0.0001052 9558.16895 9558.16895
9388.0 0.0001065 9545.53027 9545.53027
9605.0 0.0001041 9532.92383 9532.92383
9606.0 0.0001041 9520.34570 9520.34570
9426.0 0.0001061 9507.80469 9507.80469
9388.0 0.0001065 9495.29688 9495.29688
9509.0 0.0001052 9482.82617 9482.82617
9523.0 0.0001050 9470.39258 9470.39258
9377.0 0.0001066 9457.99805 9457.99805
9342.0 0.0001070 9445.64551 9445.64551
9452.0 0.0001058 9433.33496 9433.33496
9578.0 0.0001044 9421.06934 9421.06934
9417.0 0.0001062 9408.84766 9408.84766
9477.0 0.0001055 9396.67383 9396.67383
9417.0 0.0001062 9384.55078 9384.55078
9366.0 0.0001068 9372.47754 9372.47754
9370.0 0.0001067 9360.45801 9360.45801
9496.0 0.0001053 9348.49219 9348.49219
9379.0 0.0001066 9336.58203 9336.58203
9343.0 0.0001070 9324.73242 9324.73242
9366.0 0.0001068 9312.94141 9312.94141
9355.0 0.0001069 9301.21387 9301.21387
9237.0 0.0001083 9289.54883 9289.54883
9407.0 0.0001063 9277.95020 9277.95020
9237.0 0.0001083 9266.42090 9266.42090
9305.0 0.0001075 9254.95996 9254.95996
9275.0 0.0001078 9243.57129 9243.57129
9419.0 0.0001062 9232.25684 9232.25684
9148.0 0.0001093 9221.01758 9221.01758
9302.0 0.0001075 9209.85645 9209.85645
9166.0 0.0001091 9198.77637 9198.77637
9429.0 0.0001061 9187.77637 9187.77637
9198.0 0.0001087 9176.86133 9176.86133
9239.0 0.0001082 9166.03125 9166.03125
9112.0 0.0001097 9155.28906 9155.28906
9227.0 0.0001084 9144.63672 9144.63672
9184.0 0.0001089 9134.07520 9134.07520
9230.0 0.0001083 9123.60742 9123.60742
9307.0 0.0001074 9113.23633 9113.23633
9227.0 0.0001084 9102.96191 9102.96191
9129.0 0.0001095 9092.78711 9092.78711
9209.0 0.0001086 9082.71387 9082.71387
9252.0 0.0001081 9072.74414 9072.74414
9186.0 0.0001089 9062.87793 9062.87793
9053.0 0.0001105 9053.11914 9053.11914
9138.0 0.0001094 9043.46875 9043.46875
9140.0 0.0001094 9033.93066 9033.93066
9144.0 0.0001094 9024.50293 9024.50293
9077.0 0.0001102 9015.19043 9015.19043
9283.0 0.0001077 9005.99414 9005.99414
9247.0 0.0001081 8996.91406 8996.91406
9204.0 0.0001086 8987.95313 8987.95313
9046.0 0.0001105 8979.11328 8979.11328
9199.0 0.0001087 8970.39648 8970.39648
9046.0 0.0001105 8961.80273 8961.80273
9096.0 0.0001099 8953.33496 8953.33496
9144.0 0.0001094 8944.99414 8944.99414
8972.0 0.0001115 8936.78125 8936.78125
9074.0 0.0001102 8928.70020 8928.70020
9015.0 0.0001109 8920.74902 8920.74902
9035.0 0.0001107 8912.93066 8912.93066
9039.0 0.0001106 8905.24707 8905.24707
9020.0 0.0001109 8897.69824 8897.69824
9019.0 0.0001109 8890.28711 8890.28711
9268.0 0.0001079 8883.01367 8883.01367
8819.0 0.0001134 8875.87891 8875.87891
9031.0 0.0001107 8868.88477 8868.88477
8993.0 0.0001112 8862.03125 8862.03125
8894.0 0.0001124 8855.32031 8855.32031
8998.0 0.0001111 8848.75293 8848.75293
8958.0 0.0001116 8842.33008 8842.33008
8837.0 0.0001132 8836.05273 8836.05273
9011.0 0.0001110 8829.92090 8829.92090
8796.0 0.0001137 8823.93750 8823.93750
8975.0 0.0001114 8818.10059 8818.10059
8786.0 0.0001138 8812.41211 8812.41211
8922.0 0.0001121 8806.87402 8806.87402
8875.0 0.0001127 8801.48535 8801.48535
8733.0 0.0001145 8796.24707 8796.24707
8949.0 0.0001117 8791.16016 8791.16016
8801.0 0.0001136 8786.22461 8786.22461
8802.0 0.0001136 8781.44141 8781.44141
8980.0 0.0001114 8776.81055 8776.81055
8932.0 0.0001120 8772.33203 8772.33203
8792.0 0.0001137 8768.00684 8768.00684
8918.0 0.0001121 8763.83496 8763.83496
8925.0 0.0001120 8759.81836 8759.81836
8968.0 0.0001115 8755.95410 8755.95410
8806.0 0.0001136 8752.24414 8752.24414
8809.0 0.0001135 8748.68848 8748.68848
8874.0 0.0001127 8745.28613 8745.28613
8832.0 0.0001132 8742.03809 8742.03809
8770.0 0.0001140 8738.94434 8738.94434
8815.0 0.0001134 8736.00391 8736.00391
8840.0 0.0001131 8733.21777 8733.21777
8811.0 0.0001135 8730.58496 8730.58496
8905.0 0.0001123 8728.10547 8732.91211
8880.0 0.0001126 8725.77832 8730.84473
8773.0 0.0001140 8723.60352 8728.95117
8776.0 0.0001139 8721.58203 8727.23633
8909.0 0.0001122 8719.71094 8725.69922
8749.0 0.0001143 8717.99219 8724.34570
9002.0 0.0001111 8716.42383 8723.17773
8992.0 0.0001112 8715.00488 8722.19922
8771.0 0.0001140 8713.73535 8721.41602
8814.0 0.0001135 8712.61523 8720.83594
8842.0 0.0001131 8711.64258 8720.46387
8954.0 0.0001117 8710.81738 8720.31055
8732.0 0.0001145 8710.13867 8720.38770
8715.0 0.0001147 8709.60449 8720.70801
8883.0 0.0001126 8709.21582 8721.29297
8862.0 0.0001128 8708.97070 8722.16504
8721.0 0.0001147 8708.86816 8723.35547
8876.0 0.0001127 8708.90723 8724.90820
8830.0 0.0001133 8709.08594 8726.88574
8665.0 0.0001154 8709.40430 8729.40723
8868.0 0.0001128 8709.86230 8732.72852
8854.0 0.0001129 8710.45605 8737.45020
8761.0 0.0001141 8711.18555 8744.82227
8786.0 0.0001138 8712.04980 8756.91309
9046.0 0.0001105 8713.04785 8776.24023
8785.0 0.0001138 8714.17578 8804.66797
8864.0 0.0001128 8715.43652 8842.51270
8855.0 0.0001129 8716.82422 8888.84668
9096.0 0.0001099 8718.33984 8942.68164
8923.0 0.0001121 8719.98242 9003.70313
8803.0 0.0001136 8721.74805 9072.40625
9198.0 0.0001087 8723.63672 9149.98926
9001.0 0.0001111 8725.64648 9238.28711
9147.0 0.0001093 8727.77637 9339.90820
9205.0 0.0001086 8730.02441 9458.60742
9490.0 0.0001054 8732.38672 9600.09082
9530.0 0.0001049 8734.86523 9773.77637
9797.0 0.0001021 8737.45605 9996.24805
10282.0 0.0000973 8740.15625 10294.97852
10630.0 0.0000941 8742.96680 10701.98535
11302.0 0.0000885 8745.88379 11215.15137
11933.0 0.0000838 8748.90527 11726.39746
12133.0 0.0000824 8752.03125 11986.45117
11735.0 0.0000852 8755.25781 11721.16992
10699.0 0.0000935 8758.58398 10958.22266
10020.0 0.0000998 8762.00684 10101.96875
9469.0 0.0001056 8765.52539 9469.95313
9170.0 0.0001091 8769.13672 9118.88867
9015.0 0.0001109 8772.83984 8961.66602
8949.0 0.0001117 8776.63086 8898.33301
8842.0 0.0001131 8780.50977 8870.88672
8939.0 0.0001119 8784.47266 8856.39941
8941.0 0.0001118 8788.51953 8847.60938
8810.0 0.0001135 8792.64551 8842.13867
8967.0 0.0001115 8796.84961 8838.92871
8903.0 0.0001123 8801.12988 8837.35645
8938.0 0.0001119 8805.48438 8837.00781
8831.0 0.0001132 8809.91016 8837.59863
8894.0 0.0001124 8814.40527 8838.92285
8949.0 0.0001117 8818.96582 8840.83203
8943.0 0.0001118 8823.59277 8843.21875
8902.0 0.0001123 8828.28125 8845.99707
8963.0 0.0001116 8833.03125 8849.16113
8630.0 0.0001159 8837.83691 8852.54883
9028.0 0.0001108 8842.69824 8856.17480
8917.0 0.0001121 8847.61328 8860.00586
8837.0 0.0001132 8852.57910 8864.01855
8752.0 0.0001143 8857.59180 8868.18652
8837.0 0.0001132 8862.65234 8872.49707
8929.0 0.0001120 8867.75488 8876.92871
8945.0 0.0001118 8872.89844 8881.47461
8906.0 0.0001123 8878.08105 8886.11914
9003.0 0.0001111 8883.29980 8890.85645
8867.0 0.0001128 8888.55273 8895.67773
8798.0 0.0001137 8893.83789 8900.58008
8910.0 0.0001122 8899.15039 8905.56152
8846.0 0.0001130 8904.49121 8910.63086
8863.0 0.0001128 8909.85449 8915.79785
9102.0 0.0001099 8915.24023 8921.07129
8841.0 0.0001131 8920.64551 8926.45117
8834.0 0.0001132 8926.06738 8931.92871
8932.0 0.0001120 8931.50488 8937.49512
8919.0 0.0001121 8936.95313 8943.14355
8773.0 0.0001140 8942.41211 8948.87793
8724.0 0.0001146 8947.87793 8950.82227
8800.0 0.0001136 8953.34863 8956.92285
8986.0 0.0001113 8958.82129 8963.13867
8947.0 0.0001118 8964.29492 8969.50879
8948.0 0.0001118 8969.76563 8976.09668
9009.0 0.0001110 8975.23242 8983.01855
8829.0 0.0001133 8980.69141 8990.44141
8951.0 0.0001117 8986.14063 8998.48828
8828.0 0.0001133 8991.57910 9006.94824
9042.0 0.0001106 8997.00293 9014.91406
8700.0 0.0001149 9002.41016 9020.83594
8857.0 0.0001129 9007.79980 9023.57129
8778.0 0.0001139 9013.16699 9024.17480
8932.0 0.0001120 9018.51074 9024.99023
8930.0 0.0001120 9023.82910 9027.23926
8874.0 0.0001127 9029.12012 9030.89551
9013.0 0.0001110 9034.37988 9035.41602
9124.0 0.0001096 9039.60742 9040.31738
9025.0 0.0001108 9044.80078 9045.34375
8988.0 0.0001113 9049.95703 9050.39453
9087.0 0.0001100 9055.07324 9055.43555
8864.0 0.0001128 9060.14941 9060.45410
9103.0 0.0001099 9065.18066 9065.44043
9010.0 0.0001110 9070.16797 9070.39258
8903.0 0.0001123 9075.10547 9075.30176
9155.0 0.0001092 9079.99414 9080.16699
9148.0 0.0001093 9084.83008 9084.98340
8954.0 0.0001117 9089.61328 9089.75000
9138.0 0.0001094 9094.33984 9094.46289
9049.0 0.0001105 9099.00781 9099.11914
9138.0 0.0001094 9103.61523 9103.71680
9117.0 0.0001097 9108.16016 9108.25293
9133.0 0.0001095 9112.64160 9112.72656
9182.0 0.0001089 9117.05664 9117.13477
8993.0 0.0001112 9121.40332 9121.47559
9201.0 0.0001087 9125.67969 9125.74609
8920.0 0.0001121 9129.88477 9129.94629
9298.0 0.0001076 9134.01563 9134.07324
9227.0 0.0001084 9138.07129 9138.12500
9248.0 0.0001081 9142.04883 9142.09863
9139.0 0.0001094 9145.94727 9145.99414
9242.0 0.0001082 9149.76465 9149.76465
9104.0 0.0001098 9153.49902 9153.49902
9109.0 0.0001098 9157.14941 9157.14941
9117.0 0.0001097 9160.71289 9160.71289
9208.0 0.0001086 9164.18848 9164.18848
9154.0 0.0001092 9167.57520 9167.57520
9282.0 0.0001077 9170.87012 9170.87012
9426.0 0.0001061 9174.07227 9174.07227
9223.0 0.0001084 9177.17969 9177.17969
9189.0 0.0001088 9180.19238 9180.19238
9237.0 0.0001083 9183.10645 9183.10645
9143.0 0.0001094 9185.92188 9185.92188
9314.0 0.0001074 9188.63770 9188.63770
9220.0 0.0001085 9191.25098 9191.25098
9067.0 0.0001103 9193.76074 9193.76074
9237.0 0.0001083 9196.16699 9196.16699
9191.0 0.0001088 9198.46680 9198.46680
9184.0 0.0001089 9200.65918 9200.65918
9194.0 0.0001088 9202.74316 9202.74316
9141.0 0.0001094 9204.71777 9204.71777
9251.0 0.0001081 9206.58105 9206.58105
9268.0 0.0001079 9208.33203 9208.33203
9247.0 0.0001081 9209.96875 9209.96875
9440.0 0.0001059 9211.49219 9211.49219
9216.0 0.0001085 9212.89941 9212.89941
9246.0 0.0001082 9214.18945 9214.18945
9270.0 0.0001079 9215.36230 9215.36230
9312.0 0.0001074 9216.41602 9216.41602
9111.0 0.0001098 9217.35059 9217.35059
9317.0 0.0001073 9218.16309 9218.16309
9397.0 0.0001064 9218.85449 9218.85449
9335.0 0.0001071 9219.42383 9219.42383
9128.0 0.0001096 9219.86816 9219.86816
9325.0 0.0001072 9220.18945 9220.18945
9114.0 0.0001097 9220.38477 9220.38477
9166.0 0.0001091 9220.45410 9220.45410
9288.0 0.0001077 9220.39746 9220.39746
9307.0 0.0001074 9220.21191 9220.21191
9434.0 0.0001060 9219.89941 9219.89941
9373.0 0.0001067 9219.45703 9219.45703
9321.0 0.0001073 9218.88574 9218.88574
9240.0 0.0001082 9218.18457 9218.18457
9272.0 0.0001079 9217.35254 9217.35254
9215.0 0.0001085 9216.38867 9216.38867
9196.0 0.0001087 9215.29395 9215.29395
9314.0 0.0001074 9214.06543 9214.06543
9360.0 0.0001068 9212.70508 9212.70508
9410.0 0.0001063 9211.21191 9211.21191
9493.0 0.0001053 9209.58496 9209.58496
9321.0 0.0001073 9207.82422 9207.82422
9201.0 0.0001087 9205.92871 9205.92871
9293.0 0.0001076 9203.89844 9203.89844
9386.0 0.0001065 9201.73340 9201.73340
9245.0 0.0001082 9199.43359 9199.43359
9258.0 0.0001080 9196.99707 9196.99707
9308.0 0.0001074 9194.42676 9194.42676
9223.0 0.0001084 9191.71973 9191.71973
9227.0 0.0001084 9188.87695 9188.87695
9239.0 0.0001082 9185.89746 9185.89746
9289.0 0.0001077 9182.78223 9182.78223
9196.0 0.0001087 9179.53027 9179.53027
9209.0 0.0001086 9176.14258 9176.14258
9430.0 0.0001060 9172.61816 9172.61816
9202.0 0.0001087 9168.95801 9168.95801
9301.0 0.0001075 9165.16113 9165.16113
9227.0 0.0001084 9161.22852 9161.22852
9292.0 0.0001076 9157.15918 9157.15918
9379.0 0.0001066 9152.95508 9152.95508
9205.0 0.0001086 9148.61328 9148.61328
9319.0 0.0001073 9144.13672 9144.13672
9075.0 0.0001102 9139.52539 9139.52539
9169.0 0.0001091 9134.77832 9134.77832
9206.0 0.0001086 9129.89551 9129.89551
9089.0 0.0001100 9124.87891 9124.87891
9034.0 0.0001107 9119.72754 9119.72754
9165.0 0.0001091 9114.44238 9114.44238
9175.0 0.0001090 9109.02246 9109.02246
9053.0 0.0001105 9103.46973 9103.46973
9155.0 0.0001092 9097.78516 9097.78516
9245.0 0.0001082 9091.96680 9091.96680
8980.0 0.0001114 9086.01563 9086.01563
9161.0 0.0001092 9079.93457 9079.93457
9012.0 0.0001110 9073.71973 9073.71973
9046.0 0.0001105 9067.37598 9067.37598
9000.0 0.0001111 9060.90137 9060.90137
9206.0 0.0001086 9054.29688 9054.29688
9216.0 0.0001085 9047.56348 9047.56348
9233.0 0.0001083 9040.70215 9040.70215
9088.0 0.0001100 9033.71289 9033.71289
9208.0 0.0001086 9026.59570 9026.59570
9158.0 0.0001092 9019.35156 9019.35156
9007.0 0.0001110 9011.98145 9011.98145
9107.0 0.0001098 9004.48730 9004.48730
9104.0 0.0001098 8996.86816 8996.86816
9025.0 0.0001108 8989.12402 8989.12402
8815.0 0.0001134 8981.25879 8981.25879
9087.0 0.0001100 8973.26953 8973.26953
8833.0 0.0001132 8965.15918 8965.15918
9251.0 0.0001081 8956.92773 8956.92773
9004.0 0.0001111 8948.57617 8948.57617
9202.0 0.0001087 8940.10645 8940.10645
9002.0 0.0001111 8931.51758 8931.51758
8974.0 0.0001114 8922.81152 8922.81152
8863.0 0.0001128 8913.98926 8913.98926
8855.0 0.0001129 8905.05078 8905.05078
8882.0 0.0001126 8895.99805 8895.99805
8981.0 0.0001113 8886.83105 8886.83105
8892.0 0.0001125 8877.55078 8877.67676
9050.0 0.0001105 8868.16016 8868.29297
8927.0 0.0001120 8858.65723 8858.79688
8806.0 0.0001136 8849.04395 8849.19141
8707.0 0.0001149 8839.32324 8839.47852
8976.0 0.0001114 8829.49316 8829.65820
8668.0 0.0001154 8819.55664 8819.73145
8927.0 0.0001120 8809.51465 8809.70020
8840.0 0.0001131 8799.36621 8799.56348
8785.0 0.0001138 8789.11621 8789.32617
8841.0 0.0001131 8778.76172 8778.98633
8732.0 0.0001145 8768.30664 8768.54688
8877.0 0.0001127 8757.75000 8758.00781
8835.0 0.0001132 8747.09375 8747.37109
8832.0 0.0001132 8736.33984 8736.63965
8666.0 0.0001154 8725.48730 8725.81152
8680.0 0.0001152 8714.54004 8714.89258
8658.0 0.0001155 8703.49707 8703.88184
8737.0 0.0001145 8692.36133 8692.78320
8700.0 0.0001149 8681.13184 8681.59570
8571.0 0.0001167 8669.81055 8670.32422
8613.0 0.0001161 8658.39941 8658.97070
8680.0 0.0001152 8646.89844 8647.53906
8578.0 0.0001166 8635.31055 8636.03516
8619.0 0.0001160 8623.63477 8624.46484
8624.0 0.0001160 8611.87402 8612.84082
8631.0 0.0001159 8600.02832 8601.18750
8557.0 0.0001169 8588.10059 8589.54688
8626.0 0.0001159 8576.08984 8577.97461
8755.0 0.0001142 8563.99902 8566.54492
8598.0 0.0001163 8551.82715 8555.31934
8492.0 0.0001178 8539.57813 8544.33008
8390.0 0.0001192 8527.25098 8533.62500
8403.0 0.0001190 8514.84863 8523.21289
8486.0 0.0001178 8502.37207 8513.13086
8630.0 0.0001159 8489.82227 8503.51074
8561.0 0.0001168 8477.19922 8494.49023
8521.0 0.0001174 8464.50586 8486.41406
8416.0 0.0001188 8451.74316 8479.57520
8329.0 0.0001201 8438.91113 8474.12695
8529.0 0.0001172 8426.01270 8469.37500
8578.0 0.0001166 8413.04883 8463.29590
8541.0 0.0001171 8400.01953 8452.49707
8413.0 0.0001189 8386.92773 8434.01367
8456.0 0.0001183 8373.77246 8409.37402
8366.0 0.0001195 8360.55762 8383.96582
8488.0 0.0001178 8347.28320 8361.34473
8359.0 0.0001196 8333.94922 8342.16211
8314.0 0.0001203 8320.55957 8325.59668
8128.0 0.0001230 8307.11426 8310.53418
8405.0 0.0001190 8293.61328 8296.17188
8302.0 0.0001205 8280.05957 8282.09375
8274.0 0.0001209 8266.45410 8268.12695
8333.0 0.0001200 8252.79688 8254.20020
8098.0 0.0001235 8239.09180 8240.28711
8188.0 0.0001221 8225.33789 8226.36816
8257.0 0.0001211 8211.53711 8212.43359
8142.0 0.0001228 8197.69043 8198.47852
8067.0 0.0001240 8183.79932 8184.49707
8093.0 0.0001236 8169.86426 8170.48682
8195.0 0.0001220 8155.88770 8156.44629
8109.0 0.0001233 8141.87012 8142.37402
8186.0 0.0001222 8127.81396 8128.27100
7989.0 0.0001252 8113.71875 8114.13525
8046.0 0.0001243 8099.58691 8099.96826
7958.0 0.0001257 8085.41846 8085.76855
8106.0 0.0001234 8071.21729 8071.54004
7997.0 0.0001250 8056.98145 8057.27979
8069.0 0.0001239 8042.71289 8042.98975
8112.0 0.0001233 8028.41162 8028.66895
7988.0 0.0001252 8014.08252 8014.32275
8060.0 0.0001241 7999.72461 7999.94873
8205.0 0.0001219 7985.33984 7985.54980
8039.0 0.0001244 7970.92920 7971.12646
7992.0 0.0001251 7956.49219 7956.67773
7999.0 0.0001250 7942.03174 7942.20654
8021.0 0.0001247 7927.54785 7927.71289
7690.0 0.0001300 7913.04248 7913.19824
7909.0 0.0001264 7898.51563 7898.66309
7801.0 0.0001282 7883.97021 7884.11035
7918.0 0.0001263 7869.40820 7869.54102
8055.0 0.0001241 7854.82764 7854.95410
7841.0 0.0001275 7840.23096 7840.35107
7791.0 0.0001284 7825.62012 7825.62012
7925.0 0.0001262 7810.99463 7810.99463
7792.0 0.0001283 7796.35645 7796.35645
7692.0 0.0001300 7781.70703 7781.70703
7876.0 0.0001270 7767.04688 7767.04688
7648.0 0.0001308 7752.37646 7752.37646
7585.0 0.0001318 7737.69873 7737.69873
7745.0 0.0001291 7723.01270 7723.01270
7678.0 0.0001302 7708.32080 7708.32080
7749.0 0.0001290 7693.62402 7693.62402
7675.0 0.0001303 7678.92188 7678.92188
7697.0 0.0001299 7664.21729 7664.21729
7584.0 0.0001319 7649.51025 7649.51025
7505.0 0.0001332 7634.80176 7634.80176
7519.0 0.0001330 7620.09229 7620.09229
7840.0 0.0001276 7605.38379 7605.38379
7576.0 0.0001320 7590.67676 7590.67676
7636.0 0.0001310 7575.97314 7575.97314
7650.0 0.0001307 7561.27197 7561.27197
7521.0 0.0001330 7546.57617 7546.57617
7377.0 0.0001356 7531.88525 7531.88525
7456.0 0.0001341 7517.20068 7517.20068
7415.0 0.0001349 7502.52295 7502.52295
7463.0 0.0001340 7487.85400 7487.85400
7471.0 0.0001339 7473.19189 7473.19189
7450.0 0.0001342 7458.54150 7458.54150
7535.0 0.0001327 7443.90137 7443.90137
7461.0 0.0001340 7429.27295 7429.27295
7317.0 0.0001367 7414.65625 7414.65625
7412.0 0.0001349 7400.05322 7400.05322
7333.0 0.0001364 7385.46387 7385.46387
7364.0 0.0001358 7370.88916 7370.88916
7347.0 0.0001361 7356.33057 7356.33057
7432.0 0.0001346 7341.78711 7341.78711
7365.0 0.0001358 7327.26123 7327.26123
7216.0 0.0001386 7312.75391 7312.75391
7204.0 0.0001388 7298.26465 7298.26465
7231.0 0.0001383 7283.79541 7283.79541
7322.0 0.0001366 7269.34570 7269.34570
7101.0 0.0001408 7254.91650 7254.91650
7283.0 0.0001373 7240.50928 7240.50928
7327.0 0.0001365 7226.12402 7226.12402
7373.0 0.0001356 7211.76172 7211.76172
7186.0 0.0001392 7197.42139 7197.42139
7154.0 0.0001398 7183.10742 7183.10742
7200.0 0.0001389 7168.81836 7168.81836
7274.0 0.0001375 7154.55322 7154.55322
7177.0 0.0001393 7140.31543 7140.31543
7188.0 0.0001391 7126.10303 7126.10303
7227.0 0.0001384 7111.91943 7111.91943
7094.0 0.0001410 7097.76221 7097.76221
7111.0 0.0001406 7083.63330 7083.63330
6984.0 0.0001432 7069.53516 7069.53516
7044.0 0.0001420 7055.46484 7055.46484
7053.0 0.0001418 7041.42529 7041.42529
7075.0 0.0001413 7027.41553 7027.41553
6961.0 0.0001437 7013.43896 7013.43896
7096.0 0.0001409 6999.49219 6999.49219
6934.0 0.0001442 6985.57861 6985.57861
7020.0 0.0001425 6971.69678 6971.69678
7070.0 0.0001414 6957.84912 6957.84912
6980.0 0.0001433 6944.03369 6944.03369
7001.0 0.0001428 6930.25244 6930.25244
6896.0 0.0001450 6916.50684 6916.50684
6936.0 0.0001442 6902.79492 6902.79492
6946.0 0.0001440 6889.11914 6889.11914
7052.0 0.0001418 6875.47803 6875.47803
6822.0 0.0001466 6861.87451 6861.87451
6780.0 0.0001475 6848.30615 6848.30615
6837.0 0.0001463 6834.77539 6834.77539
6712.0 0.0001490 6821.28027 6821.28027
6829.0 0.0001464 6807.82324 6807.82324
6964.0 0.0001436 6794.40527 6794.40527
6966.0 0.0001436 6781.02441 6781.02441
6855.0 0.0001459 6767.68311 6767.68311
6854.0 0.0001459 6754.37988 6754.37988
6765.0 0.0001478 6741.11670 6741.11670
6915.0 0.0001446 6727.89111 6727.89111
6855.0 0.0001459 6714.70703 6714.70703
6722.0 0.0001488 6701.56201 6701.56201
6757.0 0.0001480 6688.45801 6688.45801
6814.0 0.0001468 6675.39307 6675.39307
6628.0 0.0001509 6662.36865 6662.36865
6765.0 0.0001478 6649.38672 6649.38672
6617.0 0.0001511 6636.44434 6636.44434
6793.0 0.0001472 6623.54443 6623.54443
6570.0 0.0001522 6610.68506 6610.68506
6715.0 0.0001489 6597.86865 6597.86865
6557.0 0.0001525 6585.09277 6585.09277
6843.0 0.0001461 6572.35889 6572.35889
6420.0 0.0001558 6559.66846 6559.66846
6557.0 0.0001525 6547.01904 6547.01904
6572.0 0.0001522 6534.41357 6534.41357
6551.0 0.0001526 6521.84912 6521.84912
6756.0 0.0001480 6509.32910 6509.32910
6607.0 0.0001514 6496.85010 6496.85010
6651.0 0.0001504 6484.41553 6484.41553
6485.0 0.0001542 6472.02246 6472.02246
6659.0 0.0001502 6459.67432 6459.67432
6514.0 0.0001535 6447.36719 6447.36719
6451.0 0.0001550 6435.10352 6435.10352
6458.0 0.0001548 6422.88428 6422.88428
6599.0 0.0001515 6410.70703 6410.70703
6579.0 0.0001520 6398.57471 6398.57471
6356.0 0.0001573 6386.48438 6386.48438
6472.0 0.0001545 6374.43896 6374.43896
6451.0 0.0001550 6362.43555 6362.43555
6385.0 0.0001566 6350.47656 6350.47656
6364.0 0.0001571 6338.56006 6338.56006
6369.0 0.0001570 6326.68652 6326.68652
6339.0 0.0001578 6314.85791 6314.85791
6438.0 0.0001553 6303.07129 6303.07129
6280.0 0.0001592 6291.32910 6291.32910
6449.0 0.0001551 6279.62939 6279.62939
6245.0 0.0001601 6267.97363 6267.97363
6256.0 0.0001598 6256.36035 6256.36035
6382.0 0.0001567 6244.79004 6244.79004
6436.0 0.0001554 6233.26270 6233.26270
6203.0 0.0001612 6221.77930 6221.77930
6194.0 0.0001614 6210.33789 6210.33789
6402.0 0.0001562 6198.93896 6198.93896
6262.0 0.0001597 6187.58398 6187.58398
6261.0 0.0001597 6176.27002 6176.27002
6427.0 0.0001556 6165.00049 6165.17041
6210.0 0.0001610 6153.77148 6153.95361
6235.0 0.0001604 6142.58643 6142.78174
6333.0 0.0001579 6131.44336 6131.65381
6330.0 0.0001580 6120.33936 6120.56641
6221.0 0.0001607 6109.28027 6109.52637
6220.0 0.0001608 6098.26123 6098.52832
6062.0 0.0001650 6087.28516 6087.57666
6275.0 0.0001594 6076.34863 6076.66797
6128.0 0.0001632 6065.45508 6065.80615
6158.0 0.0001624 6054.60254 6054.99072
6089.0 0.0001642 6043.78955 6044.22119
6041.0 0.0001655 6033.01904 6033.50244
6075.0 0.0001646 6022.28711 6022.83154
6013.0 0.0001663 6011.59766 6012.21680
6057.0 0.0001651 6000.94531 6001.65625
6068.0 0.0001648 5990.33545 5991.16406
6181.0 0.0001618 5979.76563 5980.75732
6045.0 0.0001654 5969.23389 5970.48877
5993.0 0.0001669 5958.74268 5960.49170
5971.0 0.0001675 5948.28955 5951.00928
6054.0 0.0001652 5937.87646 5942.37354
5959.0 0.0001678 5927.50098 5934.87598
5929.0 0.0001687 5917.16406 5928.67139
5997.0 0.0001668 5906.86621 5923.84668
6013.0 0.0001663 5896.60547 5920.63525
5953.0 0.0001680 5886.38379 5919.67285
6092.0 0.0001641 5876.19873 5922.28076
5902.0 0.0001694 5866.05176 5930.40527
5858.0 0.0001707 5855.94092 5944.79492
5973.0 0.0001674 5845.86816 5960.66748
5918.0 0.0001690 5835.83105 5965.07275
6049.0 0.0001653 5825.83105 5944.00293
5989.0 0.0001670 5815.86670 5899.93604
5967.0 0.0001676 5805.93750 5853.04248
5747.0 0.0001740 5796.04541 5817.82422
5974.0 0.0001674 5786.18750 5795.50195
5912.0 0.0001691 5776.36523 5780.89209
5774.0 0.0001732 5766.57715 5769.40869
5832.0 0.0001715 5756.82422 5758.92432
5909.0 0.0001692 5747.10498 5748.77246
5773.0 0.0001732 5737.42090 5738.78418
5915.0 0.0001691 5727.76904 5728.90527
5847.0 0.0001710 5718.15088 5719.16650
5730.0 0.0001745 5708.56738 5709.44873
5798.0 0.0001725 5699.01514 5699.78955
5841.0 0.0001712 5689.49707 5690.18555
5855.0 0.0001708 5680.01025 5680.62891
5654.0 0.0001769 5670.55615 5671.11719
5647.0 0.0001771 5661.13330 5661.64697
5835.0 0.0001714 5651.74268 5652.21729
5661.0 0.0001766 5642.38232 5642.82422
5752.0 0.0001739 5633.05322 5633.46826
5656.0 0.0001768 5623.75586 5624.14844
5767.0 0.0001734 5614.48682 5614.86182
5734.0 0.0001744 5605.24951 5605.60986
5759.0 0.0001736 5596.04150 5596.39111
5571.0 0.0001795 5586.86377 5587.20557
5658.0 0.0001767 5577.71387 5578.05078
5618.0 0.0001780 5568.59473 5568.92920
5610.0 0.0001783 5559.50293 5559.83789
5529.0 0.0001809 5550.43945 5550.77881
5551.0 0.0001801 5541.40527 5541.59961
5652.0 0.0001769 5532.39746 5532.61133
5583.0 0.0001791 5523.41846 5523.65527
5584.0 0.0001791 5514.46631 5514.73047
5577.0 0.0001793 5505.54150 5505.83740
5433.0 0.0001841 5496.64258 5496.97705
5636.0 0.0001774 5487.77100 5488.15186
5556.0 0.0001800 5478.92480 5479.36377
5561.0 0.0001798 5470.10498 5470.61816
5570.0 0.0001795 5461.31006 5461.92480
5498.0 0.0001819 5452.54053 5453.30859
5463.0 0.0001830 5443.79688 5444.81543
5355.0 0.0001867 5435.07715 5436.51807
5386.0 0.0001857 5426.38281 5428.51270
5367.0 0.0001863 5417.71191 5420.88574
5423.0 0.0001844 5409.06592 5413.71191
5458.0 0.0001832 5400.44238 5407.06152
5278.0 0.0001895 5391.84375 5401.06396
5433.0 0.0001841 5383.26660 5395.95947
5484.0 0.0001823 5374.71289 5392.07813
5432.0 0.0001841 5366.18262 5393.49854
5567.0 0.0001796 5357.67334 5391.69775
5496.0 0.0001820 5349.18750 5388.29395
5409.0 0.0001849 5340.72217 5380.15137
5247.0 0.0001906 5332.27930 5365.82275
5375.0 0.0001860 5323.85742 5348.43945
5358.0 0.0001866 5315.45703 5332.23779
5339.0 0.0001873 5307.07715 5318.91553
5459.0 0.0001832 5298.71729 5308.14551
5267.0 0.0001899 5290.37891 5298.92822
5307.0 0.0001884 5282.05957 5290.45459
5430.0 0.0001842 5273.76123 5282.31738
5377.0 0.0001860 5265.48145 5274.36182
5305.0 0.0001885 5257.22217 5266.54248
5283.0 0.0001893 5248.98096 5258.84570
5334.0 0.0001875 5240.75928 5251.27246
5387.0 0.0001856 5232.55664 5243.82861
5337.0 0.0001874 5224.37061 5236.52344
5327.0 0.0001877 5216.20410 5229.37646
5219.0 0.0001916 5208.05469 5222.40820
5183.0 0.0001929 5199.92480 5215.64893
5254.0 0.0001903 5191.81104 5209.13525
5337.0 0.0001874 5183.71582 5202.91797
5135.0 0.0001947 5175.63770 5197.06299
5144.0 0.0001944 5167.57520 5191.65625
5280.0 0.0001894 5159.53076 5187.28369
5082.0 0.0001968 5151.50195 5183.22803
5342.0 0.0001872 5143.48926 5180.24805
5074.0 0.0001971 5135.49316 5178.89893
5231.0 0.0001912 5127.51367 5180.14893
5201.0 0.0001923 5119.54980 5185.58252
5213.0 0.0001918 5111.60059 5197.53516
5085.0 0.0001967 5103.66797 5219.08496
5292.0 0.0001890 5095.74902 5253.61572
5334.0 0.0001875 5087.84619 5303.80664
5420.0 0.0001845 5079.95703 5372.95947
5507.0 0.0001816 5072.08398 5468.35205
5449.0 0.0001835 5064.22559 5593.78857
5693.0 0.0001757 5056.38037 5747.76367
5838.0 0.0001713 5048.55078 5927.64063
5941.0 0.0001683 5040.73389 6105.56494
6168.0 0.0001621 5032.93164 6230.21436
6139.0 0.0001629 5025.14258 6234.69141
5970.0 0.0001675 5017.36816 6078.71289
5833.0 0.0001714 5009.60596 5819.96777
5600.0 0.0001786 5001.85791 5560.86816
5351.0 0.0001869 4994.12256 5357.70166
5417.0 0.0001846 4986.40039 5219.45850
5172.0 0.0001933 4978.69141 5133.07568
5123.0 0.0001952 4970.99414 5080.29150
5130.0 0.0001949 4963.31055 5046.30908
5260.0 0.0001901 4955.63916 5022.05908
4978.0 0.0002009 4947.98047 5002.92432
5065.0 0.0001974 4940.33398 4987.24854
4918.0 0.0002033 4932.69922 4973.03076
5004.0 0.0001998 4925.07715 4960.18945
5009.0 0.0001996 4917.46680 4948.37256
4983.0 0.0002007 4909.86865 4937.33887
4966.0 0.0002014 4902.28174 4926.91602
4957.0 0.0002017 4894.70752 4916.97900
4761.0 0.0002100 4887.14355 4907.43018
4812.0 0.0002078 4879.59229 4898.20068
5088.0 0.0001965 4872.05176 4889.23438
4934.0 0.0002027 4864.52344 4880.48877
4959.0 0.0002017 4857.00488 4871.92871
4945.0 0.0002022 4849.49805 4863.52930
4843.0 0.0002065 4842.00293 4855.26953
4797.0 0.0002085 4834.51855 4847.13135
4826.0 0.0002072 4827.04590 4839.10205
4756.0 0.0002103 4819.58301 4831.16992
4749.0 0.0002106 4812.13232 4823.32666
4839.0 0.0002067 4804.69141 4815.56494
4809.0 0.0002079 4797.26221 4807.87988
4816.0 0.0002076 4789.84277 4800.26709
4700.0 0.0002128 4782.43408 4792.72363
4599.0 0.0002174 4775.03711 4785.24951
4796.0 0.0002085 4767.64990 4777.84229
4807.0 0.0002080 4760.27393 4770.50439
4650.0 0.0002151 4752.90820 4763.23584
4746.0 0.0002107 4745.55273 4756.03955
4681.0 0.0002136 4738.20801 4748.92041
4677.0 0.0002138 4730.87451 4741.88428
4700.0 0.0002128 4723.55029 4734.93848
4728.0 0.0002115 4716.23779 4724.35059
4674.0 0.0002139 4708.93457 4717.79004
4805.0 0.0002081 4701.64209 4711.34717
4703.0 0.0002126 4694.36084 4705.04492
4720.0 0.0002119 4687.08936 4698.91016
4643.0 0.0002154 4679.82910 4692.97949
4713.0 0.0002122 4672.57861 4687.29932
4775.0 0.0002094 4665.33936 4681.93359
4873.0 0.0002052 4658.10938 4676.96924
4728.0 0.0002115 4650.89063 4672.54053
4782.0 0.0002091 4643.68262 4668.86572
4767.0 0.0002098 4636.48438 4666.32910
4710.0 0.0002123 4629.29736 4665.60645
4609.0 0.0002170 4622.12061 4667.80469
4816.0 0.0002076 4614.95508 4674.55078
4729.0 0.0002115 4607.79932 4687.99072
4756.0 0.0002103 4600.65527 4710.60059
4793.0 0.0002086 4593.52100 4744.46094
4887.0 0.0002046 4586.39893 4791.32227
4871.0 0.0002053 4579.28516 4855.97021
4878.0 0.0002050 4572.18506 4943.31787
4906.0 0.0002038 4565.09375 5048.05029
5209.0 0.0001920 4558.01563 5158.53613
5057.0 0.0001977 4550.94727 5257.04102
5317.0 0.0001881 4543.88770 5304.29932
5266.0 0.0001899 4536.84229 5264.49756
5264.0 0.0001900 4529.80664 5135.91113
4876.0 0.0002051 4522.78320 4972.14258
4745.0 0.0002107 4515.77051 4824.15576
4800.0 0.0002083 4508.77002 4712.78906
4620.0 0.0002165 4501.77979 4637.37549
4573.0 0.0002187 4494.80225 4588.86475
4599.0 0.0002174 4487.83545 4557.33252
4606.0 0.0002171 4480.88086 4535.43652
4532.0 0.0002207 4473.93750 4518.75977
4435.0 0.0002255 4467.00781 4505.00732
4420.0 0.0002262 4460.08740 4493.41064
4613.0 0.0002168 4453.18115 4482.65527
4479.0 0.0002233 4446.28516 4472.77002
4448.0 0.0002248 4439.40283 4463.55371
4455.0 0.0002245 4432.53125 4454.86230
4389.0 0.0002278 4425.67383 4446.60205
4321.0 0.0002314 4418.82764 4438.70166
4395.0 0.0002275 4411.99268 4431.11279
4407.0 0.0002269 4405.17334 4423.80762
4286.0 0.0002333 4398.36426 4416.76318
4395.0 0.0002275 4391.57080 4409.97461
4452.0 0.0002246 4384.78711 4403.44336
4481.0 0.0002232 4378.01953 4397.18945
4488.0 0.0002228 4371.26270 4391.23584
4422.0 0.0002261 4364.52148 4385.63281
4436.0 0.0002254 4357.79150 4380.45020
4403.0 0.0002271 4351.07715 4375.80078
4379.0 0.0002284 4344.37451 4371.87744
4256.0 0.0002350 4337.68750 4369.04980
4392.0 0.0002277 4331.01172 4368.00879
4383.0 0.0002282 4324.35254 4369.97998
4439.0 0.0002253 4317.70557 4376.88623
4359.0 0.0002294 4311.07471 4391.37891
4416.0 0.0002264 4304.45605 4416.58154
4537.0 0.0002204 4297.85400 4455.30518
4414.0 0.0002266 4291.26611 4511.27393
4511.0 0.0002217 4284.68994 4590.60840
4632.0 0.0002159 4278.13232 4694.86133
4798.0 0.0002084 4271.58740 4821.53320
4914.0 0.0002035 4265.05957 4956.33154
5029.0 0.0001988 4258.54443 5060.56494
5020.0 0.0001992 4252.04736 5081.58252
4931.0 0.0002028 4245.56348 4980.92627
4743.0 0.0002108 4239.09717 4795.82227
4651.0 0.0002150 4232.64453 4607.01807
4530.0 0.0002208 4226.20996 4461.12354
4423.0 0.0002261 4219.78906 4365.29541
4315.0 0.0002317 4213.38672 4308.23926
4262.0 0.0002346 4206.99854 4274.82471
4317.0 0.0002316 4200.62891 4253.72363
4329.0 0.0002310 4194.27344 4238.62793
4180.0 0.0002392 4187.93652 4226.71191
4303.0 0.0002324 4181.61475 4216.84961
4272.0 0.0002341 4175.31201 4208.68018
4199.0 0.0002382 4169.02490 4202.51904
4180.0 0.0002392 4162.75342 4198.01855
4191.0 0.0002386 4156.50244 4196.01221
4168.0 0.0002399 4150.26709 4196.93506
4215.0 0.0002372 4144.05078 4201.30029
4129.0 0.0002422 4137.85059 4209.69385
4307.0 0.0002322 4131.66992 4223.11133
4207.0 0.0002377 4125.50586 4241.01758
4158.0 0.0002405 4119.36182 4260.44531
4223.0 0.0002368 4113.23389 4277.46484
4222.0 0.0002369 4107.12646 4284.43994
4250.0 0.0002353 4101.03662 4272.54248
4115.0 0.0002430 4094.96582 4240.96729
4142.0 0.0002414 4088.91333 4200.25293
4281.0 0.0002336 4082.88062 4162.12061
4053.0 0.0002467 4076.86621 4131.63184
4161.0 0.0002403 4070.87207 4109.07227
4211.0 0.0002375 4064.89648 4092.70435
3910.0 0.0002558 4058.94116 4080.43262
4156.0 0.0002406 4053.00562 4070.56738
3890.0 0.0002571 4047.08789 4062.03809
4055.0 0.0002466 4041.19263 4054.27246
4137.0 0.0002417 4035.31543 4046.97559
3996.0 0.0002503 4029.46094 4040.00610
3945.0 0.0002535 4023.62451 4032.58496
4052.0 0.0002468 4017.81030 4026.06567
4081.0 0.0002450 4012.01514 4019.69995
3992.0 0.0002505 4006.24292 4013.46631
3955.0 0.0002528 4000.48901 4005.30420
3907.0 0.0002560 3994.75854 3999.37646
4065.0 0.0002460 3989.04712 3993.53003
4042.0 0.0002474 3983.35913 3987.76416
4071.0 0.0002456 3977.69043 3982.07202
4047.0 0.0002471 3972.04517 3976.45654
3996.0 0.0002503 3966.41992 3970.91528
4082.0 0.0002450 3960.81812 3965.45605
3933.0 0.0002543 3955.23657 3960.08154
4115.0 0.0002430 3949.67871 3954.80444
3903.0 0.0002562 3944.14258 3949.63721
4087.0 0.0002447 3938.62671 3944.59888
3832.0 0.0002610 3933.13525 3939.72290
3979.0 0.0002513 3927.66602 3935.05713
3934.0 0.0002542 3922.21973 3930.68823
3879.0 0.0002578 3916.79541 3926.77295
4033.0 0.0002480 3911.39478 3923.58594
3938.0 0.0002539 3906.01636 3921.56201
3943.0 0.0002536 3900.66187 3921.32983
3864.0 0.0002588 3895.33008 3923.70605
3935.0 0.0002541 3890.02222 3929.55566
4022.0 0.0002486 3884.73730 3939.58887
3958.0 0.0002527 3879.47681 3954.83545
4000.0 0.0002500 3874.23828 3976.48730
4033.0 0.0002480 3869.02539 4002.95044
4101.0 0.0002438 3863.83472 4029.97632
4015.0 0.0002491 3858.66992 4050.42090
3947.0 0.0002534 3853.52710 4052.28345
4023.0 0.0002486 3848.41040 4027.84473
3893.0 0.0002569 3843.31689 3984.02124
3863.0 0.0002589 3838.24658 3937.42090
3919.0 0.0002552 3833.20264 3898.81812
3872.0 0.0002583 3828.18188 3870.73340
3903.0 0.0002562 3823.18750 3851.45044
3887.0 0.0002573 3818.21631 3837.71851
3919.0 0.0002552 3813.27173 3827.86890
3806.0 0.0002627 3808.35010 3819.87817
3782.0 0.0002644 3803.45532 3812.89355
3707.0 0.0002698 3798.58398 3806.49316
3729.0 0.0002682 3793.73926 3800.47632
3831.0 0.0002610 3788.91846 3794.73096
3866.0 0.0002587 3784.12476 3789.19434
3844.0 0.0002601 3779.35425 3783.81812
3838.0 0.0002606 3774.61157 3778.57593
3898.0 0.0002565 3769.89258 3773.44092
3811.0 0.0002624 3765.20093 3768.40063
3853.0 0.0002595 3760.53296 3763.43872
3863.0 0.0002589 3755.89307 3758.55029
3751.0 0.0002666 3751.27808 3753.72485
3748.0 0.0002668 3746.68750 3748.95703
3724.0 0.0002685 3742.12524 3744.24805
3800.0 0.0002632 3737.58740 3739.59229
3885.0 0.0002574 3733.07715 3734.99487
3704.0 0.0002700 3728.59180 3730.45972
3742.0 0.0002672 3724.13354 3726.00220
3850.0 0.0002597 3719.70068 3721.64014
3792.0 0.0002637 3715.29541 3717.40234
3707.0 0.0002698 3710.91528 3713.31641
3874.0 0.0002581 3706.56274 3709.40894
3641.0 0.0002746 3702.23535 3705.71582
3784.0 0.0002643 3697.93604 3702.27124
3660.0 0.0002732 3693.66187 3698.99121
3711.0 0.0002695 3689.41528 3695.71313
3606.0 0.0002773 3685.19458 3692.15967
3729.0 0.0002682 3681.00171 3687.92212
3683.0 0.0002715 3676.83398 3682.84863
3720.0 0.0002688 3672.69482 3677.32935
3789.0 0.0002639 3668.58130 3671.90039
3733.0 0.0002679 3664.49365 3666.81860
3678.0 0.0002719 3660.43457 3662.10718
3672.0 0.0002723 3656.40112 3657.68091
3700.0 0.0002703 3652.39600 3653.44482
3646.0 0.0002743 3648.41675 3649.32227
3638.0 0.0002749 3644.46533 3645.27222
3770.0 0.0002653 3640.53955 3641.27197
3666.0 0.0002728 3636.64233 3637.31494
3576.0 0.0002796 3632.77051 3633.39380
3664.0 0.0002729 3628.92725 3629.50854
3647.0 0.0002742 3625.10962 3625.65430
3636.0 0.0002750 3621.31982 3621.50366
3525.0 0.0002837 3617.55688 3617.72485
3519.0 0.0002842 3613.82104 3613.91699
3593.0 0.0002783 3610.11182 3610.19800
3702.0 0.0002701 3606.42993 3606.50757
3581.0 0.0002793 3602.77466 3602.84521
3540.0 0.0002825 3599.14697 3599.83496
3604.0 0.0002775 3595.54565 3596.24707
3489.0 0.0002866 3591.97119 3592.68750
3660.0 0.0002732 3588.42505 3589.15796
3597.0 0.0002780 3584.90430 3585.65527
3579.0 0.0002794 3581.41187 3582.18213
3581.0 0.0002793 3577.94507 3578.73633
3627.0 0.0002757 3574.50635 3575.31982
3715.0 0.0002692 3571.09351 3571.93091
3574.0 0.0002798 3567.70850 3568.57129
3522.0 0.0002839 3564.34937 3565.20898
3631.0 0.0002754 3561.01807 3561.90820
3630.0 0.0002755 3557.71265 3558.63525
3468.0 0.0002884 3554.43481 3555.39160
3562.0 0.0002807 3551.18262 3552.17554
3585.0 0.0002789 3547.95825 3548.98926
3593.0 0.0002783 3544.75928 3545.83081
3577.0 0.0002796 3541.58838 3542.70264
3587.0 0.0002788 3538.44263 3539.60229
3508.0 0.0002851 3535.32446 3536.53247
3507.0 0.0002851 3532.23193 3533.49146
3461.0 0.0002889 3529.16602 3530.48022
3665.0 0.0002729 3526.12671 3527.49927
3494.0 0.0002862 3523.11377 3524.54883
3531.0 0.0002832 3520.12720 3521.62891
3507.0 0.0002851 3517.16626 3518.73950
3580.0 0.0002793 3514.23218 3515.88208
3520.0 0.0002841 3511.32397 3513.85449
3535.0 0.0002829 3508.44189 3511.10107
3509.0 0.0002850 3505.58569 3508.38354
3594.0 0.0002782 3502.75513 3505.70337
3515.0 0.0002845 3499.95044 3503.06079
3517.0 0.0002843 3497.17212 3500.45874
3554.0 0.0002814 3494.41870 3497.89722
3526.0 0.0002836 3491.69165 3495.37891
3496.0 0.0002860 3488.98926 3492.90479
3435.0 0.0002911 3486.31323 3490.47900
3493.0 0.0002863 3483.66187 3489.93115
3423.0 0.0002921 3481.03638 3487.70117
3542.0 0.0002823 3478.43555 3485.53516
3564.0 0.0002806 3475.85962 3483.43872
3494.0 0.0002862 3473.30981 3481.41968
3529.0 0.0002834 3470.78418 3479.48413
3521.0 0.0002840 3468.28418 3477.64233
3437.0 0.0002910 3465.80835 3475.90381
3621.0 0.0002762 3463.35742 3474.28760
3503.0 0.0002855 3460.93091 3472.80151
3485.0 0.0002869 3458.52979 3471.47119
3482.0 0.0002872 3456.15186 3470.32007
3457.0 0.0002893 3453.79907 3469.38257
3494.0 0.0002862 3451.46997 3468.69995
3604.0 0.0002775 3449.16553 3468.32715
3414.0 0.0002929 3446.88452 3468.33594
3401.0 0.0002940 3444.62793 3468.82544
3588.0 0.0002787 3442.39453 3469.93896
3526.0 0.0002836 3440.18579 3471.90137
3607.0 0.0002772 3437.99976 3475.10205
3571.0 0.0002800 3435.83789 3480.24634
3484.0 0.0002870 3433.69873 3488.59644
3560.0 0.0002809 3431.58276 3502.22168
3520.0 0.0002841 3429.49023 3524.20776
3597.0 0.0002780 3427.42041 3558.72412
3694.0 0.0002707 3425.37427 3610.37817
3726.0 0.0002684 3423.35010 3683.26465
3792.0 0.0002637 3421.34937 3781.57910
3942.0 0.0002537 3419.37012 3904.32422
4089.0 0.0002446 3417.41431 4036.09668
4100.0 0.0002439 3415.47974 4152.80518
4128.0 0.0002422 3413.56812 4212.40234
4169.0 0.0002399 3411.67798 4173.10400
4086.0 0.0002447 3409.81030 4047.76050
3896.0 0.0002567 3407.96362 3902.40747
3856.0 0.0002593 3406.13940 3790.27173
3759.0 0.0002660 3404.33594 3729.20337
3759.0 0.0002660 3402.55444 3715.16992
3827.0 0.0002613 3400.79370 3737.17090
3851.0 0.0002597 3399.05420 3783.26294
3831.0 0.0002610 3397.33545 3834.06445
3788.0 0.0002640 3395.63721 3864.60962
3841.0 0.0002603 3393.96045 3854.67603
3665.0 0.0002729 3392.30371 3795.93677
3647.0 0.0002742 3390.66772 3708.13916
3682.0 0.0002716 3389.05127 3621.47974
3526.0 0.0002836 3387.45557 3551.76611
3612.0 0.0002769 3385.87915 3501.68896
3534.0 0.0002830 3384.32324 3468.16553
3488.0 0.0002867 3382.78613 3446.36865
3502.0 0.0002856 3381.26953 3434.12744
3427.0 0.0002918 3379.77124 3423.96240
3388.0 0.0002952 3378.29297 3416.16382
3484.0 0.0002870 3376.83301 3409.76514
3396.0 0.0002945 3375.39233 3404.35156
3437.0 0.0002910 3373.97021 3399.70654
3427.0 0.0002918 3372.56665 3395.67749
3409.0 0.0002933 3371.18140 3392.13696
3472.0 0.0002880 3369.81470 3388.98511
3415.0 0.0002928 3368.46582 3386.14014
3426.0 0.0002919 3367.13501 3383.54297
3360.0 0.0002976 3365.82202 3381.14966
3403.0 0.0002939 3364.52612 3378.92505
3377.0 0.0002961 3363.24829 3376.84570
3389.0 0.0002951 3361.98730 3374.89038
3423.0 0.0002921 3360.74365 3373.04492
3298.0 0.0003032 3359.51685 3371.29517
3387.0 0.0002952 3358.30713 3369.63159
3461.0 0.0002889 3357.11353 3368.04492
3427.0 0.0002918 3355.93677 3366.52856
3339.0 0.0002995 3354.77588 3365.07642
3488.0 0.0002867 3353.63159 3363.68457
3275.0 0.0003053 3352.50293 3362.34668
3388.0 0.0002952 3351.39038 3361.06128
3209.0 0.0003116 3350.29297 3359.82446
3318.0 0.0003014 3349.21143 3358.63403
3398.0 0.0002943 3348.14478 3357.48828
3386.0 0.0002953 3347.09351 3356.38550
3351.0 0.0002984 3346.05688 3355.32349
3393.0 0.0002947 3345.03491 3354.30225
3422.0 0.0002922 3344.02808 3353.32129
3321.0 0.0003011 3343.03540 3352.37939
3393.0 0.0002947 3342.05688 3351.47632
3250.0 0.0003077 3341.09253 3350.61230
3262.0 0.0003066 3340.14209 3349.78735
3391.0 0.0002949 3339.20483 3349.00146
3414.0 0.0002929 3338.28149 3348.25562
3238.0 0.0003088 3337.37158 3347.55176
3337.0 0.0002997 3336.47485 3346.88965
3390.0 0.0002950 3335.59082 3346.27075
3304.0 0.0003027 3334.72046 3345.69800
3392.0 0.0002948 3333.86182 3345.17188
3267.0 0.0003061 3333.01611 3344.69678
3376.0 0.0002962 3332.18237 3344.27344
3259.0 0.0003068 3331.36108 3343.90723
3375.0 0.0002963 3330.55127 3343.59961
3341.0 0.0002993 3329.75391 3341.34106
3295.0 0.0003035 3328.96753 3341.23462
3286.0 0.0003043 3328.19263 3341.20166
3262.0 0.0003066 3327.42920 3341.24902
3342.0 0.0002992 3326.67676 3341.38623
3324.0 0.0003008 3325.93530 3341.62256
3363.0 0.0002974 3325.20410 3341.97021
3382.0 0.0002957 3324.48389 3342.44385
3363.0 0.0002974 3323.77368 3343.06030
3351.0 0.0002984 3323.07373 3343.83887
3314.0 0.0003018 3322.38379 3344.80469
3326.0 0.0003007 3321.70386 3345.98657
3346.0 0.0002989 3321.03296 3347.41968
3280.0 0.0003049 3320.37207 3349.14795
3262.0 0.0003066 3319.72021 3351.22583
3342.0 0.0002992 3319.07739 3353.71973
3264.0 0.0003064 3318.44336 3356.71631
3332.0 0.0003001 3317.81812 3360.32251
3211.0 0.0003114 3317.20166 3364.68164
3390.0 0.0002950 3316.59326 3369.97510
3356.0 0.0002980 3315.99292 3377.06323
3361.0 0.0002975 3315.40063 3385.09351
3347.0 0.0002988 3314.81665 3395.13208
3310.0 0.0003021 3314.23999 3407.94409
3418.0 0.0002926 3313.67090 3424.82861
3367.0 0.0002970 3313.10889 3448.19507
3470.0 0.0002882 3312.55420 3482.40161
3405.0 0.0002937 3312.00610 3534.90283
3631.0 0.0002754 3311.46509 3617.16406
3726.0 0.0002684 3310.93042 3745.33765
4034.0 0.0002479 3310.40234 3938.61475
4154.0 0.0002407 3309.88062 4211.99854
4478.0 0.0002233 3309.36475 4568.56738
4912.0 0.0002036 3308.85474 5009.19775
5594.0 0.0001788 3308.35034 5495.00977
5903.0 0.0001694 3307.85132 5888.65039
6171.0 0.0001620 3307.35791 6027.42822
5908.0 0.0001693 3306.86963 5802.75488
5314.0 0.0001882 3306.38647 5284.13086
4624.0 0.0002163 3305.90771 4707.86621
4132.0 0.0002420 3305.43384 4234.54004
3974.0 0.0002516 3304.96484 3905.08032
3765.0 0.0002656 3304.49976 3699.62207
3705.0 0.0002699 3304.03857 3579.56641
3639.0 0.0002748 3303.58154 3509.63110
3516.0 0.0002844 3303.12866 3466.45972
3375.0 0.0002963 3302.67896 3437.35254
3429.0 0.0002916 3302.23291 3416.25122
3401.0 0.0002940 3301.79004 3400.28564
3342.0 0.0002992 3301.35010 3388.01855
3326.0 0.0003007 3300.91333 3378.65820
3468.0 0.0002884 3300.47925 3371.83008
3259.0 0.0003068 3300.04761 3367.49316
3501.0 0.0002856 3299.61865 3365.95532
3495.0 0.0002861 3299.19189 3367.87646
3315.0 0.0003017 3298.76733 3374.19849
3481.0 0.0002873 3298.34473 3385.97803
3351.0 0.0002984 3297.92358 3404.03076
3491.0 0.0002865 3297.50391 3430.33569
3443.0 0.0002904 3297.08594 3455.95288
3356.0 0.0002980 3296.66919 3478.59473
3582.0 0.0002792 3296.25366 3488.84814
3476.0 0.0002877 3295.83911 3479.48340
3401.0 0.0002940 3295.42529 3451.33618
3543.0 0.0002822 3295.01196 3416.29834
3313.0 0.0003018 3294.59912 3385.14038
3317.0 0.0003015 3294.18677 3361.79932
3373.0 0.0002965 3293.77417 3346.02441
3341.0 0.0002993 3293.36206 3335.99731
3311.0 0.0003020 3292.94946 3329.69482
3271.0 0.0003057 3292.53662 3325.57666
3295.0 0.0003035 3292.12329 3322.69116
3407.0 0.0002935 3291.70947 3320.53711
3276.0 0.0003053 3291.29468 3318.86230
3264.0 0.0003064 3290.87866 3317.54077
3359.0 0.0002977 3290.46191 3316.50220
3242.0 0.0003085 3290.04346 3315.70337
3281.0 0.0003048 3289.62427 3315.11938
3369.0 0.0002968 3289.20313 3315.35571
3253.0 0.0003074 3288.78027 3315.21143
3340.0 0.0002994 3288.35571 3315.27295
3281.0 0.0003048 3287.92896 3315.55396
3296.0 0.0003034 3287.50000 3316.08105
3363.0 0.0002974 3287.06909 3316.89258
3277.0 0.0003052 3286.63525 3318.04712
3266.0 0.0003062 3286.19922 3321.48901
3293.0 0.0003037 3285.76025 3323.76050
3267.0 0.0003061 3285.31860 3326.89160
3450.0 0.0002899 3284.87378 3331.34912
3354.0 0.0002982 3284.42578 3337.90015
3374.0 0.0002964 3283.97412 3347.72754
3390.0 0.0002950 3283.51953 3362.45093
3440.0 0.0002907 3283.06104 3384.03296
3455.0 0.0002894 3282.59912 3414.13770
3432.0 0.0002914 3282.13306 3452.75806
3553.0 0.0002815 3281.66284 3497.27759
3505.0 0.0002853 3281.18848 3543.61816
3563.0 0.0002807 3280.71021 3585.64429
3570.0 0.0002801 3280.22754 3610.33032
3553.0 0.0002815 3279.73999 3600.98804
3433.0 0.0002913 3279.24805 3559.04272
3457.0 0.0002893 3278.75098 3506.81128
3479.0 0.0002874 3278.24927 3462.97412
3416.0 0.0002927 3277.74219 3435.22876
3469.0 0.0002883 3277.22998 3425.33057
3534.0 0.0002830 3276.71240 3432.80127
3543.0 0.0002822 3276.18945 3456.69019
3448.0 0.0002900 3275.66089 3494.44360
3516.0 0.0002844 3275.12671 3539.16919
3425.0 0.0002920 3274.58667 3577.42603
3514.0 0.0002846 3274.04077 3591.04468
3511.0 0.0002848 3273.48828 3571.62695
3501.0 0.0002856 3272.92993 3536.76514
3553.0 0.0002815 3272.36523 3511.39771
3512.0 0.0002847 3271.79395 3508.24170
3660.0 0.0002732 3271.21631 3531.64111
3512.0 0.0002847 3270.63184 3583.69263
3790.0 0.0002639 3270.04077 3681.58618
3840.0 0.0002604 3269.44238 3845.55493
4159.0 0.0002404 3268.83740 4109.39941
4591.0 0.0002178 3268.22485 4511.49561
5121.0 0.0001953 3267.60547 5073.95020
5899.0 0.0001695 3266.97827 5798.39355
6579.0 0.0001520 3266.34399 6649.53564
7487.0 0.0001336 3265.70166 7430.33252
7763.0 0.0001288 3265.05200 7823.91211
7590.0 0.0001318 3264.39429 7587.23389
6727.0 0.0001487 3263.72876 6761.83838
5703.0 0.0001753 3263.05493 5756.67578
4909.0 0.0002037 3262.37354 4904.01221
4388.0 0.0002279 3261.68335 4307.21631
3954.0 0.0002529 3260.98511 3938.98706
3826.0 0.0002614 3260.27832 3726.37402
3600.0 0.0002778 3259.56274 3602.95947
3497.0 0.0002860 3258.83887 3526.31421
3570.0 0.0002801 3258.10620 3474.31079
3505.0 0.0002853 3257.36450 3436.52246
3467.0 0.0002884 3256.61377 3407.77881
3386.0 0.0002953 3255.85425 3385.24390
3426.0 0.0002919 3255.08545 3367.14160
3434.0 0.0002912 3254.30737 3351.12231
3284.0 0.0003045 3253.52002 3338.83740
3295.0 0.0003035 3252.72314 3328.47363
3248.0 0.0003079 3251.91675 3319.61621
3361.0 0.0002975 3251.10107 3311.96655
3239.0 0.0003087 3250.27515 3305.28711
3419.0 0.0002925 3249.43994 3299.40332
3189.0 0.0003136 3248.59448 3294.17139
3376.0 0.0002962 3247.73950 3289.48315
3254.0 0.0003073 3246.87427 3285.24731
3366.0 0.0002971 3245.99854 3281.39355
3427.0 0.0002918 3245.11279 3277.86304
3217.0 0.0003108 3244.21655 3274.60669
3270.0 0.0003058 3243.31055 3271.58789
3255.0 0.0003072 3242.39355 3268.77002
3315.0 0.0003017 3241.46631 3266.12793
3335.0 0.0002999 3240.52808 3263.63623
3270.0 0.0003058 3239.57959 3261.27734
3264.0 0.0003064 3238.61963 3259.03149
3212.0 0.0003113 3237.64966 3257.34668
3178.0 0.0003147 3236.66797 3255.30640
3111.0 0.0003214 3235.67578 3253.34473
3194.0 0.0003131 3234.67236 3251.52051
3294.0 0.0003036 3233.65796 3249.69141
3317.0 0.0003015 3232.63208 3247.91504
3300.0 0.0003030 3231.59497 3246.18652
3231.0 0.0003095 3230.54639 3244.50024
3212.0 0.0003113 3229.48657 3242.85181
3195.0 0.0003130 3228.41504 3241.23584
3236.0 0.0003090 3227.33228 3239.65015
3220.0 0.0003106 3226.23779 3238.09033
3326.0 0.0003007 3225.13086 3236.55322
3189.0 0.0003136 3224.01294 3235.03857
3143.0 0.0003182 3222.88306 3233.63354
3165.0 0.0003160 3221.74121 3232.43726
3212.0 0.0003113 3220.58740 3230.99731
3302.0 0.0003028 3219.42188 3229.57373
3191.0 0.0003134 3218.24390 3228.16577
3272.0 0.0003056 3217.05396 3226.77368
3155.0 0.0003170 3215.85181 3225.39575
3200.0 0.0003125 3214.63745 3224.03418
3320.0 0.0003012 3213.41089 3222.68823
3175.0 0.0003150 3212.17212 3221.35962
3169.0 0.0003156 3210.92041 3220.04858
3187.0 0.0003138 3209.65674 3218.75854
3250.0 0.0003077 3208.38037 3217.49194
3256.0 0.0003071 3207.09155 3216.25293
3161.0 0.0003164 3205.79004 3215.04663
3224.0 0.0003102 3204.47607 3213.87866
3129.0 0.0003196 3203.14917 3212.75903
3174.0 0.0003151 3201.80933 3211.69824
3152.0 0.0003173 3200.45703 3205.57080
3163.0 0.0003162 3199.09180 3204.83838
3157.0 0.0003168 3197.71411 3204.23682
3122.0 0.0003203 3196.32275 3203.82764
3159.0 0.0003166 3194.91919 3203.71606
3209.0 0.0003116 3193.50195 3204.07739
3240.0 0.0003086 3192.07251 3205.18530
3186.0 0.0003139 3190.62915 3207.43750
3422.0 0.0002922 3189.17334 3211.32959
3232.0 0.0003094 3187.70361 3217.31299
3143.0 0.0003182 3186.22168 3225.56274
3199.0 0.0003126 3184.72559 3235.63892
3180.0 0.0003145 3183.21729 3246.13452
3215.0 0.0003110 3181.69458 3254.93359
3143.0 0.0003182 3180.15942 3259.38818
3297.0 0.0003033 3178.61035 3259.25854
3243.0 0.0003084 3177.04858 3258.92969
3161.0 0.0003164 3175.47314 3263.60156
3310.0 0.0003021 3173.88354 3275.61670
3226.0 0.0003100 3172.28125 3293.81909
3244.0 0.0003083 3170.66528 3315.19189
3444.0 0.0002904 3169.03613 3336.36108
3287.0 0.0003042 3167.39282 3350.56763
3286.0 0.0003043 3165.73657 3348.07056
3336.0 0.0002998 3164.06616 3327.10132
3306.0 0.0003025 3162.38281 3295.71289
3316.0 0.0003016 3160.68530 3261.99780
3221.0 0.0003105 3158.97437 3231.84741
3278.0 0.0003051 3157.24951 3208.30298
3190.0 0.0003135 3155.51172 3191.45776
3209.0 0.0003116 3153.75928 3179.89648
3211.0 0.0003114 3151.99390 3171.91797
3065.0 0.0003263 3150.21436 3166.11060
3264.0 0.0003064 3148.42139 3161.55176
3171.0 0.0003154 3146.61426 3157.71582
3148.0 0.0003177 3144.79395 3154.33081
3234.0 0.0003092 3142.95947 3151.24829
3145.0 0.0003180 3141.11084 3148.38379
3088.0 0.0003238 3139.24927 3145.68335
3028.0 0.0003303 3137.37305 3143.13647
3122.0 0.0003203 3135.48389 3140.65649
3116.0 0.0003209 3133.58008 3138.24951
3081.0 0.0003246 3131.66333 3135.90112
3054.0 0.0003274 3129.73169 3133.59595
3065.0 0.0003263 3127.78735 3131.32666
3131.0 0.0003194 3125.82837 3129.08325
3128.0 0.0003197 3123.85596 3126.86060
3143.0 0.0003182 3121.86963 3124.65283
3075.0 0.0003252 3119.86963 3122.45679
3221.0 0.0003105 3117.85547 3120.26685
3002.0 0.0003331 3115.82764 3118.08276
3112.0 0.0003213 3113.78589 3115.90015
3079.0 0.0003248 3111.73047 3113.71851
3171.0 0.0003154 3109.66113 3111.53540
3171.0 0.0003154 3107.57813 3109.34985
3041.0 0.0003288 3105.48120 3107.16016
3220.0 0.0003106 3103.36987 3104.96509
3071.0 0.0003256 3101.24561 3102.76465
3047.0 0.0003282 3099.10693 3100.55835
3070.0 0.0003257 3096.95508 3098.34521
3064.0 0.0003264 3094.78882 3096.12427
3146.0 0.0003179 3092.60938 3093.89648
3038.0 0.0003292 3090.41577 3091.66089
3126.0 0.0003199 3088.20898 3089.41846
3175.0 0.0003150 3085.98755 3087.16675
3140.0 0.0003185 3083.75342 3084.90942
2985.0 0.0003350 3081.50488 3082.64502
2963.0 0.0003375 3079.24316 3080.37500
2963.0 0.0003375 3076.96729 3078.10034
3035.0 0.0003295 3074.67822 3075.82446
3078.0 0.0003249 3072.37500 3073.55078
2984.0 0.0003351 3070.05884 3071.28564
3072.0 0.0003255 3067.72827 3069.04028
3115.0 0.0003210 3065.38525 3066.83472
3010.0 0.0003322 3063.02759 3064.69263
3066.0 0.0003262 3060.65649 3062.01465
3026.0 0.0003305 3058.27246 3060.13574
3078.0 0.0003249 3055.87476 3058.42334
3036.0 0.0003294 3053.46362 3056.86157
3032.0 0.0003298 3051.03906 3055.36401
2975.0 0.0003361 3048.60132 3053.81177
3020.0 0.0003311 3046.14966 3052.05884
3016.0 0.0003316 3043.68530 3049.82056
2940.0 0.0003401 3041.20703 3046.85938
3066.0 0.0003262 3038.71582 3043.36743
2954.0 0.0003385 3036.21143 3039.75293
3071.0 0.0003256 3033.69385 3036.27344
3066.0 0.0003262 3031.16284 3033.00586
2990.0 0.0003344 3028.61914 3029.94043
3104.0 0.0003222 3026.06152 3027.03125
3054.0 0.0003274 3023.49194 3024.22974
3070.0 0.0003257 3020.90796 3021.49121
3021.0 0.0003310 3018.31226 3018.78882
2982.0 0.0003353 3015.70264 3016.10156
3042.0 0.0003287 3013.07983 3013.41968
2971.0 0.0003366 3010.44507 3010.73828
3033.0 0.0003297 3007.79688 3008.05249
2991.0 0.0003343 3005.13647 3005.36133
2924.0 0.0003420 3002.46240 3002.66162
2907.0 0.0003440 2999.77661 2999.95435
3003.0 0.0003330 2997.07739 2997.23682
2947.0 0.0003393 2994.36621 2994.51001
2989.0 0.0003346 2991.64160 2991.77197
2996.0 0.0003338 2988.90527 2989.78296
2975.0 0.0003361 2986.15552 2987.04614
2943.0 0.0003398 2983.39429 2984.30005
2989.0 0.0003346 2980.61963 2981.54272
2932.0 0.0003411 2977.83350 2978.77588
3061.0 0.0003267 2975.03418 2975.99805
2916.0 0.0003429 2972.22388 2973.21118
2985.0 0.0003350 2969.39990 2970.41284
2967.0 0.0003370 2966.56494 2967.60547
2893.0 0.0003457 2963.71704 2964.78735
2956.0 0.0003383 2960.85718 2961.95923
2982.0 0.0003353 2957.98584 2959.12183
3008.0 0.0003324 2955.10181 2956.27417
2851.0 0.000351 2952.20703 2953.41821
2933.0 0.0003409 2949.29932 2950.55176
2982.0 0.0003353 2946.38062 2947.67749
2961.0 0.0003377 2943.44922 2944.79297
2924.0 0.0003420 2940.50732 2941.90112
2903.0 0.0003445 2937.55249 2939.00000
2842.0 0.000352 2934.58740 2936.09204
2917.0 0.0003428 2931.60986 2933.14307
2936.0 0.0003406 2928.62183 2930.22192
2867.0 0.0003488 2925.62134 2927.29248
2970.0 0.0003367 2922.61060 2924.35767
2877.0 0.0003476 2919.58765 2921.41602
2820.0 0.000355 2916.55444 2918.46997
2822.0 0.000354 2913.50928 2915.51831
2831.0 0.000353 2910.45386 2912.56323
2884.0 0.0003467 2907.38672 2909.60425
2910.0 0.0003436 2904.30835 2906.64258
2886.0 0.0003465 2901.22046 2903.68091
2823.0 0.000354 2898.12061 2900.71777
2918.0 0.0003427 2895.01099 2897.84912
2882.0 0.0003470 2891.88989 2895.40649
2876.0 0.0003477 2888.75903 2892.48047
2839.0 0.000352 2885.61694 2889.56226
2732.0 0.000366 2882.46533 2886.65527
2906.0 0.0003441 2879.30225 2883.76050
2966.0 0.0003372 2876.12988 2882.95313
2837.0 0.000352 2872.94629 2880.23706
2912.0 0.0003434 2869.75391 2877.56201
2937.0 0.0003405 2866.55029 2874.93384
2804.0 0.000357 2863.33716 2872.36133
2798.0 0.000357 2860.11401 2869.85645
2846.0 0.000351 2856.88135 2867.43091
2854.0 0.0003504 2853.63843 2867.36157
2759.0 0.000362 2850.38623 2865.29932
2867.0 0.0003488 2847.12427 2863.39185
2867.0 0.0003488 2843.85205 2861.67017
2770.0 0.000361 2840.57202 2860.17603
2963.0 0.0003375 2837.28125 2858.95874
2876.0 0.0003477 2833.98218 2858.08521
2857.0 0.0003500 2830.67285 2857.64087
2793.0 0.000358 2827.35547 2857.74072
2889.0 0.0003461 2824.02808 2858.54321
2824.0 0.000354 2820.69312 2860.27637
2781.0 0.000360 2817.34766 2863.29321
2924.0 0.0003420 2813.99487 2868.19531
2865.0 0.0003490 2810.63232 2876.07959
2865.0 0.0003490 2807.26196 2888.95581
2914.0 0.0003432 2803.88232 2910.36377
2967.0 0.0003370 2800.49536 2945.96460
2961.0 0.0003377 2797.09863 3003.78638
3044.0 0.0003285 2793.69507 3092.56470
3180.0 0.0003145 2790.28223 3216.75488
3330.0 0.0003003 2786.86230 3371.20605
3740.0 0.0002674 2783.43335 3536.86011
3741.0 0.0002673 2779.99658 3666.06348
3695.0 0.0002706 2776.55298 3698.84277
3723.0 0.0002686 2773.10107 3613.45410
3578.0 0.0002795 2769.64185 3465.50488
3291.0 0.0003039 2766.17456 3334.06445
3223.0 0.0003103 2762.70068 3258.11646
3221.0 0.0003105 2759.21851 3239.36060
3359.0 0.0002977 2755.72974 3255.73169
3332.0 0.0003001 2752.23315 3266.77466
3376.0 0.0002962 2748.73120 3234.98755
3297.0 0.0003033 2745.22046 3153.78687
3075.0 0.0003252 2741.70361 3053.95923
3048.0 0.0003281 2738.17944 2966.07520
2967.0 0.0003370 2734.65015 2901.51660
2859.0 0.0003498 2731.11279 2859.16455
2749.0 0.000364 2727.56958 2833.24316
2768.0 0.000361 2724.01953 2817.58643
2755.0 0.000363 2720.46460 2807.46289
2802.0 0.000357 2716.90161 2799.54932
2885.0 0.0003466 2713.33301 2790.51123
2697.0 0.000371 2709.75928 2777.97607
2752.0 0.000363 2706.17920 2763.19775
2737.0 0.000365 2702.59399 2748.88062
2730.0 0.000366 2699.00195 2736.43164
2779.0 0.000360 2695.40527 2726.09204
2721.0 0.000368 2691.80322 2717.55859
2719.0 0.000368 2688.19556 2710.37085
2746.0 0.000364 2684.58228 2704.09180
2578.0 0.000388 2680.96509 2698.40405
2676.0 0.000374 2677.34155 2693.10010
2717.0 0.000368 2673.71387 2688.06445
2636.0 0.000379 2670.08057 2683.22510
2684.0 0.000373 2666.44385 2678.54126
2640.0 0.000379 2662.80127 2673.98047
2590.0 0.000386 2659.15503 2669.52319
2636.0 0.000379 2655.50342 2665.15015
2613.0 0.000383 2651.84912 2660.85059
2760.0 0.000362 2648.18921 2656.61108
2588.0 0.000386 2644.52490 2652.42358
2645.0 0.000378 2640.85791 2648.28174
2637.0 0.000379 2637.18628 2644.17896
2539.0 0.000394 2633.51221 2640.11084
2578.0 0.000388 2629.83301 2636.07104
2667.0 0.000375 2626.15112 2632.05859
2642.0 0.000379 2622.46509 2628.06738
2708.0 0.000369 2618.77734 2624.09839
2605.0 0.000384 2615.08472 2620.14526
2563.0 0.000390 2611.38989 2616.20972
2611.0 0.000383 2607.69141 2612.28662
2596.0 0.000385 2603.99170 2608.37817
2663.0 0.000376 2600.28760 2604.47998
2495.0 0.000401 2596.58154 2600.59229
2547.0 0.000393 2592.87231 2596.71289
2630.0 0.000380 2589.16235 2592.84351
2515.0 0.000398 2585.44849 2588.98047
2562.0 0.000390 2581.73315 2585.12500
2625.0 0.000381 2578.01587 2581.27539
2530.0 0.000395 2574.29590 2577.43091
2522.0 0.000397 2570.57495 2573.59277
2479.0 0.000403 2566.85132 2569.75806
2601.0 0.000384 2563.12769 2565.92944
2593.0 0.000386 2559.40137 2562.10425
2453.0 0.000408 2555.67407 2558.28296
2442.0 0.000410 2551.94482 2554.46484
2625.0 0.000381 2548.21631 2550.65137
2595.0 0.000385 2544.48486 2546.83960
2536.0 0.000394 2540.75342 2542.23047
2596.0 0.000385 2537.02051 2538.44873
2567.0 0.000390 2533.28857 2534.67017
2448.0 0.000408 2529.55444 2530.89185
2538.0 0.000394 2525.82056 2527.11597
2617.0 0.000382 2522.08569 2522.08569
2494.0 0.000401 2518.35229 2518.35229
2511.0 0.000398 2514.61719 2514.73364
2449.0 0.000408 2510.88281 2511.00732
2496.0 0.000401 2507.14771 2507.28101
2494.0 0.000401 2503.41309 2503.55591
2448.0 0.000408 2499.68042 2499.83398
2446.0 0.000409 2495.94653 2496.11230
2509.0 0.000399 2492.21436 2492.39355
2461.0 0.000406 2488.48193 2488.67651
2547.0 0.000393 2484.75195 2484.96387
2483.0 0.000403 2481.02148 2481.25293
2434.0 0.000411 2477.29297 2477.54712
2557.0 0.000391 2473.56543 2473.84546
2493.0 0.000401 2469.83936 2470.14966
2460.0 0.000407 2466.11377 2466.66284
2479.0 0.000403 2462.39087 2462.98926
2422.0 0.000413 2458.66943 2459.32617
2468.0 0.000405 2454.94995 2455.67505
2416.0 0.000414 2451.23169 2452.03882
2365.0 0.000423 2447.51587 2448.42310
2303.0 0.000434 2443.80273 2444.83447
2442.0 0.000410 2440.09058 2441.28247
2385.0 0.000419 2436.38208 2437.78931
2352.0 0.000425 2432.67480 2434.39063
2379.0 0.000420 2428.97217 2431.15674
2435.0 0.000411 2425.27051 2428.19189
2404.0 0.000416 2421.57251 2425.65015
2318.0 0.000431 2417.87695 2423.70264
2304.0 0.000434 2414.18579 2422.45752
2438.0 0.000410 2410.49609 2421.78198
2340.0 0.000427 2406.81079 2421.22461
2421.0 0.000413 2403.12817 2421.70264
2372.0 0.000422 2399.45068 2419.38550
2354.0 0.000425 2395.77539 2414.58789
2362.0 0.000423 2392.10449 2407.81274
2550.0 0.000392 2388.43677 2400.65234
2321.0 0.000431 2384.77466 2394.10742
2461.0 0.000406 2381.11523 2388.44580
2358.0 0.000424 2377.46069 2383.58545
2393.0 0.000418 2373.81055 2379.31714
2359.0 0.000424 2370.16406 2375.43628
2283.0 0.000438 2366.52319 2371.79956
2391.0 0.000418 2362.88599 2368.32300
2350.0 0.000426 2359.25464 2364.97314
2330.0 0.000429 2355.62817 2361.73755
2324.0 0.000430 2352.00684 2358.62085
2290.0 0.000437 2348.38965 2355.63452
2260.0 0.000442 2344.77856 2352.83203
2357.0 0.000424 2341.17310 2350.18921
2392.0 0.000418 2337.57324 2347.78223
2459.0 0.000407 2333.97778 2345.68750
2483.0 0.000403 2330.39014 2344.02954
2286.0 0.000437 2326.80640 2343.01685
2349.0 0.000426 2323.22949 2343.01172
2326.0 0.000430 2319.65796 2344.61670
2290.0 0.000437 2316.09424 2348.75757
2355.0 0.000425 2312.53491 2356.71191
2341.0 0.000427 2308.98315 2369.95605
2447.0 0.000409 2305.43774 2389.63892
2420.0 0.000413 2301.89722 2415.40356
2483.0 0.000403 2298.36597 2444.23608
2494.0 0.000401 2294.83984 2471.35986
2459.0 0.000407 2291.32153 2490.00342
2484.0 0.000403 2287.80981 2490.80908
2509.0 0.000399 2284.30640 2472.12207
2511.0 0.000398 2280.80884 2444.36914
2448.0 0.000408 2277.31934 2416.10181
2351.0 0.000425 2273.83643 2388.82739
2303.0 0.000434 2270.36304 2362.28687
2288.0 0.000437 2266.89551 2337.97168
2353.0 0.000425 2263.43652 2317.45898
2388.0 0.000419 2259.98462 2300.97168
2296.0 0.000436 2256.54248 2287.93115
2263.0 0.000442 2253.10669 2277.55811
2222.0 0.000450 2249.68018 2269.15894
2164.0 0.000462 2246.26074 2262.15820
2248.0 0.000445 2242.85156 2256.14697
2315.0 0.000432 2239.45020 2250.77295
2245.0 0.000445 2236.05566 2245.84741
2193.0 0.000456 2232.67212 2241.24292
2304.0 0.000434 2229.29614 2236.87134
2183.0 0.000458 2225.92944 2232.67847
2259.0 0.000443 2222.57104 2228.62695
2265.0 0.000442 2219.22339 2224.69141
2178.0 0.000459 2215.88330 2220.84912
2258.0 0.000443 2212.55347 2217.08740
2275.0 0.000440 2209.23193 2213.39160
2287.0 0.000437 2205.92163 2209.75586
2171.0 0.000461 2202.61938 2206.16968
2220.0 0.000450 2199.32739 2202.62842
2249.0 0.000445 2196.04468 2199.12744
2189.0 0.000457 2192.77295 2195.66357
2178.0 0.000459 2189.51001 2192.23169
2233.0 0.000448 2186.25757 2188.83179
2144.0 0.000466 2183.01440 2185.45996
2180.0 0.000459 2179.78320 2182.11841
2267.0 0.000441 2176.56079 2178.80298
2196.0 0.000455 2173.34863 2175.51636
2182.0 0.000458 2170.14746 2172.26123
2200.0 0.000455 2166.95654 2169.22754
2115.0 0.000473 2163.77759 2166.06714
2174.0 0.000460 2160.60791 2162.96509
2106.0 0.000475 2157.44946 2159.94092
2214.0 0.000452 2154.30151 2157.01025
2121.0 0.000471 2151.16577 2154.18555
2164.0 0.000462 2148.03955 2151.43652
2100.0 0.000476 2144.92554 2148.79614
2165.0 0.000462 2141.82251 2146.02124
2253.0 0.000444 2138.73096 2143.08032
2127.0 0.000470 2135.64966 2139.87402
2202.0 0.000454 2132.58081 2136.47144
2134.0 0.000469 2129.52344 2133.04175
2035.0 0.000491 2126.47778 2129.70093
2073.0 0.000482 2123.44287 2126.48804
2125.0 0.000471 2120.42041 2123.40796
2140.0 0.000467 2117.40991 2120.44946
2079.0 0.000481 2114.41040 2117.60156
2051.0 0.000488 2111.42358 2114.86597
2053.0 0.000487 2108.44824 2112.33105
2004.0 0.000499 2105.48633 2110.39795
2119.0 0.000472 2102.53540 2107.61450
2114.0 0.000473 2099.59717 2105.88379
2060.0 0.000485 2096.67041 2104.76196
2127.0 0.000470 2093.75781 2104.54004
2133.0 0.000469 2090.85596 2105.56494
2163.0 0.000462 2087.96729 2107.94727
2110.0 0.000474 2085.09058 2111.51807
2157.0 0.000464 2082.22778 2115.50854
2129.0 0.000470 2079.37646 2118.69336
2063.0 0.000485 2076.53833 2119.04785
2032.0 0.000492 2073.71240 2114.63208
2065.0 0.000484 2070.90088 2106.30713
2152.0 0.000465 2068.10083 2096.51733
2104.0 0.000475 2065.31421 2087.36304
2098.0 0.000477 2062.54077 2079.65454
2060.0 0.000485 2059.78003 2073.46729
2068.0 0.000484 2057.03271 2068.57007
2179.0 0.000459 2054.29810 2064.66309
2034.0 0.000492 2051.57739 2061.52222
2085.0 0.000480 2048.86987 2059.03784
2079.0 0.000481 2046.17566 2057.25635
2073.0 0.000482 2043.49426 2056.43164
2105.0 0.000475 2040.82715 2057.11816
2053.0 0.000487 2038.17334 2060.25659
2128.0 0.000470 2035.53296 2067.10571
2104.0 0.000475 2032.90576 2078.83032
2054.0 0.000487 2030.29309 2095.76465
2077.0 0.000481 2027.69324 2116.22437
2199.0 0.000455 2025.10742 2135.14014
2055.0 0.000487 2022.53479 2145.76001
2121.0 0.000471 2019.97729 2142.63501
2149.0 0.000465 2017.43225 2124.73242
2114.0 0.000473 2014.90173 2097.40479
2008.0 0.000498 2012.38501 2070.12671
2107.0 0.000475 2009.88123 2048.52271
2047.0 0.000489 2007.39307 2033.39429
2101.0 0.000476 2004.91785 2023.26929
2085.0 0.000480 2002.45703 2016.25391
1998.0 0.000501 2000.00989 2010.92468
2005.0 0.000499 1997.57776 2006.51672
2005.0 0.000499 1995.15881 2002.96741
2010.0 0.000498 1992.75452 1999.53015
1944.0 0.000514 1990.36389 1996.37598
1960.0 0.000510 1987.98840 1993.44324
1994.0 0.000502 1985.62622 1990.68469
2029.0 0.000493 1983.27856 1988.07385
2011.0 0.000497 1980.94482 1985.59460
1979.0 0.000505 1978.62646 1983.24658
2057.0 0.000486 1976.32141 1981.04065
1994.0 0.000502 1974.03113 1981.17200
1951.0 0.000513 1971.75452 1979.51062
1982.0 0.000505 1969.49341 1978.15417
1986.0 0.000504 1967.24634 1977.17419
1988.0 0.000503 1965.01245 1976.63147
1996.0 0.000501 1962.79456 1976.54480
1962.0 0.000510 1960.58997 1976.82996
1981.0 0.000505 1958.40051 1977.27295
1939.0 0.000516 1956.22473 1977.77832
1965.0 0.000509 1954.06458 1979.08875
2004.0 0.000499 1951.91785 1983.04602
1908.0 0.000524 1949.78613 1991.65051
1961.0 0.000510 1947.66833 2004.59021
2029.0 0.000493 1945.56580 2018.56702
1997.0 0.000501 1943.47705 2026.35986
2038.0 0.000491 1941.40320 2020.75476
2029.0 0.000493 1939.34326 2003.31665
1932.0 0.000518 1937.29883 1984.06677
2022.0 0.000495 1935.26794 1969.94531
2008.0 0.000498 1933.25183 1962.37598
1940.0 0.000515 1931.24988 1960.00439
1934.0 0.000517 1929.26318 1961.30103
1933.0 0.000517 1927.29016 1965.75916
1889.0 0.000529 1925.33167 1973.91589
2102.0 0.000476 1923.38794 1986.91150
1946.0 0.000514 1921.45825 2005.93408
2135.0 0.000468 1919.54382 2031.20129
2105.0 0.000475 1917.64307 2060.67725
2086.0 0.000479 1915.75708 2089.68018
2295.0 0.000436 1913.88501 2110.32886
2134.0 0.000469 1912.02820 2112.15137
2170.0 0.000461 1910.18481 2092.92822
2133.0 0.000469 1908.35632 2061.72729
2011.0 0.000497 1906.54211 2028.67981
1981.0 0.000505 1904.74207 1999.76575
1925.0 0.000519 1902.95618 1977.03625
1928.0 0.000519 1901.18481 1960.48511
1967.0 0.000508 1899.42761 1949.55225
1961.0 0.000510 1897.68481 1943.88757
1862.0 0.000537 1895.95581 1943.20728
1879.0 0.000532 1894.24121 1946.52246
1861.0 0.000537 1892.54089 1951.60706
1940.0 0.000515 1890.85425 1954.73743
1918.0 0.000521 1889.18201 1950.91858
1940.0 0.000515 1887.52368 1939.18958
1966.0 0.000509 1885.87988 1924.32947
1925.0 0.000519 1884.24951 1911.16260
1863.0 0.000537 1882.63342 1901.40479
1888.0 0.000530 1881.03088 1894.75574
1998.0 0.000501 1879.44287 1890.21240
1843.0 0.000543 1877.86829 1886.84351
1896.0 0.000527 1876.30762 1884.07361
1885.0 0.000531 1874.76050 1881.62073
1896.0 0.000527 1873.22778 1879.36304
1863.0 0.000537 1871.70813 1877.24231
1840.0 0.000543 1870.20239 1875.22888
1879.0 0.000532 1868.70996 1873.30188
1868.0 0.000535 1867.23181 1871.44739
1900.0 0.000526 1865.76660 1869.65356
1916.0 0.000522 1864.31519 1867.91284
1859.0 0.000538 1862.87695 1866.21802
1816.0 0.000551 1861.45227 1864.52637
1857.0 0.000539 1860.04114 1862.91162
1903.0 0.000525 1858.64294 1861.33032
1768.0 0.000566 1857.25806 1859.77991
1849.0 0.000541 1855.88660 1858.25818
1831.0 0.000546 1854.52832 1856.76306
1983.0 0.000504 1853.18286 1855.29272
1861.0 0.000537 1851.85059 1853.84558
1854.0 0.000539 1850.53149 1852.42126
1861.0 0.000537 1849.22522 1851.01819
1812.0 0.000552 1847.93152 1849.63477
1788.0 0.000559 1846.65137 1848.27161
1797.0 0.000556 1845.38318 1846.92639
1825.0 0.000548 1844.12817 1845.60022
1761.0 0.000568 1842.88525 1844.29065
1791.0 0.000558 1841.65576 1842.99902
1857.0 0.000539 1840.43811 1841.72339
1811.0 0.000552 1839.23315 1840.46411
1800.0 0.000556 1838.04041 1839.22058
1843.0 0.000543 1836.85999 1837.99243
1794.0 0.000557 1835.69226 1836.77979
1809.0 0.000553 1834.53638 1835.58154
1791.0 0.000558 1833.39270 1834.62207
1844.0 0.000542 1832.26086 1833.46350
1824.0 0.000548 1831.14160 1832.32056
1879.0 0.000532 1830.03369 1831.19177
1795.0 0.000557 1828.93787 1830.07776
1766.0 0.000566 1827.85364 1828.97815
1870.0 0.000535 1826.78162 1827.89368
1813.0 0.000552 1825.72070 1826.84460
1838.0 0.000544 1824.67163 1828.11450
1766.0 0.000566 1823.63379 1827.23145
1799.0 0.000556 1822.60779 1826.37976
1813.0 0.000552 1821.59265 1825.56091
1768.0 0.000566 1820.58911 1824.11462
1799.0 0.000556 1819.59656 1823.39258
1753.0 0.000570 1818.61536 1822.71411
1848.0 0.000541 1817.64478 1822.08374
1794.0 0.000557 1816.68518 1821.50793
1749.0 0.000572 1815.73694 1820.99487
1929.0 0.000518 1814.79907 1820.55334
1798.0 0.000556 1813.87195 1820.19531
1757.0 0.000569 1812.95544 1819.93555
1867.0 0.000536 1812.04968 1819.79260
1771.0 0.000565 1811.15405 1819.79028
1722.0 0.000581 1810.26892 1819.95972
1799.0 0.000556 1809.39404 1820.34375
1756.0 0.000569 1808.52966 1821.00183
1736.0 0.000576 1807.67505 1822.02100
1791.0 0.000558 1806.83044 1823.53394
1793.0 0.000558 1805.99585 1825.74768
1787.0 0.000560 1805.17139 1828.97485
1791.0 0.000558 1804.35620 1833.67908
1786.0 0.000560 1803.55090 1840.49438
1790.0 0.000559 1802.75513 1850.23633
1867.0 0.000536 1801.96912 1863.83179
1859.0 0.000538 1801.19214 1882.19434
1922.0 0.000520 1800.42444 1905.83215
2011.0 0.000497 1799.66602 1934.00317
2020.0 0.000495 1798.91687 1963.31250
2057.0 0.000486 1798.17688 1986.80920
2156.0 0.000464 1797.44556 1997.34656
2162.0 0.000463 1796.72314 1993.96716
2015.0 0.000496 1796.00928 1981.69397
2076.0 0.000482 1795.30444 1964.70483
1966.0 0.000509 1794.60791 1942.09399
1900.0 0.000526 1793.91992 1913.20496
1855.0 0.000539 1793.24036 1883.62830
1860.0 0.000538 1792.56897 1858.59009
1832.0 0.000546 1791.90564 1839.82947
1807.0 0.000553 1791.25061 1826.74414
1791.0 0.000558 1790.60339 1817.89417
1794.0 0.000557 1789.96411 1811.83374
1707.0 0.000586 1789.33252 1807.46619
1821.0 0.000549 1788.70862 1804.11255
1828.0 0.000547 1788.09253 1801.39355
1865.0 0.000536 1787.48364 1799.10522
1712.0 0.000584 1786.88208 1797.13171
1744.0 0.000573 1786.28796 1795.39856
1746.0 0.000573 1785.70105 1793.85559
1793.0 0.000558 1785.12109 1792.46472
1804.0 0.000554 1784.54822 1791.19849
1666.0 0.000600 1783.98206 1790.03491
1756.0 0.000569 1783.42285 1788.95715
1709.0 0.000585 1782.87012 1787.95203
1743.0 0.000574 1782.32397 1787.00879
1811.0 0.000552 1781.78442 1786.11853
1720.0 0.000581 1781.25134 1785.27466
1711.0 0.000584 1780.72424 1784.47070
1809.0 0.000553 1780.20337 1783.70239
1810.0 0.000552 1779.68860 1782.96570
1754.0 0.000570 1779.17981 1782.25684
1704.0 0.000587 1778.67676 1782.75085
1718.0 0.000582 1778.17957 1782.13489
1809.0 0.000553 1777.68774 1781.54175
1829.0 0.000547 1777.20166 1780.97083
1756.0 0.000569 1776.72107 1780.42004
1737.0 0.000576 1776.24561 1779.88843
1784.0 0.000561 1775.77551 1779.37488
1801.0 0.000555 1775.31055 1778.87927
1772.0 0.000564 1774.85046 1778.40027
1841.0 0.000543 1774.39526 1777.93762
1783.0 0.000561 1773.94495 1777.49109
1756.0 0.000569 1773.49951 1777.06067
1703.0 0.000587 1773.05835 1776.64587
1754.0 0.000570 1772.62170 1774.88831
1817.0 0.000550 1772.18982 1774.56531
1712.0 0.000584 1771.76172 1774.27820
1700.0 0.000588 1771.33801 1773.98145
1751.0 0.000571 1770.91833 1773.69861
1832.0 0.000546 1770.50281 1773.43115
1789.0 0.000559 1770.09082 1773.26941
1809.0 0.000553 1769.68274 1773.03906
1773.0 0.000564 1769.27832 1772.82800
1779.0 0.000562 1768.87732 1772.63806
1678.0 0.000596 1768.47986 1772.47119
1732.0 0.000577 1768.08569 1772.33020
1765.0 0.000567 1767.69482 1772.21802
1781.0 0.000561 1767.30701 1772.13770
1760.0 0.000568 1766.92249 1772.09387
1726.0 0.000579 1766.54053 1772.09070
1707.0 0.000586 1766.16150 1772.13452
1738.0 0.000575 1765.78516 1772.23230
1815.0 0.000551 1765.41162 1772.39258
1757.0 0.000569 1765.04041 1772.62561
1727.0 0.000579 1764.67163 1772.94409
1708.0 0.000585 1764.30505 1773.36414
1777.0 0.000563 1763.94104 1773.90564
1742.0 0.000574 1763.57874 1774.59338
1719.0 0.000582 1763.21863 1775.45972
1804.0 0.000554 1762.86023 1776.54700
1680.0 0.000595 1762.50378 1777.91101
1762.0 0.000568 1762.14905 1779.63269
1863.0 0.000537 1761.79578 1781.82727
1823.0 0.000549 1761.44409 1784.67139
1764.0 0.000567 1761.09375 1788.44275
1835.0 0.000545 1760.74475 1793.60681
1890.0 0.000529 1760.39685 1800.71021
1830.0 0.000546 1760.05029 1810.65503
1912.0 0.000523 1759.70447 1824.53430
1834.0 0.000545 1759.35974 1843.54004
1833.0 0.000546 1759.01563 1868.74780
1904.0 0.000525 1758.67236 1900.56372
1913.0 0.000523 1758.32947 1937.70337
1988.0 0.000503 1757.98743 1975.23083
2027.0 0.000493 1757.64551 2002.66223
2006.0 0.000499 1757.30408 2008.23157
2088.0 0.000479 1756.96277 1989.03162
1901.0 0.000526 1756.62170 1954.12000
1938.0 0.000516 1756.28040 1915.55042
1867.0 0.000536 1755.93945 1880.70154
1793.0 0.000558 1755.59802 1852.21521
1828.0 0.000547 1755.25623 1830.28015
1777.0 0.000563 1754.91455 1814.05115
1835.0 0.000545 1754.57202 1802.35718
1856.0 0.000539 1754.22925 1794.08081
1767.0 0.000566 1753.88562 1788.30615
1776.0 0.000563 1753.54138 1784.42407
1838.0 0.000544 1753.19641 1782.16907
1782.0 0.000561 1752.85059 1781.67273
1763.0 0.000567 1752.50354 1783.47388
1758.0 0.000569 1752.15564 1788.39209
1797.0 0.000556 1751.80664 1797.05383
1788.0 0.000559 1751.45630 1808.84753
1770.0 0.000565 1751.10449 1821.08801
1791.0 0.000558 1750.75146 1829.65845
1766.0 0.000566 1750.39697 1829.24390
1814.0 0.000551 1750.04077 1818.64111
1809.0 0.000553 1749.68298 1804.38965
1791.0 0.000558 1749.32324 1792.40088
1738.0 0.000575 1748.96191 1784.76331
1847.0 0.000541 1748.59851 1781.31702
1790.0 0.000559 1748.23315 1780.99939
1815.0 0.000551 1747.86572 1782.54907
1673.0 0.000598 1747.49609 1785.14392
1731.0 0.000578 1747.12415 1788.66479
1785.0 0.000560 1746.75012 1793.62695
1763.0 0.000567 1746.37354 1800.59888
1723.0 0.000580 1745.99451 1809.66199
1788.0 0.000559 1745.61292 1819.99585
1852.0 0.000540 1745.22876 1829.36316
1832.0 0.000546 1744.84167 1834.28723
1769.0 0.000565 1744.45203 1832.06616
1806.0 0.000554 1744.05945 1823.27393
1817.0 0.000550 1743.66394 1811.13123
1798.0 0.000556 1743.26538 1798.75330
1809.0 0.000553 1742.86389 1787.85449
1804.0 0.000554 1742.45911 1779.00964
1802.0 0.000555 1742.05103 1772.24536
1833.0 0.000546 1741.63977 1767.43286
1699.0 0.000589 1741.22522 1764.37573
1794.0 0.000557 1740.80713 1763.04688
1746.0 0.000573 1740.38562 1763.49683
1791.0 0.000558 1739.96057 1765.78308
1728.0 0.000579 1739.53186 1769.77222
1756.0 0.000569 1739.09937 1774.80554
1777.0 0.000563 1738.66321 1778.83069
1640.0 0.000610 1738.22314 1779.05945
1757.0 0.000569 1737.77942 1774.50366
1811.0 0.000552 1737.33167 1767.36755
1750.0 0.000571 1736.87964 1760.19507
1776.0 0.000563 1736.42395 1754.19800
1667.0 0.000600 1735.96375 1749.62549
1794.0 0.000557 1735.49963 1746.30750
1707.0 0.000586 1735.03101 1744.08533
1814.0 0.000551 1734.55847 1742.32983
1636.0 0.000611 1734.08130 1740.96118
1687.0 0.000593 1733.59961 1739.82629
1720.0 0.000581 1733.11365 1738.83850
1748.0 0.000572 1732.62305 1737.94800
1696.0 0.000590 1732.12805 1737.12891
1704.0 0.000587 1731.62817 1736.36230
1672.0 0.000598 1731.12366 1735.63867
1740.0 0.000575 1730.61462 1734.96179
1732.0 0.000577 1730.10071 1734.30176
1759.0 0.000569 1729.58191 1733.74133
1723.0 0.000580 1729.05823 1733.13220
1766.0 0.000566 1728.52954 1732.54248
1812.0 0.000552 1727.99609 1731.97083
1721.0 0.000581 1727.45752 1731.41663
1730.0 0.000578 1726.91394 1730.87976
1719.0 0.000582 1726.36499 1730.36035
1757.0 0.000569 1725.81128 1729.86047
1752.0 0.000571 1725.25220 1729.38098
1767.0 0.000566 1724.68774 1728.92444
1667.0 0.000600 1724.11829 1728.49463
1663.0 0.000601 1723.54333 1728.09619
1685.0 0.000593 1722.96313 1727.73499
1763.0 0.000567 1722.37732 1727.41968
1677.0 0.000596 1721.78638 1727.16516
1631.0 0.000613 1721.18994 1726.98120
1689.0 0.000592 1720.58765 1726.89453
1716.0 0.000583 1719.98022 1726.94214
1787.0 0.000560 1719.36719 1727.68481
1764.0 0.000567 1718.74854 1728.21094
1728.0 0.000579 1718.12402 1729.10095
1753.0 0.000570 1717.49377 1730.48633
1673.0 0.000598 1716.85828 1732.52063
1731.0 0.000578 1716.21692 1735.37744
1727.0 0.000579 1715.56982 1739.21155
1726.0 0.000579 1714.91650 1744.10608
1783.0 0.000561 1714.25818 1749.91992
1681.0 0.000595 1713.59351 1755.91406
1712.0 0.000584 1712.92322 1760.67395
1762.0 0.000568 1712.24670 1762.46667
1712.0 0.000584 1711.56494 1760.38513
1790.0 0.000559 1710.87671 1755.01648
1665.0 0.000601 1710.18274 1748.05005
1801.0 0.000555 1709.48242 1741.17957
1725.0 0.000580 1708.77686 1735.34888
1749.0 0.000572 1708.06482 1730.82239
1780.0 0.000562 1707.34692 1727.54236
1724.0 0.000580 1706.62268 1725.35242
1788.0 0.000559 1705.89307 1725.47229
1665.0 0.000601 1705.15686 1725.46094
1772.0 0.000564 1704.41455 1726.68811
1758.0 0.000569 1703.66638 1729.57373
1650.0 0.000606 1702.91187 1734.72388
1792.0 0.000558 1702.15173 1742.73792
1725.0 0.000580 1701.38513 1753.88708
1794.0 0.000557 1700.61243 1767.43884
1816.0 0.000551 1699.83325 1780.65588
1811.0 0.000552 1699.04871 1789.06726
1863.0 0.000537 1698.25757 1791.27112
1879.0 0.000532 1697.46033 1791.03088
1805.0 0.000554 1696.65649 1791.51343
1832.0 0.000546 1695.84741 1793.59778
1848.0 0.000541 1695.03149 1794.49438
1897.0 0.000527 1694.20984 1789.59290
1699.0 0.000589 1693.38098 1778.12915
1862.0 0.000537 1692.54712 1763.68115
1694.0 0.000590 1691.70654 1749.61890
1661.0 0.000602 1690.86011 1737.76294
1768.0 0.000566 1690.00732 1728.72937
1644.0 0.000608 1689.14783 1722.38013
1726.0 0.000579 1688.28284 1718.29761
1777.0 0.000563 1687.41150 1716.08398
1836.0 0.000545 1686.53418 1715.50659
1762.0 0.000568 1685.65015 1716.61401
1743.0 0.000574 1684.76062 1719.13611
1757.0 0.000569 1683.86438 1723.18591
1733.0 0.000577 1682.96265 1728.60168
1782.0 0.000561 1682.05408 1734.84045
1744.0 0.000573 1681.13989 1740.68396
1720.0 0.000581 1680.21924 1744.30249
1775.0 0.000563 1679.29297 1744.01599
1728.0 0.000579 1678.35986 1739.51904
1678.0 0.000596 1677.42151 1732.20166
1713.0 0.000584 1676.47644 1724.07813
1717.0 0.000582 1675.52600 1716.70898
1755.0 0.000570 1674.56873 1710.85657
1651.0 0.000606 1673.60608 1706.62549
1733.0 0.000577 1672.63696 1703.57336
1722.0 0.000581 1671.66211 1700.89124
1786.0 0.000560 1670.68127 1697.59546
1789.0 0.000559 1669.69409 1693.29456
1715.0 0.000583 1668.70190 1688.56921
1665.0 0.000601 1667.70300 1683.80310
1628.0 0.000614 1666.69836 1679.94690
1725.0 0.000580 1665.68750 1676.74097
1688.0 0.000592 1664.67175 1674.08301
1607.0 0.000622 1663.64954 1671.82935
1615.0 0.000619 1662.62158 1669.86365
1707.0 0.000586 1661.58740 1668.10181
1748.0 0.000572 1660.54858 1666.48706
1607.0 0.000622 1659.50305 1664.97815
1604.0 0.000623 1658.45227 1663.54907
1644.0 0.000608 1657.39514 1662.17896
1626.0 0.000615 1656.33337 1660.85730
1667.0 0.000600 1655.26526 1659.57227
1771.0 0.000565 1654.19177 1658.31873
1591.0 0.000629 1653.11243 1657.09058
1782.0 0.000561 1652.02734 1655.88489
1686.0 0.000593 1650.93762 1654.69995
1722.0 0.000581 1649.84192 1653.53271
1710.0 0.000585 1648.74084 1652.38208
1650.0 0.000606 1647.63379 1651.24670
1672.0 0.000598 1646.52234 1650.12793
1633.0 0.000612 1645.40491 1649.02441
1616.0 0.000619 1644.28223 1647.93750
1645.0 0.000608 1643.15381 1646.93127
1721.0 0.000581 1642.02124 1645.88379
1713.0 0.000584 1640.88257 1644.85718
1705.0 0.000587 1639.73901 1643.85498
1597.0 0.000626 1638.58972 1642.88098
1627.0 0.000615 1637.43628 1641.94043
1575.0 0.000635 1636.27710 1641.03918
1676.0 0.000597 1635.11316 1640.18530
1660.0 0.000602 1633.94360 1639.38867
1751.0 0.000571 1632.77014 1638.66528
1645.0 0.000608 1631.59094 1638.03259
1669.0 0.000599 1630.40686 1637.51855
1574.0 0.000635 1629.21838 1637.16187
1654.0 0.000605 1628.02393 1637.01453
1683.0 0.000594 1626.82629 1637.15186
1660.0 0.000602 1625.62305 1637.67114
1658.0 0.000603 1624.41553 1638.69763
1672.0 0.000598 1623.20227 1640.38281
1707.0 0.000586 1621.98584 1642.89124
1632.0 0.000613 1620.76392 1646.38733
1709.0 0.000585 1619.53809 1650.98315
1692.0 0.000591 1618.30688 1656.58423
1689.0 0.000592 1617.07214 1662.97058
1638.0 0.000611 1615.83240 1669.17078
1708.0 0.000585 1614.58887 1673.58936
1716.0 0.000583 1613.34009 1674.53589
1667.0 0.000600 1612.08789 1671.22803
1723.0 0.000580 1610.83105 1664.41760
1659.0 0.000603 1609.57043 1655.80652
1642.0 0.000609 1608.30530 1646.95667
1678.0 0.000596 1607.03552 1638.79248
1679.0 0.000596 1605.76282 1631.68311
1621.0 0.000617 1604.48572 1628.03931
1629.0 0.000614 1603.20459 1623.32471
1571.0 0.000637 1601.91907 1619.50562
1623.0 0.000616 1600.63049 1616.44861
1583.0 0.000632 1599.33789 1614.03687
1605.0 0.000623 1598.04150 1612.20056
1676.0 0.000597 1596.74072 1610.93054
1596.0 0.000627 1595.43726 1610.33435
1619.0 0.000618 1594.12988 1610.75403
1559.0 0.000641 1592.81897 1612.99792
1616.0 0.000619 1591.50378 1618.63318
1636.0 0.000611 1590.18640 1630.03516
1661.0 0.000602 1588.86475 1649.75696
1803.0 0.000555 1587.53992 1678.39197
1732.0 0.000577 1586.21118 1711.35730
1755.0 0.000570 1584.88037 1738.19568
1697.0 0.000589 1583.54541 1745.14124
1693.0 0.000591 1582.20728 1724.48511
1709.0 0.000585 1580.86646 1689.43933
1696.0 0.000590 1579.52173 1656.93994
1612.0 0.000620 1578.17529 1633.71045
1706.0 0.000586 1576.82495 1618.96301
1619.0 0.000618 1575.47205 1609.09680
1640.0 0.000610 1574.11548 1601.25488
1619.0 0.000618 1572.75745 1594.46838
1617.0 0.000618 1571.39575 1588.62463
1698.0 0.000589 1570.03149 1583.70740
1567.0 0.000638 1568.66406 1579.61902
1563.0 0.000640 1567.29504 1576.22180
1547.0 0.000646 1565.92261 1573.35339
1608.0 0.000622 1564.54810 1570.97241
1588.0 0.000630 1563.17041 1568.76514
1569.0 0.000637 1561.79138 1566.74548
1455.0 0.000687 1560.40930 1564.85278
1567.0 0.000638 1559.02502 1563.05261
1633.0 0.000612 1557.63818 1561.38647
1566.0 0.000639 1556.24890 1559.70728
1571.0 0.000637 1554.85852 1558.07031
1518.0 0.000659 1553.46521 1556.46545
1555.0 0.000643 1552.07056 1554.88843
1671.0 0.000598 1550.67249 1553.33191
1538.0 0.000650 1549.27405 1551.79614
1596.0 0.000627 1547.87256 1550.27478
1547.0 0.000646 1546.47009 1548.76770
1502.0 0.000666 1545.06433 1547.27100
1517.0 0.000659 1543.65869 1545.78638
1563.0 0.000640 1542.25012 1544.30981
1582.0 0.000632 1540.84045 1542.84167
1549.0 0.000646 1539.42822 1541.38574
1514.0 0.000661 1538.01575 1539.93274
1464.0 0.000683 1536.60083 1538.48572
1488.0 0.000672 1535.18506 1537.04553
1597.0 0.000626 1533.76660 1535.61047
1518.0 0.000659 1532.34839 1534.25562
1528.0 0.000654 1530.92798 1532.83728
1505.0 0.000664 1529.50635 1531.42700
1488.0 0.000672 1528.08386 1530.02527
1522.0 0.000657 1526.65930 1528.63306
1496.0 0.000668 1525.23474 1527.25330
1526.0 0.000655 1523.80835 1526.22278
1500.0 0.000667 1522.38171 1524.89844
1546.0 0.000647 1520.95300 1523.60010
1516.0 0.000660 1519.52417 1522.33838
1489.0 0.000672 1518.09399 1521.12280
1527.0 0.000655 1516.66357 1519.96777
1478.0 0.000677 1515.23145 1518.88831
1462.0 0.000684 1513.79944 1517.80469
1541.0 0.000649 1512.36646 1516.91956
1527.0 0.000655 1510.93274 1516.13379
1561.0 0.000641 1509.49792 1515.41309
1458.0 0.000686 1508.06335 1514.66772
1546.0 0.000647 1506.62805 1513.75293
1494.0 0.000669 1505.19238 1512.54431
1522.0 0.000657 1503.75574 1511.04419
1433.0 0.000698 1502.31848 1509.39124
1535.0 0.000651 1500.88220 1507.74536
1502.0 0.000666 1499.44470 1506.21399
1494.0 0.000669 1498.00708 1504.85559
1497.0 0.000668 1496.56873 1503.70313
1497.0 0.000668 1495.13171 1502.79077
1455.0 0.000687 1493.69324 1502.17114
1468.0 0.000681 1492.25537 1501.94983
1479.0 0.000676 1490.81653 1502.32642
1553.0 0.000644 1489.37915 1503.65027
1537.0 0.000651 1487.94080 1506.57129
1587.0 0.000630 1486.50293 1511.42371
1512.0 0.000661 1485.06458 1518.73352
1491.0 0.000671 1483.62744 1527.93445
1592.0 0.000628 1482.18982 1537.18506
1590.0 0.000629 1480.75269 1543.40894
1564.0 0.000639 1479.31531 1543.53760
1510.0 0.000662 1477.87939 1538.10291
1493.0 0.000670 1476.44299 1531.10767
1411.0 0.000709 1475.00696 1525.55200
1540.0 0.000649 1473.57166 1522.34229
1592.0 0.000628 1472.13635 1520.84778
1555.0 0.000643 1470.70276 1519.46594
1554.0 0.000644 1469.26880 1516.46826
1458.0 0.000686 1467.83569 1511.12061
1599.0 0.000625 1466.40283 1504.08362
1514.0 0.000661 1464.97168 1496.62402
1421.0 0.000704 1463.54041 1489.67554
1440.0 0.000694 1462.11023 1483.63489
1526.0 0.000655 1460.68005 1478.57556
1483.0 0.000674 1459.25208 1474.42395
1471.0 0.000680 1457.82410 1471.62146
1513.0 0.000661 1456.39746 1468.92297
1497.0 0.000668 1454.97046 1466.61377
1457.0 0.000686 1453.54614 1464.93140
1447.0 0.000691 1452.12183 1463.68591
1456.0 0.000687 1450.69861 1462.87830
1496.0 0.000668 1449.27698 1462.52893
1488.0 0.000672 1447.85547 1462.64880
1489.0 0.000672 1446.43616 1463.20117
1481.0 0.000675 1445.01733 1464.06445
1526.0 0.000655 1443.60022 1465.02832
1404.0 0.000712 1442.18347 1465.85681
1480.0 0.000676 1440.76880 1466.37964
1515.0 0.000660 1439.35486 1466.35864
1452.0 0.000689 1437.94287 1465.34363
1426.0 0.000701 1436.53125 1462.93518
1512.0 0.000661 1435.12195 1459.64941
1431.0 0.000699 1433.71338 1455.41248
1443.0 0.000693 1432.30676 1451.23669
1379.0 0.000725 1430.90076 1447.52283
1450.0 0.000690 1429.49719 1444.44299
1407.0 0.000711 1428.09448 1442.04736
1393.0 0.000718 1426.69385 1440.36792
1433.0 0.000698 1425.29419 1439.47046
1415.0 0.000707 1423.89563 1439.51050
1360.0 0.000735 1422.49976 1440.79272
1443.0 0.000693 1421.10522 1443.81750
1427.0 0.000701 1419.71216 1449.20728
1502.0 0.000666 1418.32043 1457.36316
1459.0 0.000685 1416.93140 1467.62634
1545.0 0.000647 1415.54309 1477.41565
1507.0 0.000664 1414.15710 1482.43250
1470.0 0.000680 1412.77197 1478.72986
1543.0 0.000648 1411.39001 1467.48706
1538.0 0.000650 1410.00891 1453.86731
1487.0 0.000672 1408.62976 1441.57031
1471.0 0.000680 1407.25195 1431.84424
1423.0 0.000703 1405.87732 1424.53613
1403.0 0.000713 1404.50354 1419.00916
1406.0 0.000711 1403.13208 1414.70154
1445.0 0.000692 1401.76172 1411.22083
1379.0 0.000725 1400.39465 1408.31812
1391.0 0.000719 1399.02856 1405.81702
1368.0 0.000731 1397.66443 1403.59949
1395.0 0.000717 1396.30261 1401.58411
1338.0 0.000747 1394.94214 1399.71350
1400.0 0.000714 1393.58496 1398.22961
1373.0 0.000728 1392.22888 1396.57703
1381.0 0.000724 1390.87524 1394.98877
1424.0 0.000702 1389.52307 1393.47803
1372.0 0.000729 1388.17395 1392.06836
1355.0 0.000738 1386.82617 1390.73792
1406.0 0.000711 1385.48059 1389.48608
1370.0 0.000730 1384.13672 1388.26880
1362.0 0.000734 1382.79614 1387.16357
1318.0 0.000759 1381.45691 1386.20862
1340.0 0.000746 1380.12000 1385.47437
1341.0 0.000746 1378.78467 1385.00854
1315.0 0.000760 1377.45264 1384.89551
1314.0 0.000761 1376.12195 1385.17773
1364.0 0.000733 1374.79382 1385.81482
1321.0 0.000757 1373.46777 1386.58948
1399.0 0.000715 1372.14307 1386.98792
1379.0 0.000725 1370.82214 1386.33496
1335.0 0.000749 1369.50256 1384.27563
1433.0 0.000698 1368.18567 1381.32520
1398.0 0.000715 1366.87000 1378.20288
1265.0 0.000791 1365.55786 1375.36621
1385.0 0.000722 1364.24731 1373.00830
1289.0 0.000776 1362.93945 1371.22302
1382.0 0.000724 1361.63281 1370.12744
1331.0 0.000751 1360.32996 1370.00098
1324.0 0.000755 1359.02844 1371.39673
1363.0 0.000734 1357.72974 1375.15930
1372.0 0.000729 1356.43250 1382.14575
1412.0 0.000708 1355.13843 1392.45020
1358.0 0.000736 1353.84619 1404.26318
1450.0 0.000690 1352.55676 1413.34998
1408.0 0.000710 1351.26880 1414.27185
1430.0 0.000699 1349.98389 1404.64709
1427.0 0.000701 1348.70093 1389.59119
1356.0 0.000737 1347.42029 1375.29736
1348.0 0.000742 1346.14233 1364.35938
1291.0 0.000775 1344.86597 1356.90723
1322.0 0.000756 1343.59290 1352.07007
1247.0 0.000802 1342.32178 1348.81873
1315.0 0.000760 1341.05298 1346.41162
1376.0 0.000727 1339.78601 1344.43164
1347.0 0.000742 1338.52222 1342.68237
1326.0 0.000754 1337.26038 1341.07507
1351.0 0.000740 1336.00098 1339.56702
1314.0 0.000761 1334.74329 1338.13391
1280.0 0.000781 1333.48877 1336.76270
1295.0 0.000772 1332.23645 1335.44275
1325.0 0.000755 1330.98633 1334.16797
1264.0 0.000791 1329.73804 1332.93494
1292.0 0.000774 1328.49316 1331.74268
1233.0 0.000811 1327.24988 1330.62952
1296.0 0.000772 1326.00928 1329.52344
1270.0 0.000787 1324.77051 1329.04236
1285.0 0.000778 1323.53394 1328.08923
1293.0 0.000773 1322.30078 1327.20813
1264.0 0.000791 1321.06897 1326.41260
1367.0 0.000732 1319.84009 1325.72668
1302.0 0.000768 1318.61267 1325.18396
1255.0 0.000797 1317.38867 1324.83801
1261.0 0.000793 1316.16626 1324.75842
1292.0 0.000774 1314.94641 1325.15466
1282.0 0.000780 1313.72839 1325.96716
1274.0 0.000785 1312.51367 1327.46765
1330.0 0.000752 1311.30066 1329.85754
1320.0 0.000758 1310.08984 1333.33948
1307.0 0.000765 1308.88098 1338.11328
1326.0 0.000754 1307.67542 1344.01086
1366.0 0.000732 1306.47144 1350.54871
1372.0 0.000729 1305.26990 1356.68884
1341.0 0.000746 1304.07007 1361.57788
1345.0 0.000743 1302.87366 1365.12268
1347.0 0.000742 1301.67871 1367.06824
1349.0 0.000741 1300.48596 1365.85693
1357.0 0.000737 1299.29565 1360.22034
1282.0 0.000780 1298.10706 1351.43054
1312.0 0.000762 1296.92200 1341.83337
1267.0 0.000789 1295.73816 1332.79700
1361.0 0.000735 1294.55713 1325.23059
1327.0 0.000754 1293.37732 1319.24463
1257.0 0.000796 1292.20105 1314.77612
1271.0 0.000787 1291.02600 1311.56738
1245.0 0.000803 1289.85388 1309.26440
1355.0 0.000738 1288.68286 1307.39697
1302.0 0.000768 1287.51526 1305.42358
1279.0 0.000782 1286.34912 1302.97729
1247.0 0.000802 1285.18567 1300.13757
1232.0 0.000812 1284.02332 1297.26331
1286.0 0.000778 1282.86426 1294.67102
1231.0 0.000812 1281.70679 1292.50464
1251.0 0.000799 1280.55200 1290.78735
1315.0 0.000760 1279.39868 1289.45007
1336.0 0.000749 1278.24731 1288.32019
1313.0 0.000762 1277.09888 1287.11560
1215.0 0.000823 1275.95203 1285.55957
1313.0 0.000762 1274.80774 1283.61719
1282.0 0.000780 1273.66479 1281.49072
1249.0 0.000801 1272.52466 1279.41663
1221.0 0.000819 1271.38611 1277.51123
1194.0 0.000838 1270.25037 1275.79468
1336.0 0.000749 1269.11572 1274.21216
1249.0 0.000801 1267.98389 1272.68726
1255.0 0.000797 1266.85364 1271.19336
1270.0 0.000787 1265.72595 1269.76062
1177.0 0.000850 1264.59961 1268.40930
1255.0 0.000797 1263.47595 1267.14258
1265.0 0.000791 1262.35425 1265.95190
1266.0 0.000790 1261.23438 1264.82605
1236.0 0.000809 1260.11609 1263.75732
1251.0 0.000799 1259.00061 1262.74304
1206.0 0.000829 1257.88684 1261.78296
1216.0 0.000822 1256.77478 1260.88220
1248.0 0.000801 1255.66492 1260.04370
1264.0 0.000791 1254.55652 1259.29883
1226.0 0.000816 1253.45117 1258.66479
1177.0 0.000850 1252.34705 1258.17627
1228.0 0.000814 1251.24512 1258.10437
1267.0 0.000789 1250.14453 1258.09216
1255.0 0.000797 1249.04712 1258.43030
1256.0 0.000796 1247.95056 1259.21387
1239.0 0.000807 1246.85645 1260.53296
1248.0 0.000801 1245.76355 1262.44385
1257.0 0.000796 1244.67371 1264.89465
1257.0 0.000796 1243.58508 1267.61292
1221.0 0.000819 1242.49854 1270.00293
1240.0 0.000806 1241.41357 1271.37585
1233.0 0.000811 1240.33118 1271.45007
1256.0 0.000796 1239.25012 1270.44238
1203.0 0.000831 1238.17114 1268.67993
1253.0 0.000798 1237.09375 1266.38757
1217.0 0.000822 1236.01794 1263.66113
1278.0 0.000782 1234.94519 1260.61279
1241.0 0.000806 1233.87341 1257.15173
1263.0 0.000792 1232.80383 1253.52026
1225.0 0.000816 1231.73547 1249.95679
1145.0 0.000873 1230.66992 1246.53784
1241.0 0.000806 1229.60571 1243.44543
1144.0 0.000874 1228.54333 1240.75659
1246.0 0.000803 1227.48242 1238.49414
1245.0 0.000803 1226.42444 1236.66589
1216.0 0.000822 1225.36743 1235.28137
1240.0 0.000806 1224.31250 1234.39600
1267.0 0.000789 1223.25891 1234.12024
1251.0 0.000799 1222.20789 1234.60852
1232.0 0.000812 1221.15808 1235.94275
1183.0 0.000845 1220.11072 1237.89380
1257.0 0.000796 1219.06421 1239.67664
1203.0 0.000831 1218.02051 1240.06006
1234.0 0.000810 1216.97803 1238.08142
1237.0 0.000808 1215.93726 1234.24976
1200.0 0.000833 1214.89868 1229.86353
1183.0 0.000845 1213.86121 1225.78857
1111.0 0.000900 1212.82642 1222.34045
1169.0 0.000855 1211.79285 1219.48230
1197.0 0.000835 1210.76160 1217.07739
1230.0 0.000813 1209.73132 1214.99927
1225.0 0.000816 1208.70361 1213.18640
1235.0 0.000810 1207.67725 1211.53821
1191.0 0.000840 1206.65295 1210.03149
1123.0 0.000890 1205.62988 1208.63000
1213.0 0.000824 1204.60938 1207.36279
1133.0 0.000883 1203.58997 1206.10193
1200.0 0.000833 1202.57300 1204.88708
1121.0 0.000892 1201.55701 1203.70605
1179.0 0.000848 1200.54358 1202.55420
1191.0 0.000840 1199.53149 1201.42432
1202.0 0.000832 1198.52148 1200.31470
1151.0 0.000869 1197.51294 1199.22083
1184.0 0.000845 1196.50586 1198.14111
1183.0 0.000845 1195.50134 1197.07495
1144.0 0.000874 1194.49841 1196.01990
1136.0 0.000880 1193.49719 1194.97656
1205.0 0.000830 1192.49731 1193.94189
1234.0 0.000810 1191.50024 1192.91833
1165.0 0.000858 1190.50427 1191.90320
1179.0 0.000848 1189.51038 1190.89697
1145.0 0.000873 1188.51770 1190.34277
1163.0 0.000860 1187.52783 1189.43384
1082.0 0.000924 1186.53906 1188.48035
1178.0 0.000849 1185.55237 1187.53870
1152.0 0.000868 1184.56702 1186.61035
1189.0 0.000841 1183.58435 1185.69604
1200.0 0.000833 1182.60291 1184.79761
1144.0 0.000874 1181.62354 1183.91870
1158.0 0.000864 1180.64563 1183.05859
1127.0 0.000887 1179.67029 1182.25244
1144.0 0.000874 1178.69617 1181.44836
1166.0 0.000858 1177.72400 1180.68152
1182.0 0.000846 1176.75391 1179.96326
1126.0 0.000888 1175.78528 1179.30591
1174.0 0.000852 1174.81934 1178.74548
1167.0 0.000857 1173.85461 1178.28357
1185.0 0.000844 1172.89209 1177.96851
1238.0 0.000808 1171.93079 1177.84241
1137.0 0.000880 1170.97266 1177.95178
1159.0 0.000863 1170.01538 1178.33350
1157.0 0.000864 1169.06042 1179.00842
1155.0 0.000866 1168.10693 1179.93835
1111.0 0.000900 1167.15625 1180.96240
1232.0 0.000812 1166.20703 1181.74207
1201.0 0.000833 1165.25989 1181.82483
1128.0 0.000887 1164.31409 1180.93860
1198.0 0.000835 1163.37134 1179.25232
1144.0 0.000874 1162.42993 1177.16028
1151.0 0.000869 1161.49060 1175.26282
1141.0 0.000876 1160.55322 1173.77551
1159.0 0.000863 1159.61719 1172.88013
1142.0 0.000876 1158.68445 1173.91931
1122.0 0.000891 1157.75317 1174.73364
1126.0 0.000888 1156.82410 1176.61292
1176.0 0.000850 1155.89636 1179.69092
1252.0 0.000799 1154.97156 1183.96301
1174.0 0.000852 1154.04846 1189.06836
1281.0 0.000781 1153.12769 1194.02246
1234.0 0.000810 1152.20825 1197.69543
1210.0 0.000826 1151.29199 1199.80725
1138.0 0.000879 1150.37720 1200.53357
1193.0 0.000838 1149.46497 1199.49316
1204.0 0.000831 1148.55420 1196.39844
1219.0 0.000820 1147.64624 1191.89209
1197.0 0.000835 1146.73999 1186.84790
1219.0 0.000820 1145.83643 1181.86060
1150.0 0.000870 1144.93433 1177.13525
1218.0 0.000821 1144.03503 1172.69080
1172.0 0.000853 1143.13770 1168.60583
1189.0 0.000841 1142.24255 1165.05420
1082.0 0.000924 1141.34985 1162.16895
1138.0 0.000879 1140.45923 1160.00049
1122.0 0.000891 1139.57104 1158.55615
1170.0 0.000855 1138.68518 1157.82959
1099.0 0.000910 1137.80164 1157.83093
1184.0 0.000845 1136.91980 1158.58850
1180.0 0.000847 1136.04102 1160.14526
1188.0 0.000842 1135.16455 1162.54614
1196.0 0.000836 1134.29016 1165.78394
1189.0 0.000841 1133.41785 1169.80188
1192.0 0.000839 1132.54846 1174.24280
1194.0 0.000838 1131.68140 1178.13867
1206.0 0.000829 1130.81677 1180.75403
1173.0 0.000853 1129.95410 1181.24597
1185.0 0.000844 1129.09473 1179.68591
1084.0 0.000923 1128.23718 1176.46191
1184.0 0.000845 1127.38232 1172.39673
1175.0 0.000851 1126.52966 1168.02258
1153.0 0.000867 1125.67944 1163.47620
1128.0 0.000887 1124.83252 1158.65637
1085.0 0.000922 1123.98743 1153.58765
1131.0 0.000884 1123.14526 1148.54504
1124.0 0.000890 1122.30530 1143.83923
1083.0 0.000923 1121.46851 1139.66321
1150.0 0.000870 1120.63379 1136.05298
1169.0 0.000855 1119.80200 1132.97058
1095.0 0.000913 1118.97241 1130.33887
1107.0 0.000903 1118.14624 1128.08020
1175.0 0.000851 1117.32214 1126.11658
1089.0 0.000918 1116.50098 1124.38660
1110.0 0.000901 1115.68213 1122.83789
1086.0 0.000921 1114.86658 1121.43262
1106.0 0.000904 1114.05334 1120.13879
1133.0 0.000883 1113.24316 1119.78284
1089.0 0.000918 1112.43518 1118.77173
1130.0 0.000885 1111.63086 1117.85144
1129.0 0.000886 1110.82886 1117.01953
1086.0 0.000921 1110.02954 1116.28369
1100.0 0.000909 1109.23315 1115.66138
1115.0 0.000897 1108.43945 1115.18982
1090.0 0.000917 1107.64917 1114.94092
1108.0 0.000903 1106.86133 1114.99414
1183.0 0.000845 1106.07678 1115.66675
1141.0 0.000876 1105.29443 1117.18787
1133.0 0.000883 1104.51599 1119.84045
1122.0 0.000891 1103.73975 1123.76868
1119.0 0.000894 1102.96680 1128.69299
1162.0 0.000861 1102.19641 1133.53406
1173.0 0.000853 1101.42969 1135.69446
1091.0 0.000917 1100.66553 1133.59302
1149.0 0.000870 1099.90479 1128.53857
1153.0 0.000867 1099.14636 1123.05029
1124.0 0.000890 1098.39197 1118.62427
1162.0 0.000861 1097.64001 1115.74060
1128.0 0.000887 1096.89148 1114.42725
1145.0 0.000873 1096.14575 1115.92200
1167.0 0.000857 1095.40308 1117.52368
1123.0 0.000890 1094.66394 1120.35754
1153.0 0.000867 1093.92761 1124.34436
1139.0 0.000878 1093.19495 1129.27380
1175.0 0.000851 1092.46484 1134.60059
1084.0 0.000923 1091.73853 1142.29309
1080.0 0.000926 1091.01501 1145.73145
1125.0 0.000889 1090.29504 1146.74805
1114.0 0.000898 1089.57800 1146.82971
1198.0 0.000835 1088.86450 1147.85254
1151.0 0.000869 1088.15417 1151.85876
1212.0 0.000825 1087.44739 1159.93945
1261.0 0.000793 1086.74341 1171.25610
1127.0 0.000887 1086.04309 1181.50488
1191.0 0.000840 1085.34619 1183.07458
1213.0 0.000824 1084.65259 1172.29797
1209.0 0.000827 1083.96204 1154.48584
1156.0 0.000865 1083.27527 1136.53235
1109.0 0.000902 1082.59192 1121.78674
1085.0 0.000922 1081.91174 1110.96216
1168.0 0.000856 1081.23499 1103.51270
1143.0 0.000875 1080.56140 1098.52075
1132.0 0.000883 1079.89209 1095.21509
1110.0 0.000901 1079.22546 1092.88928
1119.0 0.000894 1078.56274 1091.20691
1083.0 0.000923 1077.90308 1089.90210
1038.0 0.000963 1077.24768 1088.77148
1043.0 0.000959 1076.59509 1087.65173
1128.0 0.000887 1075.94641 1086.40698
1089.0 0.000918 1075.30066 1085.19849
1083.0 0.000923 1074.65918 1084.05225
1080.0 0.000926 1074.02100 1083.05444
1089.0 0.000918 1073.38635 1082.27502
1098.0 0.000911 1072.75500 1081.76050
1134.0 0.000882 1072.12781 1081.57483
1098.0 0.000911 1071.50391 1081.78979
1049.0 0.000953 1070.88354 1082.48767
1018.0 0.000982 1070.26685 1083.75171
1069.0 0.000935 1069.65344 1085.63074
1131.0 0.000884 1069.04443 1088.07214
1121.0 0.000892 1068.43860 1090.79688
1147.0 0.000872 1067.83655 1093.14050
1109.0 0.000902 1067.23779 1094.19348
1113.0 0.000898 1066.64331 1093.46106
1105.0 0.000905 1066.05212 1091.27844
1139.0 0.000878 1065.46472 1088.31665
1167.0 0.000857 1064.88062 1085.05811
1105.0 0.000905 1064.30090 1081.78735
1057.0 0.000946 1063.72449 1078.69934
1049.0 0.000953 1063.15198 1075.89905
1059.0 0.000944 1062.58276 1073.44800
1084.0 0.000923 1062.01770 1071.34595
1059.0 0.000944 1061.45618 1069.55444
1084.0 0.000923 1060.89856 1068.02991
1107.0 0.000903 1060.34424 1066.73132
1082.0 0.000924 1059.79431 1065.63367
1122.0 0.000891 1059.24768 1064.70410
982.0 0.001018 1058.70471 1063.93799
1055.0 0.000948 1058.16589 1063.33569
1041.0 0.000961 1057.63037 1062.90527
1115.0 0.000897 1057.09900 1062.65576
1066.0 0.000938 1056.57104 1062.56287
1084.0 0.000923 1056.04724 1062.55640
1047.0 0.000955 1055.52673 1062.40430
1075.0 0.000930 1055.01050 1062.49768
1012.0 0.000988 1054.49768 1061.69836
1100.0 0.000909 1053.98877 1060.66455
1116.0 0.000896 1053.48340 1059.57153
1125.0 0.000889 1052.98193 1058.54895
1051.0 0.000951 1052.48438 1058.46167
1080.0 0.000926 1051.99048 1057.94055
1029.0 0.000972 1051.50012 1057.71692
1051.0 0.000951 1051.01392 1057.92615
1049.0 0.000953 1050.53113 1058.80920
1130.0 0.000885 1050.05225 1060.72278
1139.0 0.000878 1049.57715 1064.03210
1053.0 0.000950 1049.10547 1068.83801
1132.0 0.000883 1048.63806 1074.49170
1093.0 0.000915 1048.17419 1078.96948
1127.0 0.000887 1047.71387 1079.36426
1105.0 0.000905 1047.25732 1075.30957
1093.0 0.000915 1046.80493 1069.37793
1043.0 0.000959 1046.35583 1063.77148
1015.0 0.000985 1045.91052 1059.35974
1007.0 0.000993 1045.46863 1056.08435
1035.0 0.000966 1045.03113 1053.56567
1082.0 0.000924 1044.59692 1051.50854
1074.0 0.000931 1044.16638 1049.79529
1036.0 0.000965 1043.73950 1048.36926
1075.0 0.000930 1043.31653 1047.18274
1051.0 0.000951 1042.89685 1046.18457
1108.0 0.000903 1042.48120 1045.33252
1078.0 0.000928 1042.06897 1044.58972
1126.0 0.000888 1041.66028 1043.92908
1036.0 0.000965 1041.25562 1043.33069
1065.0 0.000939 1040.85425 1042.77832
995.0 0.001005 1040.45654 1042.26294
1044.0 0.000958 1040.06226 1041.77783
1082.0 0.000924 1039.67200 1041.35107
1033.0 0.000968 1039.28491 1040.91626
1060.0 0.000943 1038.90161 1040.50464
1071.0 0.000934 1038.52173 1040.11597
1054.0 0.000949 1038.14551 1039.84277
1103.0 0.000907 1037.77271 1039.51611
1024.0 0.000977 1037.40344 1039.22571
1031.0 0.000970 1037.03760 1038.97961
980.0 0.001020 1036.67542 1038.79077
1068.0 0.000936 1036.31641 1038.67444
1001.0 0.000999 1035.96106 1038.64648
1008.0 0.000992 1035.60901 1038.72119
1103.0 0.000907 1035.26074 1038.90149
1064.0 0.000940 1034.91541 1039.16272
1034.0 0.000967 1034.57361 1039.42993
1077.0 0.000929 1034.23523 1039.56348
1057.0 0.000946 1033.90002 1039.43518
1024.0 0.000977 1033.56836 1039.03955
1043.0 0.000959 1033.23987 1038.48535
1063.0 0.000941 1032.91479 1037.90283
1040.0 0.000962 1032.59277 1037.39526
1062.0 0.000942 1032.27429 1037.03040
1004.0 0.000996 1031.95886 1036.82495
1011.0 0.000989 1031.64661 1036.73352
979.0 0.001021 1031.33752 1036.62122
1000.0 0.001000 1031.03186 1036.31482
1068.0 0.000936 1030.72913 1035.74670
1084.0 0.000923 1030.42969 1034.99731
1017.0 0.000983 1030.13318 1034.16968
1025.0 0.000976 1029.83984 1033.33484
1052.0 0.000951 1029.54944 1032.53894
1013.0 0.000987 1029.26221 1031.81104
1053.0 0.000950 1028.97791 1031.15930
1101.0 0.000908 1028.69653 1030.57935
932.0 0.001073 1028.41821 1030.06055
998.0 0.001002 1028.14282 1029.59155
974.0 0.001027 1027.87048 1029.16309
1070.0 0.000935 1027.60083 1028.76648
1029.0 0.000972 1027.33411 1028.39648
1070.0 0.000935 1027.07019 1028.04749
1042.0 0.000960 1026.80920 1027.71667
930.0 0.001075 1026.55078 1027.44019
1042.0 0.000960 1026.29541 1027.13599
1026.0 0.000975 1026.04260 1026.84204
1050.0 0.000952 1025.79260 1026.55701
969.0 0.001032 1025.54504 1026.27905
1017.0 0.000983 1025.30029 1026.00854
1046.0 0.000956 1025.05823 1025.82959
1031.0 0.000970 1024.81873 1025.57349
983.0 0.001017 1024.58167 1025.32324
1051.0 0.000951 1024.34741 1025.07825
993.0 0.001007 1024.11536 1024.83801
1042.0 0.000960 1023.88580 1024.60193
978.0 0.001022 1023.65887 1024.37097
1009.0 0.000991 1023.43414 1024.14392
1073.0 0.000932 1023.21198 1023.92151
1023.0 0.000978 1022.99207 1023.70319
1040.0 0.000962 1022.77448 1023.48895
989.0 0.001011 1022.55914 1023.27875
999.0 0.001001 1022.34637 1023.07275
981.0 0.001019 1022.13556 1022.87067
1014.0 0.000986 1021.92682 1022.67279
1037.0 0.000964 1021.72052 1022.47919
986.0 0.001014 1021.51636 1022.29022
1038.0 0.000963 1021.31415 1022.10529
973.0 0.001028 1021.11407 1022.04968
1023.0 0.000978 1020.91583 1021.88562
1047.0 0.000955 1020.71997 1021.72839
1061.0 0.000943 1020.52576 1021.57800
1056.0 0.000947 1020.33362 1021.43591
983.0 0.001017 1020.14331 1021.30267
1055.0 0.000948 1019.95477 1021.17932
1005.0 0.000995 1019.76837 1021.06750
1052.0 0.000951 1019.58368 1020.96930
1026.0 0.000975 1019.40070 1020.88708
1060.0 0.000943 1019.21930 1020.86249
994.0 0.001006 1019.03986 1020.82623
1072.0 0.000933 1018.86188 1020.82251
1045.0 0.000957 1018.68573 1020.72711
1045.0 0.000957 1018.51093 1020.82172
1019.0 0.000981 1018.33789 1020.99719
1010.0 0.000990 1018.16626 1021.25244
1003.0 0.000997 1017.99622 1021.62207
1007.0 0.000993 1017.82745 1022.14252
1023.0 0.000978 1017.66034 1022.75311
1001.0 0.000999 1017.49451 1023.45520
1025.0 0.000976 1017.32996 1024.16125
1027.0 0.000974 1017.16669 1024.74585
1034.0 0.000967 1017.00470 1025.14307
1006.0 0.000994 1016.84393 1025.45789
1062.0 0.000942 1016.68445 1025.93225
1023.0 0.000978 1016.52612 1026.82751
1010.0 0.000990 1016.36890 1028.36426
999.0 0.001001 1016.21283 1030.70215
1011.0 0.000989 1016.05774 1033.92346
1028.0 0.000973 1015.90375 1037.92102
1068.0 0.000936 1015.75061 1042.17029
1010.0 0.000990 1015.59863 1045.60217
1068.0 0.000936 1015.44739 1046.77161
1019.0 0.000981 1015.29712 1045.17383
1107.0 0.000903 1015.14758 1041.71313
1014.0 0.000986 1014.99896 1037.65198
1037.0 0.000964 1014.85107 1033.74304
1001.0 0.000999 1014.70380 1030.30725
1042.0 0.000960 1014.55743 1027.43689
1062.0 0.000942 1014.41144 1025.12695
1052.0 0.000951 1014.26624 1023.31409
991.0 0.001009 1014.12170 1021.92413
1061.0 0.000943 1013.97760 1020.89917
1049.0 0.000953 1013.83398 1020.21973
1006.0 0.000994 1013.69098 1020.04761
1034.0 0.000967 1013.54828 1020.22815
975.0 0.001026 1013.40613 1020.94012
1022.0 0.000978 1013.26422 1022.12073
1056.0 0.000947 1013.12274 1023.40393
990.0 0.001010 1012.98151 1023.97729
1080.0 0.000926 1012.84052 1023.16986
1019.0 0.000981 1012.69971 1021.42389
968.0 0.001033 1012.55914 1019.59387
1041.0 0.000961 1012.41876 1018.12201
1082.0 0.000924 1012.27844 1017.11157
987.0 0.001013 1012.13818 1016.50317
998.0 0.001002 1011.99817 1016.19818
1022.0 0.000978 1011.85809 1016.07684
1044.0 0.000958 1011.71796 1016.07294
981.0 0.001019 1011.57776 1016.12488
1007.0 0.000993 1011.43762 1016.17072
1015.0 0.000985 1011.29718 1016.23657
940.0 0.001064 1011.15668 1016.17712
1037.0 0.000964 1011.01599 1016.03503
1003.0 0.000997 1010.87494 1015.80090
1013.0 0.000987 1010.73389 1015.49078
1032.0 0.000969 1010.59241 1015.14209
1034.0 0.000967 1010.45062 1014.79370
1042.0 0.000960 1010.30841 1014.46521
1016.0 0.000984 1010.16583 1014.15118
970.0 0.001031 1010.02289 1013.83185
943.0 0.001060 1009.87946 1013.49536
963.0 0.001038 1009.73560 1013.15088
1022.0 0.000978 1009.59131 1012.82092
1008.0 0.000992 1009.44635 1012.55688
979.0 0.001021 1009.30090 1012.30298
1034.0 0.000967 1009.15472 1012.09357
1003.0 0.000997 1009.00818 1011.92761
1002.0 0.000998 1008.86072 1011.80280
985.0 0.001015 1008.71277 1011.71759
984.0 0.001016 1008.56390 1011.72296
942.0 0.001062 1008.41425 1011.71985
1009.0 0.000991 1008.26398 1011.80481
1044.0 0.000958 1008.11285 1011.89581
1003.0 0.000997 1007.96069 1012.04474
994.0 0.001006 1007.80786 1012.26544
960.0 0.001042 1007.65417 1012.57623
979.0 0.001021 1007.49945 1013.00476
992.0 0.001008 1007.34387 1013.58636
1017.0 0.000983 1007.18719 1014.41089
985.0 0.001015 1007.02966 1015.44403
986.0 0.001014 1006.87103 1016.77740
1046.0 0.000956 1006.71143 1018.43896
986.0 0.001014 1006.55060 1020.40356
1099.0 0.000910 1006.38873 1022.51794
1006.0 0.000994 1006.22571 1024.44983
959.0 0.001043 1006.06158 1025.78760
1056.0 0.000947 1005.89618 1026.37109
1045.0 0.000957 1005.72974 1026.38818
1065.0 0.000939 1005.56165 1026.15430
976.0 0.001025 1005.39270 1025.99805
1007.0 0.000993 1005.22235 1026.26257
1045.0 0.000957 1005.05066 1027.30579
949.0 0.001054 1004.87781 1029.47363
1069.0 0.000935 1004.70355 1033.08350
1034.0 0.000967 1004.52795 1038.37292
973.0 0.001028 1004.35083 1045.38989
1039.0 0.000962 1004.17255 1053.69446
1051.0 0.000951 1003.99261 1061.92151
1062.0 0.000942 1003.81140 1067.54309
1013.0 0.000987 1003.62854 1068.12939
1063.0 0.000941 1003.44440 1063.64990
1084.0 0.000923 1003.25861 1056.46863
991.0 0.001009 1003.07135 1048.95850
1045.0 0.000957 1002.88245 1042.34534
1014.0 0.000986 1002.69202 1036.44714
1001.0 0.000999 1002.50006 1031.19812
975.0 0.001026 1002.30658 1026.53186
1026.0 0.000975 1002.11139 1022.50256
1057.0 0.000946 1001.91455 1019.14893
1045.0 0.000957 1001.71625 1016.44666
968.0 0.001033 1001.51624 1014.32654
974.0 0.001027 1001.31451 1012.72729
993.0 0.001007 1001.11102 1011.62488
972.0 0.001029 1000.90607 1011.07684
1010.0 0.000990 1000.69922 1011.32635
988.0 0.001012 1000.49072 1012.44604
1068.0 0.000936 1000.28040 1014.60223
1011.0 0.000989 1000.06854 1017.44135
934.0 0.001071 999.85474 1019.90735
967.0 0.001034 999.63904 1020.14081
1018.0 0.000982 999.42169 1018.33160
1057.0 0.000946 999.20276 1016.06256
1013.0 0.000987 998.98175 1014.31702
1035.0 0.000966 998.75909 1013.23413
1017.0 0.000983 998.53448 1012.48608
994.0 0.001006 998.30829 1011.74994
978.0 0.001022 998.08008 1011.01563
968.0 0.001033 997.84998 1010.47754
927.0 0.001079 997.61816 1010.17419
1012.0 0.000988 997.38428 1009.71033
973.0 0.001028 997.14886 1008.54492
999.0 0.001001 996.91138 1006.77686
944.0 0.001059 996.67212 1004.87677
969.0 0.001032 996.43066 1003.36993
998.0 0.001002 996.18756 1002.35925
972.0 0.001029 995.94250 1001.78156
1021.0 0.000979 995.69574 1001.53711
976.0 0.001025 995.44684 1001.55090
965.0 0.001036 995.19629 1001.78925
993.0 0.001007 994.94360 1002.42432
999.0 0.001001 994.68927 1003.12146
1040.0 0.000962 994.43268 1004.05444
1022.0 0.000978 994.17450 1005.20782
939.0 0.001065 993.91425 1006.54395
993.0 0.001007 993.65222 1008.19348
942.0 0.001062 993.38812 1009.91199
997.0 0.001003 993.12207 1012.05780
1028.0 0.000973 992.85437 1014.90015
996.0 0.001004 992.58459 1018.36578
1035.0 0.000966 992.31281 1021.39240
1065.0 0.000939 992.03931 1021.88959
997.0 0.001003 991.76379 1019.13422
1037.0 0.000964 991.48645 1014.94824
980.0 0.001020 991.20721 1010.85358
983.0 0.001017 990.92603 1006.84839
968.0 0.001033 990.64301 1002.88831
985.0 0.001015 990.35815 999.51428
957.0 0.001045 990.07141 997.01117
972.0 0.001029 989.78265 995.29517
898.0 0.001114 989.49219 994.14227
1004.0 0.000996 989.19977 993.32941
957.0 0.001045 988.90558 992.70569
931.0 0.001074 988.60938 992.18964
959.0 0.001043 988.31158 991.74396
937.0 0.001067 988.01166 991.35083
941.0 0.001063 987.70996 991.00140
949.0 0.001054 987.40662 990.69116
995.0 0.001005 987.10120 990.41730
956.0 0.001046 986.79443 990.24902
996.0 0.001004 986.48553 990.05487
962.0 0.001040 986.17499 989.90503
984.0 0.001016 985.86243 989.80670
952.0 0.001050 985.54852 989.77271
982.0 0.001018 985.23260 989.82227
904.0 0.001106 984.91498 989.98608
950.0 0.001053 984.59546 990.31091
958.0 0.001044 984.27460 990.86676
926.0 0.001080 983.95178 991.75006
968.0 0.001033 983.62732 993.08197
1017.0 0.000983 983.30103 994.99994
962.0 0.001040 982.97327 997.62585
1008.0 0.000992 982.64368 1001.02460
953.0 0.001049 982.31262 1005.07709
968.0 0.001033 981.97980 1009.27606
984.0 0.001016 981.64526 1012.51141
1023.0 0.000978 981.30945 1013.44226
1021.0 0.000979 980.97186 1011.44098
982.0 0.001018 980.63275 1007.45105
982.0 0.001018 980.29193 1002.86359
934.0 0.001071 979.94995 998.62634
942.0 0.001062 979.60614 995.11871
965.0 0.001036 979.26093 992.41187
1000.0 0.001000 978.91400 990.43652
965.0 0.001036 978.56592 989.08411
960.0 0.001042 978.21619 988.24487
951.0 0.001052 977.86499 987.84863
1045.0 0.000957 977.51239 987.82617
979.0 0.001021 977.15839 988.17493
996.0 0.001004 976.80292 988.91376
958.0 0.001044 976.44629 990.08118
974.0 0.001027 976.08795 991.73206
975.0 0.001026 975.72870 993.91895
1046.0 0.000956 975.36786 996.67889
1000.0 0.001000 975.00568 999.97113
990.0 0.001010 974.64246 1003.65723
999.0 0.001001 974.27759 1007.36456
1004.0 0.000996 973.91180 1010.54816
1012.0 0.000988 973.54468 1012.72333
981.0 0.001019 973.17639 1013.71466
972.0 0.001029 972.80670 1013.52283
960.0 0.001042 972.43616 1011.76447
992.0 0.001008 972.06403 1007.82831
990.0 0.001010 971.69122 1002.16339
962.0 0.001040 971.31689 996.16681
961.0 0.001041 970.94177 990.82739
904.0 0.001106 970.56543 986.52075
993.0 0.001007 970.18829 983.17944
970.0 0.001031 969.80969 980.65491
899.0 0.001112 969.43042 978.78076
949.0 0.001054 969.05005 977.30792
978.0 0.001022 968.66876 976.13629
963.0 0.001038 968.28638 975.17566
995.0 0.001005 967.90295 974.37018
895.0 0.001117 967.51904 973.68652
937.0 0.001067 967.13391 973.13416
927.0 0.001079 966.74805 972.63715
977.0 0.001024 966.36108 972.22015
985.0 0.001015 965.97351 971.88110
925.0 0.001081 965.58502 971.62122
912.0 0.001096 965.19592 971.44702
994.0 0.001006 964.80573 971.36810
966.0 0.001035 964.41522 971.40161
968.0 0.001033 964.02374 971.41211
979.0 0.001021 963.63159 971.82037
951.0 0.001052 963.23859 972.42578
933.0 0.001072 962.84534 973.37543
939.0 0.001065 962.45117 974.83734
1017.0 0.000983 962.05640 977.04803
920.0 0.001087 961.66083 980.32874
981.0 0.001019 961.26514 985.05634
979.0 0.001021 960.86859 991.62134
1013.0 0.000987 960.47150 1000.28571
1048.0 0.000954 960.07379 1010.92938
1002.0 0.000998 959.67554 1022.53070
1017.0 0.000983 959.27722 1032.41870
985.0 0.001015 958.87817 1036.69482
1015.0 0.000985 958.47876 1033.11877
1035.0 0.000966 958.07874 1023.51953
976.0 0.001025 957.67871 1011.67468
995.0 0.001005 957.27802 1000.30963
1002.0 0.000998 956.87714 990.66071
968.0 0.001033 956.47565 983.01886
967.0 0.001034 956.07422 977.24414
964.0 0.001037 955.67224 973.00177
933.0 0.001072 955.27008 969.94275
977.0 0.001024 954.86743 967.76245
939.0 0.001065 954.46484 966.36096
920.0 0.001087 954.06183 965.38837
921.0 0.001086 953.65887 964.91760
1013.0 0.000987 953.25549 964.98840
956.0 0.001046 952.85181 965.70380
915.0 0.001093 952.44849 967.20288
937.0 0.001067 952.04468 969.62000
958.0 0.001044 951.64099 972.99707
999.0 0.001001 951.23694 977.12341
944.0 0.001059 950.83307 981.21735
926.0 0.001080 950.42896 983.74994
982.0 0.001018 950.02502 983.21161
981.0 0.001019 949.62085 979.67889
968.0 0.001033 949.21692 974.70166
933.0 0.001072 948.81281 969.71320
980.0 0.001020 948.40875 965.41125
934.0 0.001071 948.00482 961.97766
938.0 0.001066 947.60089 959.37610
893.0 0.001120 947.19702 957.48181
946.0 0.001057 946.79352 956.22968
908.0 0.001101 946.38989 955.39441
912.0 0.001096 945.98627 954.98004
939.0 0.001065 945.58313 954.97827
972.0 0.001029 945.18005 955.41412
948.0 0.001055 944.77722 956.32208
938.0 0.001066 944.37427 957.71124
1013.0 0.000987 943.97186 959.49152
918.0 0.001089 943.56970 961.36029
1017.0 0.000983 943.16766 962.70038
911.0 0.001098 942.76575 962.83221
937.0 0.001067 942.36450 961.61536
1018.0 0.000982 941.96301 959.56860
953.0 0.001049 941.56219 957.34259
946.0 0.001057 941.16138 955.37219
926.0 0.001080 940.76135 953.89026
929.0 0.001076 940.36139 952.99023
917.0 0.001091 939.96185 952.69141
945.0 0.001058 939.56244 952.83490
924.0 0.001082 939.16388 953.15936
940.0 0.001064 938.76538 953.19519
949.0 0.001054 938.36731 952.52209
933.0 0.001072 937.96973 951.15393
903.0 0.001107 937.57239 949.48230
920.0 0.001087 937.17584 947.89423
946.0 0.001057 936.77948 946.60895
937.0 0.001067 936.38367 945.98938
943.0 0.001060 935.98816 945.66022
931.0 0.001074 935.59332 945.96344
953.0 0.001049 935.19885 947.04053
944.0 0.001059 934.80493 949.04388
904.0 0.001106 934.41138 952.08826
903.0 0.001107 934.01874 956.12158
984.0 0.001016 933.62640 960.69202
924.0 0.001082 933.23462 964.56873
975.0 0.001026 932.84320 965.83447
992.0 0.001008 932.45270 963.47614
969.0 0.001032 932.06250 958.55756
885.0 0.001130 931.67297 952.96173
973.0 0.001028 931.28400 947.88654
907.0 0.001103 930.89532 943.75470
920.0 0.001087 930.50775 940.58557
901.0 0.001110 930.12042 938.22577
941.0 0.001063 929.73383 936.48486
952.0 0.001050 929.34772 935.18152
932.0 0.001073 928.96240 934.20178
948.0 0.001055 928.57764 933.39679
879.0 0.001138 928.19366 932.73029
961.0 0.001041 927.80988 932.75671
945.0 0.001058 927.42731 932.40424
948.0 0.001055 927.04504 932.17438
962.0 0.001040 926.66364 932.10779
924.0 0.001082 926.28253 932.31750
951.0 0.001052 925.90253 933.06854
905.0 0.001105 925.52295 934.83478
929.0 0.001076 925.14417 938.16602
930.0 0.001075 924.76587 943.23169
921.0 0.001086 924.38849 949.07635
940.0 0.001064 924.01154 952.92859
894.0 0.001119 923.63519 951.80786
980.0 0.001020 923.25989 947.02850
932.0 0.001073 922.88495 941.99506
971.0 0.001030 922.51099 938.58746
912.0 0.001096 922.13757 936.95026
903.0 0.001107 921.76501 936.67645
1011.0 0.000989 921.39282 937.05347
958.0 0.001044 921.02173 937.41162
959.0 0.001043 920.65118 937.35468
916.0 0.001092 920.28137 936.84015
875.0 0.001143 919.91205 935.97522
903.0 0.001107 919.54376 934.86273
911.0 0.001098 919.17603 933.67224
923.0 0.001083 918.80908 932.57068
880.0 0.001136 918.44263 931.74371
864.0 0.001157 918.07703 931.25354
888.0 0.001126 917.71216 931.21564
996.0 0.001004 917.34802 931.77374
914.0 0.001094 916.98450 933.06531
915.0 0.001093 916.62164 935.23175
908.0 0.001101 916.25983 938.38513
981.0 0.001019 915.89850 942.51440
931.0 0.001074 915.53796 947.35120
942.0 0.001062 915.17792 952.08716
944.0 0.001059 914.81897 955.24438
953.0 0.001049 914.46051 955.17517
959.0 0.001043 914.10278 952.01660
926.0 0.001080 913.74561 946.85236
901.0 0.001110 913.38953 941.24921
954.0 0.001048 913.03387 936.06616
924.0 0.001082 912.67883 931.58472
973.0 0.001028 912.32452 927.78351
881.0 0.001135 911.97131 924.64056
907.0 0.001103 911.61847 922.12799
900.0 0.001111 911.26642 920.20880
913.0 0.001095 910.91492 918.68115
930.0 0.001075 910.56445 917.50031
938.0 0.001066 910.21442 916.58942
896.0 0.001116 909.86511 915.89923
862.0 0.001160 909.51654 915.40533
866.0 0.001155 909.16852 915.09882
879.0 0.001138 908.82153 914.97253
873.0 0.001145 908.47498 914.95154
882.0 0.001134 908.12921 915.02252
926.0 0.001080 907.78387 914.98059
868.0 0.001152 907.43951 914.75287
878.0 0.001139 907.09564 914.37921
928.0 0.001078 906.75269 914.03125
912.0 0.001096 906.41010 913.65082
802.0 0.001247 906.06848 913.11768
921.0 0.001086 905.72736 912.33228
845.0 0.001183 905.38708 911.35895
916.0 0.001092 905.04712 910.37982
870.0 0.001149 904.70825 909.52289
862.0 0.001160 904.36981 908.82410
879.0 0.001138 904.03217 908.26489
884.0 0.001131 903.69501 907.78882
837.0 0.001195 903.35840 907.32074
889.0 0.001125 903.02277 906.79755
958.0 0.001044 902.68762 906.20032
878.0 0.001139 902.35303 905.55835
902.0 0.001109 902.01923 904.91296
886.0 0.001129 901.68597 904.29608
866.0 0.001155 901.35339 903.72119
926.0 0.001080 901.02155 903.19086
905.0 0.001105 900.69012 902.72607
875.0 0.001143 900.35962 902.27411
864.0 0.001157 900.02954 901.85260
908.0 0.001101 899.70032 901.45758
871.0 0.001148 899.37140 901.08472
918.0 0.001089 899.04340 900.73169
842.0 0.001188 898.71588 900.39618
903.0 0.001107 898.38916 900.07794
931.0 0.001074 898.06274 899.80164
921.0 0.001086 897.73724 899.52026
892.0 0.001121 897.41229 899.25952
903.0 0.001107 897.08765 899.02252
925.0 0.001081 896.76392 898.81512
897.0 0.001115 896.44067 898.64758
857.0 0.001167 896.11835 898.52795
888.0 0.001126 895.79633 898.47455
940.0 0.001064 895.47504 898.50751
893.0 0.001120 895.15424 898.64966
868.0 0.001152 894.83435 898.92004
940.0 0.001064 894.51477 899.32477
885.0 0.001130 894.19592 899.83557
889.0 0.001125 893.87756 900.35419
902.0 0.001109 893.56012 900.68988
878.0 0.001139 893.24298 900.65936
885.0 0.001130 892.92657 900.25299
947.0 0.001056 892.61060 899.61499
907.0 0.001103 892.29541 898.89911
948.0 0.001055 891.98071 898.21606
897.0 0.001115 891.66669 897.64056
963.0 0.001038 891.35321 897.24792
929.0 0.001076 891.04022 897.11371
878.0 0.001139 890.72821 897.32928
911.0 0.001098 890.41663 898.00311
959.0 0.001043 890.10559 899.45874
826.0 0.001211 889.79510 901.41211
891.0 0.001122 889.48547 904.00031
867.0 0.001153 889.17621 906.92523
914.0 0.001094 888.86768 909.38165
964.0 0.001037 888.55957 910.28247
962.0 0.001040 888.25238 909.32764
920.0 0.001087 887.94556 907.40588
856.0 0.001168 887.63947 905.46918
878.0 0.001139 887.33380 903.72400
901.0 0.001110 887.02893 901.95941
892.0 0.001121 886.72455 900.14276
931.0 0.001074 886.42084 898.63953
914.0 0.001094 886.11768 897.49194
904.0 0.001106 885.81537 896.46490
906.0 0.001104 885.51349 895.26196
930.0 0.001075 885.21222 893.80450
876.0 0.001142 884.91174 892.24463
876.0 0.001142 884.61151 890.76233
937.0 0.001067 884.31232 889.45581
889.0 0.001125 884.01361 888.34509
888.0 0.001126 883.71558 887.41614
874.0 0.001144 883.41797 886.63934
866.0 0.001155 883.12122 885.98517
865.0 0.001156 882.82501 885.42322
853.0 0.001172 882.52936 884.93176
873.0 0.001145 882.23425 884.49274
899.0 0.001112 881.94006 884.09448
879.0 0.001138 881.64636 883.73267
861.0 0.001161 881.35339 883.39362
840.0 0.001190 881.06091 883.07861
863.0 0.001159 880.76935 882.78619
872.0 0.001147 880.47821 882.51581
889.0 0.001125 880.18787 882.26849
821.0 0.001218 879.89807 882.04602
850.0 0.001176 879.60883 881.85199
870.0 0.001149 879.32043 881.69116
894.0 0.001119 879.03271 881.57227
899.0 0.001112 878.74554 881.50897
903.0 0.001107 878.45898 881.52832
874.0 0.001144 878.17303 881.65363
934.0 0.001071 877.88794 881.94226
908.0 0.001101 877.60352 882.46265
852.0 0.001174 877.31952 883.29828
898.0 0.001114 877.03656 884.52850
863.0 0.001159 876.75403 886.20422
868.0 0.001152 876.47229 888.27966
861.0 0.001161 876.19104 890.49188
933.0 0.001072 875.91077 892.20746
879.0 0.001138 875.63092 892.61316
911.0 0.001098 875.35187 891.43457
865.0 0.001156 875.07336 889.25317
896.0 0.001116 874.79578 886.85168
885.0 0.001130 874.51868 884.68524
918.0 0.001089 874.24225 882.91736
879.0 0.001138 873.96643 881.56952
906.0 0.001104 873.69135 880.61670
860.0 0.001163 873.41718 880.02435
839.0 0.001192 873.14349 879.94952
899.0 0.001112 872.87054 880.06683
853.0 0.001172 872.59821 880.49725
849.0 0.001178 872.32678 881.47021
866.0 0.001155 872.05585 882.95184
915.0 0.001093 871.78564 884.94000
867.0 0.001153 871.51599 887.29077
915.0 0.001093 871.24725 889.55426
912.0 0.001096 870.97900 890.92511
831.0 0.001203 870.71155 890.64362
903.0 0.001107 870.44464 888.72559
900.0 0.001111 870.17847 885.94513
895.0 0.001117 869.91290 883.09119
892.0 0.001121 869.64813 880.59320
803.0 0.001245 869.38397 878.59930
875.0 0.001143 869.12036 877.07111
912.0 0.001096 868.85767 875.96356
809.0 0.001236 868.59546 875.20050
867.0 0.001153 868.33398 874.71674
856.0 0.001168 868.07300 874.52893
838.0 0.001193 867.81293 874.47559
866.0 0.001155 867.55328 874.60803
888.0 0.001126 867.29443 874.92749
856.0 0.001168 867.03589 875.44348
840.0 0.001190 866.77832 876.16858
850.0 0.001176 866.52124 877.13599
924.0 0.001082 866.26483 878.29828
852.0 0.001174 866.00885 879.64294
863.0 0.001159 865.75354 881.08118
861.0 0.001161 865.49884 882.45624
874.0 0.001144 865.24487 883.54620
876.0 0.001142 864.99121 884.13257
861.0 0.001161 864.73840 884.10345
900.0 0.001111 864.48596 883.52716
897.0 0.001115 864.23413 882.62775
845.0 0.001183 863.98291 881.68610
943.0 0.001060 863.73206 880.95087
903.0 0.001107 863.48193 880.84564
893.0 0.001120 863.23218 880.96198
870.0 0.001149 862.98303 881.47876
908.0 0.001101 862.73419 882.19995
894.0 0.001119 862.48602 882.77405
885.0 0.001130 862.23828 882.84338
858.0 0.001166 861.99084 882.33154
883.0 0.001133 861.74390 881.54102
883.0 0.001133 861.49756 880.82770
898.0 0.001114 861.25153 880.10681
887.0 0.001127 861.00592 878.66656
891.0 0.001122 860.76056 876.06604
873.0 0.001145 860.51575 872.99469
842.0 0.001188 860.27130 870.22632
860.0 0.001163 860.02716 868.08240
898.0 0.001114 859.78326 866.55426
880.0 0.001136 859.53961 865.49762
875.0 0.001143 859.29651 864.74847
872.0 0.001147 859.05353 864.17340
866.0 0.001155 858.81085 863.68127
845.0 0.001183 858.56830 863.21716
849.0 0.001178 858.32605 862.75342
790.0 0.001266 858.08398 862.28143
818.0 0.001222 857.84216 861.81592
858.0 0.001166 857.60034 861.35345
901.0 0.001110 857.35895 860.91516
811.0 0.001233 857.11749 860.54083
878.0 0.001139 856.87622 860.17657
895.0 0.001117 856.63483 859.85559
824.0 0.001214 856.39380 859.58057
865.0 0.001156 856.15265 859.35199
841.0 0.001189 855.91156 859.17218
822.0 0.001217 855.67029 859.04291
856.0 0.001168 855.42926 858.96783
802.0 0.001247 855.18799 858.94952
871.0 0.001148 854.94666 858.99011
892.0 0.001121 854.70526 859.08881
854.0 0.001171 854.46362 859.23981
826.0 0.001211 854.22198 859.43555
874.0 0.001144 853.98004 859.67590
831.0 0.001203 853.73798 859.88739
821.0 0.001218 853.49554 860.09534
888.0 0.001126 853.25311 860.31494
887.0 0.001127 853.01025 860.57538
796.0 0.001256 852.76715 860.90851
859.0 0.001164 852.52350 861.38934
871.0 0.001148 852.27972 861.87878
877.0 0.001140 852.03546 862.35297
898.0 0.001114 851.79083 862.67291
850.0 0.001176 851.54553 862.67908
808.0 0.001238 851.30005 862.26874
892.0 0.001121 851.05389 861.45599
876.0 0.001142 850.80713 860.36700
825.0 0.001212 850.55981 859.16394
842.0 0.001188 850.31183 857.97833
870.0 0.001149 850.06348 856.89288
872.0 0.001147 849.81433 855.94342
899.0 0.001112 849.56458 855.14288
920.0 0.001087 849.31390 854.49213
859.0 0.001164 849.06268 853.99017
873.0 0.001145 848.81055 853.63678
855.0 0.001170 848.55780 853.43530
807.0 0.001239 848.30389 853.38824
863.0 0.001159 848.04938 853.49036
877.0 0.001140 847.79388 853.71368
869.0 0.001151 847.53748 853.98578
863.0 0.001159 847.27991 854.20587
832.0 0.001202 847.02148 854.33344
867.0 0.001153 846.76196 854.43683
848.0 0.001179 846.50159 854.60168
882.0 0.001134 846.23987 854.84741
828.0 0.001208 845.97723 855.10339
851.0 0.001175 845.71338 855.22601
841.0 0.001189 845.44830 855.07086
873.0 0.001145 845.18201 854.60986
815.0 0.001227 844.91437 853.95276
836.0 0.001196 844.64575 853.25189
900.0 0.001111 844.37561 852.59735
850.0 0.001176 844.10419 852.01660
807.0 0.001239 843.83124 851.47559
870.0 0.001149 843.55719 850.92157
839.0 0.001192 843.28156 850.28101
838.0 0.001193 843.00433 849.57092
851.0 0.001175 842.72583 848.84479
852.0 0.001174 842.44574 848.16779
827.0 0.001209 842.16412 847.58881
836.0 0.001196 841.88098 847.13464
849.0 0.001178 841.59613 846.81000
782.0 0.001279 841.30994 846.59662
827.0 0.001209 841.02185 846.44910
830.0 0.001205 840.73218 846.29919
838.0 0.001193 840.44080 846.08679
856.0 0.001168 840.14752 845.79944
838.0 0.001193 839.85291 845.47314
863.0 0.001159 839.55615 845.14429
862.0 0.001160 839.25793 844.82098
816.0 0.001225 838.95758 844.47986
851.0 0.001175 838.65558 844.07953
835.0 0.001198 838.35156 843.59186
892.0 0.001121 838.04584 843.00989
859.0 0.001164 837.73804 842.35370
854.0 0.001171 837.42865 841.65302
890.0 0.001124 837.11719 840.94147
839.0 0.001192 836.80377 840.24707
834.0 0.001199 836.48822 839.58392
801.0 0.001248 836.17090 838.95941
813.0 0.001230 835.85156 838.38843
793.0 0.001261 835.53021 837.84204
812.0 0.001232 835.20667 837.32910
805.0 0.001242 834.88147 836.84723
884.0 0.001131 834.55408 836.39203
854.0 0.001171 834.22443 836.05017
873.0 0.001145 833.89288 835.66705
819.0 0.001221 833.55914 835.28143
855.0 0.001170 833.22351 834.91309
823.0 0.001215 832.88574 834.56006
883.0 0.001133 832.54596 834.22101
877.0 0.001140 832.20392 833.89386
853.0 0.001172 831.86017 833.57758
815.0 0.001227 831.51398 833.26837
864.0 0.001157 831.16577 832.99249
790.0 0.001266 830.81543 832.69366
832.0 0.001202 830.46332 832.39478
852.0 0.001174 830.10901 832.09534
791.0 0.001264 829.75262 831.79822
840.0 0.001190 829.39398 831.50995
871.0 0.001148 829.03363 831.23840
854.0 0.001171 828.67096 830.99335
839.0 0.001192 828.30634 830.78577
851.0 0.001175 827.93964 830.63098
850.0 0.001176 827.57092 830.54968
801.0 0.001248 827.20050 831.11810
800.0 0.001250 826.82782 831.41138
820.0 0.001220 826.45337 831.92548
835.0 0.001198 826.07678 832.73608
858.0 0.001166 825.69873 833.90710
856.0 0.001168 825.31854 835.50378
815.0 0.001227 824.93658 837.65387
858.0 0.001166 824.55255 840.65521
867.0 0.001153 824.16711 844.67657
804.0 0.001244 823.77954 849.24445
877.0 0.001140 823.39063 852.56329
849.0 0.001178 822.99939 852.13519
849.0 0.001178 822.60712 848.16785
834.0 0.001199 822.21283 843.07660
873.0 0.001145 821.81714 838.44037
835.0 0.001198 821.41992 834.74915
843.0 0.001186 821.02100 831.92688
814.0 0.001229 820.62079 829.71600
842.0 0.001188 820.21912 827.89191
919.0 0.001088 819.81610 826.33069
852.0 0.001174 819.41156 824.96960
830.0 0.001205 819.00610 823.77698
848.0 0.001179 818.59906 822.72382
822.0 0.001217 818.19122 821.78931
816.0 0.001225 817.78198 820.95160
893.0 0.001120 817.37177 820.19208
811.0 0.001233 816.96051 819.49615
794.0 0.001259 816.54840 818.85181
798.0 0.001253 816.13519 818.25629
828.0 0.001208 815.72144 817.68860
822.0 0.001217 815.30664 817.15039
816.0 0.001225 814.89154 816.63757
843.0 0.001186 814.47546 816.14758
826.0 0.001211 814.05902 815.68018
882.0 0.001134 813.64209 815.23535
807.0 0.001239 813.22473 814.81525
857.0 0.001167 812.80713 814.42017
840.0 0.001190 812.38898 814.05328
851.0 0.001175 811.97107 813.71649
800.0 0.001250 811.55267 813.37488
800.0 0.001250 811.13446 813.08679
810.0 0.001235 810.71606 812.79681
791.0 0.001264 810.29822 812.47296
887.0 0.001127 809.88031 812.09100
831.0 0.001203 809.46283 811.65479
825.0 0.001212 809.04547 811.20026
809.0 0.001236 808.62909 810.75165
766.0 0.001305 808.21283 810.32886
888.0 0.001126 807.79749 809.94745
806.0 0.001241 807.38263 809.61560
859.0 0.001164 806.96899 809.34052
823.0 0.001215 806.55615 809.12567
792.0 0.001263 806.14435 808.97180
836.0 0.001196 805.73340 808.87378
846.0 0.001182 805.32373 808.81830
820.0 0.001220 804.91583 808.77600
805.0 0.001242 804.50903 808.69849
861.0 0.001161 804.10382 808.52850
856.0 0.001168 803.70001 808.22156
800.0 0.001250 803.29810 807.77325
838.0 0.001193 802.89783 807.24774
840.0 0.001190 802.49957 806.66095
806.0 0.001241 802.10321 806.09930
816.0 0.001225 801.70929 805.60352
746.0 0.001340 801.31744 805.20300
803.0 0.001245 800.92786 804.87128
815.0 0.001227 800.54047 804.53217
811.0 0.001233 800.15601 804.06696
791.0 0.001264 799.77386 803.40363
829.0 0.001206 799.39453 802.59644
767.0 0.001304 799.01782 801.75513
794.0 0.001259 798.64441 800.96075
810.0 0.001235 798.27393 800.23230
824.0 0.001214 797.90625 799.57532
852.0 0.001174 797.54211 798.98260
778.0 0.001285 797.18097 798.44183
832.0 0.001202 796.82355 797.94275
753.0 0.001328 796.46954 797.47583
817.0 0.001224 796.11926 797.03357
727.0 0.001376 795.77240 796.61072
805.0 0.001242 795.42975 796.20447
801.0 0.001248 795.09064 795.81738
786.0 0.001272 794.75580 795.50842
840.0 0.001190 794.42487 795.14246
799.0 0.001252 794.09814 794.78693
832.0 0.001202 793.77570 794.44110
846.0 0.001182 793.45758 794.10504
779.0 0.001284 793.14386 793.77765
846.0 0.001182 792.83484 793.45990
784.0 0.001276 792.53015 793.17590
817.0 0.001224 792.23035 792.87799
773.0 0.001294 791.93512 792.59656
799.0 0.001252 791.64471 792.31897
814.0 0.001229 791.35956 792.05243
816.0 0.001225 791.07916 791.79688
768.0 0.001302 790.80389 791.54663
811.0 0.001233 790.53357 791.30762
781.0 0.001280 790.26862 791.07190
822.0 0.001217 790.00891 790.83728
854.0 0.001171 789.75439 790.60406
815.0 0.001227 789.50519 790.36890
811.0 0.001233 789.26166 790.13470
815.0 0.001227 789.02350 789.90265
751.0 0.001332 788.79071 789.67432
819.0 0.001221 788.56348 789.45251
798.0 0.001253 788.34192 789.29517
808.0 0.001238 788.12585 789.09497
776.0 0.001289 787.91565 788.90765
771.0 0.001297 787.71094 788.73401
858.0 0.001166 787.51227 788.57703
856.0 0.001168 787.31915 788.43677
793.0 0.001261 787.13171 788.31500
785.0 0.001274 786.95013 788.21344
834.0 0.001199 786.77435 788.13379
780.0 0.001282 786.60443 788.07782
825.0 0.001212 786.44019 788.04803
755.0 0.001325 786.28186 788.04645
814.0 0.001229 786.12909 788.07520
808.0 0.001238 785.98236 788.13623
794.0 0.001259 785.84125 788.22986
773.0 0.001294 785.70587 788.35315
750.0 0.001333 785.57611 788.50043
743.0 0.001346 785.45209 788.66284
783.0 0.001277 785.33374 788.82556
814.0 0.001229 785.22101 788.97400
828.0 0.001208 785.11377 789.09589
809.0 0.001236 785.01221 789.18756
788.0 0.001269 784.91595 789.25641
779.0 0.001284 784.82513 789.33850
836.0 0.001196 784.73969 789.41589
805.0 0.001242 784.65942 789.55908
774.0 0.001292 784.58453 789.71710
837.0 0.001195 784.51459 789.93994
785.0 0.001274 784.44971 790.23999
806.0 0.001241 784.38965 790.61719
867.0 0.001153 784.33466 791.04309
791.0 0.001264 784.28412 791.47241
823.0 0.001215 784.23840 791.86719
801.0 0.001248 784.19720 792.17334
754.0 0.001326 784.16040 792.29767
832.0 0.001202 784.12793 792.19232
770.0 0.001299 784.09961 791.90125
830.0 0.001205 784.07520 791.48267
811.0 0.001233 784.05487 790.96442
788.0 0.001269 784.03821 790.36597
811.0 0.001233 784.02515 789.78198
761.0 0.001314 784.01556 789.14923
780.0 0.001282 784.00934 788.56073
784.0 0.001276 784.00623 788.03894
791.0 0.001264 784.00604 787.59314
767.0 0.001304 784.00873 787.22198
776.0 0.001289 784.01404 786.91815
818.0 0.001222 784.02161 786.67316
791.0 0.001264 784.03168 786.48102
765.0 0.001307 784.04376 786.33783
789.0 0.001267 784.05780 786.24036
785.0 0.001274 784.07355 786.18573
798.0 0.001253 784.09082 786.17218
784.0 0.001276 784.10938 786.19739
802.0 0.001247 784.12903 786.26123
746.0 0.001340 784.14966 786.36481
814.0 0.001229 784.17096 786.50916
778.0 0.001285 784.19269 786.69659
765.0 0.001307 784.21466 786.93506
786.0 0.001272 784.23676 787.23859
835.0 0.001198 784.25854 787.63171
820.0 0.001220 784.27991 788.16486
736.0 0.001359 784.30084 788.81293
766.0 0.001305 784.32080 789.58319
763.0 0.001311 784.33978 790.40106
828.0 0.001208 784.35736 791.10864
776.0 0.001289 784.37354 791.53345
831.0 0.001203 784.38788 791.65369
765.0 0.001307 784.40027 791.60510
759.0 0.001318 784.41040 791.51947
793.0 0.001261 784.41821 791.42529
779.0 0.001284 784.42328 791.23676
763.0 0.001311 784.42548 790.86456
821.0 0.001218 784.42450 790.36957
750.0 0.001333 784.42035 789.87189
772.0 0.001295 784.41254 789.44824
825.0 0.001212 784.40088 789.13458
783.0 0.001277 784.38531 788.93561
842.0 0.001188 784.36572 788.83789
767.0 0.001304 784.34149 788.81714
768.0 0.001302 784.31293 788.84155
834.0 0.001199 784.27942 788.87970
828.0 0.001208 784.24103 788.90027
782.0 0.001279 784.19739 788.88403
789.0 0.001267 784.14844 788.78241
834.0 0.001199 784.09399 788.57678
773.0 0.001294 784.03375 788.25732
799.0 0.001252 783.96777 787.84406
823.0 0.001215 783.89575 787.37640
794.0 0.001259 783.81769 786.89478
826.0 0.001211 783.73334 786.42950
843.0 0.001186 783.64258 785.99683
769.0 0.001300 783.54517 785.60150
787.0 0.001271 783.44122 785.24359
800.0 0.001250 783.33051 784.91852
841.0 0.001189 783.21313 784.62122
767.0 0.001304 783.08875 784.34619
820.0 0.001220 782.95752 784.08899
830.0 0.001205 782.81940 783.84491
813.0 0.001230 782.67413 783.61041
838.0 0.001193 782.52191 783.38245
784.0 0.001276 782.36249 783.15833
779.0 0.001284 782.19623 782.93597
796.0 0.001256 782.02283 782.71399
788.0 0.001269 781.84241 782.49158
761.0 0.001314 781.65509 782.26709
770.0 0.001299 781.46100 782.04083
774.0 0.001292 781.25995 781.79553
788.0 0.001269 781.05231 781.56268
731.0 0.001368 780.83795 781.32599
789.0 0.001267 780.61731 781.08582
803.0 0.001245 780.39032 780.84161
791.0 0.001264 780.15723 780.59351
793.0 0.001261 779.91809 780.34155
785.0 0.001274 779.67340 780.08575
789.0 0.001267 779.42297 779.82642
811.0 0.001233 779.16760 779.56403
836.0 0.001196 778.90692 779.29889
799.0 0.001252 778.64160 779.03027
785.0 0.001274 778.37189 778.75928
728.0 0.001374 778.09802 778.48621
787.0 0.001271 777.82043 778.21204
778.0 0.001285 777.53925 777.93726
775.0 0.001290 777.25507 777.66296
775.0 0.001290 776.96820 777.38971
777.0 0.001287 776.67920 777.11981
692.0 0.001445 776.38818 776.85498
785.0 0.001274 776.09607 776.59894
761.0 0.001314 775.80298 776.35577
707.0 0.001414 775.50940 776.12457
789.0 0.001267 775.21582 775.92877
790.0 0.001266 774.92303 775.77142
761.0 0.001314 774.63110 775.66260
767.0 0.001304 774.34094 775.61029
781.0 0.001280 774.05292 775.61426
807.0 0.001239 773.76794 775.65399
770.0 0.001299 773.48621 775.67090
809.0 0.001236 773.20831 775.56219
771.0 0.001297 772.93500 775.25800
764.0 0.001309 772.66687 774.78729
734.0 0.001362 772.40454 774.24713
748.0 0.001337 772.14868 773.71564
776.0 0.001289 771.89978 773.22797
820.0 0.001220 771.65857 772.79236
779.0 0.001284 771.42572 772.40625
755.0 0.001325 771.20160 772.06439
787.0 0.001271 770.98706 771.76141
751.0 0.001332 770.78253 771.49219
740.0 0.001351 770.58899 771.24951
768.0 0.001302 770.40662 771.03986
771.0 0.001297 770.23608 770.85693
777.0 0.001287 770.07788 770.70050
770.0 0.001299 769.93256 770.57013
834.0 0.001199 769.80090 770.46625
780.0 0.001282 769.68286 770.38770
748.0 0.001337 769.57922 770.33429
827.0 0.001209 769.49048 770.30255
782.0 0.001279 769.41669 770.28613
739.0 0.001353 769.35834 770.27783
776.0 0.001289 769.31561 770.26349
742.0 0.001348 769.28864 770.23700
792.0 0.001263 769.27765 770.19604
774.0 0.001292 769.28265 770.14557
775.0 0.001290 769.30365 770.09546
801.0 0.001248 769.34058 770.05615
802.0 0.001247 769.39313 770.03760
740.0 0.001351 769.46118 770.03772
769.0 0.001300 769.54419 770.06116
760.0 0.001316 769.64178 770.10803
730.0 0.001370 769.75305 770.17670
787.0 0.001271 769.87775 770.26611
724.0 0.001381 770.01471 770.45496
752.0 0.001330 770.16278 770.59058
735.0 0.001361 770.32098 770.74329
752.0 0.001330 770.48804 770.91223
776.0 0.001289 770.66199 771.09534
783.0 0.001277 770.84161 771.29340
737.0 0.001357 771.02478 771.50604
766.0 0.001305 771.20917 771.73578
803.0 0.001245 771.39270 771.98779
737.0 0.001357 771.57263 772.27008
778.0 0.001285 771.74628 772.59418
736.0 0.001359 771.91034 772.97131
794.0 0.001259 772.06134 773.41003
776.0 0.001289 772.19568 773.90460
804.0 0.001244 772.30975 774.41815
786.0 0.001272 772.39844 774.84912
798.0 0.001253 772.45764 775.05951
768.0 0.001302 772.48199 775.00952
775.0 0.001290 772.46631 774.77728
789.0 0.001267 772.40460 774.46790
776.0 0.001289 772.29047 774.15405
769.0 0.001300 772.11731 773.83160
808.0 0.001238 771.87787 773.46802
733.0 0.001364 771.56482 773.04462
742.0 0.001348 771.16943 772.53149
759.0 0.001318 770.68292 771.93945
740.0 0.001351 770.09644 771.26917
790.0 0.001266 769.39948 770.51398
791.0 0.001264 768.58234 769.66510
748.0 0.001337 767.63336 768.70996
783.0 0.001277 766.54047 767.63617
693.0 0.001443 765.29077 766.42749
743.0 0.001346 763.87268 765.06415
777.0 0.001287 762.26947 763.50818
731.0 0.001368 760.46820 761.71783
813.0 . . .
loop_
_refln_index_h
_refln_index_k
_refln_index_l
_refln_observed_status
_refln_F_squared_meas
_refln_F_squared_calc
_refln_phase_calc
_refln_d_spacing
_gsas_i100_meas
0 1 1 o 1844.605 1717.397 0.00 8.32264 83.44
0 0 2 o -0.063 23.243 0.00 7.68672 0.00
0 1 2 o 129.048 55.632 0.00 6.07116 3.06
0 2 0 o 1909.645 304.862 180.00 4.94931 14.90
0 2 1 o 310.815 52.188 0.00 4.71118 4.39
0 1 3 o 2602.962 2408.591 180.00 4.55081 34.40
1 0 -1 o 2580.265 2454.399 180.00 4.30660 15.21
1 0 1 o 1038.441 985.745 180.00 4.30413 6.08
0 2 2 o 1778.830 1794.309 180.00 4.16132 19.58
1 1 0 o 372.855 436.067 180.00 4.08509 3.94
1 1 -1 o 770.542 450.868 0.00 3.94904 7.56
1 1 1 o 116.593 62.524 0.00 3.94713 1.15
0 0 4 o 251.249 34.292 180.00 3.84336 1.15
1 1 -2 o 2253.486 1836.149 0.00 3.60877 18.29
1 1 2 o 654.002 526.543 180.00 3.60586 5.34
0 1 4 o 1694.271 1497.447 0.00 3.58278 13.55
0 2 3 o 6.901 4.221 0.00 3.56001 0.05
1 0 -3 o 18543.807 19038.879 0.00 3.37667 65.65
1 0 3 o 0.819 0.840 0.00 3.37310 0.00
1 2 0 o 626.537 618.718 180.00 3.32336 4.31
1 2 -1 o 249.695 263.410 180.00 3.24886 1.63
1 2 1 o 924.695 964.221 0.00 3.24780 6.03
1 1 -3 o 15886.224 15719.478 0.00 3.19584 100.00
0 3 1 o 586.330 646.874 0.00 3.22607 3.78
1 1 3 o 1426.139 1395.966 0.00 3.19281 8.97
0 2 4 o 470.938 796.303 0.00 3.03558 2.69
1 2 -2 o 48.945 120.147 180.00 3.05134 0.29
0 3 2 o 113.015 139.915 180.00 3.03201 0.65
1 2 2 o 46.237 139.287 0.00 3.04958 0.27
0 1 5 o -1.031 33.988 180.00 2.93630 0.00
1 1 -4 o 2992.650 3560.884 0.00 2.80058 14.21
0 3 3 o 158.692 214.855 0.00 2.77421 0.74
1 2 -3 o 1209.062 1139.230 0.00 2.78933 5.68
1 1 4 o 933.007 1005.763 180.00 2.79787 4.41
1 2 3 o 1129.543 1167.601 180.00 2.78732 5.31
1 3 0 o -2.161 106.119 0.00 2.65775 0.00
0 2 5 o 339.025 394.013 0.00 2.61174 1.40
1 3 -1 o 62.406 57.743 180.00 2.61918 0.26
1 3 1 o 1262.021 1167.080 0.00 2.61862 5.18
1 0 -5 o 299.303 375.862 180.00 2.53721 0.58
0 0 6 o 71.184 35.349 0.00 2.56224 0.14
1 0 5 o 188.549 241.970 0.00 2.53469 0.36
0 3 4 o 15.774 8.415 180.00 2.50351 0.06
1 2 -4 o 256.899 222.910 180.00 2.51485 0.96
1 2 4 o 59.912 43.154 0.00 2.51289 0.22
1 3 -2 o 439.866 376.626 180.00 2.51233 1.64
1 3 2 o 241.094 179.733 180.00 2.51135 0.89
0 1 6 o 86.260 83.444 180.00 2.48049 0.32
1 1 -5 o 594.071 526.194 0.00 2.45776 2.11
0 4 0 o 586.171 708.273 180.00 2.47465 1.06
1 1 5 o 1114.412 1271.057 0.00 2.45546 3.97
0 4 1 o 149.139 291.211 0.00 2.44320 0.53
0 4 2 o 432.464 537.799 180.00 2.35559 1.41
1 3 -3 o 44.584 40.241 0.00 2.35992 0.15
1 3 3 o 999.472 1669.681 180.00 2.35870 3.28
2 0 0 o 1418.402 2066.346 180.00 2.24241 2.07
0 2 6 o 2496.513 2808.702 180.00 2.27540 7.50
0 3 5 o 54.214 94.579 180.00 2.24943 0.16
1 2 -5 o 295.968 462.229 180.00 2.25782 0.88
1 2 5 o 21.360 28.671 180.00 2.25604 0.06
0 4 3 o 87.975 306.003 180.00 2.22842 0.27
2 1 0 o 349.748 526.244 0.00 2.18700 0.97
2 0 -2 o 188.460 133.282 180.00 2.15330 0.25
2 1 -1 o 261.645 207.069 180.00 2.16551 0.70
2 1 1 o 144.290 114.237 180.00 2.16489 0.38
1 1 -6 o 565.637 425.896 180.00 2.17156 1.51
2 0 2 o 2244.940 1618.742 180.00 2.15207 2.96
1 3 -4 o 19.990 29.438 180.00 2.18663 0.06
1 3 4 o 48.159 55.778 0.00 2.18534 0.14
2 1 -2 o 81.222 46.363 180.00 2.10409 0.20
1 1 6 o 523.741 374.375 180.00 2.16966 1.41
0 1 7 o 136.343 75.981 180.00 2.14407 0.36
1 4 0 o 560.156 414.613 180.00 2.16670 1.50
2 1 2 o 1665.928 960.888 0.00 2.10294 4.15
1 4 1 o 10.446 5.765 0.00 2.14534 0.03
1 4 -1 o 116.705 58.467 180.00 2.14565 0.30
0 4 4 o 372.828 209.467 180.00 2.08066 0.91
2 2 0 o -1.251 66.451 0.00 2.04255 0.00
1 4 2 o 0.050 0.042 180.00 2.08515 0.00
2 1 -3 o 3.535 2.354 0.00 2.01223 0.01
1 4 -2 o 1531.150 1306.778 0.00 2.08571 3.75
2 2 -1 o 6.131 6.276 0.00 2.02501 0.01
2 2 1 o 167.767 173.080 180.00 2.02450 0.39
0 3 6 o 445.782 432.715 180.00 2.02372 1.02
1 2 -6 o 400.660 385.912 180.00 2.02995 0.92
2 1 3 o 21.152 18.957 180.00 2.01072 0.05
0 2 7 o 215.203 304.341 0.00 2.00744 0.49
1 2 6 o 243.663 271.894 0.00 2.02840 0.57
2 2 -2 o -0.170 7.007 180.00 1.97452 0.00
1 3 -5 o 6.948 4.170 0.00 2.01132 0.02
1 3 5 o 133.222 116.848 0.00 2.01006 0.30
2 0 -4 o -15.047 860.179 180.00 1.93775 0.00
1 0 -7 o -3.810 286.551 0.00 1.97324 0.00
2 2 2 o -0.386 32.625 0.00 1.97357 0.00
1 4 3 o 477.240 616.040 180.00 1.99528 1.06
1 4 -3 o 304.412 241.571 180.00 1.99601 0.67
0 5 1 o 26.603 628.820 180.00 1.96351 0.07
1 0 7 o -0.446 17.827 0.00 1.97158 0.00
2 0 4 o -7.878 364.427 0.00 1.93595 0.00
1 1 -7 o -5.330 386.185 180.00 1.93516 0.00
2 1 -4 o -3.057 192.438 180.00 1.90166 0.00
0 4 5 o -2.359 145.794 0.00 1.92781 0.00
2 2 -3 o -1.321 60.895 180.00 1.89802 0.00
0 0 8 o -3.157 170.378 0.00 1.92168 0.00
1 1 7 o -5.587 271.352 180.00 1.93360 0.00
0 5 2 o 0.023 7.123 0.00 1.91716 0.00
2 1 4 o -4.890 369.237 180.00 1.89996 0.00
2 2 3 o -3.148 175.093 180.00 1.89675 0.00
0 1 8 o -0.116 7.875 0.00 1.88646 0.00
1 4 4 o -3.532 235.253 180.00 1.88701 0.00
1 4 -4 o -0.917 72.961 0.00 1.88785 0.00
2 3 0 o -6.009 259.932 180.00 1.85464 0.00
2 3 -1 o 71.121 105.824 180.00 1.84149 0.13
2 3 1 o 0.431 0.737 180.00 1.84110 0.00
0 5 3 o 196.530 257.656 0.00 1.84670 0.37
1 3 6 o 479.066 727.967 0.00 1.84404 0.90
0 3 7 o 112.376 284.260 180.00 1.82824 0.21
1 2 -7 o 13.532 12.025 180.00 1.83293 0.02
1 3 -6 o 80.293 80.104 180.00 1.84520 0.15
2 2 -4 o 11.197 8.526 180.00 1.80438 0.02
2 1 -5 o 588.256 324.670 0.00 1.78303 1.00
2 3 -2 o 440.127 374.422 0.00 1.80327 0.77
1 2 7 o 916.846 1103.139 0.00 1.83160 1.67
2 2 4 o 229.650 178.969 0.00 1.80293 0.40
2 3 2 o 595.710 476.889 0.00 1.80255 1.05
0 2 8 o 102.689 78.497 180.00 1.79139 0.18
1 5 0 o 621.875 405.188 0.00 1.81112 1.10
0 4 6 o 2.681 1.509 180.00 1.78000 0.00
2 1 5 o 553.527 301.602 0.00 1.78128 0.94
1 5 1 o 786.455 570.642 180.00 1.79859 1.37
1 5 -1 o 826.415 620.875 180.00 1.79877 1.45
0 5 4 o 116.013 48.214 180.00 1.75996 0.19
1 4 5 o 264.941 102.160 180.00 1.77069 0.44
2 3 -3 o 106.744 44.268 0.00 1.74443 0.17
1 4 -5 o 22.513 10.504 0.00 1.77155 0.04
1 1 -8 o -1.170 38.991 0.00 1.73954 0.00
2 3 3 o 108.372 67.092 0.00 1.74345 0.17
1 5 2 o 499.522 218.353 0.00 1.76268 0.82
2 0 -6 o -0.742 34.270 180.00 1.68833 0.00
1 5 -2 o 495.356 230.666 180.00 1.76301 0.82
2 2 -5 o 481.394 520.635 0.00 1.70211 0.74
1 1 8 o -1.243 52.363 0.00 1.73824 0.00
2 1 -6 o 399.750 1218.052 0.00 1.66430 0.60
2 2 5 o 257.193 233.837 180.00 1.70059 0.39
1 5 3 o 114.459 91.053 180.00 1.70737 0.18
1 3 7 o 15.719 18.582 0.00 1.69245 0.02
2 0 6 o -3.158 172.453 180.00 1.68655 0.00
1 5 -3 o 0.010 0.023 0.00 1.70784 0.00
2 3 -4 o 28.435 121.822 180.00 1.67091 0.05
0 1 9 o -0.264 25.125 0.00 1.68328 0.00
1 3 -7 o 122.502 106.390 0.00 1.69350 0.19
0 3 8 o 2.511 30.784 0.00 1.66057 0.01
0 5 5 o 3.781 12.380 0.00 1.66453 0.01
2 3 4 o -6.521 353.585 0.00 1.66976 0.00
1 2 -8 o 26.789 64.295 180.00 1.66416 0.04
2 1 6 o 0.745 7.503 0.00 1.66259 0.00
2 4 0 o 53.616 261.038 180.00 1.66168 0.08
0 4 7 o -6.431 285.644 180.00 1.64261 0.00
1 2 8 o 13.182 58.528 180.00 1.66302 0.02
2 4 -1 o -2.578 156.752 180.00 1.65220 0.00
2 4 1 o -0.141 36.883 180.00 1.65192 0.00
1 4 6 o -1.634 87.936 0.00 1.65404 0.00
1 4 -6 o 2.242 148.753 0.00 1.65488 0.01
0 6 0 o -3.469 142.601 180.00 1.64977 0.00
0 6 1 o -7.213 354.916 0.00 1.64035 0.00
1 5 4 o -0.089 1.951 0.00 1.63805 0.00
2 2 -6 o 764.681 1795.990 0.00 1.59792 1.04
2 4 -2 o -15.051 710.047 0.00 1.62443 0.00
2 4 2 o -0.798 26.403 0.00 1.62390 0.00
0 2 9 o -23.654 1006.135 0.00 1.61470 0.00
1 5 -4 o -1.061 71.694 180.00 1.63860 0.00
1 0 -9 o 61.968 173.980 180.00 1.59686 0.04
0 6 2 o -7.891 304.440 0.00 1.61304 0.00
2 3 -5 o 24.117 676.679 180.00 1.58872 0.05
2 2 6 o 5.979 31.100 0.00 1.59641 0.01
1 1 -9 o -4.351 208.845 0.00 1.57648 0.00
2 3 5 o -2.179 76.860 0.00 1.58748 0.00
2 4 -3 o 135.048 299.019 180.00 1.58102 0.18
2 1 -7 o 334.936 1085.740 0.00 1.55049 0.43
2 4 3 o 35.149 187.146 0.00 1.58029 0.05
1 0 9 o 1.097 3.637 180.00 1.59573 0.00
0 5 6 o 0.018 0.031 0.00 1.56658 0.00
0 6 3 o 233.013 728.110 180.00 1.57039 0.31
1 1 9 o -0.585 43.025 0.00 1.57539 0.00
1 5 5 o 34.639 55.257 0.00 1.56022 0.04
1 3 8 o 88.676 487.895 0.00 1.55679 0.12
1 3 -8 o 35.350 38.301 180.00 1.55772 0.04
2 1 7 o -1.788 51.272 180.00 1.54888 0.00
1 5 -5 o 159.087 321.085 180.00 1.56081 0.20
1 4 7 o -4.245 156.714 180.00 1.54202 0.00
3 0 -1 o 483.543 1037.304 180.00 1.48808 0.28
1 6 0 o 6.414 30.037 180.00 1.54833 0.01
0 0 10 o -3.332 112.949 180.00 1.53734 0.00
2 4 -4 o 103.401 78.338 0.00 1.52567 0.12
0 4 8 o 35.522 41.892 0.00 1.51779 0.04
0 3 9 o 13.077 16.429 0.00 1.51694 0.02
1 4 -7 o -0.439 16.419 0.00 1.54281 0.00
3 0 1 o 276.873 525.645 0.00 1.48777 0.16
1 6 -1 o -0.958 31.212 0.00 1.54060 0.00
1 6 1 o -0.195 9.015 0.00 1.54048 0.00
0 6 4 o 179.859 168.457 0.00 1.51600 0.21
2 4 4 o 230.480 140.454 0.00 1.52479 0.27
1 2 -9 o 469.895 421.595 180.00 1.51972 0.55
2 2 -7 o 218.312 525.788 0.00 1.49640 0.25
0 1 10 o 10.049 9.910 0.00 1.51913 0.01
3 1 0 o -0.155 24.895 0.00 1.47818 0.00
2 3 -6 o 292.088 383.568 0.00 1.50300 0.34
1 2 9 o 34.976 31.960 0.00 1.51874 0.04
3 1 -1 o -0.959 47.665 180.00 1.47154 0.00
1 6 2 o 2.106 2.063 0.00 1.51774 0.00
1 6 -2 o 61.064 73.807 0.00 1.51796 0.07
3 1 1 o 0.169 68.967 180.00 1.47125 0.00
2 3 6 o 47.101 90.353 0.00 1.50174 0.06
2 0 -8 o 312.589 391.445 180.00 1.45994 0.17
3 1 -2 o 4.172 3.056 180.00 1.45187 0.00
2 2 7 o 0.745 9.877 0.00 1.49495 0.00
3 0 -3 o 1805.407 618.752 180.00 1.43553 0.92
0 5 7 o 2.705 10.221 180.00 1.47047 0.00
2 5 0 o 522.348 511.528 180.00 1.48410 0.58
3 1 2 o 320.876 209.255 0.00 1.45130 0.34
1 5 6 o -0.808 40.352 0.00 1.47865 0.00
2 5 -1 o -0.005 0.077 180.00 1.47733 0.00
0 2 10 o 458.445 427.081 0.00 1.46815 0.50
2 5 1 o -0.049 1.508 0.00 1.47714 0.00
2 1 -8 o 1.361 0.244 0.00 1.44432 0.00
1 6 3 o 21.716 22.450 0.00 1.48201 0.02
2 4 -5 o 72.547 48.020 0.00 1.46234 0.08
1 6 -3 o 145.334 126.720 180.00 1.48231 0.16
1 5 -6 o 0.109 0.565 180.00 1.47925 0.00
3 1 -3 o 951.785 162.764 180.00 1.42067 0.94
3 0 3 o 420.357 118.076 180.00 1.43471 0.21
3 2 0 o 2.803 0.560 0.00 1.43109 0.00
0 6 5 o 8.321 69.585 180.00 1.45372 0.01
2 4 5 o 87.452 68.475 0.00 1.46137 0.09
2 5 -2 o 11.049 27.710 180.00 1.45738 0.01
2 5 2 o 36.938 87.917 180.00 1.45700 0.04
3 2 -1 o 0.947 0.125 180.00 1.42506 0.00
3 2 1 o 1.056 0.154 180.00 1.42479 0.00
2 0 8 o 123.849 158.490 0.00 1.45841 0.07
1 1 -10 o 8.937 4.239 180.00 1.43929 0.01
3 2 -2 o 179.317 10.741 0.00 1.40717 0.17
3 1 3 o 215.368 39.794 180.00 1.41987 0.21
2 1 8 o 92.648 23.654 0.00 1.44283 0.10
1 4 8 o 12.418 4.680 0.00 1.43732 0.01
1 3 9 o 1.414 0.492 0.00 1.43655 0.00
2 3 -7 o 196.653 68.649 180.00 1.41760 0.19
1 3 -9 o 88.007 48.516 180.00 1.43738 0.09
1 6 4 o 426.842 160.949 180.00 1.43599 0.44
1 1 10 o 46.013 16.788 180.00 1.43837 0.05
3 2 2 o 0.012 0.001 0.00 1.40665 0.00
1 4 -8 o 52.729 32.598 180.00 1.43806 0.05
2 5 -3 o 115.178 16.423 0.00 1.42579 0.11
1 6 -4 o 475.490 333.767 180.00 1.43635 0.49
2 5 3 o 206.958 28.517 0.00 1.42526 0.21
0 4 9 o 59.297 3.946 0.00 1.40578 0.06
2 2 -8 o 1.077 0.314 180.00 1.40029 0.00
3 1 -4 o 254.822 58.879 180.00 1.38014 0.24
2 3 7 o 87.084 15.729 0.00 1.41637 0.09
3 2 -3 o 273.461 44.673 0.00 1.37871 0.25
0 3 10 o 630.106 240.639 180.00 1.39351 0.60
0 7 1 o 10.769 0.675 0.00 1.40814 0.01
2 4 -6 o 170.770 58.956 180.00 1.39467 0.16
3 1 4 o 14.729 2.700 180.00 1.37917 0.01
3 2 3 o 37.330 5.243 180.00 1.37798 0.03
1 2 -10 o 125.575 32.919 0.00 1.39571 0.12
0 6 6 o 20.008 13.509 0.00 1.38711 0.02
2 2 8 o 764.845 158.277 0.00 1.39893 0.73
1 5 7 o 253.809 63.266 180.00 1.39699 0.24
0 5 8 o 609.798 104.817 0.00 1.37890 0.57
2 4 6 o 5.465 2.125 180.00 1.39366 0.01
3 0 -5 o -0.178 2.619 180.00 1.34502 0.00
1 2 10 o 206.798 71.015 0.00 1.39487 0.20
0 1 11 o 82.225 59.377 0.00 1.38386 0.08
0 7 2 o 1.188 1.082 0.00 1.39075 0.00
1 5 -7 o 0.325 0.073 180.00 1.39758 0.00
2 5 -4 o 81.164 98.145 180.00 1.38480 0.08
2 5 4 o 117.133 84.029 180.00 1.38414 0.11
3 3 -1 o 47.444 46.485 0.00 1.35650 0.04
3 3 0 o -0.619 17.434 180.00 1.36170 0.00
1 6 5 o 171.165 101.363 0.00 1.38268 0.16
3 3 1 o -0.023 0.275 180.00 1.35627 0.00
2 1 -9 o -0.823 32.365 180.00 1.34688 0.00
1 6 -5 o -0.542 15.378 0.00 1.38309 0.00
0 7 3 o -1.988 70.963 180.00 1.36314 0.00
3 0 5 o -0.228 21.015 0.00 1.34389 0.00
0 2 11 o -0.161 7.702 0.00 1.34499 0.00
2 1 9 o -0.036 4.992 180.00 1.34552 0.00
1 7 0 o 33.760 68.220 180.00 1.34864 0.03
1 7 -1 o -0.105 6.151 0.00 1.34352 0.00
