#------------------------------------------------------------------------------
#$Date: 2020-04-22 22:24:56 +0300 (Wed, 22 Apr 2020) $
#$Revision: 251025 $
#$URL: file:///home/coder/svn-repositories/cod/cif/4/00/35/4003535.cif $
#------------------------------------------------------------------------------
#
# This file is available in the Crystallography Open Database (COD),
# http://www.crystallography.net/
#
# All data on this site have been placed in the public domain by the
# contributors.
#
data_4003535
loop_
_publ_author_name
'M\,aczka, Miros\/law'
'Gagor, Anna'
'Zar\,eba, Jan K.'
'Stefanska, Dagmara'
'Drozd, Marek'
'Balciunas, Sergejus'
'\<Sim\.enas, Mantas'
'Banys, Juras'
'Sieradzki, Adam'
_publ_section_title
;
 Three-Dimensional Perovskite Methylhydrazinium Lead Chloride with Two
 Polar Phases and Unusual Second-Harmonic Generation Bistability above
 Room Temperature
;
_journal_name_full               'Chemistry of Materials'
_journal_paper_doi               10.1021/acs.chemmater.0c00973
_journal_year                    2020
_chemical_formula_sum            'C H7 Cl3 N2 Pb'
_chemical_formula_weight         360.63
_space_group_crystal_system      orthorhombic
_space_group_IT_number           26
_space_group_name_Hall           'P -2 -2b'
_space_group_name_H-M_alt        'P b 21 m'
_atom_sites_solution_hydrogens   mixed
_audit_creation_method           SHELXL-2018/3
_cell_angle_alpha                90
_cell_angle_beta                 90
_cell_angle_gamma                90
_cell_formula_units_Z            4
_cell_length_a                   5.7416(4)
_cell_length_b                   11.4227(2)
_cell_length_c                   11.4054(3)
_cell_measurement_reflns_used    13962
_cell_measurement_temperature    360.1(1)
_cell_measurement_theta_max      32.2630
_cell_measurement_theta_min      3.4130
_cell_volume                     748.02(6)
_computing_cell_refinement       'CrysAlisPro 1.171.38.46 (Rigaku OD, 2015)'
_computing_data_collection       'CrysAlisPro 1.171.38.46 (Rigaku OD, 2015)'
_computing_structure_refinement  'SHELXL-2018/3 (Sheldrick, 2018)'
_diffrn_ambient_environment      air
_diffrn_ambient_temperature      360.1(1)
_diffrn_detector                 'CCD plate'
_diffrn_detector_area_resol_mean 10.6249
_diffrn_detector_type            Atlas
_diffrn_measured_fraction_theta_full 0.997
_diffrn_measured_fraction_theta_max 0.951
_diffrn_measurement_device       'four-circle diffractometer'
_diffrn_measurement_device_type  'Xcalibur, Atlas'
_diffrn_radiation_monochromator  graphite
_diffrn_radiation_probe          x-ray
_diffrn_radiation_type           'Mo K\a'
_diffrn_radiation_wavelength     0.71073
_diffrn_reflns_av_R_equivalents  0.0413
_diffrn_reflns_av_unetI/netI     0.0339
_diffrn_reflns_Laue_measured_fraction_full 0.997
_diffrn_reflns_Laue_measured_fraction_max 0.951
_diffrn_reflns_limit_h_max       7
_diffrn_reflns_limit_h_min       -7
_diffrn_reflns_limit_k_max       15
_diffrn_reflns_limit_k_min       -15
_diffrn_reflns_limit_l_max       15
_diffrn_reflns_limit_l_min       -14
_diffrn_reflns_number            7752
_diffrn_reflns_point_group_measured_fraction_full 0.977
_diffrn_reflns_point_group_measured_fraction_max 0.905
_diffrn_reflns_theta_full        28.000
_diffrn_reflns_theta_max         29.360
_diffrn_reflns_theta_min         3.548
_diffrn_source                   'fine-focus sealed X-ray tube'
_diffrn_source_type              'Enhance (Mo) X-ray Source'
_exptl_absorpt_coefficient_mu    23.523
_exptl_absorpt_correction_T_max  0.640
_exptl_absorpt_correction_T_min  0.032
_exptl_absorpt_correction_type   multi-scan
_exptl_absorpt_process_details
;
CrysAlisPro 1.171.38.43 (Rigaku Oxford Diffraction, 2015)
Empirical absorption correction using spherical harmonics,
 implemented in SCALE3 ABSPACK scaling algorithm.
;
_exptl_crystal_density_diffrn    3.202
_exptl_crystal_description       plate
_exptl_crystal_F_000             640
_exptl_crystal_size_max          0.2
_exptl_crystal_size_mid          0.15
_exptl_crystal_size_min          0.08
_refine_diff_density_max         1.617
_refine_diff_density_min         -1.313
_refine_diff_density_rms         0.256
_refine_ls_abs_structure_details
;
 Flack x determined using 796 quotients [(I+)-(I-)]/[(I+)+(I-)]
 (Parsons, Flack and Wagner, Acta Cryst. B69 (2013) 249-259).
;
_refine_ls_abs_structure_Flack   -0.023(13)
_refine_ls_extinction_coef       0.0062(4)
_refine_ls_extinction_expression Fc^*^=kFc[1+0.001xFc^2^\l^3^/sin(2\q)]^-1/4^
_refine_ls_extinction_method     'SHELXL-2018/3 (Sheldrick 2018)'
_refine_ls_goodness_of_fit_ref   1.053
_refine_ls_hydrogen_treatment    constr
_refine_ls_matrix_type           full
_refine_ls_number_parameters     75
_refine_ls_number_reflns         1954
_refine_ls_number_restraints     1
_refine_ls_restrained_S_all      1.053
_refine_ls_R_factor_all          0.0329
_refine_ls_R_factor_gt           0.0310
_refine_ls_shift/su_max          0.000
_refine_ls_shift/su_mean         0.000
_refine_ls_structure_factor_coef Fsqd
_refine_ls_weighting_details
'w=1/[\s^2^(Fo^2^)+(0.0447P)^2^] where P=(Fo^2^+2Fc^2^)/3'
_refine_ls_weighting_scheme      calc
_refine_ls_wR_factor_gt          0.0728
_refine_ls_wR_factor_ref         0.0748
_reflns_Friedel_coverage         0.811
_reflns_Friedel_fraction_full    0.955
_reflns_Friedel_fraction_max     0.853
_reflns_number_gt                1868
_reflns_number_total             1954
_reflns_threshold_expression     'I > 2\s(I)'
_cod_data_source_file            cm0c00973_si_003.cif
_cod_data_source_block           PhaseI
_cod_database_code               4003535
_shelx_shelxl_version_number     2018/3
_shelx_space_group_comment
;
The symmetry employed for this shelxl refinement is uniquely defined
by the following loop, which should always be used as a source of
symmetry information in preference to the above space-group names.
They are only intended as comments.
;
_oxdiff_exptl_absorpt_empirical_full_min 0.421
_oxdiff_exptl_absorpt_empirical_full_max 2.317
_oxdiff_exptl_absorpt_empirical_details
;
Empirical correction (ABSPACK) includes:
- Absorption correction using spherical harmonics
- Frame scaling
;
_shelx_res_file
;
TITL mhypbbr3_1626_2_360_00
    trans.res
    created by SHELXL-2018/3 at 11:24:01 on 17-Jan-2020
CELL 0.71073 5.7416 11.4227 11.4054   90.0000 90.0000 90.0000
ZERR 4 0.0004 0.0002 0.0003 0.0000 0.0000 0.0000
LATT -1
SYMM -x, 0.5+y,-z
SYMM x, y, -z
SYMM -x, 0.5+y, z
SFAC C H N Cl Pb
UNIT 4 28 8 12 4

L.S. 20
PLAN  20
BOND $H
htab
list 4
fmap 2
ACTA 56
EQIV $5 x, y, -z+1
HTAB N2 Cl2_$5
EQIV $7 x, y, z+1
HTAB N2 Cl3_$7
EQIV $8 -x+1, y+1/2, -z+1
HTAB N2 Cl1_$8
HTAB N2 Cl2_$8
HTAB C2 Cl3_$7
EQIV $9 -x+2, y+1/2, -z+1
HTAB C2 Cl4_$9
EQIV $1 x+1, y, z
HTAB N1 Cl5_$1
eqiv $10 1-x, -0.5+y, 1-z
omit 8 0 0
bind Pb2 Cl5_$10
WGHT    0.044700
EXTI    0.006234
FVAR       0.29212
PB1   5    0.484331    0.483606    0.000000    10.50000    0.02653    0.02276 =
         0.02864    0.00000    0.00000   -0.00029
PB2   5    0.595415    0.496412    0.500000    10.50000    0.03103    0.02920 =
         0.03004    0.00000    0.00000    0.00169
CL1   4    0.098308    0.412811    0.500000    10.50000    0.02995    0.04078 =
         0.07607    0.00000    0.00000   -0.00210
CL2   4    0.468777    0.480635    0.250341    11.00000    0.07216    0.09165 =
         0.02740   -0.00610   -0.00314   -0.00151
CL3   4    0.522485    0.730661    0.000000    10.50000    0.05822    0.02356 =
         0.14102    0.00000    0.00000    0.00166
CL4   4    0.979250    0.504705    0.000000    10.50000    0.03205    0.04946 =
         0.10605    0.00000    0.00000    0.00313
CL5   4    0.393434    0.718985    0.500000    10.50000    0.04039    0.02443 =
         0.10652    0.00000    0.00000    0.00278
N2    3    0.836818    0.717382    0.717095    11.00000    0.07686    0.05810 =
         0.07817    0.00535    0.00729    0.01583
AFIX  23
H2A   2    0.716206    0.693128    0.759669    11.00000   -1.20000
H2B   2    0.787237    0.776051    0.672221    11.00000   -1.20000
AFIX   0

C2    1    1.023885    0.765080    0.800969    11.00000    0.05674    0.08801 =
         0.05621   -0.02481   -0.00212   -0.02307
AFIX 133
H2C   2    1.149196    0.709747    0.806814    11.00000   -1.50000
H2D   2    0.956753    0.777235    0.877090    11.00000   -1.50000
H2E   2    1.082469    0.838031    0.771355    11.00000   -1.50000
AFIX   0
N1    3    0.902800    0.630541    0.648079    11.00000    0.08529    0.08376 =
         0.07326   -0.02813    0.00368   -0.02536
AFIX   7
H1A   2    1.011672    0.655744    0.598352    11.00000   -1.50000
H1C   2    0.961203    0.572844    0.691812    11.00000   -1.50000
AFIX   0
HKLF 4 1 0 1 0 0 0 1 1 0 0




REM  mhypbbr3_1626_2_360_00
REM wR2 = 0.0748, GooF = S = 1.053, Restrained GooF = 1.053 for all data
REM R1 = 0.0310 for 1868 Fo > 4sig(Fo) and 0.0329 for all 1954 data
REM 75 parameters refined using 1 restraints

END

WGHT      0.0422      0.0000

REM Instructions for potential hydrogen bonds
HTAB N2 Cl2_$5
HTAB N2 Cl3_$7
HTAB N2 Cl1_$8
HTAB N2 Cl2_$8
HTAB C2 Cl3_$7
HTAB C2 Cl4_$9
HTAB N1 Cl5_$1

REM Highest difference peak  1.617,  deepest hole -1.313,  1-sigma level  0.256
Q1    1   0.5198  0.4064  0.0000  10.50000  0.05    1.62
Q2    1   0.4202  0.5457  0.0000  10.50000  0.05    1.62
Q3    1   0.4360  0.4115  0.0000  10.50000  0.05    1.57
Q4    1   0.5898  0.5760  0.5000  10.50000  0.05    1.46
Q5    1   0.6109  0.4140  0.5000  10.50000  0.05    1.45
Q6    1   0.5109  0.4412  0.5000  10.50000  0.05    1.38
Q7    1   0.4341  0.4871  0.0778  11.00000  0.05    1.30
Q8    1   0.6194  0.4943  0.5714  11.00000  0.05    1.22
Q9    1   0.4631  0.8021  0.5000  10.50000  0.05    0.97
Q10   1   0.6047  0.7948  0.0000  10.50000  0.05    0.96
Q11   1   0.5082  0.6761  0.5000  10.50000  0.05    0.90
Q12   1   1.0646  0.6275  0.5000  10.50000  0.05    0.88
Q13   1   0.9766  0.6518  0.7260  11.00000  0.05    0.86
Q14   1   0.3963  0.6914  0.0000  10.50000  0.05    0.85
Q15   1   0.3823  0.6222  0.0000  10.50000  0.05    0.85
Q16   1   0.4371  0.8182  0.0000  10.50000  0.05    0.85
Q17   1   1.0374  0.6045  0.0000  10.50000  0.05    0.83
Q18   1   0.9634  0.6598  0.0000  10.50000  0.05    0.83
Q19   1   0.0284  0.3504  0.5000  10.50000  0.05    0.79
Q20   1   1.0097  0.8276  1.0000  10.50000  0.05    0.78
;
_shelx_res_checksum              69816
_shelx_hkl_file
;
   0   0 -15   -1.14    2.89   2
   0   0 -14  332.78   20.51   2
   0   0 -13    2.27    2.52   2
   0   0 -12  971.81   33.51   2
   0   0 -11   -0.94    1.54   2
   0   0 -10 1133.16   33.01   2
   0   0  -9   -0.57    1.28   2
   0   0  -8 3095.76   55.76   2
   0   0  -7    0.82    0.93   2
   0   0  -7    2.06    1.67   2
   0   0  -6 2683.53   45.83   2
   0   0  -6 2872.84   59.43   2
   0   0  -5    5.41    2.56   2
   0   0  -5    3.54    1.56   2
   0   0  -4 6277.25   82.06   2
   0   0  -4 6218.42   91.97   2
   0   0  -3    0.78    0.51   2
   0   0  -3    5.82    2.15   2
   0   0  -2 3381.78   43.80   2
   0   0  -2 3457.34   49.38   2
   0   0   2 4952.11   67.33   2
   0   0   3    4.07    2.08   2
   0   0   4 7856.72  111.99   2
   0   0   5    0.85    1.63   2
   0   0   6 3345.25   66.93   2
   0   0   7    2.51    2.18   2
   0   0   8 3484.76   77.77   2
   0   0   9    7.86    5.01   2
   0   0  10 1488.15   53.78   2
   0   0  11    0.21    3.51   2
   0   0  12 1020.23   49.05   2
   0   0  13   -5.65    4.94   2
   0   0  14   482.5   37.16   2
   0  -1 -15   22.17    5.97   2
   0   1 -15      16    6.08   2
   0  -1 -14   211.9   17.67   2
   0   1 -14  231.28   23.76   2
   0   1 -13   25.89    5.00   2
   0  -1 -13   27.49    6.51   2
   0  -1 -12  706.18   30.28   2
   0   1 -12  714.66   25.91   2
   0  -1 -11   55.81    7.79   2
   0   1 -11   61.16    6.84   2
   0   1 -10   937.5   27.18   2
   0  -1 -10  928.68   31.57   2
   0  -1  -9   90.46    8.76   2
   0   1  -9   95.39    7.47   2
   0  -1  -8 2570.21   52.74   2
   0   1  -8 2670.93   46.69   2
   0  -1  -7  237.17   12.73   2
   0   1  -7  251.53   10.42   2
   0  -1  -6 2572.48   56.86   2
   0   1  -6 2516.69   57.74   2
   0   1  -6 2501.38   40.07   2
   0  -1  -6 2425.72   45.91   2
   0   1  -5  311.86   16.57   2
   0  -1  -5   260.4   11.28   2
   0  -1  -5  276.04   15.13   2
   0   1  -5  284.45    9.16   2
   0   1  -4 5332.42   66.57   2
   0   1  -4 4802.69   82.58   2
   0  -1  -4 5034.23   81.74   2
   0  -1  -4 5436.02   74.05   2
   0  -1  -3  212.17   10.90   2
   0  -1  -3  187.76    8.03   2
   0   1  -3   216.2    9.68   2
   0   1  -3  232.15   11.64   2
   0   1  -2 3668.19   58.29   2
   0   1  -2 3586.04   59.76   2
   0   1  -1  281.73   12.09   2
   0   1  -1  279.57   12.06   2
   0  -1  -1  261.27    7.45   2
   0  -1  -1  258.21    9.16   2
   0  -1  -1   278.5    9.88   2
   0  -1  -1  270.86    8.53   2
   0   1   0    4602   53.01   2
   0   1   0 4662.12   58.81   2
   0  -1   0 4466.26   58.65   2
   0   1   0 4493.78   56.44   2
   0  -1   0 4539.49   53.30   2
   0  -1   1  350.89   12.43   2
   0   1   1   360.2    9.69   2
   0   1   1  312.98    8.51   2
   0  -1   1  319.69   13.22   2
   0   1   1  333.24   10.17   2
   0   1   2 4246.68   60.23   2
   0  -1   2 4119.56   56.92   2
   0   1   2 4318.62   56.27   2
   0   1   3  284.67   12.60   2
   0   1   3  266.54    9.78   2
   0  -1   3  287.13   12.30   2
   0   1   4 5343.68   85.92   2
   0   1   4 5403.29   86.65   2
   0   1   4 5436.91   75.32   2
   0   1   5  288.93   17.29   2
   0  -1   5  285.06   15.14   2
   0   1   5  293.84   16.51   2
   0   1   6 2785.64   65.55   2
   0   1   6 2762.58   62.32   2
   0  -1   6 2756.35   59.17   2
   0  -1   7  270.29   17.69   2
   0   1   7  268.43   19.77   2
   0   1   7  267.03   18.31   2
   0   1   8 2412.08   68.03   2
   0  -1   8 2509.49   63.33   2
   0   1   8 2407.83   64.92   2
   0   1   9   86.79   12.26   2
   0  -1   9   80.36   10.94   2
   0   1   9  100.45   13.70   2
   0  -1  10 1005.23   42.49   2
   0   1  10  978.53   44.75   2
   0   1  10  983.72   44.21   2
   0   1  11   60.59   11.68   2
   0   1  11   59.75   11.73   2
   0  -1  11   65.16   11.57   2
   0   1  12  672.52   39.38   2
   0  -1  12   731.8   40.45   2
   0   1  12  704.54   41.78   2
   0  -1  13   39.91   10.18   2
   0   1  13   28.38    8.24   2
   0   1  13   33.13   10.10   2
   0   1  14  257.56   25.14   2
   0  -1  14  308.29   29.14   2
   0   2 -15   41.65   12.42   2
   0   2 -14  162.24   22.22   2
   0  -2 -14  154.15   16.00   2
   0  -2 -13    76.6   10.95   2
   0   2 -13   86.16   14.68   2
   0  -2 -12  436.58   24.99   2
   0   2 -12  428.33   31.21   2
   0   2 -11  235.47   21.42   2
   0   2 -11  227.66   11.76   2
   0  -2 -11  222.94   16.80   2
   0   2 -10  505.04   16.82   2
   0   2 -10  469.36   28.79   2
   0  -2 -10  467.67   23.41   2
   0  -2  -9  103.36   10.39   2
   0   2  -9  112.43   12.90   2
   0   2  -9  112.53    7.07   2
   0   2  -8 1375.67   26.66   2
   0  -2  -8  1316.1   37.11   2
   0   2  -8 1325.19   44.10   2
   0   2  -7  284.12    9.33   2
   0  -2  -7  275.22   14.79   2
   0   2  -7   289.2   18.73   2
   0   2  -6 1507.59   24.28   2
   0   2  -6 1522.08   43.71   2
   0  -2  -6 1466.22   35.82   2
   0  -2  -6 1538.81   43.79   2
   0   2  -6 1518.34   48.22   2
   0  -2  -5  144.67   11.73   2
   0   2  -5  132.03   12.50   2
   0  -2  -5  151.53   10.88   2
   0  -2  -5  114.22    8.50   2
   0   2  -5  129.42    4.41   2
   0   2  -5  133.55   11.98   2
   0  -2  -4 3137.09   65.13   2
   0  -2  -4 3071.04   62.12   2
   0  -2  -4 3210.83   53.93   2
   0   2  -4 3031.67   67.70   2
   0   2  -4 3017.69   66.57   2
   0  -2  -3  695.58   23.75   2
   0  -2  -3  663.12   28.24   2
   0  -2  -3  747.57   21.98   2
   0  -2  -3  707.81   19.35   2
   0   2  -3  746.08   28.77   2
   0  -2  -2 3078.61   43.77   2
   0  -2  -2 2986.25   34.52   2
   0  -2  -2 2979.34   48.42   2
   0   2  -2  2914.6   48.35   2
   0  -2  -2 3084.34   39.70   2
   0  -2  -1  746.44   20.01   2
   0   2  -1  727.09   19.51   2
   0  -2  -1  744.75   21.62   2
   0  -2  -1  700.12   16.67   2
   0   2  -1  669.67   12.83   2
   0   2   0 5950.92   85.41   2
   0  -2   0 6032.91   75.96   2
   0   2   0 5746.12   79.87   2
   0  -2   0 5899.46   85.72   2
   0   2   0 6054.65   75.54   2
   0  -2   1  520.04   23.12   2
   0   2   1  504.44   13.55   2
   0  -2   1  524.34   22.69   2
   0  -2   1  533.67   17.49   2
   0   2   1  504.91   17.08   2
   0  -2   1  510.16   11.74   2
   0   2   1  527.98   15.42   2
   0   2   2 2931.08   46.32   2
   0  -2   2 3135.16   53.53   2
   0   2   2 3027.12   52.09   2
   0  -2   2 2923.96   43.06   2
   0  -2   2 2736.62   56.33   2
   0  -2   2 2858.28   57.87   2
   0  -2   3  694.01   24.01   2
   0   2   3  665.47   18.83   2
   0   2   3  663.02   21.46   2
   0  -2   3  683.84   20.02   2
   0   2   4 3284.55   64.74   2
   0  -2   4 3097.56   61.91   2
   0   2   4 3165.07   59.05   2
   0   2   4 3280.78   54.47   2
   0  -2   5  122.13   10.56   2
   0   2   5  107.07    8.20   2
   0   2   5   141.2   13.19   2
   0   2   5  124.87   10.12   2
   0   2   6 1445.84   40.48   2
   0   2   6 1507.86   52.72   2
   0  -2   6 1517.87   43.16   2
   0  -2   7  359.35   20.97   2
   0   2   7  317.18   19.11   2
   0   2   7  342.55   26.78   2
   0  -2   8 1440.44   46.27   2
   0   2   8 1412.12   44.86   2
   0  -2   9  156.35   15.45   2
   0   2   9  169.97   15.54   2
   0   2   9  126.72   19.03   2
   0  -2  10  552.85   31.70   2
   0   2  10  535.12   29.56   2
   0   2  11  216.67   19.36   2
   0  -2  11  258.22   22.78   2
   0  -2  12  451.44   31.70   2
   0   2  12  433.05   28.48   2
   0  -2  13   87.99   14.67   2
   0   2  13  106.81   14.37   2
   0   2  14  185.13   19.77   2
   0   3 -13   54.63   14.27   2
   0  -3 -13   60.84   10.09   2
   0   3 -12  240.14   27.84   2
   0  -3 -12  199.29   17.66   2
   0   3 -11   75.15   15.16   2
   0  -3 -11   93.73   11.22   2
   0   3 -10   184.4   22.38   2
   0  -3 -10  182.93   15.37   2
   0   3  -9  139.26   18.57   2
   0   3  -9  130.81    5.19   2
   0  -3  -9  132.89   12.48   2
   0  -3  -8  397.35   20.83   2
   0   3  -8  448.38   32.06   2
   0  -3  -7  377.29   19.26   2
   0   3  -7  435.21   31.40   2
   0  -3  -6  290.75   16.13   2
   0   3  -6   302.6   26.21   2
   0  -3  -5  305.26   20.84   2
   0   3  -5  234.43   22.01   2
   0   3  -5  310.11   23.74   2
   0  -3  -5  252.97   14.18   2
   0  -3  -4  719.02   25.91   2
   0   3  -4  715.99   36.05   2
   0   3  -4  693.59   32.08   2
   0  -3  -4  699.53   29.41   2
   0  -3  -4  684.79   22.75   2
   0  -3  -4  683.46   35.95   2
   0  -3  -3  405.75   20.42   2
   0   3  -3  363.02   18.30   2
   0  -3  -3  401.45   23.62   2
   0  -3  -3  373.71   17.56   2
   0  -3  -3  363.89   15.34   2
   0   3  -3  392.17   27.51   2
   0   3  -2  522.72   19.26   2
   0  -3  -2  546.64   24.43   2
   0  -3  -2  548.89   22.98   2
   0  -3  -2  518.67   17.51   2
   0   3  -2  528.38   11.83   2
   0  -3  -2  554.08   21.12   2
   0  -3  -1  208.84   10.11   2
   0   3  -1  223.47   11.46   2
   0  -3  -1   222.6   13.08   2
   0   3  -1  205.91    7.98   2
   0  -3  -1  221.82   13.98   2
   0  -3   0  867.32   29.80   2
   0   3   0  808.95   19.20   2
   0  -3   0  876.13   28.43   2
   0   3   0  830.85   22.86   2
   0  -3   0  834.02   20.70   2
   0   3   0  861.16   27.74   2
   0  -3   1  246.68   18.46   2
   0  -3   1  236.11    9.52   2
   0   3   1  226.55   11.65   2
   0   3   1  223.66   10.08   2
   0  -3   1  249.02   14.36   2
   0  -3   1  236.03   18.81   2
   0   3   1  236.51   13.57   2
   0   3   2   498.8   16.76   2
   0  -3   2  506.74   14.49   2
   0  -3   2  475.12   28.40   2
   0  -3   2  527.41   25.53   2
   0  -3   2  513.34   20.96   2
   0   3   2  483.95   20.31   2
   0  -3   3  531.81   24.75   2
   0  -3   3  517.88   22.72   2
   0  -3   3  497.48   20.99   2
   0   3   3  493.26   17.66   2
   0   3   3  497.52   20.73   2
   0   3   4  653.52   21.79   2
   0  -3   4   658.3   25.30   2
   0  -3   4  681.61   23.18   2
   0  -3   4   656.6   27.73   2
   0   3   4  650.17   24.83   2
   0   3   5  272.84   16.58   2
   0  -3   5  300.08   18.93   2
   0  -3   6  301.07   19.49   2
   0   3   6  289.21   17.73   2
   0   3   6  306.74   19.18   2
   0   3   7  367.82   21.27   2
   0   3   7  373.74   23.27   2
   0  -3   7  393.48   23.37   2
   0   3   8  413.04   26.97   2
   0  -3   8  378.98   24.13   2
   0   3   8  373.15   22.06   2
   0  -3   9  141.34   15.68   2
   0   3   9  141.76   14.06   2
   0   3  10  176.81   16.61   2
   0  -3  10   170.5   17.98   2
   0   3  11   82.17   11.64   2
   0  -3  11    96.4   13.86   2
   0  -3  12  218.88   22.76   2
   0   3  12  219.14   20.04   2
   0  -3  13   74.87   14.37   2
   0   3  13   72.91   11.79   2
   0   4 -11   26.87   10.77   2
   0  -4 -11   33.35    7.92   2
   0   4 -10  139.84   23.35   2
   0  -4 -10  145.72   14.73   2
   0  -4  -9    30.1    6.33   2
   0   4  -9   18.45    7.81   2
   0   4  -8   79.99   15.33   2
   0  -4  -8   94.33   10.83   2
   0  -4  -7   13.93    4.31   2
   0   4  -7    2.34    3.63   2
   0  -4  -6  167.11   13.35   2
   0   4  -6  174.07   17.54   2
   0   4  -5   21.26    5.86   2
   0  -4  -5   14.54    4.37   2
   0  -4  -4  134.07   17.43   2
   0  -4  -4  103.04    9.48   2
   0   4  -4  122.65   11.08   2
   0   4  -3    16.6    3.97   2
   0  -4  -3   12.05    5.24   2
   0  -4  -3   13.61    3.42   2
   0  -4  -2  125.37   11.66   2
   0  -4  -2  109.28    8.89   2
   0  -4  -2  107.36   12.64   2
   0   4  -2  120.13    9.39   2
   0   4  -1    6.78    1.73   2
   0  -4  -1   14.53    4.26   2
   0  -4  -1    5.64    2.12   2
   0   4  -1    7.77    2.57   2
   0  -4   0   71.79   12.42   2
   0   4   0   67.64    6.97   2
   0  -4   0   64.57    6.18   2
   0  -4   0   83.53   11.33   2
   0   4   0   68.92    5.71   2
   0  -4   1   11.14    2.38   2
   0  -4   1   19.54    5.86   2
   0  -4   1   14.64    6.25   2
   0   4   1    7.72    2.08   2
   0   4   1      14    4.71   2
   0   4   1   14.27    2.92   2
   0  -4   2  105.69   15.61   2
   0  -4   2  138.42    8.47   2
   0   4   2  125.88    9.16   2
   0   4   2  127.26   11.92   2
   0  -4   2   129.7   14.75   2
   0  -4   3    3.92    2.05   2
   0   4   3     3.3    2.35   2
   0  -4   3     3.6    2.46   2
   0  -4   3     4.7    3.05   2
   0   4   4  154.83   13.14   2
   0  -4   4  173.21   13.39   2
   0  -4   4  179.46   16.05   2
   0  -4   5   34.02    7.41   2
   0   4   5   29.32    5.92   2
   0   4   6  198.81   15.91   2
   0  -4   6  194.53   17.38   2
   0   4   7   27.08    6.32   2
   0  -4   7   18.48    5.37   2
   0   4   8  137.04   14.34   2
   0  -4   8  144.38   15.97   2
   0  -4   9   51.36   10.09   2
   0   4   9   45.34    8.81   2
   0   4  10  156.19   16.20   2
   0  -4  10  143.91   17.26   2
   0  -4  11   34.62    8.88   2
   0   4  11   40.82    8.72   2
   0  -4  12   83.24   14.20   2
   0   4  12   69.61   11.63   2
   0   4  13   31.32    8.39   2
   0  -5 -10      68   10.86   2
   0  -5  -9   21.65    5.59   2
   0  -5  -8   51.22    8.67   2
   0   5  -7   23.02    5.88   2
   0  -5  -7   37.08    7.52   2
   0  -5  -6  111.79   12.04   2
   0   5  -6  112.42   11.83   2
   0  -5  -5    49.4    7.52   2
   0   5  -5    42.1    6.64   2
   0  -5  -5   30.82   10.46   2
   0  -5  -4   60.38    8.16   2
   0   5  -4   88.34    9.03   2
   0  -5  -4   73.45   14.14   2
   0  -5  -3   50.85    7.15   2
   0  -5  -3   60.05   11.82   2
   0   5  -3    57.7    6.86   2
   0  -5  -2   21.18    4.40   2
   0   5  -2   29.85    5.12   2
   0  -5  -2   25.79    7.58   2
   0  -5  -1   43.09   10.36   2
   0  -5  -1   42.78    6.04   2
   0   5  -1   58.01    7.12   2
   0   5   0    0.73    1.99   2
   0  -5   0    4.59    2.57   2
   0  -5   0    3.53    4.51   2
   0  -5   0   -0.07    1.02   2
   0   5   1   52.65    9.16   2
   0  -5   1   39.45    9.32   2
   0  -5   1   58.92   13.66   2
   0  -5   1   61.25    6.90   2
   0  -5   2   54.16   12.84   2
   0   5   2   39.55    7.80   2
   0  -5   2   40.18    5.30   2
   0  -5   2   25.57    7.56   2
   0  -5   3   69.05    8.38   2
   0   5   3   57.99    9.22   2
   0  -5   3   41.06    8.69   2
   0  -5   3    57.2    9.55   2
   0  -5   4   53.96    9.80   2
   0  -5   4   85.97   10.58   2
   0   5   4   67.47    9.97   2
   0   5   5   41.43    7.69   2
   0  -5   5   28.44    6.81   2
   0  -5   6   90.49   13.11   2
   0   5   6   97.84   12.43   2
   0  -5   7   32.44    7.90   2
   0   5   7   23.01    6.46   2
   0  -5   8   45.22    9.26   2
   0   5   8    46.4    9.37   2
   0  -5   9   23.15    7.77   2
   0   5   9   16.54    5.05   2
   0  -5  10   63.62   12.33   2
   0   5  10   56.09    9.87   2
   0  -5  11   26.33    8.56   2
   0   5  11   22.25    6.90   2
   0   5  12   47.38   10.28   2
   0  -6  -8   25.39    6.25   2
   0  -6  -7  152.15   16.52   2
   0  -6  -6   16.78    5.86   2
   0  -6  -5  214.04   17.97   2
   0  -6  -5  178.26   27.05   2
   0   6  -4    6.64    2.64   2
   0  -6  -4     6.3    2.96   2
   0  -6  -4    8.39    8.51   2
   0   6  -3  293.25   16.56   2
   0  -6  -3   321.1   30.93   2
   0  -6  -2    3.03    1.72   2
   0   6  -2    0.03    2.09   2
   0  -6  -2    1.97    2.70   2
   0  -6  -1  375.96   20.92   2
   0  -6  -1  389.14   30.12   2
   0   6  -1  357.08   18.84   2
   0  -6   0   -4.57    5.40   2
   0  -6   0    2.73    2.14   2
   0  -6   1   268.8   25.83   2
   0  -6   1  317.65   18.01   2
   0  -6   2    0.21    2.94   2
   0   6   3  319.41   24.60   2
   0  -6   3  210.96   21.24   2
   0  -6   4    14.9    5.73   2
   0   6   4   25.64    7.06   2
   0  -6   5  124.06   15.71   2
   0   6   5  143.13   16.10   2
   0   6   6   30.79    7.72   2
   0  -6   6   26.61    8.01   2
   0   6   7  140.47   16.64   2
   0  -6   7  178.72   19.54   2
   0  -6   8   35.02    8.99   2
   0   6   8   31.43    7.64   2
   0  -6   9    58.1   12.15   2
   0   6   9   57.47   10.74   2
   0   6  10   40.01    9.38   2
   0  -7  -6   18.01    6.35   2
   0  -7  -5  187.81   18.80   2
   0  -7  -5  197.97   31.17   2
   0  -7  -4   14.92    8.59   2
   0  -7  -4   13.13    4.81   2
   0  -7  -3  261.05   31.42   2
   0  -7  -3  229.98   19.13   2
   0  -7  -2   15.05    5.99   2
   0  -7  -2   13.71    7.55   2
   0  -7  -1  188.99   24.49   2
   0  -7  -1  216.33   26.12   2
   0  -7   0   14.39    6.97   2
   0  -7   0   23.57   10.15   2
   0  -7   1  199.64   23.29   2
   0  -7   2    3.48    4.21   2
   0  -7   3  238.52   24.08   2
   0  -7   4   14.78    6.77   2
   0  -7   5  147.47   18.98   2
   0  -7   6   12.67    5.62   2
   0  -7   7  193.92   21.39   2
   1   0 -15   -2.69    1.75   2
   1   0 -14  122.42   12.92   2
  -1   0 -14   134.3   13.11   2
   1   0 -13     0.6    1.59   2
  -1   0 -13    0.24    2.36   2
  -1   0 -12  149.14   12.57   2
   1   0 -12  148.31   12.56   2
   1   0 -11   -0.21    1.16   2
  -1   0 -11    1.68    1.80   2
  -1   0 -10  308.43   16.24   2
   1   0 -10  311.17   16.27   2
  -1   0  -9    0.71    1.17   2
   1   0  -9    4.99    1.96   2
   1   0  -8  228.92   12.56   2
  -1   0  -8  233.88   12.45   2
  -1   0  -7    1.52    1.36   2
   1   0  -7    0.42    1.21   2
  -1   0  -7    4.78    2.45   2
   1   0  -6  176.46    9.47   2
  -1   0  -6  173.04    9.18   2
  -1   0  -6  188.29   13.41   2
   1   0  -6  188.57   13.18   2
  -1   0  -5     4.1    2.52   2
  -1   0  -5     1.2    1.29   2
   1   0  -5    1.37    1.21   2
   1   0  -5    3.52    2.15   2
  -1   0  -4  126.13    9.04   2
   1   0  -4  129.38    8.71   2
  -1   0  -4   119.8    6.12   2
  -1   0  -3    2.46    1.47   2
  -1   0  -3    1.25    1.04   2
   1   0  -3    6.45    2.10   2
  -1   0  -2   34.83    2.53   2
  -1   0  -2   36.94    3.52   2
   1   0  -2   35.21    3.31   2
  -1   0  -1     4.3    0.80   2
  -1   0  -1    4.05    0.77   2
  -1   0   1    4.85    1.09   2
   1   0   2   48.52    3.02   2
  -1   0   2   52.23    4.13   2
   1   0   2   60.16    4.34   2
  -1   0   3    6.03    2.22   2
   1   0   3   10.95    1.74   2
   1   0   3    2.92    1.45   2
   1   0   4  201.45    8.10   2
  -1   0   4  239.21   12.44   2
   1   0   4  212.42   11.58   2
   1   0   5    2.24    1.31   2
   1   0   5    1.67    1.09   2
  -1   0   5    4.88    1.70   2
  -1   0   6  268.74   16.50   2
   1   0   6  229.14   10.44   2
   1   0   6  259.87   15.63   2
   1   0   7    0.52    2.01   2
  -1   0   7     0.7    2.11   2
  -1   0   8  319.65   20.95   2
   1   0   8  313.92   20.51   2
  -1   0   9     3.7    3.60   2
   1   0   9    0.25    2.07   2
  -1   0  10  330.66   24.80   2
   1   0  10  346.46   24.63   2
  -1   0  11    4.48    4.68   2
   1   0  11   -1.35    3.59   2
   1   0  12  188.06   20.26   2
  -1   0  12  191.24   21.37   2
   1   0  13     4.1    3.51   2
  -1   0  13   -4.15    4.16   2
  -1   0  14  121.96   18.96   2
   1   0  14  123.57   18.52   2
  -1   1 -15   51.38   12.43   2
  -1  -1 -15   31.99    7.51   2
   1  -1 -15   39.18    8.20   2
   1   1 -15   31.76    8.68   2
   1  -1 -14  140.43   14.50   2
   1   1 -14  144.92   18.78   2
  -1  -1 -14  132.57   14.14   2
   1   1 -13   25.85    8.65   2
  -1  -1 -13   17.19    4.65   2
   1   1 -13    26.3    5.01   2
  -1   1 -13   26.12    5.26   2
   1  -1 -13    20.9    5.14   2
  -1  -1 -12  190.48   15.23   2
   1   1 -12  168.56   12.31   2
   1   1 -12  189.71   19.21   2
   1  -1 -12  189.82   15.28   2
  -1   1 -12  189.83   12.93   2
  -1   1 -11  118.23    9.65   2
  -1  -1 -11  131.78   11.98   2
   1   1 -11   118.2    9.69   2
   1  -1 -11  105.81   10.91   2
  -1  -1 -10  186.55   13.62   2
   1   1 -10  189.73   11.49   2
   1  -1 -10  182.28   13.57   2
  -1   1 -10  198.76   11.64   2
   1  -1  -9  125.65   10.44   2
   1   1  -9  135.36    9.27   2
  -1  -1  -9  140.85   11.06   2
  -1   1  -9  133.37    8.82   2
   1   1  -8  204.29   10.66   2
  -1  -1  -8  195.02   12.38   2
   1  -1  -8  172.97   11.61   2
  -1   1  -8  203.97   10.22   2
   1   1  -7  469.01   15.51   2
  -1   1  -7   480.4   14.94   2
   1  -1  -7  457.62   18.38   2
  -1  -1  -7  471.25   18.35   2
   1   1  -6  344.44   12.07   2
  -1  -1  -6  349.55   14.64   2
   1   1  -6  389.66   20.61   2
  -1  -1  -6  382.32   20.04   2
   1  -1  -6  359.36   18.37   2
  -1   1  -6  361.93   11.63   2
  -1   1  -6  380.43   19.72   2
   1  -1  -6  345.37   14.68   2
   1  -1  -5  460.43   18.95   2
   1  -1  -5  430.23   15.36   2
  -1  -1  -5  449.28   20.44   2
  -1   1  -5  444.98   19.79   2
  -1  -1  -5  438.74   15.47   2
   1   1  -5  499.11   21.57   2
   1   1  -5  442.68   18.68   2
  -1   1  -5  433.42   11.43   2
   1  -1  -4  350.81   12.86   2
  -1  -1  -4  379.35   17.21   2
  -1  -1  -4  355.15   12.78   2
   1   1  -4   372.1   15.93   2
   1   1  -4  376.72   17.05   2
  -1   1  -4  366.88    9.00   2
   1  -1  -4  386.06   15.75   2
  -1   1  -4  382.68   16.35   2
   1  -1  -3  571.54   15.50   2
  -1  -1  -3  590.08   20.35   2
  -1  -1  -3  590.83   18.90   2
   1   1  -3  621.64   21.05   2
   1   1  -3  580.45   19.77   2
  -1  -1  -3   618.1   17.47   2
  -1  -1  -3  593.69   15.76   2
  -1   1  -3  586.91   18.72   2
  -1   1  -3  586.51   10.55   2
   1  -1  -3  595.52   17.72   2
  -1   1  -2  112.44    6.70   2
  -1   1  -2  111.07    4.79   2
  -1  -1  -2  111.28    6.03   2
   1  -1  -2  106.63    8.12   2
   1   1  -2  108.79    8.26   2
   1   1  -2  109.85    8.79   2
   1   1  -2   115.6    8.17   2
  -1  -1  -2  103.41    6.27   2
  -1  -1  -2  104.35    5.66   2
   1  -1  -2   112.1    6.31   2
  -1  -1  -1  510.31   12.42   2
   1   1  -1  421.79   20.03   2
  -1  -1  -1  510.73   12.64   2
   1   1  -1  502.61   12.96   2
   1  -1  -1  496.09   14.44   2
   1  -1  -1  538.27   17.63   2
  -1   1  -1  500.16   14.14   2
  -1  -1  -1  525.62   14.38   2
  -1   1  -1  523.19   13.38   2
   1   1  -1  520.68   19.25   2
   1   1   0   99.86    4.69   2
  -1   1   0   95.22    5.35   2
   1   1   0  109.29    7.10   2
   1  -1   0  102.95    5.54   2
  -1  -1   0  100.21    4.86   2
  -1  -1   0   95.96    6.85   2
   1  -1   0  103.47    3.59   2
   1   1   1  523.31   12.22   2
  -1   1   1  498.27   14.75   2
  -1  -1   1  544.89   16.50   2
  -1   1   1  503.92   16.60   2
   1  -1   1  524.13   12.38   2
   1  -1   1  517.96   13.04   2
  -1  -1   1  408.58   20.10   2
   1   1   1  519.04   14.20   2
  -1  -1   1  524.37   19.31   2
   1   1   1  508.02   12.27   2
  -1  -1   2   93.38    7.42   2
   1  -1   2   78.33    5.02   2
  -1   1   2   77.23    6.67   2
  -1   1   2   92.87    9.17   2
   1   1   2   77.19    4.10   2
   1   1   2      78    5.47   2
   1   1   2   72.46    4.44   2
   1   1   2   74.74    4.68   2
  -1  -1   2    75.5    6.55   2
  -1   1   3  724.63   21.79   2
  -1  -1   3  739.82   22.75   2
   1   1   3  667.53   16.99   2
   1   1   3  706.72   21.72   2
  -1   1   3  744.37   25.70   2
   1   1   3  712.12   17.34   2
   1  -1   3  699.21   11.52   2
   1  -1   3  735.75   19.68   2
  -1   1   4  305.91   15.21   2
   1   1   4  277.77   11.92   2
  -1  -1   4  290.88   14.60   2
   1  -1   4  286.67   13.34   2
  -1   1   4   324.3   19.09   2
   1   1   4  278.43   11.30   2
  -1  -1   5  434.01   19.91   2
   1  -1   5  435.85   18.40   2
   1   1   5   402.6   14.78   2
  -1   1   5  447.41   20.37   2
   1   1   5  418.63   17.16   2
   1   1   6  292.67   13.41   2
  -1   1   6   311.3   18.57   2
  -1  -1   6  277.87   16.83   2
   1  -1   6  306.33   16.95   2
   1   1   6     303   16.48   2
   1   1   6  297.13   17.97   2
  -1  -1   7  496.52   24.43   2
   1  -1   7  525.51   24.52   2
   1   1   7  463.86   18.53   2
  -1   1   7  496.73   25.64   2
   1   1   7   506.7   23.60   2
   1   1   7  500.96   25.37   2
  -1   1   8  180.81   16.35   2
   1   1   8   187.4   15.45   2
   1   1   8  192.91   16.42   2
  -1  -1   8  187.92   16.04   2
   1  -1   8  192.29   15.48   2
  -1   1   9  151.64   15.86   2
   1   1   9  127.91   13.33   2
   1   1   9  122.02   14.11   2
  -1  -1   9  139.54   15.14   2
   1  -1   9  129.74   13.62   2
   1   1  10  160.58   17.43   2
  -1   1  10   180.1   18.67   2
  -1  -1  10  176.58   18.12   2
   1   1  10  176.51   16.69   2
   1  -1  10  196.99   18.24   2
   1   1  11  126.56   14.79   2
   1   1  11  104.03   14.98   2
  -1   1  11  121.98   17.49   2
   1  -1  11  129.43   15.82   2
  -1   1  11   133.3   17.32   2
  -1  -1  11  120.89   15.56   2
  -1   1  12  202.03   23.51   2
   1  -1  12  237.94   22.68   2
   1   1  12  224.51   20.08   2
  -1   1  12   214.1   23.17   2
  -1  -1  12  212.94   22.09   2
  -1   1  13   30.41    8.42   2
  -1   1  13   41.98   11.01   2
   1   1  13   25.13    7.20   2
  -1  -1  13   49.03   11.63   2
   1  -1  13    29.8    9.01   2
  -1   1  14  130.67   20.15   2
   1  -1  14  146.31   19.63   2
  -1  -1  14  156.53   21.21   2
  -1   1  14  139.31   19.80   2
  -1   1  15   45.21   12.65   2
  -1   2 -15  119.83   19.84   2
   1   2 -15  119.66   20.24   2
   1   2 -14   70.38   14.79   2
  -1   2 -14   65.95   13.97   2
  -1  -2 -14   72.05   10.58   2
   1  -2 -14   52.33    9.21   2
   1  -2 -13  114.34   13.30   2
   1   2 -13  134.69   18.66   2
  -1  -2 -13  117.58   13.42   2
  -1   2 -13  129.66   17.93   2
  -1   2 -12  186.77   20.05   2
  -1  -2 -12  158.98   15.11   2
   1  -2 -12  158.73   14.91   2
   1   2 -12   163.6   19.81   2
   1  -2 -11  410.13   22.98   2
  -1   2 -11  445.75   28.99   2
   1   2 -11   404.7   16.40   2
   1   2 -11  407.74   29.30   2
  -1  -2 -11   409.6   22.82   2
  -1   2 -11  415.72   16.13   2
  -1  -2 -10  183.07   14.28   2
  -1   2 -10  169.76    9.49   2
   1   2 -10  168.96   17.62   2
   1  -2 -10  167.84   13.92   2
   1   2 -10  171.51    9.87   2
  -1   2 -10  193.61   17.90   2
   1   2  -9  322.62   22.96   2
  -1  -2  -9  284.26   17.21   2
  -1   2  -9   307.6   21.02   2
   1  -2  -9  301.98   17.78   2
   1   2  -9  287.46   11.84   2
  -1   2  -9  296.76   11.82   2
   1   2  -8  406.92   13.87   2
   1  -2  -8  407.12   19.32   2
  -1  -2  -8  408.53   19.65   2
   1   2  -8  435.17   26.05   2
  -1   2  -8  406.25   12.69   2
  -1   2  -8  429.16   23.03   2
   1   2  -7  713.76   17.74   2
  -1   2  -7  751.06   16.10   2
  -1   2  -7  772.17   29.34   2
  -1  -2  -7  720.32   25.23   2
   1   2  -7  744.59   32.64   2
   1  -2  -7  706.07   24.67   2
  -1  -2  -6  321.41   15.46   2
  -1   2  -6  312.64    8.32   2
  -1   2  -6  336.44   17.64   2
  -1   2  -6  362.08   21.69   2
   1  -2  -6  308.34   14.90   2
   1   2  -6  335.86   21.15   2
   1  -2  -6  333.61   18.37   2
  -1   2  -5  829.96   27.62   2
  -1  -2  -5  819.45   30.96   2
  -1   2  -5  870.41   32.55   2
  -1  -2  -5  788.64   23.86   2
  -1  -2  -5  866.48   27.29   2
   1   2  -5  806.33   28.30   2
   1  -2  -5  800.32   27.74   2
   1   2  -5  864.64   33.47   2
   1  -2  -5  765.94   23.54   2
   1   2  -5  815.86   33.26   2
   1  -2  -4   900.2   27.32   2
   1   2  -4  912.12   36.56   2
  -1  -2  -4  835.22   23.43   2
  -1   2  -4  894.48   31.34   2
  -1  -2  -4  859.29   28.76   2
   1  -2  -4  829.87   23.32   2
   1   2  -4  908.86   33.32   2
  -1  -2  -4  902.77   26.65   2
   1   2  -4  862.91   25.81   2
  -1   2  -4  885.25   28.69   2
   1  -2  -4  866.82   32.36   2
  -1  -2  -3  1860.1   40.38   2
  -1   2  -3 1572.69   42.50   2
   1  -2  -3 1840.03   44.08   2
  -1  -2  -3 1972.02   40.26   2
   1  -2  -3 1883.21   35.89   2
   1  -2  -3 1827.05   39.48   2
  -1  -2  -3 1745.16   44.26   2
   1  -2  -3 1675.43   51.55   2
  -1   2  -3 1789.27   45.17   2
  -1  -2  -3 1848.25   35.69   2
   1   2  -3 1779.26   30.51   2
   1   2  -3 1489.14   53.65   2
   1   2  -3 1815.96   49.55   2
   1  -2  -2  465.25   15.03   2
   1   2  -2  448.55   24.02   2
   1  -2  -2  427.27   13.78   2
   1  -2  -2  420.02   17.44   2
   1   2  -2  422.22   11.01   2
  -1  -2  -2  431.66   14.34   2
  -1   2  -2  431.25   20.75   2
  -1  -2  -2  439.72   16.63   2
  -1   2  -2  428.13   13.33   2
   1  -2  -2   453.2   21.22   2
  -1  -2  -2  443.76   16.83   2
  -1  -2  -2  459.62   16.86   2
   1   2  -2  437.03   23.78   2
   1   2  -1 2317.38   35.35   2
  -1   2  -1 2339.01   34.52   2
   1  -2  -1 2284.61   37.12   2
   1  -2  -1 2195.79   46.63   2
   1  -2  -1 2331.62   44.89   2
  -1   2  -1 2339.65   44.08   2
   1   2  -1 2287.45   48.79   2
   1  -2  -1 2293.64   38.69   2
  -1  -2  -1 2295.84   38.96   2
  -1  -2  -1 2277.88   44.54   2
  -1  -2  -1  2318.5   43.70   2
   1  -2   0 1069.33   26.69   2
  -1  -2   0 1003.63   29.75   2
  -1  -2   0 1066.91   22.20   2
  -1   2   0 1046.33   19.79   2
  -1  -2   0 1069.76   26.28   2
   1  -2   0 1029.71   19.27   2
   1   2   0 1008.65   20.69   2
   1   2   0 1069.77   26.89   2
  -1   2   0 1026.31   26.28   2
   1  -2   0 1044.57   22.28   2
   1   2   1 1970.03   33.87   2
   1  -2   1 1919.56   41.52   2
  -1   2   1 1916.51   39.68   2
   1  -2   1 2044.62   39.23   2
  -1  -2   1 1793.45   52.31   2
   1  -2   1 1983.01   28.09   2
  -1  -2   1 1956.42   34.19   2
  -1  -2   1  1808.4   53.16   2
   1  -2   1 1950.48   42.06   2
  -1  -2   1 1994.46   40.11   2
   1   2   1  2036.6   38.93   2
   1   2   1 2006.01   37.63   2
   1   2   2  479.93   16.84   2
  -1  -2   2  468.08   18.69   2
  -1  -2   2  446.63   24.10   2
  -1   2   2  453.18   17.74   2
   1  -2   2  436.42   16.04   2
  -1  -2   2  491.85   22.67   2
   1  -2   2  485.88   17.38   2
   1   2   2     442   14.25   2
   1   2   2  447.25   15.55   2
   1  -2   2  459.19   14.19   2
   1  -2   3 1880.08   40.26   2
   1   2   3  1903.1   36.43   2
   1   2   3 1908.77   37.86   2
   1  -2   3 1979.75   39.67   2
  -1   2   3 1913.75   43.07   2
  -1  -2   3 1923.79   44.83   2
  -1   2   3 1877.85   46.62   2
  -1  -2   3 1894.09   47.75   2
   1   2   4  917.11   24.65   2
  -1   2   4 1026.06   37.64   2
   1  -2   4  960.28   27.52   2
  -1  -2   4  985.94   28.57   2
   1   2   4  925.73   25.42   2
  -1   2   4   956.7   30.94   2
  -1  -2   4  964.52   32.53   2
   1   2   4  958.85   25.50   2
   1   2   5  655.53   21.98   2
   1   2   5     716   25.37   2
   1  -2   5  710.95   25.29   2
  -1   2   5   713.6   34.98   2
   1   2   5  679.46   22.05   2
  -1  -2   5  699.16   27.80   2
  -1   2   5   663.2   27.26   2
   1   2   6  417.34   22.36   2
  -1  -2   6  374.33   21.07   2
  -1   2   6  365.67   27.33   2
  -1   2   6  358.08   21.37   2
   1   2   6  363.02   17.16   2
   1  -2   6  378.28   19.48   2
   1  -2   7   853.9   31.84   2
   1   2   7  883.84   38.70   2
  -1   2   7  731.11   42.08   2
  -1  -2   7   855.2   34.72   2
  -1   2   7  840.11   35.90   2
   1   2   7  815.68   28.54   2
  -1  -2   8  487.12   26.89   2
   1  -2   8  481.98   25.30   2
   1   2   8  455.23   22.03   2
   1   2   8  475.74   31.18   2
  -1   2   8  468.66   28.19   2
  -1  -2   9  329.01   23.46   2
  -1   2   9  336.45   24.69   2
   1   2   9  303.21   26.89   2
   1  -2   9  330.43   22.61   2
   1   2   9  302.12   18.82   2
  -1   2  10   200.7   19.90   2
  -1  -2  10  180.97   18.16   2
   1  -2  10  196.76   18.32   2
   1   2  10  184.08   15.31   2
  -1  -2  11   502.9   32.53   2
  -1   2  11   441.7   31.08   2
   1  -2  11  478.85   30.34   2
   1   2  11  432.77   25.02   2
  -1   2  12  156.51   18.96   2
  -1  -2  12  195.64   21.40   2
   1   2  12  156.06   15.63   2
   1  -2  12  173.64   19.47   2
  -1  -2  13  129.09   18.61   2
   1   2  13  145.47   15.43   2
   1  -2  13  130.78   17.92   2
  -1   2  13  119.48   16.98   2
  -1   2  14   59.34   12.15   2
   1   3 -14   99.14   20.87   2
   1   3 -13   68.23   15.58   2
  -1  -3 -13   71.38   11.10   2
   1  -3 -13   76.56   12.03   2
  -1   3 -12   257.7   28.41   2
  -1  -3 -12   232.6   19.12   2
   1  -3 -12  246.05   19.99   2
   1   3 -12  266.37   30.16   2
   1  -3 -11  269.89   19.92   2
  -1  -3 -11  271.26   19.73   2
  -1   3 -11  300.43   29.02   2
   1   3 -11  307.53   30.79   2
  -1  -3 -10   227.3   17.11   2
   1   3 -10  280.97   28.13   2
   1  -3 -10  225.68   17.21   2
  -1   3 -10  273.57   25.86   2
  -1   3  -9  371.78   28.74   2
   1   3  -9  361.46   30.78   2
  -1  -3  -9  335.01   19.97   2
   1   3  -9  340.07   10.55   2
   1  -3  -9  331.76   20.12   2
   1   3  -8  636.63   14.13   2
   1   3  -8  651.76   23.53   2
  -1  -3  -8  618.01   26.40   2
   1  -3  -8  636.02   26.69   2
   1   3  -8  701.47   42.57   2
  -1   3  -8  706.96   38.42   2
  -1   3  -7   964.1   44.76   2
  -1  -3  -7  907.53   30.81   2
   1   3  -7  929.78   17.02   2
   1   3  -7  901.77   22.18   2
   1  -3  -7  921.75   31.24   2
  -1  -3  -6  553.28   30.89   2
   1   3  -6  501.54   36.20   2
   1   3  -6  464.77   12.13   2
  -1  -3  -6  466.63   20.39   2
   1  -3  -6  489.45   21.02   2
  -1   3  -6  465.53   30.13   2
   1   3  -5  807.89   45.43   2
  -1  -3  -5  853.25   27.21   2
   1   3  -5  837.37   16.15   2
  -1  -3  -5  894.97   35.83   2
  -1   3  -5  886.87   41.18   2
   1  -3  -5  906.85   32.37   2
   1  -3  -5  848.28   26.90   2
  -1   3  -5  834.14   36.66   2
   1  -3  -4 1131.89   39.19   2
  -1  -3  -4 1138.68   37.10   2
  -1  -3  -4 1144.88   34.56   2
   1   3  -4 1138.73   47.15   2
  -1  -3  -4 1056.24   29.59   2
   1  -3  -4 1015.15   46.18   2
  -1   3  -4 1056.12   32.87   2
  -1  -3  -4  983.85   40.63   2
   1  -3  -4 1075.58   29.26   2
  -1   3  -4  1095.6   44.56   2
   1   3  -4 1068.94   19.18   2
   1   3  -4 1059.92   46.88   2
   1  -3  -4 1137.61   32.85   2
   1  -3  -4 1112.82   34.87   2
  -1  -3  -3 1211.91   35.12   2
   1  -3  -3 1173.88   37.22   2
   1   3  -3 1155.63   41.68   2
  -1   3  -3 1073.64   45.51   2
  -1  -3  -3 1185.69   39.89   2
  -1  -3  -3 1143.94   35.70   2
   1  -3  -3 1164.74   43.62   2
   1  -3  -3  1178.3   31.97   2
   1  -3  -3 1133.63   28.82   2
  -1   3  -3 1136.02   27.74   2
   1   3  -3  1122.5   20.59   2
   1   3  -3 1137.84   49.31   2
  -1  -3  -3 1119.95   29.58   2
   1  -3  -2  678.35   22.18   2
   1   3  -2  674.41   26.73   2
   1  -3  -2  663.54   29.06   2
  -1  -3  -2  645.92   20.56   2
   1  -3  -2  657.76   26.14   2
  -1  -3  -2  646.28   24.37   2
   1  -3  -2  658.44   19.82   2
   1   3  -2  651.77   15.42   2
  -1   3  -2  659.64   17.71   2
  -1  -3  -2  681.38   25.74   2
  -1   3  -1 1067.14   32.74   2
   1   3  -1 1045.88   30.68   2
   1   3  -1 1029.54   21.87   2
   1  -3  -1 1030.36   24.26   2
  -1   3  -1 1018.75   22.68   2
  -1  -3  -1 1092.79   32.45   2
   1  -3  -1 1098.71   33.26   2
   1  -3  -1  1046.5   28.29   2
  -1  -3  -1 1114.55   34.21   2
  -1  -3  -1 1092.14   26.46   2
   1   3   0 1191.05   25.63   2
   1  -3   0 1265.62   25.61   2
  -1  -3   0 1226.96   27.99   2
  -1  -3   0 1230.92   39.76   2
   1  -3   0 1276.15   35.54   2
  -1  -3   0 1220.65   34.59   2
   1  -3   0 1277.47   33.77   2
   1  -3   0 1195.72   42.86   2
  -1   3   0    1196   33.84   2
  -1   3   0 1228.78   25.84   2
   1   3   0 1217.33   32.19   2
   1   3   1  946.75   23.38   2
   1   3   1 1001.14   29.57   2
  -1  -3   1 1001.03   30.51   2
   1  -3   1 1012.73   34.50   2
   1   3   1 1010.05   28.55   2
   1  -3   1 1024.33   20.48   2
  -1  -3   1 1069.18   44.62   2
  -1  -3   1  985.58   24.11   2
  -1   3   1  982.88   30.40   2
   1  -3   1 1046.95   31.23   2
  -1  -3   1 1047.07   44.76   2
   1   3   2  704.22   23.75   2
  -1  -3   2  657.57   24.53   2
  -1  -3   2  618.99   36.52   2
   1   3   2  669.43   20.14   2
   1  -3   2  689.31   14.45   2
  -1   3   2  647.86   24.63   2
   1  -3   2  695.65   26.32   2
   1   3   2  669.64   23.42   2
   1  -3   2  727.77   25.19   2
  -1  -3   2  726.79   34.27   2
  -1  -3   2   680.4   21.55   2
   1  -3   3 1409.04   36.64   2
   1   3   3 1411.06   32.77   2
  -1  -3   3    1407   45.80   2
  -1   3   3 1345.54   37.89   2
   1  -3   3 1406.56   38.55   2
  -1  -3   3  1374.2   37.86   2
  -1  -3   3 1432.24   46.97   2
   1   3   3 1338.41   34.83   2
  -1  -3   4 1092.42   35.47   2
   1   3   4 1028.52   30.78   2
  -1   3   4 1024.04   34.34   2
   1  -3   4 1141.32   34.91   2
   1   3   4 1087.77   29.65   2
  -1  -3   4 1113.64   39.88   2
   1  -3   4 1069.79   31.91   2
   1   3   5  787.07   27.38   2
   1  -3   5  847.64   30.56   2
  -1   3   5  815.78   31.47   2
  -1  -3   5  837.17   35.14   2
  -1  -3   6  533.95   27.97   2
  -1   3   6  494.99   25.14   2
   1   3   6  500.35   22.16   2
  -1   3   6  564.62   30.21   2
   1  -3   6  530.39   24.97   2
   1   3   7  914.03   31.83   2
   1  -3   7  978.21   36.57   2
  -1   3   7  926.35   37.36   2
  -1  -3   7   991.3   39.75   2
   1   3   7  928.05   32.22   2
   1  -3   8  612.93   29.94   2
   1   3   8  596.11   27.47   2
  -1  -3   8  612.61   32.48   2
   1   3   8  583.73   26.04   2
  -1   3   8  611.55   30.99   2
   1   3   9  287.28   18.79   2
   1  -3   9  319.98   22.56   2
  -1   3   9  279.72   21.83   2
  -1  -3   9  312.47   24.13   2
   1   3  10  233.28   17.62   2
  -1  -3  10  257.71   22.74   2
   1  -3  10  245.02   20.75   2
  -1   3  10  233.52   20.59   2
   1   3  11  250.67   19.15   2
   1  -3  11   284.1   24.24   2
  -1   3  11  269.09   23.29   2
  -1  -3  11  263.86   24.52   2
   1  -3  12  233.26   22.94   2
  -1   3  12  205.03   20.65   2
  -1  -3  12  207.94   22.97   2
   1   3  12  210.36   18.23   2
  -1   3  13      76   13.22   2
  -1  -3  13   71.33   14.16   2
   1  -3  13   61.97   11.97   2
  -1   3  14   93.14   14.53   2
   1   4 -11  174.45   28.78   2
   1  -4 -11  170.35   16.96   2
  -1  -4 -11  162.69   16.49   2
  -1  -4 -10   326.1   22.42   2
   1   4 -10  345.83   39.92   2
  -1   4 -10  326.13   33.52   2
   1  -4 -10  340.85   23.04   2
  -1   4  -9  180.76   22.93   2
  -1  -4  -9  198.73   16.59   2
   1  -4  -9  178.96   15.77   2
   1   4  -9  147.23   25.05   2
   1   4  -8  695.62   50.74   2
  -1  -4  -8  758.78   31.97   2
  -1   4  -8  793.51   43.66   2
   1  -4  -8   801.8   32.83   2
   1  -4  -7  339.46   19.92   2
  -1  -4  -7  305.63   19.01   2
  -1   4  -7  307.86   22.78   2
   1   4  -7   304.8   30.25   2
  -1  -4  -6  679.51   27.77   2
   1   4  -6  721.06   42.19   2
  -1   4  -6  685.38   28.98   2
   1  -4  -6  675.58   27.66   2
   1   4  -5  466.61   29.33   2
   1  -4  -5  439.58   21.11   2
  -1  -4  -5  440.53   21.29   2
  -1   4  -5  418.89   19.15   2
   1  -4  -4 1792.82   67.38   2
  -1  -4  -4  1748.5   44.01   2
   1   4  -4 1730.45   27.13   2
  -1  -4  -4 1748.13   62.14   2
   1  -4  -4 1798.29   43.68   2
  -1   4  -4 1732.36   38.26   2
   1   4  -4 1731.02   52.56   2
   1  -4  -3   767.5   38.49   2
  -1  -4  -3  745.19   26.30   2
  -1   4  -3  749.98   21.60   2
  -1  -4  -3  785.95   36.39   2
   1  -4  -3     737   25.11   2
   1   4  -3  716.12   29.44   2
   1   4  -3  703.83   16.32   2
   1  -4  -3  726.15   28.09   2
   1  -4  -2 1430.95   35.22   2
  -1  -4  -2 1396.21   36.31   2
   1  -4  -2 1473.36   50.22   2
   1   4  -2 1343.47   27.11   2
   1   4  -2 1387.95   39.22   2
   1  -4  -2 1401.68   39.96   2
  -1   4  -2 1393.72   30.66   2
   1   4  -1  861.11   29.26   2
   1  -4  -1  920.38   25.75   2
  -1   4  -1  915.75   23.76   2
  -1  -4  -1  916.61   27.55   2
   1   4  -1  856.28   21.86   2
   1  -4  -1  895.47   32.16   2
  -1  -4  -1  911.58   36.63   2
  -1   4   0 2776.53   63.65   2
   1  -4   0 2833.72   49.66   2
   1  -4   0 2798.78   67.10   2
   1   4   0 2609.62   56.13   2
   1   4   0 2743.55   48.76   2
   1  -4   0 2630.49   73.44   2
  -1  -4   0 2853.47   76.72   2
  -1  -4   0 2448.08   86.08   2
  -1  -4   0 2796.55   52.97   2
   1   4   1   835.3   24.19   2
  -1   4   1  807.75   31.20   2
   1  -4   1   785.3   34.51   2
  -1  -4   1  862.34   44.43   2
   1  -4   1  835.73   21.69   2
   1  -4   1  879.39   41.32   2
  -1  -4   1  869.67   46.66   2
  -1  -4   1  773.72   24.14   2
   1   4   1  818.12   27.99   2
   1  -4   2 1374.06   51.45   2
   1  -4   2 1436.95   45.10   2
   1   4   2 1405.92   34.77   2
  -1   4   2 1376.11   42.40   2
   1  -4   2 1471.11   28.61   2
  -1  -4   2 1438.01   36.54   2
   1   4   2 1494.33   39.75   2
   1   4   2 1437.96   41.56   2
  -1  -4   2 1522.58   57.12   2
   1   4   3  706.39   28.16   2
   1  -4   3  783.04   31.91   2
  -1  -4   3  732.69   39.38   2
   1  -4   3  747.07   19.33   2
  -1   4   3  714.13   30.01   2
   1  -4   3  753.65   27.61   2
  -1  -4   3  806.79   32.52   2
  -1  -4   3  732.55   36.82   2
  -1  -4   4 1794.65   58.41   2
   1   4   4 1656.31   45.36   2
  -1  -4   4  1689.9   52.81   2
   1  -4   4 1650.25   37.68   2
  -1   4   4  1654.1   48.79   2
   1  -4   4 1695.93   48.96   2
   1   4   5  407.57   21.54   2
  -1  -4   5  452.71   27.74   2
  -1   4   5  392.74   23.36   2
   1  -4   5  442.47   24.23   2
  -1  -4   5  412.11   22.55   2
  -1  -4   6  831.62   39.11   2
  -1   4   6  739.02   33.09   2
   1   4   6  760.94   30.50   2
  -1  -4   7  381.21   26.66   2
   1  -4   7  296.71   21.02   2
   1   4   7  345.58   20.77   2
  -1   4   7  350.36   23.64   2
  -1  -4   8  775.96   39.29   2
   1   4   8  750.61   31.96   2
  -1   4   8  815.06   37.48   2
  -1  -4   9  186.53   19.81   2
  -1   4   9  181.92   18.21   2
   1   4   9  176.91   15.78   2
   1  -4   9  141.01   16.02   2
   1   4  10  401.96   24.64   2
   1  -4  10  450.75   29.89   2
  -1  -4  10  435.65   31.54   2
  -1   4  10  415.34   28.61   2
  -1  -4  11  192.34   22.00   2
   1  -4  11  176.39   19.51   2
   1   4  11  180.33   17.19   2
  -1   4  11  200.05   20.45   2
   1  -4  12  310.34   27.48   2
  -1  -4  12  297.61   28.54   2
  -1   4  12  313.43   26.44   2
   1   4  12  300.09   22.53   2
  -1   4  13   59.82   11.81   2
  -1  -5 -10  263.91   21.81   2
   1  -5 -10  289.29   22.78   2
  -1  -5  -9   56.69    9.71   2
   1  -5  -9   47.52    8.90   2
   1   5  -8  670.35   41.15   2
  -1  -5  -8  661.39   32.42   2
   1  -5  -8  662.74   32.43   2
   1  -5  -7   71.01    9.96   2
   1   5  -7   63.51   11.12   2
  -1  -5  -7    72.3   10.13   2
  -1   5  -6  641.25   23.58   2
  -1  -5  -6   643.4   29.96   2
   1   5  -6  612.39   32.59   2
   1  -5  -6  619.36   29.07   2
  -1   5  -5   94.44    8.13   2
  -1  -5  -5   81.85   15.95   2
  -1  -5  -5   92.23   10.67   2
   1  -5  -5   80.12   17.53   2
   1   5  -5   93.28   11.42   2
   1  -5  -5   90.07   10.22   2
  -1  -5  -4 1161.04   55.21   2
   1   5  -4 1088.88   37.77   2
  -1   5  -4 1118.04   28.73   2
   1  -5  -4 1166.43   58.60   2
   1  -5  -4  882.91   32.75   2
  -1  -5  -4  876.15   33.39   2
  -1  -5  -3  100.98   14.64   2
   1   5  -3   88.28    5.79   2
   1  -5  -3   93.65   15.10   2
   1  -5  -3   66.16    7.99   2
  -1  -5  -3   67.08    8.59   2
  -1   5  -3   95.85    7.69   2
   1   5  -3   94.86   10.32   2
   1   5  -2  694.38   19.49   2
   1  -5  -2  674.12   37.86   2
   1   5  -2  684.66   27.38   2
  -1   5  -2  704.44   22.13   2
   1  -5  -2  538.67   23.07   2
  -1  -5  -2  734.17   37.08   2
  -1  -5  -2     570   24.98   2
   1  -5  -1  102.94   14.31   2
  -1  -5  -1   49.12   11.61   2
   1  -5  -1   67.16   11.76   2
  -1  -5  -1    81.9    8.85   2
   1  -5  -1   80.97    8.26   2
   1   5  -1  106.05    7.85   2
   1   5  -1  104.18   10.17   2
   1  -5  -1   99.15   12.89   2
  -1   5  -1  107.45    8.45   2
  -1  -5   0  860.52   51.74   2
   1  -5   0  823.72   41.24   2
   1   5   0 1061.41   33.99   2
  -1  -5   0  853.33   29.54   2
   1   5   0 1075.52   28.55   2
   1  -5   0  863.01   27.30   2
   1  -5   0 1205.43   51.53   2
   1  -5   1   95.72   16.03   2
  -1  -5   1    89.5    8.86   2
  -1  -5   1   77.05   13.34   2
   1   5   1  103.19   10.62   2
  -1   5   1   99.84   12.50   2
   1  -5   1     100    8.12   2
   1  -5   1   75.88   11.40   2
  -1   5   2  724.37   33.25   2
   1  -5   2   761.4   22.39   2
   1  -5   2  776.23   41.68   2
  -1  -5   2  808.86   29.53   2
  -1   5   3    90.8   11.68   2
  -1  -5   3  116.62   12.62   2
  -1  -5   3      81   12.77   2
   1  -5   3   98.58    8.11   2
   1  -5   3   88.92   10.38   2
   1   5   3   99.25   11.96   2
   1  -5   3   76.53   10.85   2
   1  -5   4  872.28   37.50   2
  -1  -5   4   936.4   45.81   2
   1   5   4 1080.78   39.60   2
  -1   5   4 1133.49   43.01   2
  -1  -5   5   66.44   11.87   2
   1  -5   5   66.38   10.34   2
   1   5   5   77.28   10.50   2
  -1   5   5   81.18   11.48   2
  -1  -5   6   752.6   40.23   2
  -1   5   6  671.94   34.04   2
   1   5   6  651.48   31.22   2
  -1   5   7   83.25   12.10   2
   1   5   7   64.91    9.74   2
   1  -5   7   51.87    9.77   2
  -1  -5   7   84.01   13.36   2
  -1   5   8  553.08   32.74   2
  -1  -5   8  590.47   36.15   2
   1   5   8  541.82   29.65   2
   1   5   9   46.67    8.67   2
   1  -5   9   60.28   11.27   2
  -1   5   9   55.78   10.48   2
  -1  -5   9    50.3   10.85   2
   1   5  10  254.39   21.07   2
  -1   5  10   274.3   24.31   2
  -1  -5  10  271.02   26.51   2
   1  -5  10  276.76   24.70   2
  -1   5  11   38.16   10.09   2
  -1  -5  11   29.31    8.98   2
   1  -5  11   25.26    7.81   2
   1   5  11   25.31    6.58   2
  -1   5  12  171.94   20.48   2
   1  -6  -8  306.97   23.73   2
  -1  -6  -8  308.15   23.93   2
   1  -6  -7   23.11    5.74   2
  -1  -6  -7   18.04    5.46   2
  -1  -6  -6  322.75   23.20   2
   1  -6  -6  290.62   21.63   2
  -1  -6  -5   22.33    6.39   2
   1  -6  -5   26.04   11.42   2
   1  -6  -5   15.02    4.57   2
   1   6  -5   22.52    5.85   2
  -1  -6  -5    3.79    7.78   2
  -1  -6  -4  602.03   44.87   2
   1   6  -4  568.49   26.34   2
   1  -6  -4  440.88   25.13   2
   1  -6  -4  613.73   46.82   2
  -1  -6  -4  423.26   25.33   2
  -1  -6  -3     5.8    2.88   2
   1  -6  -3   11.62    6.85   2
   1  -6  -3    8.56    3.33   2
   1   6  -3    4.73    2.36   2
  -1  -6  -3    2.35    3.11   2
   1  -6  -2  418.01   35.15   2
   1   6  -2  610.46   26.93   2
  -1  -6  -2  447.25   41.79   2
  -1  -6  -2  623.66   28.85   2
  -1  -6  -2  641.33   40.53   2
   1  -6  -2   642.1   42.19   2
   1  -6  -2  631.36   27.68   2
  -1  -6  -1    8.85    3.35   2
  -1  -6  -1   -0.37    6.28   2
   1  -6  -1    9.36    4.01   2
   1  -6  -1   14.57    7.00   2
   1  -6  -1    0.25    5.18   2
   1   6  -1    12.9    4.11   2
   1  -6   0  920.54   45.68   2
   1  -6   0  950.18   31.64   2
   1   6   0  856.43   33.20   2
  -1  -6   0  933.69   34.03   2
   1  -6   1   11.59    3.73   2
  -1  -6   1   11.54    5.58   2
  -1  -6   1   10.93    3.55   2
  -1  -6   2  459.27   35.60   2
   1  -6   2  474.35   29.66   2
  -1   6   3   10.67    5.41   2
  -1  -6   3   11.14    5.38   2
   1  -6   3    7.93    3.94   2
  -1   6   4  568.95   33.07   2
   1  -6   4  553.03   31.43   2
  -1  -6   4  518.01   36.23   2
   1   6   4  576.72   32.50   2
   1   6   5   31.46    7.68   2
  -1   6   5   32.47    8.67   2
  -1  -6   5   22.58    6.79   2
   1  -6   5   25.34    7.37   2
  -1  -6   6  323.54   27.90   2
   1  -6   6  312.94   24.25   2
  -1   6   6  294.73   24.47   2
   1   6   6  323.77   24.18   2
   1  -6   7   21.71    6.29   2
  -1   6   7   20.25    7.06   2
  -1  -6   7   27.09    8.12   2
   1   6   7    27.4    7.17   2
   1   6   8  296.02   23.62   2
   1  -6   8  275.79   23.88   2
  -1   6   8  308.17   26.00   2
  -1  -6   8  285.22   26.53   2
  -1   6   9   17.52    6.26   2
  -1  -6   9   32.04    9.32   2
   1   6   9      20    6.58   2
   1  -6   9   29.48    8.14   2
   1   6  10  164.75   18.24   2
   1  -6  10  179.81   20.50   2
  -1  -7  -6  110.16   14.77   2
   1  -7  -6  111.63   14.57   2
  -1  -7  -5   17.11    5.91   2
   1  -7  -5   15.24    5.60   2
   1  -7  -5    7.04    4.84   2
   1  -7  -4  154.33   27.24   2
  -1  -7  -4  153.36   25.41   2
  -1  -7  -4  149.82   16.23   2
   1  -7  -4  146.36   15.72   2
   1  -7  -3   24.22    8.80   2
   1  -7  -3   24.64    6.43   2
  -1  -7  -3   28.61   11.21   2
  -1  -7  -3   25.93    6.75   2
  -1  -7  -3   13.74    6.28   2
   1  -7  -3   11.88    6.06   2
  -1  -7  -2  114.02   13.41   2
   1  -7  -2  106.05   17.92   2
  -1  -7  -2  130.87   23.89   2
   1  -7  -2  141.59   22.01   2
  -1  -7  -2  145.14   21.94   2
   1  -7  -1    3.69    5.31   2
  -1  -7  -1    -6.1    6.76   2
   1  -7  -1   -0.14    4.15   2
  -1  -7  -1    8.38    6.18   2
  -1  -7   0  144.94   22.45   2
   1  -7   0  156.56   21.50   2
   1  -7   0  164.73   19.96   2
  -1  -7   1   16.82    9.36   2
   1  -7   1    7.49    3.38   2
  -1  -7   2  109.95   18.28   2
   1  -7   2  127.84   16.09   2
  -1  -7   3   17.38    8.32   2
   1  -7   3   25.45    7.58   2
   1  -7   4  134.08   16.45   2
  -1  -7   4  115.22   17.87   2
  -1  -7   5   26.91    9.52   2
   1  -7   5   11.66    5.96   2
  -1  -7   6   96.54   16.09   2
   2   0 -15    5.77    2.90   2
   2   0 -14   293.4   19.98   2
  -2   0 -14  295.78   19.59   2
  -2   0 -13    0.42    2.40   2
   2   0 -13    0.63    2.20   2
   2   0 -12  754.65   29.51   2
  -2   0 -12  801.68   30.60   2
  -2   0 -11   -2.53    2.48   2
   2   0 -11    4.76    2.30   2
   2   0 -10  965.68   31.50   2
  -2   0 -10  967.33   30.85   2
  -2   0  -9    -0.3    1.54   2
   2   0  -9    1.99    1.86   2
   2   0  -8 1971.08   43.54   2
  -2   0  -8 2072.86   43.28   2
   2   0  -7    2.84    1.51   2
  -2   0  -7    3.43    1.68   2
   2   0  -6 1832.22   45.03   2
  -2   0  -6 1879.96   36.78   2
  -2   0  -6 1850.46   48.36   2
  -2   0  -5    2.78    2.34   2
  -2   0  -5    2.12    1.22   2
   2   0  -5   -0.62    0.98   2
  -2   0  -4 4120.77   71.17   2
   2   0  -4 4078.82   67.91   2
  -2   0  -4 4091.45   61.55   2
  -2   0  -3    3.29    1.31   2
  -2   0  -3    4.46    1.37   2
  -2   0  -3    3.98    1.29   2
   2   0  -3    4.76    1.97   2
   2   0  -2    3707   56.61   2
  -2   0  -2 3936.29   53.86   2
  -2   0  -2 3668.17   57.83   2
   2   0  -2 3863.32   58.83   2
  -2   0  -1    5.68    1.71   2
   2   0  -1    9.26    2.09   2
  -2   0  -1     9.4    1.83   2
   2   0  -1    7.49    1.66   2
  -2   0   0 5294.29   60.72   2
  -2   0   0 4886.99   62.57   2
   2   0   1    6.04    1.42   2
   2   0   1    3.59    0.93   2
   2   0   1    7.19    1.71   2
  -2   0   1    3.44    1.80   2
  -2   0   1    6.23    1.79   2
  -2   0   2 4008.79   56.95   2
   2   0   2 3816.67   53.81   2
   2   0   3    3.46    1.41   2
   2   0   3    3.13    1.68   2
  -2   0   3    0.95    1.35   2
  -2   0   4 4271.72   70.75   2
   2   0   4 4352.58   69.12   2
   2   0   5    0.79    0.92   2
   2   0   5    1.31    1.30   2
  -2   0   5    1.76    2.37   2
  -2   0   6 2337.52   54.98   2
   2   0   6 2316.62   52.37   2
   2   0   7   -0.38    1.20   2
  -2   0   7     2.9    2.75   2
   2   0   7    0.07    1.83   2
  -2   0   8 2244.31   61.82   2
   2   0   8  2249.2   58.20   2
  -2   0   9     3.4    3.70   2
   2   0   9    2.04    2.72   2
  -2   0  10 1323.61   51.82   2
   2   0  10 1316.12   48.97   2
   2   0  11   -2.61    3.77   2
  -2   0  11    -2.4    2.78   2
  -2   0  12  921.53   48.43   2
   2   0  12  899.39   45.25   2
  -2   0  13   -2.58    4.13   2
   2   0  13    0.38    3.50   2
  -2   0  14  414.15   35.47   2
   2   0  14  361.08   31.54   2
  -2  -1 -15   25.59    6.60   2
   2  -1 -15   19.63    5.92   2
   2  -1 -14  213.38   18.18   2
  -2  -1 -14  181.27   16.44   2
   2   1 -14  220.49   23.80   2
  -2   1 -13   28.26    5.36   2
   2   1 -13   18.23    4.40   2
   2  -1 -13   20.79    5.52   2
  -2  -1 -13   24.72    6.04   2
   2   1 -13   25.56    8.39   2
   2   1 -12  543.31   22.82   2
  -2  -1 -12  550.51   26.95   2
   2  -1 -12  557.15   27.05   2
  -2   1 -12  578.46   23.41   2
   2   1 -12  589.05   34.72   2
  -2  -1 -11   78.83    9.66   2
   2   1 -11   81.69    8.24   2
  -2   1 -11   89.82    8.41   2
   2  -1 -11   74.59    8.88   2
   2   1 -11   75.02   11.78   2
  -2  -1 -10  606.29   25.72   2
   2  -1 -10  606.93   25.66   2
  -2   1 -10  632.54   22.05   2
   2   1 -10  608.33   31.65   2
   2   1 -10  624.47   22.92   2
  -2   1  -9   66.68    6.41   2
  -2  -1  -9   72.64    8.37   2
   2   1  -9   73.13   10.23   2
   2  -1  -9   71.21    8.22   2
   2   1  -9   73.37    7.02   2
  -2  -1  -8 1868.25   43.97   2
   2   1  -8 1843.51   52.28   2
  -2   1  -8    1944   37.89   2
   2   1  -8 1839.03   38.96   2
   2  -1  -8 1877.02   44.34   2
  -2   1  -7  376.26   22.21   2
  -2   1  -7  339.39   12.68   2
   2  -1  -7  339.32   16.09   2
  -2  -1  -7   348.7   16.02   2
   2   1  -7  356.81   20.16   2
   2   1  -6 1413.57   41.52   2
  -2   1  -6 1426.02   41.67   2
  -2   1  -6 1358.37   27.04   2
  -2  -1  -6 1344.66   32.61   2
  -2  -1  -6 1374.38   42.03   2
   2  -1  -6 1382.36   37.24   2
  -2  -1  -6 1414.06   35.10   2
   2  -1  -6 1308.09   32.66   2
   2   1  -6 1336.62   39.16   2
  -2   1  -5  264.43   15.19   2
  -2   1  -5  234.43    8.83   2
   2   1  -5  254.73   15.02   2
   2  -1  -5  251.22   13.45   2
  -2  -1  -5  262.77   16.31   2
  -2  -1  -5  243.67   11.66   2
   2   1  -5  269.88   15.92   2
  -2  -1  -5  260.77   13.01   2
  -2   1  -4 3265.09   45.44   2
  -2  -1  -4  3218.2   52.29   2
   2   1  -4 3067.49   61.22   2
   2  -1  -4 2977.41   53.40   2
  -2  -1  -4 3309.62   55.01   2
  -2  -1  -4  3069.8   62.16   2
  -2   1  -4 2900.85   56.63   2
   2   1  -4 3117.12   61.10   2
   2  -1  -3  654.99   17.95   2
  -2   1  -3  636.26   19.14   2
  -2  -1  -3  665.25   19.29   2
  -2  -1  -3  621.72   17.49   2
  -2  -1  -3   641.1   17.18   2
  -2   1  -3  628.96   14.93   2
   2   1  -3  656.22   22.80   2
   2   1  -3  659.25   24.35   2
  -2  -1  -2  724.31   19.72   2
   2   1  -2  699.78   27.95   2
   2  -1  -2  711.28   16.39   2
   2   1  -2  717.97   23.89   2
  -2   1  -2  711.84   17.29   2
   2   1  -2  717.72   27.66   2
  -2   1  -2   709.2   21.06   2
  -2  -1  -2  708.39   15.58   2
  -2  -1  -2  703.97   18.07   2
  -2  -1  -1  326.33    9.72   2
   2   1  -1  325.34   16.91   2
  -2  -1  -1  344.58   13.62   2
   2  -1  -1  327.71   16.21   2
  -2   1  -1  328.58   10.64   2
   2   1  -1  324.81   15.17   2
   2   1  -1  319.87   20.22   2
  -2  -1  -1  316.86   11.32   2
  -2   1  -1  238.49    7.80   2
   2  -1  -1  342.51    7.97   2
   2  -1  -1  312.74   13.05   2
  -2  -1   0 3314.67   63.91   2
  -2  -1   0 3467.93   55.43   2
   2   1   0 3506.25   54.16   2
   2  -1   0 3541.19   52.55   2
   2   1   0 3362.94   63.83   2
   2  -1   0 3456.75   56.62   2
  -2  -1   1  284.91   15.88   2
  -2   1   1  259.83   14.51   2
   2   1   1  269.42   12.18   2
   2  -1   1  247.41   11.29   2
  -2   1   1  269.49   12.39   2
   2  -1   1  287.37    7.00   2
   2   1   1  272.73   10.33   2
  -2  -1   1  280.64   16.07   2
  -2  -1   1  280.69   18.99   2
   2  -1   1  275.35    9.51   2
  -2  -1   2 1131.74   33.26   2
   2   1   2  1068.4   18.85   2
   2   1   2 1073.81   25.40   2
   2  -1   2    1072   21.12   2
   2  -1   2 1092.35   20.80   2
  -2   1   2  965.99   34.77   2
   2   1   2 1067.72   23.61   2
   2  -1   2 1059.16   20.84   2
  -2   1   2 1120.02   32.46   2
  -2   1   2 1090.36   23.68   2
  -2  -1   2 1043.71   30.53   2
   2   1   3  740.53   21.00   2
  -2   1   3  732.43   29.83   2
   2  -1   3  727.22   16.93   2
   2   1   3     726   14.45   2
  -2  -1   3  761.26   25.24   2
   2  -1   3  724.66   19.02   2
   2   1   3  714.28   19.25   2
   2   1   3  716.88   15.14   2
   2  -1   3  718.98   14.37   2
  -2   1   3  736.29   21.81   2
  -2  -1   3  722.38   23.71   2
  -2   1   4  3278.9   60.85   2
   2  -1   4 3179.93   55.88   2
   2   1   4 3324.13   48.19   2
  -2  -1   4 3296.16   63.84   2
   2  -1   4 3217.69   45.19   2
   2   1   4  3341.9   53.85   2
   2   1   5  234.08   10.13   2
   2  -1   5  258.66   13.84   2
  -2   1   5  251.51   15.45   2
   2   1   5     229   11.39   2
  -2  -1   5  247.28   15.38   2
   2  -1   5  243.88    8.65   2
  -2  -1   6 1571.15   44.88   2
  -2   1   6 1608.92   45.48   2
   2   1   6 1522.99   35.15   2
   2   1   6 1488.31   33.39   2
   2  -1   6 1439.49   28.09   2
   2  -1   6 1612.88   40.88   2
   2  -1   7   367.7   19.70   2
  -2   1   7   380.6   22.67   2
   2   1   7  341.13   16.04   2
  -2  -1   7  367.42   21.84   2
   2   1   7  331.87   15.79   2
   2   1   8 1784.73   44.15   2
   2  -1   8 1855.59   51.16   2
  -2  -1   8 1800.35   54.77   2
  -2   1   8 1883.52   57.57   2
   2   1   9   47.84    6.94   2
   2  -1   9   72.69   10.40   2
  -2   1   9   65.85   11.24   2
  -2  -1   9   61.73   10.19   2
  -2   1  10  718.02   38.64   2
   2  -1  10  718.01   34.94   2
  -2  -1  10  699.79   37.06   2
   2   1  10  711.26   29.52   2
   2   1  11   62.22    8.70   2
  -2  -1  11   70.39   12.66   2
  -2   1  11   65.74   11.85   2
   2  -1  11   91.62   13.28   2
  -2  -1  12  526.65   35.58   2
  -2   1  12  511.33   41.07   2
   2  -1  12  554.02   34.30   2
   2   1  12  499.83   26.92   2
  -2   1  12  545.76   37.62   2
  -2   1  13    37.9   12.14   2
  -2  -1  13   51.84   11.70   2
   2  -1  13   36.18    9.96   2
  -2   1  13   32.51   10.22   2
  -2  -1  14  248.26   27.43   2
   2  -1  14  264.48   26.24   2
  -2   1  14   251.9   29.83   2
  -2   1  14  251.12   28.42   2
  -2   1  15   38.18   12.36   2
  -2  -2 -14  121.58   14.49   2
   2  -2 -14  112.53   14.06   2
   2   2 -14  144.29   21.34   2
  -2   2 -14  131.52   19.47   2
  -2   2 -13  107.08   16.14   2
   2   2 -13   99.74   17.18   2
   2  -2 -13   86.49   11.74   2
  -2  -2 -13   86.12   11.75   2
  -2   2 -12  348.05   27.08   2
   2  -2 -12  366.87   23.25   2
   2   2 -12  336.29   29.17   2
  -2  -2 -12   334.1   22.13   2
   2  -2 -11  193.13   15.87   2
  -2   2 -11  193.39   11.10   2
  -2  -2 -11  195.65   16.04   2
   2   2 -11  170.36   19.80   2
   2   2 -11  171.19   10.67   2
  -2   2 -11  205.22   19.17   2
  -2   2 -10  349.49   14.24   2
  -2  -2 -10  326.87   19.96   2
   2  -2 -10   318.9   19.31   2
   2   2 -10  345.13   15.16   2
   2   2 -10   353.9   26.70   2
  -2   2 -10  374.88   24.50   2
  -2  -2  -9   180.5   13.74   2
   2   2  -9  197.23   19.18   2
   2   2  -9  187.54   10.25   2
   2  -2  -9  174.43   13.41   2
  -2   2  -9  186.64    9.47   2
  -2   2  -9  197.82   16.35   2
  -2  -2  -8   840.5   29.79   2
  -2   2  -8  888.37   20.84   2
   2  -2  -8  871.68   30.30   2
   2   2  -8  900.01   39.78   2
  -2   2  -8  902.06   33.02   2
  -2  -2  -7  291.06   15.96   2
  -2   2  -7   282.9    9.90   2
  -2   2  -7   310.1   17.25   2
   2  -2  -7  286.88   16.13   2
   2   2  -7  321.45   22.70   2
   2   2  -6  716.32   33.51   2
  -2   2  -6  690.01   15.69   2
  -2  -2  -6  690.91   24.07   2
   2  -2  -6   714.6   24.43   2
  -2   2  -6   744.6   31.80   2
  -2   2  -6  733.92   24.73   2
   2  -2  -6  746.96   27.51   2
  -2  -2  -5  333.37   18.98   2
   2   2  -5  350.44   23.31   2
  -2  -2  -5  368.06   17.69   2
  -2  -2  -5  371.41   21.56   2
   2   2  -5   327.4   21.46   2
  -2   2  -5   361.7   20.21   2
  -2   2  -5   315.5   11.05   2
   2  -2  -5  338.67   15.38   2
  -2  -2  -5  331.85   15.35   2
  -2   2  -5  348.98   15.33   2
   2  -2  -5  337.34   16.78   2
   2   2  -5   369.2   22.01   2
  -2  -2  -4 1953.77   43.47   2
   2   2  -4 1883.75   59.54   2
   2  -2  -4 1902.36   40.64   2
  -2  -2  -4 1845.29   39.24   2
   2  -2  -4 1879.28   39.08   2
  -2  -2  -4 1820.71   42.56   2
  -2   2  -4 1832.48   38.80   2
  -2   2  -4 1836.06   46.49   2
   2   2  -4 1919.94   53.14   2
  -2  -2  -3  709.94   22.21   2
   2  -2  -3  722.24   21.13   2
  -2   2  -3  623.02   18.73   2
   2  -2  -3  708.53   27.12   2
  -2  -2  -3  656.05   22.11   2
   2  -2  -3  719.47   20.42   2
   2   2  -3  685.52   22.96   2
   2   2  -3  698.86   29.78   2
   2   2  -3  659.76   36.10   2
  -2  -2  -3  764.86   24.44   2
  -2  -2  -3  678.69   20.47   2
  -2   2  -3  699.59   25.32   2
  -2   2  -2 1425.55   33.39   2
   2   2  -2 1186.05   46.66   2
   2  -2  -2  1360.3   28.15   2
   2  -2  -2 1301.51   40.87   2
  -2  -2  -2 1388.41   31.38   2
   2   2  -2 1282.91   28.63   2
  -2  -2  -2 1362.69   34.02   2
   2   2  -2 1328.82   44.80   2
   2  -2  -2 1323.93   35.04   2
  -2   2  -2 1299.08   35.88   2
  -2  -2  -2 1353.61   29.98   2
   2  -2  -2 1327.62   28.26   2
   2  -2  -1 1232.12   31.11   2
   2   2  -1 1178.99   25.57   2
  -2  -2  -1 1209.34   27.44   2
   2   2  -1 1196.41   39.39   2
  -2   2  -1 1208.27   29.58   2
   2  -2  -1 1223.35   34.96   2
  -2  -2  -1 1207.71   33.42   2
  -2  -2  -1 1212.53   28.77   2
  -2   2   0 2296.95   45.23   2
  -2  -2   0 2321.72   44.24   2
  -2  -2   0 2327.01   42.22   2
   2  -2   0 2314.72   34.89   2
   2   2   0 2337.18   40.17   2
  -2  -2   0 2314.54   54.47   2
   2   2   0 2323.22   51.17   2
   2  -2   0 2376.68   44.92   2
   2  -2   0 2166.06   44.17   2
   2   2   1 1118.34   25.72   2
   2  -2   1 1164.31   28.03   2
  -2  -2   1 1078.47   43.31   2
   2   2   1 1146.75   31.36   2
   2  -2   1 1143.52   24.96   2
   2  -2   1 1177.79   23.78   2
  -2  -2   1 1107.28   28.88   2
  -2  -2   1 1117.14   43.88   2
  -2   2   1 1121.44   30.18   2
  -2   2   2 1452.12   40.16   2
   2  -2   2 1420.08   29.06   2
   2   2   2 1419.86   29.56   2
   2   2   2 1403.98   34.38   2
   2  -2   2  1472.3   31.87   2
   2   2   2 1396.61   30.56   2
  -2   2   2 1373.53   36.03   2
  -2  -2   2 1385.79   42.51   2
  -2  -2   2 1448.93   46.54   2
   2   2   3  678.61   23.22   2
   2  -2   3  667.19   20.34   2
  -2  -2   3  716.98   29.97   2
  -2   2   3  701.29   30.59   2
   2  -2   3  687.21   19.72   2
  -2   2   3  693.57   26.46   2
   2   2   3   653.9   20.26   2
  -2  -2   3   715.4   29.71   2
   2   2   3  654.17   18.71   2
  -2   2   4 1788.17   49.23   2
   2   2   4 1855.93   36.39   2
   2  -2   4 1850.12   39.58   2
   2   2   4 1823.35   39.10   2
  -2   2   4 1923.08   59.51   2
  -2  -2   4 1839.16   50.13   2
   2  -2   4 1843.36   38.20   2
  -2  -2   4  1903.3   47.56   2
  -2   2   5  276.34   22.99   2
   2   2   5  204.07    9.91   2
   2   2   5  278.04   12.60   2
  -2  -2   5  291.21   19.09   2
   2  -2   5  285.96   13.65   2
   2   2   5  267.84   13.66   2
   2  -2   5  278.34   14.65   2
  -2   2   5  298.31   20.00   2
   2   2   6  856.07   24.55   2
  -2  -2   6  861.37   34.26   2
  -2   2   6  831.45   37.21   2
   2  -2   6  906.43   29.53   2
   2   2   7  337.77   18.89   2
  -2   2   7  339.73   24.74   2
  -2  -2   7  319.31   21.45   2
   2  -2   7  331.93   19.09   2
   2   2   7  319.98   15.27   2
   2  -2   8  916.77   35.11   2
   2   2   8  887.67   28.41   2
   2   2   8  977.03   38.27   2
  -2  -2   8  939.61   39.69   2
  -2   2   8  887.14   43.38   2
   2  -2   9  230.61   18.31   2
  -2  -2   9  209.18   19.41   2
   2   2   9  203.34   13.77   2
   2   2   9   219.3   19.75   2
  -2   2   9  226.65   22.46   2
   2  -2  10  482.83   28.03   2
  -2   2  10  450.83   33.18   2
   2   2  10  427.31   21.44   2
  -2  -2  10  460.59   30.49   2
  -2  -2  11   178.6   19.80   2
   2  -2  11  184.26   18.43   2
   2   2  11  189.16   14.74   2
  -2   2  11  196.41   22.83   2
   2  -2  12  355.14   27.13   2
  -2  -2  12   420.4   32.46   2
  -2   2  12  369.15   31.91   2
   2   2  12  366.27   21.66   2
   2  -2  13   88.54   14.31   2
  -2   2  13   80.92   15.59   2
  -2  -2  13   83.13   15.35   2
  -2   2  14  126.65   19.20   2
  -2   2  15   41.23   11.90   2
   2   3 -14   97.99   20.75   2
   2   3 -13   62.16   16.23   2
   2  -3 -13   47.87    9.14   2
  -2  -3 -13   55.14    9.98   2
   2   3 -12  127.01   20.88   2
   2  -3 -12  144.37   15.36   2
  -2  -3 -12  140.95   15.10   2
   2   3 -11  144.15   21.58   2
   2  -3 -11  117.17   13.56   2
  -2   3 -11   109.7   17.09   2
  -2  -3 -11  122.33   13.38   2
  -2   3 -10  168.52   19.74   2
  -2  -3 -10  155.61   14.41   2
   2   3 -10  200.05   24.62   2
   2  -3 -10  167.22   15.21   2
   2   3  -9  149.24   19.86   2
  -2  -3  -9  142.13   13.25   2
  -2   3  -9  148.33   17.24   2
   2   3  -9  138.45    7.47   2
   2  -3  -9  135.44   12.86   2
  -2   3  -8  188.25   18.70   2
  -2  -3  -8  169.83   13.66   2
   2   3  -8  154.82    7.55   2
   2   3  -8  168.05   15.54   2
   2   3  -8  196.75   23.31   2
   2  -3  -8  160.16   13.13   2
   2   3  -7  428.34   21.07   2
  -2  -3  -7  432.23   21.28   2
   2  -3  -7  449.49   21.27   2
  -2   3  -7  418.91   26.81   2
  -2  -3  -6  196.18   13.51   2
   2  -3  -6  192.95   13.21   2
  -2   3  -6  201.72   17.30   2
  -2  -3  -6  207.06   18.13   2
   2   3  -6  199.12   11.75   2
   2   3  -6  216.45   24.72   2
   2   3  -5  501.27   37.80   2
  -2   3  -5  477.62   21.55   2
  -2  -3  -5  487.59   25.25   2
   2  -3  -5  520.62   22.83   2
   2  -3  -5     486   20.54   2
  -2   3  -5   530.4   30.41   2
   2   3  -5  463.62   15.97   2
  -2  -3  -5  469.53   20.42   2
  -2  -3  -4  189.29   14.14   2
  -2   3  -4  174.19    8.67   2
   2   3  -4  184.24   21.01   2
  -2   3  -4  184.85   17.57   2
   2  -3  -4  211.59   13.29   2
   2  -3  -4  186.96   11.70   2
   2   3  -4  178.64    8.96   2
  -2  -3  -4  178.68   11.75   2
  -2  -3  -4  158.46   14.46   2
   2  -3  -4  201.72   13.07   2
   2  -3  -3   676.1   22.79   2
  -2  -3  -3  655.06   25.93   2
   2   3  -3  692.68   36.68   2
  -2   3  -3  602.65   32.07   2
  -2  -3  -3  623.79   21.99   2
  -2  -3  -3  672.29   26.46   2
   2  -3  -3  648.25   28.07   2
   2  -3  -3  651.34   21.77   2
   2  -3  -3  662.54   34.28   2
  -2   3  -3  650.37   14.48   2
  -2  -3  -3  697.76   27.70   2
   2   3  -3  621.94   17.47   2
   2  -3  -2  214.08   14.61   2
   2  -3  -2  174.72   10.42   2
  -2  -3  -2  170.18   12.54   2
   2  -3  -2  183.65   16.10   2
  -2   3  -2  167.88    6.20   2
   2   3  -2  166.69    8.60   2
   2   3  -2  175.44   15.63   2
   2  -3  -2  178.29   10.01   2
  -2  -3  -2  167.63   10.70   2
  -2  -3  -2  179.36   13.54   2
   2   3  -1  443.14   22.63   2
   2  -3  -1  411.67   15.53   2
   2  -3  -1  426.29   22.21   2
  -2  -3  -1  414.15   16.72   2
  -2  -3  -1  462.53   20.23   2
   2   3  -1  418.65   14.55   2
  -2   3  -1  430.64   19.68   2
   2  -3  -1  430.99   15.02   2
  -2  -3  -1  419.11   21.98   2
   2  -3  -1  457.06   20.89   2
  -2  -3   0  205.31   11.33   2
  -2  -3   0  215.93   17.76   2
  -2   3   0  204.18   13.32   2
   2  -3   0  212.55   13.72   2
   2  -3   0  147.46    9.31   2
   2  -3   0  207.39   14.20   2
   2   3   0   192.4    9.94   2
   2   3   0   216.6   14.35   2
  -2  -3   0  186.77   12.64   2
   2  -3   0  200.97    9.05   2
   2   3   1  441.89   16.09   2
  -2  -3   1  389.88   29.61   2
  -2  -3   1  426.72   17.70   2
   2   3   1  420.07   19.64   2
  -2  -3   1  423.01   19.40   2
   2  -3   1  355.91   18.08   2
   2  -3   1   422.2   11.84   2
  -2   3   1  422.16   20.03   2
   2  -3   1  457.99   19.39   2
   2  -3   1  446.09   19.82   2
  -2  -3   1  463.67   31.02   2
  -2  -3   2  117.72   10.42   2
   2  -3   2  137.02    5.49   2
  -2  -3   2   158.6   19.47   2
   2  -3   2  109.81    7.61   2
   2   3   2   138.7   11.07   2
  -2  -3   2  147.39   17.07   2
  -2   3   2  149.82   12.31   2
  -2  -3   2  139.52   11.64   2
   2   3   2  145.36    9.43   2
   2  -3   2   134.4   10.46   2
   2   3   2   142.8   10.29   2
   2  -3   2  141.96   10.21   2
  -2  -3   3  702.21   32.35   2
   2  -3   3  721.44   25.37   2
   2   3   3     688   23.30   2
  -2   3   3  690.68   28.07   2
   2   3   3  687.84   22.71   2
   2   3   3  720.77   26.56   2
   2  -3   3  741.56   24.70   2
  -2  -3   3   727.5   35.60   2
  -2  -3   3  738.51   37.90   2
   2   3   4  159.43   10.94   2
  -2   3   4  169.39   14.43   2
   2  -3   4  172.58   11.83   2
   2  -3   4  166.45   11.75   2
  -2  -3   4  180.12   17.42   2
  -2  -3   4  175.03   15.81   2
   2  -3   5   477.7   20.61   2
  -2  -3   5  516.13   28.79   2
   2  -3   5   508.1   21.76   2
  -2   3   5  513.55   29.81   2
  -2   3   5   488.3   25.96   2
   2   3   5  481.06   19.80   2
  -2  -3   5  488.77   25.02   2
   2   3   6  149.03   11.00   2
   2  -3   6  164.74   13.23   2
  -2  -3   6  173.43   16.96   2
  -2   3   6  159.15   15.87   2
  -2   3   7   435.9   27.48   2
  -2  -3   7   442.9   27.55   2
   2  -3   7  443.53   22.94   2
   2   3   7  425.93   19.75   2
   2   3   8   174.8   12.89   2
   2  -3   8  137.97   13.74   2
  -2   3   8  181.37   18.17   2
  -2  -3   8   192.4   18.78   2
   2  -3   9   85.31   11.24   2
  -2  -3   9  121.82   15.38   2
  -2   3   9  131.73   16.35   2
   2   3   9  128.83   11.54   2
   2   3  10  134.42   12.37   2
   2  -3  10  114.57   14.00   2
  -2  -3  10  134.75   17.18   2
  -2   3  10  115.23   16.04   2
   2  -3  11  112.98   14.78   2
  -2  -3  11  120.17   17.24   2
   2   3  11  105.37   11.47   2
  -2   3  11   84.45   13.94   2
  -2  -3  12  157.69   19.99   2
  -2   3  12  140.87   18.92   2
   2  -3  12  161.64   18.19   2
  -2   3  13   57.23   12.69   2
   2  -3  13   58.45   11.88   2
  -2   3  14   68.45   14.04   2
   2   4 -12   60.13   17.99   2
   2   4 -11   41.56   15.64   2
  -2  -4 -11   29.24    7.47   2
   2  -4 -11   30.72    7.68   2
  -2  -4 -10   81.13   11.44   2
   2   4 -10  121.98   24.23   2
   2  -4 -10   93.69   11.85   2
   2   4  -9   33.41   11.72   2
  -2  -4  -9   30.56    6.88   2
   2  -4  -9   34.57    6.98   2
  -2   4  -8   92.81   11.66   2
   2  -4  -8  103.25   11.69   2
  -2  -4  -8   91.92   11.05   2
   2   4  -8  104.39   20.82   2
   2  -4  -7   39.59    6.73   2
  -2   4  -7   34.18    6.21   2
  -2  -4  -7   31.52    5.93   2
   2   4  -7   23.54    8.91   2
   2   4  -6   62.94   13.82   2
  -2   4  -6   51.32    5.71   2
   2  -4  -6   72.73    8.93   2
   2   4  -6   65.66    4.36   2
  -2  -4  -6    58.2    7.88   2
   2   4  -5   24.03    8.46   2
   2  -4  -5   25.43    4.99   2
  -2  -4  -5   22.59    4.87   2
  -2   4  -5   24.69    3.45   2
   2   4  -5   21.99    2.62   2
   2  -4  -4   18.54    7.69   2
   2  -4  -4   23.03    4.66   2
  -2  -4  -4   17.51    6.17   2
  -2   4  -4   23.96    3.07   2
   2  -4  -4   28.42    5.65   2
   2   4  -4   24.05    6.18   2
  -2  -4  -4   21.71    4.24   2
   2   4  -4   21.61    2.89   2
   2   4  -3   65.95    5.36   2
   2  -4  -3    65.5    7.10   2
  -2  -4  -3   61.64    9.55   2
  -2   4  -3   69.15    4.73   2
   2   4  -3    75.2   11.09   2
   2  -4  -3   62.48   11.24   2
  -2  -4  -3   68.52    8.04   2
   2  -4  -3   65.92    7.81   2
   2  -4  -2   14.57    3.32   2
   2  -4  -2   12.39    4.71   2
  -2  -4  -2   12.47    3.30   2
   2   4  -2    8.79    3.47   2
   2   4  -2    8.48    2.02   2
  -2   4  -2   16.67    2.45   2
   2  -4  -2   13.86    3.78   2
   2  -4  -1  112.53   13.13   2
   2  -4  -1  120.46    8.61   2
  -2  -4  -1  121.37    9.97   2
   2  -4  -1  118.56   10.34   2
   2   4  -1   112.6    7.88   2
  -2   4  -1   124.7   12.44   2
   2   4  -1  127.41   12.09   2
  -2   4   0       3    3.38   2
  -2  -4   0     1.7    1.67   2
   2  -4   0   -0.25    1.30   2
  -2  -4   0    5.07    4.23   2
  -2  -4   0   -2.78    4.58   2
   2   4   0   -0.89    1.57   2
   2  -4   0    3.92    2.76   2
   2  -4   0    2.77    1.37   2
   2   4   0    8.19    2.03   2
   2  -4   1  121.07   11.45   2
   2   4   1   97.76   10.12   2
  -2  -4   1   100.3    9.19   2
   2  -4   1   89.01   11.41   2
  -2  -4   1  109.49   17.69   2
   2  -4   1  104.75    6.84   2
   2   4   1  103.84    8.47   2
  -2   4   1   99.59   10.77   2
  -2  -4   1  123.53   18.46   2
  -2  -4   2   10.56    5.60   2
   2  -4   2   22.62    4.44   2
  -2   4   2   18.89    4.93   2
   2   4   2   19.53    4.80   2
   2  -4   2   16.46    3.77   2
  -2  -4   2   18.12    6.96   2
   2  -4   2   21.24    2.78   2
  -2   4   3   56.95    8.41   2
   2  -4   3   40.98    3.02   2
  -2  -4   3   74.47   12.57   2
   2   4   3   62.23    7.97   2
   2   4   3   61.83    8.49   2
   2  -4   3   60.92    5.67   2
  -2  -4   3   64.93   13.24   2
  -2  -4   3   55.83    9.19   2
   2  -4   3   66.69    8.09   2
  -2   4   4   50.97    8.83   2
   2  -4   4   46.35    7.23   2
   2   4   4   48.87    7.07   2
  -2  -4   4   37.36    9.09   2
  -2  -4   4   34.99    8.58   2
  -2   4   5    8.44    3.47   2
   2  -4   5     7.4    2.91   2
   2   4   5   11.79    3.99   2
  -2  -4   5    5.92    4.78   2
   2   4   6   83.48    9.46   2
  -2   4   6   78.36   11.75   2
  -2  -4   6   89.71   13.04   2
   2  -4   6    68.2    9.32   2
  -2  -4   7   29.33    7.74   2
  -2   4   7   33.38    8.12   2
   2  -4   7   28.92    6.50   2
   2   4   7   29.64    5.48   2
   2   4   8  103.43   10.99   2
  -2   4   8  109.13   14.30   2
   2  -4   8   96.04   12.06   2
  -2  -4   8   115.2   15.67   2
   2   4   9   35.88    7.03   2
  -2   4   9   35.57    9.02   2
  -2  -4   9   33.19    8.76   2
   2  -4   9    25.6    6.86   2
  -2   4  10   88.75   14.03   2
   2   4  10   77.07   10.13   2
  -2  -4  10   86.85   14.18   2
   2  -4  10   86.49   12.70   2
  -2  -4  11    40.3   11.28   2
   2  -4  11   28.06    8.04   2
  -2   4  11    22.4    6.98   2
   2   4  11   25.65    5.97   2
  -2   4  12   73.33   13.80   2
   2  -4  12   73.81   12.92   2
  -2   4  13      26    9.34   2
  -2  -5 -10   58.43   10.15   2
   2  -5 -10   61.46   10.96   2
   2   5  -9   31.07   11.37   2
  -2  -5  -9   16.32    4.93   2
   2  -5  -9   16.87    5.79   2
   2   5  -8   53.73   13.85   2
  -2  -5  -8   54.35    9.12   2
   2  -5  -8   60.45    9.62   2
   2  -5  -7   19.12    5.05   2
   2   5  -7   18.06    8.33   2
  -2  -5  -7   15.85    4.43   2
   2   5  -6  102.25   15.28   2
   2  -5  -6  106.01   11.78   2
  -2  -5  -6  104.62   12.05   2
   2  -5  -5   29.82   10.86   2
  -2  -5  -5   20.97    7.83   2
  -2  -5  -5   21.71    5.65   2
   2   5  -5   23.34    7.18   2
   2  -5  -5   23.98    5.70   2
  -2   5  -5   28.91    3.38   2
   2  -5  -4    69.6   15.09   2
  -2  -5  -4   75.45   13.71   2
  -2   5  -4   72.23    5.42   2
  -2  -5  -4   64.77    8.92   2
   2  -5  -4   58.59    8.00   2
   2   5  -4   87.64   11.88   2
   2   5  -3    9.61    4.30   2
   2  -5  -3    6.25    3.80   2
  -2  -5  -3    3.06    2.50   2
  -2  -5  -3    7.14    3.06   2
   2  -5  -3    7.57    2.93   2
   2   5  -3    8.47    2.11   2
  -2   5  -3    7.66    2.04   2
   2   5  -2   37.34    4.62   2
   2  -5  -2   43.22   10.50   2
  -2  -5  -2   30.42    5.79   2
   2  -5  -2   26.45    4.82   2
   2   5  -2   43.11    8.17   2
   2  -5  -1    9.63    3.20   2
   2  -5  -1   24.46    6.05   2
  -2  -5  -1   20.16    4.75   2
   2  -5  -1   30.99    9.05   2
  -2  -5  -1   15.94    4.27   2
   2   5  -1   20.17    4.95   2
   2  -5  -1   19.28    3.84   2
   2   5  -1   20.94    3.61   2
  -2   5   0    5.01    3.67   2
  -2  -5   0    4.78    5.39   2
   2  -5   0    2.74    0.97   2
   2  -5   0    3.03    2.26   2
   2  -5   0    4.79    4.16   2
  -2  -5   0    5.91    2.36   2
   2   5   0   11.33    4.27   2
  -2  -5   1    1.64    5.81   2
  -2  -5   1   12.64    4.49   2
  -2   5   1    8.52    4.57   2
   2  -5   1     2.7    3.14   2
   2  -5   1    8.03    2.31   2
   2   5   1   10.37    3.62   2
   2  -5   1     3.9    2.11   2
   2  -5   2   33.39    4.03   2
   2  -5   2    22.5    5.10   2
   2  -5   2   25.95    4.91   2
  -2  -5   2   47.63   12.95   2
  -2  -5   2   39.77    7.23   2
  -2   5   2   27.55    6.69   2
   2   5   2   40.44    7.60   2
   2  -5   3    9.31    3.51   2
  -2   5   3    20.3    6.52   2
  -2  -5   3   12.95    4.84   2
   2  -5   3   18.03    2.88   2
  -2  -5   3    10.3    4.14   2
   2  -5   4   58.82    9.01   2
  -2   5   4   66.49   10.54   2
   2   5   4   64.44    9.78   2
  -2  -5   4   67.45   12.95   2
   2   5   5   14.21    5.13   2
  -2  -5   5    21.1    7.50   2
  -2   5   5    8.91    5.04   2
   2  -5   5   11.77    4.33   2
  -2   5   6   83.03   12.72   2
   2  -5   6   84.92   10.85   2
  -2  -5   6   99.43   15.45   2
   2   5   6   97.25   11.29   2
  -2  -5   7   18.27    7.74   2
   2  -5   7    9.99    4.66   2
  -2   5   7   12.86    5.67   2
   2   5   7   16.52    4.87   2
   2  -5   8   48.47    9.33   2
   2   5   8   36.86    7.54   2
  -2  -5   8   26.86    8.45   2
  -2   5   8   53.18   11.09   2
  -2  -5   9   15.97    8.10   2
   2   5   9    1.58    1.59   2
  -2   5   9   12.83    5.57   2
   2  -5   9   13.54    5.68   2
  -2  -5  10   75.64   14.96   2
  -2   5  10   69.08   13.70   2
   2   5  10    53.1    9.22   2
   2  -5  10   64.02   11.58   2
  -2   5  11    17.4    7.17   2
   2  -5  11    8.16    2.73   2
  -2  -6  -8   24.66    7.25   2
   2  -6  -8   18.78    5.96   2
   2  -6  -7  116.44   14.03   2
  -2  -6  -7  123.85   14.86   2
  -2  -6  -6   22.74    6.17   2
   2   6  -6   18.96    6.30   2
   2  -6  -6   24.16    6.36   2
  -2  -6  -5  106.83   19.20   2
   2   6  -5  118.88   13.82   2
  -2  -6  -5   110.2   13.39   2
   2  -6  -5  105.16   12.32   2
   2  -6  -5   96.88   20.37   2
   2   6  -4    9.68    4.75   2
  -2  -6  -4   10.82    5.86   2
   2  -6  -4   -0.61    3.00   2
   2  -6  -4   -2.66    6.38   2
  -2  -6  -4    0.12    1.66   2
   2  -6  -3   167.9   14.42   2
   2  -6  -3  198.54   25.05   2
   2   6  -3  176.23   15.52   2
  -2  -6  -3  132.59   13.88   2
  -2  -6  -3  208.21   24.04   2
  -2  -6  -2   -2.18    1.55   2
  -2  -6  -2   -6.87    4.92   2
  -2  -6  -2  -11.49   10.23   2
   2  -6  -2   -4.37    4.75   2
   2   6  -2    2.89    1.56   2
   2  -6  -2   -2.15    1.68   2
   2  -6  -2    2.41    4.47   2
   2   6  -1  222.15   17.54   2
   2  -6  -1  238.56   24.72   2
  -2  -6  -1  192.83   28.18   2
   2  -6  -1  233.43   15.83   2
   2  -6  -1  222.38   21.10   2
  -2  -6  -1  219.82   17.18   2
   2  -6   0    7.94    5.76   2
   2  -6   0   11.86    4.74   2
  -2  -6   0    3.23    1.86   2
   2  -6   0    2.89    1.82   2
   2   6   0    8.66    4.28   2
  -2  -6   0    7.53    3.45   2
  -2  -6   1  209.25   27.47   2
  -2   6   1  213.98   20.96   2
  -2  -6   1  226.82   18.14   2
   2   6   1  205.98   17.03   2
   2  -6   1  188.32   17.52   2
   2  -6   2    1.18    1.96   2
  -2   6   2   -3.42    3.70   2
  -2  -6   2    5.21    5.25   2
  -2   6   3  189.59   19.20   2
   2  -6   3   204.9   17.57   2
  -2  -6   3  208.97   25.29   2
  -2   6   4    0.92    2.67   2
   2  -6   4    3.53    3.71   2
  -2  -6   4   11.19    6.70   2
  -2  -6   5  116.55   17.99   2
  -2   6   5  101.78   14.90   2
   2  -6   5   115.8   13.60   2
   2   6   6   26.18    7.13   2
   2  -6   6    23.6    6.50   2
  -2   6   6   32.21    8.40   2
  -2  -6   6   22.63    8.41   2
   2   6   7  108.27   14.02   2
  -2   6   7  127.63   17.19   2
  -2  -6   7  132.09   19.26   2
   2  -6   7  132.29   15.22   2
  -2   6   8   31.82    8.82   2
   2   6   8   30.88    7.84   2
  -2  -6   8   37.78    9.43   2
   2  -6   8   35.96    8.47   2
   2   6   9    57.7   10.38   2
   2  -6   9   67.02   11.81   2
   2  -7  -6   11.73    5.45   2
   2  -7  -5  156.15   16.76   2
   2  -7  -5  132.11   25.54   2
  -2  -7  -5  162.88   17.87   2
  -2  -7  -4   16.99    5.85   2
   2  -7  -4   32.27   13.39   2
   2  -7  -4   14.44    5.30   2
  -2  -7  -3  156.11   16.61   2
  -2  -7  -3  180.01   26.04   2
  -2  -7  -3   97.06   21.51   2
   2  -7  -3  173.11   26.07   2
   2  -7  -2    8.81    4.65   2
  -2  -7  -2   15.31    8.52   2
  -2  -7  -2   -3.87    9.35   2
  -2  -7  -2    4.73    3.85   2
   2   7  -2    8.14    4.09   2
  -2  -7  -1     149   20.29   2
  -2  -7  -1  149.59   25.34   2
   2  -7  -1  181.89   24.15   2
   2   7  -1  147.68   14.92   2
   2  -7   0   22.15    9.44   2
   2   7   0   13.49    5.08   2
  -2  -7   0   23.73    9.56   2
   2  -7   1  136.33   19.42   2
  -2  -7   1  142.93   23.87   2
  -2  -7   2    9.53    6.30   2
  -2  -7   3  178.74   23.55   2
  -2  -7   4    6.27    5.05   2
  -2  -7   5  158.19   22.49   2
   3   0 -15    5.04    3.74   2
  -3   0 -14  124.91   13.00   2
   3   0 -14  113.65   12.51   2
   3   0 -14  139.98   18.96   2
   3   0 -13     1.3    2.39   2
   3   0 -13    2.21    3.87   2
  -3   0 -13    2.43    1.91   2
  -3   0 -12  166.15   13.63   2
   3   0 -12  163.95   13.95   2
  -3   0 -11   -1.37    2.43   2
   3   0 -11    0.62    1.61   2
  -3   0 -10  239.27   14.89   2
   3   0 -10  243.73   15.50   2
  -3   0  -9    0.66    1.81   2
   3   0  -9   -1.06    1.30   2
  -3   0  -8  223.83   12.88   2
  -3   0  -7    3.98    1.78   2
  -3   0  -7     2.6    1.74   2
  -3   0  -6  204.39   11.00   2
  -3   0  -6  234.49   16.68   2
  -3   0  -6  200.44   10.78   2
   3   0  -6  211.38   14.04   2
  -3   0  -5    1.08    0.84   2
  -3   0  -5    2.06    2.67   2
   3   0  -5    3.01    2.26   2
  -3   0  -5    1.57    1.08   2
  -3   0  -4    49.6    6.53   2
  -3   0  -4    48.2    4.60   2
  -3   0  -4   48.18    4.90   2
   3   0  -4   49.88    5.74   2
   3   0  -4   48.79    5.94   2
   3   0  -3    0.79    1.50   2
   3   0  -3    5.36    2.57   2
  -3   0  -3    1.65    0.95   2
  -3   0  -3    2.21    1.73   2
  -3   0  -3     2.3    1.31   2
  -3   0  -2   60.01    4.90   2
  -3   0  -2   53.62    5.46   2
   3   0  -2   53.82    4.95   2
   3   0  -2    52.7    5.73   2
   3   0  -1    3.08    1.11   2
   3   0  -1   -0.54    2.05   2
  -3   0  -1    4.16    1.93   2
  -3   0  -1    2.86    1.75   2
  -3   0  -1    4.23    1.72   2
   3   0   0   28.57    5.79   2
  -3   0   0   21.37    5.08   2
  -3   0   0   33.62    5.83   2
  -3   0   0   27.88    5.83   2
   3   0   0   32.79    6.05   2
   3   0   1    3.48    1.82   2
  -3   0   1    4.33    2.65   2
   3   0   1    0.29    1.65   2
  -3   0   1    1.51    1.29   2
   3   0   1    3.67    2.52   2
   3   0   2   62.87    5.60   2
  -3   0   2    74.2    6.32   2
   3   0   2   64.61    4.05   2
   3   0   2   69.47    5.21   2
  -3   0   2   70.91    6.85   2
   3   0   3    3.43    1.62   2
  -3   0   3    1.77    1.68   2
   3   0   3    1.36    1.28   2
  -3   0   4   80.67    8.08   2
   3   0   4   69.86    5.80   2
   3   0   5    3.38    2.16   2
  -3   0   5    7.31    3.62   2
   3   0   5    1.75    1.54   2
   3   0   6  260.87   12.42   2
  -3   0   6   280.9   17.92   2
   3   0   6  279.12   16.38   2
  -3   0   7     3.5    2.97   2
   3   0   7    0.35    0.85   2
   3   0   7    4.78    2.34   2
  -3   0   8  319.58   22.49   2
   3   0   8  285.96   14.75   2
   3   0   8  317.36   20.15   2
  -3   0   9   -2.16    2.44   2
   3   0   9     1.5    1.94   2
  -3   0  10  259.32   22.61   2
   3   0  10  259.88   20.81   2
   3   0  11    6.05    3.99   2
  -3   0  11    4.42    6.13   2
   3   0  12   189.9   19.75   2
  -3   0  12  171.73   21.09   2
  -3   0  13   10.96    7.26   2
  -3   0  14  113.53   18.77   2
  -3  -1 -15   37.55    7.96   2
  -3  -1 -14  139.74   14.83   2
   3  -1 -14  145.15   15.42   2
   3   1 -14  158.34   20.22   2
   3   1 -13   29.05    8.50   2
  -3  -1 -13   26.83    6.55   2
   3  -1 -13   21.38    5.62   2
   3   1 -13   19.97    4.85   2
   3  -1 -12  142.26   13.85   2
  -3  -1 -12  149.85   14.30   2
  -3   1 -12  161.41   12.31   2
   3   1 -12  144.89   12.21   2
   3   1 -12  144.34   17.41   2
  -3  -1 -11  105.01   11.07   2
   3   1 -11  116.01   10.31   2
   3  -1 -11  122.57   12.22   2
  -3   1 -11  112.35    9.78   2
   3   1 -11  111.98   14.56   2
  -3  -1 -10  201.21   14.77   2
   3   1 -10  218.93   13.79   2
  -3   1 -10  211.32   12.71   2
   3  -1 -10   212.4   15.41   2
   3   1 -10  202.97   18.51   2
   3  -1  -9  112.69   10.67   2
  -3   1  -9  125.85    9.20   2
  -3  -1  -9  122.28   10.82   2
   3   1  -9  110.04   13.06   2
   3  -1  -8  164.34   12.20   2
  -3   1  -8  168.57   10.07   2
  -3  -1  -8   173.3   12.19   2
   3   1  -8  155.69   15.00   2
  -3  -1  -7   357.5   16.94   2
  -3   1  -7  441.96   24.77   2
   3   1  -7  403.42   22.59   2
  -3   1  -7  381.44   14.70   2
  -3   1  -6  272.11   11.67   2
   3   1  -6  308.04   18.90   2
  -3  -1  -6  298.93   15.30   2
   3  -1  -6  317.36   16.48   2
  -3   1  -6  349.15   20.05   2
  -3  -1  -6  330.16   20.48   2
  -3  -1  -6  301.55   14.56   2
   3   1  -6  321.56   19.63   2
   3   1  -5  373.97   19.89   2
  -3  -1  -5  380.43   16.35   2
  -3   1  -5  380.61   19.08   2
  -3   1  -5  337.81   11.80   2
  -3  -1  -5  351.84   15.05   2
  -3   1  -5  325.22   12.63   2
   3  -1  -5  379.83   16.69   2
  -3  -1  -5  374.97   20.82   2
   3   1  -5  375.51   20.16   2
  -3  -1  -4  184.51   10.27   2
  -3  -1  -4  199.92   11.14   2
   3   1  -4  199.62   14.55   2
  -3   1  -4  191.79   11.71   2
  -3   1  -4  180.42    7.36   2
   3  -1  -4  184.07   10.30   2
  -3   1  -4     182    9.35   2
  -3  -1  -4  189.69   13.94   2
   3   1  -4  200.79   13.32   2
  -3  -1  -3  739.88   22.21   2
   3   1  -3   728.5   28.60   2
  -3  -1  -3  709.04   15.94   2
  -3   1  -3  699.09   21.75   2
   3   1  -3  748.82   26.14   2
   3   1  -3  751.32   28.78   2
  -3   1  -3  720.77   14.62   2
  -3   1  -3  734.49   21.04   2
   3  -1  -3  740.91   19.08   2
  -3  -1  -3  687.87   20.53   2
   3   1  -2  360.32   23.04   2
  -3   1  -2  310.57   10.79   2
  -3  -1  -2  307.57   13.02   2
  -3   1  -2  316.63   10.89   2
   3   1  -2  301.48   16.25   2
  -3   1  -2  326.29   16.84   2
  -3   1  -2   305.2    8.85   2
   3  -1  -2  325.38    9.96   2
  -3  -1  -2  308.39    9.34   2
  -3  -1  -2   319.5   14.33   2
   3   1  -2  338.04   20.90   2
   3   1  -1   470.7   23.10   2
   3   1  -1  486.12   27.53   2
  -3   1  -1  458.85   14.34   2
  -3  -1  -1  452.67   16.90   2
   3  -1  -1  471.16   13.59   2
   3  -1  -1   448.5   21.80   2
  -3  -1  -1   461.7   18.49   2
   3  -1  -1   482.3    9.68   2
  -3   1  -1  454.49   12.06   2
  -3   1   0   31.44    4.13   2
   3  -1   0   23.96    3.76   2
   3  -1   0   22.37    3.49   2
  -3  -1   0   29.07    5.25   2
   3   1   0   33.22    6.39   2
   3  -1   0   30.64    3.16   2
  -3   1   0   26.67    4.34   2
  -3  -1   0   26.47    4.31   2
   3   1   0   30.68    4.85   2
  -3  -1   1  324.43   20.80   2
   3  -1   1  369.29   11.74   2
  -3  -1   1  318.65   19.46   2
  -3   1   1  334.04   18.85   2
  -3   1   1  355.09    9.12   2
   3   1   1  347.28   14.35   2
   3  -1   1  354.24   13.92   2
   3   1   1  373.15   17.32   2
   3  -1   1  326.63   17.78   2
  -3  -1   1  385.77   24.26   2
  -3   1   1  359.31   16.88   2
   3  -1   1   318.4   11.17   2
   3  -1   2  264.67   13.66   2
  -3   1   2  268.26   10.49   2
  -3  -1   2  271.75   16.62   2
  -3   1   2  252.51   18.55   2
  -3  -1   2  251.96   17.48   2
   3   1   2  276.09   13.40   2
  -3   1   2  266.07   17.00   2
   3   1   2  250.06   11.88   2
   3  -1   2   269.3    8.79   2
   3  -1   2  249.27    9.15   2
   3  -1   3  868.45   20.84   2
  -3  -1   3  876.01   30.32   2
  -3   1   3  834.48   35.37   2
   3   1   3  860.65   24.83   2
   3   1   3  869.55   23.69   2
  -3   1   3  846.35   23.62   2
  -3   1   3  797.19   35.11   2
   3  -1   3  834.17   18.00   2
   3  -1   3  840.56   20.32   2
  -3  -1   3  864.15   29.76   2
   3  -1   4   165.4    7.25   2
   3   1   4  170.49    6.04   2
   3   1   4  169.35   10.07   2
  -3  -1   4   177.8   13.52   2
   3  -1   4  170.12    7.94   2
   3  -1   4  183.62   10.10   2
  -3   1   4  185.62   11.83   2
  -3   1   5  369.04   19.00   2
   3   1   5   351.4   10.34   2
  -3  -1   5  346.71   19.53   2
   3  -1   5  326.08   11.53   2
   3   1   5  345.27   15.34   2
   3  -1   5   361.5   16.21   2
   3   1   6  208.22   12.34   2
  -3  -1   6  239.13   17.12   2
  -3   1   6  247.37   16.94   2
   3  -1   6  198.54    9.18   2
   3   1   6  221.88    9.10   2
   3  -1   6  233.45   14.33   2
   3  -1   7  441.28   21.53   2
  -3  -1   7   396.4   23.70   2
   3   1   7  394.55   14.29   2
   3  -1   7  402.44   14.73   2
  -3   1   7  428.94   24.83   2
   3  -1   8  153.68   13.69   2
  -3   1   8   157.5   15.84   2
   3   1   8  137.33    9.09   2
  -3  -1   8  156.46   15.75   2
   3  -1   8     147    9.22   2
  -3  -1   9   100.4   13.38   2
  -3   1   9  103.82   14.10   2
   3  -1   9  104.88   12.17   2
   3   1   9   93.19    8.18   2
  -3   1  10  210.05   21.34   2
  -3  -1  10  214.03   21.11   2
   3   1  10  203.29   13.11   2
   3  -1  10  221.24   18.90   2
   3  -1  11  135.35   15.54   2
   3   1  11  113.66   10.43   2
  -3   1  11  118.74   16.95   2
  -3  -1  11  119.89   16.39   2
  -3   1  12  199.62   23.03   2
  -3   1  12  178.52   25.96   2
  -3  -1  12  186.83   22.14   2
   3  -1  12  161.37   18.13   2
  -3   1  13   15.15    9.52   2
   3  -1  13   23.86    7.58   2
  -3   1  13   35.48   11.37   2
   3  -1  14  125.99   17.99   2
  -3   1  14  150.04   22.81   2
  -3   1  14  120.78   22.01   2
  -3   1  15   38.25   14.67   2
   3   2 -14   75.79   16.29   2
  -3  -2 -14   59.35   10.67   2
  -3   2 -13  114.36   16.40   2
   3  -2 -13   106.8   13.19   2
  -3  -2 -13  101.25   13.03   2
   3   2 -13   113.5   18.45   2
   3   2 -12  133.27   19.21   2
  -3  -2 -12  155.16   15.08   2
   3  -2 -12   156.9   15.21   2
   3   2 -12   144.9   11.02   2
  -3   2 -12   167.7   18.63   2
  -3  -2 -11  320.02   20.91   2
   3  -2 -11  337.16   21.72   2
   3   2 -11  320.35   15.94   2
   3   2 -11  315.36   27.91   2
   3   2 -10  158.86   18.69   2
   3  -2 -10  146.46   13.49   2
  -3   2 -10  143.61    9.52   2
  -3  -2 -10  136.23   13.00   2
   3   2 -10   133.3    9.73   2
  -3   2  -9  303.02   13.31   2
   3   2  -9  302.63   24.78   2
  -3  -2  -9  292.47   18.02   2
   3  -2  -9  311.84   19.11   2
   3   2  -8  393.06   27.15   2
  -3   2  -8  368.88   14.19   2
  -3  -2  -8  351.36   18.86   2
   3  -2  -8   353.9   19.32   2
   3   2  -7  726.82   36.22   2
  -3   2  -7  666.42   19.31   2
  -3  -2  -7  646.73   25.16   2
   3  -2  -7  697.71   26.51   2
   3  -2  -6   349.5   17.29   2
   3  -2  -6  364.88   18.04   2
  -3   2  -6  354.75   14.12   2
  -3  -2  -6  326.01   16.62   2
  -3   2  -6  376.06   22.50   2
   3   2  -6  368.15   23.68   2
   3   2  -6  358.18   24.92   2
   3   2  -5  838.87   38.98   2
  -3   2  -5   732.3   23.08   2
  -3  -2  -5  741.03   26.93   2
   3   2  -5  754.92   37.23   2
   3  -2  -5  746.35   24.70   2
  -3   2  -5  736.73   29.34   2
   3  -2  -5  751.93   24.79   2
  -3  -2  -5  715.35   24.37   2
  -3   2  -5  761.31   21.01   2
  -3  -2  -5  721.43   26.90   2
   3   2  -4  543.04   29.93   2
  -3   2  -4  508.67   22.16   2
   3   2  -4  549.61   27.40   2
  -3  -2  -4  490.11   19.12   2
  -3  -2  -4  522.65   21.85   2
  -3  -2  -4  492.18   19.02   2
   3  -2  -4  534.56   18.59   2
  -3   2  -4  477.29   10.15   2
  -3   2  -4  503.88   14.66   2
   3   2  -4  516.16   32.07   2
   3   2  -3 1271.05   40.45   2
   3  -2  -3 1298.14   28.14   2
  -3  -2  -3 1173.35   26.50   2
  -3  -2  -3 1301.94   35.30   2
  -3  -2  -3 1286.76   31.69   2
  -3  -2  -3 1273.17   30.77   2
   3   2  -3 1308.45   44.29   2
  -3   2  -3  1250.5   33.60   2
   3   2  -3 1281.28   53.76   2
  -3   2  -2  531.14   19.22   2
  -3  -2  -2  581.18   22.94   2
   3  -2  -2  545.71   27.57   2
  -3  -2  -2  553.29   19.40   2
   3   2  -2  547.42   33.79   2
  -3   2  -2  535.29   20.16   2
   3   2  -2     518   21.15   2
   3  -2  -2  543.15   22.61   2
  -3  -2  -2   522.4   17.95   2
   3  -2  -2  553.78   15.18   2
  -3  -2  -1 1996.15   41.44   2
   3   2  -1    1824   39.93   2
  -3  -2  -1 1951.16   39.42   2
   3   2  -1 1892.66   58.19   2
  -3   2  -1 1978.65   41.57   2
   3  -2  -1 2006.37   43.98   2
   3  -2  -1 1960.38   49.57   2
  -3  -2  -1 1928.02   48.01   2
   3  -2  -1 1951.92   31.05   2
  -3  -2   0  677.63   30.19   2
  -3  -2   0  664.28   22.68   2
   3  -2   0  627.69   24.08   2
   3   2   0  611.07   20.20   2
   3  -2   0  645.42   15.40   2
  -3   2   0  633.96   22.27   2
   3  -2   0  643.97   21.39   2
   3   2   0  729.66   30.30   2
  -3   2   1 1883.04   44.64   2
  -3  -2   1 1907.48   63.41   2
   3  -2   1 1996.36   39.98   2
   3   2   1  1911.1   47.68   2
  -3  -2   1  1910.9   47.50   2
   3   2   1 1890.99   39.52   2
   3  -2   1 1987.11   30.64   2
  -3   2   2   615.6   25.48   2
  -3  -2   2  647.77   33.37   2
   3  -2   2  580.15   22.88   2
   3   2   2  619.62   24.05   2
  -3  -2   2  594.54   30.38   2
   3   2   2  620.17   20.60   2
  -3  -2   2   669.1   36.64   2
   3  -2   2  649.14   19.99   2
  -3   2   2  629.12   28.90   2
   3  -2   2  631.04   15.53   2
   3   2   3 1358.87   28.28   2
  -3  -2   3 1280.66   47.16   2
   3  -2   3 1333.63   30.40   2
   3  -2   3 1288.69   27.52   2
   3  -2   3 1280.37   26.69   2
   3   2   3 1313.65   32.53   2
  -3   2   3 1359.12   48.68   2
  -3  -2   3 1327.22   45.77   2
  -3   2   3  1298.9   41.50   2
   3   2   3 1330.81   36.56   2
  -3  -2   4  575.79   27.49   2
   3  -2   4  541.21   18.06   2
   3   2   4  535.42   15.82   2
   3   2   4     565   20.66   2
  -3   2   4  581.72   33.45   2
   3  -2   4   560.8   18.32   2
  -3  -2   4  568.42   28.56   2
   3   2   4  555.76   22.75   2
  -3   2   4  580.18   28.82   2
   3  -2   5  632.55   21.62   2
   3   2   5  602.39   17.31   2
  -3  -2   5  659.27   30.89   2
  -3   2   5  545.28   34.25   2
   3  -2   5  608.94   19.42   2
  -3   2   5  626.06   32.77   2
  -3   2   6   394.7   27.94   2
  -3  -2   6  405.04   24.63   2
   3  -2   6  382.37   10.44   2
   3   2   6  383.01   14.55   2
   3  -2   6  399.84   18.87   2
  -3   2   6  418.32   24.41   2
   3  -2   6   372.3   15.72   2
  -3   2   7  691.34   39.79   2
   3   2   7  744.93   22.21   2
   3  -2   7  774.76   29.27   2
   3  -2   7  772.51   24.65   2
  -3  -2   7  751.65   35.42   2
   3   2   7  753.66   21.89   2
  -3   2   7  767.66   35.91   2
   3   2   8  406.97   16.70   2
   3  -2   8  411.31   22.33   2
  -3   2   8  412.36   27.71   2
  -3  -2   8  398.85   27.12   2
  -3   2   8  369.38   30.30   2
   3   2   8  414.01   18.79   2
  -3   2   9  339.51   30.06   2
   3   2   9  371.55   16.82   2
   3   2   9  371.21   20.39   2
  -3  -2   9  336.47   25.64   2
   3  -2   9  289.48   19.93   2
  -3   2   9  314.83   25.97   2
   3   2  10  154.33   11.41   2
  -3   2  10   137.4   19.67   2
   3  -2  10  122.58   13.81   2
  -3  -2  10   181.3   19.92   2
  -3   2  10  153.59   19.22   2
   3   2  11  363.57   18.50   2
   3  -2  11  379.52   26.39   2
  -3  -2  11  375.25   29.89   2
  -3   2  11  322.95   31.15   2
  -3   2  11  373.59   31.37   2
   3  -2  12  181.71   19.11   2
  -3  -2  12  171.42   21.46   2
  -3   2  12  155.61   22.46   2
  -3   2  13  112.37   20.06   2
   3  -2  13   110.1   15.76   2
  -3  -2  13  112.46   18.38   2
  -3   2  14   68.89   15.90   2
   3   3 -14   86.78   20.53   2
   3   3 -13   60.22   16.26   2
   3   3 -12  210.89   27.83   2
  -3  -3 -12  202.18   18.43   2
   3  -3 -12  239.26   20.48   2
   3   3 -11  309.78   32.47   2
  -3  -3 -11  258.59   19.80   2
   3  -3 -11  265.96   20.54   2
  -3  -3 -10   211.2   17.01   2
   3  -3 -10  222.72   17.42   2
   3   3 -10  212.18   10.94   2
  -3   3 -10  227.69   21.88   2
   3   3 -10  240.73   27.40   2
   3   3  -9  321.34   31.31   2
  -3  -3  -9  320.83   20.27   2
  -3   3  -9  321.44   24.21   2
   3  -3  -9  329.12   20.69   2
   3   3  -8  579.11   34.25   2
   3  -3  -8  600.63   27.39   2
  -3  -3  -8  554.39   25.77   2
   3   3  -8  588.47   42.33   2
  -3   3  -8  576.07   30.36   2
  -3   3  -7  739.92   32.11   2
   3   3  -7  683.22   33.92   2
  -3  -3  -7   691.5   28.05   2
   3  -3  -7  772.45   30.03   2
   3   3  -7  789.04   48.96   2
  -3   3  -6  459.16   21.75   2
  -3  -3  -6  398.33   20.26   2
   3   3  -6  431.13   36.39   2
   3  -3  -6  418.38   20.75   2
   3   3  -6  427.84   22.48   2
  -3  -3  -6  415.76   25.55   2
   3  -3  -6  460.41   21.83   2
  -3   3  -6  433.25   28.02   2
   3  -3  -5  879.47   28.64   2
  -3  -3  -5  833.71   32.83   2
  -3   3  -5  776.98   19.28   2
   3   3  -5  795.23   28.03   2
  -3   3  -5   861.5   38.03   2
  -3  -3  -5  817.92   28.46   2
   3  -3  -5  868.78   28.70   2
   3   3  -5  887.86   51.94   2
   3  -3  -4 1096.51   30.93   2
  -3  -3  -4 1089.56   35.49   2
   3   3  -4 1146.18   57.19   2
  -3  -3  -4 1119.94   34.43   2
  -3   3  -4 1068.92   41.92   2
   3   3  -4 1021.66   29.40   2
   3  -3  -4 1071.06   31.33   2
  -3  -3  -4  1014.8   31.41   2
   3   3  -3 1093.75   52.45   2
  -3  -3  -3 1153.07   35.40   2
   3  -3  -3 1108.82   47.37   2
  -3  -3  -3 1229.28   34.63   2
  -3   3  -3 1063.44   40.93   2
  -3  -3  -3 1125.02   32.41   2
   3   3  -3 1070.59   28.82   2
   3  -3  -3 1139.33   29.81   2
   3  -3  -3 1158.33   30.77   2
  -3  -3  -2  473.17   21.13   2
   3   3  -2  496.79   30.14   2
   3  -3  -2   469.8   27.19   2
   3  -3  -2  469.09   17.64   2
   3  -3  -2  454.22   16.93   2
  -3  -3  -2  460.82   19.36   2
   3  -3  -2  436.18   22.17   2
   3   3  -2  438.91   16.94   2
  -3   3  -2  448.12   21.47   2
  -3  -3  -2  481.19   24.14   2
   3  -3  -1  909.24   31.11   2
  -3   3  -1  876.15   30.28   2
  -3  -3  -1  857.32   27.17   2
   3   3  -1  937.33   38.76   2
  -3  -3  -1  913.05   29.95   2
   3  -3  -1  859.33   22.43   2
   3   3  -1  873.77   24.91   2
  -3  -3  -1  887.76   35.05   2
   3  -3  -1  917.13   23.85   2
   3  -3  -1  885.45   34.73   2
  -3  -3   0 1265.95   35.94   2
  -3   3   0 1282.95   37.52   2
  -3  -3   0 1343.36   48.70   2
   3  -3   0 1280.81   40.54   2
   3   3   0 1314.54   42.22   2
   3  -3   0 1372.84   37.77   2
   3   3   0 1309.97   31.88   2
  -3  -3   0 1305.55   35.08   2
   3  -3   0 1335.15   27.76   2
   3  -3   0 1252.39   31.41   2
   3  -3   1   834.5   28.05   2
  -3  -3   1  787.01   28.33   2
  -3  -3   1  761.27   28.04   2
   3   3   1  835.67   31.65   2
   3   3   1  769.48   23.99   2
   3  -3   1   784.8   18.53   2
  -3  -3   1  826.69   43.67   2
  -3  -3   1  710.62   43.05   2
  -3   3   1  761.37   28.96   2
   3  -3   1  785.68   22.29   2
  -3  -3   2  567.44   39.51   2
  -3  -3   2  521.32   34.59   2
   3   3   2   481.9   23.08   2
  -3  -3   2  510.57   26.76   2
   3   3   2  483.41   19.35   2
   3  -3   2  481.34   20.68   2
   3  -3   2  485.26   12.41   2
   3  -3   2  491.15   17.15   2
  -3   3   2  456.32   23.37   2
  -3   3   3 1284.17   42.41   2
  -3  -3   3  1247.7   54.84   2
  -3  -3   3 1391.11   51.07   2
   3  -3   3 1345.77   31.37   2
   3  -3   3 1370.15   35.90   2
   3   3   3 1356.98   35.13   2
   3  -3   3 1291.91   20.01   2
  -3  -3   3 1305.93   52.55   2
   3   3   3 1315.56   39.54   2
   3  -3   4 1069.91   31.39   2
   3   3   4 1031.71   28.77   2
  -3   3   4    1001   39.26   2
  -3  -3   4 1111.51   46.39   2
   3   3   4 1078.08   36.43   2
   3  -3   4  1089.1   29.71   2
  -3  -3   4 1101.56   47.24   2
  -3   3   5  885.18   38.60   2
   3   3   5  824.84   25.35   2
   3  -3   5  850.14   27.64   2
  -3  -3   5  842.67   40.11   2
   3  -3   5  846.42   28.05   2
   3   3   6  422.39   18.03   2
  -3   3   6  452.47   28.85   2
   3  -3   6  437.67   20.54   2
  -3  -3   6  456.63   29.60   2
  -3   3   7  779.47   40.49   2
   3  -3   7  734.64   29.33   2
   3   3   7  797.85   25.89   2
  -3  -3   7  814.65   40.64   2
  -3   3   8  537.95   34.81   2
  -3  -3   8  566.52   33.95   2
   3   3   8  543.17   21.49   2
   3  -3   9  199.13   17.11   2
   3   3   9  263.49   15.39   2
  -3   3   9  284.71   26.09   2
  -3  -3   9  271.06   24.88   2
   3   3  10   216.7   14.36   2
  -3  -3  10  210.52   22.49   2
   3  -3  10  178.84   17.15   2
  -3   3  10  217.43   24.09   2
  -3   3  11  246.05   26.31   2
   3   3  11  244.59   15.81   2
   3  -3  11  267.11   22.07   2
  -3  -3  11   247.8   25.29   2
  -3   3  12   195.2   23.92   2
   3  -3  12  200.37   20.31   2
  -3  -3  12  197.39   23.67   2
  -3   3  13   68.84   14.23   2
   3  -3  13   66.98   12.87   2
   3   4 -13   56.96   18.89   2
   3   4 -12  277.14   40.17   2
  -3  -4 -11  142.28   15.74   2
   3   4 -11  159.55   28.96   2
   3  -4 -11  162.97   17.12   2
   3   4 -10  361.83   42.94   2
  -3  -4 -10  327.38   22.88   2
   3  -4 -10  338.56   23.79   2
  -3  -4  -9  157.18   15.17   2
   3   4  -9  181.08   28.89   2
   3  -4  -9  146.33   14.93   2
  -3  -4  -8  630.69   29.81   2
   3  -4  -8  676.26   30.78   2
  -3   4  -7  304.95   12.67   2
   3   4  -7  353.82   37.38   2
  -3  -4  -7  322.18   20.39   2
   3  -4  -7  334.33   20.38   2
  -3   4  -6  617.78   14.54   2
   3   4  -6  643.73   19.81   2
  -3  -4  -6  606.17   27.43   2
   3  -4  -6  638.78   27.22   2
   3   4  -6  625.28   46.65   2
   3   4  -5  367.35   33.04   2
  -3   4  -5  372.65   30.11   2
  -3  -4  -5  358.64   20.04   2
   3   4  -5  358.02   14.54   2
   3  -4  -5  349.93   19.16   2
   3  -4  -4 1492.72   40.72   2
   3   4  -4 1506.34   62.28   2
   3  -4  -4 1493.08   65.37   2
  -3  -4  -4 1446.86   41.92   2
   3   4  -4 1523.54   33.41   2
   3  -4  -4 1539.16   41.77   2
  -3  -4  -4 1446.94   49.70   2
   3  -4  -3  593.17   24.02   2
   3   4  -3  614.68   35.63   2
   3  -4  -3   590.7   36.55   2
  -3  -4  -3  596.29   24.97   2
   3   4  -3  587.67   19.71   2
  -3  -4  -3  652.71   30.11   2
   3  -4  -3   602.8   23.38   2
   3  -4  -3   601.1   23.81   2
  -3   4  -2 1414.84   45.99   2
   3  -4  -2 1393.71   53.00   2
   3   4  -2 1411.22   51.04   2
   3  -4  -2 1378.95   37.03   2
  -3  -4  -2 1400.66   39.75   2
   3   4  -2 1382.13   33.12   2
   3  -4  -2 1431.54   36.01   2
   3  -4  -1  748.65   31.35   2
  -3   4  -1  791.32   32.70   2
   3   4  -1  792.27   34.84   2
  -3  -4  -1   798.1   28.48   2
   3   4  -1  801.53   24.60   2
   3  -4  -1  808.32   24.35   2
   3  -4  -1  758.29   36.17   2
   3  -4  -1  786.28   26.21   2
  -3   4   0 1989.03   55.23   2
   3  -4   0 1965.67   48.50   2
   3  -4   0 2140.12   60.80   2
   3   4   0 2124.52   58.15   2
  -3  -4   0 2277.69   89.36   2
   3   4   0 2110.93   45.31   2
   3  -4   0 2106.09   40.74   2
   3  -4   0 2195.06   50.36   2
  -3  -4   0 2067.21   50.48   2
  -3  -4   1  778.61   49.54   2
   3  -4   1  786.18   31.12   2
   3   4   1  738.87   31.65   2
   3  -4   1  781.25   20.39   2
  -3  -4   1  778.23   30.33   2
  -3   4   1  695.34   31.35   2
   3  -4   1  731.08   25.79   2
  -3   4   2 1305.11   44.47   2
  -3  -4   2 1405.06   47.23   2
   3  -4   2 1371.92   29.10   2
   3   4   2 1369.22   44.12   2
   3  -4   2 1444.21   27.14   2
  -3  -4   2  1407.2   64.89   2
   3  -4   2 1413.54   37.27   2
  -3   4   3  616.43   30.79   2
   3  -4   3  627.78   20.79   2
  -3  -4   3  658.69   37.45   2
   3   4   3  627.35   29.14   2
   3  -4   3  634.31   13.65   2
  -3  -4   3  677.29   41.86   2
   3  -4   3  675.89   24.84   2
   3   4   4 1454.26   46.81   2
  -3   4   4 1455.47   50.44   2
   3  -4   4 1488.13   39.72   2
   3   4   4 1456.16   41.20   2
  -3  -4   4 1478.63   61.65   2
   3   4   5  322.18   17.75   2
  -3  -4   5  348.92   28.79   2
  -3   4   5  292.11   22.97   2
   3  -4   5  260.94   16.20   2
  -3   4   6  771.32   39.06   2
   3   4   6  699.85   27.00   2
  -3  -4   6  807.43   43.80   2
  -3   4   7  374.31   27.98   2
   3   4   7  356.13   19.01   2
  -3  -4   7  390.11   30.65   2
  -3   4   8     643   38.87   2
   3   4   8  609.26   25.86   2
  -3  -4   8  664.77   40.03   2
   3   4   9   163.2   13.28   2
   3  -4   9  123.75   13.94   2
  -3  -4   9  184.95   21.67   2
  -3   4   9  163.79   19.92   2
  -3   4  10  378.13   31.11   2
   3  -4  10   438.7   28.30   2
   3   4  10  372.35   20.99   2
  -3  -4  10  429.58   34.32   2
   3  -4  11  175.09   18.78   2
  -3   4  11  146.98   20.12   2
  -3  -4  11  158.51   21.72   2
  -3   4  12  274.83   28.66   2
   3  -4  12  263.23   23.89   2
   3   5 -10  267.94   36.74   2
   3   5  -9   66.71   16.87   2
  -3  -5  -9   60.38   10.16   2
   3  -5  -9   63.89   10.88   2
   3   5  -8  637.71   49.98   2
  -3  -5  -8  586.51   31.24   2
   3  -5  -8  642.08   32.68   2
   3   5  -7   67.88   15.52   2
  -3  -5  -7   53.72    9.21   2
   3  -5  -7   61.19    9.76   2
   3   5  -6  578.92   40.60   2
  -3  -5  -6  563.13   28.93   2
   3  -5  -6  636.68   29.84   2
  -3  -5  -5   87.38   14.17   2
  -3  -5  -5   98.88   11.37   2
   3   5  -5   90.21   14.44   2
   3  -5  -5   66.95    9.22   2
  -3  -5  -4   979.8   47.14   2
   3   5  -4  952.41   45.28   2
   3  -5  -4  949.93   55.62   2
  -3  -5  -4  977.76   36.60   2
  -3  -5  -3   77.29    9.98   2
   3  -5  -3   81.15   14.44   2
   3   5  -3   91.92    7.56   2
   3  -5  -3   64.56    8.12   2
   3   5  -3   80.27   11.88   2
  -3  -5  -3   69.96   11.38   2
   3  -5  -2  641.52   38.65   2
   3  -5  -2  619.29   28.21   2
   3   5  -2  631.56   32.15   2
  -3  -5  -2  478.54   24.79   2
   3  -5  -2  482.12   21.68   2
   3   5  -2  627.32   21.58   2
  -3   5  -1   94.16   12.93   2
   3  -5  -1   97.15   14.22   2
   3  -5  -1   88.43   10.84   2
   3   5  -1   91.04   11.90   2
  -3  -5  -1   76.94   16.66   2
  -3  -5  -1   73.39    9.37   2
   3  -5  -1   80.33    8.05   2
   3  -5  -1  112.67   12.33   2
   3  -5   0  1059.8   45.84   2
  -3   5   0 1015.98   41.86   2
   3  -5   0  830.23   32.84   2
   3  -5   0 1134.52   43.60   2
   3   5   0  979.19   38.77   2
  -3  -5   0  802.78   32.82   2
   3  -5   0  815.41   25.98   2
  -3  -5   0 1046.81   63.03   2
  -3   5   1   92.07   12.37   2
  -3  -5   1   95.97   17.82   2
   3  -5   1  107.11   12.90   2
  -3  -5   1  100.74   11.85   2
   3  -5   1    97.2    7.79   2
   3   5   1   85.54   11.06   2
   3  -5   1   73.47    8.64   2
  -3  -5   2  756.68   51.05   2
   3   5   2  712.21   32.85   2
  -3   5   2  653.53   34.26   2
  -3  -5   2   771.7   36.65   2
   3  -5   2   747.1   20.55   2
   3  -5   2   765.3   29.51   2
  -3   5   3   93.21   12.82   2
  -3  -5   3   99.03   16.72   2
   3   5   3   90.02   11.89   2
   3  -5   3   85.05    9.37   2
  -3  -5   3   77.68   12.59   2
   3  -5   4 1041.74   36.02   2
  -3   5   4   937.6   43.05   2
  -3  -5   4 1043.36   55.51   2
  -3   5   5   96.14   14.18   2
   3  -5   5   85.48   10.06   2
  -3  -5   5   96.88   16.90   2
  -3   5   6  625.04   37.04   2
   3  -5   6  656.56   29.98   2
  -3  -5   6  655.36   42.53   2
   3   5   6   609.7   29.37   2
  -3  -5   7   61.79   13.54   2
   3  -5   7   55.53    8.90   2
  -3   5   7   56.76   12.14   2
   3   5   7   52.98    8.51   2
   3   5   8  535.49   27.10   2
  -3   5   8   546.2   36.61   2
   3  -5   8  616.59   31.41   2
  -3  -5   8  573.53   40.38   2
  -3   5   9   62.58   12.10   2
   3   5   9   48.03    8.18   2
  -3  -5   9   42.75   10.54   2
   3  -5   9   57.24   10.23   2
  -3   5  10   246.8   26.06   2
   3  -5  10   251.7   22.18   2
  -3  -5  10  261.28   28.29   2
   3  -5  11   43.81   10.10   2
   3  -6  -8  255.75   22.28   2
   3   6  -7    14.5    6.93   2
  -3  -6  -7    19.5    5.73   2
   3  -6  -7    9.08    3.89   2
  -3  -6  -6   257.3   21.27   2
   3  -6  -6  268.99   21.12   2
   3   6  -6  256.91   24.59   2
   3   6  -5   24.27    8.03   2
  -3  -6  -5   16.93    5.47   2
   3  -6  -5   13.99    4.67   2
  -3  -6  -4  594.94   41.73   2
   3  -6  -4  587.35   47.58   2
  -3  -6  -4  577.04   30.90   2
   3  -6  -4  599.66   29.15   2
   3   6  -4  526.65   32.05   2
  -3  -6  -3   20.43    8.05   2
   3  -6  -3   21.65    9.06   2
   3   6  -3   16.59    5.50   2
  -3  -6  -3    5.81    3.46   2
   3  -6  -3    4.56    2.69   2
  -3  -6  -2  543.35   36.32   2
   3  -6  -2  563.76   40.49   2
   3   6  -2  507.85   29.27   2
   3  -6  -2  524.91   31.57   2
   3  -6  -2  549.53   25.28   2
  -3  -6  -2  406.74   25.21   2
  -3  -6  -2  574.77   50.70   2
   3  -6  -1    0.02    2.81   2
   3  -6  -1       1    3.30   2
  -3  -6  -1    5.15    5.52   2
  -3  -6  -1    0.36    2.74   2
   3   6  -1    0.51    2.21   2
   3  -6  -1     7.7    3.48   2
   3   6   0  723.22   34.74   2
  -3   6   0  817.31   42.48   2
   3  -6   0  767.91   33.33   2
   3  -6   0  768.62   43.98   2
  -3  -6   0  741.62   55.49   2
  -3  -6   0     795   35.98   2
   3  -6   0  808.08   28.11   2
  -3   6   1   18.09    7.25   2
   3  -6   1   12.97    6.89   2
  -3  -6   1   18.49    5.75   2
  -3  -6   1    1.17    4.65   2
   3   6   1   11.11    5.08   2
   3  -6   1    8.27    3.20   2
  -3   6   2  514.94   33.18   2
  -3  -6   2  586.11   46.65   2
  -3  -6   2  570.19   35.03   2
   3   6   2     528   30.22   2
   3  -6   2  523.04   26.23   2
  -3   6   3   17.94    6.22   2
  -3  -6   3   12.36    6.56   2
   3  -6   3    8.02    3.31   2
  -3   6   4  517.99   34.45   2
   3  -6   4  560.56   27.81   2
  -3  -6   4  576.17   44.39   2
  -3   6   5   29.23    8.77   2
   3  -6   5   23.87    5.89   2
  -3  -6   5   24.14    9.73   2
   3  -6   6  319.59   21.80   2
  -3   6   6  327.82   28.52   2
  -3  -6   6  337.84   32.49   2
  -3   6   7   11.75    5.66   2
  -3  -6   7   35.82   11.26   2
  -3  -6   8  252.21   28.80   2
   3  -7  -6  106.87   14.37   2
  -3  -7  -5   25.16    6.88   2
   3  -7  -5   13.75    4.71   2
   3  -7  -4   124.9   23.06   2
  -3  -7  -4  115.84   15.20   2
   3  -7  -4  119.47   14.14   2
  -3  -7  -3   10.86    7.35   2
  -3  -7  -3   16.83    5.93   2
   3  -7  -3    9.26    6.80   2
   3   7  -3   12.56    5.33   2
  -3  -7  -2  100.23   22.05   2
   3   7  -2  115.13   14.20   2
  -3  -7  -2  123.95   20.19   2
   3  -7  -2  111.35   20.53   2
  -3  -7  -2   99.43   13.63   2
   3  -7  -1    5.37    8.82   2
  -3  -7  -1   -0.48    7.35   2
   3   7  -1       3    3.79   2
   3  -7   0  146.24   21.09   2
   3   7   0  158.91   16.85   2
  -3  -7   0  159.72   27.63   2
  -3  -7   1    4.55    8.11   2
   3   7   1    7.81    4.27   2
   3  -7   1    0.76    3.78   2
  -3  -7   2  148.64   24.52   2
   3  -7   2     109   17.35   2
  -3  -7   3    5.77    4.23   2
  -3  -7   4  134.48   22.72   2
   4   0 -15    -0.1    1.66   2
  -4   0 -14  278.84   19.79   2
   4   0 -14  286.34   20.61   2
  -4   0 -13   -2.88    2.51   2
   4   0 -13   -0.42    2.18   2
   4   0 -13   -2.53    2.24   2
  -4   0 -12  802.48   31.78   2
   4   0 -12  813.21   33.19   2
   4   0 -12  769.64   40.41   2
  -4   0 -11    0.05    1.59   2
   4   0 -11    -0.2    2.77   2
   4   0 -11    2.69    2.62   2
  -4   0 -10 1010.43   33.12   2
   4   0 -10  989.27   34.29   2
   4   0 -10 1045.94   42.78   2
   4   0  -9    7.38    4.96   2
  -4   0  -9    2.71    1.55   2
  -4   0  -8 2294.52   49.60   2
   4   0  -8 2273.81   60.17   2
   4   0  -7    0.99    3.71   2
  -4   0  -7    2.48    1.83   2
  -4   0  -7    1.22    1.48   2
  -4   0  -6 2514.19   62.05   2
  -4   0  -6  2318.5   45.88   2
  -4   0  -6 2322.28   47.19   2
   4   0  -6 2437.99   55.26   2
   4   0  -6 2338.78   55.89   2
   4   0  -5   -1.18    1.51   2
   4   0  -5    2.51    2.32   2
  -4   0  -5    5.14    2.97   2
  -4   0  -5    0.42    1.39   2
  -4   0  -5    4.51    1.61   2
  -4   0  -4 6028.67   87.28   2
  -4   0  -4 5899.13   98.72   2
   4   0  -4 5885.32   93.13   2
   4   0  -4 5898.46   97.40   2
  -4   0  -3    2.96    2.64   2
   4   0  -3    2.08    2.45   2
  -4   0  -3    2.97    1.70   2
  -4   0  -3    7.78    2.36   2
   4   0  -3    1.15    1.20   2
  -4   0  -2 5048.93   63.69   2
   4   0  -2 4702.56   83.10   2
   4   0  -2 4709.25   76.20   2
  -4   0  -2 5108.92   77.24   2
  -4   0  -2 5273.17   84.61   2
  -4   0  -1    6.01    2.78   2
   4   0  -1    7.95    2.48   2
  -4   0  -1    3.24    1.94   2
   4   0  -1    3.69    2.26   2
  -4   0  -1   -1.17    4.01   2
  -4   0   0 9698.69  138.82   2
  -4   0   0    9999  142.25   2
  -4   0   0 9923.73  156.00   2
  -4   0   1    4.38    1.78   2
   4   0   1     0.5    1.83   2
   4   0   1    1.95    1.87   2
  -4   0   1    1.66    2.00   2
   4   0   2 4801.62   82.63   2
   4   0   2 4555.13   76.38   2
   4   0   2 5095.99   71.73   2
  -4   0   2 4834.16   78.00   2
  -4   0   2 5211.95   86.22   2
   4   0   3    2.17    1.34   2
  -4   0   3    3.84    1.80   2
   4   0   3    2.77    1.92   2
   4   0   3    3.17    1.95   2
   4   0   4 5818.49   88.37   2
  -4   0   4 5812.74   96.36   2
   4   0   5    1.48    1.25   2
  -4   0   5    3.95    2.42   2
  -4   0   6 2533.55   61.21   2
   4   0   6 2453.45   49.10   2
   4   0   7   -2.02    1.61   2
  -4   0   7   -0.89    1.83   2
  -4   0   8 2364.82   67.26   2
  -4   0   9    13.1    6.39   2
  -4   0  10  1294.5   54.36   2
   4   0  10 1278.89   34.55   2
   4   0  11    0.31    1.16   2
  -4   0  11   -4.85    5.61   2
  -4   0  12     861   48.94   2
  -4   0  13   10.93    8.66   2
  -4  -1 -15   17.57    5.47   2
   4  -1 -14  206.28   18.45   2
  -4  -1 -14  192.68   17.88   2
  -4  -1 -13   20.67    5.56   2
   4   1 -13   21.68    7.31   2
   4  -1 -13   33.45    7.36   2
   4   1 -13   26.67    5.97   2
   4   1 -12  533.04   24.87   2
  -4   1 -12  560.42   24.44   2
  -4  -1 -12  566.07   28.40   2
   4  -1 -12  586.64   29.80   2
   4   1 -12  559.91   35.77   2
   4   1 -11   47.61    9.85   2
  -4   1 -11   43.12    6.34   2
  -4  -1 -11   57.18    8.42   2
   4  -1 -11   49.75    7.96   2
   4   1 -11   38.75    6.15   2
  -4   1 -10  721.34   25.70   2
   4   1 -10  747.56   38.05   2
   4  -1 -10  720.88   30.52   2
  -4  -1 -10  721.62   29.66   2
   4   1  -9    72.7   11.18   2
  -4  -1  -9   63.04    8.05   2
  -4   1  -9   64.05    6.85   2
   4  -1  -9   69.98    8.83   2
  -4   1  -8 2079.62   44.05   2
  -4  -1  -8 2004.05   48.12   2
  -4   1  -8 1970.13   42.10   2
   4   1  -8 2126.77   61.42   2
  -4   1  -7  186.28   16.31   2
  -4   1  -7  151.12   10.03   2
  -4  -1  -7  142.81   11.10   2
   4   1  -7  165.42   15.46   2
  -4   1  -7  146.03    9.05   2
  -4  -1  -6 2213.76   48.49   2
  -4   1  -6  2266.2   57.30   2
  -4   1  -6 2205.58   44.36   2
  -4  -1  -6 2147.47   46.73   2
   4  -1  -6  2152.4   48.11   2
  -4   1  -6 2102.28   39.51   2
   4   1  -6 2169.34   58.90   2
   4   1  -5  219.17   15.42   2
  -4  -1  -5  211.52   12.82   2
  -4   1  -5  195.72    9.04   2
  -4   1  -5  212.51   14.69   2
  -4   1  -5  201.18   11.50   2
  -4  -1  -5  199.79   12.09   2
   4  -1  -5  208.63   11.99   2
  -4  -1  -5  223.57   17.02   2
   4   1  -5  225.75   17.18   2
  -4   1  -4 3781.66   67.10   2
   4   1  -4 3720.38   79.48   2
  -4  -1  -4 3859.99   67.03   2
  -4   1  -4 3634.71   67.30   2
  -4  -1  -4  3710.2   65.01   2
   4  -1  -4 3731.62   61.67   2
  -4   1  -4 3966.44   55.68   2
   4   1  -4 3657.63   73.49   2
  -4  -1  -3  182.49    6.83   2
   4   1  -3  229.58   18.55   2
   4   1  -3   241.8   15.21   2
   4   1  -3  252.15   18.32   2
  -4  -1  -3  235.09   13.26   2
  -4  -1  -3  232.02   12.72   2
   4  -1  -3  257.18   10.69   2
  -4   1  -3  233.56    9.13   2
  -4   1  -3   247.8   11.98   2
  -4   1  -3  233.93   15.17   2
  -4   1  -2 3310.91   68.31   2
  -4   1  -2 3092.19   47.41   2
   4   1  -2 2868.27   74.87   2
  -4   1  -2 2903.99   49.68   2
  -4  -1  -2 2418.02   41.45   2
  -4  -1  -2 2916.06   57.31   2
  -4   1  -2 2829.66   45.10   2
   4   1  -2  2795.8   61.80   2
   4   1  -2 3504.72   84.23   2
  -4  -1  -2 2970.02   56.00   2
   4  -1  -2 3051.77   43.74   2
  -4  -1  -2 2861.23   41.29   2
   4  -1  -2 2964.78   50.94   2
   4   1  -1  158.25   16.48   2
  -4  -1  -1  128.43   11.21   2
   4  -1  -1  126.55    5.40   2
  -4   1  -1  118.73    7.79   2
   4   1  -1  126.95   13.81   2
  -4  -1  -1  121.68   10.02   2
  -4   1  -1  116.79    7.92   2
   4  -1  -1  130.83    8.25   2
  -4   1   0 4751.07   84.25   2
   4  -1   0 4590.07   80.43   2
   4   1   0 4035.23   91.72   2
  -4  -1   0  4769.8   94.94   2
  -4  -1   0 4892.07   89.17   2
   4   1   0 4284.51   84.79   2
   4  -1   0 4452.26   72.41   2
  -4   1   0 4203.46   66.53   2
  -4   1   0 4742.01   76.10   2
  -4  -1   1  149.73   16.25   2
  -4   1   1  111.94   10.72   2
   4  -1   1  117.27    8.93   2
  -4   1   1   128.7   12.68   2
   4   1   1  122.66   12.03   2
  -4  -1   1  122.85   12.92   2
   4  -1   1  111.88    8.94   2
  -4   1   1  120.66    5.17   2
  -4  -1   1  118.12   13.13   2
   4  -1   1  140.26   13.81   2
   4   1   1  103.09    9.36   2
   4  -1   1  119.31    7.67   2
  -4  -1   2 3121.77   69.82   2
  -4  -1   2 3067.54   76.32   2
   4  -1   2 3135.75   48.50   2
  -4   1   2 2936.29   49.14   2
   4   1   2 3196.67   63.58   2
   4  -1   2 3221.88   46.50   2
   4  -1   2  3184.5   68.17   2
   4   1   2 3112.56   59.07   2
  -4   1   2 3235.74   73.44   2
   4  -1   3   284.5    9.76   2
   4   1   3  283.35   15.23   2
  -4   1   3  305.62   22.27   2
   4  -1   3  262.27   13.49   2
   4   1   3  293.22   14.66   2
  -4  -1   3  284.33   18.17   2
   4  -1   3  284.83   11.23   2
  -4   1   3  297.02   13.68   2
  -4  -1   3     297   19.58   2
   4  -1   4 3790.58   53.58   2
  -4   1   4 3571.02   68.14   2
   4  -1   4 3897.67   61.75   2
   4   1   4 3790.39   67.56   2
   4  -1   4 3584.62   61.18   2
  -4  -1   4 3940.96   79.99   2
   4   1   4 3886.14   69.83   2
  -4  -1   4 4062.11   81.36   2
   4  -1   5  240.37   13.15   2
   4  -1   5   222.5    8.55   2
  -4   1   5  259.66   16.32   2
   4  -1   5  224.87   10.90   2
   4   1   5  234.92   13.53   2
  -4  -1   5  237.35   17.14   2
   4  -1   6 2227.07   49.35   2
   4   1   6 2202.22   32.12   2
  -4   1   6 2201.83   56.89   2
   4  -1   6 2116.52   36.28   2
   4  -1   6 2176.54   41.54   2
   4   1   6 2321.75   49.62   2
  -4  -1   6 2280.67   60.78   2
  -4   1   7  181.15   16.17   2
   4  -1   7  152.82    7.99   2
   4  -1   7  149.58    9.26   2
   4  -1   7  155.33   12.42   2
  -4  -1   7  165.71   16.08   2
   4   1   7  154.46    6.77   2
   4   1   8 1924.18   33.58   2
  -4  -1   8 1933.29   61.23   2
   4  -1   8 1803.74   39.75   2
   4  -1   8 1859.89   51.22   2
  -4   1   8 1918.24   60.57   2
   4   1   9    60.4    5.25   2
   4  -1   9   59.63    9.06   2
  -4   1   9   77.95   12.91   2
   4  -1   9   66.95    6.91   2
  -4  -1   9   58.62   10.66   2
   4   1  10  736.25   21.61   2
  -4   1  10  754.37   41.83   2
   4  -1  10     729   34.50   2
  -4  -1  10  777.45   41.84   2
   4  -1  11   41.53    9.24   2
  -4   1  11    54.6   11.88   2
  -4  -1  11   48.08   11.18   2
  -4   1  12  540.53   39.32   2
  -4  -1  12  568.87   39.66   2
   4  -1  12  474.25   30.96   2
   4  -1  13   24.09    7.73   2
  -4   1  13   28.27    9.19   2
  -4  -1  13   26.83    8.15   2
  -4   1  13   35.65   12.93   2
  -4   1  14   212.8   31.37   2
   4  -1  14  239.48   24.26   2
  -4  -2 -14  136.62   15.87   2
   4   2 -13   69.46   14.64   2
  -4  -2 -13   71.93   11.27   2
   4  -2 -13   61.09   10.14   2
   4   2 -12  361.55   32.04   2
  -4  -2 -12  363.99   23.94   2
   4  -2 -12  339.96   23.68   2
   4   2 -12  341.02   18.17   2
  -4  -2 -11  157.04   15.42   2
   4   2 -11  189.22   22.38   2
   4  -2 -11   189.5   17.03   2
   4   2 -11  153.55   11.73   2
   4   2 -10  480.25   33.78   2
  -4   2 -10  450.86   19.42   2
  -4  -2 -10  427.29   23.79   2
   4  -2 -10  423.88   24.35   2
  -4  -2  -9  105.48   11.18   2
   4   2  -9  112.97   15.11   2
   4  -2  -9   113.2   11.74   2
  -4   2  -9  120.63    9.63   2
  -4   2  -9  103.13    8.28   2
   4   2  -8  944.33   45.06   2
  -4   2  -8   920.1   27.63   2
  -4   2  -8  891.26   23.83   2
  -4  -2  -8  918.73   32.83   2
   4  -2  -8  926.74   33.73   2
   4   2  -7  248.77   22.34   2
   4   2  -7  291.25   22.74   2
  -4   2  -7  246.55   13.87   2
  -4  -2  -7  243.21   15.53   2
   4  -2  -7  241.11   15.97   2
  -4   2  -7  244.32   10.41   2
   4   2  -6 1179.56   49.56   2
   4   2  -6 1244.07   50.82   2
  -4   2  -6 1130.48   33.78   2
  -4   2  -6 1095.13   22.63   2
   4  -2  -6 1187.96   33.39   2
  -4  -2  -6 1121.76   33.97   2
  -4   2  -6 1227.67   42.23   2
   4   2  -5  111.53   14.92   2
   4  -2  -5  121.54    9.11   2
  -4   2  -5  108.93    5.17   2
  -4  -2  -5  106.81    9.38   2
  -4   2  -5  123.79   11.50   2
  -4  -2  -5   81.62    8.27   2
  -4  -2  -4 1829.11   42.23   2
   4   2  -4 2332.17   75.74   2
  -4   2  -4 2189.97   30.83   2
   4   2  -4 2271.26   61.72   2
  -4  -2  -4 2446.29   54.01   2
   4  -2  -4 2356.21   42.96   2
   4   2  -4 2838.55   78.07   2
  -4  -2  -4 2377.17   49.54   2
  -4   2  -4 2311.48   50.85   2
  -4  -2  -3  286.24   13.34   2
   4   2  -3  358.91   28.52   2
  -4   2  -3  338.14   16.17   2
   4  -2  -3   348.8   12.29   2
   4   2  -3  343.94   22.97   2
   4   2  -3  338.24   23.04   2
  -4  -2  -3  349.07   18.78   2
  -4   2  -3  354.98   16.08   2
  -4  -2  -3  321.28   15.88   2
  -4  -2  -2 2354.91   44.76   2
  -4   2  -2 2354.18   47.77   2
   4  -2  -2 2318.74   55.14   2
  -4  -2  -2 2355.17   55.01   2
   4   2  -2 2475.01   78.73   2
  -4  -2  -2 2327.16   49.81   2
   4  -2  -2 2293.33   64.22   2
   4   2  -2 2273.41   58.04   2
   4  -2  -2 2329.04   35.77   2
  -4   2  -1  527.06   20.50   2
  -4  -2  -1  523.84   19.12   2
  -4  -2  -1  523.34   25.52   2
   4  -2  -1  510.23   25.07   2
   4  -2  -1  527.14   10.48   2
   4  -2  -1  538.22   22.03   2
  -4  -2  -1  544.16   22.08   2
   4   2  -1  527.18   32.59   2
   4   2  -1  526.89   23.05   2
  -4   2   0 3492.55   66.34   2
  -4  -2   0 3384.11   68.72   2
  -4  -2   0 3306.34   80.72   2
   4   2   0 3405.08   82.27   2
   4   2   0 3403.62   64.80   2
   4  -2   0 3383.76   69.73   2
   4  -2   0 3425.53   49.31   2
   4  -2   0 3543.85   63.42   2
   4  -2   1   483.8   18.24   2
  -4  -2   1  513.26   33.04   2
  -4   2   1  477.52   22.27   2
   4  -2   1  469.17    9.04   2
   4   2   1  503.03   25.41   2
   4  -2   1  490.18   21.49   2
  -4  -2   1  518.57   33.29   2
  -4  -2   1  498.65   25.88   2
   4   2   1  454.97   19.42   2
  -4  -2   2 2711.57   81.16   2
  -4  -2   2 2205.93   70.05   2
   4  -2   2 2413.78   36.15   2
  -4   2   2 2435.11   66.54   2
  -4   2   2 2342.82   59.45   2
   4  -2   2  2551.3   61.94   2
   4   2   2 2374.07   57.94   2
  -4  -2   2 2458.56   71.12   2
   4   2   2 2368.22   50.27   2
   4  -2   2 2474.83   46.61   2
  -4  -2   3  363.01   26.65   2
   4  -2   3  380.94   15.09   2
   4  -2   3  378.06   12.72   2
  -4   2   3  413.32   27.86   2
   4   2   3  359.72   19.68   2
   4  -2   3  384.28   17.98   2
   4   2   3   354.3   17.15   2
  -4  -2   3  365.44   25.36   2
  -4   2   3  374.36   23.17   2
   4  -2   4 2416.09   44.89   2
   4  -2   4 2384.07   44.28   2
  -4  -2   4 2453.95   68.63   2
   4   2   4 2473.41   57.16   2
   4  -2   4 2430.44   42.05   2
   4   2   4 2417.18   51.96   2
  -4   2   4 2336.82   74.69   2
  -4  -2   4 2382.03   68.18   2
  -4   2   4 2391.88   68.74   2
   4  -2   5   94.77    7.88   2
   4  -2   5   87.65    6.93   2
  -4   2   5  108.14   14.98   2
   4   2   5   85.27    5.75   2
   4   2   5    92.1   10.21   2
   4  -2   5   83.59    5.42   2
  -4  -2   5   96.55   12.98   2
  -4   2   5   74.36    9.64   2
   4  -2   6  1243.3   34.03   2
  -4   2   6 1228.13   43.89   2
   4  -2   6 1186.99   29.16   2
   4  -2   6 1198.03   24.02   2
  -4  -2   6 1230.17   47.56   2
   4   2   6 1195.75   25.37   2
  -4   2   6 1209.31   53.62   2
  -4   2   7  276.47   26.52   2
   4   2   7  294.23   11.78   2
   4  -2   7  280.54   13.44   2
   4  -2   7  301.91   17.32   2
  -4  -2   7  281.01   22.59   2
   4  -2   7  294.21   10.98   2
  -4   2   7  323.94   23.20   2
   4  -2   8   951.5   27.31   2
   4   2   8  963.79   20.72   2
  -4  -2   8  993.98   45.46   2
   4   2   8   985.3   24.21   2
   4  -2   8  956.97   22.87   2
  -4   2   8  896.15   50.69   2
   4  -2   8  975.36   34.81   2
  -4   2   8 1029.78   45.54   2
   4   2   9   155.4    9.26   2
   4  -2   9  125.17   12.82   2
   4  -2   9  151.93   10.62   2
  -4  -2   9  157.84   18.27   2
  -4   2   9   161.2   18.63   2
  -4   2   9  166.29   22.93   2
   4   2  10  471.47   17.50   2
  -4  -2  10  508.64   34.72   2
  -4   2  10   484.8   39.81   2
  -4   2  10  487.18   34.86   2
   4  -2  11  168.63   17.13   2
  -4   2  11  163.92   23.85   2
  -4  -2  11  185.04   21.92   2
  -4   2  11  195.94   23.35   2
   4  -2  12   375.4   27.36   2
  -4   2  12  399.94   35.19   2
  -4   2  12  359.64   36.56   2
  -4  -2  12  371.82   32.76   2
   4  -2  13    58.9   11.59   2
  -4  -2  13   62.09   14.08   2
  -4   2  13   46.06   13.35   2
  -4   2  14  116.06   21.54   2
   4   3 -13   54.94   14.13   2
  -4  -3 -12   150.3   16.23   2
   4   3 -12  142.26   22.47   2
   4  -3 -12  168.32   17.11   2
  -4  -3 -11   78.09   11.31   2
   4   3 -11  100.66   19.47   2
   4  -3 -11   85.25   11.71   2
  -4  -3 -10   149.4   14.72   2
   4   3 -10  167.48   23.58   2
   4  -3 -10  181.66   16.82   2
   4  -3  -9   99.45   11.78   2
  -4  -3  -9    92.6   11.19   2
   4   3  -9   76.85   15.65   2
  -4   3  -9   86.16   11.88   2
  -4   3  -8  317.25   19.92   2
   4   3  -8  305.42   31.15   2
   4   3  -8  382.87   30.88   2
  -4  -3  -8  313.16   19.72   2
   4  -3  -8   323.5   20.73   2
  -4   3  -7  278.14   16.11   2
   4   3  -7  262.07   28.66   2
  -4   3  -7  239.53    8.63   2
  -4  -3  -7     220   15.98   2
   4  -3  -7  249.96   17.24   2
   4   3  -7  225.22   21.33   2
   4   3  -6  266.14   21.44   2
   4   3  -6  276.19   30.07   2
   4  -3  -6  280.97   16.14   2
  -4  -3  -6  270.94   17.04   2
  -4   3  -6  254.26    7.01   2
   4  -3  -6  278.31   17.31   2
  -4   3  -6  268.84   21.67   2
  -4  -3  -6  273.81   19.81   2
   4   3  -5  294.35   29.94   2
   4  -3  -5   259.9   14.53   2
  -4   3  -5  266.24   20.04   2
   4   3  -5   263.9   19.06   2
  -4  -3  -5  245.63   15.71   2
   4  -3  -5  272.02   16.27   2
  -4  -3  -5  252.28   17.34   2
   4   3  -4  597.36   42.28   2
  -4   3  -4  478.79   26.20   2
   4  -3  -4  542.18   19.53   2
  -4  -3  -4  554.21   19.36   2
  -4  -3  -4  494.31   23.20   2
   4   3  -4  489.52   23.63   2
  -4  -3  -4  483.96   22.04   2
   4  -3  -4  535.23   22.33   2
  -4  -3  -3  302.02   17.22   2
   4  -3  -3  292.71   12.78   2
   4   3  -3  290.43   28.24   2
  -4  -3  -3   293.5   14.66   2
   4  -3  -3  296.13   25.00   2
  -4   3  -3  315.39   19.66   2
   4   3  -3  280.65   16.29   2
  -4  -3  -3  282.16   16.31   2
   4  -3  -2  487.63   15.36   2
  -4   3  -2  450.94   21.86   2
   4   3  -2  458.48   32.37   2
   4  -3  -2  474.77   28.61   2
  -4  -3  -2  478.24   21.28   2
   4   3  -2  448.92   20.07   2
  -4  -3  -2  465.33   21.19   2
  -4   3  -1  136.84   12.10   2
  -4  -3  -1  119.18   10.55   2
   4  -3  -1  128.35   13.41   2
  -4  -3  -1  122.63   10.69   2
   4   3  -1  121.39   10.02   2
   4  -3  -1   95.96    6.75   2
   4   3  -1   136.6   16.35   2
  -4  -3   0  575.83   25.34   2
   4  -3   0   623.3   16.54   2
  -4   3   0  591.78   26.11   2
  -4  -3   0  594.95   24.40   2
   4   3   0  609.49   31.77   2
   4  -3   0  600.16   24.80   2
  -4  -3   0  586.71   33.68   2
   4   3   0  595.11   22.56   2
   4  -3   0  584.54   27.90   2
   4  -3   1  131.27   10.91   2
  -4   3   1  111.12   11.55   2
  -4  -3   1  120.53   12.09   2
  -4  -3   1  139.17   18.72   2
   4  -3   1    91.6    5.55   2
  -4  -3   1  150.06   20.77   2
   4   3   1  121.13   13.02   2
   4   3   1  129.74   10.31   2
   4  -3   1  137.27    6.91   2
   4  -3   1   90.44    3.75   2
  -4   3   2  446.75   24.88   2
  -4  -3   2   546.6   39.47   2
  -4  -3   2     452   34.49   2
  -4  -3   2  466.36   28.91   2
   4   3   2  448.57   24.53   2
   4  -3   2  445.19   13.88   2
   4   3   2  449.06   20.22   2
   4  -3   2  468.82   20.49   2
  -4  -3   3  391.35   30.19   2
   4  -3   3  350.92   17.59   2
  -4   3   3  354.14   23.31   2
   4  -3   3  361.57   13.76   2
  -4  -3   3  404.47   28.39   2
   4  -3   3   372.1   19.81   2
   4   3   3  351.57   21.29   2
   4  -3   4  506.38   20.81   2
  -4   3   4  523.79   30.04   2
   4  -3   4  531.21   18.30   2
   4   3   4  524.69   26.39   2
  -4  -3   4  509.77   33.62   2
   4   3   5  290.51   14.02   2
   4  -3   5   301.4   14.97   2
   4  -3   5  294.42   15.69   2
   4   3   5  296.14   20.11   2
  -4  -3   5  306.69   25.58   2
  -4   3   5  287.03   23.70   2
   4   3   6  243.04   12.70   2
   4  -3   6  233.05   14.43   2
  -4   3   6  250.15   23.04   2
  -4  -3   6  270.06   24.12   2
  -4   3   7  253.05   24.35   2
   4   3   7  233.61   12.50   2
   4  -3   7  200.97   14.43   2
   4  -3   8  233.01   16.79   2
  -4   3   8  309.24   28.58   2
   4   3   8  294.01   14.43   2
  -4  -3   8  301.82   25.83   2
   4   3   9   88.02    7.99   2
   4  -3   9   70.87    9.97   2
  -4  -3   9   92.42   14.94   2
  -4   3   9   91.81   16.35   2
  -4   3  10  163.04   22.59   2
   4   3  10  147.43   10.70   2
   4  -3  10  104.26   12.83   2
  -4  -3  10  165.05   20.91   2
   4  -3  11   82.12   11.95   2
  -4  -3  11   96.73   16.78   2
  -4   3  11   74.53   15.61   2
  -4   3  12  166.25   24.14   2
   4  -3  12  163.09   18.07   2
  -4  -3  12  168.45   23.12   2
  -4   3  13   63.34   14.50   2
   4  -3  13   66.34   12.48   2
   4   4 -13    7.24    6.78   2
   4   4 -12   41.37   15.37   2
   4   4 -11   43.78   16.32   2
  -4  -4 -11   32.37    7.63   2
   4  -4 -11   22.12    6.87   2
  -4  -4 -10  101.71   13.13   2
   4   4 -10   89.49   21.25   2
   4  -4 -10  110.28   14.00   2
   4   4  -9   21.45   12.76   2
  -4  -4  -9   39.25    7.97   2
   4  -4  -9   35.36    7.59   2
  -4  -4  -8   91.92   11.38   2
   4   4  -8  115.71   22.62   2
   4  -4  -8   91.79   11.88   2
   4   4  -7   13.18    7.40   2
  -4  -4  -7    10.5    3.95   2
   4  -4  -7     5.4    2.58   2
   4   4  -6  145.82   11.31   2
  -4  -4  -6  144.95   13.46   2
   4   4  -6  156.56   24.56   2
   4  -4  -6  152.28   14.04   2
  -4   4  -5     6.1    3.94   2
   4   4  -5    9.06    5.66   2
   4  -4  -5    2.56    1.83   2
   4   4  -5    5.51    2.31   2
  -4  -4  -5    3.75    2.86   2
   4  -4  -5    6.05    3.80   2
  -4  -4  -4   72.81    9.61   2
   4  -4  -4   76.06   15.13   2
   4  -4  -4   69.85    7.66   2
   4   4  -4   69.06    7.58   2
   4  -4  -4    64.5    8.06   2
   4   4  -4   52.16   13.05   2
  -4  -4  -4   58.02    8.55   2
  -4  -4  -3    5.06    2.22   2
   4  -4  -3    3.76    4.37   2
   4  -4  -3    2.08    1.58   2
   4   4  -3    5.74    4.74   2
  -4  -4  -3     3.1    2.32   2
   4   4  -3    6.08    2.65   2
   4  -4  -3    2.28    1.45   2
   4  -4  -3    3.17    1.75   2
   4  -4  -2   80.24   12.82   2
   4  -4  -2   90.71    8.41   2
  -4  -4  -2   70.62    8.76   2
   4   4  -2   82.05    7.99   2
   4  -4  -2    83.9    8.29   2
   4   4  -2   92.62   14.32   2
  -4   4  -2   78.06   10.59   2
   4  -4  -2   84.73    7.42   2
   4  -4  -1    10.5    2.98   2
   4  -4  -1    9.09    4.02   2
  -4   4  -1   18.59    5.93   2
   4   4  -1   19.95    7.36   2
  -4  -4  -1    9.46    2.55   2
   4  -4  -1   12.66    3.19   2
   4   4  -1    8.77    2.94   2
   4  -4  -1   10.66    2.86   2
  -4  -4   0   98.35   20.01   2
  -4   4   0   66.18    9.67   2
   4  -4   0   68.34    7.06   2
   4  -4   0    63.2   10.11   2
  -4  -4   0   72.62    9.68   2
   4  -4   0   67.15    6.55   2
   4  -4   0   70.49    6.55   2
   4   4   0   71.84   11.24   2
  -4  -4   1     2.9    4.49   2
   4  -4   1   17.31    3.45   2
  -4  -4   1   12.65    4.99   2
   4   4   1   17.85    5.24   2
   4  -4   1   14.52    3.09   2
   4  -4   1   11.37    2.60   2
  -4   4   1   10.56    3.79   2
  -4   4   2   92.47   12.34   2
   4   4   2   90.24   11.58   2
   4  -4   2  107.38    8.22   2
  -4  -4   2   99.01   13.06   2
   4  -4   2  108.26    6.74   2
  -4  -4   2  106.08   19.23   2
  -4   4   3    8.54    5.01   2
  -4  -4   3    1.16    4.39   2
  -4  -4   3    6.63    4.27   2
   4  -4   3    5.54    2.45   2
   4  -4   3    2.27    1.04   2
   4   4   3    2.91    1.89   2
   4  -4   3    3.32    0.95   2
  -4  -4   4   79.39   14.88   2
  -4   4   4  109.04   14.54   2
   4   4   4   98.54   12.35   2
   4  -4   4  111.59    9.22   2
   4  -4   5   10.85    3.34   2
  -4  -4   5   12.56    6.94   2
  -4   4   5   22.47    7.65   2
  -4   4   6  166.42   19.30   2
   4  -4   6  188.25   13.69   2
  -4  -4   6   202.4   23.10   2
   4   4   6  172.06   12.75   2
  -4   4   7   20.81    8.22   2
   4   4   7   20.39    4.55   2
  -4  -4   7   23.51    8.26   2
   4  -4   7   23.26    5.46   2
   4   4   8     114   10.32   2
   4  -4   8  113.74   11.98   2
  -4   4   8  113.01   18.56   2
  -4  -4   8  106.66   17.28   2
  -4   4   9   34.83   10.18   2
  -4  -4   9   39.16   10.59   2
   4   4   9   40.77    6.30   2
   4  -4   9   53.88    9.10   2
  -4  -4  10  116.02   18.73   2
  -4   4  10   93.44   16.87   2
   4  -4  10  108.34   13.51   2
  -4   4  11   29.67    9.71   2
  -4  -4  11   25.76    9.03   2
   4  -4  11    30.1    7.89   2
  -4   4  12   63.24   14.45   2
   4  -4  12   57.79   11.24   2
   4   5 -11   -0.18   10.80   2
   4   5 -10   51.39   16.56   2
   4   5  -9   21.93    8.70   2
  -4  -5  -9   22.52    6.99   2
   4  -5  -9   29.73    7.76   2
   4   5  -8   37.35   14.56   2
  -4  -5  -8   60.97   10.43   2
   4  -5  -8   68.54   10.92   2
   4   5  -7   28.94   10.70   2
  -4  -5  -7   35.92    7.42   2
   4  -5  -7   26.69    6.34   2
  -4  -5  -6    72.9   10.83   2
   4   5  -6   79.04   15.94   2
   4  -5  -6   77.47   10.46   2
  -4  -5  -5   30.89    8.00   2
   4   5  -5   38.48   10.48   2
  -4  -5  -5   43.05    7.96   2
   4  -5  -5   23.35    5.45   2
  -4  -5  -4    42.4    9.25   2
   4  -5  -4   54.25   13.22   2
   4   5  -4   51.76   11.80   2
  -4  -5  -4   50.96    8.53   2
   4  -5  -4   34.15    6.25   2
   4  -5  -3   55.56   12.44   2
  -4  -5  -3   47.37    9.06   2
   4   5  -3    46.3   10.96   2
  -4  -5  -3   29.51    6.46   2
   4  -5  -3   38.28    6.27   2
   4  -5  -2   31.42    6.24   2
   4  -5  -2   41.08   10.37   2
   4   5  -2   32.53    8.63   2
  -4  -5  -2   19.53    5.17   2
   4  -5  -2   26.96    5.06   2
   4  -5  -1   50.94    7.07   2
  -4   5  -1   57.78   10.21   2
   4  -5  -1   45.57   10.16   2
   4  -5  -1   52.67    6.80   2
  -4  -5  -1   58.42   15.74   2
   4   5  -1   55.37   10.58   2
  -4  -5  -1   40.54    7.49   2
  -4  -5   0    3.43    5.33   2
  -4   5   0    4.08    4.12   2
   4  -5   0    5.39    4.62   2
   4  -5   0    1.04    1.32   2
  -4  -5   0    2.91    3.12   2
   4   5   0   -4.44    4.64   2
   4  -5   0    0.22    1.33   2
  -4   5   1   47.94    9.26   2
  -4  -5   1   72.98   17.33   2
   4  -5   1   50.71   10.18   2
   4  -5   1    50.8    5.66   2
  -4  -5   1   51.42    9.05   2
   4   5   1   46.21    8.70   2
   4  -5   1   47.03    6.25   2
  -4   5   2   37.45    8.53   2
   4  -5   2   41.59    4.59   2
   4  -5   2   49.23    6.36   2
  -4  -5   2   34.24   12.23   2
  -4  -5   2   45.64    9.49   2
   4   5   2   38.71    8.26   2
   4  -5   3   52.46    6.91   2
  -4  -5   3   40.31   10.47   2
  -4   5   3   43.42    9.01   2
   4   5   3    43.2    8.59   2
  -4  -5   3   63.54   15.62   2
  -4  -5   4   39.28   12.29   2
  -4   5   4   55.78   11.04   2
   4  -5   4   52.66    6.93   2
   4   5   4   62.41   10.89   2
   4  -5   5   37.68    6.07   2
  -4   5   5   44.14   10.40   2
  -4  -5   5   52.77   12.33   2
  -4   5   6   60.59   12.83   2
   4  -5   6   68.64    8.96   2
  -4  -5   6   65.41   14.83   2
  -4   5   7   42.82   11.13   2
  -4  -5   7   35.42   11.16   2
   4  -5   7   35.97    7.09   2
  -4   5   8   32.89    9.93   2
  -4  -5   8   49.99   12.48   2
   4  -5   8   43.76    7.86   2
  -4   5   9   17.48    7.07   2
  -4  -5   9   27.29    9.04   2
   4  -5   9   12.66    4.47   2
  -4   5  10   62.25   13.73   2
   4   6  -8   35.48   10.36   2
  -4  -6  -7  117.67   15.35   2
   4  -6  -7  124.15   15.06   2
   4   6  -7  106.38   19.35   2
   4   6  -6   13.99    7.32   2
  -4  -6  -6   24.63    7.37   2
   4  -6  -6   18.26    5.81   2
   4   6  -5  144.89   19.31   2
  -4  -6  -5  138.98   15.99   2
   4  -6  -5  143.53   15.07   2
   4  -6  -4    1.03    6.24   2
   4   6  -4    7.45    5.67   2
  -4  -6  -4    1.68    1.91   2
   4  -6  -4    4.91    3.84   2
  -4  -6  -3  231.63   24.19   2
   4  -6  -3  227.69   28.12   2
   4   6  -3  223.53   21.88   2
  -4  -6  -3  158.55   16.71   2
   4  -6  -3  230.65   17.30   2
   4  -6  -2    6.34    6.25   2
  -4  -6  -2    2.95    6.49   2
  -4  -6  -2      -1    2.35   2
   4   6  -2    1.56    2.07   2
   4  -6  -2   -2.79    2.98   2
   4  -6  -1  297.01   28.81   2
   4   6  -1     256   22.20   2
  -4  -6  -1  328.01   38.69   2
  -4  -6  -1  284.01   22.35   2
   4  -6  -1  304.96   17.89   2
  -4   6   0    3.42    4.60   2
   4  -6   0    3.08    3.70   2
  -4  -6   0    1.19    4.29   2
  -4  -6   0    0.24    3.05   2
   4   6   0    3.36    2.89   2
  -4   6   1  267.52   24.45   2
   4   6   1  231.06   20.83   2
  -4  -6   1  237.46   32.31   2
   4  -6   1  283.96   26.59   2
  -4  -6   1  273.37   23.54   2
  -4   6   2   10.11    6.24   2
   4  -6   2    4.84    5.59   2
  -4  -6   2   11.79    8.25   2
  -4  -6   2   -1.07    3.38   2
   4   6   2   17.84    6.69   2
  -4   6   3  251.74   24.42   2
   4   6   3  237.32   21.60   2
  -4  -6   3  287.57   34.18   2
  -4   6   4   10.58    4.83   2
  -4  -6   4   15.73   10.81   2
  -4   6   5  137.07   18.92   2
  -4  -6   5  130.48   22.53   2
  -4   6   6   38.97   10.77   2
  -4  -6   6   30.85   11.20   2
  -4   6   7  130.63   19.18   2
  -4  -6   7  157.01   24.35   2
  -4  -7  -5  128.93   16.88   2
   4  -7  -5  141.32   16.24   2
   4  -7  -4   11.73   10.06   2
  -4  -7  -4   13.08    5.83   2
   4   7  -4   14.67    6.01   2
   4  -7  -3  176.86   27.42   2
   4   7  -3  176.85   19.61   2
  -4  -7  -3  178.02   19.32   2
   4  -7  -2   22.27   10.37   2
  -4  -7  -2   18.46    6.57   2
   4   7  -2    15.2    5.23   2
  -4  -7  -2   17.96   11.72   2
   4  -7  -1  182.35   25.37   2
   4   7  -1  155.88   18.05   2
  -4  -7  -1  175.56   28.81   2
   4  -7   0   14.56    6.60   2
   4   7   0       5    3.97   2
  -4  -7   0    9.26    6.54   2
   4   7   1  156.34   18.17   2
  -4  -7   1  174.18   29.68   2
  -4  -7   2   11.83    7.37   2
   4   7   2   14.24    5.63   2
   5   0 -14  104.66   13.13   2
  -5   0 -13    3.67    1.53   2
   5   0 -13    2.99    3.02   2
   5   0 -12  101.44   14.74   2
   5   0 -12  101.12   11.95   2
  -5   0 -12   98.06   11.29   2
   5   0 -11    2.81    2.19   2
  -5   0 -11    3.53    2.98   2
   5   0 -11    1.21    2.53   2
  -5   0 -10  232.11   15.79   2
   5   0 -10  260.76   21.46   2
   5   0  -9     0.9    2.53   2
  -5   0  -9    -4.7    2.33   2
  -5   0  -8  108.23    9.83   2
   5   0  -8  136.01   13.99   2
   5   0  -7    2.49    2.60   2
  -5   0  -7   -0.01    2.20   2
  -5   0  -7    1.36    1.02   2
  -5   0  -6  199.28   16.54   2
  -5   0  -6  189.32   11.65   2
  -5   0  -6  168.28   11.80   2
   5   0  -6  173.45   14.47   2
   5   0  -6  183.11   13.85   2
   5   0  -5    3.68    3.19   2
  -5   0  -5    0.19    1.36   2
  -5   0  -5    2.37    1.53   2
  -5   0  -5    1.82    2.54   2
   5   0  -5    0.56    1.74   2
   5   0  -4   19.23    4.99   2
  -5   0  -4   24.33    5.12   2
  -5   0  -4    20.9    3.69   2
   5   0  -4   19.92    3.89   2
  -5   0  -4   20.41    4.27   2
  -5   0  -3     5.4    2.48   2
   5   0  -3    5.39    3.32   2
   5   0  -3    2.43    1.02   2
  -5   0  -3    0.58    1.52   2
  -5   0  -3    0.31    2.30   2
  -5   0  -2    8.31    1.77   2
   5   0  -2    4.25    2.41   2
   5   0  -2   13.41    3.15   2
  -5   0  -2   11.74    3.34   2
   5   0  -2    8.19    3.55   2
  -5   0  -2   10.63    3.84   2
  -5   0  -1    0.87    1.70   2
   5   0  -1    5.71    3.71   2
  -5   0  -1    1.06    1.77   2
  -5   0  -1    2.18    2.17   2
   5   0  -1    6.33    3.43   2
  -5   0   0    -0.9    2.34   2
  -5   0   0    3.73    3.23   2
  -5   0   0     0.4    1.65   2
   5   0   0    3.94    4.00   2
   5   0   0    5.54    5.41   2
  -5   0   1    3.88    2.29   2
  -5   0   1    2.62    2.87   2
   5   0   1    2.18    2.39   2
   5   0   1   -1.49    3.21   2
   5   0   2   10.98    3.77   2
  -5   0   2   12.68    4.58   2
  -5   0   2    9.35    3.30   2
   5   0   2   11.26    3.64   2
   5   0   2   13.53    3.30   2
   5   0   3     2.2    1.41   2
  -5   0   3    1.81    1.58   2
   5   0   3    2.86    1.86   2
   5   0   3   -1.93    2.10   2
   5   0   4    47.7    6.05   2
  -5   0   4   50.18    7.02   2
   5   0   4   49.68    4.43   2
   5   0   4   57.13    6.89   2
  -5   0   5    4.06    3.49   2
   5   0   5   -1.61    1.60   2
  -5   0   6  249.71   18.20   2
   5   0   6   214.4   13.38   2
   5   0   7    1.76    1.56   2
  -5   0   7    6.49    3.87   2
   5   0   8  144.26    4.72   2
  -5   0   8  156.19   16.67   2
   5   0   9    1.34    0.75   2
   5   0   9    1.93    0.78   2
  -5   0   9    0.48    4.80   2
  -5   0  10  246.82   24.33   2
  -5   0  11   -1.33    4.69   2
  -5   0  12   143.6   20.41   2
  -5   0  13    1.93    4.31   2
  -5  -1 -14  109.66   13.65   2
   5  -1 -14    95.4   13.26   2
   5   1 -14   98.28   12.07   2
   5  -1 -13   24.87    7.87   2
   5   1 -13   22.57    8.11   2
  -5  -1 -13   17.97    5.27   2
   5  -1 -13   26.16    7.06   2
   5   1 -13   22.97    5.32   2
  -5   1 -12  131.73   12.33   2
  -5  -1 -12   138.8   14.13   2
   5  -1 -12  121.26   13.87   2
   5   1 -12  135.89   13.08   2
   5  -1 -12  157.43   18.05   2
   5   1 -12  165.52   20.36   2
  -5   1 -11    72.3    8.89   2
   5   1 -11   85.34   13.87   2
  -5  -1 -11   79.34   10.36   2
   5  -1 -11   73.52   10.12   2
  -5   1 -10  116.36   10.78   2
  -5  -1 -10  115.98   11.78   2
   5  -1 -10  122.08   12.67   2
   5   1 -10  127.77   16.12   2
  -5   1  -9  111.62   10.25   2
  -5  -1  -9  110.27   11.07   2
   5   1  -9  119.12   15.03   2
   5   1  -8  166.45   17.05   2
  -5   1  -8  149.42   10.16   2
  -5   1  -8  169.26   12.33   2
  -5  -1  -8  157.89   12.61   2
   5   1  -7  270.52   21.50   2
  -5   1  -7  258.96   15.18   2
  -5  -1  -7  255.82   15.86   2
  -5   1  -7  243.28   12.27   2
   5   1  -6  156.31   15.56   2
  -5   1  -6  170.42   14.93   2
  -5   1  -6  151.91    9.12   2
  -5   1  -6  155.01   11.59   2
  -5  -1  -6   146.4   11.29   2
   5  -1  -6  170.37   12.13   2
   5   1  -5   313.7   19.49   2
  -5   1  -5   278.1   11.85   2
  -5  -1  -5  320.58   16.68   2
  -5   1  -5  308.04   18.21   2
  -5   1  -5  274.19   16.18   2
   5   1  -5  322.61   21.90   2
  -5  -1  -5  294.81   15.90   2
   5  -1  -5  298.44   15.01   2
   5  -1  -5  293.48   16.81   2
  -5  -1  -5  324.03   21.77   2
   5   1  -4  174.52   16.23   2
  -5  -1  -4  180.65   12.42   2
   5   1  -4  175.55   13.98   2
  -5   1  -4  187.34   12.57   2
   5   1  -4  186.81   16.93   2
  -5   1  -4  167.92   13.38   2
  -5  -1  -4  176.17   12.26   2
  -5   1  -4  167.56    9.14   2
   5  -1  -4  195.92   10.84   2
   5  -1  -4  176.54   12.40   2
   5   1  -3  416.47   25.82   2
  -5   1  -3  404.28   16.60   2
   5   1  -3  403.23   21.18   2
  -5   1  -3  397.56   22.57   2
   5   1  -3  424.71   28.08   2
  -5  -1  -3  390.45   18.90   2
  -5   1  -3     364   14.41   2
  -5  -1  -3  400.43   19.19   2
   5  -1  -3   411.6   14.49   2
  -5   1  -3  367.01   13.04   2
   5  -1  -3  388.02   17.53   2
  -5   1  -2   87.06    8.38   2
  -5   1  -2   87.71    6.40   2
  -5  -1  -2   85.02    9.23   2
   5   1  -2  108.38   15.10   2
  -5  -1  -2   89.44    9.51   2
   5   1  -2   89.61   13.14   2
   5  -1  -2   82.75    5.69   2
  -5  -1  -2   82.98    5.93   2
  -5   1  -2   83.34    6.48   2
   5  -1  -2   86.05    7.90   2
  -5   1  -1  320.27   15.94   2
  -5   1  -1  319.04   14.83   2
  -5   1  -1  217.86    8.25   2
  -5  -1  -1  313.52   19.59   2
   5   1  -1  412.27   27.79   2
   5  -1  -1  324.17   15.63   2
  -5  -1  -1  313.05   19.24   2
   5   1  -1   371.8   26.20   2
  -5   1   0   17.48    3.94   2
  -5   1   0    17.8    4.89   2
   5  -1   0   17.64    4.92   2
  -5   1   0    21.7    3.91   2
   5  -1   0   17.21    4.11   2
  -5  -1   0   13.96    5.21   2
   5   1   0   14.33    5.06   2
   5  -1   0   18.55    5.10   2
  -5   1   0   16.58    1.87   2
  -5  -1   0   22.28    6.47   2
   5   1   0   21.01    5.39   2
  -5  -1   1  423.74   27.81   2
   5  -1   1  348.93   18.57   2
  -5  -1   1  369.33   23.93   2
  -5   1   1  356.81   23.14   2
   5   1   1  342.08   23.01   2
   5  -1   1  318.37   16.89   2
  -5  -1   1  344.74   24.45   2
   5  -1   1  411.81   25.92   2
  -5   1   1  332.81   10.30   2
   5   1   1  327.61   20.14   2
  -5   1   1   323.4   20.05   2
  -5  -1   2   83.23   10.82   2
   5   1   2   69.55    9.15   2
   5  -1   2   81.81    7.76   2
  -5  -1   2   85.86   12.60   2
  -5   1   2   95.54   12.83   2
   5  -1   2   77.11    6.74   2
  -5   1   2   82.31    6.09   2
  -5   1   2   62.34    9.92   2
   5   1   2   72.82    8.55   2
   5  -1   2   74.52   10.18   2
   5  -1   2   73.73    6.03   2
  -5   1   3  445.15   17.62   2
  -5   1   3  477.64   29.11   2
   5   1   3  438.74   21.55   2
   5  -1   3  416.94   13.91   2
   5  -1   3  432.01   21.30   2
   5   1   3  431.43   20.30   2
  -5  -1   3  448.77   25.24   2
  -5  -1   3   444.1   26.83   2
   5  -1   3  428.42   13.42   2
  -5   1   4  134.15   10.91   2
   5   1   4  149.87   12.11   2
   5  -1   4  142.34   10.75   2
   5   1   4  145.16   11.52   2
  -5  -1   4  169.79   15.56   2
   5  -1   4  131.74    6.53   2
  -5  -1   4  145.18   14.88   2
  -5   1   5  341.09   19.52   2
   5   1   5  318.58   18.21   2
   5  -1   5  301.52   14.75   2
   5   1   5  317.88   17.27   2
  -5  -1   5   337.7   22.23   2
   5  -1   5  307.49    9.90   2
   5  -1   6  117.76    5.91   2
  -5   1   6  129.16   13.10   2
  -5  -1   6  114.01   13.27   2
   5  -1   6  116.96    8.84   2
   5  -1   6  127.68   10.32   2
   5  -1   7   253.9    9.19   2
  -5   1   7  285.84   20.78   2
  -5  -1   7  271.18   21.67   2
   5  -1   7  251.33   13.39   2
   5  -1   7  267.08   16.33   2
  -5   1   8   150.3   16.50   2
  -5  -1   8  140.59   16.51   2
   5  -1   8  143.06    7.30   2
   5  -1   8  140.63   10.17   2
   5  -1   8  124.98   12.25   2
   5  -1   9  103.01    6.47   2
  -5   1   9  100.68   14.23   2
   5  -1   9  101.23    8.95   2
   5  -1   9   73.99    9.91   2
  -5  -1   9  108.73   15.00   2
  -5   1  10  129.38   17.47   2
  -5  -1  10  139.21   18.53   2
   5  -1  10   82.67   11.40   2
   5  -1  11   72.75   11.52   2
  -5   1  11   71.83   13.17   2
  -5  -1  11   74.41   14.64   2
  -5   1  12  184.81   23.81   2
  -5  -1  12  173.29   23.41   2
  -5   1  13    37.4   14.75   2
  -5   1  13   29.44   10.94   2
  -5  -1  13    32.2   11.01   2
  -5  -2 -13   96.59   13.34   2
   5   2 -13   89.61   16.66   2
   5  -2 -13  104.63   13.99   2
  -5  -2 -12  110.11   13.65   2
   5   2 -12  129.82   19.92   2
   5  -2 -12  119.29   14.29   2
   5   2 -12  100.53   10.50   2
  -5  -2 -11  266.49   20.12   2
   5  -2 -11  287.69   21.45   2
   5   2 -11  272.43   27.68   2
   5   2 -10  142.42   19.04   2
  -5   2 -10  121.44   11.17   2
  -5  -2 -10   135.1   13.52   2
   5  -2 -10  147.15   14.69   2
   5   2  -9     231   23.45   2
  -5   2  -9  225.28   15.25   2
  -5  -2  -9  217.03   16.60   2
   5  -2  -9  242.19   17.99   2
   5   2  -8  288.21   25.93   2
  -5   2  -8  259.15   11.82   2
  -5   2  -8  262.58   16.39   2
  -5  -2  -8  265.65   17.52   2
   5   2  -7  555.06   35.56   2
  -5   2  -7  508.21   15.84   2
  -5  -2  -7  529.14   24.38   2
  -5   2  -7  537.98   30.05   2
  -5   2  -7  531.78   24.69   2
   5   2  -6  236.56   23.37   2
  -5   2  -6  216.17    8.96   2
  -5   2  -6  227.27   16.04   2
   5   2  -6  259.97   24.77   2
  -5  -2  -6  216.93   14.81   2
   5  -2  -6  219.12   13.28   2
  -5   2  -6  225.42   17.37   2
   5   2  -5  545.47   35.57   2
  -5   2  -5  515.83   13.36   2
  -5  -2  -5  519.95   22.59   2
   5  -2  -5  562.16   19.60   2
  -5   2  -5  560.13   25.25   2
  -5   2  -4  463.35   12.30   2
   5   2  -4   535.8   35.97   2
  -5  -2  -4  468.34   21.44   2
   5  -2  -4  485.46   16.28   2
  -5   2  -4  498.53   21.17   2
   5   2  -3 1158.85   53.98   2
  -5  -2  -3 1057.83   36.08   2
   5   2  -3 1120.33   47.80   2
  -5  -2  -3  988.74   32.50   2
   5   2  -3 1056.44   42.63   2
   5  -2  -3 1011.66   21.88   2
  -5   2  -3 1030.82   29.89   2
  -5   2  -3 1016.75   27.18   2
  -5   2  -2  243.94   14.05   2
  -5  -2  -2   239.9   12.30   2
  -5  -2  -2  240.21   17.18   2
   5   2  -2  235.95   19.65   2
  -5  -2  -2  255.72   16.21   2
   5  -2  -2  193.65    7.00   2
   5  -2  -2  256.17   12.30   2
  -5   2  -1  1358.7   37.30   2
   5  -2  -1 1365.97   30.38   2
  -5  -2  -1 1344.41   45.92   2
   5   2  -1 1403.61   57.97   2
   5  -2  -1 1354.78   46.05   2
  -5  -2  -1 1369.61   41.34   2
   5   2  -1 1335.25   44.57   2
   5  -2  -1 1383.63   40.02   2
   5  -2   0  627.88   18.91   2
  -5   2   0  609.69   25.53   2
  -5  -2   0  621.48   33.90   2
   5   2   0  613.38   35.04   2
   5  -2   0  609.24   27.57   2
  -5  -2   0  633.68   29.41   2
   5   2   0  577.62   26.16   2
   5  -2   0   624.5   23.87   2
  -5  -2   1 1234.47   47.84   2
  -5  -2   1 1448.83   59.04   2
   5  -2   1 1482.84   32.21   2
   5  -2   1 1176.19   37.59   2
   5   2   1 1244.02   46.64   2
  -5  -2   1 1534.99   59.13   2
  -5   2   1 1218.31   40.40   2
   5  -2   1 1153.42   38.79   2
   5   2   1 1221.25   37.94   2
   5  -2   1 1231.43   33.16   2
  -5   2   2  290.55   20.63   2
  -5  -2   2  334.58   27.93   2
  -5  -2   2  280.29   24.58   2
   5  -2   2  257.53   15.90   2
   5   2   2  281.73   20.29   2
  -5  -2   2  298.81   24.11   2
   5  -2   2  313.55   21.91   2
   5  -2   2  257.99   13.20   2
   5   2   2   262.4   16.20   2
  -5   2   2  259.42   21.76   2
  -5  -2   3 1131.43   51.11   2
  -5   2   3 1057.48   43.38   2
   5   2   3  1097.7   39.23   2
   5  -2   3 1112.82   28.42   2
   5  -2   3 1075.75   37.37   2
   5  -2   3 1110.34   23.04   2
  -5  -2   3  1057.8   46.51   2
   5  -2   4  540.57   18.45   2
   5  -2   4  585.93   17.94   2
   5   2   4  566.48   27.12   2
   5  -2   4  542.32   20.68   2
  -5   2   4  537.84   32.92   2
  -5  -2   4  547.96   32.58   2
  -5   2   4  603.24   24.77   2
   5  -2   5  483.92   18.27   2
   5  -2   5  458.69   16.62   2
   5   2   5  493.89   25.51   2
   5  -2   5  451.79   16.80   2
  -5  -2   5  472.27   30.10   2
  -5   2   5  493.26   24.96   2
  -5   2   5  451.13   31.59   2
   5  -2   6  264.29   14.63   2
   5  -2   6  248.13   11.89   2
   5  -2   6  242.74   11.18   2
  -5  -2   6  271.88   23.15   2
  -5   2   6  231.07   24.16   2
  -5   2   6   257.5   19.46   2
   5  -2   7  472.81   21.98   2
  -5   2   7  520.77   38.24   2
  -5  -2   7  658.54   36.66   2
   5  -2   7  592.73   18.06   2
  -5   2   7  618.84   32.99   2
   5  -2   7     582   19.13   2
   5  -2   8     234   16.21   2
   5  -2   8  295.57   13.71   2
   5   2   8  301.31   10.54   2
  -5   2   8  233.64   26.74   2
  -5  -2   8  305.05   25.82   2
   5  -2   8  287.43   12.67   2
  -5   2   8  287.13   23.84   2
   5  -2   9  177.21   15.15   2
  -5  -2   9  265.12   25.22   2
  -5   2   9  200.96   26.20   2
  -5   2   9  240.02   23.54   2
   5   2   9  240.17    9.61   2
   5  -2  10   96.94   12.15   2
  -5   2  10  114.43   20.35   2
  -5  -2  10  140.44   18.87   2
  -5   2  10  130.75   18.18   2
   5  -2  11  219.02   19.21   2
  -5  -2  11  325.69   30.06   2
  -5   2  11  317.81   30.70   2
  -5   2  11  253.65   30.78   2
  -5   2  12  117.56   19.21   2
  -5   2  12  115.03   22.18   2
  -5  -2  12   128.4   20.01   2
   5  -2  12  116.04   15.21   2
  -5   2  13   75.37   16.47   2
   5  -2  13   92.03   14.30   2
  -5   2  13  101.81   22.99   2
  -5  -3 -12  176.61   17.88   2
   5  -3 -12   173.2   18.29   2
   5   3 -12  196.23   28.55   2
   5   3 -11  204.89   27.85   2
  -5  -3 -11  185.19   17.88   2
   5  -3 -11  201.34   19.12   2
   5   3 -10  191.99   25.90   2
  -5  -3 -10  205.63   17.98   2
   5  -3 -10  204.26   18.31   2
   5   3  -9  259.82   30.17   2
  -5  -3  -9  248.67   18.98   2
   5  -3  -9  261.09   19.97   2
  -5   3  -8  466.43   20.92   2
   5   3  -8  459.93   40.00   2
  -5  -3  -8  384.52   23.06   2
   5  -3  -8  408.86   24.20   2
   5   3  -7  616.02   46.00   2
  -5   3  -7  548.32   12.17   2
   5   3  -7  706.11   42.00   2
  -5  -3  -7  582.74   27.44   2
   5  -3  -7  648.55   29.17   2
   5   3  -6   471.4   39.31   2
  -5  -3  -6  429.93   24.10   2
   5  -3  -6  428.84   19.22   2
   5   3  -6  438.62   30.41   2
  -5  -3  -6  424.31   22.50   2
   5  -3  -6  447.93   23.34   2
  -5   3  -6  396.66   25.96   2
   5   3  -5   626.7   34.17   2
  -5   3  -5  557.89   28.84   2
   5  -3  -5  608.03   21.19   2
  -5  -3  -5  594.46   26.59   2
  -5  -3  -5  588.56   26.22   2
  -5  -3  -4  651.55   26.94   2
  -5   3  -4  706.83   30.06   2
   5  -3  -4  627.47   19.76   2
   5   3  -4  665.57   32.53   2
  -5  -3  -4  616.83   26.18   2
  -5  -3  -3  810.92   29.55   2
  -5   3  -3   822.5   32.11   2
   5   3  -3  980.31   54.31   2
  -5   3  -3   962.9   31.11   2
   5   3  -3  781.83   33.19   2
  -5  -3  -3  815.48   30.84   2
   5  -3  -3   819.2   20.59   2
  -5  -3  -2  594.64   24.85   2
  -5   3  -2  580.92   26.16   2
   5   3  -2  637.79   41.15   2
  -5  -3  -2   575.5   26.09   2
   5   3  -2  562.48   26.17   2
   5  -3  -2  610.09   14.89   2
   5  -3  -2  561.99   33.12   2
  -5   3  -1     699   29.04   2
  -5  -3  -1  692.11   26.66   2
   5  -3  -1  667.95   15.05   2
   5   3  -1  741.62   42.07   2
   5  -3  -1  682.83   33.52   2
  -5  -3  -1  707.85   29.64   2
   5   3  -1     712   28.25   2
   5  -3   0  528.62   10.27   2
  -5   3   0  744.49   30.96   2
   5   3   0  802.68   40.23   2
   5  -3   0  719.25   32.63   2
  -5  -3   0  725.25   31.35   2
  -5  -3   0  944.18   52.05   2
   5  -3   0  508.04   14.47   2
   5   3   0  713.78   27.53   2
  -5  -3   0  723.25   28.17   2
   5  -3   0  539.29   10.40   2
   5  -3   0  765.93   17.29   2
   5  -3   1  723.05   26.87   2
   5   3   1  685.92   34.90   2
  -5   3   1  699.62   31.23   2
  -5  -3   1  701.62   34.32   2
   5  -3   1  661.64   29.92   2
  -5   3   2  602.94   31.08   2
  -5  -3   2  710.94   45.06   2
   5  -3   2     630   14.31   2
   5   3   2   648.4   32.93   2
   5  -3   2  610.17   28.42   2
  -5  -3   2  629.98   36.92   2
   5  -3   2  652.78   25.26   2
  -5   3   3  931.17   41.60   2
  -5  -3   3  924.22   49.38   2
   5  -3   3  961.21   21.74   2
   5  -3   3   967.2   30.65   2
   5   3   3  936.17   38.90   2
   5  -3   4  658.77   24.42   2
   5  -3   4  692.29   20.06   2
   5   3   4  652.16   31.98   2
   5  -3   4  673.45   22.69   2
  -5   3   4  703.68   37.57   2
  -5  -3   4  661.13   40.75   2
  -5   3   5  645.54   38.44   2
   5  -3   5  615.22   23.63   2
   5   3   5  653.83   32.27   2
   5  -3   5   628.4   16.58   2
  -5  -3   5  683.04   40.95   2
   5  -3   5  645.61   21.63   2
  -5   3   6   434.9   32.94   2
   5  -3   6  448.76   19.62   2
   5  -3   6  447.47   11.40   2
  -5  -3   6  449.74   33.45   2
  -5   3   7  624.36   41.35   2
   5  -3   7  599.97   24.47   2
  -5  -3   7  634.26   40.57   2
   5   3   8   400.7   16.02   2
   5  -3   8  394.38   21.33   2
  -5  -3   8  425.57   32.83   2
  -5   3   8  368.99   32.85   2
  -5   3   9  220.89   26.47   2
   5  -3   9  231.38   17.51   2
   5   3   9  231.87   11.91   2
  -5  -3   9   233.4   25.07   2
   5  -3  10  188.98   17.14   2
  -5  -3  10  214.14   25.01   2
  -5   3  10     177   24.17   2
  -5   3  11  197.98   26.89   2
   5  -3  11  189.83   18.28   2
  -5  -3  11  208.18   25.60   2
   5  -3  12  162.28   17.67   2
  -5   3  12  136.59   23.53   2
   5  -3  13   62.16   11.51   2
   5   4 -12  281.55   40.35   2
   5   4 -11   97.35   22.10   2
   5   4 -10  279.15   37.13   2
  -5  -4 -10  257.78   21.29   2
   5  -4 -10  267.33   22.20   2
  -5  -4  -9  133.09   14.69   2
   5   4  -9  156.27   26.22   2
   5  -4  -9  161.35   16.70   2
  -5  -4  -8  524.18   28.66   2
   5  -4  -8  563.13   30.63   2
   5   4  -7  281.79   35.14   2
  -5  -4  -7  225.19   18.04   2
   5  -4  -7  238.11   18.58   2
  -5  -4  -6  482.62   26.28   2
   5  -4  -6  511.75   26.62   2
   5   4  -5  352.87   36.77   2
  -5   4  -5  369.13   25.73   2
  -5  -4  -5  301.77   20.15   2
   5   4  -5  301.23   18.70   2
   5  -4  -5  333.96   20.48   2
   5  -4  -5  324.42   16.60   2
   5  -4  -4  1217.1   31.76   2
   5   4  -4 1164.34   63.18   2
  -5  -4  -4 1152.15   39.97   2
   5   4  -4 1103.37   36.77   2
   5  -4  -3  446.79   16.62   2
   5  -4  -3  416.99   32.98   2
   5   4  -3   463.9   36.87   2
   5  -4  -3  435.51   20.69   2
  -5  -4  -3  430.59   23.66   2
   5  -4  -3  380.44   19.98   2
   5  -4  -2 1074.02   25.43   2
  -5   4  -2 1001.26   40.09   2
   5   4  -2 1093.53   55.33   2
   5  -4  -2  976.44   47.22   2
   5  -4  -2  942.17   29.17   2
  -5  -4  -2 1027.01   38.11   2
   5  -4  -2 1076.23   32.98   2
  -5   4  -1  528.22   28.66   2
   5  -4  -1  599.83   17.06   2
   5  -4  -1  558.01   17.90   2
   5  -4  -1  576.31   33.55   2
   5   4  -1  583.55   36.68   2
   5  -4  -1  557.95   19.99   2
  -5  -4  -1  600.97   29.10   2
  -5   4   0 1642.79   54.00   2
   5  -4   0 1743.45   58.81   2
   5  -4   0  1745.6   37.23   2
   5   4   0 1666.37   61.37   2
  -5  -4   0    1727   53.88   2
   5  -4   0 1758.18   40.13   2
   5  -4   0 1856.16   34.18   2
  -5   4   1  556.33   30.47   2
   5  -4   1  549.56   30.53   2
   5   4   1  546.81   32.49   2
  -5  -4   1  531.33   30.81   2
   5  -4   1  605.69   16.85   2
   5  -4   1  548.86   19.21   2
  -5   4   2 1004.54   43.26   2
  -5  -4   2 1119.87   62.72   2
   5   4   2  954.03   42.30   2
   5  -4   2 1071.16   24.18   2
   5  -4   2 1022.65   25.11   2
  -5  -4   3  413.31   36.47   2
  -5   4   3  459.57   30.21   2
  -5  -4   3  400.04   31.65   2
   5   4   3  455.53   28.31   2
   5  -4   3  496.06   16.67   2
   5  -4   3   452.3   14.17   2
   5  -4   4 1230.88   30.64   2
   5   4   4 1211.21   47.67   2
   5  -4   4 1230.44   28.82   2
   5  -4   4 1200.09   21.87   2
  -5   4   4 1233.62   52.84   2
  -5  -4   4 1158.07   61.01   2
  -5   4   5  313.46   27.31   2
   5  -4   5  324.74   15.82   2
   5   4   5  319.04   23.99   2
  -5  -4   5  315.17   31.01   2
  -5   4   6  550.61   37.84   2
  -5  -4   6  575.78   41.52   2
   5  -4   6  600.56   23.95   2
  -5   4   7  241.48   26.36   2
   5  -4   7  255.42   16.47   2
  -5  -4   7  243.84   27.52   2
  -5   4   8  575.17   41.54   2
   5  -4   8  575.97   27.00   2
  -5  -4   8  569.88   42.28   2
  -5   4   9   164.1   23.27   2
   5  -4   9   158.4   14.78   2
  -5  -4   9  171.42   22.84   2
   5  -4  10  344.51   23.34   2
  -5  -4  10  343.44   34.36   2
  -5   4  10  308.49   32.14   2
  -5   4  11  108.13   20.24   2
   5  -4  11  113.07   14.26   2
   5   5 -11   33.59   16.26   2
   5   5 -10  222.36   35.98   2
   5   5  -9    57.4   18.15   2
  -5  -5  -9   44.94    9.44   2
   5  -5  -9   47.81   10.18   2
   5   5  -8  562.99   52.43   2
  -5  -5  -8  478.67   29.55   2
   5  -5  -8  484.26   29.39   2
   5   5  -7   65.81   17.45   2
  -5  -5  -7   53.81    9.35   2
   5  -5  -7   50.92    9.33   2
   5   5  -6  474.53   42.97   2
  -5  -5  -6  497.14   28.90   2
   5  -5  -6  526.31   28.26   2
   5   5  -5   52.41   13.17   2
  -5  -5  -5   67.18    9.96   2
   5  -5  -5    63.3    9.62   2
   5   5  -4  809.42   51.21   2
  -5  -5  -4  862.39   37.70   2
   5  -5  -4  809.57   52.71   2
  -5  -5  -4  749.75   34.83   2
  -5  -5  -3   74.04   11.12   2
   5  -5  -3   80.58   15.61   2
   5   5  -3    82.8   15.25   2
  -5  -5  -3   70.44   10.76   2
   5  -5  -3   51.15    7.70   2
  -5   5  -2  605.32   34.82   2
   5  -5  -2  572.53   38.50   2
   5   5  -2  538.03   36.89   2
   5  -5  -2  520.04   22.10   2
  -5  -5  -2   440.8   26.69   2
   5  -5  -2  426.67   21.71   2
   5  -5  -1   77.29    7.40   2
   5  -5  -1    64.7   12.51   2
  -5   5  -1   83.39   12.56   2
   5  -5  -1   89.68    9.18   2
  -5  -5  -1  112.51   21.96   2
   5   5  -1   89.32   14.56   2
  -5  -5  -1   60.47   10.36   2
  -5   5   0  809.69   40.03   2
   5  -5   0  875.17   44.70   2
   5   5   0  782.95   41.51   2
   5  -5   0  875.11   27.75   2
   5  -5   0  832.41   24.61   2
  -5  -5   1   79.64   17.91   2
  -5   5   1   57.88   10.74   2
   5  -5   1   78.26   12.69   2
   5  -5   1   71.37    6.96   2
   5  -5   1   73.73    6.75   2
  -5  -5   1      59   10.96   2
   5   5   1   78.59   12.33   2
  -5   5   2  642.35   37.20   2
  -5  -5   2  710.79   54.59   2
   5  -5   2  629.06   35.84   2
  -5  -5   2  646.22   40.05   2
   5   5   2  625.77   35.68   2
   5  -5   2  678.26   22.22   2
   5  -5   2  632.44   19.91   2
  -5   5   3   94.69   13.99   2
  -5  -5   3   70.46   16.49   2
   5  -5   3   86.36    7.68   2
  -5  -5   3   93.92   16.45   2
   5   5   3   89.98   12.96   2
  -5   5   4  809.72   44.83   2
   5   5   4  815.08   41.40   2
  -5  -5   4  848.65   56.46   2
   5  -5   4  872.05   27.89   2
  -5   5   5   66.71   13.62   2
   5  -5   5   67.44    7.88   2
  -5  -5   5   52.16   14.47   2
   5   5   5   67.41   11.91   2
  -5   5   6  550.15   39.46   2
  -5  -5   6  565.58   44.72   2
  -5   5   7   73.41   15.18   2
  -5  -5   7   65.16   16.29   2
  -5   5   8  444.14   38.06   2
  -5  -5   8  469.01   41.63   2
  -5  -5   9    27.3    8.76   2
  -5   5   9   37.17   11.43   2
   5   6  -8  224.67   31.15   2
   5   6  -7   10.76    6.75   2
   5  -6  -7   12.79    5.59   2
   5   6  -6  259.51   30.76   2
  -5  -6  -6  251.54   22.38   2
   5  -6  -6  256.55   21.28   2
   5   6  -5    7.13    6.59   2
  -5  -6  -5   13.84    5.57   2
   5  -6  -5   11.78    4.78   2
   5  -6  -4  402.19   40.50   2
   5   6  -4  360.42   32.24   2
  -5  -6  -4  417.94   28.26   2
   5  -6  -4  427.47   25.34   2
   5  -6  -3    6.73    5.28   2
   5   6  -3   10.96    6.73   2
  -5  -6  -3    6.84    3.62   2
   5  -6  -3   14.05    5.00   2
   5  -6  -2  521.67   41.07   2
   5   6  -2   461.4   34.10   2
  -5  -6  -2  524.58   48.41   2
  -5  -6  -2  458.82   30.22   2
   5  -6  -2   501.6   24.88   2
  -5   6  -1    9.23    6.53   2
   5  -6  -1   10.02    6.97   2
  -5  -6  -1    9.91    5.51   2
   5   6  -1    1.21    4.00   2
   5  -6  -1    3.88    2.78   2
  -5   6   0  548.33   36.73   2
   5  -6   0   572.9   40.03   2
   5   6   0  558.08   35.28   2
  -5  -6   0  587.86   35.53   2
  -5   6   1    4.69    2.86   2
   5  -6   1   -2.28    4.04   2
  -5  -6   1   -3.37    3.56   2
   5   6   1    6.68    5.11   2
  -5  -6   1    8.29    6.47   2
  -5  -6   2  508.41   48.46   2
  -5   6   2  457.21   34.05   2
   5  -6   2  489.68   34.91   2
  -5  -6   2  529.64   38.87   2
   5   6   2  465.88   32.11   2
  -5  -6   3   -4.25    9.04   2
  -5   6   3    8.18    4.67   2
   5  -6   3    5.65    5.97   2
   5   6   3     5.8    4.81   2
  -5   6   4  400.04   33.28   2
   5   6   4  426.16   31.45   2
  -5  -6   4  485.76   44.93   2
  -5   6   5   16.34    7.04   2
  -5  -6   5   28.03   10.29   2
  -5   6   6  260.26   28.43   2
  -5  -6   6  248.92   32.23   2
   5   7  -5   12.42    6.19   2
   5  -7  -5   20.35    6.46   2
  -5  -7  -4  114.97   17.15   2
   5   7  -4  102.52   16.81   2
  -5  -7  -3    7.21    4.62   2
   5   7  -3   11.96    4.80   2
  -5  -7  -2  103.32   15.19   2
   5   7  -2   73.93   13.53   2
   5   7  -1    3.95    3.04   2
   5   7   0  118.21   17.03   2
   5   7   1    3.49    4.78   2
   5   7   2  119.62   17.29   2
   5   7   3   30.36    9.14   2
   6   0 -14  223.92   20.22   2
  -6   0 -13    0.01    2.31   2
   6   0 -13   -1.25    3.37   2
  -6   0 -12  473.04   26.29   2
   6   0 -12  508.65   28.31   2
   6   0 -12  532.21   35.26   2
   6   0 -11   -0.39    3.65   2
  -6   0 -11   -3.16    2.86   2
   6   0 -10  638.81   35.32   2
  -6   0 -10  590.04   27.66   2
   6   0  -9    1.04    3.13   2
  -6   0  -9   -4.57    3.90   2
  -6   0  -8 1239.28   38.87   2
   6   0  -8 1240.88   46.56   2
   6   0  -7    0.72    1.97   2
  -6   0  -7    6.92    3.68   2
  -6   0  -6 1268.11   45.37   2
  -6   0  -6 1163.49   33.03   2
  -6   0  -6 1175.52   37.24   2
   6   0  -6 1183.84   42.35   2
   6   0  -5    0.34    1.14   2
   6   0  -5   -0.24    1.90   2
  -6   0  -5    1.97    2.77   2
  -6   0  -5    0.57    1.71   2
  -6   0  -5    2.95    3.18   2
   6   0  -4 2406.59   60.90   2
  -6   0  -4 2534.23   59.95   2
   6   0  -4 2459.83   54.04   2
  -6   0  -4 2358.35   50.72   2
  -6   0  -4 2311.42   56.89   2
  -6   0  -3    0.55    0.32   2
   6   0  -3   -0.77    0.95   2
  -6   0  -3    0.69    1.90   2
   6   0  -3    1.73    1.55   2
  -6   0  -3    2.28    1.87   2
  -6   0  -3    3.12    2.17   2
   6   0  -2 2188.75   59.93   2
  -6   0  -2 2057.84   52.24   2
   6   0  -2 2292.37   65.12   2
  -6   0  -2 2159.65   60.72   2
   6   0  -2 2062.28   48.44   2
  -6   0  -2 2178.26   41.16   2
  -6   0  -1    2.71    2.05   2
  -6   0  -1    1.15    1.52   2
   6   0  -1   -1.25    2.09   2
  -6   0  -1   -0.64    2.55   2
   6   0  -1   -2.21    2.39   2
  -6   0   0 4798.58   98.30   2
  -6   0   0 4757.68   91.70   2
  -6   0   0 4714.38   87.17   2
  -6   0   1   -0.01    2.27   2
  -6   0   1    0.26    3.01   2
  -6   0   1    3.29    3.32   2
   6   0   1    -7.2    4.46   2
   6   0   1    4.98    4.69   2
   6   0   2 2227.35   57.42   2
   6   0   2 2312.08   63.88   2
  -6   0   2 2204.06   52.28   2
  -6   0   2 2181.78   59.75   2
   6   0   3    1.87    2.20   2
  -6   0   3    1.38    2.45   2
   6   0   3    2.89    2.20   2
   6   0   3     0.2    1.92   2
   6   0   4 2357.98   44.35   2
   6   0   4  2356.3   52.62   2
   6   0   4 2478.06   58.42   2
  -6   0   4 2321.53   56.97   2
   6   0   5   -1.07    1.52   2
  -6   0   5    1.75    2.84   2
   6   0   5     1.7    2.35   2
   6   0   5    0.98    2.48   2
  -6   0   6 1314.42   46.20   2
  -6   0   7    2.57    2.47   2
  -6   0   8 1397.23   53.64   2
  -6   0   9   -4.06    4.27   2
  -6   0  10   832.6   46.41   2
  -6   0  11    2.14    5.37   2
  -6   0  12  531.23   40.59   2
  -6   0  13   -6.23    4.00   2
  -6  -1 -14  129.06   15.21   2
   6   1 -14  142.71   15.08   2
  -6  -1 -13   10.22    3.93   2
   6   1 -13    6.54    3.46   2
  -6  -1 -12   337.3   23.13   2
   6  -1 -12  368.14   25.26   2
   6   1 -12  331.13   21.80   2
   6  -1 -12  379.58   28.60   2
   6   1 -12  378.17   31.89   2
   6  -1 -11   45.03    9.83   2
   6   1 -11   54.65   11.36   2
  -6   1 -11   50.16    8.21   2
  -6  -1 -11   43.39    8.20   2
   6  -1 -11   39.44    8.05   2
   6   1 -10  472.59   33.16   2
  -6   1 -10  448.67   23.76   2
  -6  -1 -10   430.7   24.01   2
   6  -1 -10  486.82   29.49   2
   6  -1  -9   72.73   10.87   2
   6   1  -9   51.89   10.77   2
  -6   1  -9   54.73    8.15   2
  -6  -1  -9    41.8    7.05   2
  -6   1  -8  959.53   34.16   2
  -6   1  -8  909.53   27.74   2
  -6  -1  -8  937.81   34.33   2
   6   1  -8 1016.58   45.93   2
   6  -1  -8  990.13   38.39   2
   6   1  -7  178.29   18.34   2
  -6   1  -7  170.56   10.65   2
  -6   1  -7   174.1   13.87   2
  -6  -1  -7  161.76   13.49   2
   6  -1  -7  188.07   15.73   2
   6   1  -6 1021.46   43.60   2
  -6   1  -6 1055.34   39.40   2
  -6   1  -6  968.69   34.92   2
  -6  -1  -6  930.61   33.04   2
   6  -1  -6 1009.94   31.71   2
  -6   1  -6 1000.09   27.07   2
   6  -1  -6  997.29   35.66   2
   6   1  -5   160.5   16.61   2
  -6   1  -5  140.91    9.29   2
  -6   1  -5  146.79   12.85   2
  -6   1  -5  136.72   13.02   2
  -6  -1  -5  143.48   12.41   2
   6  -1  -5  154.64   10.95   2
   6  -1  -5  146.19   12.59   2
   6   1  -4 1722.43   58.47   2
  -6   1  -4 1562.23   36.52   2
  -6  -1  -4 1755.32   46.28   2
  -6   1  -4 1799.25   45.11   2
   6   1  -4 1726.39   49.39   2
   6   1  -4 1781.44   61.82   2
  -6   1  -4  1612.8   50.81   2
  -6  -1  -4 1670.69   46.41   2
   6  -1  -4 1806.88   38.98   2
   6  -1  -4  1743.6   45.74   2
   6  -1  -3  250.57   15.58   2
   6  -1  -3  254.47   12.13   2
  -6   1  -3  239.24   11.18   2
   6   1  -3   232.6   21.06   2
  -6  -1  -3  163.82    7.07   2
  -6   1  -3  197.12   12.48   2
  -6  -1  -3  233.01   15.79   2
  -6   1  -3  261.82   13.73   2
  -6   1  -3  245.77   19.05   2
   6   1  -3  288.96   24.68   2
   6   1  -3  238.14   17.34   2
  -6  -1  -3  254.21   17.01   2
  -6   1  -2 1149.65   27.25   2
   6  -1  -2 1074.38   34.18   2
  -6   1  -2 1111.69   29.27   2
  -6   1  -2    1290   36.73   2
   6   1  -2 1244.86   50.47   2
  -6  -1  -2 1097.06   38.42   2
  -6  -1  -2 1226.21   29.71   2
   6  -1  -2 1053.98   26.02   2
  -6  -1  -2 1049.99   38.28   2
  -6   1  -1  228.05   14.87   2
  -6   1  -1  192.46   12.67   2
   6  -1  -1  193.12   14.28   2
  -6  -1  -1  187.32   16.78   2
   6   1  -1  252.35   22.52   2
   6  -1  -1  174.43   15.17   2
  -6  -1  -1  190.03   16.67   2
   6   1  -1  236.41   22.24   2
  -6   1  -1  218.66   10.35   2
  -6   1  -1  207.33    9.04   2
  -6  -1   0 1912.32   61.81   2
   6  -1   0 1837.65   50.06   2
  -6  -1   0 1603.33   56.21   2
   6   1   0  1853.6   63.03   2
  -6   1   0 1698.99   51.88   2
   6  -1   0  1700.5   55.80   2
  -6  -1   0 2119.35   60.63   2
   6   1   0 1632.02   57.52   2
  -6   1   0  1526.8   29.22   2
  -6   1   0 1549.67   41.55   2
  -6   1   0 1635.24   45.66   2
  -6  -1   1  242.74   21.68   2
   6  -1   1  223.36   16.03   2
  -6  -1   1  234.34   19.41   2
   6   1   1  203.24   18.89   2
  -6   1   1  225.43   19.14   2
   6  -1   1  181.05   14.18   2
   6  -1   1  265.39   22.04   2
   6   1   1  202.77   17.76   2
  -6   1   1  185.86    8.57   2
  -6   1   1  172.78   15.50   2
  -6  -1   2 1276.35   46.45   2
  -6  -1   2 1444.88   54.60   2
  -6   1   2 1178.64   44.61   2
   6  -1   2 1112.58   34.32   2
  -6   1   2  1542.3   53.73   2
   6  -1   2  1242.7   34.85   2
   6   1   2 1182.83   43.94   2
  -6   1   2 1168.05   28.30   2
   6  -1   2 1358.22   50.09   2
   6   1   2 1210.74   41.85   2
   6  -1   3   266.1   15.02   2
  -6   1   3  337.47   25.05   2
  -6   1   3  290.25   14.59   2
   6   1   3  288.44   19.45   2
   6  -1   3  281.28   13.18   2
   6  -1   3  262.04   19.35   2
   6   1   3  270.05   18.34   2
  -6  -1   3   273.4   20.50   2
  -6   1   3  268.27   21.77   2
  -6  -1   3  252.95   21.48   2
   6  -1   4 1724.34   40.90   2
  -6   1   4 1736.66   44.58   2
   6   1   4 1846.34   50.73   2
   6  -1   4 1794.87   36.91   2
   6  -1   4 1782.51   48.17   2
  -6  -1   4 1820.33   56.62   2
  -6   1   5  143.25   13.03   2
   6   1   5  157.35   13.93   2
   6  -1   5  141.31   11.63   2
  -6  -1   5  152.93   16.31   2
   6  -1   5  135.57    6.48   2
  -6   1   6 1139.08   41.75   2
   6  -1   6 1136.19   33.86   2
  -6  -1   6  1117.9   45.22   2
   6  -1   6 1086.25   20.37   2
   6  -1   7  168.89    6.47   2
  -6   1   7  181.37   17.24   2
  -6  -1   7  185.45   19.12   2
   6  -1   7  178.37   12.40   2
   6  -1   8  914.15   17.37   2
  -6   1   8  989.43   44.10   2
  -6  -1   8  951.57   45.49   2
   6  -1   8  902.23   29.43   2
  -6   1   9   63.09   11.64   2
  -6  -1   9   44.43   10.85   2
  -6   1  10  481.42   35.16   2
  -6  -1  10  480.92   35.77   2
  -6   1  11   58.66   13.25   2
  -6  -1  11   33.59    9.34   2
  -6   1  12  363.28   33.85   2
  -6  -1  12  331.67   32.88   2
  -6   1  12  322.56   37.70   2
  -6   1  13   23.82   12.01   2
  -6   1  13   15.16    7.42   2
  -6  -1  13   28.77   10.81   2
  -6  -2 -13   53.27   10.17   2
   6   2 -12  213.62   26.17   2
  -6  -2 -12  205.26   18.79   2
   6  -2 -12  203.54   19.32   2
  -6  -2 -11  124.41   14.12   2
   6   2 -11  136.56   20.34   2
   6  -2 -11  132.71   15.26   2
   6   2 -10  264.02   27.01   2
  -6  -2 -10  238.08   18.73   2
   6  -2 -10  224.16   19.06   2
  -6   2  -9  115.64   12.05   2
  -6  -2  -9  106.79   12.07   2
   6   2  -9  117.53   17.66   2
   6   2  -8  510.63   36.28   2
  -6   2  -8  501.27   26.12   2
  -6  -2  -8  465.85   24.58   2
   6   2  -7  196.16   21.84   2
  -6   2  -7  178.36    9.43   2
  -6   2  -7  174.02   15.22   2
  -6  -2  -7   169.5   14.11   2
  -6   2  -7  190.74   17.45   2
   6   2  -6  474.51   34.59   2
  -6   2  -6  418.64   14.07   2
  -6   2  -6  522.28   26.49   2
  -6  -2  -6  434.27   22.68   2
  -6   2  -6  433.15   24.51   2
   6  -2  -6  455.12   19.44   2
  -6   2  -5  205.87    9.42   2
  -6  -2  -5  213.16   11.30   2
   6   2  -5   218.5   23.34   2
  -6  -2  -5   223.2   16.03   2
  -6   2  -5  241.05   16.10   2
   6  -2  -5  232.91   12.48   2
   6  -2  -5  235.37   15.36   2
  -6  -2  -4  829.03   24.20   2
   6   2  -4  961.14   50.22   2
  -6  -2  -4  906.56   33.30   2
  -6   2  -4  888.67   28.77   2
   6  -2  -4  906.44   23.88   2
   6  -2  -4  896.07   29.69   2
  -6   2  -3  445.04   19.88   2
   6   2  -3  502.96   35.97   2
   6   2  -3  528.19   34.61   2
  -6  -2  -3  446.28   23.20   2
  -6   2  -3  432.86   15.95   2
   6  -2  -3  465.17   14.05   2
   6  -2  -3  467.76   19.62   2
   6  -2  -2  591.91   14.07   2
  -6   2  -2  730.52   26.73   2
  -6  -2  -2  734.68   23.81   2
   6   2  -2  930.91   49.47   2
  -6  -2  -2  748.87   31.50   2
   6   2  -2  809.99   40.77   2
   6  -2  -2  806.49   25.48   2
   6  -2  -1  596.92   21.48   2
  -6   2  -1  560.07   24.55   2
   6   2  -1  658.08   40.29   2
   6  -2  -1  538.65   29.97   2
  -6  -2  -1  566.82   28.60   2
   6   2  -1  572.29   32.08   2
  -6   2   0 1217.65   39.83   2
   6  -2   0 1289.36   34.80   2
   6   2   0 1215.19   54.03   2
   6  -2   0 1232.06   43.20   2
  -6  -2   0 1241.45   47.40   2
   6   2   0 1214.59   44.58   2
  -6   2   1   506.8   27.12   2
   6  -2   1   531.1   22.11   2
   6  -2   1  520.77   25.62   2
   6   2   1  507.97   32.07   2
  -6  -2   1  620.21   37.54   2
   6  -2   1  527.23   29.46   2
  -6  -2   1     477   31.41   2
  -6   2   2  782.12   36.41   2
  -6  -2   2  940.03   46.89   2
   6  -2   2  815.89   26.28   2
   6  -2   2  789.08   30.76   2
   6   2   2   805.7   38.01   2
   6  -2   2   810.6   18.28   2
  -6  -2   2   959.4   45.32   2
   6  -2   2 1033.55   43.27   2
   6  -2   3  423.92   21.13   2
   6   2   3   426.9   26.08   2
   6  -2   3  442.74   26.07   2
  -6  -2   3  428.46   30.08   2
   6  -2   3  407.63   17.06   2
  -6   2   3   399.3   27.77   2
   6   2   4  957.89   39.09   2
   6  -2   4  945.05   33.48   2
   6  -2   4  922.76   25.46   2
  -6  -2   4  911.39   45.04   2
  -6   2   4  977.68   32.06   2
  -6   2   4  874.92   44.18   2
   6  -2   5  209.39   10.99   2
   6   2   5  213.87   17.99   2
   6  -2   5  215.67   13.63   2
  -6  -2   5  191.31   20.03   2
   6  -2   5  223.06   12.03   2
  -6   2   5  173.78   20.72   2
  -6   2   5   221.7   16.55   2
  -6   2   6  512.52   28.04   2
   6  -2   6  495.03   17.12   2
   6   2   6  550.73   29.35   2
   6  -2   6  484.96   19.52   2
  -6  -2   6  544.29   34.76   2
   6  -2   6  533.74   20.95   2
  -6   2   6  440.58   33.83   2
  -6   2   7  199.45   18.62   2
   6  -2   7  197.14   10.40   2
  -6  -2   7  202.91   21.34   2
   6  -2   7  193.42   11.39   2
   6  -2   7  144.98   11.73   2
  -6   2   7  164.27   21.19   2
  -6   2   8  546.86   33.80   2
  -6  -2   8  543.42   36.10   2
   6  -2   8  406.19   21.50   2
  -6   2   8  394.89   35.28   2
  -6   2   9  100.25   18.60   2
  -6  -2   9  130.26   18.82   2
   6  -2   9  124.95   12.44   2
  -6   2   9  155.86   19.23   2
  -6  -2  10  308.05   29.27   2
   6  -2  10  194.55   16.84   2
  -6   2  10  217.59   28.65   2
  -6   2  10   279.9   27.26   2
  -6   2  11   99.45   19.83   2
  -6  -2  11  150.02   21.34   2
  -6   2  11  132.04   19.91   2
   6  -2  11  118.15   13.98   2
  -6   2  12  204.28   29.38   2
  -6  -2  12  245.14   28.67   2
   6  -2  12  205.06   19.71   2
  -6   2  12   229.8   28.08   2
  -6   2  13   63.52   15.81   2
   6   3 -12   97.34   19.20   2
   6   3 -11   82.63   17.46   2
  -6  -3 -11      75   11.79   2
   6  -3 -11   73.27   11.99   2
  -6  -3 -10  102.07   13.12   2
   6   3 -10   84.75   17.81   2
   6  -3 -10   106.7   13.81   2
  -6  -3  -9   90.61   11.66   2
   6   3  -9   94.44   18.32   2
   6  -3  -9  106.09   13.26   2
  -6  -3  -8  112.51   12.83   2
   6   3  -8  127.38   20.96   2
   6  -3  -8  108.56   12.81   2
   6   3  -7  260.31   29.84   2
  -6  -3  -7  244.76   18.09   2
   6  -3  -7  256.67   19.18   2
   6   3  -6  161.37   23.26   2
  -6  -3  -6  124.47   12.77   2
   6  -3  -6  129.06    9.94   2
  -6   3  -6  117.66   13.50   2
  -6  -3  -6   126.3   12.11   2
  -6  -3  -5  261.55   17.14   2
  -6   3  -5  267.57   18.42   2
   6   3  -5  314.54   31.52   2
  -6  -3  -5  256.36   18.04   2
   6  -3  -5   243.2   12.46   2
  -6  -3  -4  122.81   11.44   2
   6   3  -4  184.06   23.97   2
  -6   3  -4  161.28   12.36   2
  -6  -3  -4  127.88   12.79   2
   6  -3  -4  112.81    7.53   2
  -6  -3  -3  322.81   18.53   2
  -6   3  -3  331.28   20.41   2
  -6  -3  -3  344.82   21.30   2
   6  -3  -3  341.32   11.13   2
  -6   3  -2  126.54   12.51   2
  -6  -3  -2  119.49   11.11   2
   6  -3  -2  150.05   17.82   2
  -6  -3  -2  121.34   13.02   2
   6  -3  -2  133.91    5.08   2
   6   3  -2  130.76   19.62   2
   6  -3  -2  135.27    9.64   2
  -6   3  -1  271.48   18.73   2
  -6  -3  -1  261.13   17.04   2
   6  -3  -1  262.31   21.70   2
  -6  -3  -1  281.42   20.47   2
   6   3  -1  264.13   26.49   2
   6  -3  -1  300.19   13.44   2
   6  -3   0  129.31    8.15   2
  -6   3   0  132.35   13.81   2
   6  -3   0     120   13.75   2
   6   3   0  141.21   18.28   2
  -6  -3   0   137.1   15.28   2
  -6  -3   0   170.3   22.04   2
  -6   3   1  290.86   21.33   2
   6  -3   1  279.62   20.55   2
   6   3   1  302.66   25.13   2
  -6  -3   1  287.43   24.02   2
  -6   3   2  116.78   14.44   2
   6  -3   2  106.34   11.88   2
   6   3   2  111.49   15.10   2
   6  -3   2  120.46   14.18   2
  -6  -3   2  105.18   15.49   2
  -6  -3   2  157.15   21.41   2
   6  -3   3  397.79   19.31   2
  -6  -3   3  413.15   33.72   2
  -6   3   3  388.88   27.77   2
   6  -3   3  371.05   22.37   2
   6   3   3   391.2   26.71   2
   6  -3   3  473.55   27.70   2
   6  -3   3  390.18   11.35   2
   6  -3   4  116.84   10.10   2
  -6  -3   4   95.22   16.23   2
   6  -3   4  110.94    7.19   2
  -6   3   4  119.44   16.59   2
   6   3   4  126.22   15.10   2
   6  -3   4  103.75   10.47   2
  -6   3   5   243.3   24.75   2
   6  -3   5  239.18   14.22   2
   6   3   5  246.64   20.96   2
   6  -3   5  251.84   13.15   2
   6  -3   5  254.04   12.52   2
  -6  -3   5  238.85   25.58   2
   6  -3   6  113.42    9.72   2
   6  -3   6  115.43    9.36   2
  -6   3   6   102.4   16.31   2
   6   3   6  112.25   14.41   2
  -6  -3   6  112.91   17.76   2
   6  -3   7  246.34   15.03   2
  -6   3   7  223.98   25.37   2
  -6  -3   7  253.13   26.51   2
  -6   3   8   93.14   17.21   2
  -6  -3   8  107.98   17.15   2
   6  -3   8  122.44   11.30   2
   6  -3   9   86.99   10.56   2
  -6   3   9    78.3   16.20   2
  -6  -3   9  103.37   17.85   2
   6  -3  10   97.91   11.77   2
  -6  -3  10   95.65   17.03   2
  -6   3  10   65.04   15.76   2
  -6  -3  11   73.45   16.28   2
  -6   3  11   49.02   13.01   2
   6  -3  11   59.23    9.94   2
   6  -3  12   74.31   11.78   2
   6  -3  13    41.1    9.13   2
   6   4 -11   17.71    7.21   2
   6   4 -10   81.93   21.93   2
  -6  -4 -10   70.04   11.51   2
   6  -4 -10   80.76   12.66   2
   6   4  -9   22.66   12.30   2
  -6  -4  -9   24.59    6.93   2
   6  -4  -9   22.79    6.89   2
   6   4  -8   66.46   17.15   2
  -6  -4  -8   55.57    9.46   2
   6  -4  -8   49.33    9.27   2
   6   4  -7   34.44   13.15   2
  -6  -4  -7   17.15    5.78   2
   6  -4  -7   23.17    6.18   2
   6   4  -6   49.15   13.96   2
  -6  -4  -6   42.13    7.98   2
   6  -4  -6   45.84    7.65   2
   6   4  -5   31.06   11.35   2
  -6  -4  -5   17.73    4.74   2
   6  -4  -5   25.53    5.92   2
  -6  -4  -4   15.75    3.19   2
   6   4  -4    15.6    7.62   2
  -6  -4  -4   14.39    4.69   2
   6  -4  -4    7.37    3.37   2
  -6   4  -3   51.32    9.45   2
   6  -4  -3    50.1   11.49   2
   6   4  -3   45.25   12.96   2
  -6  -4  -3   54.27    9.22   2
  -6   4  -2    6.88    3.34   2
   6  -4  -2    9.53    4.96   2
   6  -4  -2    6.76    1.61   2
   6   4  -2    3.25    3.56   2
  -6  -4  -2    6.61    4.33   2
   6  -4  -2   13.65    2.05   2
   6  -4  -2    9.89    2.98   2
  -6   4  -1   70.31   10.41   2
   6  -4  -1   61.09    3.39   2
   6  -4  -1   56.64   11.11   2
   6  -4  -1   62.63    6.39   2
   6   4  -1   70.77   14.25   2
  -6  -4  -1   65.29   10.56   2
   6  -4  -1   71.62    3.94   2
   6  -4  -1   72.15    6.54   2
  -6   4   0    4.63    4.24   2
   6  -4   0     0.4    2.52   2
  -6  -4   0    -4.5    4.09   2
   6  -4   0    1.85    1.18   2
  -6  -4   0     2.9    3.93   2
   6   4   0   -0.32    3.95   2
   6  -4   0    2.26    1.55   2
  -6   4   1   63.75   11.51   2
   6  -4   1   60.92   10.42   2
  -6  -4   1   66.09   16.10   2
  -6  -4   1   50.25    9.91   2
   6   4   1   64.68   12.90   2
  -6   4   2    4.75    4.40   2
   6  -4   2    4.38    2.69   2
   6  -4   2    4.91    3.46   2
  -6  -4   2    8.54    5.18   2
  -6  -4   2   18.68   10.58   2
   6  -4   2   10.25    1.66   2
   6   4   2   -2.87    4.75   2
  -6   4   3    38.6    9.82   2
   6  -4   3   36.59    3.74   2
   6  -4   3   42.47    9.01   2
  -6  -4   3   42.72   11.99   2
  -6  -4   3   30.89    9.22   2
   6  -4   3   67.17   10.53   2
   6   4   3   45.23    9.95   2
  -6  -4   4   31.03    9.29   2
   6  -4   4   32.25    4.20   2
  -6   4   4   28.61    8.89   2
   6   4   4   23.79    6.89   2
  -6   4   5   21.33    7.90   2
   6  -4   5   20.58    3.85   2
  -6  -4   5   20.08    8.21   2
   6   4   5   16.21    5.80   2
   6  -4   6   55.42    6.69   2
  -6   4   6   47.41   11.68   2
  -6  -4   6   46.45   12.69   2
   6   4   6   51.81   11.22   2
  -6   4   7   27.79    9.46   2
   6  -4   7   27.31    5.12   2
  -6   4   8    51.3   12.44   2
  -6  -4   8   68.44   14.49   2
   6  -4   8   59.77    8.16   2
  -6   4   9   15.82    7.82   2
  -6  -4   9   23.65   10.34   2
  -6   4  10   78.32   17.03   2
  -6  -4  10   64.48   15.96   2
   6   5 -10   51.51   16.89   2
   6   5  -9   33.21   15.37   2
   6   5  -8   29.04   13.93   2
  -6  -5  -8   26.41    7.16   2
   6  -5  -8   42.18    9.26   2
  -6  -5  -7    8.03    4.66   2
   6  -5  -7   15.67    5.60   2
   6   5  -6   65.76   16.88   2
  -6  -5  -6   54.83    9.67   2
   6  -5  -6   59.17    9.92   2
   6   5  -5    9.49    9.02   2
  -6  -5  -5    5.83    3.82   2
   6  -5  -5   13.99    4.66   2
   6   5  -4   49.86   13.24   2
  -6  -5  -4   40.75    8.31   2
   6  -5  -4   42.13    7.63   2
   6  -5  -3    8.66    7.47   2
   6   5  -3   14.02    7.56   2
  -6  -5  -3    8.14    5.01   2
   6  -5  -3    1.98    2.25   2
  -6   5  -2   10.62    5.70   2
   6  -5  -2   13.11    6.47   2
   6   5  -2   20.71    8.07   2
  -6  -5  -2   14.99    5.86   2
   6  -5  -2   14.14    3.95   2
  -6   5  -1   11.16    6.10   2
   6  -5  -1   10.05    5.81   2
  -6  -5  -1   12.08    5.01   2
   6   5  -1   11.13    6.53   2
  -6  -5  -1   14.08    9.80   2
   6  -5  -1   11.08    3.61   2
  -6   5   0    4.59    4.39   2
   6  -5   0   -1.87    2.35   2
  -6  -5   0    3.07    3.75   2
   6   5   0   11.29    6.07   2
   6  -5   0    1.57    1.84   2
  -6  -5   1    7.18    4.87   2
  -6   5   1    5.49    4.25   2
   6  -5   1    10.8    5.99   2
  -6  -5   1    1.62    2.73   2
   6   5   1    0.42    3.95   2
   6  -5   1    4.31    2.03   2
  -6   5   2    6.56    3.32   2
   6  -5   2   13.43    5.57   2
  -6  -5   2   12.27    6.56   2
   6   5   2   11.78    5.15   2
  -6   5   3    7.81    4.89   2
   6  -5   3   16.12    5.85   2
  -6  -5   3   13.59    6.70   2
  -6  -5   3    7.64    5.18   2
   6   5   3   15.66    6.65   2
  -6  -5   4   32.61   11.81   2
  -6   5   4   40.79   10.97   2
   6   5   4   48.65   11.62   2
  -6   5   5    9.62    7.00   2
   6   5   5   12.92    6.60   2
  -6  -5   5   10.64    7.77   2
  -6   5   6   41.28   12.29   2
  -6  -5   6   52.68   14.46   2
  -6   5   7   13.22    7.90   2
  -6  -5   7   20.08   10.02   2
  -6   5   8   10.44    8.09   2
  -6  -5   8   35.18   11.83   2
   6   6  -8   28.03   11.14   2
   6   6  -7   49.36   15.01   2
   6  -6  -7    57.1   10.96   2
   6   6  -6    5.85    6.57   2
  -6  -6  -6   15.44    6.13   2
   6  -6  -6    5.32    4.17   2
   6  -6  -5   82.84   12.15   2
   6   6  -5   73.73   16.58   2
  -6  -6  -5   76.32   12.30   2
   6   6  -4   -5.99    5.60   2
  -6  -6  -4    7.18    6.18   2
   6  -6  -4    1.45    2.95   2
   6  -6  -3  117.93   20.66   2
  -6  -6  -3  123.83   16.76   2
   6  -6  -3  120.09   13.11   2
   6   6  -3  119.35   19.37   2
   6  -6  -2     5.1    6.77   2
  -6  -6  -2    -6.4    3.31   2
  -6  -6  -2    -3.2    6.54   2
   6   6  -2    6.35    6.08   2
   6  -6  -2    2.98    3.21   2
  -6   6  -1   145.7   20.18   2
   6  -6  -1  128.53   19.51   2
  -6  -6  -1  145.07   18.25   2
   6   6  -1   117.4   17.57   2
  -6  -6  -1  162.29   26.79   2
  -6   6   0    9.15    6.40   2
   6  -6   0    4.72    4.59   2
  -6  -6   0    6.25    6.53   2
  -6  -6   0   -3.75    5.82   2
   6   6   0   -6.72    6.31   2
  -6   6   1  112.66   17.59   2
   6  -6   1  112.31   17.33   2
   6   6   1  125.95   17.95   2
  -6  -6   1  113.98   17.46   2
  -6   6   2    1.62    2.62   2
   6  -6   2    1.03    2.76   2
  -6  -6   2     5.9    6.25   2
  -6  -6   2    5.99    4.55   2
   6   6   2    4.08    4.25   2
  -6   6   3  120.82   18.39   2
   6  -6   3  107.41   16.61   2
  -6  -6   3   124.4   23.98   2
   6   6   3  127.88   17.89   2
  -6  -6   4   -4.08    4.24   2
  -6   6   4   -0.69    4.48   2
   6  -6   4    8.72    5.29   2
   6   6   4    6.03    5.25   2
  -6   6   5   57.55   13.85   2
  -6  -6   5   75.34   19.56   2
   6   7  -4   21.81   10.04   2
  -6  -7  -3  136.46   18.85   2
   6   7  -3   123.3   18.61   2
  -6  -7  -2   10.67    7.65   2
   6   7  -2     5.1    4.85   2
   6   7  -1  106.41   17.70   2
   6   7   0    5.56    5.10   2
  -7   0 -13    5.42    3.40   2
   7   0 -13   -2.47    3.65   2
  -7   0 -12   107.3   13.39   2
   7   0 -12  120.29   17.95   2
   7   0 -11   14.01    7.18   2
  -7   0 -11    8.09    4.36   2
  -7   0 -10  128.74   13.73   2
   7   0 -10   145.6   17.44   2
   7   0  -9    0.86    3.58   2
  -7   0  -9    8.23    4.14   2
   7   0  -8  173.02   17.70   2
  -7   0  -8  143.06   13.85   2
   7   0  -7    -1.3    2.64   2
  -7   0  -7    6.57    3.82   2
  -7   0  -6   57.42    7.35   2
  -7   0  -6   68.42    9.60   2
   7   0  -6   69.87   11.02   2
  -7   0  -5   -0.49    1.75   2
   7   0  -5    2.15    1.35   2
  -7   0  -5    0.47    1.86   2
  -7   0  -5    3.32    1.99   2
   7   0  -4   39.06    6.24   2
  -7   0  -4    37.9    7.09   2
   7   0  -4   41.69    7.70   2
  -7   0  -4   34.73    5.87   2
  -7   0  -4   29.63    6.85   2
  -7   0  -3    1.87    1.06   2
   7   0  -3    0.49    1.55   2
   7   0  -3    5.87    4.08   2
  -7   0  -3    2.61    2.80   2
  -7   0  -3   -4.98    4.36   2
  -7   0  -2    9.53    2.53   2
   7   0  -2    4.91    4.18   2
  -7   0  -2   11.74    4.35   2
  -7   0  -2    6.06    3.79   2
  -7   0  -1    0.42    2.29   2
  -7   0  -1    2.49    2.37   2
   7   0  -1    1.51    2.88   2
  -7   0  -1    -1.2    3.31   2
  -7   0   0    6.45    2.76   2
  -7   0   0    4.47    2.89   2
  -7   0   0    3.79    3.43   2
   7   0   0   14.17    6.12   2
   7   0   0    10.1    6.50   2
  -7   0   1   -0.81    2.24   2
  -7   0   1   -0.53    2.23   2
  -7   0   1    9.71    5.19   2
   7   0   1    2.69    3.30   2
   7   0   1    6.86    4.86   2
  -7   0   2    9.89    4.61   2
  -7   0   2   10.95    4.09   2
   7   0   2   18.75    5.28   2
   7   0   2   11.68    5.34   2
  -7   0   3    6.48    3.66   2
   7   0   3    7.05    3.98   2
   7   0   3   -4.95    3.93   2
  -7   0   4    65.9    9.39   2
   7   0   4   67.41    7.27   2
   7   0   4   61.72    8.06   2
  -7   0   5    5.08    4.34   2
   7   0   5    1.53    1.32   2
   7   0   5    4.96    3.53   2
   7   0   6   79.94    6.81   2
  -7   0   6   90.35   12.49   2
   7   0   7   -0.27    1.44   2
  -7   0   7    1.98    2.29   2
  -7   0   8  190.07   19.91   2
  -7   0   9     8.4    3.86   2
  -7   0  10  165.52   21.25   2
  -7   0  11     0.5    6.56   2
  -7   0  12   93.93   17.50   2
  -7   0  13    1.96    4.80   2
  -7  -1 -13    9.39    4.88   2
   7   1 -13    9.27    4.04   2
   7  -1 -12   95.59   14.61   2
   7   1 -12   87.54   15.94   2
   7  -1 -12    96.6   13.52   2
  -7  -1 -12   82.42   11.73   2
   7  -1 -11   70.48   12.08   2
   7   1 -11   67.65   13.21   2
  -7   1 -11   69.67   10.36   2
  -7  -1 -11    46.4    8.19   2
  -7   1 -10  124.68   13.37   2
  -7  -1 -10  123.01   13.64   2
   7   1 -10  117.02   17.17   2
   7  -1 -10  103.02   14.37   2
  -7   1  -9   72.64   10.08   2
   7  -1  -9   71.34   11.09   2
   7   1  -9   85.85   14.18   2
  -7  -1  -9   61.62    9.17   2
  -7   1  -8   74.76    7.85   2
  -7   1  -8   80.56   10.55   2
  -7  -1  -8   76.26   10.36   2
   7  -1  -8   82.65   11.19   2
   7   1  -8    83.2   13.80   2
  -7   1  -7  198.13   12.66   2
  -7   1  -7  186.37   16.17   2
  -7  -1  -7  203.59   16.63   2
   7   1  -7  231.37   21.74   2
   7  -1  -7  212.91   17.43   2
   7   1  -6  174.66   18.41   2
  -7   1  -6  154.95   10.82   2
  -7   1  -6  178.72   15.99   2
  -7   1  -6  155.64   14.84   2
  -7  -1  -6  170.53   14.80   2
   7  -1  -6   162.4   12.47   2
   7  -1  -6  179.54   15.63   2
   7   1  -5  211.19   20.44   2
  -7   1  -5  173.85   11.58   2
  -7   1  -5  198.67   15.64   2
  -7   1  -5  185.11   17.10   2
  -7  -1  -5  199.69   16.11   2
   7  -1  -5  197.83   12.89   2
   7  -1  -5  197.66   15.95   2
   7  -1  -4   79.63    9.91   2
   7  -1  -4   77.24    7.63   2
  -7   1  -4   74.95    7.79   2
  -7   1  -4   90.94    9.40   2
  -7  -1  -4   89.06   11.30   2
   7   1  -4   71.67   12.31   2
  -7   1  -4   78.66   11.21   2
   7  -1  -3  253.49   17.53   2
  -7   1  -3  248.72   12.37   2
  -7   1  -3  227.12   15.26   2
   7   1  -3  271.11   23.94   2
  -7   1  -3  261.22   14.49   2
  -7  -1  -3  251.95   18.18   2
   7  -1  -3  253.75   13.01   2
  -7  -1  -3  244.06   18.69   2
  -7   1  -2   54.69    6.54   2
  -7   1  -2   65.35    8.30   2
  -7   1  -2   51.86    5.69   2
  -7  -1  -2   65.06    6.76   2
   7  -1  -2   57.26    8.29   2
   7   1  -2   77.01   12.87   2
  -7  -1  -2   47.55    8.10   2
  -7  -1  -2   51.18    9.03   2
  -7   1  -1  243.01   15.66   2
   7  -1  -1  276.22   19.48   2
  -7  -1  -1  265.75   21.55   2
  -7   1  -1  320.71   13.45   2
  -7  -1  -1   303.4   17.15   2
  -7  -1  -1  215.78   19.71   2
  -7   1  -1  272.25   11.65   2
   7   1  -1  330.49   26.72   2
  -7   1  -1  295.79   18.26   2
  -7   1   0   39.56    7.28   2
  -7   1   0   45.73    8.41   2
  -7  -1   0   51.68    9.02   2
  -7   1   0   28.14    5.76   2
  -7  -1   0   44.12    9.00   2
   7  -1   0   53.49    8.91   2
   7   1   0   42.17    9.43   2
  -7  -1   0   37.77    8.87   2
   7  -1   0   40.01    8.95   2
  -7   1   0   40.13    4.31   2
  -7  -1   1  323.21   25.56   2
  -7  -1   1  330.12   23.57   2
   7  -1   1  295.71   20.09   2
   7   1   1  267.58   23.54   2
  -7   1   1  311.06   23.65   2
   7  -1   1     331   26.24   2
  -7   1   1  237.25   10.89   2
  -7   1   1  257.69   19.53   2
  -7   1   2   51.79    9.98   2
  -7  -1   2   46.93    8.82   2
   7  -1   2   39.38    6.72   2
  -7   1   2   49.44    5.44   2
   7  -1   2   48.56    6.91   2
   7   1   2   49.75    9.57   2
   7  -1   2    50.5    9.73   2
   7  -1   3   294.3   17.26   2
   7   1   3  316.57   22.85   2
   7  -1   3  316.16   16.41   2
  -7   1   3  309.12   16.07   2
   7  -1   3  311.15   23.22   2
  -7  -1   3   338.1   24.07   2
  -7   1   3  328.55   24.58   2
   7  -1   4   61.06    7.63   2
   7  -1   4   61.74    6.86   2
  -7  -1   4   53.99   10.17   2
   7  -1   4   67.56    9.80   2
   7   1   4   72.55   10.55   2
  -7   1   4   60.66    7.85   2
   7  -1   5  180.97   12.43   2
  -7   1   5  180.08   14.90   2
   7   1   5  183.52   16.11   2
   7  -1   5  174.77   14.80   2
  -7  -1   5  167.94   17.62   2
  -7   1   6  134.21   14.27   2
   7   1   6  159.06   15.36   2
   7  -1   6  140.06   12.64   2
  -7  -1   6  144.78   16.62   2
  -7   1   7  210.21   19.22   2
  -7  -1   7  213.74   21.86   2
  -7  -1   8   76.04   13.85   2
  -7   1   8   76.85   12.48   2
  -7  -1   9   65.12   12.93   2
  -7   1   9   54.35   11.20   2
  -7  -1  10  122.44   18.92   2
  -7   1  10   94.33   15.61   2
  -7   1  11   58.53   13.49   2
  -7  -1  11      66   15.23   2
  -7   1  12  124.71   24.19   2
  -7   1  12  104.26   19.04   2
  -7  -1  12   92.15   18.36   2
  -7   1  13    9.06    5.86   2
   7   2 -12   78.62   16.01   2
  -7  -2 -12    81.3   12.34   2
   7  -2 -12   74.73   12.19   2
   7   2 -11  174.99   23.47   2
  -7  -2 -11  183.25   17.88   2
   7  -2 -11  163.07   17.54   2
   7  -2 -11   187.8   19.43   2
   7   2 -10  133.45   20.27   2
  -7  -2 -10   92.94   12.54   2
   7  -2 -10  108.98   13.65   2
   7  -2 -10  109.87   14.42   2
   7   2  -9  196.69   23.64   2
  -7   2  -9   191.7   17.18   2
  -7  -2  -9   185.9   16.74   2
   7  -2  -9  196.63   17.88   2
   7   2  -8  147.88   20.66   2
  -7   2  -8  167.75   15.90   2
  -7  -2  -8  158.02   15.01   2
   7  -2  -8  156.14   15.32   2
   7   2  -7  360.37   31.61   2
  -7   2  -7   339.3   22.49   2
  -7  -2  -7  303.67   20.42   2
  -7   2  -7  272.26   20.98   2
   7  -2  -7  306.25   20.26   2
   7   2  -6  209.61   23.99   2
  -7   2  -6  168.07    9.64   2
  -7  -2  -6  179.19   15.39   2
  -7   2  -6  162.51   14.61   2
   7  -2  -6  177.41   11.95   2
   7  -2  -6  187.57   15.25   2
  -7   2  -5  419.01   16.17   2
   7   2  -5  423.91   33.87   2
  -7  -2  -5  385.29   23.13   2
  -7   2  -5  360.79   19.97   2
   7  -2  -5  408.26   17.11   2
   7  -2  -5  396.83   21.32   2
  -7  -2  -5  428.59   14.46   2
  -7   2  -4  283.89   12.38   2
  -7  -2  -4  255.44   12.38   2
   7   2  -4   299.6   27.94   2
  -7   2  -4  254.49   15.78   2
  -7  -2  -4  242.39   18.52   2
  -7   2  -4  234.39   13.69   2
   7  -2  -4   255.3   12.14   2
   7  -2  -4  252.22   16.29   2
  -7  -2  -3  719.11   23.22   2
  -7   2  -3   732.1   27.43   2
  -7  -2  -3  718.61   32.68   2
   7  -2  -3  783.11   19.82   2
  -7   2  -3  646.31   19.05   2
  -7   2  -3  670.72   19.03   2
   7  -2  -3  752.35   28.16   2
   7  -2  -2  287.84   16.65   2
  -7   2  -2  237.17   15.89   2
  -7  -2  -2  241.11   19.34   2
  -7   2  -1  793.14   31.75   2
   7  -2  -1  853.77   30.12   2
  -7  -2  -1   805.1   38.04   2
  -7   2   0  241.27   18.25   2
   7  -2   0  258.06   16.62   2
   7   2   0  279.06   26.40   2
   7  -2   0  246.17   19.91   2
   7  -2   0  236.89   19.65   2
  -7  -2   0  221.63   21.14   2
  -7  -2   0  303.19   25.60   2
  -7   2   1  759.91   35.79   2
   7  -2   1  999.88   31.86   2
  -7  -2   1 1063.15   49.54   2
   7  -2   1  704.92   32.29   2
   7   2   1  778.13   43.17   2
  -7  -2   1  776.71   42.10   2
   7  -2   1  859.46   41.86   2
  -7   2   2  248.61   21.10   2
  -7  -2   2  385.96   29.87   2
   7  -2   2  268.72   18.52   2
   7   2   2  246.27   22.70   2
   7  -2   2  293.84   13.12   2
   7  -2   2  385.22   27.65   2
   7  -2   2  257.92   15.35   2
   7  -2   3  704.06   29.75   2
   7   2   3  737.33   37.83   2
   7  -2   3  845.45   39.49   2
   7  -2   3  692.75   16.85   2
   7  -2   3  705.76   24.56   2
  -7  -2   3  829.98   43.81   2
  -7   2   3     646   36.52   2
   7  -2   4  257.47   17.22   2
   7   2   4  268.88   21.87   2
   7  -2   4  271.39   19.99   2
  -7  -2   4  285.74   25.87   2
   7  -2   4  253.25   13.45   2
  -7   2   4  255.31   15.47   2
  -7   2   4  246.39   23.75   2
  -7   2   5  393.73   22.11   2
   7   2   5  456.47   28.30   2
   7  -2   5  398.14   21.86   2
  -7  -2   5  384.75   29.41   2
  -7   2   5  342.13   29.05   2
   7  -2   5  387.76   15.85   2
  -7   2   6  196.77   17.24   2
   7   2   6  222.07   20.18   2
   7  -2   6  211.77   14.52   2
  -7  -2   6  230.37   23.75   2
  -7   2   6  205.39   23.35   2
   7  -2   6  209.59   10.92   2
  -7   2   7  317.63   23.87   2
   7  -2   7  329.95   17.23   2
  -7  -2   7  313.86   28.04   2
  -7   2   7  277.46   28.55   2
  -7   2   8  161.63   18.63   2
  -7  -2   8  184.98   21.56   2
  -7   2   8  146.61   22.08   2
  -7   2   9  189.16   21.72   2
  -7  -2   9  207.46   24.86   2
  -7   2   9  213.21   27.55   2
  -7  -2  10  119.13   19.29   2
  -7   2  10   92.06   18.98   2
  -7   2  10   105.3   17.24   2
  -7   2  11  164.46   24.87   2
  -7  -2  11  212.04   26.79   2
  -7   2  11  202.46   25.81   2
  -7   2  12   71.43   18.08   2
  -7   2  12   99.17   18.76   2
  -7  -2  12   94.07   18.67   2
  -7   2  13   81.85   16.07   2
  -7  -3 -11  119.52   15.33   2
   7   3 -11  111.87   22.19   2
   7   3 -10  184.87   27.84   2
  -7  -3 -10   160.6   16.90   2
   7  -3 -10  153.13   17.19   2
   7   3  -9  216.67   28.73   2
  -7  -3  -9  187.71   17.59   2
   7  -3  -9   207.9   19.31   2
   7   3  -8  337.43   35.08   2
  -7  -3  -8  291.25   21.52   2
   7   3  -7  485.68   41.61   2
  -7  -3  -7  419.33   25.59   2
   7   3  -6  303.48   31.90   2
  -7  -3  -6  266.99   19.84   2
  -7  -3  -5  467.51   22.49   2
  -7   3  -5  545.01   24.42   2
   7   3  -5   552.6   43.20   2
  -7  -3  -5  455.06   25.86   2
   7  -3  -5   450.3   17.13   2
   7  -3  -5  351.01   19.97   2
  -7  -3  -4  520.06   24.21   2
   7   3  -4  709.68   48.25   2
  -7   3  -4  666.95   22.14   2
  -7  -3  -4  555.37   29.21   2
   7  -3  -4  562.82   17.14   2
   7  -3  -4  434.85   21.29   2
  -7  -3  -3  512.83   24.13   2
  -7   3  -3  496.98   26.41   2
  -7  -3  -3  536.87   29.26   2
   7  -3  -3  577.12   14.07   2
   7  -3  -3  507.87   21.82   2
  -7   3  -2  285.76   20.22   2
  -7  -3  -2  341.68   19.81   2
  -7  -3  -2  334.75   23.62   2
  -7   3  -1  557.96   29.13   2
  -7  -3  -1  568.84   26.82   2
   7  -3  -1  584.71   34.88   2
  -7  -3  -1  555.12   31.84   2
   7  -3  -1  569.65   21.68   2
  -7   3   0     595   31.30   2
   7  -3   0  612.74   22.42   2
   7   3   0  644.39   42.41   2
   7  -3   0  611.78   33.49   2
  -7  -3   0  629.02   35.88   2
  -7   3   1   574.4   32.54   2
   7  -3   1  659.35   18.33   2
   7  -3   1  539.38   30.47   2
   7   3   1   574.4   38.20   2
   7  -3   1  557.81   31.07   2
  -7  -3   1   523.7   35.35   2
  -7   3   2  393.38   27.77   2
  -7  -3   2  479.63   37.80   2
   7  -3   2  366.53   24.00   2
   7   3   2  392.69   30.49   2
  -7  -3   2  405.05   31.58   2
   7  -3   2  451.65   29.76   2
  -7  -3   3  759.78   47.22   2
  -7   3   3   602.8   36.65   2
   7  -3   3  596.63   30.30   2
   7   3   3   645.4   37.90   2
   7  -3   3  807.48   38.75   2
  -7   3   4  552.29   36.97   2
   7  -3   4  553.02   28.32   2
   7  -3   4  541.11   22.94   2
   7   3   4  574.02   34.57   2
   7  -3   4  525.11   27.99   2
  -7  -3   4   614.4   42.37   2
   7  -3   5  426.69   19.74   2
  -7   3   5  461.79   34.75   2
   7   3   5  468.98   31.08   2
   7  -3   5  436.27   21.63   2
  -7  -3   5  437.59   35.72   2
  -7   3   6  242.69   26.26   2
   7   3   6  289.17   24.79   2
  -7  -3   6   284.6   28.77   2
   7  -3   6  287.27   14.38   2
  -7   3   7     415   35.55   2
  -7  -3   7  426.84   36.30   2
   7  -3   7  430.01   19.74   2
  -7   3   8  234.53   27.73   2
  -7  -3   8  274.11   29.41   2
   7  -3   8  297.61   17.52   2
  -7   3   9  127.24   21.23   2
  -7  -3   9  160.33   22.15   2
   7  -3   9   189.2   14.95   2
  -7  -3  10  139.93   22.10   2
  -7   3  10   94.27   18.73   2
   7  -3  10  146.63   14.24   2
  -7   3  11   88.02   18.87   2
  -7  -3  11  155.61   24.49   2
   7   4 -10  221.15   32.54   2
   7   4  -9  122.24   23.95   2
  -7  -4  -9  101.87   13.61   2
   7  -4  -9    92.1   13.48   2
  -7  -4  -8  327.43   24.52   2
   7  -4  -8  390.42   26.96   2
  -7  -4  -7  178.13   17.47   2
   7   4  -7  201.57   28.66   2
   7  -4  -7  181.39   17.64   2
  -7  -4  -6  417.45   26.89   2
   7  -4  -6  446.51   26.79   2
   7   4  -5  315.31   35.07   2
  -7  -4  -5   194.7   18.11   2
   7   4  -4  883.82   57.77   2
  -7  -4  -4  734.29   35.86   2
   7   4  -3  431.92   39.65   2
  -7  -4  -3   335.5   24.15   2
   7  -4  -3  389.97   18.87   2
   7   4  -2  864.03   54.74   2
   7  -4  -2  779.98   45.61   2
  -7  -4  -2  803.17   38.72   2
   7  -4  -2  858.86   26.86   2
  -7   4  -1  371.47   26.29   2
   7   4  -1  391.18   35.01   2
   7  -4  -1   390.4   29.87   2
  -7  -4  -1  400.71   27.80   2
   7  -4  -1  418.66   16.79   2
   7  -4   0  985.05   24.43   2
  -7   4   0  989.59   44.63   2
   7  -4   0 1032.88   47.71   2
   7   4   0 1074.79   56.07   2
  -7   4   1  371.48   27.78   2
   7  -4   1  377.31   27.79   2
   7   4   1  382.69   31.98   2
  -7   4   2     825   43.52   2
   7  -4   2  800.27   39.73   2
   7   4   2  784.21   44.91   2
   7  -4   2  860.62   41.06   2
  -7  -4   3  400.05   37.77   2
  -7   4   3  342.57   29.45   2
   7  -4   3  344.63   24.96   2
   7   4   3   353.1   29.22   2
  -7   4   4   674.2   43.02   2
   7  -4   4  646.61   34.16   2
   7   4   4  709.23   41.30   2
  -7  -4   4  748.19   51.24   2
  -7   4   5  194.51   23.53   2
   7   4   5  199.52   21.67   2
  -7  -4   5  206.54   27.46   2
  -7   4   6   451.2   37.72   2
   7   4   6  483.25   34.34   2
  -7  -4   6  470.55   41.21   2
  -7   4   7  178.79   24.63   2
  -7  -4   7   197.3   27.13   2
  -7   4   8  350.11   35.39   2
  -7  -4   8  401.42   38.67   2
  -7   4   9   85.55   18.32   2
  -7  -4   9   85.62   17.36   2
   7   5  -9   54.41   18.24   2
   7   5  -8  470.94   49.41   2
   7  -5  -8  352.56   27.24   2
   7   5  -7   51.98   15.43   2
  -7  -5  -7   31.02    7.95   2
   7  -5  -7    38.3    8.95   2
   7   5  -6  459.29   45.38   2
  -7  -5  -6  368.93   27.28   2
   7  -5  -6  393.85   26.58   2
   7   5  -5   75.03   18.38   2
  -7  -5  -5   62.88   11.29   2
   7  -5  -5      56    9.73   2
   7   5  -4  649.58   51.50   2
  -7  -5  -4  591.72   34.33   2
   7  -5  -3   53.77   13.80   2
   7   5  -3   37.41   11.98   2
  -7  -5  -3   56.55   11.08   2
   7  -5  -3   39.98    7.42   2
  -7   5  -2     441   31.73   2
   7  -5  -2   481.1   38.51   2
   7   5  -2  473.12   40.16   2
  -7  -5  -2  488.09   31.88   2
  -7  -5  -2  508.42   43.48   2
   7  -5  -2  393.71   22.70   2
  -7   5  -1   71.66   12.92   2
   7  -5  -1   63.63   13.54   2
  -7  -5  -1  103.18   19.75   2
   7  -5  -1   70.91    9.01   2
  -7  -5  -1   64.36   11.78   2
   7   5  -1   71.25   15.15   2
  -7   5   0   557.1   36.08   2
   7  -5   0  572.15   38.62   2
   7   5   0  572.23   41.61   2
   7  -5   0  586.15   25.02   2
  -7   5   1   70.96   13.30   2
   7  -5   1   61.97   12.54   2
   7  -5   1   63.61    7.55   2
  -7  -5   1    37.4   10.02   2
   7   5   1    63.3   13.74   2
  -7   5   2  463.52   34.23   2
   7  -5   2  493.95   33.95   2
   7   5   2  467.41   35.44   2
  -7   5   3   55.27   12.74   2
   7  -5   3   54.08   11.11   2
  -7  -5   3   61.14   15.18   2
  -7  -5   3   53.36   12.92   2
   7   5   3   47.11   11.37   2
  -7   5   4  616.81   43.27   2
   7  -5   4  575.75   35.47   2
   7   5   4  606.08   40.03   2
  -7  -5   4  695.75   54.16   2
  -7   5   5   65.22   14.93   2
   7  -5   5   62.17   11.56   2
   7   5   5   57.72   12.39   2
  -7  -5   5   63.39   17.33   2
  -7   5   6  394.06   37.07   2
  -7  -5   6  385.56   40.41   2
  -7   5   7    41.9   12.58   2
  -7  -5   7   33.65   13.32   2
   7  -6  -6  176.08   18.36   2
   7   6  -6  178.03   29.04   2
  -7  -6  -5   12.56    5.68   2
   7  -6  -5    6.19    4.27   2
   7   6  -4  294.06   33.87   2
  -7  -6  -4   286.1   26.45   2
   7  -6  -4  285.67   22.09   2
   7  -6  -3    6.22    6.85   2
  -7  -6  -3    0.13    7.97   2
   7   6  -3    7.18    5.85   2
  -7  -6  -3    8.32    5.81   2
   7  -6  -3   -0.54    1.98   2
   7  -6  -2   344.5   35.33   2
   7   6  -2  320.56   33.07   2
  -7  -6  -2  332.19   37.94   2
  -7  -6  -2  310.49   27.78   2
   7  -6  -2  314.37   20.95   2
  -7   6  -1   -1.49    2.76   2
   7  -6  -1   -2.24    5.66   2
  -7  -6  -1    2.19    4.94   2
  -7  -6  -1    2.66    2.50   2
   7   6  -1    -5.4    8.26   2
  -7   6   0  427.58   34.88   2
   7  -6   0  430.86   36.21   2
   7   6   0  392.09   34.97   2
  -7  -6   0  422.44   34.15   2
  -7   6   1    1.42    3.44   2
   7  -6   1   10.38    6.79   2
  -7  -6   1    5.75    3.86   2
  -7  -6   1    -0.3    7.46   2
   7   6   1   12.88    6.39   2
  -7  -6   2  387.24   43.26   2
  -7   6   2  305.81   30.49   2
   7  -6   2  349.46   31.49   2
  -7  -6   2  288.88   30.93   2
   7   6   2  323.88   30.36   2
  -7   6   3   12.79    4.17   2
  -7  -6   3   26.46   12.42   2
   7  -6   3   25.53    9.74   2
   7   6   3   17.18    8.14   2
   7   6   4  306.16   29.86   2
  -7  -7  -2   99.42   17.75   2
  -8   0 -12  393.41   27.02   2
   8   0 -11    5.57    4.80   2
  -8   0 -11    0.14    3.34   2
   8   0 -10  575.12   37.08   2
  -8   0 -10  561.99   30.89   2
   8   0  -9   -0.59    2.63   2
  -8   0  -9    2.56    2.60   2
   8   0  -8 1088.64   48.02   2
  -8   0  -8 1011.38   41.15   2
   8   0  -7    -1.3    3.26   2
  -8   0  -7    3.05    3.43   2
   8   0  -6 1413.36   52.89   2
  -8   0  -6 1415.45   49.71   2
   8   0  -5    1.53    2.60   2
   8   0  -5   -1.57    2.35   2
  -8   0  -5    0.74    1.72   2
  -8   0  -5    3.07    3.36   2
  -8   0  -5    2.11    3.10   2
  -8   0  -4 2430.18   63.12   2
   8   0  -4 2407.85   70.06   2
  -8   0  -4 2162.36   56.50   2
   8   0  -4 2345.21   58.05   2
  -8   0  -4  2228.8   66.62   2
  -8   0  -3    2.52    1.35   2
   8   0  -3   -0.84    3.82   2
  -8   0  -3    3.27    2.79   2
  -8   0  -3   -1.88    4.11   2
  -8   0  -2 2880.82   73.11   2
   8   0  -2 2699.24   78.21   2
  -8   0  -2 2739.52   77.33   2
  -8   0  -1   -0.42    2.54   2
  -8   0  -1       1    1.94   2
  -8   0  -1   -4.96    4.11   2
   8   0  -1    2.91    3.40   2
  -8   0  -1   -1.39    3.08   2
  -8   0   0 4690.36  102.04   2
  -8   0   0 4752.63   90.62   2
   8   0   0 4490.29  105.99   2
  -8   0   0 4768.02   97.41   2
  -8   0   1    2.56    2.54   2
  -8   0   1     5.8    3.82   2
  -8   0   1    8.33    4.13   2
   8   0   1     4.3    4.14   2
   8   0   2 2680.75   74.82   2
  -8   0   2 3015.86   67.79   2
  -8   0   3   -3.88    2.66   2
   8   0   3    4.65    3.30   2
   8   0   4 2263.16   60.49   2
  -8   0   4 2051.57   58.24   2
  -8   0   5    1.83    3.02   2
   8   0   5    1.36    3.62   2
   8   0   6 1526.59   36.90   2
  -8   0   6 1395.62   52.24   2
   8   0   7    0.06    1.31   2
  -8   0   7   -4.21    5.18   2
  -8   0   8  975.59   47.80   2
  -8   0   9   -1.31    4.15   2
  -8   0  10  634.39   43.05   2
  -8   0  11   -1.82    4.38   2
  -8   0  12  388.48   36.84   2
  -8  -1 -13   22.07    7.38   2
  -8  -1 -12  286.77   23.70   2
   8  -1 -12  282.71   24.20   2
   8  -1 -11   25.66    7.86   2
   8   1 -11      32   10.79   2
  -8  -1 -11   21.66    6.94   2
   8   1 -10  488.86   36.62   2
  -8   1 -10  449.05   28.44   2
  -8  -1 -10  439.61   27.82   2
   8  -1 -10  425.37   29.74   2
   8  -1  -9   33.86    8.66   2
   8   1  -9   29.81    9.48   2
  -8   1  -9   33.39    7.67   2
  -8  -1  -9   21.38    6.21   2
   8   1  -8  982.13   49.81   2
  -8   1  -8  912.61   40.49   2
  -8  -1  -8  924.58   39.16   2
   8  -1  -8  966.74   42.06   2
  -8   1  -7   69.88    8.00   2
   8   1  -7   73.95   12.66   2
  -8   1  -7    70.4   10.68   2
  -8  -1  -7   76.24   10.72   2
   8  -1  -7    95.8   12.61   2
   8  -1  -6 1108.94   42.94   2
   8  -1  -6 1136.51   35.99   2
   8   1  -6 1130.49   52.32   2
  -8   1  -6  993.41   32.22   2
  -8   1  -6 1132.68   42.31   2
  -8   1  -6 1050.47   44.39   2
  -8  -1  -6 1064.37   41.51   2
   8  -1  -5   91.98   11.87   2
   8  -1  -5   83.07    9.05   2
  -8   1  -5   68.43    8.15   2
  -8   1  -5   75.05    9.49   2
   8   1  -5   70.69   11.93   2
  -8   1  -5   64.42   10.64   2
  -8  -1  -5   74.82   10.61   2
   8  -1  -4 1909.03   56.23   2
  -8   1  -4 1672.17   47.05   2
   8   1  -4 1827.11   68.36   2
  -8   1  -4 1978.34   38.66   2
  -8   1  -4 1913.68   49.54   2
   8  -1  -4 1896.56   44.72   2
  -8   1  -4 2037.54   62.03   2
  -8  -1  -4 1783.37   57.69   2
   8  -1  -3   78.86   10.76   2
  -8   1  -3   89.44    9.87   2
  -8   1  -3   74.22    7.24   2
  -8   1  -3   83.19    8.24   2
   8  -1  -3   70.27    7.24   2
   8   1  -3   93.37   14.41   2
  -8  -1  -3   63.77   10.50   2
  -8   1  -2  1604.5   42.72   2
  -8   1  -2 1689.37   39.19   2
   8  -1  -2 1698.36   54.53   2
   8   1  -2  1948.7   68.86   2
  -8  -1  -2 1978.48   45.63   2
  -8   1  -2 2038.83   52.59   2
  -8  -1  -2 1623.98   58.28   2
  -8   1  -1   72.13    9.13   2
   8  -1  -1   87.67   11.58   2
  -8   1  -1   94.72    7.65   2
  -8  -1  -1   79.12    9.01   2
   8   1  -1   88.19   14.32   2
  -8  -1  -1   69.27   11.61   2
  -8   1  -1   63.67    5.97   2
  -8   1  -1   90.09   10.47   2
   8  -1   0 2764.49   70.53   2
   8   1   0 2817.03   83.63   2
  -8   1   0 2837.67   73.89   2
  -8  -1   0 2353.58   58.74   2
  -8  -1   0 2848.68   74.06   2
  -8  -1   0 2441.13   75.29   2
  -8   1   0 2335.07   44.49   2
  -8   1   0 2221.81   59.73   2
  -8   1   0 2363.74   62.50   2
  -8   1   1   80.26   11.05   2
   8  -1   1   97.67   12.04   2
  -8   1   1    76.9    6.55   2
   8   1   1   96.16   15.74   2
  -8  -1   1   91.33   12.45   2
   8  -1   2 1782.34   52.25   2
   8   1   2 1703.24   61.58   2
  -8   1   2 1587.32   38.65   2
  -8   1   2 1913.48   59.96   2
   8  -1   3   96.51   10.61   2
   8  -1   3  108.73   10.64   2
  -8   1   3   92.85    8.95   2
   8   1   3   90.35   13.14   2
  -8  -1   3  106.69   14.20   2
  -8   1   3  116.97   14.97   2
   8  -1   4 1880.98   49.18   2
  -8   1   4 1816.59   49.22   2
   8   1   4 1995.46   62.63   2
   8  -1   4 1985.31   47.50   2
  -8  -1   4 2058.17   64.99   2
  -8   1   4 2104.87   68.14   2
   8  -1   5   77.12    8.67   2
  -8   1   5   89.74   11.00   2
   8   1   5   89.64   12.58   2
  -8  -1   5   82.74   12.58   2
  -8   1   6 1061.17   42.27   2
   8   1   6 1146.39   44.95   2
  -8  -1   6 1004.44   46.93   2
  -8  -1   7   71.06   12.99   2
   8  -1   7   79.46    8.50   2
  -8   1   7   85.41   12.71   2
  -8   1   8  892.75   44.36   2
   8  -1   8  875.47   29.62   2
  -8  -1   8  839.88   46.75   2
  -8  -1   9    35.9    9.50   2
  -8   1   9   33.11    9.57   2
  -8   1  10  445.02   34.91   2
  -8  -1  10  451.62   36.85   2
  -8   1  11   38.36   12.50   2
  -8   1  11   33.33   10.83   2
  -8  -1  11    24.3    8.24   2
  -8   1  12  235.57   29.10   2
  -8  -1  12  274.78   31.57   2
  -8   1  13     5.2    5.54   2
  -8  -2 -12  189.38   19.82   2
   8  -2 -11   74.44   12.09   2
   8   2 -11   76.18   16.62   2
  -8  -2 -11   74.84   11.97   2
   8  -2 -11    92.7   13.80   2
   8   2 -10  252.98   29.26   2
  -8  -2 -10  232.54   20.75   2
   8  -2 -10  248.64   21.71   2
   8  -2  -9   68.44   10.74   2
   8   2  -9   71.39   14.92   2
  -8  -2  -9   79.08   11.73   2
  -8   2  -8  517.71   29.30   2
  -8  -2  -8  451.44   27.76   2
   8   2  -8  468.97   38.57   2
   8  -2  -8  460.19   27.20   2
  -8  -2  -7  106.84   13.10   2
   8   2  -7   94.64   17.25   2
   8  -2  -7   94.72   11.73   2
   8   2  -6  651.28   43.76   2
  -8  -2  -6  589.97   30.95   2
  -8   2  -6  532.64   26.59   2
   8  -2  -6   634.2   24.22   2
   8  -2  -6  604.11   29.55   2
  -8   2  -5   99.51    7.99   2
  -8  -2  -5    85.7   12.08   2
  -8   2  -5    69.7    8.43   2
   8   2  -5   92.14   16.42   2
  -8  -2  -5   80.66    4.58   2
   8  -2  -5   86.79    8.00   2
   8  -2  -5   77.85   10.02   2
   8  -2  -4   749.3   32.28   2
  -8  -2  -4  934.73   25.22   2
   8  -2  -4 1044.49   27.40   2
  -8   2  -4  969.98   32.48   2
   8   2  -4 1083.82   54.71   2
  -8  -2  -4  888.89   39.28   2
  -8   2  -4  864.38   26.98   2
  -8   2  -4 1138.57   28.50   2
   8  -2  -3  201.74   15.62   2
  -8   2  -3  173.37   13.70   2
  -8  -2  -3  172.55   11.22   2
  -8  -2  -3  177.13   17.41   2
   8  -2  -3  164.49    8.47   2
  -8   2  -3  171.88   10.52   2
   8  -2  -2 1171.65   39.54   2
  -8   2  -2 1119.27   38.34   2
  -8  -2  -2 1239.97   31.11   2
  -8  -2  -2 1085.64   46.47   2
  -8   2  -1  199.59   16.43   2
   8  -2  -1  214.67   16.72   2
  -8  -2  -1  186.38   19.34   2
  -8   2   0 1296.54   46.86   2
   8  -2   0 1612.48   46.89   2
   8   2   0 1687.89   68.67   2
  -8  -2   0 1791.48   64.24   2
  -8  -2   0 1247.48   55.29   2
  -8   2   1  171.32   17.34   2
  -8  -2   1   227.7   22.72   2
   8  -2   1  243.66   16.57   2
   8   2   1   182.1   21.46   2
   8  -2   1  183.24   17.57   2
  -8  -2   1   177.9   20.56   2
  -8   2   2  1092.2   46.94   2
   8  -2   2 1048.97   41.09   2
   8  -2   2 1230.05   33.63   2
   8   2   2 1158.33   53.20   2
   8  -2   3  176.43   15.43   2
   8   2   3  171.62   19.16   2
   8  -2   3  186.82    9.91   2
  -8  -2   3  237.16   23.61   2
  -8   2   3  183.99   19.49   2
   8   2   4  953.31   45.13   2
   8  -2   4  909.91   41.33   2
  -8   2   4  979.92   47.69   2
  -8   2   4  889.12   29.49   2
  -8   2   5   76.34    9.65   2
  -8   2   5   84.51   14.78   2
   8  -2   5   71.17    9.63   2
   8  -2   5   84.69   11.42   2
  -8  -2   5   79.92   14.30   2
   8   2   5   87.59   13.09   2
  -8   2   6  568.11   29.18   2
   8   2   6  667.41   37.43   2
  -8  -2   6  635.92   41.07   2
  -8   2   6   617.2   41.00   2
  -8   2   7   106.4   13.73   2
  -8  -2   7  116.73   17.81   2
  -8   2   7  119.54   19.28   2
  -8   2   8  433.08   30.17   2
  -8  -2   8  418.06   34.27   2
  -8   2   8  467.02   38.55   2
  -8  -2   9   88.28   17.60   2
  -8   2   9  101.68   18.68   2
  -8   2   9   75.77   13.57   2
  -8  -2  10  255.43   29.46   2
  -8   2  10  290.49   32.80   2
  -8   2  10  232.53   25.09   2
  -8   2  11   82.76   18.40   2
  -8   2  11    54.2   13.25   2
  -8  -2  11   66.95   15.74   2
  -8   2  12  159.58   22.92   2
   8   3 -10   94.85   19.15   2
  -8  -3 -10  102.02   14.08   2
   8  -3 -10  111.58   15.08   2
   8  -3 -10   107.5   14.45   2
   8  -3  -9   51.61    9.95   2
   8   3  -9   47.12   12.52   2
  -8  -3  -9   45.08    9.37   2
   8  -3  -9   46.97    9.03   2
  -8  -3  -8  120.31   15.16   2
   8   3  -8  122.56   21.21   2
   8  -3  -8  140.96   14.70   2
  -8  -3  -7  119.08   14.42   2
   8   3  -7  128.31   21.89   2
   8  -3  -7   102.8   12.28   2
   8   3  -6  215.58   27.13   2
  -8  -3  -6  177.41   17.55   2
   8  -3  -6  135.54   13.43   2
  -8  -3  -5   92.35   12.63   2
   8  -3  -5   75.66    9.50   2
  -8   3  -4  267.46   20.12   2
  -8  -3  -4  247.86   20.62   2
   8  -3  -3  111.14   10.93   2
  -8  -3  -3   88.59   10.14   2
  -8   3  -3   83.33   11.18   2
  -8  -3  -3   96.22   13.01   2
   8  -3  -2  281.72   17.02   2
  -8   3  -2  188.82   17.30   2
  -8  -3  -2  224.09   16.59   2
  -8  -3  -2  246.12   21.88   2
   8  -3  -1    83.8    8.95   2
  -8   3  -1   59.86    9.93   2
  -8  -3  -1   63.16    9.43   2
   8  -3  -1    67.5   12.88   2
   8   3  -1   78.38   15.61   2
  -8  -3  -1    61.1   11.16   2
  -8  -3  -1   89.35   15.31   2
  -8   3   0  308.03   23.62   2
   8  -3   0  352.81   18.01   2
   8   3   0  363.15   32.98   2
   8  -3   0  307.55   24.87   2
  -8  -3   0  389.05   32.70   2
  -8  -3   0  342.32   28.48   2
  -8   3   1   82.96   12.86   2
  -8  -3   1  120.17   18.45   2
   8  -3   1  116.74    8.53   2
   8  -3   1    70.3   11.13   2
  -8  -3   1   73.18   13.27   2
   8   3   1   91.06   15.34   2
  -8   3   2  238.66   22.43   2
  -8  -3   2  326.11   31.51   2
   8  -3   2  247.34   20.70   2
   8   3   2  261.11   26.14   2
  -8  -3   2  277.52   26.47   2
  -8  -3   3  166.81   22.52   2
  -8   3   3  137.55   17.82   2
   8  -3   3  121.73   14.26   2
   8  -3   3  189.49   19.83   2
   8   3   3  115.35   16.35   2
  -8   3   4  216.29   23.46   2
   8  -3   4  252.58   19.85   2
   8   3   4  244.89   24.05   2
   8  -3   4  239.62   20.48   2
  -8  -3   4  309.86   30.53   2
  -8   3   5   89.52   15.21   2
   8  -3   5  109.87   12.91   2
   8   3   5  112.34   16.58   2
  -8  -3   5  123.92   19.16   2
  -8   3   6  154.83   21.60   2
   8  -3   6  151.55   15.16   2
   8   3   6  173.68   20.30   2
  -8  -3   6  173.05   23.28   2
  -8   3   7  108.95   18.01   2
  -8  -3   7   130.6   20.34   2
  -8   3   8  130.47   20.59   2
  -8  -3   8  108.88   19.07   2
  -8   3   9   57.08   13.82   2
  -8  -3   9   31.23   10.08   2
  -8  -3  10  101.57   18.93   2
  -8   3  10   77.34   16.65   2
   8  -4 -10   48.66   10.49   2
   8  -4  -9   18.08    6.61   2
   8   4  -9      30   13.16   2
   8  -4  -8   58.88   10.15   2
   8   4  -8   84.25   19.84   2
  -8  -4  -8   47.57    9.64   2
   8  -4  -8   62.95   10.85   2
   8  -4  -7   13.61    5.56   2
   8   4  -7   22.22    9.38   2
  -8  -4  -7   16.32    5.81   2
   8  -4  -7    7.79    2.42   2
   8  -4  -6   59.52    9.22   2
   8   4  -6   74.67   18.12   2
  -8  -4  -6   59.93   11.06   2
   8  -4  -5   12.22    4.31   2
   8   4  -5    6.02    6.37   2
  -8  -4  -5    8.36    4.17   2
   8  -4  -4   35.31    6.37   2
   8   4  -4   48.61   13.85   2
  -8  -4  -4   43.43    9.84   2
  -8   4  -3    0.43    2.39   2
   8  -4  -3    6.68    2.98   2
   8   4  -3   15.05    7.92   2
  -8  -4  -3    9.37    5.64   2
   8  -4  -2   58.38    7.35   2
  -8   4  -2   33.16    8.23   2
   8  -4  -2   47.17   11.47   2
   8   4  -2   60.27   14.82   2
  -8  -4  -2   38.54    8.80   2
  -8   4  -1    1.13    2.67   2
   8  -4  -1    6.76    5.91   2
  -8  -4  -1    0.51    2.27   2
  -8  -4  -1   -2.93    3.07   2
  -8   4   0   23.15    7.17   2
   8  -4   0   28.93    8.12   2
  -8  -4   0   12.59    3.76   2
   8   4   0   23.99    8.37   2
  -8  -4   0   30.95   11.01   2
  -8  -4   1   12.52    7.29   2
  -8   4   1   -4.54    4.43   2
   8  -4   1    17.1    7.00   2
  -8  -4   1    0.29    4.36   2
   8   4   1    9.01    6.97   2
  -8   4   2   59.73   12.01   2
   8  -4   2    61.9   11.39   2
  -8  -4   2   74.85   15.58   2
  -8  -4   2   34.49    9.55   2
   8   4   2    51.7   11.37   2
  -8   4   3     4.1    3.04   2
   8  -4   3   12.66    5.17   2
  -8  -4   3    5.03    4.09   2
   8   4   3     9.6    5.93   2
  -8  -4   4   51.29   14.64   2
  -8   4   4   44.13   11.04   2
   8  -4   4   59.48   11.16   2
   8   4   4   47.48   11.53   2
  -8   4   5    9.74    6.52   2
   8  -4   5    6.75    2.85   2
  -8  -4   5   24.32   10.17   2
   8   4   5   15.44    7.20   2
  -8   4   6    68.8   14.42   2
   8  -4   6   71.08   11.32   2
  -8  -4   6   99.19   19.54   2
   8   4   6   70.85   14.01   2
  -8   4   7    13.9    5.85   2
  -8  -4   7    8.79    6.69   2
  -8   4   8   64.14   14.73   2
  -8  -4   8   57.99   15.49   2
   8   5  -7    19.1   11.12   2
   8  -5  -7   10.12    5.53   2
   8   5  -6   51.77   16.20   2
  -8  -5  -6   50.99   10.91   2
   8  -5  -6   25.27    6.45   2
   8   5  -5   38.15   14.42   2
  -8  -5  -5   22.06    7.27   2
   8  -5  -5   25.35    7.37   2
   8   5  -4   32.56   12.70   2
  -8  -5  -4   35.53    9.73   2
   8  -5  -4   14.55    5.04   2
  -8   5  -3   35.75    9.85   2
   8   5  -3   34.63   12.41   2
  -8  -5  -3   30.05    8.65   2
   8  -5  -3   25.43    6.13   2
  -8   5  -2   17.46    7.21   2
   8  -5  -2    8.43    5.74   2
   8   5  -2   -6.11    6.66   2
  -8  -5  -2    8.09    5.49   2
  -8  -5  -2    1.49    4.72   2
   8  -5  -2    5.24    3.26   2
  -8  -5  -1   44.33   13.34   2
  -8   5  -1   28.32    7.95   2
   8  -5  -1   24.04    8.42   2
  -8  -5  -1   23.94    8.37   2
   8   5  -1   39.89   12.41   2
   8  -5  -1   32.91    6.65   2
  -8   5   0    5.42    5.32   2
   8  -5   0   -2.62    5.06   2
  -8  -5   0   -0.56    4.14   2
  -8  -5   0   -4.41    5.89   2
   8   5   0    -2.8    3.98   2
   8  -5   0   -3.12    3.66   2
  -8   5   1   21.95    7.66   2
   8  -5   1   27.03    9.74   2
  -8  -5   1   22.66    9.53   2
   8   5   1   15.55    5.70   2
  -8  -5   1   39.23   14.04   2
  -8   5   2    4.49    5.33   2
   8  -5   2    9.46    4.24   2
  -8  -5   2      19    6.04   2
  -8  -5   2   15.31    6.79   2
   8   5   2    7.15    4.03   2
  -8   5   3   36.18   10.23   2
   8  -5   3    30.9    9.09   2
  -8  -5   3   63.53   17.59   2
   8   5   3   37.48   10.70   2
  -8  -5   4   22.58   11.55   2
  -8   5   4   34.54   10.78   2
   8  -5   4   26.47    7.63   2
   8   5   4    18.8    7.93   2
  -8   5   5   28.61   10.10   2
   8  -5   5   28.27    8.34   2
  -8  -5   5   30.14   12.60   2
   8   5   5   29.07    9.86   2
  -8   5   6   38.09   12.11   2
   8  -5   6   50.51   10.78   2
  -8  -5   6   38.03   15.28   2
   8   5   6    35.4   10.69   2
   8  -5   7   13.48    4.21   2
   8  -6  -5   82.15   12.90   2
   8   6  -4   15.95    8.70   2
   8  -6  -4       4    4.21   2
   8  -6  -3  118.61   13.99   2
  -8  -6  -3  106.45   16.41   2
   8   6  -3   107.8   20.51   2
  -8   6  -2     6.9    6.37   2
  -8  -6  -2   -3.04    4.11   2
   8   6  -2    2.62    6.45   2
  -8   6  -1  151.19   21.32   2
  -8  -6  -1  123.88   19.21   2
   8   6  -1  161.59   24.51   2
  -8   6   0    5.49    6.73   2
  -8  -6   0   -5.17    4.21   2
   8   6   0   -9.86    8.27   2
  -8   6   1  135.88   20.77   2
  -8  -6   1  126.97   20.43   2
   8   6   1  121.21   20.12   2
  -8   6   2   -3.78    5.80   2
  -8  -6   2    8.23    5.66   2
  -9   0 -12   41.92    9.11   2
   9   0 -11    6.53    5.41   2
  -9   0 -11    0.51    3.09   2
  -9   0 -10   95.17   13.48   2
   9   0 -10   102.2   15.90   2
   9   0  -9    -5.6    3.67   2
  -9   0  -9    5.14    3.94   2
   9   0  -8   80.65   13.87   2
  -9   0  -8   57.74   10.42   2
   9   0  -7    -2.3    4.21   2
  -9   0  -7   -3.54    3.78   2
   9   0  -6   82.13   12.93   2
  -9   0  -6    61.9   10.36   2
   9   0  -5    1.24    2.46   2
  -9   0  -5   -3.91    4.33   2
   9   0  -4    1.41    3.51   2
  -9   0  -4    -2.6    4.69   2
  -9   0  -3    2.55    1.76   2
   9   0  -3    2.03    3.74   2
  -9   0  -3    5.84    4.40   2
  -9   0  -2    4.57    1.63   2
   9   0  -2    5.88    3.74   2
  -9   0  -2    1.15    3.83   2
  -9   0  -1    4.45    3.56   2
  -9   0  -1    2.69    2.47   2
   9   0  -1    4.17    4.42   2
  -9   0  -1    6.32    3.48   2
  -9   0   0    3.13    2.44   2
  -9   0   0    5.53    3.07   2
   9   0   0    4.96    3.77   2
  -9   0   1    4.45    3.31   2
   9   0   1    2.55    3.96   2
  -9   0   2    8.27    3.12   2
   9   0   2   12.34    4.47   2
  -9   0   3    1.75    2.56   2
   9   0   3    0.25    2.92   2
  -9   0   4   14.38    5.51   2
   9   0   4    8.26    3.54   2
  -9   0   5    1.64    4.08   2
   9   0   5    2.63    3.06   2
  -9   0   6   79.71   12.29   2
   9   0   6   76.97   10.83   2
  -9   0   7    0.17    3.05   2
  -9   0   8   69.29   12.06   2
  -9   0   9    4.82    5.09   2
  -9   0  10  105.72   17.85   2
  -9   0  11  -11.27    6.17   2
  -9   0  12   56.79   14.17   2
  -9  -1 -12   63.79   11.78   2
   9  -1 -11    24.9    8.20   2
  -9  -1 -11   31.38    7.99   2
   9  -1 -10   77.98   13.65   2
   9   1 -10   60.55   12.63   2
  -9   1 -10    53.9    9.93   2
  -9  -1 -10   62.33   11.39   2
   9  -1  -9   46.01   10.09   2
   9   1  -9   57.38   12.70   2
  -9   1  -9   47.19    9.56   2
  -9  -1  -9    72.5   11.79   2
   9  -1  -8   57.29   10.94   2
   9   1  -8   56.05   12.01   2
  -9   1  -8    53.3   10.47   2
  -9  -1  -8   49.39    9.61   2
  -9  -1  -7  101.64   13.64   2
   9  -1  -7   82.99   12.42   2
   9   1  -7    89.7   15.34   2
  -9   1  -7    84.8   12.78   2
   9  -1  -6   57.16    9.86   2
   9   1  -6   47.24   10.42   2
  -9   1  -6   42.78    8.91   2
  -9  -1  -6   42.74    8.51   2
  -9   1  -6   59.05    9.26   2
   9  -1  -5  124.93   14.52   2
   9   1  -5  140.73   18.93   2
  -9   1  -5   90.51   10.26   2
  -9   1  -5  111.31   11.76   2
   9  -1  -5  134.74   11.92   2
  -9   1  -5  143.91   16.19   2
  -9  -1  -5  132.89   15.98   2
   9  -1  -4   54.96    7.08   2
  -9   1  -4   57.81    5.94   2
   9  -1  -4   64.31   10.52   2
  -9   1  -4   50.13    7.81   2
   9   1  -4   63.88   11.71   2
  -9  -1  -4   59.76   10.56   2
  -9   1  -4   57.29    7.75   2
  -9   1  -3  171.56   14.56   2
  -9   1  -3  159.43   11.38   2
   9  -1  -3     143   15.79   2
  -9   1  -3  138.65   11.10   2
   9   1  -3  179.33   20.49   2
  -9  -1  -3  136.92   16.19   2
  -9   1  -2   22.67    4.50   2
  -9   1  -2   28.77    4.79   2
  -9  -1  -2   29.47    5.25   2
  -9   1  -2   30.41    5.86   2
  -9   1  -2   23.83    4.22   2
   9  -1  -2   22.46    5.73   2
   9   1  -2   38.38    9.92   2
  -9  -1  -2   20.01    6.10   2
  -9   1  -1  139.65   13.25   2
  -9   1  -1  164.08   10.19   2
   9  -1  -1  161.21   16.39   2
   9   1  -1  203.29   21.97   2
  -9  -1  -1  162.95   13.55   2
  -9  -1  -1  145.97   17.51   2
  -9  -1  -1   157.6   16.07   2
  -9   1  -1  154.94    9.87   2
  -9   1  -1  150.28   14.15   2
  -9   1   0   18.61    5.04   2
  -9  -1   0   19.32    4.96   2
  -9  -1   0    23.7    6.25   2
  -9   1   0   14.03    3.74   2
  -9   1   0    17.8    3.22   2
   9  -1   0    18.1    6.33   2
   9   1   0   23.66    7.70   2
  -9  -1   1  211.01   19.31   2
   9  -1   1  192.27   17.67   2
   9   1   1  199.02   21.95   2
  -9   1   1  146.98    9.78   2
  -9   1   1  160.45   16.01   2
  -9   1   2   23.54    4.30   2
  -9   1   2   31.24    7.73   2
  -9  -1   2   37.49    8.13   2
   9  -1   2   35.14    7.33   2
   9   1   2   32.28    8.66   2
   9   1   3  169.48   18.86   2
   9  -1   3     173   15.28   2
  -9   1   3  142.14   11.66   2
  -9  -1   3  211.92   20.27   2
  -9   1   3  180.28   18.76   2
  -9   1   4    55.9   11.04   2
   9  -1   4   31.14    6.26   2
  -9  -1   4   55.72   10.03   2
   9   1   4   47.03    9.67   2
   9  -1   4   52.59    7.65   2
  -9   1   4   40.44    6.84   2
   9  -1   5  104.04   11.03   2
  -9   1   5  126.98   12.98   2
   9   1   5  156.36   17.45   2
   9  -1   5  154.39   12.84   2
  -9  -1   5  164.47   18.63   2
  -9   1   5  142.33   17.96   2
  -9  -1   6   43.72   10.18   2
   9  -1   6   46.47    7.22   2
  -9   1   6   43.24    8.53   2
   9   1   6   33.18    8.09   2
  -9  -1   7  116.08   16.91   2
  -9   1   7  103.83   14.05   2
   9  -1   7   99.15   10.20   2
  -9  -1   8   62.86   13.36   2
  -9   1   8   54.76   11.35   2
  -9  -1   9   46.56   10.79   2
  -9   1   9   35.06    8.74   2
  -9   1  10  101.41   19.69   2
  -9   1  10   69.59   13.70   2
  -9  -1  10   62.54   14.05   2
  -9   1  11   26.78    9.27   2
  -9  -1  11   25.28    9.27   2
  -9   1  12   66.44   15.04   2
  -9  -2 -11  124.97   16.60   2
   9  -2 -10   60.61   11.53   2
   9   2 -10   50.25   12.06   2
  -9  -2 -10   79.23   12.83   2
  -9  -2  -9  130.07   15.88   2
   9   2  -9  123.71   20.52   2
   9  -2  -9  134.25   16.17   2
  -9  -2  -8  107.07   14.17   2
   9   2  -8  114.49   20.21   2
   9  -2  -8  110.56   14.16   2
   9   2  -7  210.65   26.68   2
  -9  -2  -7  221.81   20.24   2
   9  -2  -7  234.02   19.86   2
   9  -2  -6   92.51   12.25   2
  -9  -2  -6   88.95   12.67   2
   9   2  -5  278.07   28.25   2
  -9  -2  -5   245.9   21.44   2
   9  -2  -4  129.79   13.84   2
  -9   2  -4  150.36   12.57   2
   9   2  -4  142.09   19.79   2
  -9  -2  -4  149.52   17.08   2
  -9   2  -3   406.3   21.97   2
  -9  -2  -3  377.46   17.56   2
  -9  -2  -3  391.58   28.35   2
  -9   2  -3  432.63   18.87   2
  -9   2  -2  104.38   11.59   2
   9  -2  -2  105.14   12.61   2
   9   2  -2  171.33   21.89   2
  -9  -2  -2   147.8   10.24   2
  -9  -2  -2  118.74   16.36   2
  -9   2  -1  362.31   23.44   2
   9  -2  -1  538.21   28.13   2
   9   2  -1  647.98   43.07   2
  -9  -2  -1  491.76   21.44   2
  -9  -2  -1  459.28   33.22   2
  -9  -2  -1  629.46   36.68   2
   9  -2   0  236.11   17.81   2
   9   2   0  235.28   25.62   2
  -9  -2   0  229.16   22.51   2
  -9  -2   0  178.12   20.39   2
  -9  -2   1  623.35   38.20   2
   9  -2   1  631.24   28.67   2
   9   2   1  589.01   40.34   2
  -9   2   2  143.62   16.90   2
  -9  -2   2   188.3   20.56   2
   9  -2   2  143.49   15.79   2
   9  -2   2  161.25   12.78   2
   9   2   2  135.26   18.29   2
   9  -2   3  304.74   22.10   2
   9   2   3  401.79   31.58   2
   9  -2   3  411.81   17.40   2
  -9  -2   3  546.82   36.30   2
  -9   2   3  453.82   31.21   2
   9  -2   4  133.37   13.81   2
   9   2   4  160.32   19.56   2
  -9  -2   4  200.75   22.41   2
  -9   2   4  166.69   11.63   2
  -9   2   4  201.12   21.74   2
  -9   2   5  210.58   15.51   2
   9  -2   5  165.58   15.25   2
   9   2   5  203.19   21.97   2
  -9  -2   5  268.32   26.30   2
  -9   2   5  231.94   24.35   2
  -9   2   6  120.64   12.95   2
  -9   2   6  120.71   17.78   2
   9  -2   6  120.61   12.84   2
   9   2   6  120.88   17.05   2
  -9  -2   6  145.53   20.08   2
  -9   2   7  233.75   20.05   2
   9  -2   7  242.14   17.86   2
   9   2   7  292.53   26.42   2
  -9  -2   7  255.49   26.84   2
  -9   2   7  259.47   27.50   2
  -9   2   8  116.24   15.07   2
  -9   2   8  118.39   19.03   2
   9  -2   8  119.79   12.33   2
  -9  -2   8  121.32   19.43   2
  -9   2   9  143.28   18.32   2
  -9  -2   9   126.9   20.57   2
  -9   2   9  147.24   22.46   2
  -9  -2  10   86.29   17.37   2
  -9   2  10   94.68   19.18   2
  -9   2  10   78.35   14.35   2
  -9  -2  11  105.93   20.24   2
   9  -3 -10   99.33   14.19   2
  -9  -3  -9  139.84   17.51   2
   9   3  -9  133.57   23.43   2
   9  -3  -9  123.81   15.32   2
   9   3  -8  221.72   29.18   2
  -9  -3  -8  196.28   20.20   2
   9  -3  -8  190.58   18.24   2
   9   3  -7  306.07   33.57   2
  -9  -3  -7  243.54   21.91   2
   9  -3  -7  262.63   20.67   2
  -9  -3  -6  211.79   20.49   2
   9  -3  -6  251.13   19.62   2
  -9  -3  -5  302.87   24.40   2
   9  -3  -5  248.11   19.32   2
   9  -3  -4  319.95   20.99   2
  -9   3  -4  289.17   21.30   2
  -9  -3  -4  268.47   23.38   2
   9  -3  -3  363.84   21.95   2
  -9   3  -3  340.77   23.06   2
  -9  -3  -3  353.84   27.70   2
   9  -3  -2  332.15   20.46   2
  -9  -3  -2  316.97   27.01   2
  -9   3  -1  231.79   20.30   2
   9  -3  -1  343.94   20.43   2
   9   3  -1  470.76   39.02   2
  -9  -3  -1  348.43   29.34   2
  -9  -3  -1  378.09   31.38   2
  -9   3   0  242.08   21.78   2
   9  -3   0  434.87   21.10   2
   9   3   0  460.11   38.29   2
   9  -3   0  344.03   27.59   2
  -9  -3   0  420.36   33.65   2
  -9  -3   0  303.27   28.65   2
  -9   3   1  326.88   26.35   2
  -9  -3   1  448.62   35.63   2
   9  -3   1  458.65   18.72   2
   9  -3   1  341.78   26.68   2
   9   3   1  370.01   33.25   2
  -9  -3   1  378.78   31.68   2
  -9   3   2  293.64   25.48   2
   9  -3   2  298.63   24.09   2
   9   3   2  340.63   31.61   2
  -9   3   3   408.4   31.57   2
   9  -3   3   377.6   26.39   2
   9   3   3  352.55   31.17   2
  -9   3   4  294.57   27.72   2
   9  -3   4  299.07   23.14   2
   9   3   4  303.04   28.50   2
  -9  -3   4  383.18   34.19   2
  -9   3   5  294.44   28.51   2
   9  -3   5  284.94   22.12   2
   9   3   5  288.96   28.02   2
  -9  -3   5  371.93   34.47   2
  -9   3   6  251.74   27.52   2
   9  -3   6  236.03   19.72   2
   9   3   6  262.99   27.04   2
  -9  -3   6  275.43   30.10   2
  -9   3   7  239.84   27.11   2
   9  -3   7  253.67   20.01   2
   9   3   7  280.41   28.20   2
  -9  -3   7  284.86   31.07   2
  -9   3   8   182.9   24.66   2
   9  -3   8  179.17   16.87   2
  -9  -3   8  168.34   24.15   2
  -9   3   9  105.31   18.68   2
   9  -3   9  112.01   13.35   2
  -9  -3   9   98.57   19.77   2
   9  -4  -9   84.91   13.08   2
   9  -4  -8  247.77   23.39   2
   9  -4  -8  219.28   19.96   2
  -9  -4  -7  110.73   15.68   2
   9   4  -7  118.32   22.57   2
   9  -4  -7  103.61   13.21   2
  -9  -4  -6     273   24.37   2
   9  -4  -6  276.71   20.87   2
   9   4  -5  207.77   29.12   2
  -9  -4  -5     158   18.58   2
   9  -4  -5  153.35   15.05   2
  -9  -4  -4  464.41   32.25   2
   9  -4  -4  537.59   26.92   2
  -9   4  -3  175.45   19.18   2
  -9  -4  -3  194.72   21.34   2
  -9   4  -2  482.49   31.78   2
  -9  -4  -2  488.68   34.94   2
  -9  -4  -2  571.35   42.32   2
  -9   4  -1  236.73   22.73   2
   9   4  -1  296.53   32.56   2
   9  -4  -1  242.56   25.99   2
  -9  -4  -1  288.02   29.94   2
  -9  -4  -1  229.95   24.54   2
  -9   4   0  640.17   38.66   2
   9  -4   0  685.03   42.23   2
   9   4   0  717.05   49.88   2
  -9  -4   0   646.3   43.06   2
  -9   4   1  206.82   22.77   2
   9  -4   1  224.31   23.31   2
   9   4   1  202.63   25.57   2
  -9  -4   1  192.71   23.73   2
  -9   4   2  482.94   35.79   2
   9  -4   2  485.44   33.17   2
  -9  -4   2  558.52   40.08   2
   9   4   2  459.47   38.64   2
  -9   4   3  176.58   22.45   2
   9  -4   3  190.21   20.20   2
   9   4   3  160.63   22.02   2
  -9   4   4  473.16   37.88   2
   9  -4   4  453.55   30.86   2
   9   4   4  512.06   39.62   2
  -9   4   5  139.37   20.95   2
   9  -4   5  118.01   15.24   2
   9   4   5  153.55   21.92   2
  -9  -4   5  179.14   26.29   2
  -9   4   6  282.36   30.63   2
   9  -4   6  308.84   24.70   2
   9   4   6  336.55   32.33   2
  -9  -4   6   391.5   38.45   2
  -9   4   7   92.81   17.79   2
   9  -4   7   89.92   13.26   2
  -9  -4   7  106.92   21.23   2
   9  -4   8  241.35   21.81   2
   9  -4   9   80.91   12.62   2
   9  -5  -6  274.38   24.02   2
   9   5  -5   44.32   14.36   2
  -9  -5  -5   37.14   10.41   2
   9  -5  -5   21.47    5.87   2
  -9  -5  -4  342.49   29.35   2
   9  -5  -4  370.77   26.18   2
  -9   5  -3   49.43   10.83   2
   9   5  -3   48.31   13.08   2
  -9  -5  -3   33.69   11.56   2
  -9  -5  -3   28.53    7.48   2
   9  -5  -3   33.17    7.33   2
  -9   5  -2  299.59   27.81   2
   9   5  -2  368.53   38.45   2
  -9  -5  -2  301.53   28.90   2
  -9  -5  -2  409.93   38.84   2
  -9   5  -1   34.45   10.04   2
   9  -5  -1   38.94    9.86   2
  -9  -5  -1    33.7    9.09   2
   9   5  -1   57.86   14.87   2
  -9  -5  -1   49.83   14.10   2
  -9   5   0  373.66   31.94   2
   9  -5   0  435.63   36.36   2
   9   5   0   418.4   39.38   2
  -9  -5   0  392.03   34.75   2
  -9   5   1   40.45   10.27   2
   9  -5   1   43.02   10.53   2
  -9  -5   1   53.01   13.28   2
   9   5   1   51.46   13.37   2
  -9  -5   1    25.3   11.14   2
  -9   5   2  343.04   32.15   2
   9  -5   2  355.31   30.64   2
  -9  -5   2  411.26   35.98   2
   9   5   2  324.06   33.42   2
  -9   5   3   36.91   11.51   2
  -9  -5   3    29.5   11.49   2
   9  -5   3   40.48    9.20   2
   9   5   3   51.21   12.86   2
  -9   5   4  334.93   33.41   2
   9  -5   4  365.21   30.23   2
   9   5   4  392.42   36.34   2
  -9   5   5   38.16   11.81   2
   9  -5   5   31.53    8.35   2
  -9  -5   5   57.17   17.19   2
   9  -5   6  270.85   25.19   2
   9  -6  -4  186.07   19.36   2
  -9   6  -2  226.91   27.37   2
  -9  -6  -2  227.56   27.00   2
  -9   6  -1    4.64    6.88   2
  -9  -6  -1    0.89    5.37   2
  -9   6   0  237.91   27.82   2
  -9  -6   0  223.89   28.14   2
  -9  -6   1   -1.99    4.42   2
  -9  -6   2  263.18   29.99   2
 -10   0 -11    6.25    2.78   2
  10   0 -10  290.15   28.31   2
 -10   0 -10  281.93   25.42   2
  10   0  -9   -1.39    3.95   2
 -10   0  -9   -1.55    2.52   2
  10   0  -8  482.81   34.89   2
 -10   0  -8  420.54   30.38   2
  10   0  -7    -4.2    4.66   2
 -10   0  -7   -3.16    5.43   2
  10   0  -6  473.77   34.20   2
 -10   0  -6  453.13   31.74   2
  10   0  -5   -1.57    3.72   2
 -10   0  -5   -1.38    3.72   2
  10   0  -4  901.06   47.03   2
 -10   0  -4  858.16   43.71   2
 -10   0  -3    2.03    1.37   2
 -10   0  -3    2.24    2.08   2
  10   0  -3    2.62    2.64   2
 -10   0  -3    -1.8    3.89   2
  10   0  -2  953.61   46.83   2
 -10   0  -2 1023.56   37.34   2
 -10   0  -2 1048.23   33.29   2
 -10   0  -1   -2.05    1.88   2
 -10   0  -1    0.32    2.05   2
 -10   0  -1    1.24    1.84   2
 -10   0   0 1504.93   44.80   2
  10   0   0 1520.85   58.21   2
  10   0   1    4.73    4.33   2
 -10   0   1   -2.02    2.26   2
  10   0   2   773.9   41.14   2
 -10   0   2 1023.84   37.41   2
 -10   0   3   -2.62    2.70   2
  10   0   3   -4.61    5.15   2
  10   0   4  731.31   37.84   2
 -10   0   4 1052.29   40.87   2
 -10   0   5   -1.83    2.69   2
  10   0   5    1.76    3.11   2
 -10   0   6  584.37   34.28   2
  10   0   6  589.47   32.66   2
 -10   0   7   -2.07    4.18   2
 -10   0   8  510.71   35.02   2
 -10   0   9   -0.42    3.15   2
 -10   0  10  347.56   32.98   2
 -10   0  11   -1.56    3.75   2
 -10   0  12  223.81   28.77   2
 -10  -1 -11   12.17    5.38   2
  10  -1 -10  218.84   23.31   2
  10   1 -10  219.71   26.73   2
 -10  -1 -10  209.89   21.71   2
  10  -1  -9   26.71    9.19   2
  10   1  -9   17.26    8.09   2
 -10   1  -9   25.12    7.58   2
 -10  -1  -9   24.42    7.38   2
  10  -1  -8  381.76   29.10   2
  10   1  -8   420.2   35.81   2
 -10   1  -8  370.95   28.48   2
 -10  -1  -8  377.78   28.37   2
  10  -1  -7   41.28    9.08   2
  10   1  -7    50.6   11.44   2
 -10   1  -7   58.13   11.17   2
 -10  -1  -7   45.69   10.18   2
  10  -1  -6  462.62   31.00   2
  10   1  -6  481.49   37.34   2
 -10   1  -6  514.62   32.42   2
 -10  -1  -6  464.79   31.48   2
  10  -1  -5   53.24   10.29   2
  10   1  -5   66.37   13.65   2
 -10  -1  -5   61.01   11.06   2
 -10   1  -4  522.01   18.93   2
  10   1  -4  608.25   39.76   2
 -10  -1  -4  555.31   35.50   2
 -10   1  -3   93.92   10.98   2
 -10   1  -3   76.68    8.17   2
 -10   1  -3  103.15    9.38   2
  10  -1  -3   65.22   11.16   2
  10   1  -3   95.86   15.57   2
 -10  -1  -3   84.32   13.71   2
 -10  -1  -3  101.57    8.09   2
 -10   1  -2  648.01   27.53   2
 -10   1  -2  660.24   23.18   2
  10  -1  -2  491.47   31.43   2
  10   1  -2  801.89   45.13   2
 -10   1  -2  714.63   23.65   2
 -10  -1  -2  584.08   36.81   2
 -10   1  -2  717.49   32.23   2
 -10   1  -1   60.65    9.23   2
 -10  -1  -1   69.92    8.93   2
 -10   1  -1   73.96   10.38   2
  10  -1  -1    56.8   10.26   2
  10   1  -1   81.13   14.74   2
 -10  -1  -1    74.5   12.79   2
 -10   1  -1   86.26    7.26   2
 -10  -1  -1    76.5   11.40   2
 -10   1  -1   74.99    7.07   2
 -10  -1   0  828.46   38.44   2
  10  -1   0   632.1   34.68   2
  10   1   0  870.11   47.02   2
 -10  -1   0  705.57   31.06   2
 -10   1   0  799.09   23.73   2
 -10   1   0  569.25   30.42   2
 -10   1   1   64.06   10.67   2
 -10  -1   1    82.8   12.14   2
 -10   1   1   76.88    7.08   2
  10  -1   1   77.83   11.98   2
  10   1   1    93.2   15.50   2
  10  -1   2  594.82   32.11   2
  10   1   2  742.03   42.51   2
 -10   1   2  687.71   24.61   2
 -10   1   2  616.06   34.18   2
 -10   1   3   98.37   14.12   2
  10  -1   3    73.5   10.50   2
 -10   1   3   83.11    8.82   2
  10   1   3  102.78   15.53   2
 -10  -1   3   105.8   14.10   2
 -10   1   4  610.23   27.39   2
  10  -1   4  635.77   29.94   2
 -10   1   4  683.28   38.26   2
 -10   1   5   73.18   12.84   2
 -10   1   5   75.08   10.35   2
  10  -1   5   65.58    9.63   2
 -10  -1   5    80.5   12.89   2
  10  -1   5   73.33    9.33   2
  10   1   5   72.13   12.53   2
 -10   1   6  576.48   31.64   2
  10  -1   6  554.09   27.20   2
  10   1   6  564.39   35.86   2
 -10  -1   6  573.48   36.49   2
 -10   1   6  577.19   38.28   2
 -10   1   7   57.25   12.72   2
 -10  -1   7   41.21    9.47   2
 -10   1   7   47.59    9.79   2
 -10   1   8   408.9   30.15   2
 -10  -1   8  416.45   33.98   2
 -10   1   8  483.68   38.08   2
 -10  -1   9    20.4    8.33   2
 -10   1   9   21.81    9.34   2
 -10   1   9   18.43    8.30   2
 -10   1  10  240.12   25.54   2
 -10  -1  10  228.96   26.92   2
 -10   1  10  267.92   30.65   2
 -10   1  11   18.03    8.40   2
 -10  -1  11   16.09    7.25   2
  10  -2 -10  145.09   18.49   2
 -10  -2 -10  138.12   17.99   2
  10  -2  -9    61.8   11.99   2
  10   2  -9   62.27   15.76   2
 -10  -2  -9   58.43   11.12   2
  10  -2  -8  164.82   18.40   2
  10   2  -8  189.32   26.11   2
 -10  -2  -8  188.63   20.29   2
  10  -2  -7    92.7   13.57   2
  10   2  -7   99.82   17.90   2
 -10  -2  -7   81.29   13.04   2
  10  -2  -6   197.6   19.46   2
  10   2  -6  234.73   27.23   2
 -10  -2  -6   202.3   20.80   2
  10  -2  -5   73.46   11.26   2
  10   2  -5   96.29   17.21   2
 -10  -2  -5   93.28   13.86   2
  10  -2  -4  253.28   21.35   2
 -10   2  -4  322.27   18.92   2
 -10  -2  -4   312.3   26.67   2
  10  -2  -3  120.86   14.48   2
 -10   2  -3  142.41   13.28   2
 -10  -2  -3  133.36   17.91   2
 -10   2  -2  275.75   19.73   2
  10  -2  -2  312.73   23.42   2
 -10  -2  -2  263.92   25.35   2
 -10   2  -1   218.2   18.91   2
  10  -2  -1  243.45   19.60   2
  10   2  -1  290.26   28.85   2
 -10  -2  -1  208.99   22.71   2
 -10  -2  -1  283.26   24.46   2
  10  -2   0  478.54   26.68   2
 -10  -2   0   510.3   33.33   2
  10   2   0  552.01   40.58   2
 -10  -2   1  270.88   25.46   2
  10  -2   1  279.64   19.79   2
  10   2   1  259.43   27.06   2
 -10  -2   2  443.93   32.05   2
 -10   2   2  263.62   23.36   2
  10  -2   2  368.55   20.85   2
  10   2   2  338.59   30.68   2
  10   2   3  145.64   19.61   2
  10  -2   3   151.5   11.63   2
 -10  -2   3  185.24   20.81   2
 -10   2   3  165.59   18.93   2
  10   2   4  332.85   29.64   2
 -10   2   4  374.99   29.69   2
 -10   2   5    77.7   14.10   2
  10  -2   5   64.44    9.97   2
 -10  -2   5   84.83   15.32   2
  10   2   5   92.27   14.84   2
  10  -2   6  248.69   19.24   2
  10   2   6  219.03   24.54   2
 -10  -2   6  297.06   28.81   2
 -10   2   6  229.49   24.50   2
 -10   2   7  104.23   17.20   2
  10  -2   7   99.75   12.15   2
 -10  -2   7  123.03   19.85   2
  10   2   7   97.74   16.16   2
 -10  -2   8  235.17   26.79   2
 -10   2   8  234.36   26.51   2
 -10  -2   9   69.48   15.57   2
 -10   2   9   49.18   13.59   2
 -10  -2  10  150.19   23.72   2
  10  -3  -9   36.61    8.87   2
  10  -3  -8   66.45   11.96   2
  10   3  -8   68.76   16.95   2
 -10  -3  -8   60.14   11.32   2
  10  -3  -7   82.05   12.42   2
  10   3  -7  103.82   19.95   2
 -10  -3  -7   79.13   13.23   2
  10  -3  -6   52.75    9.61   2
  10   3  -6   66.28   15.61   2
 -10  -3  -6   46.71    9.95   2
  10  -3  -5  116.26   14.10   2
 -10  -3  -5  116.09   16.52   2
  10   3  -5  137.91   22.16   2
 -10   3  -4   62.44   10.14   2
  10  -3  -4   56.15    9.70   2
  10   3  -4   80.88   16.73   2
 -10  -3  -4   48.48   10.26   2
  10  -3  -3  121.25   13.49   2
 -10   3  -3  134.15   14.85   2
 -10  -3  -3   111.7   16.46   2
 -10  -3  -2   54.72   11.66   2
 -10   3  -2   63.13   10.45   2
  10  -3  -2   65.07    9.97   2
  10   3  -2   88.34   17.54   2
 -10  -3  -2   57.57   12.36   2
  10  -3  -1  123.08   12.50   2
 -10   3  -1   68.09   11.08   2
 -10  -3  -1   110.2   17.02   2
 -10  -3  -1   96.06   15.80   2
 -10   3   0   32.03    8.16   2
 -10  -3   0   46.79   11.11   2
 -10  -3   0    33.2   10.10   2
 -10   3   1  108.39   15.71   2
  10  -3   1  111.73   15.97   2
  10   3   1  142.58   21.65   2
 -10  -3   1   89.04   15.63   2
 -10  -3   1  135.73   19.77   2
 -10   3   2    66.9   12.98   2
  10  -3   2      58   11.55   2
 -10  -3   2   71.62   14.10   2
  10   3   2   64.47   13.95   2
 -10   3   3  137.14   18.68   2
  10  -3   3  127.78   16.04   2
  10   3   3  126.17   19.35   2
 -10  -3   3   184.1   22.92   2
 -10   3   4   67.34   13.37   2
  10  -3   4   37.85    8.04   2
  10   3   4   48.25   11.34   2
 -10  -3   4   71.05   14.87   2
 -10   3   5  107.81   17.57   2
  10  -3   5  124.07   15.20   2
 -10  -3   5  150.32   21.94   2
  10   3   5  104.66   17.73   2
 -10   3   6   57.07   13.04   2
  10  -3   6   43.04    9.36   2
 -10  -3   6   51.66   13.04   2
  10   3   6   39.68   11.60   2
 -10   3   7   90.83   16.93   2
  10  -3   7   73.27   11.14   2
 -10  -3   7   75.88   16.36   2
  10   3   7   82.79   16.31   2
 -10   3   8   41.78   10.34   2
  10  -3   8   59.55   10.34   2
 -10  -3   8   54.15   14.35   2
 -10  -3   9   40.48   12.96   2
  10  -4  -9   20.75    7.86   2
  10  -4  -8   34.25    8.72   2
  10  -4  -7   18.69    6.32   2
  10   4  -6   40.34   14.47   2
 -10  -4  -6   30.49    9.23   2
  10   4  -5   13.85    9.44   2
 -10  -4  -5   23.64    7.75   2
  10   4  -4   11.96    8.44   2
 -10  -4  -4    3.91    5.74   2
 -10   4  -3   28.31    8.20   2
  10   4  -3   17.36    8.67   2
 -10  -4  -3   22.07    8.43   2
 -10  -4  -2   -2.11    3.84   2
 -10   4  -2   11.05    6.00   2
  10   4  -2    4.26    7.61   2
 -10  -4  -2   -4.47    6.64   2
 -10   4  -1   21.77    6.41   2
 -10  -4  -1   20.62    7.67   2
  10   4  -1   40.16   12.87   2
 -10  -4  -1   35.75   10.67   2
 -10   4   0    1.58    3.27   2
 -10  -4   0    3.72    3.41   2
  10  -4   0    4.44    3.41   2
 -10  -4   0   -0.36    5.01   2
  10   4   0    1.53    5.08   2
 -10   4   1      21    7.36   2
  10  -4   1   31.84   10.39   2
 -10  -4   1   37.45   11.31   2
 -10  -4   1   37.48   13.11   2
  10   4   1   29.16    9.75   2
 -10   4   2    -3.4    3.96   2
  10  -4   2     0.7    4.20   2
 -10  -4   2   -0.51    4.86   2
  10   4   2    1.12    4.14   2
 -10   4   3   17.52    6.09   2
 -10  -4   3   20.33    7.21   2
  10  -4   3   15.45    7.02   2
  10   4   3    7.57    6.28   2
 -10   4   4    2.56    3.68   2
  10  -4   4    8.48    4.66   2
  10   4   4   17.65    7.13   2
 -10  -4   4    8.78    8.66   2
 -10   4   5    1.88    6.84   2
  10  -4   5    5.95    2.75   2
 -10  -4   5    4.17    4.33   2
  10   4   5     5.1    6.59   2
 -10   4   6    25.1    9.38   2
  10  -4   6   26.68    8.22   2
 -10  -4   6   45.51   13.92   2
  10   4   6   28.68   10.30   2
  10  -4   7    7.25    4.85   2
  10  -4   8   31.28    8.49   2
  10  -5  -5   -2.58    3.66   2
  10  -5  -4   15.91    5.15   2
 -10  -5  -3   -0.69    5.56   2
 -10  -5  -3    5.07    4.00   2
 -10   5  -2    4.97    4.67   2
 -10  -5  -2   12.12    7.35   2
 -10  -5  -2   10.51    7.46   2
  10   5  -2    -1.7    7.09   2
 -10   5  -1   10.21    7.11   2
 -10  -5  -1    12.8    8.88   2
 -10  -5  -1    2.78    5.75   2
  10   5  -1    5.65    4.72   2
 -10  -5   0    6.97    5.84   2
 -10   5   0   -0.64    5.41   2
  10  -5   0    6.56    6.25   2
 -10  -5   0   -1.91    5.51   2
  10   5   0   -2.94    8.66   2
 -10   5   1     2.8    4.04   2
  10  -5   1    4.63    3.14   2
 -10  -5   1   -1.42    3.93   2
 -10  -5   1    9.05    6.13   2
  10   5   1    0.32    5.49   2
 -10   5   2    5.28    4.82   2
  10  -5   2   11.45    6.98   2
 -10  -5   2   -4.86    4.90   2
  10   5   2    7.85    5.52   2
 -10   5   3   10.64    7.86   2
  10  -5   3    0.75    3.73   2
  10  -5   4   15.82    6.30   2
 -10  -6   1    49.5   12.64   2
 -11   0 -11   -5.16    5.98   2
 -11   0 -10   44.44   10.68   2
  11   0  -9   -2.24    5.31   2
 -11   0  -9   -5.82    5.75   2
  11   0  -8    40.3   10.04   2
 -11   0  -8   24.57    7.59   2
  11   0  -7   -6.09    6.85   2
 -11   0  -7    1.59    4.02   2
  11   0  -6   40.71   10.35   2
 -11   0  -6   26.94    7.77   2
  11   0  -5   -3.17    3.53   2
 -11   0  -5    2.59    2.91   2
  11   0  -4   20.82    7.60   2
 -11   0  -4   20.22    8.00   2
  11   0  -3    7.87    6.00   2
 -11   0  -2    0.51    1.51   2
 -11   0  -2    3.52    2.89   2
 -11   0  -1    -0.6    2.50   2
  11   0  -1    3.79    3.76   2
 -11   0  -1    6.29    3.67   2
 -11   0   0    2.01    2.31   2
 -11   0   0    3.49    2.86   2
  11   0   0    1.63    2.90   2
 -11   0   1   -0.44    3.13   2
  11   0   1   -2.93    3.78   2
 -11   0   1    6.55    3.08   2
 -11   0   2   -1.47    2.44   2
  11   0   2   -2.15    2.26   2
 -11   0   3    4.18    2.93   2
  11   0   3   10.61    5.96   2
 -11   0   4   23.87    6.12   2
  11   0   4   25.73    7.02   2
 -11   0   5    4.09    3.96   2
  11   0   5   -1.21    3.36   2
 -11   0   6   41.84    8.95   2
  11   0   6   50.77    9.77   2
 -11   0   7    5.63    3.99   2
 -11   0   8    53.8   11.41   2
 -11   0   9     3.2    4.92   2
 -11   0  10   77.55   15.89   2
 -11   0  11    8.05    6.56   2
 -11  -1 -10   39.61    9.97   2
  11  -1  -9    28.8    8.20   2
 -11   1  -9   33.23    8.84   2
 -11  -1  -9   31.48    9.21   2
  11  -1  -8      25    8.09   2
  11   1  -8   22.65    9.09   2
 -11   1  -8   38.96    9.78   2
 -11  -1  -8   34.34    9.17   2
  11  -1  -7    62.8   11.98   2
  11   1  -7   63.41   14.20   2
 -11   1  -7   62.02   11.70   2
 -11  -1  -7    52.7   11.24   2
  11  -1  -6   37.87    9.40   2
  11   1  -6   38.21   10.57   2
 -11  -1  -6   29.24    8.73   2
  11  -1  -5   62.07   11.43   2
  11   1  -5   78.31   15.22   2
 -11  -1  -5   63.72   12.31   2
  11  -1  -4   21.48    7.18   2
  11   1  -4   27.02    8.01   2
 -11  -1  -4   12.47    5.28   2
  11  -1  -3    76.8   13.00   2
 -11  -1  -3   94.34   14.99   2
 -11  -1  -2   36.29    6.06   2
 -11   1  -2   34.42    6.24   2
 -11   1  -2   30.63    4.63   2
  11  -1  -2   26.35    7.04   2
  11   1  -2   48.15   12.01   2
 -11  -1  -2   22.75    6.17   2
 -11  -1  -2   32.01    9.29   2
 -11   1  -1  112.36   12.80   2
  11  -1  -1   87.23   13.42   2
  11   1  -1  125.15   18.24   2
 -11  -1  -1  116.07   14.23   2
 -11   1  -1  105.96    8.19   2
 -11   1   0    8.35    4.10   2
 -11   1   0    6.43    1.88   2
 -11  -1   0    3.27    3.42   2
  11  -1   0    4.11    3.89   2
  11   1   0    8.56    5.37   2
 -11   1   1   71.31   11.60   2
  11  -1   1   117.2   15.04   2
 -11   1   1    89.3    7.79   2
  11   1   1  111.99   17.35   2
 -11  -1   1   115.2   14.77   2
 -11   1   2   32.81    5.04   2
 -11   1   2   29.26    7.55   2
  11  -1   2   30.01    6.77   2
  11   1   2      37   10.17   2
 -11  -1   2   33.48    7.75   2
  11  -1   3   128.3   14.61   2
 -11   1   3  121.97   11.03   2
 -11  -1   3  142.56   16.29   2
  11   1   3   127.5   17.41   2
 -11   1   3  137.94   16.69   2
 -11   1   4   24.09    8.06   2
 -11  -1   4   16.33    5.48   2
  11   1   4   23.92    7.12   2
  11  -1   4   25.89    6.38   2
 -11   1   4   21.94    5.41   2
 -11   1   5   83.08   14.05   2
 -11   1   5   80.22   10.63   2
 -11  -1   5  101.17   14.41   2
  11  -1   5    76.9   10.51   2
  11   1   5   72.21   13.36   2
 -11   1   6   46.89   11.67   2
 -11  -1   6   32.48    8.46   2
  11   1   6   25.33    6.43   2
 -11   1   7   77.84   15.20   2
 -11  -1   7   88.52   15.45   2
 -11  -1   8   47.07   12.26   2
 -11   1   8   43.39   11.98   2
 -11   1   9    38.8   11.76   2
 -11  -1   9   24.13    8.40   2
 -11  -1  10   42.33   11.81   2
  11  -2  -9   80.11   13.91   2
  11  -2  -8    50.9   11.11   2
  11   2  -8   72.15   15.73   2
 -11  -2  -8   52.83   11.88   2
  11  -2  -7   116.4   15.97   2
  11   2  -7  155.01   22.62   2
 -11  -2  -7  119.39   17.10   2
  11  -2  -6   76.74   12.90   2
  11   2  -6   92.53   17.15   2
 -11  -2  -6    73.8   13.59   2
  11  -2  -5  153.63   18.01   2
 -11  -2  -5  147.09   19.22   2
  11  -2  -4   74.13   11.84   2
  11   2  -4    84.3   16.61   2
 -11  -2  -4   70.74   13.23   2
 -11   2  -3  218.34   16.84   2
  11  -2  -3  200.26   20.24   2
 -11  -2  -3  198.41   23.17   2
 -11   2  -2   81.98   10.86   2
  11  -2  -2   90.95   12.66   2
 -11  -2  -2   65.53   13.14   2
 -11  -2  -2   80.34   13.08   2
 -11   2  -1  311.87   22.93   2
  11  -2  -1  363.51   24.77   2
  11   2  -1  403.97   34.62   2
 -11  -2  -1  343.51   27.41   2
 -11  -2  -1  300.31   28.16   2
 -11   2   0   99.85   13.50   2
  11  -2   0     133   14.32   2
  11   2   0  142.94   21.28   2
 -11  -2   0  107.15   15.41   2
 -11   2   1  340.52   26.40   2
 -11  -2   1  407.78   30.36   2
  11  -2   1  388.39   23.96   2
  11   2   1  412.96   34.95   2
 -11   2   2     107   15.23   2
 -11  -2   2  105.37   15.43   2
  11   2   2  104.63   17.63   2
  11   2   3  214.23   25.29   2
 -11  -2   3  299.54   27.08   2
 -11   2   3   241.5   23.30   2
 -11   2   4   91.84   14.46   2
  11  -2   4   89.11   13.10   2
 -11  -2   4   98.35   15.82   2
  11   2   4   79.01   14.86   2
  11  -2   5  160.61   16.95   2
  11   2   5  153.74   20.98   2
 -11  -2   5  200.83   23.16   2
 -11   2   5   177.9   20.85   2
 -11   2   6   88.36   15.83   2
  11  -2   6   74.73   11.27   2
 -11  -2   6   87.72   16.17   2
  11   2   6    74.4   14.72   2
  11   2   7  152.78   21.27   2
 -11  -2   7  167.55   21.75   2
 -11   2   7  156.56   21.47   2
 -11   2   8   69.68   14.75   2
 -11  -2   8    80.1   16.12   2
 -11  -2   9  126.79   21.18   2
  11  -3  -9   92.68   14.43   2
  11  -3  -8  101.66   15.36   2
  11  -3  -7  126.61   16.46   2
 -11  -3  -7  131.22   18.24   2
  11  -3  -6  144.28   17.09   2
  11   3  -6  156.76   24.65   2
 -11  -3  -6  116.32   17.21   2
  11  -3  -5  201.75   19.79   2
  11   3  -5  251.93   29.98   2
 -11  -3  -5  180.99   21.22   2
  11  -3  -4  199.12   19.20   2
 -11  -3  -4  187.09   22.03   2
  11  -3  -3  220.05   19.87   2
 -11   3  -3  219.19   19.30   2
 -11  -3  -3  209.68   24.32   2
 -11   3  -2  185.88   18.41   2
 -11  -3  -2  156.29   21.22   2
 -11  -3  -2   188.9   22.02   2
 -11   3  -1  236.42   21.51   2
 -11  -3  -1  270.59   26.51   2
 -11  -3  -1  204.21   24.43   2
 -11   3   0   219.6   21.80   2
 -11  -3   0   263.9   26.78   2
  11   3   0  280.59   30.19   2
 -11  -3   0  230.33   25.73   2
 -11   3   1  242.45   23.78   2
 -11  -3   1  296.38   28.74   2
  11   3   1   282.9   30.59   2
 -11  -3   2   243.3   26.54   2
 -11   3   2  204.54   22.41   2
  11   3   2  252.05   28.98   2
 -11   3   3  258.74   25.90   2
  11  -3   3  227.96   22.79   2
  11   3   3   292.6   30.65   2
 -11  -3   3  313.12   30.65   2
 -11   3   4  225.43   25.09   2
  11  -3   4  179.66   19.79   2
  11   3   4  183.74   24.55   2
 -11  -3   4  248.14   27.44   2
 -11   3   5   214.3   24.97   2
  11  -3   5  178.49   19.11   2
  11   3   5  187.63   24.95   2
 -11   3   6  155.14   21.54   2
  11  -3   6   132.4   15.94   2
 -11  -3   6   194.5   25.47   2
  11   3   6  119.08   20.31   2
 -11   3   7   133.2   20.76   2
  11  -3   7  121.33   15.25   2
  11   3   7  135.25   21.78   2
 -11  -3   8  117.14   20.67   2
  11   4  -4  407.54   40.24   2
 -11  -4  -4  220.39   25.42   2
 -11  -4  -3  120.29   19.44   2
 -11  -4  -3  119.27   18.57   2
 -11   4  -2  285.28   25.40   2
  11   4  -2   430.2   41.06   2
 -11  -4  -2  375.34   34.16   2
 -11  -4  -2  314.57   31.33   2
 -11   4  -1  146.13   18.81   2
  11   4  -1  160.45   24.53   2
 -11  -4  -1  168.33   22.70   2
 -11  -4  -1   126.8   20.25   2
 -11   4   0  311.01   28.27   2
 -11  -4   0  433.94   37.26   2
  11   4   0  490.49   42.52   2
 -11  -4   0     338   32.40   2
 -11   4   1  139.19   19.39   2
 -11  -4   1  213.39   26.68   2
  11  -4   1   142.1   20.49   2
  11   4   1  185.48   26.43   2
 -11  -4   2  401.31   36.42   2
 -11   4   2  350.48   31.50   2
  11  -4   2  291.57   28.46   2
  11   4   2  327.04   35.15   2
 -11   4   3  138.38   19.83   2
  11  -4   3   96.45   16.14   2
  11   4   3  134.68   22.22   2
 -11   4   4  315.96   31.41   2
  11  -4   4  249.62   24.68   2
  11   4   4  278.25   31.42   2
 -11   4   5   93.97   17.53   2
  11  -4   5   63.65   12.21   2
 -11  -4   5  100.01   19.89   2
  11  -4   6  184.44   20.84   2
  11  -4   7   80.03   13.56   2
 -11   5  -2   208.4   23.51   2
 -11   5  -1   36.11    9.96   2
 -11   5   0  204.49   24.74   2
 -11  -5   0  193.89   26.19   2
 -11   5   1   42.31   11.87   2
 -11  -5   1   37.55   12.32   2
 -11   5   2  234.75   27.97   2
 -12   0 -10  196.81   23.42   2
 -12   0  -9   -1.71    4.03   2
  12   0  -8  369.39   34.33   2
 -12   0  -8  313.74   29.10   2
  12   0  -7    0.02    3.45   2
 -12   0  -7    1.14    3.50   2
  12   0  -6  496.36   38.52   2
 -12   0  -6   520.3   36.05   2
  12   0  -5    1.14    5.08   2
 -12   0  -5    0.21    4.10   2
  12   0  -4  784.26   46.45   2
 -12   0  -3    2.54    1.79   2
  12   0  -3    3.27    5.75   2
  12   0  -2 1164.85   54.74   2
 -12   0  -2 1190.25   40.84   2
 -12   0  -1    0.47    2.11   2
 -12   0  -1    2.24    1.39   2
  12   0  -1    1.61    5.44   2
 -12   0   0 1308.06   41.83   2
 -12   0   0 1317.43   46.53   2
 -12   0   1   -0.01    3.15   2
 -12   0   1     0.1    2.01   2
  12   0   1   -4.67    5.74   2
  12   0   2 1256.06   54.22   2
 -12   0   2 1234.45   42.36   2
 -12   0   2 1101.96   46.96   2
 -12   0   3    3.46    3.89   2
  12   0   3    9.89    6.05   2
  12   0   4  866.26   44.32   2
 -12   0   4   907.1   38.30   2
 -12   0   5    3.16    3.21   2
  12   0   5    2.53    3.97   2
 -12   0   6  660.45   35.92   2
  12   0   6  552.83   34.82   2
  12  -1  -8  287.33   28.46   2
 -12  -1  -8  277.32   27.78   2
  12  -1  -7    16.3    6.33   2
  12   1  -7   24.24    9.44   2
 -12  -1  -7    7.13    3.81   2
  12  -1  -6  456.37   35.28   2
  12   1  -6  461.16   37.79   2
 -12  -1  -6  402.35   33.12   2
  12  -1  -5   30.52    8.16   2
  12   1  -5   14.44    6.34   2
 -12  -1  -5   21.09    8.06   2
  12  -1  -4  622.91   39.70   2
  12   1  -4  733.99   46.14   2
 -12  -1  -4  605.19   39.97   2
 -12  -1  -3   28.28    6.70   2
  12  -1  -3   40.91    9.84   2
  12   1  -3   38.03   11.29   2
 -12  -1  -3   28.11    8.88   2
  12  -1  -2  721.54   40.51   2
  12   1  -2  839.97   48.30   2
 -12  -1  -2  792.99   38.00   2
 -12   1  -1   25.54    6.15   2
  12  -1  -1   35.91    8.84   2
  12   1  -1   44.28   11.42   2
 -12  -1  -1   18.96    4.94   2
 -12   1   0  1037.7   42.59   2
 -12  -1   0 1030.04   43.53   2
  12  -1   0 1055.93   47.08   2
  12   1   0 1064.32   54.85   2
 -12  -1   1   28.64    7.38   2
 -12   1   1   19.49    6.33   2
  12  -1   1   29.23    7.20   2
  12   1   1   36.92   10.11   2
  12  -1   2  841.39   40.05   2
  12   1   2   815.6   46.78   2
 -12  -1   2  852.79   40.29   2
 -12   1   2  805.42   40.48   2
 -12   1   3    36.1    8.76   2
 -12  -1   3   45.19    9.09   2
  12   1   3   48.21   11.74   2
  12  -1   3   43.73    9.04   2
  12   1   4  736.37   44.52   2
 -12  -1   4  812.74   41.48   2
 -12   1   4  704.37   40.30   2
 -12   1   5   37.76   10.47   2
 -12  -1   5   32.45    8.07   2
  12   1   5   32.05    9.74   2
  12   1   6  404.95   33.17   2
 -12  -1   6   508.1   34.11   2
 -12   1   6  515.34   36.34   2
 -12  -1   7   30.55    9.63   2
 -12   1   7   26.62    9.01   2
  12   1   7   15.46    5.65   2
 -12  -1   8  353.04   31.15   2
 -12   1   8  331.41   31.90   2
 -12  -1   9    3.91    4.64   2
  12  -2  -8  144.48   19.25   2
  12  -2  -7      30    8.04   2
 -12  -2  -7   28.22    8.27   2
  12  -2  -6  214.89   23.32   2
 -12  -2  -6  192.95   23.00   2
  12  -2  -5      34    9.28   2
  12   2  -5   49.32   13.97   2
 -12  -2  -5   25.22    8.60   2
  12  -2  -4  297.41   26.48   2
 -12  -2  -4  295.95   28.89   2
  12  -2  -3   49.21   10.06   2
  12   2  -3   55.57   13.80   2
 -12  -2  -3   35.97   10.22   2
 -12  -2  -3   49.29   10.79   2
  12  -2  -2  448.15   29.47   2
  12   2  -2  528.59   40.48   2
 -12  -2  -2  442.88   31.57   2
 -12  -2  -2  402.11   33.58   2
 -12   2  -1   92.85   12.46   2
 -12  -2  -1   75.22   12.95   2
  12  -2  -1   88.31   12.26   2
  12   2  -1   76.65   16.00   2
 -12   2   0  504.28   31.11   2
 -12  -2   0  522.47   34.81   2
  12   2   0     563   41.46   2
 -12   2   1   72.08   12.59   2
 -12  -2   1   72.32   13.08   2
  12   2   1    77.7   14.79   2
 -12   2   2  468.39   32.78   2
  12   2   2  509.44   39.01   2
 -12  -2   2  505.52   34.30   2
 -12   2   3   45.32   10.59   2
  12   2   3   73.71   15.16   2
 -12  -2   3   56.07   11.36   2
  12   2   4  371.19   34.00   2
 -12  -2   4  390.76   30.94   2
 -12   2   4  338.13   28.46   2
 -12   2   5   39.36    9.84   2
 -12  -2   5   41.32   10.80   2
  12   2   5   40.09   10.59   2
  12   2   6  239.53   27.30   2
 -12  -2   6  290.67   28.57   2
 -12   2   6  241.67   25.31   2
 -12   2   7    49.5   11.96   2
 -12  -2   7   55.23   13.23   2
  12   2   7   47.45   11.93   2
 -12  -2   8  194.15   25.04   2
  12  -3  -8   40.76   10.24   2
  12  -3  -7   26.86    7.82   2
  12   3  -4   106.7   19.96   2
 -12  -3  -4   76.73   14.77   2
 -12  -3  -3   37.04   10.19   2
  12   3  -3   44.88   12.86   2
 -12  -3  -3   17.72    7.60   2
  12   3  -2  144.65   22.42   2
 -12  -3  -2  121.58   19.56   2
 -12  -3  -2  111.79   17.27   2
 -12   3  -1   31.85    8.49   2
 -12  -3  -1   32.74    9.96   2
 -12  -3  -1    21.2    9.45   2
  12   3  -1   47.32   12.97   2
 -12   3   0  122.82   16.38   2
  12   3   0  129.07   21.01   2
 -12  -3   0  127.87   19.13   2
 -12   3   1   45.38   11.03   2
 -12  -3   1    27.3    8.41   2
  12   3   1   34.14    9.21   2
 -12   3   2  144.07   19.20   2
  12   3   2  134.68   22.03   2
 -12  -3   2  149.33   20.93   2
 -12   3   3   46.65   11.28   2
  12   3   3   37.95   12.27   2
 -12  -3   3   50.13   12.73   2
 -12   3   4  108.86   17.18   2
  12  -3   4   85.55   14.48   2
 -12  -3   4  113.27   18.50   2
  12   3   4   86.47   17.35   2
 -12   3   5   39.15   11.43   2
  12  -3   5   39.28   10.11   2
 -12  -3   5   52.31   13.04   2
  12   3   5   36.41   11.35   2
 -12   3   6   87.16   16.18   2
  12  -3   6    73.9   12.74   2
 -12  -3   6   91.49   17.67   2
  12   3   6   61.33   15.08   2
 -12  -3   7   43.22   12.72   2
 -12  -4  -3   -7.76    5.22   2
 -12  -4  -2    6.94    5.06   2
 -12   4  -1    6.98    5.09   2
 -12  -4  -1      -7    5.95   2
 -12  -4  -1    1.93    5.48   2
 -12   4   0    5.61    4.86   2
 -12  -4   0   -1.14    4.64   2
 -12  -4   0   14.34    7.43   2
 -12   4   1    0.47    3.01   2
 -12  -4   1    2.88    5.89   2
 -12   4   2   17.86    6.52   2
 -12  -4   2   29.64   10.72   2
 -12  -4   3   -0.36    4.85   2
 -12   4   3    3.18    3.45   2
  12  -4   3   11.16    6.20   2
 -12   4   4      25    8.88   2
  12  -4   4   17.02    7.21   2
  12  -4   5    3.82    3.09   2
  12  -4   6   22.46    7.37   2
 -12   5   0    7.11    3.39   2
 -13   0  -8   22.68    8.67   2
  13   0  -7   -4.73    6.02   2
 -13   0  -7    4.72    6.00   2
  13   0  -6   12.05    5.70   2
  13   0  -5   -3.93    3.56   2
  13   0  -4    3.09    3.00   2
  13   0  -3   12.37    8.21   2
  13   0  -2    5.08    7.11   2
  13   0  -1    4.35    6.06   2
  13   0   0    0.55    2.80   2
 -13   0   1    7.86    4.62   2
  13   0   1   -4.59    5.17   2
 -13   0   2    2.09    2.09   2
  13   0   2    8.42    5.43   2
 -13   0   3   -2.18    2.45   2
  13   0   3    4.94    4.57   2
 -13   0   4   15.35    6.33   2
  13   0   4   10.95    5.32   2
  13  -1  -7   34.78   10.11   2
  13  -1  -6    7.71    4.19   2
 -13  -1  -6    7.62    5.49   2
  13  -1  -5   20.87    7.31   2
  13   1  -5   55.22   13.10   2
 -13  -1  -5   40.05   10.99   2
 -13  -1  -4   13.02    5.08   2
  13  -1  -4    14.7    6.80   2
  13   1  -4   29.55   10.39   2
 -13  -1  -4   14.13    6.32   2
  13  -1  -3   59.08   12.00   2
  13   1  -3   61.02   13.87   2
 -13  -1  -3    50.5    9.82   2
 -13  -1  -2    8.14    3.73   2
  13  -1  -2    8.78    3.05   2
  13   1  -2   11.75    7.63   2
 -13  -1  -1   63.22   10.99   2
  13  -1  -1   58.82   11.81   2
  13   1  -1   59.36   13.42   2
 -13  -1   0   12.84    6.10   2
  13  -1   0   12.99    4.49   2
  13   1   0    5.49    3.13   2
 -13   1   1    68.1   10.98   2
  13  -1   1   64.15   11.54   2
  13   1   1   61.42   13.24   2
 -13  -1   1   76.77   11.65   2
 -13   1   2   11.93    4.82   2
 -13  -1   2    8.99    3.68   2
  13   1   2    3.42    3.80   2
 -13   1   3   56.26   11.12   2
 -13  -1   3    63.6   11.47   2
  13   1   3   56.16   13.00   2
 -13   1   4   11.24    5.01   2
 -13  -1   4     6.7    2.62   2
  13   1   4    9.06    3.51   2
 -13   1   5   42.42    9.74   2
 -13  -1   5   60.06   11.48   2
  13   1   5   48.25   11.33   2
 -13   1   6   27.08    9.56   2
  13   1   6   24.27    7.63   2
  13   1   7   18.56    7.33   2
  13  -2  -7   66.34   13.35   2
  13  -2  -6   34.46    9.30   2
  13  -2  -5    80.6   14.43   2
  13  -2  -4   37.67    9.34   2
  13   2  -4    58.7   14.16   2
 -13  -2  -4   42.68   11.83   2
 -13  -2  -4   37.87    9.41   2
  13   2  -3  164.31   23.29   2
 -13  -2  -3   136.5   17.42   2
 -13  -2  -3  114.93   18.25   2
 -13  -2  -2   62.65   11.51   2
  13   2  -2    72.4   15.20   2
 -13  -2  -1  172.95   19.57   2
  13   2  -1  208.97   26.49   2
 -13   2   0   51.93   10.37   2
 -13  -2   0   41.81   10.09   2
  13   2   0      70   15.07   2
 -13   2   1  157.97   18.20   2
  13   2   1  179.86   23.37   2
 -13  -2   1  164.54   19.35   2
 -13   2   2   58.58   11.81   2
  13   2   2   63.99   13.47   2
 -13  -2   2   61.06   11.37   2
 -13   2   3   140.4   18.00   2
  13   2   3  172.48   23.38   2
 -13  -2   3  160.32   19.44   2
 -13   2   4   33.88    9.54   2
 -13  -2   4   42.53    9.75   2
  13   2   4   49.31   12.05   2
 -13   2   5   103.1   16.16   2
 -13  -2   5   97.29   15.66   2
  13   2   5   95.82   17.39   2
 -13   2   6   42.03   10.40   2
 -13  -2   6   59.17   13.05   2
  13   2   6   52.77   12.66   2
 -13  -2   7   94.12   16.11   2
  13   2   7    70.2   15.70   2
 -13  -3  -4  105.06   16.44   2
 -13  -3  -3  135.75   19.59   2
 -13  -3  -2  138.41   19.03   2
  13   3  -1  163.75   23.70   2
 -13  -3  -1  132.24   18.39   2
 -13  -3   0  166.78   21.60   2
  13   3   0  170.84   24.32   2
 -13  -3   1  157.19   20.56   2
 -13   3   1  129.22   17.52   2
  13   3   1  175.37   24.59   2
 -13   3   2   139.4   18.86   2
  13   3   2   175.8   25.50   2
 -13  -3   2  153.84   20.33   2
 -13   3   3   140.1   19.23   2
  13   3   3  169.26   24.48   2
 -13  -3   3  156.62   21.42   2
 -13   3   4  120.11   18.95   2
 -13  -3   4  138.49   20.11   2
 -13  -3   5  116.34   18.26   2
 -13   4   1   80.64   15.25   2
 -13   4   2  212.89   25.19   2
  14   0  -5    0.73    3.11   2
  14   0  -4  254.47   27.56   2
  14   0  -3    6.65    5.83   2
  14   0  -2  300.78   28.75   2
  14   0  -1   -4.81    5.82   2
  14   0   0  397.61   31.64   2
  14   0   1   -7.28    6.27   2
  14   0   2  321.49   27.49   2
 -14   0   3    4.06    4.22   2
 -14   0   4  261.72   24.67   2
 -14   0   5   -0.09    2.83   2
 -14   0   6  217.13   24.69   2
  14  -1  -6   146.1   20.84   2
  14  -1  -5   27.86    8.69   2
  14  -1  -4  204.55   23.84   2
  14   1  -4  240.69   27.54   2
  14  -1  -3   36.66   10.40   2
  14   1  -3   24.24    8.98   2
  14  -1  -2  245.55   24.33   2
  14   1  -2   261.4   27.89   2
  14   1  -1   32.15    9.93   2
  14   1   0   243.6   26.37   2
  14   1   1   21.47    6.92   2
  14   1   2  264.37   27.28   2
 -14   1   2  247.19   22.70   2
 -14   1   3   13.06    5.60   2
  14   1   3   26.51    8.65   2
  14   1   4  242.51   26.00   2
 -14   1   4  242.64   23.77   2
 -14   1   5   18.26    7.49   2
  14   1   5      14    7.03   2
  14   2  -2  136.85   21.85   2
 -14  -2  -2   97.89   14.77   2
 -14  -2  -1   73.01   13.07   2
  14   2  -1   70.73   15.54   2
 -14  -2   0  124.19   16.75   2
  14   2   0  141.08   21.48   2
 -14  -2   1   65.45   12.10   2
  14   2   1   55.74   13.10   2
 -14   2   2   122.7   16.57   2
  14   2   2  110.48   19.14   2
 -14  -2   2  111.94   16.24   2
 -14   2   3    62.8   12.81   2
 -14  -2   3   61.92   12.19   2
  14   2   3   65.69   14.84   2
 -14   2   4    87.2   15.12   2
  14   2   4  100.13   18.10   2
 -14   2   5   34.96    9.76   2
  14   2   5   25.29    9.54   2
 -14  -3  -4   17.42    7.69   2
 -14  -3  -3   46.15   10.64   2
 -14  -3  -2   26.83    8.23   2
 -14  -3  -1   50.65   12.16   2
 -14  -3   0   24.75    8.90   2
 -14  -3   1   50.73   11.38   2
 -14  -3   2   26.66    8.12   2
 -14   3   2    9.17    3.35   2
 -14   3   3   42.77   11.46   2
 -14  -3   3   38.18   10.32   2
  15   0  -3    7.96    6.88   2
  15   0  -2    1.71    2.50   2
  15   0  -1   -3.39    3.58   2
  15   0   0   -3.51    2.94   2
  15   1  -2   13.53    7.90   2
  15   1  -1   55.72   13.67   2
  15   1   0    5.51    4.50   2
  15   1   1   23.93    8.57   2
  15   1   2    7.62    5.55   2
  15   1   3   40.74   10.46   2
;
_shelx_hkl_checksum              9829
loop_
_space_group_symop_operation_xyz
'x, y, z'
'-x, y+1/2, -z'
'x, y, -z'
'-x, y+1/2, z'
loop_
_atom_site_label
_atom_site_type_symbol
_atom_site_fract_x
_atom_site_fract_y
_atom_site_fract_z
_atom_site_U_iso_or_equiv
_atom_site_adp_type
_atom_site_occupancy
_atom_site_site_symmetry_order
_atom_site_calc_flag
_atom_site_refinement_flags_posn
_atom_site_refinement_flags_adp
_atom_site_refinement_flags_occupancy
_atom_site_disorder_assembly
_atom_site_disorder_group
Pb1 Pb 0.48433(8) 0.48361(5) 0.000000 0.02598(18) Uani 1 2 d S T P . .
Pb2 Pb 0.59541(9) 0.49641(5) 0.500000 0.03009(19) Uani 1 2 d S T P . .
Cl1 Cl 0.0983(7) 0.4128(4) 0.500000 0.0489(12) Uani 1 2 d S T P . .
Cl2 Cl 0.4688(6) 0.4806(10) 0.2503(2) 0.0637(11) Uani 1 1 d . . . . .
Cl3 Cl 0.5225(15) 0.7307(6) 0.000000 0.074(2) Uani 1 2 d S T P . .
Cl4 Cl 0.9793(7) 0.5047(5) 0.000000 0.0625(17) Uani 1 2 d S T P . .
Cl5 Cl 0.3934(9) 0.7190(5) 0.500000 0.0571(16) Uani 1 2 d S T P . .
N2 N 0.837(3) 0.7174(17) 0.7171(14) 0.071(4) Uani 1 1 d . . . . .
H2A H 0.716206 0.693128 0.759669 0.085 Uiso 1 1 calc R U . . .
H2B H 0.787237 0.776051 0.672221 0.085 Uiso 1 1 calc R U . . .
C2 C 1.024(4) 0.7651(19) 0.8010(18) 0.067(6) Uani 1 1 d . . . . .
H2C H 1.149196 0.709747 0.806814 0.100 Uiso 1 1 calc R U . . .
H2D H 0.956753 0.777235 0.877090 0.100 Uiso 1 1 calc R U . . .
H2E H 1.082469 0.838031 0.771355 0.100 Uiso 1 1 calc R U . . .
N1 N 0.903(3) 0.6305(14) 0.6481(12) 0.081(5) Uani 1 1 d . . . . .
H1A H 1.011672 0.655744 0.598352 0.121 Uiso 1 1 d R U . . .
H1C H 0.961203 0.572844 0.691812 0.121 Uiso 1 1 d R U . . .
loop_
_atom_site_aniso_label
_atom_site_aniso_U_11
_atom_site_aniso_U_22
_atom_site_aniso_U_33
_atom_site_aniso_U_23
_atom_site_aniso_U_13
_atom_site_aniso_U_12
Pb1 0.0265(3) 0.0228(3) 0.0286(3) 0.000 0.000 -0.0003(3)
Pb2 0.0310(3) 0.0292(3) 0.0300(3) 0.000 0.000 0.0017(3)
Cl1 0.030(2) 0.041(3) 0.076(3) 0.000 0.000 -0.0021(17)
Cl2 0.0722(17) 0.092(4) 0.0274(16) -0.0061(17) -0.0031(15) -0.002(2)
Cl3 0.058(4) 0.024(2) 0.141(6) 0.000 0.000 0.002(3)
Cl4 0.032(2) 0.049(4) 0.106(5) 0.000 0.000 0.003(2)
Cl5 0.040(3) 0.024(2) 0.107(5) 0.000 0.000 0.0028(19)
N2 0.077(9) 0.058(8) 0.078(10) 0.005(10) 0.007(9) 0.016(9)
C2 0.057(10) 0.088(16) 0.056(11) -0.025(10) -0.002(10) -0.023(9)
N1 0.085(10) 0.084(11) 0.073(10) -0.028(9) 0.004(9) -0.025(10)
loop_
_atom_type_symbol
_atom_type_description
_atom_type_scat_dispersion_real
_atom_type_scat_dispersion_imag
_atom_type_scat_source
C C 0.0033 0.0016 'International Tables Vol C Tables 4.2.6.8 and 6.1.1.4'
H H 0.0000 0.0000 'International Tables Vol C Tables 4.2.6.8 and 6.1.1.4'
N N 0.0061 0.0033 'International Tables Vol C Tables 4.2.6.8 and 6.1.1.4'
Cl Cl 0.1484 0.1585 'International Tables Vol C Tables 4.2.6.8 and 6.1.1.4'
Pb Pb -3.3944 10.1111 'International Tables Vol C Tables 4.2.6.8 and 6.1.1.4'
loop_
_geom_angle_atom_site_label_1
_geom_angle_atom_site_label_2
_geom_angle_atom_site_label_3
_geom_angle
_geom_angle_site_symmetry_1
_geom_angle_site_symmetry_3
_geom_angle_publ_flag
Cl3 Pb1 Cl4 80.7(2) . . ?
Cl3 Pb1 Cl2 90.8(2) . . ?
Cl4 Pb1 Cl2 91.84(7) . . ?
Cl3 Pb1 Cl2 90.8(2) . 3 ?
Cl4 Pb1 Cl2 91.84(7) . 3 ?
Cl2 Pb1 Cl2 176.2(2) . 3 ?
Cl3 Pb1 Cl3 176.34(2) . 2_645 ?
Cl4 Pb1 Cl3 95.6(2) . 2_645 ?
Cl2 Pb1 Cl3 89.3(2) . 2_645 ?
Cl2 Pb1 Cl3 89.3(2) 3 2_645 ?
Cl3 Pb1 Cl4 89.7(2) . 1_455 ?
Cl4 Pb1 Cl4 170.4(2) . 1_455 ?
Cl2 Pb1 Cl4 88.27(6) . 1_455 ?
Cl2 Pb1 Cl4 88.27(6) 3 1_455 ?
Cl3 Pb1 Cl4 94.0(2) 2_645 1_455 ?
Cl5 Pb2 Cl2 87.3(2) . . ?
Cl5 Pb2 Cl2 87.3(2) . 3_556 ?
Cl2 Pb2 Cl2 150.52(18) . 3_556 ?
Cl5 Pb2 Cl1 83.98(15) . . ?
Cl2 Pb2 Cl1 75.31(10) . . ?
Cl2 Pb2 Cl1 75.31(11) 3_556 . ?
Cl5 Pb2 Cl1 132.82(15) . 1_655 ?
Cl2 Pb2 Cl1 102.43(9) . 1_655 ?
Cl2 Pb2 Cl1 102.43(9) 3_556 1_655 ?
Cl1 Pb2 Cl1 143.20(18) . 1_655 ?
Cl5 Pb2 Cl5 156.64(6) . 2_646 ?
Cl2 Pb2 Cl5 86.8(2) . 2_646 ?
Cl2 Pb2 Cl5 86.8(2) 3_556 2_646 ?
Cl1 Pb2 Cl5 72.66(13) . 2_646 ?
Cl1 Pb2 Cl5 70.54(13) 1_655 2_646 ?
Pb2 Cl1 Pb2 143.20(18) . 1_455 ?
Pb1 Cl2 Pb2 163.36(19) . . ?
Pb1 Cl3 Pb1 174.8(4) . 2_655 ?
Pb1 Cl4 Pb1 170.4(2) . 1_655 ?
N1 N2 C2 115.9(16) . . ?
N1 N2 H2A 108.3 . . ?
C2 N2 H2A 108.3 . . ?
N1 N2 H2B 108.3 . . ?
C2 N2 H2B 108.3 . . ?
H2A N2 H2B 107.4 . . ?
N2 C2 H2C 109.5 . . ?
N2 C2 H2D 109.5 . . ?
H2C C2 H2D 109.5 . . ?
N2 C2 H2E 109.5 . . ?
H2C C2 H2E 109.5 . . ?
H2D C2 H2E 109.5 . . ?
N2 N1 H1A 109.7 . . ?
N2 N1 H1C 109.2 . . ?
H1A N1 H1C 109.3 . . ?
loop_
_geom_bond_atom_site_label_1
_geom_bond_atom_site_label_2
_geom_bond_distance
_geom_bond_site_symmetry_2
_geom_bond_publ_flag
Pb1 Cl3 2.831(7) . ?
Pb1 Cl4 2.852(4) . ?
Pb1 Cl2 2.857(3) . ?
Pb1 Cl2 2.857(3) 3 ?
Pb1 Cl3 2.890(7) 2_645 ?
Pb1 Cl4 2.910(4) 1_455 ?
Pb2 Cl5 2.794(6) . ?
Pb2 Cl2 2.944(3) . ?
Pb2 Cl2 2.944(3) 3_556 ?
Pb2 Cl1 3.010(4) . ?
Pb2 Cl1 3.041(4) 1_655 ?
Pb2 Cl5 3.170(6) 2_646 ?
N2 N1 1.32(2) . ?
N2 C2 1.54(3) . ?
N2 H2A 0.8900 . ?
N2 H2B 0.8900 . ?
C2 H2C 0.9600 . ?
C2 H2D 0.9600 . ?
C2 H2E 0.9600 . ?
N1 H1A 0.8918 . ?
N1 H1C 0.8920 . ?
loop_
_geom_hbond_atom_site_label_D
_geom_hbond_atom_site_label_H
_geom_hbond_atom_site_label_A
_geom_hbond_distance_DH
_geom_hbond_distance_HA
_geom_hbond_distance_DA
_geom_hbond_angle_DHA
_geom_hbond_site_symmetry_A
_geom_hbond_publ_flag
N2 H2A Cl2 0.89 2.81 3.45(2) 129.7 3_556 yes
N2 H2B Cl1 0.89 2.59 3.355(18) 143.9 2_656 yes
N1 H1A Cl5 0.89 2.57 3.436(17) 165.4 1_655 yes
