#------------------------------------------------------------------------------
#$Date: 2019-11-22 23:25:18 +0200 (Fri, 22 Nov 2019) $
#$Revision: 231556 $
#$URL: file:///home/coder/svn-repositories/cod/cif/4/00/33/4003382.cif $
#------------------------------------------------------------------------------
#
# This file is available in the Crystallography Open Database (COD),
# http://www.crystallography.net/
#
# All data on this site have been placed in the public domain by the
# contributors.
#
data_4003382
loop_
_publ_author_name
'Xiong, Lin'
'Chen, Jie'
'Lu, Jing'
'Pan, Chun-Ya'
'Wu, Li-Ming'
_publ_section_title
;
 Monofluorophosphates: A New Source of Deep-Ultraviolet Nonlinear Optical
 Materials
;
_journal_issue                   21
_journal_name_full               'Chemistry of Materials'
_journal_page_first              7823
_journal_paper_doi               10.1021/acs.chemmater.8b03310
_journal_volume                  30
_journal_year                    2018
_chemical_formula_sum            'F H8 N2 O3 P'
_chemical_formula_weight         134.05
_space_group_crystal_system      orthorhombic
_space_group_IT_number           33
_space_group_name_Hall           'P 2c -2n'
_space_group_name_H-M_alt        'P n a 21'
_atom_sites_solution_hydrogens   difmap
_audit_creation_method           SHELXL-2016/6
_cell_angle_alpha                90
_cell_angle_beta                 90
_cell_angle_gamma                90
_cell_formula_units_Z            4
_cell_length_a                   7.9407(7)
_cell_length_b                   11.3362(10)
_cell_length_c                   6.0308(4)
_cell_measurement_reflns_used    2594
_cell_measurement_temperature    273(2)
_cell_measurement_theta_max      27.47
_cell_measurement_theta_min      3.13
_cell_volume                     542.88(8)
_computing_structure_refinement  'SHELXL-2016/6 (Sheldrick, 2016)'
_diffrn_ambient_temperature      273(2)
_diffrn_measured_fraction_theta_full 1.000
_diffrn_measured_fraction_theta_max 1.000
_diffrn_measurement_device_type  'BRUKER D8 QUEST PHOTON II'
_diffrn_radiation_type           MoK\a
_diffrn_radiation_wavelength     0.71073
_diffrn_reflns_av_R_equivalents  0.0557
_diffrn_reflns_av_unetI/netI     0.0448
_diffrn_reflns_Laue_measured_fraction_full 1.000
_diffrn_reflns_Laue_measured_fraction_max 1.000
_diffrn_reflns_limit_h_max       10
_diffrn_reflns_limit_h_min       -9
_diffrn_reflns_limit_k_max       14
_diffrn_reflns_limit_k_min       -14
_diffrn_reflns_limit_l_max       6
_diffrn_reflns_limit_l_min       -7
_diffrn_reflns_number            4964
_diffrn_reflns_point_group_measured_fraction_full 1.000
_diffrn_reflns_point_group_measured_fraction_max 1.000
_diffrn_reflns_theta_full        25.242
_diffrn_reflns_theta_max         27.473
_diffrn_reflns_theta_min         3.132
_exptl_absorpt_coefficient_mu    0.444
_exptl_absorpt_correction_T_max  0.7456
_exptl_absorpt_correction_T_min  0.6399
_exptl_absorpt_correction_type   multi-scan
_exptl_absorpt_process_details
;
 SADABS 2016/2: Krause, L., Herbst-Irmer, R., Sheldrick G.M. & Stalke D.,
 J. Appl. Cryst. 48 (2015) 3-10
;
_exptl_crystal_colour            colorless
_exptl_crystal_density_diffrn    1.640
_exptl_crystal_description       Prism
_exptl_crystal_F_000             280
_refine_diff_density_max         0.263
_refine_diff_density_min         -0.314
_refine_diff_density_rms         0.069
_refine_ls_abs_structure_details
;
 Refined as a perfect inversion twin.
;
_refine_ls_abs_structure_Flack   0.5
_refine_ls_extinction_method     none
_refine_ls_goodness_of_fit_ref   1.146
_refine_ls_hydrogen_treatment    refall
_refine_ls_matrix_type           full
_refine_ls_number_parameters     97
_refine_ls_number_reflns         1139
_refine_ls_number_restraints     1
_refine_ls_restrained_S_all      1.145
_refine_ls_R_factor_all          0.0524
_refine_ls_R_factor_gt           0.0437
_refine_ls_shift/su_max          0.000
_refine_ls_shift/su_mean         0.000
_refine_ls_structure_factor_coef Fsqd
_refine_ls_weighting_details
'w=1/[\s^2^(Fo^2^)+(0.0313P)^2^+0.2559P] where P=(Fo^2^+2Fc^2^)/3'
_refine_ls_weighting_scheme      calc
_refine_ls_wR_factor_gt          0.0843
_refine_ls_wR_factor_ref         0.0878
_reflns_Friedel_coverage         0.826
_reflns_Friedel_fraction_full    1.000
_reflns_Friedel_fraction_max     1.000
_reflns_number_gt                1016
_reflns_number_total             1139
_reflns_threshold_expression     'I > 2\s(I)'
_cod_data_source_file            cm8b03310_si_002.cif
_cod_data_source_block           a
_cod_database_code               4003382
_shelx_shelxl_version_number     2016/6
_shelx_space_group_comment
;
The symmetry employed for this shelxl refinement is uniquely defined
by the following loop, which should always be used as a source of
symmetry information in preference to the above space-group names.
They are only intended as comments.
;
_shelx_res_file
;
TITL a in Pna2(1)
    a.res
    created by SHELXL-2016/6 at 10:55:43 on 22-Dec-2017
CELL 0.71073   7.9407  11.3362   6.0308  90.000  90.000  90.000
ZERR    4.00   0.0007   0.0010   0.0004   0.000   0.000   0.000
LATT -1
SYMM -X, -Y, 0.5+Z
SYMM 0.5+X, 0.5-Y, Z
SYMM 0.5-X, 0.5+Y, 0.5+Z
SFAC N H O F P
UNIT 8 32 12 4 4
LIST 4 ! automatically inserted. Change 6 to 4 for CHECKCIF!!
TEMP 0
acta
L.S. 20
BOND
FMAP 2
PLAN 20
twin -1 0 0 0 -1 0 0 0 -1

WGHT    0.031300    0.255900
FVAR       0.94000   0.94210
P1    5    0.189982    0.126162    0.816246    11.00000    0.01800    0.01831 =
         0.01780    0.00153   -0.00005   -0.00128
F1    4   -0.000156    0.082948    0.823227    11.00000    0.02011    0.04215 =
         0.05275    0.00008    0.00511   -0.00363
N2    1    0.641515    0.039991    0.836090    11.00000    0.02377    0.02918 =
         0.01955    0.00423   -0.00007    0.00208
N3    1    0.088397   -0.191417    0.828335    11.00000    0.03325    0.02522 =
         0.03198    0.00686    0.00261    0.00109
O4    3    0.286411    0.017611    0.887210    11.00000    0.02601    0.02742 =
         0.03160    0.00554   -0.00076    0.00094
O5    3    0.195952    0.227255    0.974087    11.00000    0.05199    0.02764 =
         0.03324   -0.00852   -0.00083    0.00081
O9    3    0.218607    0.155850    0.575229    11.00000    0.03348    0.03243 =
         0.02256    0.00380    0.00035   -0.00076
H31   2    0.146645   -0.239077    0.929589    11.00000    0.02879
H21   2    0.660318    0.017446    0.700344    11.00000    0.02041
H32   2    0.148358   -0.128343    0.805829    11.00000    0.05493
H35   2    0.084462   -0.226062    0.704392    11.00000    0.08398
H22   2    0.669954    0.121603    0.882469    11.00000    0.06078
H33   2    0.524514    0.031253    0.837816    11.00000    0.05188
H24   2    0.704652   -0.008974    0.932953    11.00000    0.04260
H34   2   -0.019284   -0.187024    0.898565    11.00000    0.07266
HKLF 4 1 0 -1 0 0 0 -1 1 0 0




REM  a in Pna2(1)
REM R1 =  0.0437 for    1016 Fo > 4sig(Fo)  and  0.0524 for all    1139 data
REM     97 parameters refined using      1 restraints

END

WGHT      0.0319      0.2581

REM Highest difference peak  0.263,  deepest hole -0.314,  1-sigma level  0.069
Q1    1   0.2934  0.0830  0.8089  11.00000  0.05    0.26
Q2    1   0.2237  0.2730  1.1375  11.00000  0.05    0.25
Q3    1   0.2684  0.1937  0.8315  11.00000  0.05    0.24
Q4    1   0.2008  0.1648  0.6922  11.00000  0.05    0.24
Q5    1   0.1775  0.1624  0.9627  11.00000  0.05    0.23
Q6    1   0.0915  0.0883  0.8985  11.00000  0.05    0.23
Q7    1   0.1606  0.1873  1.1064  11.00000  0.05    0.23
Q8    1   0.0870  0.0862  0.7443  11.00000  0.05    0.22
Q9    1   0.3447  0.0552  0.9861  11.00000  0.05    0.22
Q10   1   0.2150  0.0628  0.8902  11.00000  0.05    0.21
Q11   1   0.1945  0.2377  0.5908  11.00000  0.05    0.21
Q12   1   0.3454 -0.0640  0.8406  11.00000  0.05    0.21
Q13   1   0.4152  0.1579  0.7518  11.00000  0.05    0.20
Q14   1   0.1973  0.1060  0.6581  11.00000  0.05    0.20
Q15   1   0.3899  0.0188  0.8284  11.00000  0.05    0.20
Q16   1  -0.1292  0.1859  0.7076  11.00000  0.05    0.20
Q17   1   0.2495  0.0887  0.7039  11.00000  0.05    0.20
Q18   1   0.4268  0.0892  0.7246  11.00000  0.05    0.19
Q19   1   0.4198  0.1522  0.9077  11.00000  0.05    0.19
Q20   1   0.8660 -0.0404  0.6840  11.00000  0.05    0.19
;
_shelx_res_checksum              57801
_shelx_hkl_file
;
  -1   0   0 -0.1808 0.65055   4
  -2   0   0 9999.99 195.494   4
  -4   0   0 2895.34 81.1132   4
  -5   0   0 -2.1390 2.87673   4
  -6   0   0 519.249 32.8841   4
  -7   0   0 -3.8340 5.31700   4
   0   1   0 0.00184 0.23277   3
   0  -1   0 0.08166 0.41400   3
   0  -1   0 0.06612 0.48203   4
   0   1   0 0.13606 0.48568   4
  -1   1   0 0.72888 1.30641   4
   1  -1   0 -0.2436 1.03458   4
  -1   1   0 0.27540 0.82050   3
   1  -1   0 1.03277 0.90111   3
  -2   1   0 0.14891 1.01238   4
  -2   1   0 1.86774 1.01539   3
   2  -1   0 -0.1187 1.85148   4
   3  -1   0 -2.6754 1.47012   4
  -3   1   0 0.29481 3.16303   4
  -3   1   0 -0.7649 0.89266   3
  -4  -1   0 -0.5534 2.22909   4
  -4   1   0 -0.8873 2.03862   4
  -5   1   0 -1.5213 3.44393   4
  -5  -1   0 -0.8607 3.12318   4
  -5   1   0 0.41688 1.59135   3
  -6   1   0 0.55146 2.23784   3
  -6  -1   0 -0.2421 4.54625   4
  -6   1   0 -6.4269 3.99440   4
  -7  -1   0 -3.5483 4.80034   4
  -7   1   0 -5.0428 4.80072   4
   0   2   0 4280.78 84.6663   3
   0  -2   0 4240.29 85.3788   3
   0   2   0 4121.83 87.5344   4
   0  -2   0 4460.58 89.7028   4
  -1   2   0 5190.59 106.248   4
  -1  -2   0 5063.01 97.7423   3
   1  -2   0 4983.29 106.975   4
  -1   2   0 4970.26 100.592   3
   1  -2   0 5223.97 102.317   3
  -2   2   0 688.223 27.6222   4
  -2   2   0 720.452 22.7101   3
   2  -2   0 687.552 29.2867   4
  -2  -2   0 716.920 18.2131   3
   2  -2   0 709.793 23.3457   3
   3  -2   0 913.529 38.9577   4
  -3   2   0 949.642 36.7840   4
  -3   2   0 914.621 27.7679   3
   4  -2   0 96.9236 17.6231   4
  -4   2   0 84.6256 11.2270   4
  -4   2   0 82.5277 7.68797   3
  -5   2   0 719.492 36.9285   4
  -5   2   0 693.333 24.8932   3
   5  -2   0 683.913 39.4668   4
  -5  -2   0 706.600 38.4923   4
  -6  -2   0 19.0606 7.11331   4
  -6   2   0 23.6010 5.74830   3
  -6   2   0 27.5025 9.88467   4
  -7  -2   0 313.825 27.3152   4
  -7   2   0 250.587 15.5638   3
  -7   2   0 283.792 25.4589   4
   0   3   0 0.53586 1.11255   4
   0  -3   0 -0.3842 1.11810   4
   0  -3   0 -0.0024 0.90729   3
   0   3   0 -0.0546 0.91735   3
  -1  -3   0 0.22886 1.07626   3
  -1  -3   0 1.78916 2.04104   4
  -1   3   0 -0.1194 1.15626   3
  -1   3   0 -1.8642 0.82703   4
   1  -3   0 2.29251 2.38188   4
   1   3   0 -1.0789 0.57296   3
   1  -3   0 -0.5974 0.84004   3
   2  -3   0 1.80395 2.21628   4
  -2   3   0 1.42162 1.79355   3
   2  -3   0 -0.7511 1.53188   3
  -2   3   0 -1.7928 0.95576   4
  -2  -3   0 1.13031 1.09925   3
  -3  -3   0 -1.3908 0.77341   3
  -3   3   0 1.76396 1.20638   3
   3  -3   0 -2.2349 1.95508   4
  -3   3   0 -2.8641 2.01974   4
  -4   3   0 0.16488 2.01054   3
   4  -3   0 -1.7249 3.07724   4
  -4   3   0 -0.2375 2.63984   4
  -4  -3   0 2.47096 1.46035   3
  -5   3   0 9.01787 2.93933   3
   5  -3   0 6.48886 4.91386   4
  -5   3   0 -2.8695 3.47526   4
  -6   3   0 0.89688 3.98387   4
  -6  -3   0 -1.3616 1.82744   3
  -7   3   0 5.81688 7.77788   4
   0  -4   0 614.753 27.5711   4
   0   4   0 633.229 23.5411   3
   0  -4   0 662.290 25.9741   3
  -1   4   0 708.753 30.2243   4
   1   4   0 722.894 23.8162   3
   1  -4   0 715.433 28.5756   3
  -1  -4   0 682.054 28.7334   4
   1  -4   0 720.387 32.0654   4
  -1  -4   0 723.609 26.4396   3
  -1   4   0 697.633 26.2310   3
  -2   4   0 47.1804 9.54628   4
  -2  -4   0 40.9428 5.60538   3
  -2   4   0 52.7717 8.93951   3
   2  -4   0 47.7178 10.7386   4
   2  -4   0 40.4808 8.13614   3
  -3   4   0 131.482 14.1164   4
  -3   4   0 132.505 11.2792   3
   3  -4   0 119.936 14.8603   4
  -3  -4   0 119.356 9.42463   3
   3  -4   0 134.283 12.5615   3
  -4   4   0 29.7404 9.79971   4
  -4   4   0 20.5144 5.91701   3
   4  -4   0 29.3167 11.3539   4
   4  -4   0 27.1876 6.98205   3
  -4  -4   0 25.2321 5.42773   3
  -5   4   0 578.257 34.4293   4
  -5   4   0 599.742 30.2733   3
  -5  -4   0 599.644 22.7769   3
   5  -4   0 576.638 41.9005   4
  -6   4   0 33.3904 11.8658   4
  -6  -4   0 34.9702 6.21260   3
  -6   4   0 29.9239 7.00541   3
   6  -4   0 38.7977 16.3420   4
  -7  -4   0 206.589 14.2105   3
  -7   4   0 208.628 22.7147   4
  -7   4   0 249.351 18.0289   3
  -7  -4   0 194.367 26.2279   4
   0  -5   0 3.53065 2.91778   4
   0  -5   0 3.28782 2.97918   3
   0   5   0 -0.1056 1.66055   3
   1  -5   0 -2.1693 1.61183   4
  -1   5   0 2.00712 2.33520   4
  -1   5   0 -0.2366 1.72040   3
  -1  -5   0 0.05657 1.65388   3
   1  -5   0 -0.7520 1.85152   3
  -1  -5   0 -0.0615 2.02599   4
   1   5   0 -1.1140 1.76608   3
  -2   5   0 -0.6818 1.36423   3
   2  -5   0 0.11665 2.81675   4
  -2   5   0 2.95214 3.39930   4
  -2  -5   0 -0.7806 1.83075   3
   2  -5   0 -3.9864 1.71799   3
  -2  -5   0 -1.3411 1.48284   4
   3  -5   0 0.70683 2.81829   3
  -3  -5   0 -3.4927 1.49253   3
  -3   5   0 2.00472 2.59473   3
   3  -5   0 -2.3773 3.38601   4
  -3   5   0 0.61032 3.72656   4
   4  -5   0 2.10194 3.97570   3
  -4   5   0 -3.9152 3.15020   4
  -4   5   0 -0.3209 2.89229   3
   4  -5   0 -5.3317 4.40488   4
  -4  -5   0 1.80034 2.19093   3
  -5   5   0 -1.1715 3.53111   3
   5  -5   0 -3.8091 5.83571   4
  -5  -5   0 4.89566 2.83392   3
  -5   5   0 2.04766 4.56538   4
  -6   5   0 -0.6380 5.71472   4
  -6   5   0 -3.4337 3.77819   3
  -6  -5   0 1.06853 3.11865   3
   6  -5   0 10.9022 10.9121   4
   0  -6   0 677.745 36.1689   4
   0   6   0 671.041 28.5317   3
   0  -6   0 665.791 32.2815   3
   1  -6   0 87.6785 11.6140   3
   1  -6   0 124.190 15.0269   4
  -1   6   0 89.2586 12.5776   4
   1   6   0 89.9645 9.40816   3
  -1   6   0 98.2907 10.4948   3
  -1  -6   0 82.9911 10.6472   3
  -1  -6   0 100.838 12.5503   4
  -2   6   0 515.562 27.1221   3
  -2   6   0 544.517 32.1556   4
   2  -6   0 507.537 34.2824   4
  -2  -6   0 539.669 27.7796   3
  -2  -6   0 546.823 30.5401   4
   2  -6   0 564.468 31.4075   3
  -3   6   0 12.0801 5.68049   3
  -3  -6   0 22.7597 6.55698   3
  -3  -6   0 20.2649 7.46462   4
  -3   6   0 16.6160 8.64295   4
   3  -6   0 23.1755 8.65249   4
   3  -6   0 23.4196 7.65022   3
   4  -6   0 148.605 19.6807   4
  -4   6   0 168.935 18.9133   4
  -4   6   0 158.618 15.2602   3
  -4  -6   0 180.153 18.4685   4
  -4  -6   0 160.748 14.7021   3
   4  -6   0 167.136 17.4528   3
   5  -6   0 253.589 31.3594   4
  -5   6   0 241.384 19.1130   3
   5  -6   0 237.762 25.9547   3
  -5  -6   0 239.272 17.7322   3
  -5  -6   0 243.003 21.9168   4
  -5   6   0 221.848 23.0333   4
   6  -6   0 111.653 26.7013   4
  -6  -6   0 158.912 18.9906   4
  -6   6   0 176.302 21.2700   3
  -6   6   0 147.755 18.3328   4
   0  -7   0 4.17668 4.47644   4
   0   7   0 1.13517 2.71982   3
  -1   7   0 2.30318 2.85695   3
  -1  -7   0 3.72083 4.77172   4
   1  -7   0 5.82983 4.01584   4
   1   7   0 1.65664 2.40184   3
  -1  -7   0 8.55186 4.43431   3
  -2  -7   0 3.94685 3.03984   3
   2  -7   0 1.27945 5.07129   3
  -2   7   0 5.96925 2.77756   3
  -2   7   0 -1.1293 2.76049   4
  -2  -7   0 -0.2907 2.67126   4
   2  -7   0 -3.5979 5.00047   4
  -3   7   0 9.46061 3.70633   3
   3  -7   0 -6.6947 4.62737   3
   3  -7   0 6.32304 6.69550   4
  -3   7   0 -0.7523 3.79029   4
  -3  -7   0 5.90880 4.09525   4
  -3  -7   0 1.11937 3.73603   3
   4  -7   0 -4.0007 5.26170   3
   4  -7   0 8.31137 10.1121   4
  -4  -7   0 1.74299 5.59079   4
  -4   7   0 -6.0062 4.82816   3
  -4   7   0 5.26352 4.95159   4
  -4  -7   0 1.75743 4.23880   3
  -5  -7   0 8.89166 5.68211   3
  -5   7   0 4.77070 5.75254   3
  -5  -7   0 -1.8744 10.5216   4
   5  -7   0 7.22587 14.3137   4
   5  -7   0 -13.042 9.58838   3
  -5   7   0 -0.4018 4.15823   4
   0  -8   0 170.073 18.1915   3
   0   8   0 186.786 15.9457   3
   0  -8   0 159.960 19.2314   4
  -1  -8   0 43.1754 14.2761   4
   1  -8   0 27.9783 11.6153   4
  -1  -8   0 23.4220 7.70068   3
   1   8   0 23.8643 6.96549   3
  -1   8   0 40.4162 9.58606   3
   1  -8   0 47.8538 12.1208   3
  -2  -8   0 74.7021 15.1167   4
  -2  -8   0 65.7724 12.8225   3
   2  -8   0 72.6444 15.9187   3
  -2   8   0 61.8372 13.6611   3
  -3   8   0 2.65492 3.80517   4
  -3  -8   0 12.0743 5.35524   3
  -3  -8   0 -5.0873 6.87335   4
   3  -8   0 3.77224 7.23724   4
   3  -8   0 -3.1252 5.99465   3
  -4   8   0 63.3418 15.8909   4
   4  -8   0 77.1667 15.0022   3
  -4  -8   0 81.8427 16.2907   4
  -4  -8   0 47.5933 10.8507   3
   0   9   0 7.59860 5.32752   3
   0  -9   0 6.30586 7.89405   4
   0  -9   0 12.9322 7.51027   3
  -1   9   0 -7.7031 4.27464   3
   1  -9   0 -1.0706 6.56215   3
   1  -9   0 4.64969 9.98161   4
  -1  -9   0 -11.502 6.85597   4
   1   9   0 2.64950 7.23704   3
  -1  -9   0 -0.9026 3.51640   3
   2  -9   0 -4.2311 6.32528   3
  -2  -9   0 -1.3317 4.94012   3
  -2  -9   0 -5.3446 5.53892   4
  -3  -9   0 19.3411 7.36040   3
   3  -9   0 21.3839 9.79726   3
   0 -10   0 280.529 29.5234   3
  -1 -10   0 82.6480 16.5379   3
   1 -10   0 79.9885 18.2829   3
   1   0  -1 2447.68 45.2463   4
  -1   0   1 2288.68 43.1882   3
  -1   0   1 2429.19 45.8912   3
  -1   0  -1 2262.57 54.8242   4
  -1   0   1 2286.80 44.7977   4
  -2   0  -1 1.21015 1.53615   4
  -3   0   1 381.451 19.0277   4
  -3   0  -1 384.170 23.9220   4
  -4   0  -1 -4.6543 1.86764   4
  -4   0   1 3.83281 2.69665   4
  -5   0  -1 469.213 31.7829   4
  -5   0   1 467.282 26.6913   4
  -6   0   1 -2.1640 2.98782   4
  -6   0  -1 2.66413 5.49627   4
  -7   0   1 146.675 16.4287   4
  -7   0  -1 138.339 19.3171   4
   0   1  -1 766.754 20.3103   3
   0  -1   1 770.152 21.3187   4
   0   1  -1 782.734 20.9600   4
   0  -1   1 776.857 20.8944   3
   0  -1  -1 759.648 17.9241   3
  -1   1   1 1601.98 35.5345   3
   1  -1   1 1688.76 45.4027   4
  -1   1   1 1724.25 37.7055   4
   1  -1   1 1690.20 41.6690   3
   1   1  -1 1676.91 33.2329   3
  -1   1  -1 1659.66 40.4746   3
   1  -1  -1 1723.21 38.5914   4
   1  -1  -1 1713.30 35.8299   3
  -1  -1   1 1659.94 34.7556   3
  -1   1  -1 2005.63 50.3025   4
  -2   1   1 341.231 14.9388   4
   2  -1   1 323.769 19.9422   4
  -2   1   1 337.032 11.0354   3
  -2   1  -1 352.113 14.9986   3
   2  -1  -1 365.043 16.7165   4
  -2   1  -1 321.722 19.0226   4
   3  -1   1 630.243 31.3954   4
  -3   1   1 643.581 25.8472   4
  -3   1   1 629.256 17.4588   3
  -3  -1   1 642.947 25.7378   4
   3  -1  -1 628.527 27.1514   4
  -3   1  -1 594.749 30.4458   4
  -4   1   1 232.295 16.3940   4
  -4  -1  -1 219.708 19.5968   4
  -4   1  -1 227.188 19.7996   4
  -4   1  -1 214.308 12.5570   3
  -4  -1   1 204.026 16.0600   4
  -5  -1  -1 82.8705 16.4315   4
  -5   1   1 93.0446 14.8488   4
  -5   1  -1 94.2455 8.62805   3
  -5   1  -1 104.280 14.5711   4
  -5  -1   1 82.9704 11.5824   4
  -6   1   1 60.3806 5.58849   3
  -6  -1  -1 76.4943 17.8205   4
  -6   1   1 61.4309 12.5038   4
  -6  -1   1 65.5535 14.7531   4
  -6   1  -1 44.1690 12.5457   4
  -6   1  -1 59.1852 8.91874   3
  -7   1   1 25.2180 7.99373   4
  -7  -1  -1 34.6313 12.5190   4
  -7  -1   1 17.5375 7.16603   4
  -7   1  -1 20.7308 9.30098   4
   0   2  -1 724.034 21.9709   3
   0  -2  -1 786.065 21.3415   3
   0   2   1 762.328 20.7254   3
   0  -2   1 728.280 23.0126   3
   0  -2   1 739.352 24.4546   4
   0   2  -1 747.080 23.8765   4
   1   2  -1 1022.31 24.5789   3
   1  -2   1 977.518 33.8718   4
   1  -2   1 989.717 30.1479   3
  -1   2   1 952.028 28.4155   4
  -1   2   1 979.513 26.2713   3
  -1  -2  -1 989.539 24.4509   3
   1  -2  -1 997.592 26.8081   3
   1  -2  -1 1008.83 29.9774   4
  -1   2  -1 974.051 32.4245   4
  -1  -2   1 1018.85 28.5939   4
  -1  -2   1 944.316 25.6566   3
  -1   2  -1 978.530 28.6988   3
  -2   2   1 95.0436 8.43219   4
  -2   2   1 93.3695 6.68171   3
   2  -2   1 77.0484 9.99307   4
   2  -2   1 87.0942 8.31980   3
  -2   2  -1 88.4292 7.64484   3
  -2   2  -1 86.4535 9.80938   4
  -2  -2   1 81.0132 5.18277   3
   2  -2  -1 82.1925 6.37835   3
   2  -2  -1 86.5963 8.98485   4
  -3   2   1 204.189 10.6625   3
   3  -2   1 203.875 18.1921   4
  -3   2   1 204.456 14.2786   4
  -3   2  -1 175.626 16.1989   4
   3  -2  -1 199.539 16.3695   4
  -3   2  -1 201.801 12.3244   3
  -3  -2   1 206.646 7.81236   3
  -4   2   1 81.0527 7.11245   3
   4  -2   1 119.889 21.4762   4
  -4   2   1 84.8494 10.1984   4
  -4   2  -1 95.4712 17.7437   4
   4  -2  -1 103.636 13.2602   4
  -4   2  -1 77.5916 7.76964   3
   5  -2   1 226.059 23.5469   4
  -5   2   1 227.808 18.3624   4
  -5  -2  -1 232.739 23.1075   4
  -5   2   1 212.420 11.9436   3
   5  -2  -1 200.059 19.5378   4
  -5   2  -1 203.948 20.9809   4
  -5   2  -1 230.436 14.1028   3
  -5  -2   1 207.866 18.7771   4
  -6  -2  -1 65.6744 15.8429   4
  -6   2   1 58.3334 7.10561   3
  -6   2   1 76.4859 14.5528   4
  -6   2  -1 68.7611 8.15296   3
  -6   2  -1 77.5646 18.0284   4
  -6  -2   1 66.2049 15.2340   4
  -7   2   1 114.507 20.6819   4
  -7   2   1 71.4545 8.47596   3
  -7  -2  -1 110.995 23.6656   4
  -7  -2   1 81.1696 17.2955   4
  -7   2  -1 92.9137 21.6502   4
  -7   2  -1 82.7078 9.44294   3
   0  -3  -1 328.691 18.4975   3
   0  -3   1 325.393 18.2936   3
   0   3  -1 343.114 16.9311   4
   0  -3  -1 340.379 17.0366   4
   0   3   1 328.526 14.1682   3
   0  -3   1 334.118 17.9689   4
   0   3  -1 344.488 15.3739   3
  -1  -3  -1 703.607 22.1557   3
   1  -3   1 665.157 29.3353   4
   1   3  -1 692.364 21.1111   3
  -1   3   1 662.816 22.6771   3
  -1   3   1 664.230 25.9188   4
  -1   3  -1 655.370 27.7091   4
  -1   3  -1 652.817 24.2589   3
  -1  -3   1 708.601 25.7336   4
   1  -3  -1 704.507 29.5400   3
  -1  -3   1 673.649 23.2562   3
   1  -3  -1 696.110 27.2207   4
   2  -3   1 421.173 25.0982   4
  -2   3   1 415.687 20.8389   4
   2  -3   1 385.853 20.4249   3
  -2  -3  -1 405.377 15.3808   3
  -2   3   1 414.161 17.4621   3
  -2   3  -1 392.523 22.9208   4
  -2   3  -1 426.846 19.6859   3
   2  -3  -1 435.438 23.0810   4
  -2  -3   1 390.053 15.9205   3
   2  -3  -1 391.662 17.9886   3
  -3   3   1 294.343 18.8792   4
  -3  -3  -1 316.483 12.8507   3
  -3   3   1 308.725 15.4105   3
   3  -3   1 310.870 18.7220   3
   3  -3   1 327.596 25.3047   4
  -3   3  -1 298.855 21.6799   4
  -3  -3   1 301.616 12.9719   3
  -3   3  -1 332.026 17.5881   3
   3  -3  -1 290.213 15.3436   3
   3  -3  -1 298.168 21.5947   4
   4  -3   1 148.357 18.4467   4
  -4   3   1 133.927 10.3678   3
  -4   3   1 143.681 14.2047   4
  -4   3  -1 127.983 15.5089   4
  -4   3  -1 132.225 11.5293   3
   4  -3  -1 140.808 16.1684   4
  -4  -3   1 118.646 7.82164   3
  -5   3   1 42.8769 11.6181   4
  -5   3   1 23.4806 5.15473   3
   5  -3   1 12.4417 7.04963   4
  -5  -3   1 27.0634 4.74409   3
  -5   3  -1 32.5390 6.98718   3
   5  -3  -1 34.2110 10.8841   4
  -5   3  -1 22.8458 8.77560   4
  -6   3   1 56.3582 9.30113   3
  -6   3   1 72.0732 14.6635   4
   6  -3   1 54.1601 15.8478   4
  -6  -3  -1 56.7649 5.75146   3
  -6  -3  -1 94.5787 23.6207   4
  -6  -3   1 65.0240 15.5342   4
   6  -3  -1 54.0202 15.7890   4
  -6   3  -1 62.4285 14.7488   4
  -6   3  -1 80.7023 9.30621   3
  -7   3   1 6.09546 4.64516   4
  -7  -3   1 4.29163 7.43177   4
  -7   3  -1 13.5728 6.02824   3
  -7   3  -1 8.75977 7.16273   4
   0   4  -1 2959.33 68.9000   3
   0  -4  -1 2830.34 74.1103   4
   0  -4   1 2914.04 72.3960   3
   0   4  -1 2963.65 74.8892   4
   0  -4   1 2828.27 76.4152   4
   0  -4  -1 2730.83 68.6606   3
   0   4   1 2928.35 67.3020   3
   1  -4   1 387.359 23.7571   4
  -1   4   1 353.635 17.2976   3
   1  -4   1 331.588 19.4373   3
   1   4  -1 361.083 15.9936   3
  -1  -4  -1 345.867 20.1243   4
  -1   4   1 346.368 19.8505   4
  -1  -4  -1 357.279 17.4213   3
  -1  -4   1 377.254 18.6587   3
  -1  -4   1 361.451 19.9045   4
   1  -4  -1 388.676 19.2203   3
  -1   4  -1 350.655 21.0178   4
   1   4   1 350.341 15.2878   3
   1  -4  -1 348.074 21.0670   4
  -1   4  -1 332.799 18.0423   3
   2   4  -1 285.490 12.4564   3
   2  -4   1 315.908 20.0778   3
   2  -4   1 295.454 22.9864   4
  -2   4   1 307.800 19.2969   4
  -2  -4  -1 306.434 15.4761   3
  -2   4   1 325.603 17.2329   3
   2  -4  -1 309.156 17.7767   3
  -2   4  -1 289.518 17.2902   3
  -2  -4   1 301.982 16.2330   3
   2  -4  -1 283.919 20.4432   4
  -2  -4   1 312.771 18.6397   4
  -2   4  -1 330.062 22.0036   4
  -3   4   1 107.237 9.84293   3
   3  -4   1 111.427 15.2064   4
  -3   4   1 115.033 12.4607   4
  -3  -4  -1 100.125 8.36339   3
   3  -4   1 99.5725 11.2150   3
   3  -4  -1 117.059 10.9853   3
   3  -4  -1 91.7989 12.7663   4
  -3  -4   1 98.8777 8.74031   3
  -3   4  -1 102.936 10.6335   3
  -3   4  -1 95.8357 12.7919   4
  -4   4   1 423.768 21.1724   3
   4  -4   1 432.083 33.7365   4
  -4   4   1 409.699 25.5985   4
   4  -4   1 417.921 23.6030   3
  -4  -4  -1 424.316 18.1758   3
  -4  -4   1 411.750 18.6657   3
  -4   4  -1 427.218 29.1329   4
   4  -4  -1 427.683 31.1446   4
  -4   4  -1 432.497 22.8932   3
   4  -4  -1 387.997 20.1616   3
  -5   4   1 41.2591 10.9638   4
   5  -4   1 26.6594 11.3913   4
  -5   4   1 52.2939 11.0677   3
  -5  -4  -1 42.5057 6.90882   3
  -5  -4   1 35.8684 6.43776   3
  -5   4  -1 50.5876 14.5004   4
   5  -4  -1 35.1326 12.2203   4
  -6  -4  -1 169.174 11.9257   3
  -6   4   1 199.640 22.4007   4
  -6   4   1 185.032 14.8431   3
   6  -4   1 187.964 24.5704   4
   6  -4  -1 250.184 26.0813   4
  -6   4  -1 188.534 15.9129   3
  -6  -4   1 215.484 13.0190   3
  -6   4  -1 222.678 23.2134   4
  -7  -4  -1 16.9480 4.52288   3
  -7   4   1 15.3123 6.52397   4
  -7   4   1 7.62251 5.47338   3
  -7  -4  -1 32.1235 12.8274   4
  -7   4  -1 21.4314 7.04954   3
  -7   4  -1 36.2333 12.1239   4
  -7  -4   1 -13.469 8.79141   4
  -7  -4   1 7.26128 5.39945   3
   0  -5  -1 666.452 31.3800   4
   0   5  -1 631.718 26.5091   3
   0  -5  -1 651.670 28.1640   3
   0   5   1 611.157 25.4082   3
   0  -5   1 620.576 29.1613   3
   0   5  -1 605.421 29.5455   4
   0  -5   1 612.156 31.5611   4
  -1   5   1 61.0773 7.70211   3
   1  -5   1 64.7331 11.3340   3
   1  -5   1 88.4469 16.5821   4
  -1  -5  -1 82.3965 14.0325   4
   1   5  -1 68.4439 7.64076   3
  -1  -5  -1 71.7815 8.56752   3
   1  -5  -1 61.5703 8.52892   3
  -1  -5   1 68.1395 8.74920   3
  -1  -5   1 67.7867 9.43553   4
  -1   5  -1 44.4701 8.14124   3
   1   5   1 57.7286 6.83637   3
  -1   5  -1 72.5745 9.91478   4
   1  -5  -1 62.5021 12.5543   4
  -2   5   1 265.110 20.1467   4
   2  -5   1 281.830 23.8329   4
   2   5  -1 298.098 14.2060   3
  -2  -5  -1 263.625 16.5393   3
   2  -5   1 298.724 21.1711   3
  -2   5   1 284.877 17.3507   3
  -2  -5   1 271.938 19.4591   4
  -2  -5   1 272.968 17.4412   3
   2  -5  -1 287.676 19.0319   3
  -2   5  -1 261.920 21.0171   4
  -2   5  -1 284.307 18.3046   3
   2  -5  -1 321.857 23.5295   4
   3  -5   1 65.1832 12.5328   3
   3  -5   1 44.1093 10.8856   4
  -3  -5  -1 59.9663 7.49896   3
  -3   5   1 57.7296 10.2588   3
  -3   5   1 71.6076 14.6313   4
  -3   5  -1 48.2772 9.71577   3
   3  -5  -1 74.9675 21.3231   4
   3  -5  -1 62.9993 11.2236   3
  -3   5  -1 84.9182 16.2789   4
  -3  -5   1 46.4577 9.57084   4
  -3  -5   1 57.3353 9.58286   3
   4  -5   1 478.006 37.6708   4
  -4  -5  -1 513.870 23.5837   3
   4  -5   1 486.160 29.6626   3
  -4   5   1 505.554 30.6172   4
  -4   5   1 493.179 25.3895   3
  -4   5  -1 487.277 26.5468   3
  -4  -5   1 488.944 23.4388   3
   4  -5  -1 489.468 36.0425   4
  -4   5  -1 494.072 32.9586   4
  -4  -5   1 509.152 28.1832   4
   4  -5  -1 509.851 26.9400   3
   5  -5   1 13.7242 10.8520   4
  -5   5   1 16.9477 8.70171   4
  -5  -5  -1 8.44519 4.18289   3
  -5   5   1 8.63961 5.03504   3
  -5   5  -1 19.4520 4.93948   3
  -5  -5   1 19.6749 4.65589   3
   5  -5  -1 15.9680 9.00603   4
  -5   5  -1 12.9640 7.79569   4
   6  -5   1 129.429 27.8749   4
  -6   5   1 185.503 15.7698   3
  -6  -5  -1 165.050 12.9134   3
  -6   5   1 127.477 16.2792   4
   6  -5  -1 136.963 25.7496   4
  -6   5  -1 149.070 20.5277   4
  -6   5  -1 161.529 16.0017   3
  -6  -5   1 179.094 13.9315   3
   0  -6   1 624.442 34.8351   4
   0  -6  -1 620.019 30.2560   3
   0  -6   1 622.433 31.9791   3
   0   6  -1 641.018 28.0322   3
   0  -6  -1 605.880 33.1960   4
   0   6   1 645.529 27.3225   3
   1   6  -1 599.915 25.7060   3
   1  -6   1 579.577 31.4857   3
  -1  -6  -1 608.545 33.0656   4
   1  -6   1 590.605 35.7338   4
  -1   6   1 557.940 26.1322   3
  -1  -6  -1 594.357 28.9804   3
   1  -6  -1 597.205 34.0441   4
   1   6   1 625.581 29.9039   3
  -1  -6   1 552.631 31.9868   4
  -1  -6   1 631.121 31.3273   3
   1  -6  -1 557.393 29.7956   3
  -1   6  -1 570.456 32.7200   4
  -1   6  -1 567.174 27.9872   3
   2   6  -1 35.9357 6.38719   3
  -2  -6  -1 33.7997 10.5218   4
   2  -6   1 39.5894 10.8806   3
  -2  -6  -1 30.4893 7.41795   3
   2  -6   1 30.1410 9.07030   4
  -2   6   1 35.3421 10.1700   4
  -2   6   1 43.2477 8.94201   3
   2  -6  -1 20.2338 7.20510   3
  -2  -6   1 42.9643 10.7233   4
  -2   6  -1 33.2716 8.17570   3
  -2   6  -1 46.2714 12.8408   4
   2  -6  -1 46.9319 13.2434   4
  -2  -6   1 38.8816 8.90694   3
   3  -6   1 231.607 25.3588   4
  -3  -6  -1 268.631 17.9872   3
   3  -6   1 247.017 21.6656   3
  -3  -6  -1 261.922 21.5998   4
  -3   6   1 241.501 21.6307   4
  -3   6   1 267.257 18.4136   3
   3  -6  -1 234.571 23.7422   4
  -3   6  -1 248.879 19.1769   3
  -3  -6   1 234.432 19.8855   4
  -3  -6   1 233.885 18.1859   3
   3  -6  -1 217.528 18.8786   3
  -4   6   1 130.996 13.2848   3
  -4  -6  -1 124.587 12.9260   3
   4  -6   1 130.361 15.7229   3
   4  -6   1 100.044 18.6877   4
  -4   6   1 133.551 16.5642   4
  -4   6  -1 120.914 16.7612   4
   4  -6  -1 103.884 13.9356   3
  -4  -6   1 123.288 14.7097   4
  -4   6  -1 106.209 13.2855   3
  -4  -6   1 119.690 12.8149   3
   4  -6  -1 130.551 23.9318   4
   5  -6   1 154.060 31.0563   4
   5  -6   1 154.616 17.6809   3
  -5  -6  -1 135.811 12.9983   3
  -5   6   1 160.948 18.6114   4
  -5   6   1 126.704 13.1304   3
  -5   6  -1 144.275 18.8527   4
  -5   6  -1 133.984 15.4132   3
  -5  -6   1 139.708 16.3165   4
   5  -6  -1 183.294 30.9062   4
   5  -6  -1 134.655 17.6368   3
  -5  -6   1 149.447 13.6840   3
  -6   6   1 53.1361 10.8715   4
  -6   6   1 29.9789 10.1803   3
   6  -6   1 74.0201 23.5600   4
  -6  -6  -1 53.0364 9.51910   3
  -6   6  -1 34.8160 8.99067   3
  -6   6  -1 70.1568 14.4649   4
   6  -6  -1 44.1538 16.4802   4
   0   7   1 10.8245 4.11999   3
   0  -7   1 5.15903 4.85832   4
   0   7  -1 2.92705 3.66790   3
   0  -7  -1 11.8404 7.21673   3
   0  -7  -1 9.72724 6.30926   4
   0  -7   1 0.49059 5.74973   3
   1   7  -1 127.677 12.1215   3
  -1   7   1 124.509 12.8754   3
   1  -7   1 130.112 30.5027   3
  -1  -7  -1 128.307 14.3810   3
  -1  -7  -1 138.119 16.5278   4
   1  -7   1 115.160 16.0600   4
  -1   7  -1 129.837 16.1416   4
  -1   7  -1 132.540 13.5504   3
   1   7   1 118.606 11.3414   3
  -1  -7   1 111.366 14.9802   3
  -1  -7   1 112.349 15.4961   4
   1  -7  -1 119.810 15.3728   4
   2  -7   1 14.1009 6.91438   4
  -2  -7  -1 16.3282 5.41547   4
  -2   7   1 19.7461 5.46993   3
   2   7  -1 8.81650 4.22699   3
  -2  -7  -1 23.3784 6.84228   3
   2  -7  -1 6.38707 6.47874   4
  -2  -7   1 18.3439 6.32401   3
  -2   7  -1 12.1636 6.31046   4
  -2   7  -1 20.4636 6.98692   3
   2  -7  -1 17.9795 9.20600   3
  -2  -7   1 17.9791 8.11561   4
  -3  -7  -1 100.271 12.2173   3
   3  -7   1 107.144 24.0376   4
  -3  -7  -1 97.2012 16.2963   4
  -3   7   1 116.543 12.4608   3
  -3   7   1 82.1294 14.5067   4
   3  -7   1 93.0716 16.5965   3
  -3  -7   1 84.4348 11.6627   3
  -3   7  -1 83.9782 16.2203   4
  -3  -7   1 104.265 18.4560   4
   3  -7  -1 89.0719 15.9720   3
  -3   7  -1 90.8161 12.0031   3
   3  -7  -1 108.950 21.3345   4
   4  -7   1 92.7169 23.6354   4
  -4  -7  -1 72.4865 16.5718   4
  -4   7   1 65.0917 14.7459   3
  -4   7   1 78.4480 17.0493   4
   4  -7   1 62.5780 14.4153   3
  -4  -7  -1 54.5396 10.7930   3
  -4  -7   1 91.8047 12.5061   3
   4  -7  -1 87.2682 16.1451   3
  -4   7  -1 98.5157 19.1088   4
  -4  -7   1 109.805 14.7939   4
   4  -7  -1 60.5860 16.1661   4
  -5  -7  -1 56.4920 10.8368   3
   5  -7   1 49.5968 14.5211   3
   5  -7   1 70.6888 21.8188   4
  -5  -7  -1 54.5219 13.1180   4
  -5   7   1 70.3461 13.2711   3
  -5   7   1 67.2548 14.8410   4
  -5   7  -1 52.0139 14.3755   4
  -5   7  -1 69.2265 12.2304   3
  -5  -7   1 61.2867 12.0422   3
  -5  -7   1 52.3895 11.1826   4
   5  -7  -1 49.3147 17.9752   4
   5  -7  -1 66.1541 15.9523   3
   0  -8  -1 8.22170 4.06914   3
   0  -8   1 3.11823 6.13838   4
   0   8  -1 14.3325 4.44038   3
   0  -8   1 0.99638 5.21775   3
   0  -8  -1 5.76613 5.22936   4
   0   8   1 3.07854 3.61248   3
  -1  -8  -1 73.9139 14.4117   3
   1   8  -1 77.5445 12.7259   3
  -1   8   1 85.4142 11.5563   3
   1  -8   1 53.4544 13.1813   4
   1  -8   1 85.8565 16.5422   3
  -1  -8  -1 94.1254 17.8559   4
  -1  -8   1 87.3512 17.1869   3
   1  -8  -1 108.828 19.1419   3
  -1  -8   1 93.7259 17.4053   4
   1  -8  -1 90.0628 18.4616   4
  -1   8  -1 87.8182 14.6369   3
  -2  -8  -1 49.0346 10.4385   3
  -2  -8  -1 52.1441 11.4645   4
   2  -8   1 75.3484 21.0553   4
   2  -8   1 38.0657 11.9812   3
  -2   8   1 34.4649 9.46088   3
  -2   8  -1 39.0717 10.3091   3
  -2  -8   1 36.5070 9.09442   3
   2  -8  -1 27.9616 9.50501   3
   2  -8  -1 40.7920 16.4355   4
  -2   8  -1 38.1451 10.2164   4
  -2  -8   1 59.0988 12.8215   4
   3  -8   1 30.1029 17.3420   4
   3  -8   1 35.2739 10.4604   3
  -3  -8  -1 22.3213 5.96385   3
  -3   8   1 33.4237 9.52886   3
  -3  -8  -1 39.3423 11.1218   4
  -3  -8   1 16.2733 9.28734   4
  -3   8  -1 22.5146 8.53290   3
  -3   8  -1 16.7162 7.76916   4
   3  -8  -1 14.3048 8.49274   3
  -3  -8   1 21.0982 7.86334   3
   3  -8  -1 11.1166 8.89506   4
  -4  -8  -1 12.4170 6.03073   3
   4  -8   1 -2.8363 6.44243   3
  -4  -8  -1 2.97492 6.74186   4
  -4   8   1 1.05506 6.69489   4
   4  -8  -1 17.1483 7.02626   3
  -4  -8   1 9.63534 6.52423   3
  -4   8  -1 8.75171 5.67209   4
   4  -8  -1 -0.0365 9.36636   4
  -4  -8   1 2.46409 7.07345   4
   0   9   1 5.35488 5.23210   3
   0  -9  -1 5.63692 6.87777   4
   0  -9   1 18.8303 13.3665   4
   0  -9  -1 5.77060 5.39248   3
   0   9  -1 2.66147 4.64526   3
   0  -9   1 2.86900 5.68326   3
  -1  -9  -1 299.145 30.2727   4
   1  -9   1 256.689 36.1563   4
  -1  -9  -1 286.185 24.0427   3
   1   9  -1 231.735 25.0598   3
  -1   9   1 257.995 21.4545   3
  -1  -9   1 284.889 25.5111   3
  -1   9  -1 292.994 22.2435   3
   1  -9  -1 254.590 33.8377   4
   1  -9  -1 248.414 24.5088   3
  -1  -9   1 208.175 24.8414   4
   2  -9   1 10.7997 7.41254   3
  -2  -9  -1 11.8039 6.48216   3
   2  -9  -1 9.65384 7.30810   3
  -2  -9   1 15.0783 7.27691   3
  -2  -9   1 20.7463 9.89760   4
   3  -9   1 161.045 21.7222   3
  -3  -9   1 234.213 44.1628   3
   3  -9  -1 157.208 21.1229   3
  -3   9  -1 115.254 21.5336   4
   0 -10  -1 14.3113 9.39048   3
   0 -10   1 2.55030 9.13595   3
   1 -10   1 35.8823 14.1419   3
  -1 -10  -1 69.0257 13.8210   3
  -1 -10   1 94.4777 18.5574   3
   1 -10  -1 57.5407 16.7136   3
   0   0   2 91.6664 8.42382   3
  -1   0  -2 0.40276 1.59352   4
   1   0  -2 1.60771 1.42564   3
  -1   0  -2 -1.0165 1.55926   3
  -1   0   2 -0.1486 1.45038   3
  -2   0  -2 1916.24 61.5430   4
  -2   0   2 1955.16 46.1656   3
  -2   0  -2 1987.75 51.8048   3
  -3   0  -2 1.33709 3.73161   4
  -3   0   2 0.55040 1.15664   4
  -4   0  -2 354.534 19.4546   3
  -4   0  -2 355.638 27.2877   4
  -4   0   2 365.346 18.0881   4
  -5   0  -2 3.14738 3.81436   3
  -5   0  -2 -5.9885 2.71864   4
  -6   0   2 64.5983 11.8220   4
  -6   0  -2 68.7236 12.0450   3
  -6   0  -2 64.4111 16.2038   4
  -7   0  -2 1.65060 4.48208   3
  -7   0  -2 7.84329 7.12897   4
  -7   0   2 -3.5083 3.86818   4
   0   1  -2 3448.00 75.5989   3
   0  -1   2 3554.16 77.3244   3
   0   1  -2 3540.20 74.8202   4
   0  -1   2 3505.10 75.4795   4
   1  -1   2 323.627 17.1631   3
   1  -1   2 410.483 22.0101   4
   1   1  -2 314.652 9.83014   4
   1   1  -2 321.281 11.3841   3
   1  -1  -2 334.592 20.2280   3
  -1  -1   2 321.355 10.7294   4
   1  -1  -2 325.700 11.1564   4
  -1  -1   2 321.500 13.2791   3
  -1   1  -2 320.295 17.6892   4
  -1   1  -2 312.589 16.0961   3
   1  -1  -2 310.196 10.6087   3
  -2   1   2 21.6045 2.58755   3
   2  -1   2 9.12570 3.63125   4
   2  -1   2 9.45349 3.38114   3
  -2   1   2 20.6298 2.88460   4
   2  -1  -2 17.0418 3.81306   4
  -2  -1   2 18.9871 2.60372   3
   2  -1  -2 16.4149 2.09863   3
  -2   1  -2 13.7534 4.47274   4
  -2   1  -2 20.2867 5.38467   3
   2  -1  -2 16.3934 3.51767   3
   3  -1   2 154.346 16.1525   4
  -3   1   2 152.267 7.28166   3
  -3   1   2 146.434 9.65210   4
   3  -1  -2 146.296 11.2268   4
  -3   1  -2 157.644 12.2775   3
  -3   1  -2 140.341 15.4207   4
  -3  -1   2 152.362 9.97559   4
  -4  -1  -2 630.904 36.5357   4
  -4   1   2 624.543 25.0753   4
  -4   1   2 639.649 18.5944   3
  -4   1  -2 628.872 27.5890   3
  -4  -1   2 608.194 26.1013   4
  -4   1  -2 620.423 36.4565   4
  -5  -1  -2 103.458 21.3654   4
  -5   1   2 103.511 10.5977   4
  -5   1   2 99.0231 6.70276   3
  -5   1  -2 109.577 19.2572   4
  -5  -1   2 104.779 11.1577   4
  -5   1  -2 99.0826 10.3667   3
  -6   1   2 97.8357 11.7409   4
  -6   1   2 86.6962 6.78644   3
  -6  -1  -2 69.8659 18.6542   4
  -6   1  -2 90.6135 10.1848   3
  -6  -1   2 108.703 12.1503   4
  -6   1  -2 97.8870 20.5380   4
  -7   1   2 19.7976 7.77782   4
  -7  -1  -2 31.3963 11.9129   4
  -7  -1   2 38.9400 10.0180   4
  -7   1  -2 50.0630 16.1456   4
  -7   1  -2 34.9053 6.98073   3
   0  -2   2 50.5878 6.10716   3
   0   2  -2 35.8814 4.92001   4
   0   2  -2 46.4246 5.30477   3
   0  -2  -2 48.7374 4.49233   3
   0  -2   2 46.4286 6.02460   4
   1   2  -2 275.028 11.5817   3
   1   2  -2 273.420 12.0233   4
   1  -2   2 272.070 15.9866   3
   1  -2   2 257.851 17.0457   4
  -1   2   2 273.718 11.5044   3
  -1   2  -2 265.156 14.6128   3
  -1  -2   2 263.925 12.9123   3
   1  -2  -2 274.280 13.1173   4
   1  -2  -2 283.512 11.9456   3
   2  -2   2 272.978 20.6425   4
  -2   2   2 294.415 12.4638   3
  -2   2   2 293.576 14.1352   4
   2  -2   2 324.971 18.8500   3
   2  -2  -2 289.475 15.4305   4
  -2  -2   2 297.080 12.5562   3
  -2   2  -2 279.596 19.7201   4
  -2   2  -2 282.158 16.3908   3
   2  -2  -2 303.356 12.6327   3
  -3   2   2 122.209 7.97075   3
   3  -2   2 136.654 10.6156   3
  -3   2   2 137.154 11.0985   4
   3  -2   2 119.277 14.5437   4
  -3   2  -2 121.981 11.0248   3
   3  -2  -2 128.358 11.9879   4
  -3  -2   2 129.123 7.44242   3
  -4   2   2 136.828 8.96537   3
  -4   2   2 134.484 11.6049   4
   4  -2   2 137.657 17.3500   4
  -4   2  -2 138.733 16.7698   4
  -4   2  -2 137.457 12.1166   3
   4  -2  -2 153.425 15.2941   4
  -4  -2   2 141.404 7.65644   3
  -5  -2  -2 13.8716 8.54041   4
  -5   2   2 20.4025 4.61008   3
  -5   2   2 21.2703 7.09615   4
   5  -2   2 10.8707 7.17494   4
  -5   2  -2 26.2802 6.81309   3
  -5   2  -2 22.9629 10.1174   4
   5  -2  -2 20.1324 7.70658   4
  -5  -2   2 20.7467 7.18089   4
  -6   2   2 46.8152 7.16829   3
  -6  -2  -2 64.9075 17.5157   4
  -6   2   2 49.9377 11.6178   4
  -6   2  -2 44.4580 8.95113   3
  -6  -2   2 37.5628 10.5976   4
  -6   2  -2 41.7969 13.5737   4
  -7   2   2 2.37215 4.58113   4
  -7   2   2 -5.7795 2.79021   3
  -7  -2  -2 22.0751 11.0663   4
  -7  -2   2 -10.820 5.55474   4
  -7   2  -2 4.66330 6.88618   4
  -7   2  -2 -3.5392 4.40491   3
   0   3  -2 2477.61 59.1706   3
   0  -3   2 2531.18 65.6001   4
   0   3  -2 2443.01 62.0990   4
   0  -3   2 2418.54 62.0527   3
   0  -3  -2 2427.31 56.4340   3
   0   3   2 2448.93 55.6140   3
   1  -3   2 96.6945 10.1016   3
   1  -3   2 76.8994 10.1816   4
  -1   3   2 78.4003 6.92611   3
   1   3  -2 98.0098 7.54713   3
  -1  -3  -2 93.2249 7.25569   3
  -1   3  -2 87.1440 8.72271   3
  -1   3  -2 75.5395 9.31394   4
   1  -3  -2 95.0038 7.83354   3
  -1  -3   2 81.9479 8.39442   4
   1  -3  -2 97.9412 8.96178   4
  -1  -3   2 80.5498 8.51643   3
   2  -3   2 179.733 17.5445   4
   2   3  -2 196.045 8.70718   3
   2  -3   2 197.852 15.4162   3
  -2   3   2 196.806 11.4250   3
  -2   3   2 179.717 12.7096   4
  -2   3  -2 185.206 16.3569   4
   2  -3  -2 206.944 14.5999   4
  -2  -3   2 191.826 15.0934   3
  -2   3  -2 173.211 13.2376   3
   2  -3  -2 184.443 14.9479   3
  -2  -3   2 185.362 11.9557   4
   3  -3   2 46.7003 12.8657   4
  -3   3   2 31.5233 5.94111   3
   3  -3   2 24.7984 7.08234   3
  -3   3   2 29.6321 6.65396   4
  -3   3  -2 30.6009 9.26771   4
  -3  -3   2 33.3909 5.84422   3
  -3  -3   2 25.7592 5.78704   4
  -3   3  -2 25.6628 6.29230   3
   3  -3  -2 27.6035 5.50498   3
   3  -3  -2 28.8520 8.47634   4
   4  -3   2 414.974 32.9599   4
  -4   3   2 420.630 22.8363   4
  -4   3   2 444.748 19.4479   3
  -4   3  -2 430.953 30.1686   4
  -4  -3   2 416.780 17.2832   3
  -4   3  -2 447.817 22.9123   3
   4  -3  -2 449.017 28.8654   4
  -5   3   2 223.509 17.6597   4
   5  -3   2 224.080 25.0962   4
  -5   3   2 213.611 13.4048   3
  -5   3  -2 225.595 16.5977   3
  -5  -3   2 199.687 18.1648   3
  -5   3  -2 210.281 22.6583   4
   5  -3  -2 208.588 21.4206   4
  -6  -3  -2 33.5784 13.2219   4
  -6   3   2 42.9585 7.88298   3
  -6   3   2 46.5301 11.0689   4
   6  -3   2 46.9308 15.5212   4
  -6  -3   2 44.8004 9.79566   4
   6  -3  -2 26.3988 10.0802   4
  -6  -3   2 52.1751 9.41985   3
  -6   3  -2 35.1394 14.3396   4
  -6   3  -2 34.8259 8.89675   3
  -7   3   2 96.3920 16.0052   4
  -7   3   2 77.5970 11.4104   3
  -7  -3  -2 86.4555 23.0305   4
  -7  -3  -2 78.1239 7.41323   3
  -7  -3   2 103.823 18.0575   4
  -7   3  -2 55.6265 14.2990   4
  -7   3  -2 98.0676 12.0489   3
   0  -4  -2 85.9141 8.43534   3
   0  -4  -2 74.2270 8.78069   4
   0   4   2 76.4245 7.43991   3
   0  -4   2 70.3290 9.71979   4
   0  -4   2 77.6104 9.28352   3
   0   4  -2 86.5920 8.64453   3
   0   4  -2 91.7852 10.1007   4
   1   4  -2 154.386 10.6524   3
  -1  -4  -2 166.933 11.2061   3
   1  -4   2 139.070 14.8111   4
   1  -4   2 156.685 13.9647   3
  -1   4   2 153.194 11.0926   3
  -1   4  -2 159.140 14.4605   4
   1  -4  -2 165.551 12.0380   3
  -1  -4   2 150.994 12.3702   3
  -1  -4   2 148.825 13.1478   4
   1  -4  -2 168.080 13.8066   4
  -1   4  -2 147.911 12.2018   3
  -2   4   2 176.462 14.1859   4
  -2  -4  -2 180.443 11.6923   3
   2   4  -2 163.325 9.49246   3
   2  -4   2 178.411 18.0900   4
   2  -4   2 170.808 15.8694   3
  -2   4   2 179.692 12.0832   3
   2  -4  -2 175.502 12.6762   3
  -2   4  -2 168.394 16.0083   4
   2  -4  -2 155.744 14.2709   4
  -2   4  -2 155.263 13.1864   3
  -2  -4   2 167.634 12.5417   3
  -2  -4   2 172.169 13.3886   4
   3  -4   2 237.294 22.9598   4
   3  -4   2 218.006 18.8805   3
  -3  -4  -2 231.287 13.4032   3
  -3   4   2 231.281 16.9743   4
  -3   4   2 257.693 15.0054   3
  -3   4  -2 250.770 21.5798   4
  -3   4  -2 216.824 16.3244   3
  -3  -4   2 216.598 14.1292   3
   3  -4  -2 227.429 19.3331   4
  -3  -4   2 218.398 15.2526   4
   3  -4  -2 236.037 15.3728   3
  -4   4   2 19.8912 6.63541   4
   4  -4   2 15.4885 7.04633   3
  -4   4   2 16.1642 4.76110   3
  -4  -4  -2 13.8643 4.08577   3
   4  -4   2 22.0558 8.68590   4
   4  -4  -2 6.65721 5.76659   4
   4  -4  -2 12.3877 5.96631   3
  -4   4  -2 12.7146 7.01221   4
  -4  -4   2 8.72406 3.35976   3
  -4   4  -2 3.65966 4.11701   3
   4  -4  -2 10.1927 4.43397   3
  -4  -4   2 15.2120 4.86355   4
  -5  -4  -2 32.1274 6.15452   3
   5  -4   2 31.9054 11.2384   4
  -5   4   2 36.8253 11.3192   3
  -5   4   2 43.4096 9.71993   4
  -5   4  -2 27.9023 7.53989   3
  -5   4  -2 34.6411 12.1773   4
  -5  -4   2 34.7583 7.59171   3
   5  -4  -2 33.3236 13.9784   4
   6  -4   2 6.00616 8.89934   4
  -6  -4  -2 0.56120 2.97035   3
  -6   4   2 -1.7719 3.86050   3
  -6   4   2 -3.5193 3.79599   4
   6  -4  -2 16.0785 7.62860   4
  -6   4  -2 -4.1002 5.90203   4
  -6   4  -2 11.1497 4.75811   3
  -6  -4   2 7.73225 4.21408   3
  -6  -4   2 -1.1775 5.60344   4
  -7  -4  -2 3.48205 4.03957   3
  -7   4   2 17.3947 6.62262   4
  -7  -4  -2 11.6484 10.3421   4
  -7   4   2 2.24113 5.53563   3
  -7  -4   2 -1.3113 5.78511   3
  -7  -4   2 -6.4046 8.22404   4
  -7   4  -2 24.1101 8.75063   4
  -7   4  -2 17.5297 6.28187   3
   0   5   2 2.83035 2.11760   3
   0  -5   2 2.70564 2.48201   3
   0  -5  -2 2.88065 2.10213   4
   0   5  -2 0.29391 1.56164   3
   0  -5   2 3.83494 4.26318   4
   0  -5  -2 -0.5776 1.96667   3
   0   5  -2 -0.0710 1.74911   4
   1  -5   2 1757.13 65.0756   4
   1  -5   2 1894.06 61.4477   3
   1   5  -2 1853.83 50.7316   3
  -1  -5  -2 1844.96 58.4001   4
  -1  -5  -2 1775.94 52.3073   3
  -1   5   2 1798.37 51.1874   3
   1  -5  -2 1753.61 58.9360   4
  -1  -5   2 1827.88 59.8613   4
  -1  -5   2 1720.99 55.5078   3
   1  -5  -2 1734.31 53.3929   3
  -1   5  -2 1812.37 54.8201   3
  -2   5   2 80.2928 14.1637   3
   2   5  -2 67.4661 7.04133   3
  -2  -5  -2 78.9945 9.02676   3
   2  -5   2 66.0974 12.7452   3
   2  -5  -2 72.2010 13.5843   4
   2  -5  -2 77.6203 9.83866   3
  -2   5  -2 70.4847 13.6733   4
  -2  -5   2 79.4194 9.91492   4
  -2  -5   2 69.1415 9.21373   3
  -3  -5  -2 902.486 32.7946   3
   3  -5   2 943.963 51.4053   4
   3  -5   2 969.121 44.4215   3
  -3   5   2 967.619 40.2259   4
  -3   5   2 921.199 34.6130   3
  -3  -5   2 970.220 39.0692   4
  -3  -5   2 908.387 35.7969   3
  -3   5  -2 946.531 38.1557   3
   3  -5  -2 916.824 44.4925   4
  -3   5  -2 831.527 43.8524   4
   3  -5  -2 905.137 36.3386   3
  -4   5   2 14.2801 4.81435   3
  -4   5   2 20.3722 7.53112   4
   4  -5   2 40.5868 12.3915   4
   4  -5   2 13.2261 6.67612   3
  -4  -5  -2 10.7373 4.26640   3
  -4  -5   2 9.05475 5.06309   3
  -4   5  -2 21.7909 7.01337   3
  -4  -5   2 17.7408 6.25512   4
  -4   5  -2 11.6912 8.13655   4
   4  -5  -2 14.8391 6.82504   4
   4  -5  -2 15.1755 5.32610   3
  -5  -5  -2 558.323 24.5892   3
  -5   5   2 571.741 32.4937   4
   5  -5   2 563.032 45.6981   4
  -5   5   2 545.705 27.2457   3
  -5  -5   2 574.648 27.1403   3
   5  -5  -2 546.888 40.0672   4
  -5   5  -2 546.627 37.9747   4
  -5   5  -2 541.577 29.5374   3
  -6   5   2 55.2030 13.5185   4
   6  -5   2 27.2248 17.6154   4
  -6   5   2 36.4354 9.10453   3
  -6  -5  -2 54.7799 7.26608   3
  -6  -5   2 43.6835 11.1189   4
   6  -5  -2 40.2283 19.1025   4
  -6   5  -2 62.0104 11.3325   3
  -6   5  -2 44.4405 13.7902   4
  -6  -5   2 55.3755 10.1286   3
   0  -6   2 123.317 13.9145   3
   0   6   2 97.8953 10.0778   3
   0   6  -2 112.821 13.5882   4
   0  -6  -2 108.717 12.0276   3
   0   6  -2 130.471 12.5780   3
   0  -6  -2 110.116 13.5834   4
   0  -6   2 112.966 14.7262   4
  -1   6   2 190.771 14.4250   3
   1  -6   2 214.683 18.9986   3
  -1  -6  -2 174.184 14.7393   3
  -1  -6  -2 175.065 16.9616   4
   1  -6   2 186.682 20.4360   4
   1  -6  -2 158.890 16.9704   4
  -1   6  -2 166.096 17.4509   4
  -1  -6   2 204.034 17.8633   3
  -1   6  -2 194.955 16.0375   3
   1  -6  -2 158.863 14.6281   3
  -1  -6   2 186.505 17.8194   4
   2   6  -2 115.273 9.79615   3
   2  -6   2 84.9740 15.7521   4
  -2  -6  -2 122.505 12.2040   3
   2  -6   2 109.128 14.9443   3
  -2  -6  -2 138.046 15.3548   4
  -2   6   2 113.518 11.8441   3
  -2   6  -2 115.076 12.8703   3
  -2  -6   2 111.536 13.5061   4
   2  -6  -2 125.393 13.6279   3
   2  -6  -2 124.409 16.1303   4
  -2  -6   2 143.920 14.0170   3
  -2   6  -2 115.400 14.9029   4
  -3   6   2 87.9907 16.5513   4
   3  -6   2 75.5382 16.6580   4
   3  -6   2 102.560 18.8733   3
  -3  -6  -2 74.9318 9.64803   3
  -3   6   2 79.6427 9.62063   3
  -3  -6   2 80.8416 10.0987   3
   3  -6  -2 84.1061 14.6704   3
  -3  -6   2 74.4957 14.2948   4
  -3   6  -2 64.9205 14.5841   4
  -3   6  -2 81.3564 10.6499   3
   3  -6  -2 98.9707 20.7705   4
  -4  -6  -2 79.6477 10.5258   3
  -4   6   2 75.6501 10.1763   3
  -4   6   2 100.889 17.1822   4
   4  -6   2 101.266 23.7973   4
   4  -6   2 110.140 19.9411   3
   4  -6  -2 85.1471 14.4004   3
   4  -6  -2 86.7570 18.1231   4
  -4   6  -2 102.915 12.0376   3
  -4  -6   2 90.4809 11.9565   3
  -4  -6   2 92.8987 11.8176   4
  -4   6  -2 98.2066 19.9733   4
  -5   6   2 4.64496 5.19131   4
   5  -6   2 -9.7312 9.83625   4
  -5   6   2 -2.4463 3.57498   3
   5  -6   2 -9.8034 7.75436   3
  -5   6  -2 3.75214 4.52678   3
  -5   6  -2 20.2339 7.44550   4
  -5  -6   2 5.21793 6.56724   4
   5  -6  -2 -6.6597 7.39951   4
  -6   6   2 17.9881 6.73804   4
  -6   6   2 12.8354 6.95740   3
  -6  -6  -2 18.8155 5.98207   3
  -6  -6   2 10.8559 7.39224   4
  -6   6  -2 34.4643 7.69172   4
  -6  -6   2 18.0497 6.49144   3
  -6   6  -2 8.36818 6.97143   3
   6  -6  -2 42.8246 11.9473   4
   0  -7   2 381.778 27.8338   3
   0  -7   2 357.329 29.5946   4
   0  -7  -2 394.159 28.1820   4
   0   7  -2 391.813 24.0161   3
   0   7   2 406.782 22.6503   3
   0  -7  -2 395.386 25.5821   3
   1   7  -2 28.4405 7.50010   3
  -1  -7  -2 32.1213 9.27461   3
  -1  -7  -2 46.4390 11.5351   4
  -1   7   2 35.4434 9.07868   3
   1  -7   2 44.4425 14.3186   4
   1  -7   2 49.1026 12.6016   3
  -1  -7   2 25.5720 8.42591   3
  -1  -7   2 35.8680 8.33202   4
  -1   7  -2 36.4386 8.94769   3
   1  -7  -2 31.6944 9.08540   4
  -1   7  -2 34.9942 10.3546   4
   1  -7  -2 44.8758 10.2521   3
  -2  -7  -2 334.677 26.6107   4
  -2  -7  -2 318.510 22.6488   3
   2   7  -2 353.926 19.6036   3
   2  -7   2 331.125 28.3445   3
  -2   7   2 343.109 22.5593   3
   2  -7   2 346.967 31.6445   4
  -2   7  -2 342.034 23.8926   3
  -2  -7   2 338.237 26.6772   4
  -2   7  -2 353.425 28.3440   4
   2  -7  -2 307.407 27.0138   4
   2  -7  -2 327.108 33.3680   3
  -2  -7   2 329.886 24.7654   3
  -3  -7  -2 28.5259 9.06961   4
  -3   7   2 23.6257 5.88805   3
   3  -7   2 20.9497 12.3709   4
  -3  -7  -2 13.3147 6.15869   3
  -3   7  -2 23.8161 7.58082   3
   3  -7  -2 4.25682 5.62633   3
   3  -7  -2 23.8942 8.78181   4
  -3   7  -2 13.7292 6.86596   4
  -3  -7   2 12.4575 5.18727   3
  -3  -7   2 3.32713 4.80429   4
   4  -7   2 190.289 34.8709   4
   4  -7   2 149.978 24.5119   3
  -4  -7  -2 194.034 38.2693   4
  -4  -7  -2 171.451 16.9316   3
  -4  -7   2 200.755 19.9433   4
  -4  -7   2 185.444 18.2997   3
   4  -7  -2 166.186 18.0973   3
  -4   7  -2 198.281 22.7679   4
  -4   7  -2 168.252 21.7061   3
   4  -7  -2 169.438 30.2014   4
  -5   7   2 54.5270 12.7010   4
  -5   7   2 58.3164 11.8527   3
  -5  -7  -2 44.2058 10.5288   3
   5  -7   2 5.47563 11.4662   3
  -5   7  -2 49.4481 11.1743   3
   5  -7  -2 28.3386 16.1182   4
  -5  -7   2 31.2804 10.2656   3
   5  -7  -2 48.0413 14.3261   3
  -5   7  -2 38.5869 10.9622   4
   5  -7  -2 12.3293 9.45642   3
   0   8  -2 58.9912 10.9249   3
   0  -8  -2 63.3922 12.6450   3
   0   8   2 64.2662 11.4666   3
   0  -8   2 59.2837 15.6663   4
   0  -8   2 50.8417 12.8984   3
   0  -8  -2 53.3621 12.8025   4
   1  -8   2 85.8387 17.8297   4
  -1   8   2 104.342 12.5712   3
  -1  -8  -2 99.1300 17.9785   4
  -1  -8  -2 107.079 14.1790   3
   1  -8   2 94.8641 18.4066   3
   1   8  -2 103.576 11.9424   3
  -1  -8   2 103.437 18.8207   4
   1  -8  -2 110.432 18.3069   3
  -1  -8   2 102.867 18.2690   3
   1  -8  -2 130.065 18.0800   4
  -1   8  -2 82.4872 17.6155   4
  -1   8  -2 134.359 15.0835   3
   2  -8   2 22.7879 8.82807   3
  -2  -8  -2 39.2053 14.1377   4
   2   8  -2 27.4101 7.09051   3
   2  -8   2 29.0177 11.7089   4
  -2  -8  -2 12.5604 5.88071   3
  -2   8   2 22.7696 7.05512   3
  -2   8  -2 14.8808 7.37344   3
   2  -8  -2 22.8556 11.5085   4
   2  -8  -2 29.6333 9.73633   3
  -2   8  -2 24.4262 9.68370   4
  -2  -8   2 37.8808 8.88815   3
  -2  -8   2 21.6928 8.17796   4
   3  -8   2 45.0507 14.8142   4
  -3  -8  -2 59.1984 15.3006   4
  -3   8   2 48.9292 10.2011   3
  -3  -8  -2 63.7342 13.3135   3
   3  -8   2 90.0583 16.9284   3
   3  -8  -2 40.0881 12.4445   3
  -3  -8   2 64.1705 14.9533   4
  -3  -8   2 46.8540 12.3501   3
  -3   8  -2 55.7696 11.8121   3
  -3   8  -2 64.1797 15.9631   4
   3  -8  -2 52.6206 14.5207   4
   4  -8   2 0.86388 10.1868   3
  -4  -8  -2 15.8089 8.33728   3
   4  -8  -2 0.72104 7.99169   4
   4  -8  -2 15.4816 10.7512   3
  -4  -8   2 31.9649 11.8420   4
  -4  -8   2 38.2137 8.60170   3
   0  -9   2 249.547 28.9872   4
   0  -9  -2 218.514 23.0782   3
   0   9  -2 242.305 20.5123   3
   0  -9   2 273.126 26.6794   3
   0  -9  -2 227.290 30.4458   4
   1  -9   2 3.25601 7.52235   3
   1   9  -2 24.2417 7.62066   3
  -1   9   2 7.71934 5.77647   3
  -1  -9  -2 13.2023 6.10847   3
  -1   9  -2 24.2899 8.36491   3
  -1  -9   2 -6.9199 7.47854   4
   1  -9  -2 17.0209 7.89384   3
  -1  -9   2 10.2239 8.08029   3
  -2  -9  -2 191.344 19.6941   3
   2  -9   2 209.715 23.4954   3
   2   9  -2 178.482 16.0593   3
   2  -9  -2 169.872 20.5078   3
  -2  -9   2 170.196 29.6110   4
  -2  -9   2 191.659 20.0041   3
   3  -9   2 30.9749 10.5757   3
  -3  -9  -2 11.0911 7.52879   3
   3  -9  -2 10.1630 7.62445   3
  -3   9  -2 20.2634 8.93872   4
   0 -10   2 11.9167 10.3831   3
   0 -10  -2 19.1542 8.25973   3
  -1 -10  -2 35.8208 9.11808   3
   1 -10   2 -10.050 9.07081   3
   1 -10  -2 14.4039 10.9856   3
  -1 -10   2 -6.4450 7.50943   3
   0   0  -3 -1.3090 1.52919   3
   0   0   3 -0.5276 1.46709   3
   1   0  -3 5979.85 125.706   3
  -1   0   3 6058.55 131.362   3
  -1   0  -3 6059.67 133.766   3
  -1   0  -3 5967.27 132.396   4
   1   0  -3 6187.46 113.632   4
   1   0   3 5735.45 130.240   3
  -2   0   3 1.36105 2.43723   3
  -2   0  -3 2.18449 2.43447   3
   2   0  -3 0.16753 0.52137   3
   2   0  -3 -0.4704 0.90436   3
  -3   0  -3 3478.05 101.270   4
  -3   0   3 3542.89 85.0425   3
  -3   0  -3 3694.84 92.5045   3
  -4   0   3 2.48364 3.00736   3
  -4   0  -3 -1.8501 2.93432   3
  -4   0  -3 2.74814 4.36678   4
  -5   0  -3 577.942 31.3982   3
  -5   0   3 598.249 27.4436   3
  -5   0  -3 572.091 39.3321   4
  -5   0   3 602.270 22.1520   4
  -6   0  -3 2.89162 6.67522   4
  -6   0  -3 -2.1115 5.89921   3
  -7   0   3 101.603 9.66112   4
  -7   0  -3 118.100 26.6948   4
  -7   0  -3 126.993 14.2334   3
   0   1  -3 3049.42 73.2144   3
   0  -1   3 3054.93 77.0373   3
   0  -1   3 3042.01 72.6375   4
   0   1  -3 3043.24 70.7008   4
   1  -1   3 1849.93 56.0753   3
   1   1  -3 1793.33 45.2360   3
   1   1  -3 1839.07 39.7647   4
   1  -1   3 1808.63 54.7093   4
  -1  -1   3 1733.91 41.7528   4
  -1   1  -3 1771.73 53.0352   3
  -1  -1   3 1801.98 50.1041   3
   1  -1  -3 1826.12 54.6947   3
  -1   1  -3 1830.82 54.8516   4
   2  -1   3 749.451 31.7595   3
   2  -1   3 814.923 36.8699   4
   2   1  -3 782.770 18.5753   3
   2  -1  -3 804.683 20.7138   3
   2  -1  -3 823.621 22.5436   4
  -2  -1   3 790.015 27.1002   3
   2  -1  -3 817.266 28.7848   3
  -2   1  -3 776.059 33.1916   3
  -2   1  -3 730.698 35.5980   4
  -3  -1  -3 382.067 27.1215   4
   3  -1   3 381.701 27.1442   4
  -3   1   3 390.670 13.8888   4
  -3   1   3 369.018 13.4101   3
  -3   1  -3 350.647 26.5500   4
  -3  -1   3 386.396 17.0342   3
  -3   1  -3 400.037 23.3692   3
   3  -1  -3 400.642 17.2757   4
  -4   1   3 280.730 11.6374   3
  -4  -1  -3 267.785 24.7751   4
  -4   1   3 285.676 13.3945   4
  -4   1  -3 264.180 24.9337   4
  -4   1  -3 259.423 19.1214   3
  -4  -1   3 256.607 13.6265   3
  -5   1   3 711.488 21.5167   3
  -5  -1  -3 687.934 44.4349   4
  -5  -1  -3 699.592 34.5056   3
  -5   1   3 720.453 26.3021   4
  -5  -1   3 668.958 24.8889   4
  -5   1  -3 723.115 33.4879   3
  -5   1  -3 724.477 44.6007   4
  -6  -1  -3 76.0347 13.5184   3
  -6   1   3 70.1132 8.34599   4
  -6  -1  -3 62.2717 16.0892   4
  -6   1  -3 78.4023 13.0623   3
  -6  -1   3 65.8961 8.42166   4
  -6   1  -3 75.2603 19.9097   4
  -7  -1  -3 236.708 20.4657   3
  -7   1   3 234.063 14.8161   4
  -7  -1  -3 232.432 30.1632   4
  -7   1  -3 227.482 18.4167   3
  -7   1  -3 219.499 25.7210   4
   0  -2   3 665.973 27.3591   4
   0   2  -3 673.972 25.8381   3
   0   2  -3 690.726 26.0592   4
   0  -2   3 685.461 28.5539   3
   1  -2   3 263.520 18.4184   3
   1   2  -3 263.016 12.4635   4
   1   2  -3 293.120 13.7402   3
   1  -2   3 255.916 18.7261   4
  -1   2  -3 279.914 18.6184   4
   1  -2  -3 257.628 12.7497   4
   1  -2  -3 288.520 12.4171   3
  -1  -2   3 257.344 13.7470   4
  -1   2  -3 276.127 16.9126   3
  -1  -2   3 266.761 15.5886   3
  -2   2   3 990.888 27.6380   3
   2  -2   3 914.660 38.8436   3
   2  -2   3 980.384 43.0497   4
   2   2  -3 976.543 24.5795   3
  -2  -2   3 956.514 27.0765   4
  -2   2  -3 1003.47 37.3449   3
  -2  -2   3 918.488 30.7707   3
   2  -2  -3 977.822 27.1794   3
   2  -2  -3 969.876 29.9290   4
   2  -2  -3 1020.00 38.9969   3
   3  -2   3 58.9827 12.7548   4
   3  -2   3 67.9164 11.3378   3
  -3   2   3 83.2937 7.28258   4
  -3   2   3 80.9475 6.73403   3
   3  -2  -3 75.0857 5.40956   3
  -3  -2   3 78.1963 5.82765   4
  -3   2  -3 45.2325 10.3795   4
  -3  -2   3 77.5213 7.40012   3
   3  -2  -3 69.6063 8.15330   4
  -3   2  -3 71.4669 9.36294   3
   4  -2   3 520.974 35.5302   4
  -4   2   3 504.025 18.7979   3
  -4   2   3 488.258 20.9026   4
   4  -2  -3 516.295 26.7501   4
  -4   2  -3 500.323 26.7597   3
  -4   2  -3 465.974 33.3726   4
  -4  -2   3 485.864 19.6737   3
  -5   2   3 19.4947 5.91583   4
  -5   2   3 20.1445 4.50190   3
  -5  -2  -3 16.4831 9.98779   4
  -5   2  -3 10.8334 7.76121   4
   5  -2  -3 25.8425 8.40799   4
  -5  -2   3 24.1032 5.17501   3
  -5  -2   3 23.8778 6.95674   4
  -5   2  -3 9.01188 5.33356   3
  -6  -2  -3 105.147 24.9674   4
  -6   2   3 76.4603 9.96086   4
  -6   2   3 75.7224 7.76009   3
  -6   2  -3 110.135 16.0621   3
  -6  -2   3 77.0938 9.92562   4
  -6   2  -3 80.2382 20.6198   4
  -7  -2  -3 19.4093 12.9336   4
  -7  -2  -3 10.4130 7.75861   3
  -7   2   3 9.55599 4.98966   4
  -7   2  -3 18.7931 7.80767   4
   0  -3  -3 3458.02 75.9770   3
   0  -3   3 3444.77 86.6120   3
   0   3  -3 3505.12 84.2223   4
   0   3  -3 3437.61 81.2433   3
   0  -3   3 3518.49 87.8369   4
   1   3  -3 444.549 22.5288   4
   1   3  -3 470.219 19.2536   3
  -1  -3  -3 452.424 17.8501   3
   1  -3   3 461.973 27.0166   4
   1  -3   3 459.787 25.5867   3
  -1  -3   3 448.429 22.2595   3
  -1   3  -3 458.544 25.1436   4
   1  -3  -3 440.452 18.2181   3
  -1   3  -3 464.184 22.9017   3
  -1  -3   3 432.368 21.3077   4
   1  -3  -3 459.633 20.6625   4
  -2   3   3 580.395 21.8734   3
   2   3  -3 590.954 19.1315   3
   2  -3   3 592.712 34.7274   4
   2  -3   3 619.202 32.0421   3
   2  -3  -3 600.295 22.4024   3
  -2  -3   3 580.076 23.3594   4
  -2   3  -3 555.633 31.4161   4
  -2   3  -3 615.273 27.9333   3
   2  -3  -3 654.381 26.5175   4
  -2  -3   3 581.522 24.4041   3
  -3   3   3 58.5981 6.56708   3
   3  -3   3 58.2228 12.6088   3
  -3   3   3 60.0471 7.49380   4
   3  -3   3 51.3225 12.2343   4
   3  -3  -3 65.9994 12.3104   3
   3  -3  -3 60.3948 6.57964   3
  -3   3  -3 54.2133 12.3178   4
  -3  -3   3 61.5337 6.73080   4
  -3  -3   3 60.9927 7.36388   3
   3  -3  -3 72.2402 12.2041   4
  -3   3  -3 80.0555 12.8589   3
  -4   3   3 436.475 21.7709   4
   4  -3   3 467.764 35.3973   4
   4  -3   3 452.415 22.8257   3
  -4   3   3 439.829 19.6071   3
  -4   3  -3 441.335 24.8700   3
  -4  -3   3 408.765 19.7723   3
   4  -3  -3 444.736 27.5611   4
  -4   3  -3 463.495 33.4141   4
  -4  -3   3 463.195 19.6771   4
   5  -3   3 149.033 20.1303   4
  -5   3   3 125.027 12.3779   4
  -5   3   3 159.567 11.7910   3
  -5   3  -3 145.857 14.0157   3
  -5  -3   3 146.916 11.3987   3
   5  -3  -3 152.439 17.8698   4
  -5  -3   3 143.780 10.9879   4
  -5   3  -3 159.700 31.2867   4
  -6   3   3 93.7257 9.51906   3
  -6   3   3 86.3305 10.8556   4
  -6  -3  -3 72.0471 18.0972   4
  -6  -3   3 92.9704 9.52135   4
  -6  -3   3 96.5387 11.8292   4
   6  -3  -3 87.2881 16.2930   4
  -6   3  -3 106.808 12.9689   3
  -6   3  -3 92.2136 23.4511   4
  -6  -3   3 78.4069 10.0172   3
  -7   3   3 24.0647 5.38851   4
  -7  -3  -3 39.2884 13.9800   4
  -7   3   3 14.2912 4.71333   3
  -7   3  -3 15.2401 7.81126   3
  -7  -3   3 11.9887 7.73646   4
  -7  -3   3 13.6707 4.48168   4
  -7   3  -3 23.0127 8.71407   4
   0   4  -3 54.8854 9.04594   4
   0  -4   3 53.6376 10.6348   3
   0  -4   3 59.2694 11.9730   4
   0   4  -3 57.7032 7.58821   3
   0  -4  -3 60.2628 6.83138   3
   1   4  -3 89.3158 8.55023   3
   1  -4   3 99.0230 13.3526   4
   1   4  -3 93.5429 9.72400   4
  -1  -4  -3 91.8663 8.67453   3
   1  -4   3 86.7154 11.2281   3
  -1   4   3 92.7444 8.35725   3
  -1   4  -3 81.3191 10.9404   4
   1  -4  -3 83.7589 9.64094   4
   1  -4  -3 80.9258 8.38321   3
  -1  -4   3 85.6601 10.3029   4
  -1   4  -3 90.2663 10.0310   3
  -1  -4   3 91.4896 10.2214   3
   2  -4   3 432.097 27.3067   3
   2  -4   3 412.071 30.1148   4
  -2   4   3 414.700 19.5645   3
   2   4  -3 402.321 16.9427   3
  -2  -4  -3 390.625 18.5675   3
   2  -4  -3 435.211 20.8411   3
  -2  -4   3 409.059 21.7659   4
   2  -4  -3 438.330 24.0085   4
  -2  -4   3 400.372 21.5650   3
  -2   4  -3 419.172 23.7205   3
  -2   4  -3 384.883 26.4810   4
   3  -4   3 67.8217 15.3997   4
   3  -4   3 63.7724 13.3400   3
  -3   4   3 53.1439 10.7465   4
  -3  -4  -3 47.3930 6.19710   3
  -3   4   3 49.5927 6.86603   3
  -3  -4   3 52.2620 8.90214   4
   3  -4  -3 54.8831 9.04459   3
   3  -4  -3 57.0537 11.1766   4
  -3   4  -3 56.5026 11.3323   3
  -3   4  -3 55.7365 14.2399   4
  -3  -4   3 58.6839 10.4410   3
   4  -4   3 342.068 32.1354   4
  -4   4   3 364.979 21.8495   4
   4  -4   3 370.384 26.2717   3
  -4   4   3 358.586 19.3582   3
  -4   4  -3 347.527 27.9085   3
   4  -4  -3 373.111 24.1630   3
  -4   4  -3 353.119 29.5928   4
   4  -4  -3 377.326 26.8849   4
  -4  -4   3 326.254 18.7080   4
  -4  -4   3 354.302 20.2472   3
   4  -4  -3 358.708 17.7937   3
  -5   4   3 6.48194 3.35342   3
  -5   4   3 3.37774 3.50233   4
   5  -4   3 0.03112 6.17210   4
  -5  -4   3 3.05383 4.23348   3
  -5  -4   3 -2.7282 2.16608   4
   5  -4  -3 2.92245 7.19811   4
  -5   4  -3 0.64891 4.83000   4
  -5   4  -3 0.30595 4.11047   3
   6  -4   3 88.6410 39.1867   4
  -6  -4  -3 60.1688 7.11799   3
  -6   4   3 66.2525 11.0472   3
  -6   4   3 76.2548 14.1447   4
  -6   4  -3 74.4241 19.6079   4
  -6  -4   3 64.7903 10.6939   3
  -6  -4   3 66.5355 8.46124   4
  -6   4  -3 61.8275 12.0596   3
  -6  -4   3 66.9932 14.6564   4
   6  -4  -3 83.4965 17.7267   4
  -7   4   3 4.52120 4.83394   3
  -7  -4  -3 8.19491 3.49820   3
  -7  -4  -3 41.3939 12.9562   4
  -7  -4   3 4.28638 7.15009   4
  -7   4  -3 10.4733 6.31283   3
  -7  -4   3 6.79744 6.91113   3
  -7   4  -3 9.51056 6.99902   4
  -7  -4   3 11.9793 5.08375   4
   0  -5   3 1009.87 45.2556   4
   0  -5  -3 994.449 36.3637   3
   0   5  -3 1002.19 41.0609   4
   0  -5  -3 999.552 41.0408   4
   0   5  -3 1005.92 37.5168   3
   0  -5   3 1009.26 43.0214   3
  -1  -5  -3 213.855 14.8312   3
   1   5  -3 217.426 14.8432   3
   1  -5   3 267.257 23.5356   4
   1  -5   3 260.624 21.2058   3
   1   5  -3 229.631 17.7413   4
  -1   5   3 257.212 16.4978   3
   1  -5  -3 249.375 16.8153   3
  -1  -5   3 249.273 18.8086   3
   1  -5  -3 246.097 18.7622   4
  -1   5  -3 258.498 20.4998   4
  -1   5  -3 230.807 20.2047   3
  -1  -5   3 237.833 19.3377   4
   2  -5   3 136.365 24.8428   4
  -2  -5  -3 94.4546 9.21682   3
   2  -5   3 83.7674 16.0743   3
   2   5  -3 87.6125 8.16722   3
  -2   5   3 101.634 10.2520   3
  -2   5  -3 63.6035 12.3243   4
   2  -5  -3 86.0616 9.93780   3
  -2   5  -3 97.4893 11.1866   3
   2  -5  -3 80.1895 10.8756   4
  -2  -5   3 79.1444 10.8963   4
  -2  -5   3 96.8010 11.4743   3
   3  -5   3 71.0211 19.2521   4
  -3   5   3 81.7242 9.03953   3
   3  -5   3 71.7537 16.1491   3
  -3  -5  -3 61.3013 8.26634   3
  -3  -5   3 75.8675 10.1650   3
  -3   5  -3 98.0819 19.6700   4
  -3  -5   3 47.1436 9.79907   4
   3  -5  -3 103.122 18.8778   4
   3  -5  -3 67.1921 11.6005   3
  -3   5  -3 82.6645 14.2093   3
  -4   5   3 129.891 12.4590   3
   4  -5   3 94.2055 21.5290   4
  -4  -5  -3 131.234 11.7030   3
  -4   5   3 129.804 14.1413   4
   4  -5   3 163.521 18.5312   3
   4  -5  -3 125.539 17.2212   3
   4  -5  -3 122.306 12.0048   3
  -4  -5   3 126.258 12.9481   4
  -4   5  -3 143.196 19.1522   4
  -4   5  -3 119.859 14.3383   3
   4  -5  -3 128.118 16.1202   4
  -4  -5   3 125.581 13.7248   3
  -5  -5  -3 50.3577 6.38731   3
  -5   5   3 31.2596 9.19925   4
  -5   5   3 43.7309 8.81153   3
   5  -5   3 67.1017 18.4155   4
  -5  -5   3 36.8477 8.49901   3
  -5   5  -3 27.2720 8.38942   3
  -5   5  -3 42.6451 16.4293   4
   5  -5  -3 56.2978 13.8673   4
  -5  -5   3 28.0080 7.09181   4
   6  -5   3 29.2934 15.3232   4
  -6  -5  -3 2.70960 4.37296   3
  -6   5   3 11.9044 5.42140   3
  -6   5   3 4.74780 5.57691   4
   6  -5  -3 26.1501 13.1112   4
  -6  -5   3 27.4719 5.91838   4
  -6   5  -3 12.8895 6.72887   4
  -6   5  -3 2.33461 5.62363   3
  -6  -5   3 21.9917 7.68470   3
   0  -6  -3 8.87758 4.14482   3
   0  -6   3 12.1223 6.63567   4
   0   6  -3 3.43719 3.46594   3
   0  -6   3 5.79367 3.00088   3
   0  -6  -3 1.98264 3.60869   4
   0   6  -3 5.15036 3.79662   4
  -1  -6  -3 348.574 25.0245   4
   1   6  -3 392.886 21.5440   3
  -1   6   3 341.913 20.2703   3
  -1  -6  -3 329.299 21.1318   3
   1  -6   3 316.592 27.8279   4
   1  -6   3 328.445 26.3430   3
   1  -6  -3 356.272 25.2956   4
   1  -6  -3 348.637 22.0575   3
  -1   6  -3 317.029 24.6475   4
  -1  -6   3 380.387 25.8082   3
  -1   6  -3 363.158 23.2006   3
  -1  -6   3 372.354 26.8038   4
  -2  -6  -3 77.6263 9.61532   3
  -2   6   3 74.8885 9.71550   3
   2  -6   3 63.0290 12.7534   4
   2   6  -3 84.0513 8.83063   3
   2  -6   3 93.3811 17.3786   3
  -2  -6   3 88.7571 14.8525   4
  -2   6  -3 62.5014 18.6728   4
  -2  -6   3 117.047 13.3481   3
  -2   6  -3 96.9679 12.3566   3
   2  -6  -3 105.835 11.7387   3
   2  -6  -3 100.166 12.9247   4
   3  -6   3 267.647 30.0661   4
   3  -6   3 249.364 24.8651   3
  -3  -6  -3 265.294 18.5564   3
  -3   6   3 272.992 18.8805   3
   3  -6  -3 261.284 24.1006   4
  -3  -6   3 276.135 22.0833   3
  -3  -6   3 259.777 21.5280   4
   3  -6  -3 262.436 20.0979   3
  -3   6  -3 323.679 28.0386   4
  -3   6  -3 289.827 21.7419   3
  -4   6   3 89.7284 11.4405   3
   4  -6   3 124.419 27.2172   4
  -4  -6  -3 105.141 14.4860   3
   4  -6   3 95.9892 19.5355   3
  -4   6  -3 94.1853 12.8459   3
  -4  -6   3 106.556 12.3013   4
  -4  -6   3 91.5182 15.7355   3
   4  -6  -3 118.185 22.6051   4
   4  -6  -3 90.2370 12.5838   3
  -4   6  -3 90.1185 16.9656   4
   5  -6   3 84.6884 17.9994   3
  -5   6   3 109.779 12.1577   3
   5  -6   3 101.514 24.4709   4
  -5  -6  -3 105.935 11.3463   3
  -5  -6   3 111.393 12.8954   4
   5  -6  -3 84.2416 15.6923   3
   5  -6  -3 104.429 24.1305   4
  -5   6  -3 151.198 21.1784   4
  -5   6  -3 86.1900 15.5010   3
  -6   6   3 12.8146 7.00247   3
  -6  -6  -3 14.0645 7.01413   3
  -6   6  -3 24.2935 9.78840   4
  -6  -6   3 26.4945 7.61327   4
  -6  -6   3 -0.2048 6.92635   3
  -6   6  -3 9.74985 7.15179   3
   6  -6  -3 18.2574 14.0802   4
   0   7  -3 336.847 25.7962   4
   0  -7   3 288.589 27.3084   4
   0  -7  -3 316.518 22.2719   3
   0  -7   3 303.149 25.9343   3
   0  -7  -3 315.052 25.2626   4
   0   7  -3 294.141 21.1519   3
   1  -7   3 88.0192 18.3002   3
  -1   7   3 112.782 11.5550   3
   1   7  -3 87.7722 11.3037   3
   1  -7   3 131.655 18.0575   4
  -1  -7  -3 115.380 12.7749   3
  -1  -7  -3 86.9393 15.3222   4
  -1   7  -3 85.7809 16.1430   4
  -1   7  -3 90.9986 12.3512   3
   1  -7  -3 100.003 12.5873   3
   1  -7  -3 96.3722 17.0724   4
  -1  -7   3 78.0591 14.3379   4
  -1  -7   3 109.616 14.4618   3
   2  -7   3 36.2926 11.9539   4
  -2  -7  -3 34.4583 11.3218   4
   2  -7   3 39.5826 11.2083   3
  -2  -7  -3 41.9554 9.21093   3
  -2   7   3 33.7904 8.37156   3
   2   7  -3 28.6367 7.31870   3
  -2   7  -3 38.9645 13.2361   4
   2  -7  -3 34.9997 9.42611   3
  -2  -7   3 32.7597 7.78758   3
   2  -7  -3 37.4753 10.4524   4
  -2   7  -3 31.3370 8.51408   3
  -2  -7   3 34.2367 11.5344   4
  -3  -7  -3 69.9932 13.3354   3
   3  -7   3 68.2937 20.5760   4
  -3  -7  -3 49.1443 10.4194   4
  -3   7   3 55.3061 10.7296   3
   3  -7   3 37.0706 13.3749   3
  -3  -7   3 66.1858 13.2165   3
   3  -7  -3 49.2107 15.4390   4
  -3   7  -3 74.1990 10.0384   3
  -3  -7   3 68.5238 13.6699   4
  -3   7  -3 47.0786 13.5559   4
  -4   7   3 61.3592 11.8045   3
  -4  -7  -3 67.4740 13.1262   3
   4  -7   3 72.0846 18.3383   3
   4  -7   3 52.8747 16.2157   4
   4  -7  -3 78.8226 19.9901   4
  -4   7  -3 39.9645 11.1374   3
  -4   7  -3 44.0058 12.6195   4
   4  -7  -3 69.8213 12.6915   3
  -4  -7   3 60.6962 14.2590   4
  -4  -7   3 55.5098 12.9507   3
   5  -7   3 41.2480 14.6845   3
  -5   7   3 37.5932 9.28619   3
  -5  -7  -3 48.9182 10.1091   3
   5  -7  -3 25.7305 11.3440   3
  -5   7  -3 42.1851 14.8094   4
  -5  -7   3 41.1987 12.7210   3
  -5  -7   3 71.9568 14.5982   4
   5  -7  -3 36.2853 21.6300   4
   5  -7  -3 8.28809 15.2225   3
   0  -8   3 11.2685 5.50559   3
   0  -8  -3 10.3550 5.02051   3
   0  -8  -3 2.65419 5.01134   4
   0  -8   3 7.16058 6.35130   4
   0   8  -3 -4.7079 3.18061   3
   1   8  -3 14.8786 5.22731   3
   1  -8   3 9.11650 8.27672   3
   1  -8   3 17.5455 13.9513   4
  -1  -8  -3 29.4408 11.5960   4
  -1  -8  -3 11.6209 6.18639   3
   1  -8  -3 19.5824 10.8648   4
  -1  -8   3 12.2026 7.76677   3
   1  -8  -3 26.2644 8.39551   3
  -1  -8   3 13.3828 7.63214   4
  -1   8  -3 13.1964 7.25321   4
   2  -8   3 15.3341 10.4218   4
  -2  -8  -3 15.5268 8.27941   4
   2  -8   3 18.4069 9.87511   3
  -2  -8  -3 13.4787 5.16334   3
   2   8  -3 2.03547 4.08657   3
  -2   8   3 10.4992 5.37117   3
   2  -8  -3 1.02899 4.69432   3
  -2  -8   3 8.39283 7.61693   3
  -2  -8   3 -1.8648 6.16751   4
  -2   8  -3 12.0931 5.88426   4
  -2   8  -3 7.92882 6.68341   3
   2  -8  -3 -8.7477 12.5230   4
   3  -8   3 46.5711 15.1749   4
  -3  -8  -3 35.8703 9.65433   3
  -3  -8  -3 35.8858 11.4005   4
   3  -8   3 45.8058 14.9907   3
  -3   8   3 27.4350 8.74143   3
   3  -8  -3 35.4566 12.2234   3
  -3  -8   3 45.8789 10.7325   4
  -3   8  -3 45.0637 15.2060   4
  -3   8  -3 47.8883 11.2387   3
  -3  -8   3 57.3029 14.2297   3
   3  -8  -3 39.7267 14.0842   4
   4  -8   3 -9.0193 10.5135   3
  -4  -8  -3 22.5423 7.28306   3
  -4   8  -3 8.21774 7.27818   4
  -4  -8   3 14.1092 9.32146   4
  -4  -8   3 26.7001 8.65467   3
   4  -8  -3 7.12872 10.3380   4
   4  -8  -3 5.13546 8.52789   3
   0  -9   3 16.3068 8.05670   3
   0   9  -3 16.9459 7.37931   3
   0  -9  -3 21.6987 9.50589   3
   0  -9   3 5.84644 8.55525   4
   1  -9   3 84.7054 19.5005   3
  -1  -9  -3 89.3036 17.0860   3
   1   9  -3 91.2657 15.5627   3
   1  -9  -3 78.0600 15.2377   3
  -1  -9   3 102.551 21.9667   4
  -1  -9   3 79.5890 18.0364   3
   2   9  -3 9.43290 5.75178   3
   2  -9   3 17.7614 11.6288   3
   2  -9  -3 22.9792 9.52957   3
  -2  -9   3 -3.1613 9.84808   4
  -2   9  -3 4.85283 6.85806   4
  -2  -9   3 11.7732 6.36824   3
  -3  -9  -3 61.5526 13.6825   3
   3  -9   3 65.9800 16.1701   3
  -3  -9   3 106.813 28.3844   4
  -3  -9   3 81.3031 17.7151   3
  -3   9  -3 62.2254 17.2887   4
   3  -9  -3 42.8714 13.3432   3
   0 -10   3 0.15932 9.23450   3
   0 -10  -3 35.6786 9.30749   3
   1 -10   3 96.1777 20.9246   3
   1 -10  -3 95.1871 20.9251   3
   0   0   4 161.495 15.6613   3
   0   0  -4 154.388 12.1465   4
   0   0  -4 137.320 14.0863   3
  -1   0  -4 -3.6037 1.60596   3
   1   0  -4 -0.9507 0.85961   4
  -1   0   4 -1.1732 1.80065   3
   1   0   4 0.06322 2.58759   3
   1   0  -4 0.94009 1.94957   3
  -2   0  -4 938.581 42.1373   3
  -2   0   4 982.379 40.4702   3
  -2   0  -4 984.143 43.9361   4
   2   0  -4 1015.56 31.0131   3
  -3   0  -4 -4.1499 2.91734   3
  -3   0   4 -2.8706 2.36978   3
  -3   0  -4 4.15960 4.24182   4
  -4   0   4 1512.85 52.8361   3
  -4   0  -4 1461.78 57.3428   3
  -4   0  -4 1496.87 67.5944   4
  -5   0   4 0.38721 5.23399   3
  -5   0  -4 0.34452 5.08311   3
  -5   0  -4 5.86892 6.49715   4
  -6   0  -4 183.953 34.7952   4
  -6   0  -4 138.572 18.1136   3
  -7   0  -4 10.9078 8.00726   3
  -7   0  -4 15.7774 11.5814   4
   0  -1   4 369.016 23.8828   3
   0  -1  -4 364.536 24.2283   3
   0  -1   4 360.131 19.2481   4
   0   1  -4 368.068 21.5736   3
   0   1  -4 390.740 20.1054   4
   1  -1   4 400.193 25.6356   3
   1  -1   4 424.129 24.5382   4
   1   1  -4 437.784 16.4760   4
   1   1  -4 446.362 20.9468   3
  -1  -1  -4 442.816 27.1388   3
  -1   1  -4 413.947 24.8363   3
  -1  -1   4 431.541 17.1576   4
  -1  -1   4 424.521 24.5272   3
   1  -1  -4 433.719 25.8746   3
  -1   1  -4 439.014 25.0966   4
  -2   1   4 231.409 25.3399   3
   2   1  -4 260.871 12.0928   3
  -2  -1  -4 247.435 20.4461   3
   2  -1   4 257.992 19.9911   3
   2  -1   4 249.936 21.0767   4
   2  -1  -4 269.560 11.1485   3
   2  -1  -4 268.701 10.5282   4
  -2  -1   4 275.615 18.4807   3
   2  -1  -4 280.300 18.2211   3
  -2   1  -4 258.013 20.3487   3
  -2   1  -4 293.871 22.7053   4
  -3  -1  -4 249.326 23.1794   4
  -3  -1  -4 244.933 20.9480   3
  -3  -1   4 241.642 16.9978   3
  -3   1  -4 223.231 19.7149   3
  -3   1  -4 222.269 21.6735   4
  -4  -1  -4 56.7812 13.2220   3
  -4  -1  -4 63.8112 16.7005   4
  -4   1  -4 57.1446 16.2690   4
  -4  -1   4 67.4790 11.4392   3
  -4   1  -4 57.4953 12.9978   3
  -5  -1  -4 36.2630 11.4222   3
  -5  -1  -4 42.6446 14.7242   4
  -5  -1   4 35.2605 10.3648   3
  -5   1  -4 29.0147 11.6118   4
  -5   1  -4 61.5243 12.4590   3
  -6  -1  -4 5.59440 9.17181   3
  -6  -1  -4 9.56848 9.30330   4
  -6   1  -4 -5.1627 4.82586   4
  -6   1  -4 8.11729 4.77135   3
  -6  -1   4 4.80626 6.61697   3
  -7  -1  -4 15.0637 10.4390   4
  -7  -1  -4 -2.9900 9.20698   3
  -7   1  -4 30.0053 9.16489   3
  -7   1  -4 2.39554 8.84548   4
   0   2  -4 0.22007 1.92977   3
   0  -2   4 2.58026 2.09524   4
   0   2  -4 5.95172 4.29845   4
   0  -2   4 0.52599 2.70054   3
   1   2  -4 313.148 16.3414   3
   1   2  -4 324.298 15.0740   4
   1  -2   4 309.848 21.7991   4
   1  -2   4 308.231 22.7099   3
  -1  -2   4 299.197 16.5374   4
  -1  -2   4 333.714 20.5707   3
   1  -2  -4 344.587 24.4601   3
   1  -2  -4 327.233 14.2192   3
  -1   2  -4 312.433 20.3905   3
   2  -2   4 497.618 30.9189   4
   2  -2   4 426.773 27.6415   3
   2   2  -4 408.176 15.7583   3
   2  -2  -4 440.810 16.5961   3
   2  -2  -4 426.647 26.4142   3
  -2  -2   4 414.457 22.4325   3
  -2   2  -4 390.258 24.4689   3
  -2  -2   4 395.181 16.6069   4
   2  -2  -4 431.985 17.6485   4
   3  -2   4 461.892 27.3287   3
   3  -2   4 446.189 31.8031   4
  -3  -2   4 442.400 22.6892   3
   3  -2  -4 434.374 22.5900   3
  -3   2  -4 428.538 26.6187   3
  -3   2  -4 427.673 31.2870   4
   3  -2  -4 458.910 16.1215   3
   3  -2  -4 488.953 21.6146   4
   4  -2   4 545.149 38.7193   4
  -4   2  -4 578.979 31.4011   3
  -4   2  -4 575.379 39.1927   4
   4  -2  -4 560.653 25.4112   4
  -4  -2   4 547.587 25.7962   3
  -5  -2  -4 170.803 36.0639   4
  -5   2  -4 100.864 13.5742   3
  -5   2  -4 126.700 26.1919   4
  -5  -2   4 91.7570 10.8971   3
  -6   2   4 51.3560 8.52044   4
  -6  -2  -4 77.3342 14.8991   3
  -6  -2  -4 56.3269 19.8747   4
  -6  -2   4 59.7029 11.1904   3
  -6   2  -4 42.4411 14.8862   4
  -6   2  -4 74.8197 14.5315   3
  -7  -2  -4 14.0549 9.18617   4
  -7  -2  -4 63.1329 13.0976   3
  -7   2  -4 40.7817 15.2169   4
  -7   2  -4 30.6090 10.2750   3
   0  -3   4 230.528 18.5115   3
   0  -3  -4 227.995 12.7030   3
   0  -3   4 209.385 17.1772   4
   0   3  -4 227.501 15.8636   3
   0   3  -4 212.661 15.7727   4
   1  -3   4 1032.45 44.4191   3
   1   3  -4 1045.71 34.1719   3
   1   3  -4 1027.09 33.5982   4
   1  -3   4 978.166 43.9386   4
  -1  -3   4 986.901 39.5878   3
  -1  -3   4 961.365 36.5094   4
  -1   3  -4 936.420 38.1011   3
   1  -3  -4 1003.21 33.5688   4
   1  -3  -4 980.667 30.8390   3
  -1   3  -4 1007.24 41.5440   4
   2  -3   4 36.1436 10.7324   4
   2  -3   4 29.2716 9.52745   3
   2   3  -4 29.3762 5.16805   3
  -2  -3   4 32.8436 8.08884   3
   2  -3  -4 22.6117 8.30555   3
   2  -3  -4 31.2319 6.76840   4
  -2  -3   4 30.0867 6.66556   4
   2  -3  -4 30.7541 5.93285   3
  -2   3  -4 14.1904 7.22166   4
  -2   3  -4 37.4480 9.11933   3
   3  -3   4 191.979 22.1924   4
  -3   3   4 183.841 11.8435   3
   3  -3   4 196.564 18.7785   3
  -3  -3   4 170.385 11.3167   4
  -3   3  -4 180.502 17.0798   3
   3  -3  -4 196.056 15.0315   4
   3  -3  -4 186.634 17.1654   3
  -3  -3   4 182.719 14.8349   3
  -3   3  -4 184.022 20.5237   4
   3  -3  -4 197.990 18.6139   3
   4  -3   4 59.9945 11.3057   3
  -4   3   4 54.0224 6.64050   3
   4  -3   4 57.2968 16.1579   4
  -4  -3   4 61.6344 10.7415   3
  -4  -3   4 57.4789 6.15349   4
  -4   3  -4 45.6185 12.7624   4
   4  -3  -4 55.5618 11.3453   4
  -4   3  -4 52.6793 11.2417   3
   5  -3   4 52.8581 14.3211   4
  -5   3   4 50.5588 6.43105   3
  -5   3  -4 65.4690 13.9784   3
  -5  -3   4 60.7301 9.83198   4
  -5  -3   4 62.8141 10.7145   3
   5  -3  -4 51.5885 12.1820   4
  -5   3  -4 40.6483 13.6763   4
  -5  -3   4 62.8748 6.61323   4
  -6  -3  -4 -2.0965 6.59626   4
  -6   3  -4 -3.9358 7.64596   4
  -6   3  -4 4.74834 6.61258   3
  -6  -3   4 4.29240 3.94187   3
  -7  -3  -4 31.2565 13.7753   3
  -7  -3  -4 65.5686 16.0960   4
  -7  -3   4 28.6829 10.1484   3
  -7   3  -4 24.3207 8.83758   3
  -7   3  -4 50.5518 14.3993   4
   0  -4   4 134.090 14.8352   3
   0  -4  -4 123.347 10.4391   3
   0   4  -4 140.638 12.8137   3
   0  -4   4 146.018 15.3563   4
   0   4  -4 131.147 13.1397   4
  -1  -4  -4 964.513 32.7831   3
   1   4  -4 1012.22 34.3351   3
   1  -4   4 929.452 45.1516   4
   1   4  -4 954.740 35.4933   4
   1  -4   4 935.501 43.9629   3
   1  -4  -4 972.796 33.2358   3
  -1  -4   4 1002.77 40.2918   4
  -1  -4   4 970.658 41.3503   3
  -1   4  -4 962.594 41.8702   4
   1  -4  -4 974.929 36.6658   4
  -1   4  -4 983.725 38.7211   3
   2  -4   4 49.6724 12.6618   3
   2   4  -4 40.4665 5.44389   3
   2  -4   4 23.9162 7.57927   4
  -2  -4  -4 37.3883 6.96587   3
  -2  -4   4 34.0763 7.68974   4
  -2   4  -4 47.5599 10.3665   3
  -2  -4   4 27.7850 7.95669   3
   2  -4  -4 51.2566 8.82013   3
   2  -4  -4 44.7895 9.63122   4
  -2   4  -4 37.5707 10.9497   4
   3  -4   4 920.356 46.7746   3
  -3   4   4 913.761 32.4434   3
   3   4  -4 914.666 23.7167   3
   3  -4   4 935.473 51.5182   4
  -3  -4   4 918.914 33.9962   4
  -3   4  -4 873.332 47.0086   4
   3  -4  -4 971.965 48.7159   3
  -3  -4   4 890.168 37.0995   3
   3  -4  -4 881.087 38.2603   4
   3  -4  -4 903.663 32.0359   3
   4  -4   4 105.831 24.2218   4
  -4   4   4 130.541 11.1476   3
   4  -4   4 133.718 16.7531   3
  -4   4  -4 119.372 14.2130   3
   4  -4  -4 115.176 13.8895   3
  -4  -4   4 124.704 13.1305   3
  -4  -4   4 107.996 10.3662   4
   4  -4  -4 129.326 13.5460   3
   4  -4  -4 122.589 15.2259   4
  -4   4  -4 99.2156 20.6151   4
  -5   4   4 232.370 15.7980   3
   5  -4   4 259.755 29.6132   4
  -5   4  -4 244.636 21.1095   3
   5  -4  -4 235.877 22.5648   4
  -5   4  -4 242.414 26.3531   4
  -5  -4   4 240.689 15.5326   4
  -5  -4   4 228.937 18.4925   3
   6  -4   4 25.7606 10.7436   4
  -6   4   4 8.68648 4.12784   3
  -6  -4  -4 13.6347 11.4711   4
  -6  -4   4 26.1618 6.26589   3
  -6   4  -4 5.81441 10.8528   4
  -6  -4   4 5.76393 3.86472   4
   6  -4  -4 28.1652 9.61419   4
  -6  -4   4 5.47651 6.18204   4
  -6   4  -4 5.59908 6.10433   3
   0   5  -4 83.0947 11.1893   4
   0  -5   4 73.1227 14.8342   3
   0  -5  -4 70.2632 8.47789   3
   0  -5  -4 82.0031 14.0801   4
   0  -5   4 77.5793 14.9959   4
   0   5  -4 74.4710 14.2048   3
  -1  -5  -4 -1.7505 1.52495   3
   1   5  -4 2.13593 2.25054   3
   1  -5   4 4.63680 4.54371   3
   1   5  -4 3.27325 2.72683   4
   1  -5  -4 6.35551 3.96185   4
  -1   5  -4 1.06702 2.26340   3
   1  -5  -4 -0.1616 1.60574   3
  -1  -5   4 -0.9830 2.57136   4
  -1  -5   4 0.16038 2.32623   3
  -1   5  -4 -1.7229 3.21148   4
   2  -5   4 116.556 15.9781   3
  -2   5   4 129.001 11.3472   3
  -2  -5  -4 143.657 11.9892   3
   2  -5   4 160.264 28.6894   4
   2   5  -4 122.697 10.5966   3
  -2   5  -4 101.710 17.7260   4
  -2  -5   4 141.646 14.7276   4
   2  -5  -4 124.553 13.5564   4
  -2  -5   4 142.099 14.5229   3
  -2   5  -4 142.687 14.9352   3
   2  -5  -4 137.165 12.6600   3
  -3   5   4 90.1360 9.54227   3
  -3  -5  -4 76.6910 9.13164   3
   3  -5   4 62.9718 17.4200   4
   3   5  -4 68.6501 6.44246   3
   3  -5   4 79.0487 16.2498   3
   3  -5  -4 55.0802 12.9838   4
   3  -5  -4 71.3831 11.7702   3
  -3  -5   4 75.3326 13.6026   3
  -3   5  -4 84.7943 18.9154   4
  -3   5  -4 93.6628 16.3181   3
  -3  -5   4 81.4319 10.6357   4
   4  -5   4 11.2518 8.52004   4
  -4   5   4 13.7778 4.48125   3
   4  -5   4 -0.7781 6.65992   3
  -4  -5  -4 6.79858 3.86885   3
   4  -5  -4 9.03264 8.51475   4
  -4   5  -4 17.4293 8.35449   4
   4  -5  -4 15.3614 5.29563   3
  -4  -5   4 11.2262 6.24235   3
  -4  -5   4 32.8755 7.68168   4
  -4   5  -4 16.5176 6.89780   3
   4  -5  -4 14.8216 9.03178   3
  -5  -5  -4 7.61666 5.17560   3
  -5   5   4 3.74826 3.74889   3
   5  -5   4 -2.9699 10.5030   4
  -5   5  -4 12.7603 6.09900   4
  -5   5  -4 16.7108 7.52208   3
   5  -5  -4 5.59051 6.54843   4
  -5  -5   4 20.1033 4.87820   4
  -5  -5   4 13.1215 6.25971   3
  -6  -5  -4 27.4180 5.75142   3
  -6   5   4 21.9383 6.89930   3
  -6  -5   4 40.7882 8.12010   4
   6  -5  -4 21.7282 12.0536   4
  -6   5  -4 26.0241 10.7625   3
  -6   5  -4 40.2636 12.1726   4
  -6  -5   4 51.2011 9.90032   3
   0  -6  -4 209.943 19.1310   4
   0  -6   4 216.282 21.9118   4
   0  -6   4 215.101 21.6285   3
   0   6  -4 195.397 16.7923   3
   0  -6  -4 198.036 16.4872   3
   0   6  -4 195.410 18.5786   4
   1   6  -4 517.683 30.1022   4
   1  -6   4 508.394 35.0372   3
  -1  -6  -4 544.859 32.3635   4
   1  -6   4 443.670 34.7252   4
   1   6  -4 533.776 26.3892   3
  -1  -6  -4 470.567 25.3559   3
  -1   6  -4 507.377 32.6188   4
  -1  -6   4 465.657 32.0850   4
   1  -6  -4 527.060 27.6133   3
   1  -6  -4 517.068 31.0344   4
  -1  -6   4 517.913 32.7102   3
  -1   6  -4 546.238 30.0887   3
   2  -6   4 376.176 34.0516   4
  -2   6   4 381.262 21.6165   3
  -2  -6  -4 342.137 21.1879   3
   2   6  -4 341.418 19.1500   3
   2  -6   4 337.017 29.6882   3
  -2  -6   4 318.268 25.1298   3
  -2   6  -4 356.688 24.8523   3
   2  -6  -4 358.755 22.6333   3
   2  -6  -4 365.144 26.6064   4
  -2  -6   4 378.685 27.5794   4
  -2   6  -4 337.334 28.0603   4
  -3   6   4 414.624 23.8502   3
   3  -6   4 406.089 33.3136   3
   3  -6   4 435.502 39.3802   4
   3   6  -4 442.361 18.5493   3
  -3   6  -4 460.835 34.8543   4
   3  -6  -4 404.259 30.4633   4
   3  -6  -4 411.092 25.4178   3
  -3   6  -4 479.827 28.7691   3
  -3  -6   4 424.039 33.7578   4
  -3  -6   4 425.071 28.3315   3
  -4   6   4 114.959 12.6448   3
  -4  -6  -4 147.679 13.6852   3
   4  -6   4 169.591 22.3219   3
  -4   6  -4 151.063 20.9159   4
   4  -6  -4 135.561 24.5132   4
  -4   6  -4 119.343 15.0878   3
   4  -6  -4 100.807 12.6291   3
   4  -6  -4 143.263 26.6468   3
  -4  -6   4 158.663 16.4586   4
   5  -6   4 91.5385 23.9263   4
  -5  -6  -4 103.816 11.4543   3
  -5   6   4 89.3264 17.2767   3
   5  -6   4 92.6105 20.4421   3
  -5   6  -4 158.722 21.0102   4
  -5   6  -4 126.215 16.2295   3
  -5  -6   4 125.620 15.7524   3
   5  -6  -4 95.1626 16.5917   3
   5  -6  -4 78.9808 21.0602   4
  -5  -6   4 107.496 13.1970   4
  -6  -6  -4 52.4110 10.6863   3
  -6   6   4 59.6822 11.8766   3
  -6  -6   4 87.5830 17.0357   3
  -6   6  -4 81.0319 18.7964   4
  -6   6  -4 42.9962 20.5621   3
   0  -7  -4 30.4478 10.3219   4
   0  -7   4 24.5157 7.40270   3
   0   7  -4 14.8910 6.90088   4
   0  -7   4 28.1002 10.5438   4
   0  -7  -4 15.9734 5.86485   3
   0   7  -4 26.4649 8.17747   3
   1  -7   4 14.5265 8.15726   4
  -1  -7  -4 4.83589 5.07331   4
   1   7  -4 6.28103 4.06588   3
  -1  -7  -4 9.41838 4.79886   3
   1  -7   4 16.1680 6.00118   3
   1  -7  -4 5.41770 4.02015   4
  -1  -7   4 16.3010 7.67206   3
  -1   7  -4 3.96151 5.31125   4
  -1   7  -4 14.8410 6.78708   3
   1  -7  -4 7.39118 4.91422   3
  -1  -7   4 16.4441 9.10019   4
   2   7  -4 15.3443 5.11930   3
  -2  -7  -4 14.4296 5.30808   4
   2  -7   4 10.9898 6.50843   4
   2  -7   4 8.07111 8.82576   3
   2  -7  -4 8.76098 4.48783   3
  -2   7  -4 13.3675 5.93621   3
  -2  -7   4 9.98170 6.55096   3
   2  -7  -4 11.8893 6.98127   4
  -2  -7   4 21.1081 9.73643   4
  -2   7  -4 12.4774 7.96709   4
  -3   7   4 15.6710 7.24065   3
   3  -7   4 12.1745 9.76383   4
  -3  -7  -4 14.6244 6.47894   3
   3   7  -4 13.3526 4.72635   3
   3  -7   4 22.0851 9.99156   3
  -3   7  -4 22.9987 8.68034   4
  -3  -7   4 12.4930 7.73680   4
   3  -7  -4 20.5168 9.92348   4
  -3  -7   4 31.4667 9.05481   3
   3  -7  -4 26.0747 6.90074   3
   4  -7   4 21.3196 11.2846   4
   4  -7   4 2.10013 8.63867   3
  -4   7   4 10.6979 5.14249   3
  -4  -7  -4 4.70053 5.92556   3
  -4   7  -4 2.97829 6.77994   4
  -4  -7   4 1.29074 5.99311   3
   4  -7  -4 -9.6519 6.67549   4
  -4   7  -4 11.8937 7.39959   3
  -4  -7   4 16.2125 6.62143   4
   5  -7   4 31.5603 14.1978   3
  -5  -7  -4 19.4452 6.50587   3
   5  -7  -4 15.3603 10.7355   3
  -5   7  -4 12.2453 8.19106   4
  -5  -7   4 22.1212 9.78657   3
  -5  -7   4 7.13349 8.01165   4
   0   8  -4 147.458 16.3088   3
   0  -8  -4 148.417 17.0230   3
   0   8  -4 99.1374 18.4613   4
   0  -8   4 149.995 20.4829   3
   0  -8   4 145.958 19.9907   4
   0  -8  -4 155.865 26.5501   4
  -1  -8  -4 55.5243 12.0515   3
  -1  -8  -4 58.9551 12.5253   4
   1  -8   4 33.7677 14.1665   3
   1  -8   4 16.4347 11.4379   4
   1   8  -4 56.3805 9.95666   3
   1  -8  -4 56.2717 13.9669   3
  -1   8  -4 56.6982 12.4442   3
  -1   8  -4 38.3438 10.5954   4
   1  -8  -4 21.1410 10.8343   4
  -1  -8   4 59.8057 15.0652   3
  -1  -8   4 57.2970 16.4676   4
  -2  -8  -4 192.975 18.9457   3
  -2  -8  -4 199.457 23.6325   4
   2  -8   4 186.193 30.7381   3
   2  -8   4 143.695 27.4642   4
   2   8  -4 196.390 16.0651   3
   2  -8  -4 196.338 24.0286   4
  -2   8  -4 184.321 20.0390   3
  -2  -8   4 190.954 22.7475   3
  -2  -8   4 175.587 22.4965   4
  -2   8  -4 190.345 21.6923   4
   2  -8  -4 196.343 19.8798   3
   3  -8   4 54.6557 15.1820   3
  -3  -8  -4 53.1460 10.6012   3
   3  -8  -4 29.1284 11.5782   4
  -3  -8   4 47.4378 12.6815   4
  -3   8  -4 35.0510 10.4712   4
   3  -8  -4 27.0510 11.0985   3
  -3  -8   4 51.2899 13.6171   3
   4  -8   4 137.686 26.7357   3
  -4  -8  -4 160.487 17.0280   3
   4  -8  -4 147.707 17.6834   3
   4  -8  -4 145.718 29.2263   4
  -4   8  -4 126.966 23.0025   4
  -4  -8   4 182.120 22.0417   4
  -4  -8   4 126.308 23.4782   3
   0   9  -4 15.5597 7.60880   3
   0  -9   4 18.6014 9.64886   3
   0  -9  -4 8.35483 6.97145   3
   1   9  -4 21.2577 8.87265   3
   1  -9   4 29.3860 13.0904   3
   1  -9  -4 24.7006 8.32884   3
  -1   9  -4 26.9063 12.9634   4
  -1  -9   4 19.2194 11.6459   4
  -2  -9  -4 62.4373 12.7822   3
   2  -9   4 73.0325 19.6223   3
   2   9  -4 40.8901 8.99525   3
  -2  -9   4 36.8944 12.3193   3
  -2  -9   4 49.8242 13.7764   4
   2  -9  -4 36.8233 11.3943   3
  -2   9  -4 25.3269 11.6097   4
   3  -9   4 29.4764 13.2271   3
  -3  -9  -4 52.4652 11.6956   3
  -3  -9   4 27.9954 12.6711   4
  -3   9  -4 35.9122 10.5293   4
   3  -9  -4 12.2995 10.6287   3
  -3  -9   4 45.5589 12.7296   3
   0   0  -5 -3.8451 1.86844   3
   0   0   5 2.08346 3.49563   3
   1   0  -5 1472.69 52.0853   3
  -1   0   5 1361.98 55.5689   3
   1   0   5 1456.46 55.6798   3
  -1   0  -5 1405.28 52.1289   4
  -1   0  -5 1351.82 55.8697   3
   1   0  -5 1470.10 40.7662   4
  -2   0  -5 -1.9906 2.16770   4
  -2   0  -5 -0.7399 3.06110   3
   2   0  -5 1.41175 2.29866   3
  -3   0  -5 43.9896 12.6232   4
  -3   0  -5 83.2258 16.8328   3
  -3   0   5 59.2179 13.7281   3
  -4   0  -5 0.78565 4.89434   3
  -4   0  -5 2.72967 5.27371   4
  -4   0   5 -0.1238 2.96961   3
  -5   0  -5 146.869 23.8170   3
  -5   0   5 125.528 15.7930   3
  -5   0  -5 162.923 22.8429   4
  -6   0  -5 -4.1598 6.57390   4
  -6   0  -5 4.85064 7.15632   3
  -7   0  -5 99.6729 23.0981   4
   0  -1  -5 235.461 21.2407   3
   0  -1   5 217.319 16.3920   4
   0   1  -5 222.085 18.7060   3
   0   1  -5 259.997 18.0052   4
   1   1  -5 175.604 14.5129   3
   1   1  -5 161.462 10.8676   4
   1  -1   5 156.964 15.6271   4
  -1  -1  -5 139.731 16.8487   3
   1  -1   5 160.687 17.9507   3
  -1   1   5 149.378 17.3701   3
  -1   1  -5 142.487 15.8097   3
   1  -1  -5 145.909 16.2322   3
  -1   1  -5 152.009 15.5339   4
  -1  -1   5 131.863 15.8216   3
   2   1  -5 320.282 16.5048   3
  -2   1   5 296.881 24.6587   3
   2  -1   5 295.126 23.8584   4
   2  -1   5 294.728 23.6647   3
  -2  -1  -5 323.011 26.0144   3
   2  -1  -5 306.193 13.1655   3
   2  -1  -5 333.850 22.4511   3
   2  -1  -5 315.201 11.5845   4
  -2   1  -5 299.887 24.1892   3
  -2   1  -5 266.458 23.1661   4
  -2  -1   5 273.121 21.9469   3
  -3   1   5 496.467 32.6451   3
  -3  -1  -5 462.653 32.5362   3
  -3  -1  -5 479.716 34.4835   4
  -3   1  -5 438.717 30.7767   3
   3  -1  -5 499.878 15.6828   3
  -3   1  -5 473.554 34.2670   4
  -3  -1   5 508.849 29.7759   3
   3  -1  -5 482.365 20.0913   3
  -4  -1  -5 65.6256 14.9917   4
  -4  -1  -5 137.152 18.8569   3
  -4  -1   5 96.9657 12.8200   3
  -4   1  -5 117.754 16.0551   3
  -4   1  -5 77.5359 16.0266   4
  -5  -1  -5 136.089 25.0678   4
  -5  -1  -5 137.292 18.9136   3
  -5   1  -5 131.813 26.1646   4
  -5  -1   5 129.442 16.0335   3
  -5   1  -5 126.732 17.1169   3
  -6  -1  -5 17.0944 9.93875   3
  -6  -1  -5 8.60754 10.7633   4
  -6   1  -5 -1.1652 8.95862   4
  -6  -1   5 19.6978 7.64933   3
  -6   1  -5 16.0744 11.0434   3
  -7  -1  -5 104.131 37.4236   3
  -7  -1  -5 93.9264 20.1389   4
  -7  -1   5 76.4819 16.6922   3
  -7   1  -5 86.5210 19.8708   4
   0  -2   5 19.5930 7.29397   3
   0   2  -5 11.3557 5.00220   3
   0   2  -5 23.4826 7.39543   4
   0  -2   5 19.7478 6.70047   4
   0  -2  -5 34.6418 10.8195   3
   1   2  -5 723.785 29.9425   3
   1  -2   5 756.389 40.5699   3
   1   2  -5 734.837 26.7622   4
   1  -2   5 726.557 37.2689   4
  -1   2  -5 729.498 35.8951   4
  -1  -2   5 724.438 29.2858   4
   1  -2  -5 730.258 39.6696   3
  -1  -2   5 688.991 35.7235   3
  -1   2  -5 741.729 35.7453   3
   2  -2   5 26.7610 9.17827   3
   2   2  -5 30.7624 5.76772   3
   2   2  -5 24.9111 3.46672   4
   2  -2   5 24.3864 8.50502   4
   2  -2  -5 18.9805 7.59395   3
  -2   2  -5 20.7545 7.65737   3
   2  -2  -5 31.8798 4.34652   3
  -2  -2   5 19.1094 7.20108   3
  -2   2  -5 18.1702 6.44739   4
   2  -2  -5 25.9174 5.04314   4
  -2  -2   5 30.0916 6.02360   4
   3  -2   5 486.294 31.3496   3
   3  -2   5 451.390 33.5746   4
  -3   2  -5 497.037 30.8756   3
   3  -2  -5 483.844 26.8842   3
   3  -2  -5 468.420 20.1735   4
  -3   2  -5 468.875 34.3238   4
  -3  -2   5 442.368 27.1002   3
   3  -2  -5 485.900 18.0443   3
   4  -2   5 93.3495 20.3961   4
  -4  -2  -5 77.8727 16.9143   3
  -4  -2  -5 103.435 23.0087   4
  -4   2  -5 76.3186 15.5893   3
  -4  -2   5 83.0683 14.5120   3
  -4   2  -5 98.7668 22.6750   4
   4  -2  -5 91.2470 8.99687   4
  -5  -2  -5 206.397 24.7897   3
  -5  -2  -5 240.662 29.1803   4
  -5   2  -5 204.620 24.4679   3
  -5   2  -5 241.393 27.4510   4
  -5  -2   5 205.697 18.5412   3
  -6  -2  -5 2.54559 8.49183   3
  -6  -2  -5 7.54619 8.57502   4
  -6   2  -5 18.4451 7.69916   3
  -6  -2   5 8.71556 6.18971   3
  -6   2  -5 -0.8544 5.10199   4
  -7  -2  -5 42.5125 16.9688   3
  -7  -2  -5 81.6989 19.6164   4
  -7   2  -5 62.3208 17.3336   4
  -7  -2   5 35.7902 10.7075   3
  -7   2  -5 44.4040 11.8159   3
   0  -3   5 31.9103 10.0597   3
   0   3  -5 57.1494 11.8109   4
   0   3  -5 33.2767 7.87257   3
   0  -3   5 41.3852 10.2579   4
   1  -3   5 73.7792 15.4105   3
   1   3  -5 65.1382 8.03134   4
   1  -3   5 68.1658 13.4092   4
   1   3  -5 80.2171 9.18716   3
   1  -3  -5 70.0717 7.27604   3
  -1  -3   5 67.1487 13.2229   3
  -1   3  -5 72.1531 14.6172   4
  -1   3  -5 81.6174 10.8135   3
  -1  -3   5 81.1024 14.0489   4
   2   3  -5 210.398 12.5157   4
   2   3  -5 188.947 12.2983   3
   2  -3   5 223.161 22.7373   3
   2  -3   5 216.502 22.4090   4
  -2   3  -5 230.088 22.0206   4
   2  -3  -5 216.205 13.1005   3
   2  -3  -5 200.512 21.0710   3
  -2  -3   5 229.570 15.1146   4
  -2  -3   5 225.703 18.6533   3
   2  -3  -5 229.134 14.6532   4
  -2   3  -5 223.164 19.2995   3
   3  -3   5 256.324 24.3217   3
   3  -3   5 242.221 25.1458   4
   3   3  -5 213.865 9.43682   3
   3  -3  -5 233.524 13.4070   3
  -3  -3   5 214.856 13.4248   4
   3  -3  -5 206.405 20.7718   3
   3  -3  -5 245.486 16.6590   4
  -3   3  -5 239.401 24.6282   4
  -3   3  -5 245.295 20.8420   3
  -3  -3   5 228.388 18.7524   3
   4  -3   5 141.108 27.4593   4
   4  -3   5 102.661 17.1902   3
  -4  -3   5 106.351 13.5900   3
  -4   3  -5 53.6866 16.0084   4
  -4   3  -5 101.553 17.6840   3
   4  -3  -5 95.1504 11.3567   4
   5  -3   5 83.1544 23.0782   4
  -5  -3  -5 82.6885 22.1334   4
  -5   3  -5 85.6211 21.2883   4
  -5   3  -5 99.3068 17.8695   3
  -5  -3   5 71.4025 13.9281   3
   5  -3  -5 85.2701 14.9014   4
  -6  -3  -5 33.5798 12.4752   4
  -6  -3  -5 58.9034 13.1123   3
  -6   3  -5 49.1891 14.4635   4
  -6   3  -5 30.9196 9.14161   3
  -6  -3   5 33.1521 9.08279   3
  -7  -3  -5 22.0657 16.7918   3
  -7  -3  -5 94.4298 27.7262   4
  -7   3  -5 63.3162 13.3648   3
  -7   3  -5 71.6019 14.1269   4
   0   4  -5 558.625 28.3782   3
   0  -4   5 529.983 33.1819   3
   0   4  -5 558.701 29.1657   4
   0  -4  -5 500.313 23.0354   3
   0  -4   5 575.883 32.9652   4
   1   4  -5 77.6303 9.61021   3
  -1  -4  -5 95.4869 8.91582   3
   1  -4   5 112.224 15.1155   4
   1   4  -5 83.4799 9.69020   4
   1  -4   5 105.827 19.4213   3
   1  -4  -5 89.1242 10.3417   4
   1  -4  -5 82.1897 9.02479   3
  -1   4  -5 92.3754 12.9611   4
  -1  -4   5 95.5466 13.0573   3
  -1   4  -5 80.5676 14.2714   3
  -1  -4   5 87.6270 11.7450   4
   2  -4   5 265.176 25.3572   4
   2   4  -5 249.601 15.0539   3
   2  -4   5 234.227 23.9954   3
  -2   4  -5 228.205 22.4182   4
   2  -4  -5 239.650 17.2704   4
  -2  -4   5 219.435 19.5834   3
  -2  -4   5 265.100 18.6822   4
   2  -4  -5 243.608 15.6935   3
  -2   4  -5 252.911 20.1356   3
   3  -4   5 26.1105 12.0756   4
   3  -4   5 24.9723 11.1001   3
   3   4  -5 24.8900 4.28548   3
   3  -4  -5 12.7447 7.72228   3
  -3   4  -5 22.3754 6.71647   3
  -3   4  -5 30.6291 12.3322   4
   3  -4  -5 20.3257 6.21566   4
  -3  -4   5 25.8909 6.55709   4
  -3  -4   5 24.4502 7.89379   3
   3  -4  -5 19.8499 5.52596   3
   4  -4   5 432.474 32.0392   3
   4  -4   5 410.602 37.5978   4
  -4   4  -5 396.610 34.1190   4
  -4  -4   5 414.780 20.7311   4
  -4  -4   5 395.103 27.0949   3
   4  -4  -5 405.971 19.4293   3
  -4   4  -5 390.136 27.1792   3
   4  -4  -5 406.043 27.0700   4
   4  -4  -5 392.862 27.0106   3
   5  -4   5 23.9527 12.6997   4
  -5   4  -5 21.9477 10.3320   4
  -5  -4   5 21.7840 6.33048   3
  -5   4  -5 29.7431 10.9483   3
  -5  -4   5 29.0087 6.37485   4
   5  -4  -5 30.0585 10.2910   4
  -6  -4  -5 26.8921 11.8140   4
   6  -4   5 24.2661 16.7037   4
   6  -4  -5 23.4738 8.96002   4
  -6  -4   5 22.6556 7.87561   3
  -6   4  -5 0.64831 6.77939   4
   0   5  -5 904.989 40.6701   4
   0  -5   5 920.105 47.2789   3
   0  -5   5 913.631 46.1876   4
   0   5  -5 1000.84 40.5221   3
   0  -5  -5 926.074 35.3359   3
   1  -5   5 165.715 18.9279   3
  -1  -5  -5 114.312 11.5981   3
   1   5  -5 129.413 13.3432   4
   1   5  -5 133.804 15.2408   3
   1  -5   5 134.764 18.2563   4
  -1   5  -5 131.589 14.3728   3
  -1   5  -5 105.650 14.3644   4
  -1  -5   5 157.281 17.2871   4
  -1  -5   5 124.448 16.2820   3
   1  -5  -5 120.353 11.6578   3
   1  -5  -5 133.434 13.5012   4
   2  -5   5 986.055 53.9222   3
   2   5  -5 1067.75 35.9037   3
   2  -5   5 1033.15 57.2730   4
  -2  -5  -5 1069.55 38.1534   3
  -2   5  -5 1021.74 50.6008   4
   2  -5  -5 994.501 38.4211   3
  -2  -5   5 1073.06 44.8916   4
   2  -5  -5 1010.33 42.7250   4
  -2   5  -5 1066.34 46.2185   3
  -2  -5   5 1020.55 46.9753   3
   3  -5   5 99.4456 22.3703   4
   3   5  -5 67.3109 6.61651   3
   3  -5   5 62.6657 16.1467   3
  -3  -5  -5 50.9984 8.88936   3
   3  -5  -5 49.8588 17.4033   3
   3  -5  -5 100.241 17.3170   4
  -3  -5   5 48.8216 11.5117   3
   3  -5  -5 77.4972 9.96030   3
  -3   5  -5 74.1271 18.1193   4
  -3  -5   5 70.6620 12.4614   4
  -3   5  -5 56.1447 11.7070   3
   4  -5   5 371.514 37.6847   4
   4  -5   5 405.145 33.4852   3
  -4  -5  -5 365.417 21.2349   3
  -4  -5   5 402.577 28.1322   3
  -4  -5   5 354.710 22.1274   4
   4  -5  -5 367.208 20.8348   3
  -4   5  -5 415.559 35.3161   4
  -4   5  -5 382.974 26.8657   3
   4  -5  -5 306.714 30.9479   4
   4  -5  -5 341.163 31.0529   3
   5  -5   5 34.0684 12.1469   4
   5  -5   5 17.5156 10.7777   3
  -5  -5  -5 46.7863 8.35827   3
  -5   5  -5 33.0195 10.6349   3
  -5   5  -5 30.3535 8.95368   4
   5  -5  -5 36.9523 12.1669   4
  -5  -5   5 49.4968 11.4664   3
  -5  -5   5 31.8003 7.18485   4
  -6  -5  -5 97.1129 10.4820   3
  -6  -5   5 110.373 10.6772   4
  -6   5  -5 74.2361 22.3575   4
  -6  -5   5 102.760 14.9606   4
  -6   5  -5 56.3196 14.8946   3
   6  -5  -5 100.752 23.9190   4
   0   6  -5 474.271 27.5990   3
   0  -6  -5 517.232 37.0445   3
   0  -6   5 447.342 43.3591   3
   0  -6   5 457.148 34.3078   4
   0  -6  -5 466.534 29.5094   4
   0   6  -5 451.641 29.5824   4
  -1  -6  -5 5.66184 5.03036   3
   1  -6   5 8.38871 8.32051   3
   1  -6   5 29.2702 11.5480   4
   1   6  -5 17.8742 6.18009   3
   1   6  -5 7.28243 4.28743   4
  -1  -6   5 4.78053 4.06322   4
  -1   6  -5 5.31587 7.29442   4
  -1   6  -5 18.1500 6.21125   3
   1  -6  -5 11.0993 4.35123   3
   1  -6  -5 15.1569 5.75180   4
   2  -6   5 172.535 22.6917   4
   2   6  -5 189.414 14.8857   3
   2  -6   5 174.999 23.3243   3
  -2  -6  -5 164.090 14.5630   3
  -2  -6   5 149.085 17.4211   4
  -2   6  -5 143.877 19.2742   4
   2  -6  -5 152.031 14.6766   3
  -2  -6   5 168.157 34.4943   3
   2  -6  -5 139.849 16.5505   4
  -2   6  -5 169.297 18.0159   3
   3   6  -5 41.6152 7.38031   3
   3  -6   5 54.7778 15.5257   3
  -3  -6  -5 31.4018 7.88180   3
   3  -6   5 45.1245 16.9396   4
   3  -6  -5 29.0983 10.8189   4
  -3  -6   5 34.2313 10.7134   3
  -3  -6   5 52.8562 19.2537   4
  -3   6  -5 45.7603 15.1968   4
  -3   6  -5 50.5266 11.9088   3
   3  -6  -5 48.4423 10.1016   3
   4  -6   5 274.590 31.7285   4
   4  -6   5 236.883 27.1462   3
  -4  -6  -5 278.403 20.1237   3
   4  -6  -5 260.707 31.5958   3
  -4  -6   5 279.250 21.0391   4
  -4   6  -5 271.819 25.2169   3
   4  -6  -5 277.457 19.0619   3
  -4  -6   5 249.299 23.7535   3
   4  -6  -5 296.410 25.5936   4
  -4   6  -5 311.049 30.4766   4
   5  -6   5 12.9522 10.8705   3
  -5  -6  -5 13.0909 6.14106   3
   5  -6  -5 16.7722 11.4841   4
   5  -6  -5 12.1713 10.6552   3
  -5  -6   5 25.2932 9.90092   3
  -5  -6   5 26.6041 7.40872   4
  -5   6  -5 30.8537 8.96195   4
   5  -6  -5 18.9216 7.66984   3
  -5   6  -5 26.5237 10.1350   3
   0  -7  -5 2.59479 3.44263   3
   0   7  -5 0.20584 4.35902   4
   0  -7  -5 17.2785 7.02503   4
   0  -7   5 -0.0499 4.43589   3
   0   7  -5 7.45490 3.53148   3
   0  -7   5 -4.0551 5.19494   4
   1  -7   5 157.471 21.7771   4
   1   7  -5 144.894 14.6694   3
  -1  -7  -5 140.152 15.1440   3
  -1  -7  -5 141.189 17.4920   4
   1  -7   5 162.114 27.6619   3
   1  -7  -5 142.607 17.9405   4
  -1  -7   5 116.511 20.3316   4
  -1   7  -5 144.948 18.3254   4
  -1  -7   5 113.626 20.5070   3
   1  -7  -5 138.745 15.5529   3
  -1   7  -5 153.719 17.0500   3
   2  -7   5 -9.8808 8.75316   4
   2   7  -5 -0.8929 3.20597   3
   2  -7   5 9.62780 7.61338   3
  -2  -7  -5 3.71912 4.16708   3
  -2   7  -5 0.20959 5.02568   3
  -2  -7   5 14.0460 7.20550   4
   2  -7  -5 3.62674 5.66274   4
   2  -7  -5 1.11621 4.82743   3
  -2   7  -5 -4.5625 3.62095   4
  -2  -7   5 1.82198 5.75146   3
  -3  -7  -5 124.684 14.7378   3
   3  -7   5 107.115 23.9228   4
   3  -7   5 134.120 25.1958   3
  -3  -7   5 149.267 24.8067   3
  -3   7  -5 144.987 24.9813   4
   3  -7  -5 140.888 23.3521   4
  -3  -7   5 119.257 16.5972   4
  -3   7  -5 106.193 18.4549   3
   3  -7  -5 146.318 16.5367   3
  -4  -7  -5 6.80236 4.43818   3
   4  -7   5 16.8418 11.8728   3
  -4   7  -5 21.6030 9.52459   3
   4  -7  -5 11.8053 7.91947   4
  -4  -7   5 4.20506 8.30512   3
  -4   7  -5 10.6755 8.04394   4
   4  -7  -5 3.97080 12.0923   3
  -4  -7   5 24.7406 7.46214   4
   4  -7  -5 10.5140 8.28451   3
   5  -7   5 23.5937 17.9749   3
  -5  -7  -5 92.5237 11.1594   3
   5  -7  -5 51.8656 28.6930   3
  -5  -7   5 76.1492 17.0360   3
  -5   7  -5 30.2680 10.8706   4
   5  -7  -5 58.0895 12.3225   3
   5  -7  -5 53.8332 21.2197   4
  -5  -7   5 73.1192 13.9822   4
   0  -8   5 55.0614 19.1584   4
   0  -8  -5 59.8347 13.7892   3
   0   8  -5 36.2475 11.1116   4
   0  -8   5 63.3997 17.3551   3
   0   8  -5 60.7510 13.0147   3
   0  -8  -5 86.3030 19.1863   4
  -1  -8  -5 187.679 19.2644   3
   1  -8   5 220.798 27.0224   3
   1   8  -5 184.909 18.0251   3
   1  -8   5 201.196 34.8641   4
  -1  -8  -5 198.368 22.3833   4
  -1   8  -5 214.429 21.1671   3
  -1  -8   5 219.719 25.2913   3
  -1   8  -5 196.723 22.0665   4
  -1  -8   5 197.499 24.8602   4
   1  -8  -5 194.095 23.7800   4
   1  -8  -5 209.586 20.0543   3
   2   8  -5 -0.8655 4.95726   3
   2  -8   5 33.5515 15.3482   4
  -2  -8  -5 3.44950 8.72566   4
   2  -8   5 6.50361 7.76880   3
  -2  -8  -5 5.08736 5.45269   3
  -2  -8   5 -7.8091 6.13250   3
   2  -8  -5 2.72050 9.23980   4
  -2   8  -5 2.63277 5.25625   4
  -2   8  -5 3.67129 5.17305   3
  -2  -8   5 21.1518 7.30769   4
   2  -8  -5 17.0453 7.83057   3
   3   8  -5 224.322 16.2146   3
   3  -8   5 206.639 34.7102   3
  -3  -8  -5 205.733 18.9076   3
   3  -8  -5 197.882 20.9767   3
   3  -8  -5 214.462 25.5646   4
  -3  -8   5 237.878 27.8903   3
  -3   8  -5 190.837 24.7866   4
  -3  -8   5 250.334 25.6961   4
   4  -8   5 11.7464 14.4475   3
  -4  -8  -5 63.3203 15.6728   3
   4  -8  -5 35.3707 15.0203   4
  -4   8  -5 45.2746 11.5342   4
  -4  -8   5 54.6200 12.6831   4
   4  -8  -5 59.3300 22.1418   3
   4  -8  -5 16.8673 9.84844   3
   0  -9  -5 23.2022 8.82831   3
   0  -9   5 25.3087 11.0785   3
  -1  -9  -5 31.9494 10.6147   3
   1   9  -5 13.7443 8.17106   3
   1  -9   5 19.7274 10.4615   3
  -1   9  -5 58.9301 14.6438   4
  -1  -9   5 12.8154 9.69579   3
   1  -9  -5 19.8753 13.4616   3
   2  -9   5 29.3339 17.3440   3
  -2  -9  -5 26.5088 7.77728   3
   2   9  -5 10.8181 7.35023   3
  -2  -9   5 51.6458 14.5473   4
  -2   9  -5 15.7905 8.77438   4
  -2  -9   5 12.9249 9.69668   3
   0   0  -6 85.4711 16.6181   3
   0   0   6 84.1619 17.6333   3
   0   0  -6 78.9679 10.9163   4
  -1   0  -6 0.92405 2.70974   4
  -1   0   6 -0.6759 2.53756   3
   1   0  -6 2.68598 2.39565   4
  -1   0  -6 -1.1332 3.60575   3
   1   0  -6 -1.5969 2.56841   3
   1   0   6 3.91210 5.07283   3
  -2   0  -6 37.7066 11.3205   3
  -2   0  -6 49.3003 11.9305   4
  -2   0   6 58.1913 14.5239   3
   3   0  -6 -0.1043 2.36727   3
  -3   0  -6 3.12440 4.91388   3
  -3   0   6 6.03835 5.62069   3
   3   0  -6 1.68729 1.26864   3
  -3   0  -6 -3.7448 2.22188   4
  -4   0  -6 99.8175 19.6834   4
  -4   0   6 150.179 19.5278   3
  -4   0  -6 163.749 21.4624   3
  -5   0   6 2.09125 6.31748   3
  -5   0  -6 4.07201 6.13153   4
  -5   0  -6 2.61178 6.16163   3
  -6   0  -6 72.4395 22.1876   4
  -6   0  -6 78.6841 18.7592   3
  -7   0  -6 11.7913 13.1107   4
   0  -1  -6 772.110 43.2285   3
   0  -1   6 774.575 43.4474   3
   0   1  -6 767.898 39.1408   3
   0   1  -6 774.126 35.1025   4
  -1  -1  -6 633.713 39.9536   3
   1   1  -6 643.220 26.5291   4
   1  -1   6 689.294 40.8506   3
   1   1  -6 656.862 32.4891   3
  -1   1   6 740.242 42.5948   3
  -1   1  -6 648.965 35.5990   4
  -1  -1   6 679.741 40.3540   3
  -1   1  -6 658.767 38.1408   3
   1  -1  -6 707.151 39.8719   3
   2   1  -6 1081.63 38.3368   3
  -2  -1  -6 1105.56 52.3437   4
   2  -1   6 1080.62 51.4405   3
  -2  -1  -6 1029.94 53.3327   3
  -2   1   6 1096.71 54.1221   3
  -2   1  -6 1103.47 52.2396   3
  -2   1  -6 1160.25 53.2335   4
   2  -1  -6 1021.41 45.8268   3
  -2  -1   6 1101.89 52.3942   3
  -3  -1  -6 415.048 33.8283   4
  -3   1   6 429.026 33.0215   3
  -3  -1  -6 445.318 34.5272   3
   3   1  -6 431.768 16.3983   3
  -3   1  -6 462.194 32.7807   3
  -3  -1   6 381.722 29.3953   3
   3  -1  -6 424.210 15.9775   3
  -3   1  -6 409.827 33.5516   4
   3  -1  -6 448.677 22.8146   3
  -4  -1  -6 1047.13 56.1365   3
  -4  -1  -6 1075.53 60.3150   4
  -4   1  -6 1065.05 53.8421   3
  -4  -1   6 1025.22 50.4853   3
  -4   1  -6 1054.20 60.0948   4
  -5  -1  -6 88.3093 22.2668   4
  -5  -1  -6 125.144 24.3348   3
  -5   1  -6 123.397 27.2763   4
  -5   1  -6 152.571 19.8278   3
  -5  -1   6 121.425 20.7970   3
  -6  -1  -6 230.575 29.8794   4
  -6  -1  -6 229.561 27.0470   3
  -6  -1   6 186.188 22.1180   3
  -6   1  -6 229.193 25.5562   3
  -6   1  -6 261.406 32.5229   4
  -7  -1  -6 69.4368 22.4964   4
  -7  -1  -6 81.0181 19.3947   3
  -7   1  -6 63.9831 22.1861   4
  -7   1  -6 61.5804 16.2158   3
   0  -2   6 669.412 33.8929   4
   0  -2   6 716.417 41.9002   3
   0   2  -6 649.363 34.1347   3
   0   2  -6 692.136 32.5854   4
   0  -2  -6 672.909 41.4442   3
   1  -2   6 113.424 19.5039   4
   1  -2   6 118.306 21.5735   3
  -1  -2  -6 97.9814 19.8445   3
   1   2  -6 107.212 12.0365   3
  -1  -2   6 106.665 19.4615   3
  -1   2  -6 96.4060 13.3645   4
  -1   2  -6 81.1738 14.7232   3
  -1  -2   6 97.5006 11.1141   4
   1  -2  -6 130.789 17.8251   3
   2  -2   6 55.0369 13.5270   4
  -2  -2  -6 57.3351 15.4266   3
   2   2  -6 67.7402 5.96812   4
   2  -2   6 47.0486 12.8107   3
   2   2  -6 58.6664 7.72334   3
  -2   2  -6 60.9211 13.6932   3
   2  -2  -6 58.3623 6.36587   4
  -2  -2   6 51.4729 7.21555   4
   2  -2  -6 67.8709 6.90997   3
   2  -2  -6 60.3911 14.9187   3
  -2   2  -6 59.6067 14.5509   4
  -2  -2   6 60.5060 13.2103   3
   3  -2   6 31.6404 10.8227   4
   3   2  -6 31.3295 4.14156   3
   3  -2   6 44.9422 12.3900   3
  -3  -2  -6 54.4587 14.5900   3
   3  -2  -6 48.3189 5.99607   4
   3  -2  -6 41.0099 5.43565   3
  -3  -2   6 28.5314 9.79029   3
  -3   2  -6 38.4414 10.3836   3
   3  -2  -6 55.5184 11.9163   3
  -3   2  -6 40.9874 13.9384   4
  -4  -2  -6 240.702 26.3420   3
  -4  -2  -6 198.317 27.0575   4
  -4  -2   6 195.298 20.3515   3
  -4   2  -6 212.416 26.0450   4
  -4   2  -6 222.201 23.2517   3
  -5  -2  -6 25.8984 14.1365   4
  -5   2  -6 25.6230 13.8152   4
  -5  -2   6 22.9182 8.71733   3
  -5   2  -6 15.0324 8.22915   3
  -6  -2  -6 21.6320 15.8948   4
  -6  -2  -6 36.8046 15.1800   3
  -6   2  -6 9.48462 7.63149   4
  -6  -2   6 19.4450 8.75705   3
  -6   2  -6 37.1310 11.3146   3
   0  -3  -6 38.3634 12.9442   3
   0  -3   6 39.9517 11.3603   3
   0   3  -6 64.7882 12.9811   4
   0  -3   6 53.7294 12.9888   4
   0   3  -6 49.9214 11.2286   3
   1  -3   6 978.265 48.8262   4
   1   3  -6 1027.63 39.1631   3
   1   3  -6 988.080 36.3838   4
   1  -3   6 959.779 51.1616   3
  -1   3  -6 1001.97 46.4317   4
   1  -3  -6 1018.72 33.8468   3
   1  -3  -6 1090.78 55.3554   3
  -1  -3   6 999.791 49.4103   3
  -1  -3   6 985.710 41.3652   4
  -1   3  -6 961.016 43.8975   3
   2  -3   6 98.6764 21.8007   4
   2   3  -6 80.0783 9.11224   3
   2  -3   6 48.9954 14.1563   3
   2  -3  -6 78.8033 8.34419   3
  -2  -3   6 87.6492 16.5961   3
   2  -3  -6 82.7714 8.82668   4
  -2  -3   6 81.5919 13.1889   4
  -2   3  -6 83.2097 20.7990   3
   2  -3  -6 80.5205 18.1118   3
  -2   3  -6 65.2702 15.1020   4
   3  -3   6 841.229 51.3208   4
   3   3  -6 887.951 26.6153   3
   3  -3   6 894.959 50.1886   3
   3  -3  -6 946.759 34.1202   4
   3  -3  -6 904.326 46.8098   3
  -3   3  -6 889.319 50.7387   4
  -3  -3   6 899.643 44.9197   3
   3  -3  -6 891.261 30.6727   3
  -3  -3   6 886.047 30.5697   4
  -3   3  -6 951.545 46.4966   3
   4  -3   6 67.7938 15.3602   3
   4  -3   6 76.4569 22.0100   4
   4  -3  -6 57.5583 11.0414   3
  -4  -3   6 52.5221 13.4906   3
  -4   3  -6 82.4867 20.3074   4
  -4   3  -6 57.7153 14.0108   3
   4  -3  -6 71.7874 9.70602   4
   4  -3  -6 56.6497 6.23167   3
  -5  -3  -6 267.339 32.6162   4
  -5  -3  -6 290.393 32.2530   3
  -5  -3   6 280.158 24.1316   3
  -5   3  -6 293.284 23.9892   3
  -5   3  -6 270.126 31.0428   4
   5  -3  -6 252.508 18.3784   4
  -6  -3  -6 23.3146 10.2810   4
  -6  -3  -6 11.7128 11.4438   3
  -6  -3   6 -9.4841 6.68026   3
  -6   3  -6 -12.291 7.13064   3
  -6   3  -6 9.07945 11.0965   4
   0   4  -6 19.5961 6.87885   4
   0  -4  -6 21.5244 5.62538   3
   0  -4   6 36.1649 10.7596   4
   0  -4   6 6.38626 3.91457   3
   1   4  -6 233.471 16.9099   4
   1  -4   6 193.630 22.1234   4
   1   4  -6 188.364 15.8105   3
   1  -4   6 210.183 23.3584   3
  -1  -4   6 193.673 20.7351   3
  -1  -4   6 209.563 19.2527   4
  -1   4  -6 238.354 21.4890   4
   1  -4  -6 213.790 14.7259   3
  -1   4  -6 245.992 20.0345   3
   2  -4   6 190.411 22.7466   3
   2   4  -6 186.420 13.6978   4
   2  -4   6 185.030 22.4311   4
   2   4  -6 182.758 13.5961   3
  -2  -4   6 180.182 18.5821   3
   2  -4  -6 186.281 13.8725   3
  -2   4  -6 175.817 18.3436   3
  -2  -4   6 181.326 16.5410   4
   2  -4  -6 166.548 14.4254   4
   2  -4  -6 231.310 40.3727   3
  -2   4  -6 178.632 20.6145   4
   3  -4   6 5.76034 7.41039   4
   3   4  -6 0.00664 1.99725   3
   3  -4   6 1.44155 4.40447   3
  -3   4  -6 0.49304 4.64196   3
  -3   4  -6 -2.4442 4.49896   4
  -3  -4   6 4.44500 4.77562   3
   3  -4  -6 9.08598 7.14946   3
  -3  -4   6 1.44596 3.78992   4
   3  -4  -6 1.10457 2.31291   3
   3  -4  -6 3.42474 3.15112   4
   4  -4   6 27.0001 10.8751   4
   4  -4   6 34.4104 12.6071   3
  -4   4  -6 31.9402 10.1920   3
  -4  -4   6 30.3890 7.07251   4
   4  -4  -6 7.89971 5.46978   4
  -4  -4   6 22.3775 7.87072   3
  -4   4  -6 9.31914 6.53040   4
   4  -4  -6 24.8224 5.50910   3
   5  -4   6 -0.5917 7.11902   4
   5  -4  -6 12.9252 8.37878   4
  -5   4  -6 23.0025 9.53697   3
  -5   4  -6 15.3376 7.90267   4
  -5  -4   6 5.00553 5.42473   3
  -6  -4  -6 81.6705 25.0728   4
  -6  -4  -6 30.8023 15.2320   3
  -6   4  -6 74.0153 25.9775   4
  -6   4  -6 53.5980 17.6395   3
   6  -4  -6 55.3219 11.6253   4
  -6  -4   6 56.9929 15.2534   3
   0  -5   6 73.9762 18.8157   4
   0   5  -6 109.524 14.3548   4
   0   5  -6 113.334 14.0013   3
   0  -5   6 137.947 18.0174   3
   0  -5  -6 115.185 11.8256   3
   1   5  -6 288.310 19.9116   3
  -1  -5  -6 245.592 17.6796   3
   1   5  -6 299.964 21.3872   4
   1  -5   6 355.342 31.1769   4
   1  -5   6 280.727 28.1503   3
  -1   5  -6 293.397 24.3722   4
  -1  -5   6 291.284 24.4481   4
  -1   5  -6 266.529 22.0192   3
   1  -5  -6 285.556 19.0224   3
   1  -5  -6 298.536 21.7455   4
  -1  -5   6 286.026 26.6795   3
  -2  -5  -6 167.588 14.1484   3
   2  -5   6 153.143 21.2358   3
   2   5  -6 155.640 13.1091   3
   2  -5   6 166.642 22.7860   4
  -2   5  -6 154.753 19.4219   4
   2  -5  -6 200.613 18.6744   4
   2  -5  -6 164.366 13.7836   3
  -2  -5   6 171.191 17.1167   4
  -2  -5   6 151.116 18.2957   3
  -2   5  -6 152.523 17.7001   3
   3  -5   6 339.069 32.3645   3
   3  -5   6 280.146 31.1172   4
   3   5  -6 307.393 15.6700   3
  -3   5  -6 332.958 25.8395   3
   3  -5  -6 313.721 23.1656   4
   3  -5  -6 298.841 31.7226   3
  -3  -5   6 303.690 21.9155   4
   3  -5  -6 299.184 19.6469   3
  -3  -5   6 301.855 26.8237   3
  -3   5  -6 243.545 26.6028   4
   4  -5   6 45.7509 15.4086   3
   4  -5   6 39.6428 25.1113   4
  -4   5  -6 77.0348 18.3908   4
   4  -5  -6 50.6508 11.9400   4
   4  -5  -6 49.3181 8.65649   3
   4  -5  -6 26.4099 12.6806   3
  -4   5  -6 44.8259 12.9033   3
  -4  -5   6 66.5392 16.6222   3
  -4  -5   6 60.6142 8.30857   4
  -5  -5  -6 69.1708 8.78249   3
   5  -5   6 41.1460 14.5489   3
  -5   5  -6 86.7800 23.1581   4
  -5  -5   6 64.5154 15.4902   3
  -5  -5   6 73.0316 11.2151   4
  -6  -5  -6 40.8496 8.61498   3
   6  -5  -6 25.7582 17.7655   4
  -6   5  -6 33.7095 12.1130   3
  -6   5  -6 90.6705 20.9170   4
   0   6  -6 144.838 16.0008   3
   0   6  -6 140.506 16.6004   4
   0  -6   6 178.934 21.1619   4
   0  -6   6 147.181 26.2864   3
   0  -6  -6 164.391 15.0820   3
   0  -6  -6 171.860 17.8224   4
   1  -6   6 102.213 20.5623   4
   1  -6   6 113.025 23.1180   3
  -1  -6  -6 105.513 11.3341   3
   1   6  -6 100.485 12.7269   3
   1   6  -6 94.6649 12.7951   4
  -1  -6   6 103.285 19.5803   4
   1  -6  -6 113.311 13.8902   4
  -1   6  -6 84.2559 15.3371   3
  -1  -6   6 103.539 19.8393   3
   1  -6  -6 92.3908 12.2328   3
  -1   6  -6 106.953 19.1151   4
   2  -6   6 47.8012 15.4709   4
  -2  -6  -6 60.6455 11.6863   3
   2  -6   6 74.1232 18.5624   3
   2   6  -6 48.0078 10.2403   3
   2  -6  -6 48.9673 11.2871   4
   2  -6  -6 46.2098 9.98350   3
  -2   6  -6 47.9177 11.3800   3
  -2  -6   6 76.8105 16.2166   4
  -2  -6   6 63.9570 14.3936   3
  -2   6  -6 39.6953 13.3104   4
   3  -6   6 16.2472 11.1690   4
  -3  -6  -6 -0.4674 3.12657   3
   3  -6   6 1.83345 8.21128   3
   3   6  -6 -0.8498 2.58420   3
  -3  -6   6 -2.4888 6.42029   4
   3  -6  -6 12.8491 6.26515   4
   3  -6  -6 2.89477 7.75029   3
  -3   6  -6 11.5557 4.81059   3
  -3   6  -6 4.73055 6.83460   4
   3  -6  -6 1.33052 3.49646   3
  -3  -6   6 -2.4652 4.50474   3
  -4  -6  -6 30.3630 7.63762   3
   4  -6   6 5.58704 12.9466   4
   4  -6   6 25.4343 13.6031   3
   4  -6  -6 37.5561 11.5767   4
   4  -6  -6 29.4860 15.1646   3
   4  -6  -6 36.1074 7.13853   3
  -4   6  -6 52.9013 15.4695   4
  -4  -6   6 41.0490 9.18068   4
  -4   6  -6 46.0941 13.3862   3
  -4  -6   6 14.4179 8.06720   3
   5  -6   6 8.09040 11.7824   3
  -5  -6  -6 19.1737 5.15935   3
  -5   6  -6 6.55847 14.6649   4
  -5  -6   6 22.9553 7.60983   4
   5  -6  -6 14.6811 12.7280   3
   5  -6  -6 17.1826 7.95510   3
  -5  -6   6 20.6391 12.7010   3
   5  -6  -6 22.9915 11.8372   4
   0  -7  -6 112.777 19.2987   4
   0  -7   6 111.066 23.5420   3
   0  -7  -6 102.324 13.2888   3
   0   7  -6 104.126 13.7821   3
   0   7  -6 123.265 22.0604   4
   0  -7   6 71.0503 15.1774   4
   1   7  -6 48.1516 11.3492   4
  -1  -7  -6 75.2799 10.2549   3
   1   7  -6 68.5828 12.0384   3
   1  -7   6 75.0777 17.7422   3
   1  -7   6 49.0895 13.8062   4
  -1  -7  -6 107.344 21.3838   4
  -1  -7   6 62.5879 16.8710   3
  -1   7  -6 82.4237 15.6439   3
   1  -7  -6 85.1013 11.7513   3
   1  -7  -6 74.9419 14.3086   4
  -1   7  -6 58.3531 14.1618   4
  -1  -7   6 68.9489 16.8142   4
  -2  -7  -6 168.730 16.6911   3
   2  -7   6 191.999 23.8604   3
   2   7  -6 164.587 15.4333   3
   2  -7   6 132.159 25.2211   4
  -2   7  -6 162.757 19.1375   3
   2  -7  -6 166.677 17.5911   3
  -2   7  -6 158.030 20.4416   4
  -2  -7   6 167.601 27.8562   4
   2  -7  -6 172.228 20.7388   4
  -2  -7   6 174.758 21.5980   3
  -3  -7  -6 70.0254 12.9509   3
   3  -7   6 48.9656 16.0338   3
   3  -7   6 63.0486 19.3430   4
   3   7  -6 66.6981 10.3540   3
  -3   7  -6 75.9925 18.8760   4
  -3   7  -6 69.7026 13.7198   3
  -3  -7   6 63.6240 17.2026   3
   3  -7  -6 57.7941 11.6222   3
  -3  -7   6 58.2324 12.7365   4
   3  -7  -6 73.1022 15.1451   4
  -4  -7  -6 107.469 14.1364   3
   4  -7   6 54.4533 20.7757   3
  -4   7  -6 89.6759 18.6228   4
   4  -7  -6 98.2862 16.9163   3
  -4  -7   6 163.751 20.0959   3
  -4  -7   6 122.682 15.6104   4
   4  -7  -6 107.838 20.5170   4
   4  -7  -6 71.1887 20.6628   3
   0   8  -6 35.8246 10.4568   3
   0   8  -6 28.5717 10.9238   4
   0  -8  -6 51.7513 15.1987   4
   0  -8  -6 32.6228 8.40119   3
   0  -8   6 35.9278 11.8475   4
   0  -8   6 30.2523 12.9471   3
  -1  -8  -6 23.5046 9.26898   4
  -1  -8  -6 18.5564 7.11340   3
   1  -8   6 27.2887 12.1675   3
   1  -8   6 40.2308 17.1848   4
  -1  -8   6 32.6223 16.4300   4
   1  -8  -6 28.6056 8.56099   4
  -1  -8   6 36.7671 11.1534   3
  -1   8  -6 34.1586 11.2233   4
  -1   8  -6 38.8687 9.30570   3
   1  -8  -6 30.4558 8.52237   3
  -2  -8  -6 44.5504 10.7250   3
   2   8  -6 38.9922 9.51604   3
   2  -8   6 41.7109 11.8947   3
  -2   8  -6 30.0311 11.2843   4
   2  -8  -6 24.5593 10.7139   4
  -2  -8   6 57.1239 12.7211   3
  -2  -8   6 40.1554 13.4516   4
   2  -8  -6 39.3554 9.86920   3
   3  -8   6 -6.5207 11.4882   3
  -3  -8  -6 12.7215 7.99235   3
   3   8  -6 -6.2385 4.77720   3
   3  -8  -6 -6.5105 5.46392   3
  -3  -8   6 6.34738 8.81923   4
   3  -8  -6 -0.5963 10.1637   4
  -3   8  -6 14.7098 8.09002   4
  -3  -8   6 8.02762 7.49076   3
   0   9  -6 125.837 37.5993   4
   0  -9  -6 107.805 14.9700   3
   0  -9   6 75.6561 18.7354   3
   1  -9   6 7.87211 12.0484   3
  -1  -9  -6 11.8539 6.32505   3
   1  -9  -6 -3.1161 4.80982   3
  -1  -9   6 17.5027 12.9677   3
  -1   9  -6 -13.533 7.75730   4
  -2  -9  -6 72.7525 16.3612   3
   2   9  -6 111.021 17.3785   3
   2  -9   6 72.4095 23.3784   3
  -2  -9   6 117.322 23.5660   3
  -2   9  -6 105.158 21.3082   4
   2  -9  -6 109.489 19.2256   3
   0   0   7 -2.9015 3.37875   3
   0   0  -7 -5.5824 3.23427   3
   0   0  -7 -2.9053 2.16694   4
   1   0  -7 403.803 34.3593   4
  -1   0  -7 366.047 30.9319   3
  -1   0   7 407.472 33.6284   3
   1   0  -7 389.565 28.8524   3
   1   0   7 338.778 30.3958   3
  -1   0  -7 368.496 27.5877   4
   2   0  -7 -0.3088 1.73736   4
  -2   0  -7 2.90086 5.69530   3
  -2   0   7 1.39356 3.61738   3
  -2   0  -7 2.71127 4.12710   4
   2   0  -7 -2.7790 3.02765   3
  -3   0  -7 309.012 30.5725   4
  -3   0   7 257.318 27.4916   3
  -3   0  -7 268.602 28.6923   3
   3   0  -7 309.778 18.0009   3
  -4   0  -7 3.32605 3.64486   4
  -4   0  -7 5.89484 6.40422   3
  -4   0   7 3.01216 5.11990   3
  -5   0  -7 221.639 28.0922   3
  -5   0  -7 173.832 33.9880   4
  -5   0   7 185.151 22.5879   3
  -6   0  -7 21.8063 11.4473   3
  -6   0  -7 14.8130 7.59691   4
   0   1  -7 127.948 14.7615   4
   0  -1   7 112.011 20.7052   3
   0  -1  -7 150.688 19.5948   3
   0   1  -7 129.359 16.6004   3
   1   1  -7 475.857 33.5475   4
   1  -1   7 526.596 38.1552   3
   1   1  -7 490.750 30.0657   3
  -1  -1  -7 497.655 37.6810   3
  -1  -1   7 559.934 39.1997   3
  -1   1  -7 507.295 32.9691   4
   1  -1  -7 522.574 36.4884   3
  -1   1  -7 535.920 36.1606   3
   2   1  -7 57.2639 5.70671   4
  -2  -1  -7 71.6449 18.2432   4
   2  -1   7 62.6202 16.0403   3
   2   1  -7 63.5859 11.3798   3
  -2  -1  -7 33.4955 11.6372   3
  -2   1   7 55.1188 15.9320   3
   2  -1  -7 70.3612 15.2087   3
  -2  -1   7 59.5097 16.0575   3
  -2   1  -7 81.6169 18.9329   3
  -2   1  -7 72.8038 18.4804   4
  -3  -1  -7 554.932 42.2334   3
  -3  -1  -7 570.732 41.8595   4
   3   1  -7 616.083 24.0991   3
  -3   1   7 597.895 42.1430   3
   3  -1  -7 588.987 30.1283   3
   3  -1  -7 584.250 21.2321   3
  -3   1  -7 603.285 42.7775   4
  -3  -1   7 601.413 40.9755   3
  -4  -1  -7 -0.1405 5.10142   4
  -4  -1  -7 10.6212 7.94119   3
  -4  -1   7 7.33371 6.53039   3
  -4   1  -7 19.0445 8.40242   3
  -4   1  -7 0.87011 4.62891   4
  -5  -1  -7 60.1457 16.2080   4
  -5  -1  -7 84.8676 22.0742   3
  -5   1  -7 88.5535 20.4187   3
  -5   1  -7 92.6026 20.4779   4
  -5  -1   7 92.2979 18.4201   3
  -6  -1  -7 21.4370 13.0220   4
  -6  -1  -7 47.5177 12.4941   3
  -6   1  -7 22.0215 9.87029   4
  -6   1  -7 -13.070 9.71363   3
   0  -2   7 184.586 17.9031   4
   0  -2  -7 188.609 23.5880   3
   0   2  -7 201.742 19.8779   3
   0   2  -7 193.012 17.4812   4
   0  -2   7 194.299 22.6623   3
   1   2  -7 20.1670 7.77670   3
   1  -2   7 18.7057 7.99417   4
   1   2  -7 16.9890 5.35416   4
   1  -2   7 19.5865 8.00857   3
  -1  -2  -7 13.0504 7.91295   3
   1  -2  -7 18.8817 9.19863   3
  -1   2  -7 18.4929 7.52881   3
  -1  -2   7 13.5186 7.39150   3
  -1   2  -7 22.3042 9.07302   4
  -1  -2   7 25.5526 7.71575   4
   2   2  -7 163.938 10.5382   4
   2  -2   7 166.532 21.4167   3
   2   2  -7 161.966 13.9977   3
  -2  -2  -7 176.143 24.4865   3
   2  -2  -7 171.001 21.1928   3
  -2   2  -7 167.287 22.5738   3
  -2  -2   7 160.260 20.8378   3
   2  -2  -7 170.613 11.7955   3
  -2   2  -7 178.256 21.2107   4
   3  -2   7 83.2572 18.2088   3
  -3  -2  -7 44.8291 15.1968   3
   3   2  -7 74.5370 7.86656   3
   3  -2  -7 73.9572 7.65222   3
   3  -2  -7 76.9659 7.35357   4
  -3  -2   7 93.1009 19.8867   3
   3  -2  -7 70.6386 14.6210   3
  -3   2  -7 60.1698 16.4780   4
  -3   2  -7 89.3554 18.9664   3
  -4  -2  -7 32.5836 14.6669   4
  -4  -2  -7 52.8486 13.9610   3
   4  -2  -7 23.0009 4.49761   3
  -4   2  -7 24.0977 10.5463   3
  -4   2  -7 22.9139 11.6053   4
  -4  -2   7 23.7594 11.5455   3
  -5  -2  -7 37.7161 15.4440   4
  -5  -2  -7 55.8908 14.7606   3
  -5  -2   7 69.1576 13.8426   3
  -5   2  -7 30.9359 9.73615   3
  -5   2  -7 69.9301 23.5591   4
  -6  -2  -7 17.2607 13.4313   3
  -6  -2  -7 43.9008 15.2247   4
  -6   2  -7 29.7355 10.6789   4
  -6   2  -7 18.7356 12.5467   3
  -6  -2   7 50.7475 13.4033   3
   0   3  -7 422.919 27.1566   4
   0  -3  -7 434.228 36.3191   3
   0  -3   7 402.102 29.4983   4
   0  -3   7 476.823 36.4379   3
   1   3  -7 242.493 18.9192   3
  -1  -3  -7 254.507 28.9090   3
   1  -3   7 263.366 28.2630   3
   1  -3   7 260.239 24.8577   4
   1   3  -7 239.327 17.2229   4
  -1  -3   7 253.331 21.2129   4
  -1   3  -7 255.229 23.5776   4
  -1  -3   7 230.613 24.8996   3
  -1   3  -7 248.668 22.4657   3
   1  -3  -7 240.457 15.4391   3
   2   3  -7 467.161 24.3269   3
   2   3  -7 436.903 20.2838   4
   2  -3   7 443.287 37.2333   3
  -2  -3  -7 462.275 39.1630   3
   2  -3   7 448.857 34.9285   4
  -2   3  -7 475.037 33.2213   3
  -2  -3   7 438.752 33.5953   3
   2  -3  -7 428.636 35.6182   3
   2  -3  -7 440.502 21.4454   3
   2  -3  -7 481.301 23.2558   4
  -2  -3   7 446.165 25.0666   4
  -2   3  -7 501.781 36.0350   4
   3  -3   7 200.202 24.5497   4
   3   3  -7 199.607 12.4709   3
  -3  -3  -7 199.190 26.8044   3
   3  -3   7 167.005 22.0040   3
  -3   3  -7 187.165 21.0942   3
  -3   3  -7 203.335 24.5740   4
   3  -3  -7 193.219 22.7670   3
   3  -3  -7 182.693 13.3260   3
   3  -3  -7 188.585 13.6747   4
  -3  -3   7 207.781 13.9232   4
  -3  -3   7 189.979 22.1945   3
   4  -3   7 498.555 35.8830   3
  -4  -3  -7 448.975 40.8114   3
   4  -3   7 405.176 39.4145   4
  -4   3  -7 481.021 40.5084   4
  -4  -3   7 440.833 33.9263   3
   4  -3  -7 491.694 28.2642   3
   4  -3  -7 466.915 23.8446   4
   4  -3  -7 473.765 20.0917   3
  -4   3  -7 546.963 36.7546   3
  -5  -3  -7 42.6652 17.2069   3
  -5  -3  -7 28.2916 15.2478   4
  -5   3  -7 23.3209 9.25321   3
  -5   3  -7 18.6980 8.79887   4
  -5  -3   7 42.8736 10.7216   3
  -6  -3  -7 74.7845 24.3993   3
  -6  -3  -7 111.407 43.6167   4
  -6   3  -7 60.6932 15.8421   3
  -6   3  -7 58.3347 15.8261   4
  -6  -3   7 61.3350 17.6493   3
   0  -4   7 238.297 22.1636   4
   0   4  -7 171.537 17.7017   4
   0   4  -7 189.743 18.2181   3
   0  -4   7 266.143 26.4740   3
   0  -4  -7 214.427 15.3801   3
   1  -4   7 36.4934 12.7411   4
   1   4  -7 34.8290 9.64312   3
   1  -4   7 27.7833 11.5066   3
   1   4  -7 32.7111 9.02444   4
  -1  -4   7 58.7998 13.0802   4
   1  -4  -7 48.5423 15.9013   3
  -1  -4   7 42.0543 14.1991   3
   1  -4  -7 38.4622 8.33414   3
  -1   4  -7 61.1400 14.3496   3
  -1   4  -7 40.1104 12.0531   4
   2   4  -7 189.111 14.6928   4
   2  -4   7 193.597 25.0311   3
   2   4  -7 205.669 16.0419   3
   2  -4   7 196.014 25.1693   4
   2  -4  -7 196.878 15.7930   4
  -2  -4   7 238.696 24.5135   3
  -2   4  -7 190.570 22.1019   4
   2  -4  -7 188.692 23.9547   3
  -2   4  -7 201.619 20.8183   3
  -2  -4   7 206.119 18.4349   4
   2  -4  -7 188.978 14.5148   3
   3  -4   7 19.1689 9.75623   4
   3  -4   7 13.3746 11.5613   3
   3   4  -7 40.6192 7.07675   3
   3  -4  -7 36.6287 8.19689   3
   3  -4  -7 49.1086 10.3365   4
  -3   4  -7 37.2016 10.8291   3
  -3  -4   7 41.1691 10.2827   4
   3  -4  -7 46.2226 14.2638   3
  -3   4  -7 39.7994 11.5381   4
  -3  -4   7 31.0035 10.2146   3
   4  -4   7 12.7882 8.42607   3
   4  -4   7 17.2128 9.16145   4
  -4  -4   7 6.82191 7.86335   3
  -4   4  -7 35.7022 9.44864   3
   4  -4  -7 17.0975 6.33429   4
   4  -4  -7 31.3756 11.2652   3
   4  -4  -7 17.1039 5.15531   3
  -4   4  -7 20.1972 10.6611   4
   5  -4   7 -0.1003 7.46163   4
  -5  -4  -7 10.4600 13.6638   3
  -5   4  -7 22.5412 11.4833   3
   5  -4  -7 19.4171 8.57525   4
  -5   4  -7 17.6255 8.98733   4
  -6  -4  -7 23.6639 18.8345   3
  -6  -4  -7 87.2377 23.9444   4
  -6   4  -7 63.0286 18.1506   3
  -6   4  -7 69.7153 19.0466   4
  -6  -4   7 44.2425 12.4611   3
   0  -5   7 26.4078 10.6888   4
   0   5  -7 35.0043 10.0619   3
   0   5  -7 35.6166 11.4247   4
   1  -5   7 31.5168 12.3621   4
   1   5  -7 10.7369 5.51786   4
  -1  -5  -7 29.2274 6.52604   3
   1   5  -7 35.5975 9.12662   3
  -1  -5   7 27.5057 10.2440   4
  -1   5  -7 29.8398 11.5284   4
   1  -5  -7 28.2575 7.60665   4
   1  -5  -7 26.2866 7.66671   3
  -1   5  -7 17.1900 6.76819   3
   2  -5   7 69.2596 22.3295   3
   2   5  -7 85.5996 13.7844   4
  -2  -5  -7 84.8095 9.57975   3
   2   5  -7 82.4295 10.9945   3
   2  -5   7 70.5981 18.9257   4
   2  -5  -7 88.0627 10.9552   3
   2  -5  -7 88.0776 11.8049   4
  -2  -5   7 102.355 17.7081   4
   2  -5  -7 81.1147 22.5991   3
  -2   5  -7 96.0756 22.0119   4
  -2   5  -7 107.498 18.1231   3
  -2  -5   7 59.6108 15.0195   3
   3  -5   7 102.374 23.3179   4
   3   5  -7 57.4749 9.07192   3
   3  -5   7 72.8057 18.5322   3
   3  -5  -7 54.3608 15.0070   3
  -3   5  -7 65.0088 18.5787   4
  -3  -5   7 53.2711 11.8005   4
  -3   5  -7 50.2839 13.0512   3
  -3  -5   7 62.9441 15.3048   3
   3  -5  -7 47.6189 9.99671   3
   4  -5   7 173.708 29.4072   3
   4  -5   7 183.828 34.1606   4
  -4   5  -7 237.280 44.9490   3
  -4   5  -7 178.953 24.9148   4
   4  -5  -7 140.865 13.9511   3
  -4  -5   7 213.632 24.2297   3
   4  -5  -7 185.546 29.8866   3
  -4  -5   7 209.054 17.3471   4
   4  -5  -7 182.544 19.9677   4
   5  -5   7 25.6296 12.4789   3
  -5   5  -7 13.2300 10.5681   4
   5  -5  -7 26.6904 10.9423   4
  -5  -5   7 20.6873 13.0258   3
  -5   5  -7 29.9622 11.5499   3
   0  -6   7 255.780 26.2434   4
   0  -6  -7 221.391 18.4005   3
   0  -6   7 200.624 25.3050   3
   0   6  -7 251.694 23.0892   4
   0   6  -7 228.428 20.5040   3
   1   6  -7 35.1427 10.7801   4
   1  -6   7 35.6030 11.5297   4
  -1  -6  -7 27.9809 7.75039   3
   1  -6   7 51.5040 14.5562   3
   1   6  -7 37.1470 9.81298   3
  -1   6  -7 33.0696 11.0907   4
  -1   6  -7 38.5710 11.5761   3
   1  -6  -7 42.7024 11.5416   4
  -1  -6   7 50.6669 14.4341   3
   1  -6  -7 30.8659 8.51928   3
  -1  -6   7 37.5388 10.1073   4
   2   6  -7 230.762 18.0604   3
   2  -6   7 231.272 37.0051   3
   2  -6   7 231.567 29.4029   4
  -2  -6  -7 249.755 18.7656   3
  -2   6  -7 231.011 25.2262   4
   2  -6  -7 200.454 35.4166   3
  -2  -6   7 228.984 24.7534   3
  -2   6  -7 241.216 23.4367   3
   2  -6  -7 189.713 20.0472   4
   2  -6  -7 237.953 18.7240   3
  -2  -6   7 251.555 22.9356   4
   3  -6   7 12.6590 10.0764   4
   3  -6   7 10.8397 11.9692   3
  -3  -6  -7 6.15607 5.59196   3
  -3   6  -7 18.8874 10.5892   4
   3  -6  -7 29.7675 7.63691   4
  -3  -6   7 6.80427 7.49701   3
   3  -6  -7 35.1783 14.6771   3
  -3  -6   7 18.8061 8.04278   4
  -3   6  -7 4.30860 7.72268   3
   3  -6  -7 8.71697 6.39327   3
   4  -6   7 77.9495 19.6389   3
  -4  -6  -7 37.8851 7.85544   3
   4  -6  -7 49.7705 13.4657   4
  -4   6  -7 61.5577 17.7301   4
  -4   6  -7 66.4980 13.4397   3
   4  -6  -7 20.7314 8.52874   3
  -4  -6   7 47.3257 15.1040   3
   5  -6   7 -7.5898 13.1300   3
  -5  -6  -7 32.4479 7.57517   3
  -5   6  -7 24.0631 9.68823   4
   5  -6  -7 5.56491 7.53211   3
  -5  -6   7 21.4209 11.2526   3
   5  -6  -7 24.9976 14.0466   3
   5  -6  -7 8.79443 11.8549   4
  -5  -6   7 35.0785 7.77474   4
   0  -7  -7 28.0502 9.42419   3
   0  -7  -7 26.8361 9.35961   4
   0  -7   7 29.8775 10.0524   3
   0  -7   7 47.4912 13.9721   4
   0   7  -7 37.0177 12.1818   4
   0   7  -7 45.0881 12.6860   3
   1  -7   7 100.954 24.9254   3
   1   7  -7 122.755 14.8182   3
   1   7  -7 122.632 20.2540   4
   1  -7   7 179.437 39.9468   4
  -1  -7  -7 109.497 13.7489   3
  -1   7  -7 106.228 19.5584   3
  -1  -7   7 119.044 22.5808   4
   1  -7  -7 100.249 18.4048   4
   1  -7  -7 106.591 13.6933   3
  -1  -7   7 154.964 28.2398   3
  -1   7  -7 76.4612 16.0653   4
   2   7  -7 26.9064 7.80780   3
  -2  -7  -7 36.5157 8.79917   3
   2  -7   7 43.4500 16.5462   4
   2  -7   7 25.4516 12.9219   3
   2  -7  -7 30.8446 10.4678   4
  -2   7  -7 42.2833 12.4559   3
  -2   7  -7 15.8493 7.18148   4
   2  -7  -7 28.0990 8.78331   3
  -2  -7   7 21.3825 8.93141   4
  -2  -7   7 36.3245 10.5404   3
   3  -7   7 167.960 31.1714   3
  -3  -7  -7 173.681 16.4060   3
   3   7  -7 137.806 13.5828   3
  -3  -7   7 115.799 23.3013   3
  -3   7  -7 170.480 21.8889   4
  -3  -7   7 177.994 18.2244   4
   3  -7  -7 123.596 27.8631   3
   3  -7  -7 133.864 22.7791   4
   3  -7  -7 142.042 15.8930   3
  -4  -7  -7 68.9935 20.0501   3
   4  -7   7 42.2813 21.7089   3
   4  -7  -7 98.7529 19.7935   4
  -4   7  -7 84.2634 17.0517   4
   4  -7  -7 35.8294 22.5448   3
   4  -7  -7 53.6610 12.6024   3
  -4  -7   7 57.0557 18.0918   3
   0  -8  -7 102.595 25.2269   4
   0  -8   7 87.5546 21.2714   3
   0  -8   7 50.7065 18.7133   4
   0  -8  -7 52.9333 12.3792   3
   0   8  -7 73.6959 14.2541   3
   0   8  -7 65.5232 17.1586   4
   1  -8   7 90.0033 23.0555   3
   1   8  -7 100.657 17.3930   3
  -1  -8  -7 116.173 27.3330   3
   1  -8  -7 75.3055 16.3679   4
  -1  -8   7 80.1072 28.0293   3
  -1   8  -7 102.493 21.3485   4
   1  -8  -7 91.2139 16.2206   3
  -1  -8   7 88.7290 21.5566   4
   2  -8   7 82.6867 21.2968   3
   2   8  -7 78.7141 12.1660   3
  -2  -8  -7 78.0608 14.2904   3
   2  -8  -7 38.5815 11.6437   4
  -2  -8   7 81.3029 25.6294   3
   2  -8  -7 86.5654 15.6250   3
  -2   8  -7 66.4454 16.3097   4
  -2  -8   7 114.458 23.5235   4
  -3  -8  -7 68.6968 14.3124   3
   3   8  -7 51.2146 11.3524   3
   3  -8   7 82.2181 21.4268   3
   3  -8  -7 48.8117 28.0384   3
  -3   8  -7 66.0884 16.5157   4
  -3  -8   7 63.8239 12.7451   4
   3  -8  -7 44.8934 10.9176   3
  -3  -8   7 69.2138 19.8053   3
   3  -8  -7 52.3058 18.8300   4
   0  -9   7 30.2119 19.3223   3
   0   9  -7 41.5547 11.1836   4
   0  -9  -7 25.9345 10.0131   3
   0   0  -8 427.664 28.9420   4
   0   0  -8 424.383 34.6769   3
   0   0   8 427.224 36.4338   3
  -1   0  -8 -4.3952 2.91135   4
   1   0   8 -1.8546 2.15944   3
  -1   0  -8 -7.9205 3.49508   3
  -1   0   8 -0.3047 3.86623   3
   1   0  -8 -5.6319 3.56019   3
   1   0  -8 4.63921 3.53796   4
  -2   0   8 231.801 26.1451   3
   2   0  -8 191.635 19.5485   3
  -2   0  -8 184.330 22.7700   4
  -2   0  -8 234.921 26.9128   3
   2   0  -8 200.269 13.4427   4
  -3   0   8 9.44348 5.87693   3
  -3   0  -8 -3.4062 4.50940   3
  -3   0  -8 -10.638 4.67229   4
   3   0  -8 2.50942 1.73063   3
   3   0  -8 -0.5343 4.19239   3
  -4   0  -8 35.2676 12.2651   4
  -4   0   8 82.7695 20.8081   3
  -4   0  -8 52.1408 19.0247   3
  -5   0   8 -8.9788 7.51691   3
  -5   0  -8 -6.5986 9.01875   3
  -5   0  -8 -2.4489 6.12191   4
  -6   0  -8 113.573 34.8451   4
  -6   0  -8 73.7377 22.3462   3
   0  -1   8 31.9889 12.9205   3
   0  -1  -8 39.2477 11.2683   4
   0   1  -8 28.2581 9.65917   4
   1   1  -8 223.458 17.4178   4
  -1  -1  -8 220.224 22.7770   4
   1   1  -8 215.128 21.2529   3
  -1  -1  -8 209.906 26.0899   3
   1  -1   8 198.113 25.0573   3
   1  -1  -8 205.370 18.1537   4
  -1  -1   8 238.487 27.7620   3
  -1   1  -8 204.028 23.4596   3
   1  -1  -8 187.639 22.6105   3
  -1   1  -8 240.774 23.6790   4
  -2  -1  -8 35.0820 13.2821   4
   2   1  -8 30.3451 6.26006   4
  -2   1   8 14.8900 8.79992   3
   2  -1   8 20.6280 9.61313   3
   2   1  -8 10.0980 5.73634   3
  -2  -1  -8 15.6941 9.81242   3
   2  -1  -8 8.96676 4.47611   4
   2  -1  -8 18.7219 9.06619   3
  -2   1  -8 35.3809 10.6276   3
  -2   1  -8 14.8091 7.95328   4
  -2  -1   8 23.3039 9.40149   3
  -3  -1  -8 54.7257 17.9245   3
   3   1  -8 46.5515 9.25883   3
  -3  -1  -8 22.3108 11.7600   4
   3  -1  -8 58.7216 12.9810   3
  -3   1  -8 20.1477 13.9301   4
  -3   1  -8 79.8489 19.0029   3
  -3  -1   8 48.2841 14.6926   3
   3  -1  -8 41.5232 6.92102   3
  -4  -1  -8 75.3141 21.3101   3
  -4  -1  -8 98.3761 23.3535   4
  -4   1  -8 95.2586 22.0644   3
  -4  -1   8 99.4005 22.6215   3
  -4   1  -8 80.4340 21.1932   4
  -5  -1  -8 -0.3808 12.0939   3
  -5  -1  -8 8.30075 5.95048   4
  -5   1  -8 7.90428 12.6763   4
  -5   1  -8 25.2870 12.5297   3
  -5  -1   8 5.76829 7.39038   3
  -6  -1  -8 65.9967 18.5551   4
  -6  -1  -8 85.9050 20.5026   3
  -6   1  -8 71.9250 21.3978   3
  -6   1  -8 64.7097 17.3820   4
   0   2  -8 1085.62 47.5534   4
   0   2  -8 1077.23 51.6633   3
   0  -2   8 1198.12 63.7625   3
   0  -2   8 1189.01 50.5591   4
   0  -2  -8 1195.85 64.0152   3
   1   2  -8 61.6938 11.9704   4
  -1  -2  -8 61.8201 17.1923   3
   1  -2   8 57.8713 16.0368   3
   1   2  -8 55.9376 13.2674   3
   1  -2   8 60.4301 14.0539   4
  -1  -2   8 55.9790 16.1445   3
  -1   2  -8 62.7074 15.6979   3
  -1   2  -8 58.0873 14.2836   4
   1  -2  -8 94.2473 21.6476   3
   2   2  -8 632.090 31.7256   3
   2   2  -8 630.799 24.6418   4
   2  -2   8 609.643 44.1154   3
  -2  -2  -8 651.577 48.6202   3
   2  -2  -8 647.406 43.8921   3
  -2   2  -8 603.100 40.5777   3
  -2   2  -8 665.471 44.1233   4
   2  -2  -8 676.352 26.8533   3
  -2  -2   8 674.652 46.7356   3
  -3  -2  -8 41.6997 14.0124   4
   3  -2   8 50.5550 14.6936   3
  -3  -2  -8 24.6784 12.3463   3
   3   2  -8 34.6266 7.53707   3
   3  -2  -8 44.8145 7.12582   4
   3  -2  -8 44.1995 7.79809   3
   3  -2  -8 49.3259 14.7926   3
  -3   2  -8 41.5254 14.2114   3
  -3  -2   8 33.1042 13.2831   3
  -3   2  -8 33.2363 13.1468   4
  -4  -2  -8 176.617 32.6324   3
  -4  -2  -8 236.621 41.7550   4
   4  -2  -8 210.638 16.6454   3
  -4  -2   8 215.073 26.3187   3
  -4   2  -8 210.574 27.6941   4
  -4   2  -8 199.530 24.5219   3
  -5  -2  -8 82.5122 18.6303   4
  -5  -2  -8 71.5748 19.8895   3
  -5  -2   8 36.1985 14.8867   3
  -5   2  -8 59.8136 16.5651   4
  -5   2  -8 54.1638 14.8769   3
  -6  -2  -8 75.8805 19.8320   4
  -6  -2  -8 108.120 24.2337   3
  -6  -2   8 72.6681 18.9098   3
  -6   2  -8 113.419 27.6631   4
  -6   2  -8 117.843 32.8836   3
   0   3  -8 92.7004 12.9100   4
   0  -3   8 69.5704 14.1865   4
   0  -3  -8 59.0805 17.0327   3
   0   3  -8 110.281 19.3951   3
   0  -3   8 59.0217 16.5067   3
   1   3  -8 99.4436 11.9776   4
   1   3  -8 113.540 18.4319   3
   1  -3   8 97.4432 22.1959   3
   1  -3   8 136.208 24.8783   4
  -1  -3  -8 106.074 24.9582   3
   1  -3  -8 96.6506 10.0397   3
  -1  -3   8 96.5917 13.4167   4
   1  -3  -8 89.3569 21.2557   3
  -1   3  -8 132.679 22.7644   3
  -1   3  -8 131.801 23.7299   4
  -1  -3   8 90.2725 20.4174   3
  -2  -3  -8 6.44856 6.13811   3
   2  -3   8 0.88364 4.64370   4
   2   3  -8 4.20699 3.63725   3
   2   3  -8 2.49567 2.57900   4
   2  -3   8 13.6285 6.71349   3
   2  -3  -8 -8.4104 5.21391   3
  -2  -3   8 9.45240 7.55429   3
   2  -3  -8 3.12299 2.28430   3
  -2   3  -8 3.06275 3.98763   4
  -2  -3   8 3.71592 3.71567   4
   2  -3  -8 4.27564 3.09993   4
  -2   3  -8 9.96684 5.64759   3
   3  -3   8 32.7758 11.7194   3
   3  -3   8 62.8908 17.6350   4
  -3  -3  -8 13.0128 11.8222   3
   3   3  -8 30.1793 6.59229   3
  -3   3  -8 20.0145 9.02782   3
  -3   3  -8 32.3523 14.3581   4
   3  -3  -8 40.3661 7.84961   4
  -3  -3   8 34.0251 10.6443   3
   3  -3  -8 32.4656 16.1908   3
   3  -3  -8 39.5040 7.56935   3
  -4  -3  -8 77.9955 23.2846   3
   4  -3   8 52.0481 16.6610   3
  -4  -3   8 96.3482 20.5496   3
  -4   3  -8 68.9171 20.6553   4
  -4   3  -8 90.6392 19.1482   3
   4  -3  -8 71.8199 11.0868   4
   4  -3  -8 80.5194 15.3514   3
   4  -3  -8 72.1514 8.19693   3
  -5  -3  -8 23.4592 12.5846   4
  -5  -3  -8 25.5279 11.3669   3
  -5   3  -8 10.0813 6.10849   4
  -5   3  -8 11.0252 7.88305   3
  -6  -3  -8 56.0007 17.0661   4
  -6  -3  -8 42.7468 18.2249   3
  -6  -3   8 15.3468 12.0978   3
  -6   3  -8 25.9456 7.75793   4
  -6   3  -8 62.6179 17.5431   3
   0  -4  -8 20.4838 11.2286   3
   0   4  -8 30.3321 9.09982   3
   0  -4  -8 36.2701 8.14579   3
   0   4  -8 31.4994 9.97812   4
   0  -4   8 11.0911 7.74886   3
   0  -4   8 42.7504 18.6379   4
   1   4  -8 503.092 30.3938   3
   1   4  -8 532.330 29.6627   4
  -1  -4  -8 496.348 43.3339   3
   1  -4   8 493.552 41.9645   3
   1  -4   8 524.907 39.2947   4
  -1  -4   8 530.590 34.3035   4
   1  -4  -8 510.758 44.0231   3
  -1  -4   8 502.031 43.5298   3
  -1   4  -8 513.952 34.1216   3
   1  -4  -8 528.368 26.6135   3
  -1   4  -8 511.696 35.3249   4
  -2  -4  -8 14.0867 9.15505   3
   2  -4   8 10.4258 6.14802   4
   2   4  -8 18.9647 6.27362   4
   2  -4   8 27.2715 13.1728   3
   2   4  -8 25.0824 7.47951   3
  -2   4  -8 26.1168 11.1928   3
   2  -4  -8 21.2772 6.55773   3
  -2  -4   8 22.7729 7.20886   4
  -2   4  -8 21.4105 10.1762   4
   2  -4  -8 26.7102 6.39683   4
   2  -4  -8 16.5879 11.5219   3
   3  -4   8 295.416 34.3457   3
  -3  -4  -8 322.464 37.4277   3
   3   4  -8 319.573 18.2084   3
   3  -4   8 301.368 32.2763   4
  -3   4  -8 310.766 31.9933   4
  -3  -4   8 291.320 30.0004   3
   3  -4  -8 332.935 21.6079   4
   3  -4  -8 315.949 19.8496   3
   3  -4  -8 319.093 33.6029   3
  -3   4  -8 318.901 28.2553   3
  -3  -4   8 317.923 20.2722   4
  -4  -4  -8 4.47313 10.6254   3
   4  -4   8 5.88003 9.99211   3
   4  -4   8 16.8958 10.1626   4
  -4  -4   8 22.9689 11.0297   3
   4  -4  -8 0.68715 10.0281   3
  -4   4  -8 1.68887 8.79264   3
  -4   4  -8 4.41695 6.19064   4
   4  -4  -8 16.2728 5.24503   3
   4  -4  -8 31.7468 7.24114   4
  -5  -4  -8 262.373 41.5346   3
  -5  -4  -8 180.807 37.2142   4
  -5   4  -8 274.515 27.2750   3
   5  -4  -8 264.532 20.8172   4
  -5  -4   8 262.491 29.9597   3
   0  -5   8 95.2237 22.0369   3
   0  -5  -8 86.8329 10.8929   3
   0  -5  -8 58.3987 19.9478   3
   0  -5   8 106.680 20.8373   4
   0   5  -8 80.3736 16.8222   4
   0   5  -8 81.6279 16.4054   3
   1  -5   8 170.921 29.5807   4
   1   5  -8 186.923 18.3807   3
  -1  -5  -8 155.975 14.6411   3
   1  -5   8 195.422 24.9977   3
   1   5  -8 152.711 16.6406   4
  -1   5  -8 189.859 21.2478   4
  -1   5  -8 193.702 20.8126   3
  -1  -5   8 228.013 22.8170   4
   1  -5  -8 153.498 14.4520   3
  -1  -5   8 194.110 25.8976   3
   1  -5  -8 173.770 17.3896   4
   1  -5  -8 133.045 29.3715   3
   2   5  -8 19.4047 5.25533   3
   2  -5   8 -6.3111 8.19901   3
   2   5  -8 11.6062 6.30578   4
  -2  -5  -8 5.29381 3.85169   3
   2  -5   8 15.9777 9.45253   4
   2  -5  -8 16.7734 11.0490   3
   2  -5  -8 13.9613 5.15493   4
   2  -5  -8 9.89490 5.30883   3
  -2  -5   8 6.81195 4.04091   4
  -2  -5   8 14.4542 7.59937   3
  -2   5  -8 6.88171 5.38319   4
  -2   5  -8 14.1344 7.78806   3
   3  -5   8 13.7503 6.99562   4
   3  -5   8 -2.2940 8.71119   3
   3   5  -8 -1.9630 2.95672   3
  -3  -5   8 2.33604 5.90756   3
  -3   5  -8 -13.390 6.20096   4
  -3  -5   8 8.11356 5.46172   4
   3  -5  -8 -0.6426 3.22075   3
   3  -5  -8 10.5601 9.68199   3
   4  -5  -8 28.5076 8.69289   4
  -4   5  -8 28.6603 10.4366   4
  -4   5  -8 37.2504 11.9778   3
   4  -5  -8 2.48264 13.7218   3
  -4  -5   8 32.4396 13.3083   3
  -4  -5   8 24.8140 7.67452   4
   4  -5  -8 31.0755 8.65552   3
  -5  -5  -8 23.7366 16.7806   3
   5  -5   8 7.65457 11.2065   3
  -5   5  -8 -16.867 7.47632   4
   5  -5  -8 -6.1322 8.52403   4
  -5  -5   8 44.8379 12.8508   3
   0  -6   8 152.445 28.2238   4
   0   6  -8 118.602 16.6819   4
   0  -6   8 102.389 23.5385   3
   0  -6  -8 114.820 13.0122   3
   0   6  -8 130.861 21.1616   3
  -1  -6  -8 147.010 15.9461   3
   1   6  -8 138.700 17.2067   4
   1  -6   8 157.275 29.0674   3
   1   6  -8 147.965 16.6356   3
   1  -6   8 118.171 22.7815   4
  -1  -6   8 169.570 20.9454   4
  -1   6  -8 173.328 21.3826   4
  -1   6  -8 151.696 26.7334   3
   1  -6  -8 132.634 14.6582   3
   1  -6  -8 143.902 17.7293   4
  -1  -6   8 123.980 25.8383   3
   1  -6  -8 152.422 33.0206   3
   2  -6   8 78.8201 23.6828   4
   2  -6   8 129.900 26.0486   3
  -2  -6  -8 95.3193 12.3792   3
   2   6  -8 114.822 13.2427   3
  -2   6  -8 75.9518 18.1304   3
  -2  -6   8 85.3055 17.3067   4
   2  -6  -8 81.1391 23.8133   3
   2  -6  -8 78.8291 13.6747   3
  -2  -6   8 89.3541 20.0542   3
  -2   6  -8 123.905 25.2735   4
   2  -6  -8 101.395 17.1430   4
  -3  -6  -8 129.914 13.7914   3
   3  -6   8 136.257 28.8708   4
   3   6  -8 111.377 12.3387   3
   3  -6   8 96.5415 22.9657   3
   3  -6  -8 98.7460 24.3924   3
   3  -6  -8 121.440 15.6074   4
  -3  -6   8 112.414 24.9484   3
  -3   6  -8 129.154 23.5493   3
   3  -6  -8 144.900 14.8214   3
  -3   6  -8 99.2764 19.1069   4
   4  -6   8 83.3500 23.6235   3
  -4  -6  -8 53.7822 11.1451   3
  -4   6  -8 80.8087 20.7051   4
  -4  -6   8 121.838 22.9381   3
   4  -6  -8 63.3119 15.4215   4
   4  -6  -8 52.0932 19.0935   3
   0  -7  -8 8.52407 6.39780   4
   0   7  -8 -3.3508 4.88232   4
   0  -7   8 1.86771 9.26909   3
   0   7  -8 3.17657 5.36579   3
   0  -7   8 18.5283 11.7405   4
   0  -7  -8 2.34049 4.94367   3
   1  -7   8 62.7719 18.6088   3
  -1  -7  -8 60.9814 11.4531   3
   1   7  -8 65.5998 21.0235   3
   1  -7   8 67.0406 19.4115   4
   1   7  -8 39.8255 12.2416   4
  -1   7  -8 53.5349 12.0666   3
  -1   7  -8 44.7246 13.3329   4
  -1  -7   8 56.8366 16.5933   4
   1  -7  -8 60.0865 11.9563   3
  -1  -7   8 86.2296 19.8778   3
   2  -7   8 28.2030 9.71525   3
  -2  -7  -8 19.7544 5.63113   3
   2   7  -8 -0.3885 5.41534   3
   2  -7  -8 5.56088 6.63116   3
   2  -7  -8 -13.685 10.6464   3
  -2   7  -8 7.00166 10.5953   4
  -2  -7   8 -5.4389 7.21670   3
   2  -7  -8 5.47637 8.74921   4
  -2  -7   8 31.6588 11.9387   4
   3   7  -8 30.1669 8.79424   3
  -3  -7  -8 22.5792 11.0680   3
   3  -7   8 68.2017 20.1914   3
  -3   7  -8 44.4015 15.8839   4
   3  -7  -8 45.7139 10.9867   3
  -3  -7   8 64.3747 15.8030   3
   3  -7  -8 66.0102 16.8828   4
   3  -7  -8 11.3569 16.9514   3
   0  -8  -8 302.731 24.8770   3
   0  -8   8 212.894 37.3655   4
   0  -8   8 292.421 35.0735   3
   0   8  -8 247.977 26.4191   4
  -1  -8  -8 6.44722 6.97920   3
   1   8  -8 -11.984 5.41057   4
   1   8  -8 -10.593 6.10742   3
   1  -8   8 16.1447 14.9072   3
   1  -8  -8 -1.0693 5.88490   3
  -1   8  -8 5.96521 8.26777   4
  -1  -8   8 4.18085 9.05128   3
  -1  -8   8 14.5809 13.7046   4
   2   8  -8 129.797 17.8648   3
   2  -8   8 125.710 32.9493   3
  -2  -8   8 153.195 29.9939   3
   0   0   9 0.15741 3.74091   3
   0   0  -9 0.04474 3.66636   4
   0   0  -9 -3.1585 4.64138   3
  -1   0   9 661.377 48.6934   3
   1   0  -9 756.490 45.3592   3
  -1   0  -9 712.195 49.5087   3
   1   0  -9 715.724 35.6389   4
   1   0   9 722.673 50.3239   3
  -1   0  -9 778.413 46.5411   4
  -2   0   9 2.79886 4.90165   3
   2   0  -9 -1.0346 2.51127   4
  -2   0  -9 1.57466 7.79646   3
  -2   0  -9 -2.5815 4.53268   4
   3   0  -9 389.027 25.9833   3
  -3   0   9 439.486 39.6769   3
  -3   0  -9 360.118 37.0668   4
  -3   0  -9 363.559 36.4058   3
  -4   0  -9 1.01028 6.80321   4
  -4   0  -9 15.7452 8.05978   3
  -5   0  -9 131.176 30.6536   4
  -5   0   9 174.318 22.9431   3
  -5   0  -9 118.850 28.8096   3
  -6   0  -9 22.2282 14.6023   3
  -6   0  -9 5.92412 9.51296   4
   0  -1   9 52.7734 14.1613   3
   0   1  -9 71.6013 18.3924   3
   0  -1  -9 93.8971 18.9464   4
   0  -1  -9 73.9091 20.1971   3
   0   1  -9 46.4473 12.6041   4
   1  -1   9 658.366 48.3122   3
   1   1  -9 668.011 33.5090   4
  -1  -1  -9 594.299 47.1810   3
   1   1  -9 649.295 39.2215   3
  -1  -1  -9 667.968 42.9600   4
  -1   1  -9 693.112 45.6566   3
   1  -1  -9 630.137 34.7342   4
  -1   1  -9 651.537 42.6016   4
   1  -1  -9 568.378 42.6822   3
  -1  -1   9 729.984 51.7295   3
  -2  -1  -9 37.5277 13.6165   4
   2  -1   9 28.3456 12.8546   3
  -2  -1  -9 21.5094 12.6020   3
   2   1  -9 40.1539 7.74308   4
  -2   1  -9 39.1622 14.0000   3
  -2   1  -9 36.7419 11.5118   4
  -2  -1   9 22.2161 10.4175   3
   2  -1  -9 45.6316 9.75417   4
   2  -1  -9 25.3805 10.8215   3
  -3  -1  -9 87.2161 21.8146   4
   3   1  -9 117.287 12.9486   3
  -3  -1  -9 161.261 31.3766   3
  -3  -1   9 110.532 24.6598   3
   3  -1  -9 120.226 16.2667   3
   3  -1  -9 107.411 9.84842   3
  -3   1  -9 97.2160 24.4618   4
  -3   1  -9 116.533 23.2726   3
  -4  -1  -9 10.5391 10.6725   4
  -4  -1  -9 28.0620 12.9529   3
  -4   1  -9 17.2733 10.0006   3
   4  -1  -9 15.7144 6.74659   3
  -4   1  -9 29.2478 15.4936   4
  -5  -1  -9 98.9117 23.9919   3
  -5  -1  -9 134.147 32.5430   4
  -5   1  -9 94.7729 26.1799   4
  -5   1  -9 103.587 25.9746   3
  -5  -1   9 100.237 20.8542   3
  -6  -1  -9 116.901 25.2166   3
  -6  -1  -9 44.4915 14.3117   4
  -6   1  -9 20.9154 11.9890   3
  -6   1  -9 58.2330 16.2314   4
  -6  -1   9 51.1208 16.8364   3
   0  -2   9 450.502 41.1083   3
   0   2  -9 447.852 32.9448   3
   0   2  -9 422.921 29.8423   4
  -1  -2  -9 513.659 44.7350   3
   1   2  -9 491.279 32.3984   3
   1  -2   9 503.662 40.7935   3
   1   2  -9 454.408 26.9917   4
   1  -2  -9 505.993 42.2723   3
  -1   2  -9 472.961 35.3479   3
  -1  -2   9 507.133 42.8799   3
  -1   2  -9 503.029 36.2158   4
   2   2  -9 205.930 19.7065   3
  -2  -2  -9 205.746 34.8020   3
  -2  -2  -9 220.554 40.4889   4
   2   2  -9 251.193 15.4685   4
   2  -2   9 263.266 29.7015   3
  -2  -2   9 247.796 30.3847   3
  -2   2  -9 233.045 28.1410   4
   2  -2  -9 250.934 28.3544   3
   2  -2  -9 249.980 16.0580   3
  -2   2  -9 230.829 25.6446   3
  -3  -2  -9 224.699 28.7836   4
   3  -2   9 208.650 27.5089   3
   3   2  -9 203.928 16.1027   3
  -3  -2  -9 228.604 31.2942   3
   3  -2  -9 229.684 13.1125   4
  -3  -2   9 289.007 47.5775   3
   3  -2  -9 237.926 15.4854   3
  -3   2  -9 255.683 28.1351   3
  -3   2  -9 232.273 28.9023   4
  -4  -2  -9 216.385 30.2319   4
  -4  -2  -9 240.163 33.0486   3
  -4  -2   9 216.502 27.9983   3
   4  -2  -9 207.940 19.3342   3
  -4   2  -9 139.483 26.0519   4
   4  -2  -9 218.628 13.2362   3
  -4   2  -9 209.147 25.7704   3
  -5  -2  -9 97.2467 24.4895   3
  -5  -2  -9 50.7266 17.2070   4
  -5  -2   9 49.2211 17.4556   3
  -5   2  -9 36.3421 16.1652   4
  -6  -2  -9 160.164 37.6398   4
  -6  -2  -9 171.286 33.7273   3
  -6  -2   9 103.810 22.4985   3
  -6   2  -9 143.837 31.7649   4
  -6   2  -9 107.177 25.1655   3
   0  -3  -9 246.891 40.0076   3
   0   3  -9 221.129 21.2990   4
   0   3  -9 248.199 23.7466   3
   0  -3   9 231.634 23.5176   4
   1   3  -9 137.868 14.6888   4
   1   3  -9 123.035 15.5172   3
   1  -3   9 130.610 23.1079   4
  -1  -3  -9 157.232 33.1614   3
   1  -3   9 151.470 34.6446   3
  -1  -3   9 160.741 17.5375   4
  -1   3  -9 124.429 22.1635   3
   1  -3  -9 127.505 27.8192   3
  -1   3  -9 119.660 22.1725   4
  -2  -3  -9 169.438 33.7414   3
   2   3  -9 185.513 14.0725   4
   2  -3   9 166.347 22.9981   4
   2   3  -9 173.427 16.7984   3
   2  -3   9 187.921 32.1829   3
   2  -3  -9 172.842 14.7565   4
  -2  -3   9 193.699 26.0173   3
   2  -3  -9 183.259 30.8796   3
   2  -3  -9 192.806 15.0176   3
  -2   3  -9 179.992 23.3981   3
  -2   3  -9 165.079 22.6850   4
   3  -3   9 2.45229 8.92631   3
  -3  -3  -9 25.8661 14.8563   3
   3   3  -9 21.9052 6.91168   3
   3  -3  -9 15.6292 4.92090   3
  -3   3  -9 24.1800 8.39089   3
  -3  -3   9 15.3175 9.84729   3
   3  -3  -9 -3.8673 8.40775   3
   3  -3  -9 24.0233 6.65717   4
  -3   3  -9 6.45864 9.43544   4
  -4  -3  -9 80.1767 23.3903   4
  -4  -3  -9 70.4232 22.9956   3
   4  -3   9 66.8577 16.8466   3
  -4   3  -9 75.1641 17.1341   3
  -4  -3   9 84.4261 25.2538   3
   4  -3  -9 74.6649 15.1039   3
   4  -3  -9 74.4092 9.58767   3
  -4   3  -9 74.5656 24.1054   4
  -5  -3  -9 16.2315 10.7423   4
  -5  -3   9 17.2971 10.4195   3
  -5   3  -9 12.9982 12.1242   4
  -5   3  -9 37.8054 12.9858   3
   0  -4  -9 118.434 27.4482   3
   0   4  -9 109.865 15.3563   4
   0  -4   9 98.9106 23.6502   3
   0  -4  -9 135.106 12.9900   3
   0  -4   9 149.578 18.9192   4
   0   4  -9 142.463 17.5014   3
   1  -4   9 53.9063 16.6566   3
   1   4  -9 87.8839 15.8965   4
  -1  -4  -9 73.8963 21.2325   3
   1  -4   9 127.179 26.3476   4
   1   4  -9 78.8258 14.7283   3
  -1  -4   9 82.0111 15.7507   4
  -1   4  -9 62.3553 24.5937   4
   1  -4  -9 96.3060 23.5987   3
   1  -4  -9 70.0418 12.1329   3
  -1   4  -9 88.9075 18.3578   3
  -1  -4   9 73.3256 20.3997   3
   2   4  -9 71.9155 11.9904   4
   2   4  -9 72.7612 13.3770   3
   2  -4   9 80.4432 19.2503   4
   2  -4   9 56.7855 18.8776   3
  -2  -4  -9 43.0516 16.8033   3
  -2   4  -9 50.3564 16.1121   3
   2  -4  -9 42.7741 10.2460   4
  -2  -4   9 71.3009 16.8670   3
  -2  -4   9 75.9338 14.5356   4
   2  -4  -9 60.0184 20.3744   3
   2  -4  -9 42.2589 14.0664   3
  -2   4  -9 51.7384 15.8786   4
   3  -4   9 79.2427 20.1105   3
  -3  -4  -9 59.4433 19.6856   3
   3   4  -9 87.5630 14.7673   3
  -3   4  -9 91.2479 24.9438   4
  -3  -4   9 77.6570 20.5764   3
  -3  -4   9 80.7244 10.5102   4
   3  -4  -9 83.8527 13.5395   3
   3  -4  -9 57.1985 17.7559   3
   3  -4  -9 85.3769 10.4732   4
  -3   4  -9 93.1218 22.3099   3
   4  -4   9 60.7468 24.5800   4
   4  -4   9 114.034 23.1666   3
   4  -4  -9 108.859 11.8888   3
   4  -4  -9 110.790 22.1294   3
  -4   4  -9 200.592 38.8631   4
  -4  -4   9 119.924 27.6957   3
   4  -4  -9 137.640 14.4279   4
  -4   4  -9 165.961 29.7222   3
  -5  -4  -9 44.2183 15.1599   4
  -5  -4  -9 49.9286 22.0408   3
  -5  -4   9 74.6268 19.0729   3
  -5   4  -9 72.7512 25.2413   4
   0   5  -9 87.3627 16.0719   3
   0  -5  -9 75.1938 23.8108   3
   0  -5  -9 77.8048 13.3132   3
   0  -5   9 94.4791 22.5156   4
   0  -5   9 70.1039 18.6156   3
  -1  -5  -9 41.2138 8.51952   3
   1   5  -9 22.6845 8.97935   3
   1  -5   9 26.3094 11.0395   4
   1  -5   9 42.0294 17.1961   3
   1   5  -9 49.6684 11.9614   4
  -1  -5  -9 32.7631 13.7514   3
   1  -5  -9 15.2774 13.7183   3
  -1   5  -9 41.3882 13.8373   4
  -1  -5   9 37.4942 10.7122   4
  -1  -5   9 41.9049 17.5303   3
   1  -5  -9 41.6456 8.47907   3
  -1   5  -9 36.0330 12.4471   3
   2   5  -9 81.2987 14.2524   3
   2  -5   9 128.206 28.2796   3
   2   5  -9 85.2384 15.1031   4
   2  -5   9 105.956 25.5121   4
  -2  -5   9 85.2310 19.3141   3
   2  -5  -9 81.1006 22.2556   3
   2  -5  -9 87.5721 15.2362   4
  -2   5  -9 118.684 25.7349   4
  -2   5  -9 120.744 22.2165   3
   2  -5  -9 94.7875 12.3452   3
  -2  -5   9 116.133 20.3349   4
   3  -5   9 48.9148 17.1692   3
  -3  -5  -9 6.20820 13.2035   3
   3   5  -9 28.2913 7.97088   3
   3  -5   9 25.5524 14.7073   4
   3  -5  -9 21.8316 6.14755   3
   3  -5  -9 19.0505 13.9502   3
   3  -5  -9 32.4215 8.99425   4
  -3  -5   9 33.5424 13.4371   3
  -3   5  -9 14.7976 8.60378   4
  -3   5  -9 31.4330 12.9330   3
  -4  -5  -9 45.9344 21.3519   3
   4  -5   9 40.8213 15.2790   3
  -4  -5   9 51.2104 16.7999   3
   4  -5  -9 44.3909 16.2383   3
   4  -5  -9 25.1902 8.31161   3
  -4   5  -9 47.7056 13.5416   4
   0  -6  -9 24.6433 7.73540   3
   0  -6   9 51.3870 16.6211   4
   0  -6   9 3.72753 10.6226   3
   0   6  -9 26.0815 7.57025   3
   0  -6  -9 34.1889 14.4679   3
   0   6  -9 23.3037 9.44135   4
   1  -6   9 8.09038 9.34433   3
   1   6  -9 0.67333 5.18827   3
   1  -6   9 13.4668 11.4649   4
   1   6  -9 -8.5858 3.66739   4
  -1  -6  -9 4.01719 3.08650   3
  -1   6  -9 -5.8900 4.62890   3
   1  -6  -9 -5.8486 4.59326   4
  -1  -6   9 15.6645 7.09003   3
   1  -6  -9 3.11323 4.15709   3
  -1  -6   9 18.5221 7.07235   4
   1  -6  -9 23.6897 11.6008   3
  -2  -6  -9 3.88198 5.05184   3
   2  -6   9 28.2443 13.5169   3
   2  -6   9 2.25264 10.1377   4
   2   6  -9 8.01865 6.38837   3
   2   6  -9 8.87495 6.22402   4
   2  -6  -9 1.88149 4.44980   3
  -2   6  -9 8.78076 7.19319   3
   2  -6  -9 19.5985 7.07258   4
  -2  -6   9 36.5597 10.1525   4
  -2  -6   9 -2.3303 8.08250   3
   2  -6  -9 17.4662 11.9247   3
  -2   6  -9 27.9147 8.90920   4
   3  -6   9 -18.736 10.5982   3
  -3  -6  -9 14.7234 5.18419   3
   3   6  -9 1.09743 5.74760   3
  -3  -6   9 4.50293 9.99701   3
  -3   6  -9 3.61297 6.24254   4
   3  -6  -9 26.6280 14.0879   3
  -3  -6   9 26.3761 11.9458   4
   3  -6  -9 8.66467 7.97131   4
   3  -6  -9 6.76417 5.07663   3
  -4  -6  -9 41.2367 9.34539   3
   4  -6   9 56.1681 22.5873   3
   4  -6  -9 62.6551 23.1690   3
  -4   6  -9 88.4531 21.9542   4
   4  -6  -9 35.7676 15.1305   4
  -4  -6   9 74.7422 19.7103   3
   4  -6  -9 37.9696 10.7719   3
   0  -7   9 6.59672 10.7386   3
   0   7  -9 -4.3884 7.07030   3
   0  -7  -9 7.41561 5.23202   3
   0  -7  -9 -1.0311 5.59219   4
   0  -7   9 8.72561 9.68596   4
   0   7  -9 1.01028 7.39898   4
   1   7  -9 78.5609 17.4556   4
   1  -7   9 77.8875 22.6504   4
   1   7  -9 83.0699 15.8952   3
   1  -7   9 77.8007 25.1163   3
  -1   7  -9 61.3261 17.2545   4
   1  -7  -9 50.5088 13.4316   4
   1  -7  -9 65.4490 13.2260   3
  -1  -7   9 74.4992 18.2430   4
   2  -7   9 -2.4490 12.3888   3
  -2  -7  -9 21.7617 8.87125   3
   2   7  -9 14.1232 7.29920   3
   2  -7  -9 10.6914 6.20426   3
   2  -7  -9 -7.9875 7.37680   4
  -2  -7   9 -20.225 8.69172   3
  -2   7  -9 30.0739 21.3868   4
  -2  -7   9 3.89120 8.74973   4
  -3  -7  -9 31.1702 9.19811   3
   3  -7   9 36.2666 18.6783   3
   3   7  -9 20.9301 9.83712   3
   3  -7  -9 41.7144 18.8366   4
   3  -7  -9 57.4065 11.8505   3
  -3   7  -9 37.5798 11.7623   4
   3  -7  -9 19.2186 19.2684   3
  -3  -7   9 56.2434 16.0353   4
  -3  -7   9 34.7255 14.7545   3
   0  -8  -9 23.8962 7.16798   3
   0   8  -9 3.38631 5.93093   4
   0  -8   9 -6.7862 12.5900   3
   1   8  -9 151.982 21.3967   4
   1  -8   9 123.890 30.9078   3
  -1  -8   9 224.170 28.3640   4
   1  -8  -9 168.778 19.5103   3
  -1  -8   9 96.2216 42.1207   3
  -1   8  -9 173.534 22.2885   4
   0   0 -10 -4.2983 3.85508   4
   0   0 -10 3.90258 7.30216   3
  -1   0 -10 -0.3442 5.15294   4
   1   0 -10 -5.7183 5.46623   3
   1   0 -10 2.12038 4.31210   4
  -1   0 -10 17.6172 7.28583   3
  -1   0  10 -8.5086 5.00271   3
   2   0 -10 68.5831 16.6651   3
  -2   0 -10 124.904 28.4454   3
  -2   0  10 73.2707 20.6740   3
  -2   0 -10 57.6876 16.5298   4
   2   0 -10 77.5875 12.7074   4
  -3   0 -10 7.80086 6.26777   3
  -3   0 -10 -3.5187 7.36485   4
   3   0 -10 6.77267 10.2226   3
  -3   0  10 7.90749 8.20818   3
  -4   0  10 -3.1680 9.74390   3
  -4   0 -10 10.8627 9.97851   4
   4   0 -10 5.47555 4.97363   3
   4   0 -10 4.54444 3.24824   3
  -4   0 -10 33.2970 13.6818   3
  -5   0  10 -3.0680 8.00135   3
  -5   0 -10 5.52039 9.88517   4
   0   1 -10 649.005 40.3997   4
   0  -1 -10 740.653 43.9634   4
   0  -1  10 717.728 64.0551   3
   0   1 -10 745.398 48.6424   3
   0  -1 -10 652.615 50.1804   3
  -1  -1 -10 1.71889 5.45198   3
   1   1 -10 -7.7464 4.89369   3
   1   1 -10 11.5011 6.47749   4
  -1  -1 -10 7.17516 5.76178   4
  -1   1 -10 12.8969 8.59448   3
   1  -1 -10 12.1574 8.18937   3
   1  -1 -10 -0.8539 4.85024   4
  -1  -1  10 -2.3771 6.23652   3
   2   1 -10 445.550 22.9058   4
  -2  -1 -10 425.540 38.4060   4
  -2  -1 -10 416.373 42.8046   3
   2   1 -10 443.824 31.6978   3
   2  -1  10 410.336 39.9167   3
  -2   1 -10 431.196 38.8471   3
   2  -1 -10 440.317 36.1444   3
  -2   1 -10 440.298 38.9161   4
  -2  -1  10 497.293 45.2143   3
   2  -1 -10 431.161 26.0264   4
  -3  -1 -10 3.41220 10.3948   4
  -3  -1 -10 9.15790 10.0536   3
   3  -1 -10 -2.7796 6.48486   3
  -3   1 -10 -6.7929 5.98247   4
   3  -1 -10 4.21844 2.79390   3
  -3   1 -10 3.59593 8.59977   3
  -3  -1  10 14.0540 9.00962   3
   4   1 -10 83.8901 8.76601   3
  -4  -1 -10 92.1740 25.3719   4
  -4  -1 -10 58.3671 21.7371   3
   4  -1 -10 102.958 14.8909   3
  -4   1 -10 136.030 29.0445   3
   4  -1 -10 103.788 9.04443   3
  -4  -1  10 70.8311 22.7919   3
  -4   1 -10 111.382 29.6478   4
  -5  -1 -10 14.3149 11.0754   4
  -5  -1 -10 46.5304 18.2489   3
  -5   1 -10 15.3522 8.55434   4
  -5  -1  10 -5.9815 10.9571   3
  -5   1 -10 28.2075 16.8116   3
   0  -2  10 81.0206 20.2348   3
   0   2 -10 79.7266 18.0613   4
   0  -2 -10 64.4601 19.9678   3
   0   2 -10 106.253 22.2218   3
  -1  -2 -10 0.88453 7.29835   3
   1  -2  10 -5.7068 9.23340   3
   1   2 -10 3.58296 5.82962   3
  -1  -2 -10 5.78163 6.48808   4
   1   2 -10 6.18357 5.25585   4
  -1  -2  10 15.6680 9.39355   3
  -1   2 -10 11.2280 8.04396   4
  -1   2 -10 6.19359 5.30946   3
   1  -2 -10 -16.849 6.78940   3
   2   2 -10 -2.2561 4.51023   3
   2  -2  10 1.06382 6.51203   3
   2   2 -10 0.40838 3.27160   4
  -2  -2 -10 5.89697 7.42375   4
  -2  -2 -10 8.59760 7.28238   3
  -2   2 -10 2.56500 6.14754   4
  -2   2 -10 7.53140 5.69613   3
   2  -2 -10 2.52761 3.73411   4
   2  -2 -10 -9.7251 7.86326   3
   2  -2 -10 4.13219 3.30583   3
  -2  -2  10 -4.0524 5.83624   3
  -3  -2 -10 9.13450 7.88725   4
   3  -2  10 12.2679 10.6903   3
  -3  -2 -10 21.3223 11.0602   3
  -3  -2  10 -1.6590 11.2159   3
   3  -2 -10 16.7948 4.88079   4
  -3   2 -10 22.7856 10.1906   3
   3  -2 -10 10.4306 10.3310   3
   3  -2 -10 18.1245 5.20208   3
  -3   2 -10 12.1138 11.1048   4
  -4  -2 -10 24.8274 18.2525   3
  -4  -2 -10 56.4398 20.1565   4
  -4   2 -10 56.6365 17.6160   3
  -4  -2  10 51.3812 20.0715   3
   4  -2 -10 33.0148 7.41335   3
   4  -2 -10 41.8159 11.0731   3
  -4   2 -10 20.3160 12.2792   4
  -5  -2 -10 42.1710 15.8866   3
  -5  -2  10 28.4110 11.6768   3
  -5   2 -10 33.2250 14.5560   3
  -5   2 -10 -4.4490 8.18857   4
   0   3 -10 140.483 18.8971   3
   0  -3  10 161.685 30.8022   3
   0   3 -10 133.915 18.4682   4
   0  -3 -10 140.295 29.1866   3
   1   3 -10 331.747 24.2750   4
   1  -3  10 310.259 35.8374   3
  -1  -3 -10 381.393 39.6853   3
   1   3 -10 357.426 28.8548   3
  -1   3 -10 296.686 29.5689   3
  -1  -3  10 312.413 36.6717   3
   1  -3 -10 362.840 37.6542   3
  -1   3 -10 287.433 39.9337   4
  -2  -3 -10 93.7249 25.3238   3
   2   3 -10 93.2713 11.2347   4
   2  -3  10 100.094 23.6726   3
   2   3 -10 101.894 17.1470   3
  -2  -3  10 106.275 27.2130   3
   2  -3 -10 133.348 26.2570   3
  -2   3 -10 56.9776 13.9916   4
  -2   3 -10 159.772 28.1812   3
   2  -3 -10 98.0110 11.6780   3
  -3  -3 -10 156.725 27.7590   4
   3   3 -10 160.601 15.9535   3
  -3  -3 -10 108.432 30.3537   3
   3  -3  10 160.279 29.0192   3
  -3   3 -10 164.799 31.7777   4
   3  -3 -10 181.059 30.1600   3
  -3   3 -10 183.579 47.0037   3
   3  -3 -10 170.160 13.6042   4
  -3  -3  10 167.008 31.6164   3
   3  -3 -10 166.562 13.9786   3
  -4  -3 -10 -9.6774 14.8978   3
  -4  -3 -10 40.4789 14.0016   4
  -4   3 -10 20.5704 11.8551   3
  -4   3 -10 8.65426 7.91425   4
  -4  -3  10 -0.0636 10.5862   3
   4  -3 -10 4.41040 4.37200   3
   4  -3 -10 -7.9181 8.10695   3
  -5  -3 -10 294.481 37.6246   3
  -5  -3 -10 135.030 28.2331   4
  -5  -3  10 186.007 32.5192   3
  -5   3 -10 248.210 28.3806   4
   0  -4 -10 22.4837 11.2741   3
   0   4 -10 7.43630 5.86111   4
   0  -4  10 13.4645 7.64256   4
   0   4 -10 12.9425 6.56748   3
   0  -4  10 29.8158 11.8469   3
   1  -4  10 22.4507 16.7177   3
   1   4 -10 81.9778 16.8465   3
   1  -4  10 62.6055 14.1936   4
  -1  -4 -10 46.3094 20.4068   3
   1   4 -10 51.3136 12.3044   4
  -1   4 -10 71.4492 17.7510   3
  -1  -4  10 49.3290 17.5297   3
   1  -4 -10 65.2425 11.6989   3
  -1   4 -10 55.4711 16.0614   4
   1  -4 -10 63.3007 22.7950   3
  -1  -4  10 56.1875 15.6845   4
   2   4 -10 53.1243 11.4239   4
   2  -4  10 83.8853 24.3584   3
   2   4 -10 64.0670 13.0273   3
   2  -4  10 36.9500 12.7419   4
  -2   4 -10 80.8070 19.0133   3
  -2  -4  10 65.4321 18.3709   3
  -2  -4  10 60.3889 12.7086   4
  -2   4 -10 40.9635 13.8805   4
   2  -4 -10 54.1545 11.0896   4
   2  -4 -10 46.8719 19.7367   3
   2  -4 -10 57.6209 10.8916   3
   3  -4  10 15.0651 12.7941   4
  -3  -4 -10 27.6902 19.3470   3
   3   4 -10 29.5291 9.47991   3
   3  -4  10 28.2130 16.8709   3
  -3   4 -10 59.4608 17.4046   3
   3  -4 -10 44.2972 9.17205   4
   3  -4 -10 70.6479 16.1573   3
  -3  -4  10 64.7204 16.9546   3
  -3   4 -10 41.5167 16.5138   4
   3  -4 -10 34.2224 8.46313   3
   4  -4  10 10.5024 9.39194   3
  -4  -4 -10 2.66911 7.68420   4
  -4  -4 -10 -24.537 15.2135   3
   4  -4 -10 3.15365 5.33848   4
  -4  -4  10 17.8529 10.6063   3
   4  -4 -10 -6.2961 13.1208   3
   4  -4 -10 -1.9942 4.88624   3
  -4   4 -10 -9.6187 8.04550   4
   0  -5 -10 9.52927 5.85778   3
   0  -5 -10 -10.180 9.02909   3
   0  -5  10 23.4852 13.1066   3
   0   5 -10 3.63302 3.96733   4
   0  -5  10 18.7820 8.04004   4
  -1  -5 -10 87.2355 11.0319   3
  -1  -5 -10 86.8745 27.3467   3
   1  -5  10 47.3420 14.3139   4
   1  -5  10 80.4302 25.2321   3
   1   5 -10 107.427 18.2669   3
   1   5 -10 86.7631 16.8519   4
  -1   5 -10 91.8766 21.0296   4
  -1  -5  10 84.2057 22.9563   3
   1  -5 -10 85.7128 11.7447   3
   1  -5 -10 97.4230 21.5412   3
  -1   5 -10 76.9965 17.7543   3
  -1  -5  10 137.256 17.2148   4
  -2  -5 -10 21.9378 10.0159   3
   2   5 -10 -5.0029 4.80780   4
   2  -5  10 22.8322 10.3890   3
   2  -5  10 -0.4488 5.34636   4
   2   5 -10 -11.445 6.02230   3
  -2   5 -10 26.8372 9.97415   3
  -2   5 -10 4.64010 9.07151   4
  -2  -5  10 -8.5828 9.80905   4
   2  -5 -10 3.13893 4.82321   3
   2  -5 -10 15.4111 17.5235   3
  -2  -5  10 24.3904 9.59723   3
   2  -5 -10 3.98575 3.90524   4
   3  -5  10 37.9777 20.7333   3
   3   5 -10 53.2103 11.4424   3
  -3  -5  10 101.095 21.7985   3
  -3   5 -10 68.0414 18.3300   4
   3  -5 -10 59.7282 12.5390   3
   3  -5 -10 80.4467 14.3029   4
   3  -5 -10 38.5853 20.1932   3
   4  -5  10 -14.382 12.9081   3
   4  -5 -10 -14.553 15.0285   3
  -4  -5  10 27.2947 13.5216   3
  -4   5 -10 25.4324 12.0698   4
   4  -5 -10 1.13198 8.15609   3
   0   6 -10 9.43273 6.80272   4
   0  -6  10 6.66832 10.5123   3
   0  -6  10 40.5177 13.1049   4
   0   6 -10 13.3004 6.76869   3
   0  -6 -10 10.9243 5.91229   3
   1   6 -10 10.3394 8.20615   3
   1  -6  10 14.4265 14.3102   3
   1   6 -10 15.7438 7.11832   4
  -1  -6 -10 15.5173 6.22737   3
   1  -6  10 -2.2925 12.2776   4
  -1  -6  10 24.4629 10.5270   3
  -1  -6  10 15.2283 11.1170   4
   1  -6 -10 5.32155 7.25870   4
   1  -6 -10 5.16567 4.78817   3
  -1   6 -10 13.2248 8.15007   4
   1  -6 -10 11.1298 14.1397   3
   2  -6  10 4.83235 16.4576   3
  -2  -6 -10 38.1499 12.2783   3
   2   6 -10 17.2635 8.28189   4
   2   6 -10 10.0292 8.22719   3
   2  -6 -10 29.9085 9.22519   3
   2  -6 -10 36.2480 17.4846   3
  -2  -6  10 59.6096 12.1369   4
   2  -6 -10 24.7333 9.68131   4
  -2   6 -10 36.2615 13.9043   4
   3   6 -10 2.56414 6.53608   3
   3  -6  10 51.9062 15.2586   3
  -3  -6 -10 22.2842 8.70572   3
   3  -6 -10 16.5266 8.14191   3
  -3  -6  10 19.8341 13.2709   3
   3  -6 -10 13.6121 10.3121   4
  -3  -6  10 22.9558 8.04114   4
  -3   6 -10 3.41319 8.04997   4
   3  -6 -10 17.6332 19.2737   3
   0   7 -10 120.167 20.9913   4
   0  -7 -10 160.311 17.2836   3
   0  -7  10 174.517 36.0562   3
   0  -7  10 138.268 28.4166   4
   1   7 -10 104.896 21.5391   4
   1  -7  10 108.806 26.7958   3
  -1  -7 -10 70.9179 14.2989   3
  -1  -7  10 115.925 24.9781   4
  -1  -7  10 99.1230 26.3716   3
   1  -7 -10 121.792 19.3721   3
  -1   7 -10 67.7870 18.0833   4
   1  -7 -10 89.9797 19.4812   4
   2   7 -10 68.6439 15.0099   3
   2  -7  10 59.4664 24.3122   3
  -2  -7 -10 93.3639 16.8197   3
  -2   7 -10 100.310 20.4399   4
   2  -7 -10 90.5279 24.4273   3
   2  -7 -10 102.445 20.2765   4
  -2  -7  10 80.4771 21.0155   4
  -2  -7  10 83.8091 23.1633   3
   0   0 -11 -7.8130 5.53255   4
   0   0  11 7.85838 8.61622   3
   0   0 -11 11.7747 9.16978   3
   1   0 -11 183.608 30.2354   3
   1   0 -11 158.371 19.2672   4
  -1   0  11 169.512 33.4549   3
  -1   0 -11 211.215 28.4898   3
  -2   0 -11 5.95885 6.57162   4
  -2   0 -11 7.65763 7.54851   3
   2   0 -11 -4.5895 3.52708   4
  -2   0  11 1.58805 7.04124   3
   2   0 -11 -5.9653 6.13439   3
   3   0 -11 117.476 20.0683   3
  -3   0 -11 71.3018 20.5755   4
  -3   0 -11 100.016 27.3565   3
  -3   0  11 47.3368 20.4178   3
  -4   0  11 4.55773 10.3992   3
   4   0 -11 -7.3117 5.34410   3
  -4   0 -11 10.8115 7.14483   4
  -4   0 -11 5.84948 11.8845   3
  -5   0 -11 86.0942 25.0830   4
   0   1 -11 18.8374 7.75709   3
   0  -1  11 3.77806 8.10609   3
   0  -1 -11 -7.5303 6.33694   3
   0  -1 -11 -3.4773 5.15854   4
   0   1 -11 2.21242 6.43790   4
   1   1 -11 97.6444 16.9330   4
   1   1 -11 85.4968 20.3166   3
  -1  -1 -11 68.3848 17.6525   4
  -1  -1 -11 36.5198 15.4047   3
   1  -1  11 56.5783 18.6500   3
  -1   1 -11 105.575 24.7240   3
   1  -1 -11 71.9185 15.2358   4
  -1  -1  11 61.1618 19.0944   3
   1  -1 -11 70.5024 18.8958   3
  -1   1 -11 89.0887 24.2373   4
   2   1 -11 23.6640 8.00783   4
  -2  -1 -11 28.7928 14.7174   3
   2   1 -11 14.9698 10.0409   3
  -2  -1 -11 18.7859 9.85708   4
   2  -1 -11 18.2857 7.66933   4
   2  -1 -11 11.4179 8.54769   3
  -2   1 -11 23.0957 10.9532   4
  -2   1 -11 -0.1909 9.21877   3
  -2  -1  11 1.96632 10.0248   3
  -3  -1 -11 10.9476 8.76695   4
  -3  -1 -11 27.2413 12.7975   3
   3   1 -11 -7.0725 6.25812   3
   3  -1 -11 -7.8836 7.81193   3
   3  -1 -11 5.09130 3.32743   3
  -3   1 -11 -7.2691 8.96603   3
  -3   1 -11 14.3061 9.52316   4
  -3  -1  11 11.6958 10.1166   3
  -4  -1 -11 9.29650 8.23129   4
   4   1 -11 12.8179 6.19882   3
   4   1 -11 16.4132 4.65475   3
  -4  -1 -11 27.0754 12.1478   3
   4  -1 -11 11.4530 5.52001   3
  -4   1 -11 -8.2751 9.24337   4
   4  -1 -11 4.87026 6.65227   3
  -4  -1  11 -11.200 11.7442   3
  -4   1 -11 9.66664 11.7904   3
  -5  -1 -11 79.5350 20.5312   4
  -5  -1  11 101.319 21.0579   3
  -5   1 -11 54.6940 18.9358   4
   0   2 -11 4.44302 6.23225   4
   0  -2  11 23.0480 13.7105   3
   0  -2 -11 13.1445 9.02326   4
   0  -2 -11 -5.6580 11.0795   3
   0   2 -11 27.6006 12.5056   3
  -1  -2 -11 311.482 33.1887   4
   1   2 -11 272.651 22.8812   4
   1  -2  11 226.924 38.6817   3
  -1  -2 -11 290.536 35.5582   3
   1   2 -11 241.601 25.5375   3
   1  -2 -11 277.233 33.1390   3
  -1   2 -11 270.254 28.5687   3
  -1   2 -11 280.709 29.1078   4
   1  -2 -11 262.737 26.2591   4
  -1  -2  11 280.235 34.1287   3
   2   2 -11 54.8760 10.1745   4
  -2  -2 -11 70.4466 23.1402   4
   2   2 -11 65.7731 14.6863   3
   2  -2  11 47.6907 16.4582   3
   2  -2 -11 27.9174 10.2826   4
   2  -2 -11 52.8501 17.4233   3
  -2   2 -11 56.4658 19.0812   4
  -2  -2  11 44.5947 20.3106   3
  -3  -2 -11 191.753 37.6423   4
  -3  -2 -11 177.295 35.3780   3
   3   2 -11 127.422 19.1360   3
  -3   2 -11 135.829 26.3852   3
   3  -2 -11 135.629 14.6069   4
   3  -2 -11 125.017 10.7857   4
  -3   2 -11 157.438 33.3647   4
   3  -2 -11 154.641 26.5395   3
  -3  -2  11 125.575 30.1991   3
   3  -2 -11 133.170 13.1067   3
   4   2 -11 24.9244 6.64009   3
  -4  -2 -11 58.3658 38.1943   4
  -4  -2 -11 15.0513 13.3908   3
   4   2 -11 31.1572 5.93560   3
  -4   2 -11 6.25903 15.4981   3
   4  -2 -11 41.6217 13.3332   3
   4  -2 -11 33.4086 7.46463   3
  -4   2 -11 49.9125 31.6447   4
  -4  -2  11 56.6474 19.0920   3
   0   3 -11 325.270 28.0890   4
   0  -3 -11 274.044 36.2415   3
   0  -3  11 303.141 37.6079   3
   0   3 -11 342.737 30.5427   3
   1   3 -11 100.789 17.7632   4
   1   3 -11 97.6889 19.6748   3
  -1  -3 -11 85.1667 34.3091   3
   1  -3  11 99.2296 26.8322   3
  -1   3 -11 86.6079 20.9311   4
   1  -3 -11 125.543 30.6597   3
  -1  -3  11 67.5372 22.5924   3
  -2  -3 -11 134.158 32.3619   3
  -2  -3 -11 107.153 26.3591   4
   2   3 -11 92.3552 12.0639   4
   2   3 -11 130.289 16.2025   3
   2  -3  11 131.738 31.5740   3
  -2   3 -11 82.9984 19.5938   4
  -2  -3  11 83.3922 21.2887   3
  -2   3 -11 158.388 21.5017   3
   2  -3 -11 106.272 12.6781   3
   2  -3 -11 111.653 27.6312   3
   3   3 -11 49.8107 12.3071   3
  -3  -3 -11 32.4613 15.7626   3
   3  -3  11 18.1823 13.8423   3
  -3  -3 -11 22.3072 15.2842   4
  -3   3 -11 55.1498 16.1004   3
  -3   3 -11 55.0493 16.8169   4
   3  -3 -11 27.4959 7.68727   3
  -3  -3  11 63.6841 21.0376   3
   3  -3 -11 21.5327 15.4937   3
   3  -3 -11 33.2757 7.75653   4
  -4  -3 -11 47.5817 13.0892   4
   4   3 -11 64.3131 8.44174   3
  -4  -3  11 65.6292 20.6208   3
   4  -3 -11 67.4121 11.1455   3
  -4   3 -11 55.1897 20.2359   4
   4  -3 -11 65.3051 18.1491   3
   0  -4  11 47.7143 19.5675   3
   0   4 -11 78.0225 18.3855   3
   0  -4  11 51.2710 14.3268   4
   0   4 -11 27.0984 10.3010   4
   0  -4 -11 29.5219 20.1277   3
   1  -4  11 20.2498 12.7148   4
   1   4 -11 10.2023 8.03044   4
   1   4 -11 11.2424 7.64528   3
  -1  -4 -11 18.2363 12.4375   3
   1  -4  11 29.8990 19.3589   3
  -1   4 -11 -0.7047 9.46858   3
  -1  -4  11 4.96932 12.5233   3
   1  -4 -11 18.9190 12.0160   3
   1  -4 -11 9.68602 6.00079   3
  -1   4 -11 18.2874 9.10591   4
   2   4 -11 145.130 18.0713   3
  -2  -4 -11 171.103 37.3050   3
   2  -4  11 145.351 28.9602   3
   2   4 -11 126.004 14.6520   4
  -2  -4  11 148.136 29.7135   3
   2  -4 -11 152.252 16.1421   4
  -2   4 -11 163.672 29.5364   4
   2  -4 -11 120.828 37.1453   3
  -2   4 -11 151.391 27.2165   3
   2  -4 -11 132.023 15.0744   3
   3  -4  11 -1.8107 13.3092   3
   3   4 -11 -1.6532 6.42446   3
  -3   4 -11 -6.7621 7.88579   4
  -3  -4  11 38.4646 14.5513   3
   3  -4 -11 5.45397 4.67684   3
   3  -4 -11 -6.3671 5.84700   4
   3  -4 -11 -16.417 14.7316   3
   4  -4  11 85.8374 27.7948   3
  -4  -4 -11 95.9998 22.8833   4
   4   4 -11 74.3623 9.61313   3
   4  -4 -11 69.5250 13.5126   3
   4  -4 -11 65.3687 21.8581   3
  -4   4 -11 86.9128 25.1385   4
  -4  -4  11 154.770 36.7548   3
   4  -4 -11 75.0844 13.2028   4
   0   5 -11 229.231 23.4561   3
   0  -5  11 185.465 38.5916   3
   0   5 -11 196.742 23.1727   4
   0  -5 -11 211.833 38.3669   3
   0  -5  11 263.125 28.8705   4
   0  -5 -11 220.108 19.2465   3
   1  -5  11 19.2358 14.7601   3
   1  -5  11 19.6711 13.4391   4
   1   5 -11 2.21469 9.00078   3
  -1  -5 -11 13.9827 4.84965   3
  -1   5 -11 6.71446 5.60558   4
   1  -5 -11 11.7379 16.9768   3
  -1  -5  11 30.1739 10.7453   3
  -1  -5  11 32.3855 9.94036   4
   1  -5 -11 19.8822 5.45169   3
   2   5 -11 82.3294 15.8727   3
   2   5 -11 93.7039 15.7601   4
   2  -5  11 66.7752 24.3062   3
   2  -5  11 82.6552 28.1257   4
  -2  -5  11 111.018 22.0604   3
  -2   5 -11 115.781 25.2172   4
   2  -5 -11 104.353 13.5560   3
  -2  -5  11 129.793 16.8516   4
   2  -5 -11 114.474 14.6277   4
   2  -5 -11 41.4741 19.2041   3
   3   5 -11 -8.6456 6.63576   3
   3  -5 -11 -6.3025 5.42712   3
   3  -5 -11 10.6320 16.9214   3
   3  -5 -11 3.20621 7.96169   4
  -3  -5  11 29.4863 14.7848   3
  -3   5 -11 -9.0721 7.98210   4
   0  -6 -11 5.04749 6.79821   3
   0  -6  11 30.9527 11.6854   3
   0  -6  11 26.8439 10.3766   4
   0   6 -11 11.2589 7.05660   4
   1   6 -11 20.6338 9.82868   4
   1  -6  11 61.0704 15.7741   4
   1  -6  11 48.5100 17.6446   3
  -1  -6 -11 50.8773 12.1206   3
   1   6 -11 22.1232 12.1860   3
  -1  -6  11 33.9476 18.9083   3
  -1   6 -11 41.9966 14.2607   4
  -1  -6  11 55.6907 12.2354   4
   1  -6 -11 26.9425 12.5789   4
   2  -6  11 60.5723 27.5551   3
   2   6 -11 19.4077 12.2647   3
   2   6 -11 41.9272 12.4612   4
  -2  -6 -11 48.2199 11.9913   3
   2  -6 -11 23.2719 10.4202   3
  -2   6 -11 16.7425 10.5832   4
  -2  -6  11 30.4123 20.5671   3
   2  -6 -11 54.5629 12.0599   4
  -2  -6  11 44.5487 14.1110   4
   0   0 -12 224.598 41.8282   3
   0   0 -12 186.896 23.8796   4
  -1   0 -12 -0.8709 6.53205   4
   1   0 -12 -9.5094 8.70597   3
  -1   0  12 -3.5436 6.07683   3
   1   0 -12 -9.3476 5.24556   4
  -1   0 -12 11.6889 10.6725   3
  -2   0 -12 303.983 35.0352   4
  -2   0  12 299.735 39.4751   3
  -2   0 -12 253.263 35.2214   3
   2   0 -12 267.435 21.3915   4
   2   0 -12 288.027 29.2274   3
  -3   0  12 37.6559 10.7635   3
  -3   0 -12 7.43595 7.51116   4
   3   0 -12 -15.816 8.42076   3
  -3   0 -12 -5.1661 8.91964   3
  -4   0 -12 230.824 45.1351   4
   4   0 -12 132.568 11.7344   3
   0  -1  12 32.5578 15.8484   3
   0  -1 -12 50.2702 15.9394   4
   0   1 -12 51.1047 15.3495   4
  -1  -1 -12 44.9948 15.7208   3
  -1  -1 -12 22.1227 11.8871   4
   1   1 -12 55.5005 14.1304   4
   1  -1  12 30.5809 11.8219   3
   1   1 -12 39.2695 14.6577   3
  -1   1 -12 32.4821 13.2588   3
   1  -1 -12 24.5902 11.8963   4
  -1   1 -12 65.4990 20.6297   4
  -1  -1  12 43.0734 12.9699   3
   1  -1 -12 7.97906 11.2832   3
   2   1 -12 -5.1588 10.1586   3
  -2  -1 -12 4.52532 10.4655   4
  -2  -1 -12 45.5992 17.8389   3
   2   1 -12 14.0509 6.87676   4
  -2  -1  12 19.8927 12.4136   3
   2  -1 -12 0.23568 8.70232   3
   2  -1 -12 12.3837 8.11503   4
  -2   1 -12 8.10872 10.5787   4
  -2   1 -12 22.1588 13.6409   3
   3   1 -12 13.2871 9.71224   3
  -3  -1 -12 27.4187 14.6007   3
  -3  -1 -12 13.9704 9.90404   4
   3  -1 -12 12.8377 4.08031   3
  -3  -1  12 29.3257 12.7852   3
   3  -1 -12 4.49389 10.8439   3
  -3   1 -12 21.1612 10.0913   4
   4   1 -12 30.4237 7.01932   3
  -4  -1 -12 25.1203 11.9284   4
   4   1 -12 10.2686 9.16716   3
   4  -1 -12 23.7693 12.2284   3
  -4  -1  12 14.2044 17.1700   3
   4  -1 -12 23.0223 6.64771   3
  -4   1 -12 49.7468 16.3678   4
   0   2 -12 237.094 41.9793   4
   0  -2  12 130.064 32.2257   3
   0   2 -12 149.134 27.9500   3
   0  -2 -12 147.169 27.0790   4
   0  -2 -12 149.148 29.5607   3
  -1  -2 -12 266.498 31.6274   4
   1   2 -12 231.281 22.1953   4
  -1  -2 -12 240.705 42.5441   3
   1   2 -12 241.747 26.2864   3
   1  -2  12 279.423 34.8691   3
   1  -2 -12 198.258 24.0179   4
  -1  -2  12 156.638 32.9103   3
  -1   2 -12 220.209 27.6230   4
  -1   2 -12 289.164 33.2791   3
  -2  -2 -12 198.380 38.5481   3
  -2  -2 -12 245.691 43.6401   4
   2   2 -12 225.236 17.9117   4
   2  -2  12 150.497 34.0532   3
   2   2 -12 205.833 23.5514   3
   2  -2 -12 213.129 22.6240   4
  -2   2 -12 226.399 28.9658   4
  -2   2 -12 280.206 31.4246   3
   2  -2 -12 236.985 32.1073   3
  -2  -2  12 200.183 38.4434   3
   3   2 -12 176.688 20.3168   3
  -3  -2 -12 223.804 30.6432   4
   3  -2 -12 152.017 14.2036   3
   3  -2 -12 228.274 29.0052   3
  -3  -2  12 203.295 28.1787   3
   3  -2 -12 164.746 14.9256   4
  -3   2 -12 208.831 27.8765   4
  -4  -2 -12 92.1036 29.1684   4
   4   2 -12 86.0500 13.5785   3
   4   2 -12 81.3488 9.45490   3
   4  -2 -12 104.102 21.2669   3
   4  -2 -12 84.5996 11.2240   3
  -4  -2  12 86.6117 39.0385   3
  -4   2 -12 83.0245 23.0767   4
   0  -3 -12 1.14761 8.23892   4
   0   3 -12 20.9825 8.23431   3
   0  -3 -12 -1.6662 10.7108   3
   0  -3  12 25.6124 14.1027   3
   0   3 -12 -4.9051 6.09878   4
   1   3 -12 39.3274 11.6395   4
  -1  -3 -12 48.6947 15.7228   4
   1   3 -12 41.1506 17.3274   3
  -1  -3 -12 35.1435 16.1789   3
   1  -3  12 57.6160 21.7166   3
   1  -3 -12 28.2327 16.3099   4
  -1  -3  12 64.7008 20.2797   3
  -1   3 -12 49.2637 15.8978   3
   1  -3 -12 40.2373 19.7093   3
  -1   3 -12 68.7024 19.7787   4
   2  -3  12 40.7572 17.3613   3
   2   3 -12 47.6238 13.1472   3
  -2  -3 -12 51.7066 15.6756   4
   2   3 -12 70.0653 12.6587   4
   2  -3 -12 50.9363 20.4541   3
  -2   3 -12 73.9077 19.5738   4
   2  -3 -12 53.6144 15.0232   4
  -2  -3  12 72.6986 20.9343   3
   2  -3 -12 61.5118 10.4749   3
   3  -3  12 52.6981 13.4503   3
  -3  -3 -12 29.9658 16.5630   4
   3   3 -12 9.89201 8.39411   3
   3  -3 -12 10.6262 12.0922   3
   3  -3 -12 15.7148 7.19981   3
   3  -3 -12 7.63138 6.61068   4
  -3   3 -12 33.3449 18.3130   4
  -3  -3  12 33.2091 16.0801   3
   3  -3 -12 30.1000 9.64410   4
   0   4 -12 96.2950 21.1998   4
   0   4 -12 58.2888 17.0283   3
   0  -4  12 53.0123 21.9416   3
   1   4 -12 198.189 22.8982   4
   1   4 -12 205.055 23.9242   3
   1  -4  12 213.778 40.7361   3
   1  -4 -12 186.537 37.1723   3
  -1   4 -12 214.058 26.5303   4
   1  -4 -12 229.437 18.6425   3
  -1  -4  12 210.344 39.6617   3
   2   4 -12 5.74154 6.54411   4
   2  -4  12 0.92659 13.0069   3
   2  -4 -12 12.8071 15.8617   3
   2  -4 -12 27.5705 8.21241   3
   2  -4 -12 10.7143 7.16704   4
  -2   4 -12 3.89256 10.5371   4
   3   4 -12 165.379 18.8738   3
  -3  -4 -12 219.829 43.9016   4
   3  -4  12 133.072 31.3888   3
  -3   4 -12 181.722 37.0194   4
   3  -4 -12 128.109 27.0222   3
  -3  -4  12 139.813 34.2698   3
   3  -4 -12 134.693 16.5869   3
   0  -5 -12 -0.6790 4.72288   3
   0  -5  12 13.7565 8.90483   4
   0   5 -12 4.27457 8.25928   4
   0  -5  12 30.1996 8.99017   3
   1   5 -12 11.0101 9.02759   4
   1  -5  12 17.5966 12.3633   4
   1   5 -12 13.7943 18.3242   3
   1  -5  12 8.09506 13.6093   3
  -1  -5 -12 12.1138 5.48861   3
  -1  -5  12 42.4130 18.3157   3
  -1   5 -12 3.16104 8.02802   4
   2   5 -12 2.47332 9.74479   3
   2   5 -12 -3.6701 5.74344   4
   2  -5  12 -14.748 18.0672   3
  -2   5 -12 22.7609 9.62161   4
   2  -5 -12 -1.0309 8.29854   4
   2  -5 -12 -6.8066 5.87907   3
  -2  -5  12 -11.338 13.7807   3
   0   0 -13 7.78168 12.0648   3
  -1   0 -13 14.0309 11.7712   4
   1   0 -13 38.2844 14.4955   4
   1   0 -13 85.7500 20.0788   3
  -2   0 -13 -18.661 8.36314   4
   2   0 -13 8.18647 11.6706   3
  -3   0 -13 75.4473 17.7380   4
   3   0 -13 63.6360 16.4897   3
   0   1 -13 -10.081 6.59176   4
   0  -1  13 19.1804 9.79053   3
   0  -1 -13 -15.412 7.48407   4
   0  -1 -13 -7.1306 10.7776   3
   0   1 -13 13.0313 9.56649   3
   1   1 -13 12.3686 9.52299   4
  -1  -1 -13 36.2751 18.7143   4
   1   1 -13 4.05937 11.1856   3
  -1   1 -13 33.9825 14.9359   4
   1  -1 -13 37.7051 13.9394   4
  -1  -1  13 7.90367 14.2231   3
   1  -1 -13 -3.3435 8.46839   3
  -2  -1 -13 19.3095 9.89390   4
   2   1 -13 4.64559 6.99052   4
   2   1 -13 12.1431 13.4592   3
   2  -1 -13 0.27977 8.11017   4
  -2   1 -13 -5.3751 9.32778   4
  -2  -1  13 -0.5061 17.3602   3
   2  -1 -13 47.4260 14.7749   3
   3   1 -13 152.858 23.3705   3
  -3  -1 -13 62.4347 21.9081   4
  -3   1 -13 128.667 30.4404   4
   3  -1 -13 104.714 12.5592   3
   3  -1 -13 105.009 23.2226   3
  -3  -1  13 101.146 27.7724   3
   0  -2  13 82.1457 23.8347   3
   0   2 -13 125.229 25.6536   4
   0   2 -13 118.252 25.4428   3
   0  -2 -13 102.636 22.4102   4
   1   2 -13 21.1707 13.7245   3
   1  -2  13 40.6766 15.2480   3
  -1  -2 -13 55.8529 18.6247   4
   1   2 -13 41.2184 12.4297   4
   1  -2 -13 55.9659 28.6681   4
  -1   2 -13 32.8807 11.2109   4
  -1  -2  13 37.6525 14.0135   3
   1  -2 -13 48.6072 15.7670   3
   2   2 -13 115.244 16.6719   4
   2   2 -13 72.8564 17.8530   3
  -2  -2 -13 89.5224 28.3492   4
   2  -2  13 71.4869 23.4524   3
  -2  -2  13 81.0558 31.1702   3
   2  -2 -13 65.5380 17.1978   4
  -2   2 -13 64.7613 18.1922   4
   2  -2 -13 69.3783 21.7205   3
   2  -2 -13 84.9527 10.6003   3
   3   2 -13 87.1372 16.2726   3
  -3  -2 -13 93.4414 26.7901   4
  -3   2 -13 82.4577 24.6852   4
  -3  -2  13 67.7632 20.8423   3
   3  -2 -13 43.0389 10.6267   3
   0  -3 -13 12.4431 9.39108   4
   0   3 -13 36.6850 11.5236   4
  -1  -3 -13 8.86589 10.2312   4
   1   3 -13 13.9218 10.3850   3
   1   3 -13 3.24224 5.92313   4
   1  -3 -13 -0.6216 9.77665   4
  -1  -3  13 26.5843 17.0908   3
  -2  -3 -13 157.834 42.3163   4
   2  -3  13 59.3015 21.3526   3
   2   3 -13 112.624 21.1397   3
   2   3 -13 116.887 16.8637   4
   2  -3 -13 99.9540 12.0899   3
   2  -3 -13 124.555 22.7606   4
  -2  -3  13 100.430 29.8572   3
   2  -3 -13 132.915 26.1303   3
  -2   3 -13 108.993 24.6779   4
   0  -4  13 147.218 35.2917   3
   0   4 -13 165.683 28.5384   4
   1   4 -13 -2.5101 7.43993   4
   1  -4  13 -12.231 14.3678   3
  -1   4 -13 -7.5559 9.35517   4
  -1  -4  13 17.9600 13.5221   3
   1  -4 -13 8.38276 7.10044   3
   2  -4  13 142.758 34.2596   3
   2   4 -13 84.9919 14.7902   4
  -2  -4 -13 103.858 26.4132   4
   2   4 -13 116.016 21.2135   3
  -2  -4  13 158.476 33.2554   3
  -2   4 -13 113.599 29.2566   4
   2  -4 -13 107.893 16.9114   3
   2  -4 -13 108.128 17.8728   4
   0   0 -14 -6.5117 9.32969   4
   1   0 -14 9.51738 12.1446   4
  -1   0 -14 -4.1676 9.09314   4
  -2   0 -14 24.9008 18.6723   4
   2   0 -14 19.5778 9.08245   4
   0  -1 -14 -3.3567 9.16936   4
   0  -1  14 19.3378 12.8881   3
   0   1 -14 -7.6681 8.57002   4
   1   1 -14 -1.8166 7.97025   4
  -1  -1 -14 5.82700 10.7666   4
  -1  -1  14 -8.6741 13.6721   3
   1  -1 -14 4.34430 10.0291   4
  -1   1 -14 0.36148 10.5245   4
  -2  -1 -14 119.913 32.1533   4
   2   1 -14 117.123 16.1416   4
   2   1 -14 99.4555 24.4692   3
  -2  -1  14 145.409 34.7292   3
   2  -1 -14 140.845 20.9413   4
   0  -2  14 31.3880 15.8161   3
   0  -2 -14 -8.6283 11.2876   4
   0   2 -14 2.52471 9.31548   4
   1   2 -14 2.07927 9.51500   4
   1  -2  14 27.9420 16.7043   3
  -1  -2 -14 -7.6175 10.1146   4
  -1   2 -14 17.6561 9.55411   4
  -1  -2  14 36.0877 14.5154   3
   1  -2 -14 -3.6041 11.0788   4
   0   3 -14 16.7830 10.5368   4
   0  -3  14 -0.4870 15.8399   3
   0  -3 -14 14.6471 15.8221   4
   0   0   0    0.00    0.00   0

 _exptl_absorpt_process_details
)
 SADABS 2016/2: Krause, L., Herbst-Irmer, R., Sheldrick G.M. & Stalke D.,
 J. Appl. Cryst. 48 (2015) 3-10
)
 _exptl_absorpt_correction_type   multi-scan
 _exptl_absorpt_correction_T_max  0.7456
 _exptl_absorpt_correction_T_min  0.6399
 _exptl_special_details
)
 The following wavelength and cell were deduced by SADABS from the
 direction cosines etc. They are given here for emergency use only:
 CELL 0.71073    6.030    7.943   11.336   89.996   90.008   89.995
)

;
_shelx_hkl_checksum              17885
loop_
_space_group_symop_operation_xyz
'x, y, z'
'-x, -y, z+1/2'
'x+1/2, -y+1/2, z'
'-x+1/2, y+1/2, z+1/2'
loop_
_atom_site_label
_atom_site_type_symbol
_atom_site_fract_x
_atom_site_fract_y
_atom_site_fract_z
_atom_site_U_iso_or_equiv
_atom_site_adp_type
_atom_site_occupancy
_atom_site_site_symmetry_order
_atom_site_calc_flag
P1 P 0.18998(11) 0.12616(8) 0.8162(2) 0.0180(3) Uani 1 1 d
F1 F -0.0002(3) 0.0829(2) 0.8232(8) 0.0383(7) Uani 1 1 d
N2 N 0.6415(5) 0.0400(4) 0.8361(10) 0.0242(8) Uani 1 1 d
N3 N 0.0884(5) -0.1914(4) 0.8283(13) 0.0301(9) Uani 1 1 d
O4 O 0.2864(4) 0.0176(3) 0.8872(6) 0.0283(8) Uani 1 1 d
O5 O 0.1960(5) 0.2273(3) 0.9741(7) 0.0376(9) Uani 1 1 d
O9 O 0.2186(4) 0.1559(3) 0.5752(6) 0.0295(8) Uani 1 1 d
H31 H 0.147(7) -0.239(6) 0.930(11) 0.029(15) Uiso 1 1 d
H21 H 0.660(6) 0.017(5) 0.700(10) 0.020(15) Uiso 1 1 d
H32 H 0.148(8) -0.128(6) 0.806(15) 0.055(17) Uiso 1 1 d
H35 H 0.084(9) -0.226(8) 0.704(18) 0.08(3) Uiso 1 1 d
H22 H 0.670(8) 0.122(6) 0.882(12) 0.06(2) Uiso 1 1 d
H33 H 0.525(7) 0.031(5) 0.838(16) 0.052(16) Uiso 1 1 d
H24 H 0.705(7) -0.009(6) 0.933(11) 0.043(19) Uiso 1 1 d
H34 H -0.019(10) -0.187(6) 0.899(13) 0.07(2) Uiso 1 1 d
loop_
_atom_site_aniso_label
_atom_site_aniso_U_11
_atom_site_aniso_U_22
_atom_site_aniso_U_33
_atom_site_aniso_U_23
_atom_site_aniso_U_13
_atom_site_aniso_U_12
P1 0.0180(4) 0.0183(5) 0.0178(5) 0.0015(7) 0.0000(6) -0.0013(4)
F1 0.0201(11) 0.0421(15) 0.0528(17) 0.000(3) 0.0051(18) -0.0036(9)
N2 0.0238(18) 0.029(2) 0.020(3) 0.004(2) 0.000(2) 0.0021(14)
N3 0.033(2) 0.025(2) 0.032(3) 0.007(3) 0.003(3) 0.0011(16)
O4 0.0260(15) 0.0274(18) 0.032(2) 0.0055(14) -0.0008(12) 0.0009(13)
O5 0.052(2) 0.028(2) 0.033(2) -0.0085(17) -0.0008(17) 0.0008(17)
O9 0.0335(17) 0.032(2) 0.0226(19) 0.0038(17) 0.0004(14) -0.0008(15)
loop_
_atom_type_symbol
_atom_type_description
_atom_type_scat_dispersion_real
_atom_type_scat_dispersion_imag
_atom_type_scat_source
N N 0.0061 0.0033 'International Tables Vol C Tables 4.2.6.8 and 6.1.1.4'
H H 0.0000 0.0000 'International Tables Vol C Tables 4.2.6.8 and 6.1.1.4'
O O 0.0106 0.0060 'International Tables Vol C Tables 4.2.6.8 and 6.1.1.4'
F F 0.0171 0.0103 'International Tables Vol C Tables 4.2.6.8 and 6.1.1.4'
P P 0.1023 0.0942 'International Tables Vol C Tables 4.2.6.8 and 6.1.1.4'
loop_
_geom_angle_atom_site_label_1
_geom_angle_atom_site_label_2
_geom_angle_atom_site_label_3
_geom_angle
O5 P1 O9 116.0(2)
O5 P1 O4 115.4(2)
O9 P1 O4 112.2(2)
O5 P1 F1 104.5(2)
O9 P1 F1 103.7(2)
O4 P1 F1 102.89(16)
loop_
_geom_bond_atom_site_label_1
_geom_bond_atom_site_label_2
_geom_bond_distance
P1 O5 1.491(4)
P1 O9 1.509(4)
P1 O4 1.511(3)
P1 F1 1.588(2)
