#------------------------------------------------------------------------------
#$Date: 2020-06-25 01:20:44 +0300 (Thu, 25 Jun 2020) $
#$Revision: 253410 $
#$URL: file:///home/coder/svn-repositories/cod/cif/4/00/35/4003599.cif $
#------------------------------------------------------------------------------
#
# This file is available in the Crystallography Open Database (COD),
# http://www.crystallography.net/
#
# All data on this site have been placed in the public domain by the
# contributors.
#
data_4003599
loop_
_publ_author_name
'Sharber, Seth A.'
'Thomas, Samuel W.'
_publ_section_title
;
 Side Chain Regioisomers that Dictate Optical Properties and
 Mechanofluorochromism through Crystal Packing
;
_journal_name_full               'Chemistry of Materials'
_journal_paper_doi               10.1021/acs.chemmater.0c01676
_journal_year                    2020
_chemical_formula_sum            'C38 H18 F8 O4'
_chemical_formula_weight         690.52
_space_group_crystal_system      triclinic
_space_group_IT_number           2
_space_group_name_Hall           '-P 1'
_space_group_name_H-M_alt        'P -1'
_atom_sites_solution_hydrogens   geom
_audit_creation_method           SHELXL-2014/7
_audit_update_record
;
2017-05-05 # Formatted by publCIF

;
_cell_angle_alpha                101.159(2)
_cell_angle_beta                 96.904(2)
_cell_angle_gamma                95.288(2)
_cell_formula_units_Z            1
_cell_length_a                   7.7154(7)
_cell_length_b                   9.1759(8)
_cell_length_c                   11.2358(10)
_cell_measurement_reflns_used    9854
_cell_measurement_temperature    100(2)
_cell_measurement_theta_max      40.85
_cell_measurement_theta_min      3.04
_cell_volume                     769.29(12)
_computing_structure_refinement  'SHELXL-2014/7 (Sheldrick, 2014)'
_diffrn_ambient_temperature      100(2)
_diffrn_measured_fraction_theta_full 0.989
_diffrn_measured_fraction_theta_max 0.986
_diffrn_measurement_device_type  'Bruker APEX-II CCD'
_diffrn_measurement_method       '\f and \w scans'
_diffrn_radiation_type           MoK\a
_diffrn_radiation_wavelength     0.71073
_diffrn_reflns_av_R_equivalents  0.0207
_diffrn_reflns_av_unetI/netI     0.0232
_diffrn_reflns_Laue_measured_fraction_full 0.989
_diffrn_reflns_Laue_measured_fraction_max 0.986
_diffrn_reflns_limit_h_max       14
_diffrn_reflns_limit_h_min       -14
_diffrn_reflns_limit_k_max       16
_diffrn_reflns_limit_k_min       -16
_diffrn_reflns_limit_l_max       20
_diffrn_reflns_limit_l_min       -20
_diffrn_reflns_number            28044
_diffrn_reflns_point_group_measured_fraction_full 0.989
_diffrn_reflns_point_group_measured_fraction_max 0.986
_diffrn_reflns_theta_full        25.242
_diffrn_reflns_theta_max         40.918
_diffrn_reflns_theta_min         3.041
_exptl_absorpt_coefficient_mu    0.129
_exptl_absorpt_correction_type   none
_exptl_absorpt_process_details   'SADABS (Sheldrick, 2009)'
_exptl_crystal_colour            Violet
_exptl_crystal_density_diffrn    1.491
_exptl_crystal_description       Prism
_exptl_crystal_F_000             350
_exptl_crystal_size_max          1.000
_exptl_crystal_size_mid          1.000
_exptl_crystal_size_min          0.500
_exptl_transmission_factor_max   0.9380
_exptl_transmission_factor_min   0.8820
_refine_diff_density_max         0.758
_refine_diff_density_min         -0.257
_refine_diff_density_rms         0.083
_refine_ls_extinction_method     none
_refine_ls_goodness_of_fit_ref   1.071
_refine_ls_hydrogen_treatment    constr
_refine_ls_matrix_type           full
_refine_ls_number_parameters     226
_refine_ls_number_reflns         9932
_refine_ls_number_restraints     0
_refine_ls_restrained_S_all      1.071
_refine_ls_R_factor_all          0.0572
_refine_ls_R_factor_gt           0.0459
_refine_ls_shift/su_max          0.001
_refine_ls_shift/su_mean         0.000
_refine_ls_structure_factor_coef Fsqd
_refine_ls_weighting_details
'w=1/[\s^2^(Fo^2^)+(0.0709P)^2^+0.1618P] where P=(Fo^2^+2Fc^2^)/3'
_refine_ls_weighting_scheme      calc
_refine_ls_wR_factor_gt          0.1287
_refine_ls_wR_factor_ref         0.1377
_reflns_Friedel_coverage         0.000
_reflns_number_gt                8138
_reflns_number_total             9932
_reflns_threshold_expression     'I > 2\s(I)'
_cod_data_source_file            cm0c01676_si_005.cif
_cod_data_source_block           SS170504_0m_a
_cod_database_code               4003599
_shelx_shelxl_version_number     2014/7
_shelx_space_group_comment
;
The symmetry employed for this shelxl refinement is uniquely defined
by the following loop, which should always be used as a source of
symmetry information in preference to the above space-group names.
They are only intended as comments.
;
_shelx_estimated_absorpt_t_min   0.882
_shelx_estimated_absorpt_t_max   0.938
_shelx_res_file
;

    SS170504_0m_a.res created by SHELXL-2014/7


TITL SS170504_0m_a.res in P-1
REM Old TITL SS170504_0m in P-1
REM SHELXT solution in P-1
REM R1 0.115,  Rweak 0.003,  Alpha 0.030,  Orientation as input
REM Formula found by SHELXT:  C19 F4 O2
CELL  0.71073   7.7154   9.1759  11.2358  101.159   96.904   95.288
ZERR    1.000   0.0007   0.0008   0.0010    0.002    0.002    0.002
LATT  1
SFAC C H F O
UNIT 38 18 8 4
TEMP -173.150
SIZE 0.50 1.00 1.00
L.S. 10
BOND $H
LIST 6
FMAP 2
PLAN 20
ACTA
WGHT    0.070900    0.161800
FVAR       0.97151
C1    1    0.836612    0.548210    0.512377    11.00000    0.01034    0.00863 =
         0.01641    0.00011    0.00343    0.00130
AFIX  43
H1    2    0.724532    0.580888    0.520601    11.00000   -1.20000
AFIX   0
C2    1    0.845831    0.404964    0.445369    11.00000    0.01023    0.00828 =
         0.01446    0.00058    0.00285    0.00087
C3    1    0.988428    0.645566    0.568071    11.00000    0.01088    0.00792 =
         0.01428    0.00036    0.00330    0.00133
C21   1    0.672491    0.315451    0.390457    11.00000    0.01087    0.00865 =
         0.01533    0.00105    0.00265    0.00054
O21   4    0.536083    0.370891    0.378602    11.00000    0.01152    0.01198 =
         0.02838    0.00158    0.00169    0.00267
C22   1    0.518663    0.080128    0.297434    11.00000    0.01081    0.01056 =
         0.02268   -0.00186    0.00047   -0.00028
AFIX  23
H22A  2    0.463464    0.124819    0.231050    11.00000   -1.20000
H22B  2    0.435962    0.075720    0.357881    11.00000   -1.20000
AFIX   0
O22   4    0.683227    0.169591    0.356144    11.00000    0.01054    0.00826 =
         0.02396   -0.00152    0.00019    0.00013
C23   1    0.560582   -0.073481    0.246178    11.00000    0.01260    0.00999 =
         0.01439    0.00010    0.00131   -0.00035
C24   1    0.533866   -0.193423    0.303246    11.00000    0.01782    0.01328 =
         0.01454    0.00166    0.00145   -0.00062
F24   3    0.474064   -0.168132    0.412322    11.00000    0.03375    0.02550 =
         0.01676    0.00414    0.00844   -0.00113
C25   1    0.563636   -0.338248    0.254366    11.00000    0.02188    0.01154 =
         0.02457    0.00314   -0.00039    0.00112
AFIX  43
H25   2    0.543546   -0.417352    0.296330    11.00000   -1.20000
AFIX   0
C26   1    0.623673   -0.362458    0.142189    11.00000    0.01845    0.01328 =
         0.02633   -0.00535   -0.00063    0.00360
F26   3    0.655262   -0.500643    0.090593    11.00000    0.03044    0.01646 =
         0.04638   -0.01191    0.00052    0.00810
C27   1    0.653741   -0.247814    0.080456    11.00000    0.01682    0.02181 =
         0.01659   -0.00431    0.00302    0.00220
F27   3    0.710331   -0.273757   -0.029045    11.00000    0.02946    0.04292 =
         0.02032   -0.00796    0.01020    0.00426
C28   1    0.623995   -0.105089    0.134497    11.00000    0.01469    0.01651 =
         0.01502    0.00213    0.00248    0.00019
F28   3    0.657574    0.006289    0.075748    11.00000    0.02701    0.02785 =
         0.02425    0.01280    0.00686   -0.00037
C31   1    0.965766    0.789859    0.635148    11.00000    0.01257    0.00960 =
         0.01680   -0.00060    0.00364    0.00190
C32   1    0.942924    0.912581    0.689349    11.00000    0.01277    0.01010 =
         0.01753   -0.00104    0.00368    0.00174
C33   1    0.924270    1.060637    0.751639    11.00000    0.01247    0.00936 =
         0.01453   -0.00099    0.00271    0.00182
C34   1    0.949001    1.180798    0.692656    11.00000    0.02596    0.01225 =
         0.01598    0.00160    0.00511    0.00310
AFIX  43
H34   2    0.978400    1.163934    0.611791    11.00000   -1.20000
AFIX   0
C35   1    0.930378    1.324912    0.752858    11.00000    0.03007    0.01096 =
         0.02116    0.00193    0.00191    0.00410
AFIX  43
H35   2    0.947779    1.406358    0.713008    11.00000   -1.20000
AFIX   0
C36   1    0.886443    1.350279    0.871008    11.00000    0.02325    0.01254 =
         0.02183   -0.00406    0.00138    0.00436
AFIX  43
H36   2    0.872246    1.448604    0.911223    11.00000   -1.20000
AFIX   0
C37   1    0.863273    1.231355    0.930331    11.00000    0.02339    0.01692 =
         0.01652   -0.00384    0.00556    0.00331
AFIX  43
H37   2    0.834471    1.248863    1.011352    11.00000   -1.20000
AFIX   0
C38   1    0.882253    1.086802    0.871082    11.00000    0.01890    0.01342 =
         0.01518    0.00013    0.00467    0.00160
AFIX  43
H38   2    0.866656    1.005947    0.911808    11.00000   -1.20000
AFIX   0
HKLF 4

REM  SS170504_0m_a.res in P-1
REM R1 =  0.0459 for    8138 Fo > 4sig(Fo)  and  0.0572 for all    9932 data
REM    226 parameters refined using      0 restraints

END

WGHT      0.0709      0.1618

REM Highest difference peak  0.758,  deepest hole -0.257,  1-sigma level  0.083
Q1    1   0.5423 -0.1341  0.2732  11.00000  0.05    0.76
Q2    1   0.9402  0.8470  0.6626  11.00000  0.05    0.72
Q3    1   0.9122  0.5949  0.5406  11.00000  0.05    0.71
Q4    1   0.6368 -0.2955  0.1098  11.00000  0.05    0.69
Q5    1   0.9430  1.1229  0.7262  11.00000  0.05    0.68
Q6    1   0.5881 -0.3584  0.1864  11.00000  0.05    0.68
Q7    1   0.8334  0.4804  0.4785  11.00000  0.05    0.67
Q8    1   0.9172  1.3383  0.8129  11.00000  0.05    0.65
Q9    1   0.8738  1.1578  0.9031  11.00000  0.05    0.63
Q10   1   0.9803  0.7192  0.6007  11.00000  0.05    0.62
Q11   1   0.9246  0.3799  0.4327  11.00000  0.05    0.62
Q12   1   0.6397 -0.1791  0.1050  11.00000  0.05    0.62
Q13   1   0.8826  1.2902  0.9039  11.00000  0.05    0.62
Q14   1   0.9205  1.0738  0.8132  11.00000  0.05    0.62
Q15   1   0.5545 -0.2586  0.2809  11.00000  0.05    0.59
Q16   1   0.5964 -0.0838  0.1922  11.00000  0.05    0.59
Q17   1   0.7657  0.3564  0.4178  11.00000  0.05    0.59
Q18   1   0.6044  0.3366  0.3865  11.00000  0.05    0.58
Q19   1   0.9286  1.2427  0.7172  11.00000  0.05    0.56
Q20   1   0.9394  0.9830  0.7225  11.00000  0.05    0.54
;
_shelx_res_checksum              90049
_shelx_hkl_file
;
  -2   0   0 3378.36   85.99
  -2   0   0 3550.34   85.69
  -2   0   0 3320.77   85.59
  -2   0   0 3339.17   85.69
   2   0   0 3322.87   85.59
   2   0   0 3458.25   85.69
  -3   0   0  524.45   12.50
  -3   0   0  494.65   12.60
  -3   0   0  476.45   12.50
  -3   0   0  480.85   12.50
   3   0   0  491.15   12.50
  -4   0   0  354.96    9.20
  -4   0   0  350.06    9.10
  -4   0   0  352.16    9.20
  -4   0   0  372.06    9.10
   4   0   0  368.86    9.10
  -5   0   0  984.50   24.70
  -5   0   0  940.31   24.70
  -5   0   0  961.70   24.80
  -5   0   0 1002.70   24.70
   5   0   0  995.40   24.70
  -6   0   0  546.65   14.00
  -6   0   0  551.24   14.20
  -6   0   0  567.04   14.00
  -6   0   0  530.05   14.00
   6   0   0  556.04   14.00
  -7   0   0   18.60    0.70
  -7   0   0   19.50    0.90
   7   0   0   21.00    0.80
  -8   0   0   35.00    1.40
  -8   0   0   35.00    1.30
  -8   0   0   34.00    1.10
   8   0   0   35.00    1.20
  -9   0   0   11.90    0.90
  -9   0   0   11.70    1.00
   9   0   0   13.00    0.80
 -10   0   0  132.09    4.00
 -10   0   0  134.99    3.80
 -11   0   0    0.90    0.60
  11   0   0    0.60    0.70
  12   0   0    0.50    0.90
  13   0   0   20.40    1.90
  14  -1   0   11.80    1.80
  13  -1   0   33.20    2.10
 -11   1   0    4.70    0.80
  10  -1   0    0.70    0.40
 -10   1   0   -0.20    0.60
 -10   1   0    1.10    0.50
   9  -1   0    3.60    0.50
  -9   1   0    2.90    0.60
  -9   1   0    3.60    0.70
   8  -1   0   39.50    1.30
  -8   1   0   37.40    1.50
  -8   1   0   38.70    1.30
   7  -1   0  189.08    4.70
  -7   1   0  178.78    4.70
  -7   1   0  169.58    4.60
   6  -1   0   62.19    1.70
  -6   1   0   59.79    1.70
  -6   1   0   57.99    1.80
  -6   1   0   57.19    1.60
  -6   1   0   58.49    1.60
   5  -1   0   27.90    0.90
  -5   1   0   27.20    0.80
  -5   1   0   24.40    0.90
  -5   1   0   26.50    0.80
  -5   1   0   25.90    0.80
   4  -1   0    8.00    0.40
  -4   1   0    7.60    0.30
  -4   1   0    7.10    0.40
  -4   1   0    8.60    0.40
  -4   1   0    8.50    0.40
   3  -1   0   52.69    1.50
  -3   1   0   54.19    1.40
  -3   1   0   54.49    1.40
  -3   1   0   53.39    1.50
  -3   1   0   55.99    1.40
   2  -1   0  450.05   11.30
   2  -1   0  436.66   11.30
   2  -1   0  427.96   11.30
  -2   1   0  439.96   11.30
  -2   1   0  451.15   11.30
  -2   1   0  469.05   11.30
  -2   1   0  445.06   11.20
  -1   1   0  253.27    6.90
  -1   1   0  243.98    6.90
  -1   1   0  317.27    6.90
  -1  -1   0    6.50    0.30
  -1  -1   0    6.30    0.20
   1   1   0    6.30    0.20
   1   1   0    6.40    0.30
  -2  -1   0 4509.45  113.69
  -2  -1   0 3881.51  113.19
  -2  -1   0 4530.95  113.89
   2   1   0 5029.20  113.39
  -3  -1   0  290.97    7.40
  -3  -1   0  281.67    7.30
  -3  -1   0  290.67    7.30
  -3  -1   0  285.47    7.40
   3   1   0  299.67    7.30
   3   1   0  279.57    7.30
  -4  -1   0   99.59    2.50
  -4  -1   0   92.79    2.60
  -4  -1   0   97.19    2.60
  -4  -1   0   94.09    2.50
   4   1   0   97.29    2.50
  -5  -1   0  321.17    8.10
  -5  -1   0  311.67    8.20
  -5  -1   0  318.47    8.30
  -5  -1   0  315.37    8.10
   5   1   0  323.67    8.10
  -6  -1   0  450.45   11.60
  -6  -1   0  449.66   11.70
  -6  -1   0  454.95   11.80
  -6  -1   0  458.05   11.60
   6   1   0  467.35   11.60
  -7  -1   0   47.60    1.60
  -7  -1   0   49.60    1.70
  -7  -1   0   47.20    1.40
  -7  -1   0   48.60    1.50
   7   1   0   49.90    1.40
  -8  -1   0  145.69    4.00
  -8  -1   0  147.99    4.00
  -8  -1   0  148.29    4.20
  -8  -1   0  150.18    4.10
   8   1   0  151.48    3.90
  -9  -1   0    4.60    0.60
  -9  -1   0    4.10    0.60
   9   1   0    5.50    0.90
 -10  -1   0    7.60    1.00
  10   1   0    8.10    1.30
 -11  -1   0   14.30    1.30
  11   1   0   13.90    1.70
 -12  -1   0  122.89    3.80
  12   1   0  121.19    4.10
  13   1   0    1.00    1.10
  14  -2   0    4.30    1.40
 -12   2   0   15.00    1.60
 -11   2   0    0.10    0.70
  10  -2   0   13.30    0.90
 -10   2   0   13.10    1.20
 -10   2   0   15.40    1.10
   9  -2   0    1.40    0.40
  -9   2   0    2.00    0.40
  -9   2   0    2.30    0.60
   8  -2   0   -0.20    0.30
  -8   2   0    0.00    0.30
  -8   2   0   -0.30    0.40
   7  -2   0   60.49    1.80
  -7   2   0   61.79    1.80
   6  -2   0   10.00    0.60
  -6   2   0    9.40    0.70
  -6   2   0    9.80    0.50
  -6   2   0    9.60    0.50
   5  -2   0  160.68    4.30
  -5   2   0  169.18    4.20
  -5   2   0  163.48    4.40
  -5   2   0  159.28    4.20
  -5   2   0  162.98    4.20
   4  -2   0  952.40   24.60
  -4   2   0  976.60   24.70
  -4   2   0  953.50   24.50
  -4   2   0  993.20   24.50
  -4   2   0  985.70   24.60
   3  -2   0   31.70    0.90
  -3   2   0   30.40    0.90
  -3   2   0   31.20    1.00
  -3   2   0   32.30    0.90
  -3   2   0   31.50    0.80
   2  -2   0    0.30    0.10
   2  -2   0    0.20    0.10
  -2   2   0    0.20    0.10
  -2   2   0    0.20    0.10
   1  -2   0  121.69    3.20
  -1   2   0  122.69    3.20
  -1   2   0  122.79    3.20
  -1   2   0  126.49    3.20
   0  -2   0  398.96   10.20
   0   2   0  396.66   10.20
   0   2   0  383.26   10.20
   0   2   0  419.16   10.20
   0   2   0  411.96   10.20
  -1  -2   0    3.80    0.30
  -1  -2   0    4.90    0.20
  -1  -2   0    3.90    0.30
   1   2   0    5.00    0.30
   1   2   0    3.70    0.30
  -2  -2   0  245.78    6.10
   2   2   0  234.08    6.10
   2   2   0  241.28    6.20
   2   2   0  237.18    6.10
  -3  -2   0  285.07    7.00
  -3  -2   0  235.88    7.00
  -3  -2   0  276.67    7.10
   3   2   0  297.97    7.10
   3   2   0  277.77    7.00
  -4  -2   0  177.98    4.60
  -4  -2   0  172.18    4.70
  -4  -2   0  177.48    4.60
   4   2   0  180.18    4.70
   4   2   0  183.98    4.70
  -5  -2   0   22.20    0.80
  -5  -2   0   23.20    0.80
  -5  -2   0   21.70    0.80
   5   2   0   21.80    0.90
  -6  -2   0    2.00    0.40
  -6  -2   0    3.00    0.50
  -6  -2   0    3.30    0.60
   6   2   0    2.70    0.40
  -7  -2   0   56.19    1.90
  -7  -2   0   55.39    1.70
  -7  -2   0   56.29    1.70
   7   2   0   56.89    1.90
  -8  -2   0    8.70    0.70
  -8  -2   0    9.60    0.80
  -8  -2   0    8.90    0.70
   8   2   0   10.00    0.90
  -9  -2   0   15.80    1.10
  -9  -2   0   20.60    0.90
   9   2   0   18.90    1.20
 -10  -2   0    0.60    0.60
  10   2   0    1.60    1.10
 -11  -2   0   43.20    1.80
  11   2   0   38.50    3.00
 -12  -2   0   16.20    1.50
  12   2   0   17.90    1.80
  13   2   0   17.90    2.10
  14  -3   0   28.50    2.80
 -13   3   0    4.90    1.10
 -12   3   0    5.70    1.10
  11  -3   0    0.40    0.50
 -11   3   0    1.20    0.70
  10  -3   0   20.90    1.10
 -10   3   0   20.00    1.30
   9  -3   0    6.50    0.70
  -9   3   0    6.10    0.70
  -9   3   0    7.10    0.90
   8  -3   0   63.99    2.10
  -8   3   0   67.29    1.90
  -8   3   0   67.29    2.20
   7  -3   0   -0.30    0.30
  -7   3   0    0.10    0.40
  -7   3   0    0.40    0.20
  -7   3   0    0.40    0.30
   6  -3   0    7.50    0.50
  -6   3   0    7.40    0.50
  -6   3   0    6.50    0.50
  -6   3   0    7.10    0.60
  -6   3   0    6.10    0.40
   5  -3   0    2.40    0.30
  -5   3   0    3.70    0.40
  -5   3   0    2.60    0.40
  -5   3   0    3.00    0.40
   4  -3   0  315.57    8.10
  -4   3   0  321.07    8.10
  -4   3   0  311.97    8.20
  -4   3   0  318.17    8.10
   3  -3   0  105.19    2.80
  -3   3   0  108.29    2.80
  -3   3   0  106.99    2.80
  -3   3   0  106.79    2.90
   2  -3   0   34.70    1.00
  -2   3   0   34.70    1.00
  -2   3   0   35.90    1.00
   1  -3   0   12.90    0.40
   1  -3   0   12.00    0.40
  -1   3   0   11.80    0.50
  -1   3   0   12.40    0.50
  -1   3   0   12.40    0.50
   0  -3   0   38.50    1.20
   0  -3   0   39.90    1.10
   0   3   0   39.90    1.20
   0   3   0   46.40    1.20
  -1  -3   0  222.98    5.60
  -1  -3   0  209.18    5.70
   1   3   0  227.08    5.70
   1   3   0  221.78    5.70
  -2  -3   0   21.70    0.70
  -2  -3   0   21.30    0.70
  -2  -3   0   22.10    0.70
   2   3   0   22.30    0.70
  -3  -3   0    6.60    0.40
  -3  -3   0    6.20    0.40
   3   3   0    6.10    0.40
   3   3   0    7.10    0.40
  -4  -3   0    0.00    0.20
  -4  -3   0    0.10    0.20
  -4  -3   0    0.60    0.20
   4   3   0   -0.20    0.20
   4   3   0    0.40    0.30
  -5  -3   0   26.40    1.00
  -5  -3   0   27.70    1.00
  -5  -3   0   27.50    1.00
   5   3   0   28.00    1.10
  -6  -3   0  418.86   10.60
  -6  -3   0  401.16   10.50
  -6  -3   0  398.06   10.50
   6   3   0  409.96   10.70
  -7  -3   0   33.30    1.20
  -7  -3   0   31.90    1.20
  -7  -3   0   32.80    1.30
   7   3   0   34.30    1.40
  -8  -3   0   24.80    1.20
  -8  -3   0   25.60    1.00
   8   3   0   26.70    1.30
  -9  -3   0   89.79    2.80
   9   3   0   90.09    3.00
 -10  -3   0    0.10    0.60
  10   3   0    0.10    0.70
 -11  -3   0   71.89    2.60
  11   3   0   71.49    2.80
 -12  -3   0   -0.90    0.80
  12   3   0   -1.00    0.90
 -13  -3   0   13.60    1.90
  13   3   0   14.50    2.00
 -13   4   0  143.09    4.70
  12  -4   0   18.90    1.60
 -12   4   0   17.70    1.60
  11  -4   0   14.90    1.10
 -11   4   0   17.20    1.40
  10  -4   0    0.00    0.50
 -10   4   0    0.30    0.60
   9  -4   0   -0.10    0.40
  -9   4   0    0.20    0.50
   8  -4   0   30.70    1.20
  -8   4   0   30.60    1.30
  -7   4   0   -0.30    0.30
  -7   4   0    0.60    0.40
  -7   4   0    0.00    0.30
   6  -4   0   85.69    2.40
  -6   4   0   85.29    2.30
  -6   4   0   84.89    2.30
  -6   4   0   86.69    2.50
   5  -4   0    1.20    0.30
  -5   4   0    0.90    0.20
  -5   4   0    1.10    0.30
  -5   4   0    1.10    0.20
   4  -4   0  254.07    6.60
  -4   4   0  254.67    6.60
  -4   4   0  254.67    6.50
  -4   4   0  249.97    6.50
   3  -4   0  567.04   14.70
   3  -4   0  577.14   14.70
  -3   4   0  568.74   14.70
  -3   4   0  596.94   14.70
  -3   4   0  578.24   14.70
   2  -4   0 4531.95  114.29
   2  -4   0 4465.95  114.29
  -2   4   0 4606.04  114.69
  -2   4   0 4449.75  114.29
   1  -4   0   80.29    2.10
   1  -4   0   81.49    2.20
   1  -4   0   81.49    2.20
  -1   4   0   80.69    2.20
  -1   4   0   79.79    2.20
  -1   4   0   84.09    2.20
   0  -4   0  324.97    8.30
   0  -4   0  327.67    8.30
   0  -4   0  322.57    8.30
   0   4   0  334.47    8.30
   0   4   0  315.67    8.30
  -1  -4   0   13.70    0.50
  -1  -4   0   13.40    0.40
  -1  -4   0   12.60    0.50
   1   4   0   12.90    0.60
   1   4   0   12.90    0.60
  -2  -4   0  274.87    7.00
  -2  -4   0  267.77    7.00
   2   4   0  274.97    7.00
   2   4   0  273.47    7.10
  -3  -4   0  593.34   15.80
  -3  -4   0  632.24   15.80
  -3  -4   0  615.04   15.80
   3   4   0  638.64   15.80
   3   4   0  621.44   15.80
  -4  -4   0   19.70    0.80
  -4  -4   0   21.10    0.80
   4   4   0   20.40    0.80
   4   4   0   20.60    0.80
  -5  -4   0   39.30    1.30
  -5  -4   0   40.70    1.40
  -5  -4   0   43.00    1.30
   5   4   0   40.40    1.40
   5   4   0   38.50    1.40
  -6  -4   0   77.89    2.30
  -6  -4   0   80.19    2.40
  -6  -4   0   73.79    2.20
   6   4   0   74.79    2.40
  -7  -4   0   22.50    1.10
  -7  -4   0   22.30    1.00
   7   4   0   22.90    1.10
  -8  -4   0   94.89    2.80
  -8  -4   0   97.09    2.90
   8   4   0   96.09    3.00
  -9  -4   0    6.70    0.90
  -9  -4   0    6.50    1.00
   9   4   0    6.20    0.90
 -10  -4   0   35.60    1.70
 -10  -4   0   35.20    1.60
  10   4   0   33.50    2.00
 -11  -4   0    0.20    0.70
  11   4   0   -0.20    0.80
 -12  -4   0    4.80    1.00
  12   4   0    6.70    1.10
 -13  -4   0    1.60    1.10
  13   4   0    0.80    1.20
 -13   5   0   11.40    1.80
  12  -5   0    7.10    0.90
 -12   5   0   10.20    1.50
  11  -5   0   12.50    1.10
 -11   5   0   15.20    1.50
  10  -5   0    6.10    0.70
 -10   5   0    4.40    0.80
   9  -5   0    4.70    0.60
  -9   5   0    6.20    0.90
   8  -5   0    1.10    0.40
  -8   5   0    1.20    0.50
   7  -5   0  304.37    8.00
  -7   5   0  301.47    7.80
  -7   5   0  308.07    7.80
  -7   5   0  298.27    8.10
   6  -5   0    0.70    0.30
  -6   5   0    0.90    0.40
  -6   5   0    1.50    0.30
   5  -5   0   69.09    2.00
  -5   5   0   66.09    1.90
  -5   5   0   63.09    2.00
   4  -5   0  299.97    7.80
  -4   5   0  295.37    7.80
  -4   5   0  309.17    7.70
  -4   5   0  295.47    7.70
   3  -5   0  152.88    4.00
   3  -5   0  157.28    4.10
  -3   5   0  153.78    4.00
  -3   5   0  158.88    4.10
  -3   5   0  143.29    4.00
   2  -5   0    0.50    0.20
   2  -5   0    0.40    0.20
  -2   5   0    0.90    0.30
  -2   5   0    1.00    0.20
  -2   5   0    0.60    0.20
   1  -5   0  360.26    9.40
   1  -5   0  368.36    9.40
   1  -5   0  364.46    9.40
  -1   5   0  365.96    9.50
  -1   5   0  382.76    9.50
   0  -5   0    0.30    0.30
   0  -5   0    0.10    0.20
   0  -5   0   -0.10    0.10
   0   5   0    0.50    0.20
  -1  -5   0  214.08    5.60
  -1  -5   0  211.48    5.50
  -1  -5   0  214.38    5.40
   1   5   0  213.08    5.60
   1   5   0  211.78    5.60
  -2  -5   0  171.48    4.50
   2   5   0  169.28    4.50
   2   5   0  168.88    4.50
  -3  -5   0   38.00    1.30
  -3  -5   0   39.30    1.20
   3   5   0   38.90    1.30
   3   5   0   37.80    1.30
  -4  -5   0   -0.10    0.30
  -4  -5   0   -0.10    0.30
  -4  -5   0   -0.50    0.30
   4   5   0    0.70    0.30
   4   5   0   -0.30    0.30
  -5  -5   0    1.40    0.40
  -6  -5   0  242.68    6.40
  -6  -5   0  240.98    6.40
   6   5   0  236.88    6.50
  -7  -5   0   45.80    1.60
  -7  -5   0   48.90    1.70
   7   5   0   46.50    1.70
  -8  -5   0    9.20    1.00
  -8  -5   0    9.20    0.90
   8   5   0    8.40    1.00
  -9  -5   0    1.40    0.60
   9   5   0    1.40    0.70
 -10  -5   0   17.30    1.40
  10   5   0   17.50    2.40
 -11  -5   0    3.20    0.70
 -11  -5   0    1.80    0.80
  11   5   0    3.20    1.00
 -12  -5   0    1.10    1.00
  12   5   0   -0.10    1.10
 -13   6   0    2.70    1.10
  12  -6   0   32.20    1.70
 -12   6   0   31.80    1.90
  11  -6   0    5.20    0.80
 -11   6   0    4.00    0.90
  10  -6   0   81.99    2.70
 -10   6   0   85.99    2.90
   9  -6   0  109.49    3.20
  -9   6   0  104.49    3.40
   8  -6   0   18.20    1.00
  -8   6   0   18.30    0.90
  -8   6   0   19.10    1.10
   7  -6   0   28.20    1.20
  -7   6   0   28.80    1.00
  -7   6   0   27.00    1.20
  -7   6   0   28.50    1.10
   6  -6   0  301.87    7.80
  -6   6   0  292.67    7.90
  -6   6   0  303.97    7.70
  -6   6   0  293.47    7.70
   5  -6   0    0.40    0.30
  -5   6   0    0.50    0.40
   4  -6   0   17.90    0.80
   3  -6   0  414.26   10.70
   3  -6   0  408.16   10.70
  -3   6   0  417.16   10.70
  -3   6   0  423.36   10.70
   2  -6   0   20.90    0.80
   2  -6   0   19.20    0.70
   2  -6   0   19.90    0.70
  -2   6   0   21.50    0.90
  -2   6   0   22.10    0.90
  -2   6   0   22.10    0.80
   1  -6   0  831.42   20.70
   1  -6   0  810.32   20.80
   1  -6   0  817.72   20.80
  -1   6   0  824.92   20.90
  -1   6   0  814.52   20.80
   0  -6   0  289.67    7.40
   0  -6   0  290.27    7.50
   0  -6   0  285.87    7.40
   0   6   0  287.57    7.50
   0   6   0  294.47    7.50
  -1  -6   0   12.50    0.50
  -1  -6   0   12.30    0.60
  -1  -6   0   12.90    0.70
   1   6   0   15.30    0.70
   1   6   0   13.00    0.70
  -2  -6   0  105.99    3.00
  -2  -6   0  105.99    2.90
   2   6   0  109.59    3.00
   2   6   0  109.09    3.00
  -3  -6   0  350.46    9.20
  -3  -6   0  354.66    9.20
   3   6   0  351.86    9.20
   3   6   0  366.26    9.30
  -4  -6   0    2.40    0.40
  -4  -6   0    2.10    0.40
   4   6   0    2.10    0.50
   4   6   0    2.60    0.50
  -5  -6   0   35.90    1.30
  -5  -6   0   35.10    1.30
   5   6   0   35.60    1.40
  -6  -6   0    0.30    0.40
  -6  -6   0    0.00    0.40
   6   6   0   -0.10    0.40
  -7  -6   0   19.30    1.10
  -7  -6   0   18.60    1.10
   7   6   0   16.60    1.10
  -8  -6   0   14.60    2.00
  -8  -6   0   15.30    1.20
   8   6   0   13.80    1.30
  -9  -6   0   59.49    2.70
  -9  -6   0   58.69    2.20
   9   6   0   54.39    2.50
 -10  -6   0   13.30    1.30
 -10  -6   0   13.20    1.40
  10   6   0   12.50    1.50
 -11  -6   0    6.40    1.10
 -11  -6   0    6.60    0.80
  11   6   0   10.50    1.70
 -12  -6   0    6.10    1.10
  12   6   0    2.90    1.20
  13  -7   0    1.30    0.90
 -13   7   0    1.60    1.10
  12  -7   0   36.50    1.80
 -12   7   0   38.20    2.10
  11  -7   0    4.00    0.70
 -11   7   0    5.30    0.90
  10  -7   0    4.30    0.70
 -10   7   0    3.00    0.80
   9  -7   0    3.20    0.60
   7  -7   0    2.30    0.40
  -7   7   0    2.50    0.40
  -7   7   0    2.70    0.50
   6  -7   0   39.00    1.50
  -6   7   0   46.00    1.40
   5  -7   0    4.60    0.60
  -5   7   0    3.30    0.50
  -5   7   0    5.20    0.60
  -5   7   0    4.50    0.60
   4  -7   0  605.44   15.40
  -4   7   0  595.94   15.40
  -4   7   0  611.94   15.50
  -4   7   0  590.14   15.40
   3  -7   0    0.50    0.30
   3  -7   0   -0.30    0.30
  -3   7   0    0.30    0.40
  -3   7   0   -0.30    0.30
  -3   7   0    0.40    0.30
   2  -7   0  145.49    4.00
   2  -7   0  149.19    3.80
  -2   7   0  152.18    4.10
  -2   7   0  145.29    4.00
   1  -7   0  194.88    4.90
   1  -7   0  191.58    5.00
  -1   7   0  190.48    5.10
  -1   7   0  183.58    5.10
   0  -7   0  701.43   18.10
   0  -7   0  710.63   18.00
   0  -7   0  702.43   18.00
   0   7   0  716.23   18.10
   0   7   0  708.53   18.10
  -1  -7   0   64.79    2.00
  -1  -7   0   67.99    1.80
  -1  -7   0   66.49    1.90
   1   7   0   67.29    2.00
   1   7   0   64.69    2.00
  -2  -7   0 1509.05   37.90
  -2  -7   0 1471.05   37.80
   2   7   0 1479.55   37.90
   2   7   0 1510.25   37.80
  -3  -7   0   31.50    1.20
  -3  -7   0   31.60    1.20
   3   7   0   30.70    1.30
  -4  -7   0  529.85   13.70
  -4  -7   0  524.25   13.70
   4   7   0  534.45   13.80
  -5  -7   0    0.70    0.40
  -5  -7   0    1.10    0.50
   5   7   0    0.00    0.50
  -6  -7   0  215.88    5.90
  -6  -7   0  216.18    5.90
   6   7   0  219.98    6.00
  -7  -7   0   10.30    1.10
   7   7   0    6.80    1.20
  -8  -7   0   57.59    2.10
  -8  -7   0   57.59    2.10
   8   7   0   57.09    2.30
  -9  -7   0   66.09    2.80
   9   7   0   64.39    3.30
 -10  -7   0    6.20    0.80
 -10  -7   0    7.50    1.00
  10   7   0    9.50    1.60
 -11  -7   0   11.80    1.70
 -11  -7   0   15.10    1.50
  11   7   0   15.70    1.90
  13  -8   0    1.30    0.90
 -13   8   0    1.30    1.20
  12  -8   0    6.20    1.10
 -12   8   0    5.40    1.10
  11  -8   0   92.69    3.10
 -11   8   0   96.19    3.40
  10  -8   0    1.60    0.70
 -10   8   0    0.80    1.10
   9  -8   0    3.40    0.60
  -9   8   0    3.10    1.00
   8  -8   0   38.90    1.60
  -8   8   0   36.40    1.70
  -8   8   0   40.60    1.80
   7  -8   0  149.29    4.20
  -7   8   0  142.69    4.30
  -7   8   0  148.59    4.00
   6  -8   0    9.20    0.80
  -6   8   0   10.60    0.90
  -6   8   0    9.50    0.80
   5  -8   0   13.70    0.80
  -5   8   0   13.50    0.80
  -5   8   0   14.40    0.90
   4  -8   0   42.60    1.50
  -4   8   0   44.70    1.60
  -4   8   0   43.00    1.50
   3  -8   0    4.00    0.50
  -3   8   0    4.10    0.70
   2  -8   0    1.80    0.50
   2  -8   0    2.00    0.30
   2  -8   0    1.50    0.30
  -2   8   0    1.00    0.40
  -2   8   0    2.10    0.40
   1  -8   0  206.88    5.40
   1  -8   0  202.08    5.50
   1  -8   0  208.48    5.40
  -1   8   0  215.58    5.60
  -1   8   0  201.48    5.50
   0  -8   0   16.90    0.90
   0  -8   0   18.10    0.80
   0  -8   0   17.70    0.70
   0   8   0   17.00    1.00
   0   8   0   20.20    1.00
  -1  -8   0    5.60    0.60
  -1  -8   0    5.00    0.50
  -1  -8   0    4.70    0.60
   1   8   0    3.60    0.60
  -2  -8   0  362.46    9.60
  -2  -8   0  371.96    9.50
   2   8   0  361.56    9.60
   2   8   0  370.86    9.60
  -3  -8   0  254.97    6.80
  -3  -8   0  256.27    6.80
   3   8   0  260.77    6.80
   3   8   0  249.38    6.90
  -4  -8   0  103.39    3.00
  -4  -8   0  102.49    3.00
   4   8   0   99.69    3.10
  -5  -8   0   95.09    2.90
  -5  -8   0   94.49    2.90
   5   8   0   95.49    3.00
  -6  -8   0  145.29    4.10
  -6  -8   0  143.69    4.10
   6   8   0  139.39    4.20
  -7  -8   0   93.69    3.20
  -7  -8   0   90.19    3.40
   7   8   0   94.79    3.30
  -8  -8   0  243.08    6.90
  -8  -8   0  247.58    6.80
   8   8   0  246.88    7.10
  -9  -8   0   18.50    1.50
  -9  -8   0   20.00    1.50
   9   8   0   21.20    1.70
 -10  -8   0    0.10    0.90
 -10  -8   0    1.30    0.80
  10   8   0    2.20    1.00
 -11  -8   0    0.90    0.90
 -11  -8   0   -0.10    1.00
  11   8   0    1.80    1.20
  12  -9   0    0.70    0.80
 -12   9   0    1.40    1.10
  11  -9   0    4.00    0.90
 -11   9   0    3.10    1.00
  10  -9   0    0.70    0.70
 -10   9   0    1.30    0.80
   9  -9   0    0.80    0.60
  -9   9   0    0.20    0.60
  -9   9   0    0.20    0.70
   8  -9   0   38.00    1.60
  -8   9   0   37.70    1.90
   7  -9   0    6.50    0.80
  -7   9   0    6.00    1.00
  -7   9   0    5.00    0.70
   6  -9   0    7.20    0.80
  -6   9   0    5.40    0.90
  -6   9   0    6.60    0.90
   5  -9   0    1.80    0.40
  -5   9   0    2.90    0.50
  -5   9   0    2.40    0.50
   4  -9   0    1.60    0.40
  -4   9   0    2.20    0.50
  -4   9   0    1.40    0.50
   3  -9   0    7.10    0.60
  -3   9   0    8.00    0.80
  -3   9   0    8.00    0.80
   2  -9   0    1.20    0.30
   2  -9   0    0.50    0.50
  -2   9   0    1.10    0.40
  -2   9   0    0.90    0.50
   1  -9   0  219.68    5.70
   1  -9   0  220.48    5.90
   1  -9   0  218.48    5.80
  -1   9   0  220.88    6.00
  -1   9   0  218.48    5.90
   0  -9   0    2.70    0.40
   0  -9   0    2.20    0.40
   0  -9   0    1.90    0.40
   0   9   0    2.30    0.50
   0   9   0    2.50    0.50
  -1  -9   0   14.20    0.70
  -1  -9   0   13.20    0.70
  -1  -9   0   13.80    1.00
   1   9   0   12.30    0.90
   1   9   0   12.70    1.00
  -2  -9   0    0.80    0.50
  -2  -9   0    0.30    0.40
   2   9   0    0.30    0.50
   2   9   0    0.50    0.60
  -3  -9   0    6.80    0.70
  -3  -9   0    4.90    0.80
   3   9   0    6.30    0.90
  -4  -9   0  130.89    3.80
  -4  -9   0  135.89    3.90
   4   9   0  134.69    4.00
  -5  -9   0  266.17    7.30
  -5  -9   0  269.57    7.40
   5   9   0  267.77    7.40
  -6  -9   0    7.30    1.10
  -6  -9   0    5.00    0.80
   6   9   0    5.10    0.80
  -7  -9   0    1.20    0.70
  -7  -9   0    2.30    0.70
   7   9   0    3.10    0.80
  -8  -9   0    4.60    0.90
  -8  -9   0    6.30    0.90
   8   9   0    6.00    1.00
  -9  -9   0   -0.30    0.90
  -9  -9   0    0.10    0.80
   9   9   0    0.80    0.90
 -10  -9   0    4.60    1.00
 -10  -9   0    1.00    1.00
  10   9   0    3.00    1.10
  12 -10   0   12.30    1.60
 -12  10   0   15.30    1.90
  11 -10   0    1.20    0.80
 -11  10   0    1.20    1.00
  10 -10   0   28.10    1.60
 -10  10   0   27.10    1.90
   9 -10   0    0.40    0.70
  -9  10   0   -0.20    0.70
  -9  10   0   -0.20    0.60
   8 -10   0   26.40    1.40
  -8  10   0   27.60    1.60
   7 -10   0    2.20    0.60
  -7  10   0    2.00    0.60
  -7  10   0    1.90    0.70
   6 -10   0   -0.10    0.40
  -6  10   0   -0.40    1.00
  -6  10   0    0.40    0.60
   5 -10   0   18.40    1.00
  -5  10   0   17.00    1.10
  -5  10   0   18.50    1.20
   4 -10   0    6.30    0.70
  -4  10   0    6.00    0.90
  -4  10   0    5.40    0.90
   3 -10   0   52.99    1.70
  -3  10   0   49.60    1.90
  -3  10   0   54.39    1.90
   2 -10   0    4.40    0.60
   2 -10   0    4.70    0.50
  -2  10   0    5.00    0.80
  -2  10   0    6.50    0.90
   1 -10   0   20.70    0.90
  -1  10   0   20.90    1.80
  -1  10   0   20.90    1.20
   0 -10   0    1.70    0.40
   0 -10   0    1.70    0.40
   0 -10   0    1.40    0.50
   0  10   0    1.70    0.60
   0  10   0    2.00    0.60
  -1 -10   0    0.70    0.50
  -1 -10   0    0.60    0.30
  -1 -10   0    0.20    0.40
   1  10   0    0.70    0.60
   1  10   0    0.10    0.50
  -2 -10   0    0.70    0.40
   2  10   0    0.00    0.50
   2  10   0    0.20    0.60
  -3 -10   0    3.50    0.50
  -3 -10   0    2.90    0.60
   3  10   0    3.60    0.70
  -4 -10   0   -0.40    0.50
  -4 -10   0    0.60    0.60
   4  10   0    0.60    0.70
  -5 -10   0   43.50    1.90
  -5 -10   0   41.80    1.80
   5  10   0   41.30    1.90
  -6 -10   0   25.10    1.60
  -6 -10   0   25.70    1.60
   6  10   0   24.30    1.60
  -7 -10   0   52.39    2.10
   7  10   0   48.90    2.30
  -8 -10   0   10.80    1.40
  -8 -10   0   15.00    1.50
   8  10   0   11.30    1.70
  -9 -10   0   15.90    1.70
  -9 -10   0   15.60    1.70
   9  10   0   13.00    1.80
 -10 -10   0    2.30    1.20
 -10 -10   0    4.10    1.20
  10  10   0    4.10    1.40
  11 -11   0   56.59    2.40
 -11  11   0   55.69    2.70
  10 -11   0    0.10    0.80
 -10  11   0    1.40    1.00
   9 -11   0    1.90    0.70
  -9  11   0    1.00    0.70
  -9  11   0    2.50    0.90
   8 -11   0    1.20    0.70
  -8  11   0    1.30    1.10
  -8  11   0    0.80    0.60
   7 -11   0   -0.10    0.70
  -7  11   0    1.30    0.60
  -7  11   0    0.30    0.70
   6 -11   0    0.40    0.50
  -6  11   0    1.00    0.60
  -6  11   0    0.60    0.70
   5 -11   0    0.50    0.50
  -5  11   0   -0.10    0.60
  -5  11   0    0.10    0.60
   4 -11   0  152.38    4.40
  -4  11   0  155.78    4.50
  -4  11   0  163.48    4.60
   3 -11   0    0.80    0.40
  -3  11   0    0.20    0.60
  -3  11   0    0.30    0.60
   2 -11   0  213.08    5.80
  -2  11   0  215.18    6.00
  -2  11   0  220.58    6.00
   1 -11   0    8.90    0.70
   1 -11   0    8.10    0.70
  -1  11   0    6.60    1.00
  -1  11   0   10.00    1.10
   0 -11   0  164.38    4.70
   0 -11   0  175.08    4.70
   0  11   0  177.58    4.90
   0  11   0  168.08    4.90
  -1 -11   0   40.50    1.80
  -1 -11   0   42.60    1.50
   1  11   0   43.00    1.80
  -2 -11   0    4.60    0.60
  -2 -11   0    7.50    1.10
   2  11   0    7.90    1.40
  -3 -11   0   16.30    1.30
  -3 -11   0   14.90    1.00
   3  11   0   12.50    1.30
  -4 -11   0    2.20    0.60
  -4 -11   0    2.40    0.70
   4  11   0    2.60    0.80
  -5 -11   0    4.10    0.80
  -5 -11   0    4.90    0.80
   5  11   0    2.90    0.90
  -6 -11   0    2.20    0.80
  -6 -11   0    1.90    0.70
   6  11   0    1.40    1.00
  -7 -11   0    0.60    0.80
  -7 -11   0    0.20    0.70
   7  11   0   -0.70    1.00
  -8 -11   0    6.80    1.10
  -8 -11   0    9.50    1.70
   8  11   0    6.90    1.30
  -9 -11   0    1.10    1.10
  -9 -11   0    2.80    1.00
   9  11   0    1.50    1.20
  10 -12   0   31.90    1.90
 -10  12   0   31.10    2.20
   9 -12   0   36.40    1.90
  -9  12   0   37.20    1.80
  -9  12   0   37.30    2.20
   8 -12   0    2.00    0.80
  -8  12   0    3.90    0.90
  -8  12   0    3.50    0.80
   7 -12   0    1.40    0.70
  -7  12   0    1.30    0.80
  -7  12   0    2.10    0.70
   6 -12   0    9.90    1.10
  -6  12   0   12.90    1.40
  -6  12   0   13.40    1.40
   5 -12   0  117.69    3.60
  -5  12   0  117.69    3.60
  -5  12   0  121.49    3.80
   4 -12   0   17.90    1.10
  -4  12   0   17.20    1.40
  -4  12   0   19.30    1.40
   3 -12   0   51.89    1.80
  -3  12   0   52.09    2.10
  -3  12   0   50.39    2.10
   2 -12   0    0.90    0.50
  -2  12   0    0.20    0.60
  -2  12   0   -0.20    0.70
   1 -12   0   12.90    0.90
  -1  12   0   14.30    1.20
  -1  12   0   13.00    1.40
   0 -12   0  212.88    5.70
   0 -12   0  210.08    5.60
   0  12   0  209.28    5.90
   0  12   0  208.58    6.00
  -1 -12   0   95.69    2.90
   1  12   0   96.49    3.20
   1  12   0   94.79    3.20
  -2 -12   0    0.90    0.50
  -2 -12   0    0.40    0.80
   2  12   0    0.90    0.80
  -3 -12   0    1.10    0.70
  -3 -12   0    0.20    0.60
   3  12   0   -0.70    0.80
  -4 -12   0   17.50    1.30
  -4 -12   0   21.10    1.60
   4  12   0   15.00    2.50
  -5 -12   0   17.30    1.60
  -5 -12   0   14.90    1.30
   5  12   0   15.30    1.60
  -6 -12   0   -0.30    0.70
  -6 -12   0    0.40    0.90
   6  12   0   -0.30    0.90
  -7 -12   0   10.80    1.80
  -7 -12   0   11.20    1.50
   7  12   0    8.90    1.30
  -8 -12   0   16.20    1.80
  -8 -12   0   20.30    2.10
   8  12   0   12.50    2.00
   9 -13   0   11.10    1.50
  -9  13   0    8.80    1.50
  -9  13   0   10.30    1.80
   8 -13   0   78.99    2.80
  -8  13   0   78.39    2.80
  -8  13   0   82.09    3.20
   7 -13   0   29.90    1.70
  -7  13   0   28.30    2.00
  -7  13   0   31.20    1.80
   6 -13   0    0.30    0.60
  -6  13   0    1.10    0.90
  -6  13   0    0.80    0.80
   5 -13   0   -0.50    0.70
  -5  13   0    0.60    1.00
  -5  13   0   -0.70    1.40
   4 -13   0   13.90    1.20
  -4  13   0   14.30    1.40
  -4  13   0   18.10    1.50
   3 -13   0   33.30    1.50
  -3  13   0   34.90    1.90
  -3  13   0   30.90    1.80
   2 -13   0    7.10    0.70
  -2  13   0    9.60    1.50
  -2  13   0    8.80    1.30
   1 -13   0   55.49    1.90
  -1  13   0   56.89    2.30
  -1  13   0   57.09    2.40
   0  13   0    7.70    1.10
   0  13   0    6.60    1.00
  -1 -13   0   27.90    1.30
   1  13   0   24.40    1.70
  -2 -13   0    1.00    0.60
   2  13   0    1.90    1.40
  -3 -13   0   13.30    1.10
   3  13   0   13.30    1.60
  -4 -13   0    0.60    0.70
  -4 -13   0    0.20    1.10
   4  13   0    0.50    1.00
  -5 -13   0   58.39    2.70
  -5 -13   0   55.79    2.40
   5  13   0   61.69    2.70
  -6 -13   0    2.60    1.10
  -6 -13   0    2.00    0.90
   6  13   0   -0.50    1.10
  -7 -13   0   16.70    1.70
  -7 -13   0   18.80    2.10
   7  13   0   11.40    1.90
   8 -14   0   77.59    2.90
  -8  14   0   78.79    3.20
  -8  14   0   81.09    2.90
   7 -14   0    9.00    1.30
  -7  14   0    5.40    1.00
  -7  14   0    5.80    1.10
   6 -14   0   47.00    2.00
  -6  14   0   48.20    2.30
  -6  14   0   45.90    2.40
   5 -14   0    0.60    0.70
  -5  14   0    0.10    0.80
  -5  14   0   -0.10    0.90
   4 -14   0   23.10    1.40
  -4  14   0   25.10    1.80
  -4  14   0   23.50    1.80
   3 -14   0    1.10    0.60
  -3  14   0    0.20    0.80
  -3  14   0    0.70    1.20
   2 -14   0  163.68    4.80
  -2  14   0  175.58    5.20
  -2  14   0  170.78    5.20
  -1  14   0    0.80    0.90
  -1  14   0    0.80    1.00
   0  14   0    4.50    1.00
   1  14   0    1.20    0.90
  -2 -14   0    2.20    1.30
   2  14   0    0.90    1.00
  -3 -14   0   -0.60    0.80
   3  14   0    0.70    1.00
  -4 -14   0   -0.70    0.90
   4  14   0    0.40    1.10
  -5 -14   0   21.20    1.70
   5  14   0   18.50    2.10
  -6 -14   0   69.29    2.90
  -6 -14   0   69.79    3.20
   6  14   0   66.99    3.60
   7 -15   0   41.30    2.00
  -7  15   0   41.60    2.50
  -7  15   0   41.00    2.30
   6 -15   0    1.30    0.80
  -6  15   0    2.00    1.10
  -6  15   0   -0.70    1.00
   5 -15   0   88.99    3.00
  -5  15   0   88.69    3.30
  -5  15   0   86.09    3.40
   4 -15   0   85.19    2.90
  -4  15   0   85.99    3.30
  -4  15   0   81.49    3.20
   3 -15   0    3.80    0.80
  -3  15   0    3.00    1.10
  -3  15   0    3.00    1.00
  -2  15   0    0.20    1.10
  -2  15   0   -0.10    1.00
  -1  15   0    6.00    1.10
  -1  15   0    6.00    2.20
   0  15   0   -0.50    0.90
   1  15   0    7.80    1.20
   2  15   0   19.00    1.90
   3  15   0   39.10    2.50
  -4 -15   0   22.00    1.80
   4  15   0   22.60    2.20
   5 -16   0    0.50    0.90
  -5  16   0    0.00    1.10
  -5  16   0    0.00    1.20
  -4  16   0    0.70    1.10
  -4  16   0    1.50    1.20
  -3  16   0   19.70    2.30
  -3  16   0   21.10    2.00
  -2  16   0    1.10    1.20
  -2  16   0    2.40    1.10
  -1  16   0    6.50    1.20
   0  16   0   -1.40    1.10
   1  16   0   54.69    2.70
   2  16   0    3.30    1.70
   2  16  -1    0.50    1.20
   1  16  -1   13.50    1.90
   0  16  -1   -1.10    1.10
  -1  16  -1    3.90    1.20
  -2  16  -1    1.10    1.20
  -2  16  -1    0.20    1.00
  -3  16  -1    4.00    1.30
  -3  16  -1    5.30    1.20
  -4  16  -1   -0.40    1.10
  -4  16  -1    0.20    1.00
   4 -16   1    1.20    0.90
  -5  16  -1    5.60    1.30
  -5  16  -1    5.40    1.20
   5 -16   1    6.70    1.00
   4  15  -1  317.37    9.10
  -4 -15   1  324.77    8.80
   3  15  -1   26.80    2.20
  -3 -15   1   31.40    2.00
   2  15  -1   16.90    1.90
   1  15  -1   35.60    2.10
   0  15  -1    3.30    1.00
  -1  15  -1    0.10    0.90
  -1  15  -1    2.80    1.20
  -2  15  -1   84.29    3.20
  -2  15  -1   83.39    3.40
  -3  15  -1    0.20    1.00
  -3  15  -1    0.70    1.00
  -4  15  -1    7.40    1.20
  -4  15  -1    7.80    1.10
   4 -15   1   10.50    1.30
  -5  15  -1   -0.40    1.00
  -5  15  -1   -0.80    0.90
   5 -15   1   -1.10    0.70
  -6  15  -1   30.50    2.20
  -6  15  -1   27.60    2.10
   6 -15   1   30.60    1.80
  -7  15  -1   31.90    2.30
  -7  15  -1   27.50    2.10
   7 -15   1   32.60    1.80
   6  14  -1    1.00    1.30
  -6 -14   1    2.60    1.50
  -6 -14   1    2.60    1.10
   5  14  -1  196.28    6.10
  -5 -14   1  199.88    5.80
   4  14  -1   -1.50    1.00
  -4 -14   1   -1.10    0.80
   3  14  -1   10.70    1.60
  -3 -14   1    8.20    1.20
   2  14  -1   55.99    2.50
  -2 -14   1   55.39    2.50
   1  14  -1    2.10    1.00
   0  14  -1  117.49    3.90
   0  14  -1  117.59    4.00
  -1  14  -1   60.79    2.70
  -1  14  -1   58.49    2.50
  -2  14  -1   72.49    2.80
  -2  14  -1   71.59    2.70
   2 -14   1   66.59    2.30
  -3  14  -1    1.90    0.80
   3 -14   1    2.40    0.70
  -4  14  -1   19.20    1.70
  -4  14  -1   17.90    1.60
   4 -14   1   19.00    1.30
  -5  14  -1   -0.20    0.90
  -5  14  -1    0.10    0.80
   5 -14   1    0.80    0.60
  -6  14  -1    0.30    0.90
  -6  14  -1    0.20    0.80
   6 -14   1    0.90    0.80
  -7  14  -1    3.10    0.90
  -7  14  -1    3.40    1.10
   7 -14   1    2.60    0.80
  -8  14  -1  182.18    5.30
  -8  14  -1  183.78    5.70
   8 -14   1  176.88    5.40
   7  13  -1   25.10    2.20
  -7 -13   1   27.90    2.30
  -7 -13   1   31.50    1.90
  -6 -13   1   -0.60    0.90
  -6 -13   1    2.80    1.00
   5  13  -1    3.20    1.10
  -5 -13   1    4.90    1.10
  -5 -13   1    3.30    0.80
   4  13  -1   10.00    1.60
  -4 -13   1   13.80    1.80
  -4 -13   1    9.60    1.20
   3  13  -1    6.90    1.10
  -3 -13   1    5.70    0.80
   2  13  -1    7.80    1.30
  -2 -13   1    8.00    1.00
   1  13  -1    2.40    0.80
  -1 -13   1    2.00    0.60
   0  13  -1   17.40    1.60
   0  13  -1   16.50    1.40
   0 -13   1   17.80    1.10
  -1  13  -1   51.79    2.20
  -1  13  -1   48.80    2.10
   1 -13   1   43.90    1.70
  -2  13  -1    4.50    0.90
  -2  13  -1    3.20    0.80
   2 -13   1    3.40    0.60
  -3  13  -1    1.30    0.80
  -3  13  -1   -0.20    0.70
   3 -13   1    0.40    0.50
  -4  13  -1    0.40    0.70
  -4  13  -1   -0.60    0.70
   4 -13   1    0.20    0.50
  -5  13  -1    7.80    1.10
   5 -13   1    7.70    1.10
  -6  13  -1    2.80    0.90
  -6  13  -1    0.70    0.80
   6 -13   1    1.00    0.70
  -7  13  -1   68.29    2.80
  -7  13  -1   72.39    2.60
   7 -13   1   70.49    2.60
  -8  13  -1   13.40    1.50
  -8  13  -1   14.90    1.70
  -9  13  -1    1.40    0.80
  -9  13  -1    1.00    1.00
   9 -13   1    2.10    0.90
 -10  13  -1   40.00    2.70
  -8 -12   1    6.20    1.10
  -8 -12   1    4.30    1.10
   7  12  -1   -0.40    1.00
  -7 -12   1   -1.10    0.80
  -7 -12   1    1.00    0.90
   6  12  -1    0.60    0.90
  -6 -12   1    0.00    0.70
  -6 -12   1    0.90    0.80
   5  12  -1    0.00    0.80
  -5 -12   1    0.80    0.80
  -5 -12   1    1.70    0.70
   4  12  -1   -0.50    0.80
  -4 -12   1    0.20    0.60
  -4 -12   1   -0.80    0.80
   3  12  -1    9.50    1.30
  -3 -12   1   14.40    1.40
  -3 -12   1   12.80    1.10
   2  12  -1  111.09    3.50
  -2 -12   1  108.59    3.30
   1  12  -1   23.80    1.60
   1  12  -1   22.30    1.40
  -1 -12   1   20.90    1.10
   0  12  -1    2.10    0.70
   0  12  -1    3.70    0.80
   0 -12   1    2.30    0.50
   0 -12   1    2.70    0.50
  -1  12  -1   43.00    1.90
  -1  12  -1   40.60    1.80
   1 -12   1   40.40    1.50
   1 -12   1   41.90    1.50
  -2  12  -1  104.49    3.30
  -2  12  -1   99.99    3.30
   2 -12   1  102.79    3.00
  -3  12  -1    3.50    0.70
  -3  12  -1    2.80    0.70
   3 -12   1    2.90    0.50
  -4  12  -1    5.30    0.80
  -4  12  -1    4.10    0.80
   4 -12   1    4.30    0.70
  -5  12  -1    0.70    0.70
  -5  12  -1    1.20    1.00
   5 -12   1    0.70    0.50
  -6  12  -1   -0.10    0.70
  -6  12  -1    0.20    0.70
   6 -12   1    0.40    0.60
  -7  12  -1    1.30    1.30
  -7  12  -1    1.90    0.70
   7 -12   1    0.50    0.70
  -8  12  -1    2.80    0.70
  -8  12  -1    2.50    0.90
   8 -12   1    2.40    0.70
  -9  12  -1    4.40    1.00
  -9  12  -1    4.50    0.80
   9 -12   1    4.00    1.00
 -10  12  -1    0.50    1.00
  10 -12   1    0.60    0.80
   9  11  -1    2.00    1.20
  -9 -11   1    3.80    1.10
  -9 -11   1    2.20    1.00
   8  11  -1    0.30    1.00
  -8 -11   1    0.70    0.80
  -8 -11   1   -0.50    0.80
   7  11  -1    9.00    1.50
  -7 -11   1    9.50    1.30
  -7 -11   1    7.70    1.00
   6  11  -1   18.10    1.60
  -6 -11   1   23.40    1.60
  -6 -11   1   21.00    1.40
   5  11  -1    1.80    0.80
  -5 -11   1    2.70    0.80
  -5 -11   1    2.70    0.70
   4  11  -1    3.80    1.00
  -4 -11   1    4.30    0.70
  -4 -11   1    4.30    0.80
   3  11  -1    0.60    0.70
  -3 -11   1    1.90    0.50
  -3 -11   1    1.60    0.70
   2  11  -1   -0.10    0.60
   2  11  -1   -0.30    0.80
  -2 -11   1   -0.40    0.60
  -2 -11   1    0.10    0.50
   1  11  -1    3.90    0.70
   1  11  -1    4.20    0.70
  -1 -11   1    3.90    0.50
  -1 -11   1    4.40    0.60
  -1 -11   1    6.30    1.00
   0  11  -1   21.00    1.30
   0  11  -1   20.30    1.30
   0 -11   1   21.30    1.00
   0 -11   1   21.80    1.00
  -1  11  -1    8.60    1.00
  -1  11  -1    5.10    0.70
   1 -11   1    5.90    0.70
   1 -11   1    6.90    0.70
  -2  11  -1    2.10    0.60
  -2  11  -1    2.30    0.60
   2 -11   1    1.70    0.50
   2 -11   1    1.80    0.40
  -3  11  -1   18.80    1.30
  -3  11  -1   16.90    1.20
   3 -11   1   19.30    1.00
  -4  11  -1  241.48    6.60
  -4  11  -1  236.08    6.50
   4 -11   1  233.88    6.40
  -5  11  -1    0.70    0.60
  -5  11  -1    0.40    0.60
   5 -11   1   -0.30    0.50
  -6  11  -1  148.09    4.40
   6 -11   1  145.19    4.30
  -7  11  -1    2.50    0.70
  -7  11  -1    2.40    0.80
   7 -11   1    2.40    0.60
  -8  11  -1   10.30    1.40
  -8  11  -1    9.60    1.10
   8 -11   1    8.60    1.10
  -9  11  -1   11.90    1.50
   9 -11   1   13.40    1.30
 -10  11  -1   46.70    2.30
  10 -11   1   45.80    2.10
 -11  11  -1   10.60    1.80
  11 -11   1   11.20    1.60
  10  10  -1    4.00    1.20
 -10 -10   1    4.00    1.20
 -10 -10   1    3.50    1.00
   9  10  -1    7.90    1.20
  -9 -10   1    6.30    1.00
  -9 -10   1    7.50    1.20
   8  10  -1   14.60    1.60
  -8 -10   1   14.50    1.60
  -8 -10   1   13.90    1.40
   7  10  -1   16.50    1.70
  -7 -10   1   18.20    1.50
  -7 -10   1   17.90    1.30
   6  10  -1    1.50    0.80
  -6 -10   1    0.00    0.70
  -6 -10   1    0.50    0.60
   5  10  -1  134.99    4.10
  -5 -10   1  137.09    4.10
  -5 -10   1  136.99    4.00
   4  10  -1    1.30    0.60
  -4 -10   1    0.60    0.50
  -4 -10   1    1.10    0.60
   3  10  -1   24.30    1.30
  -3 -10   1   23.20    1.10
  -3 -10   1   25.60    1.40
   2  10  -1   10.30    1.20
   2  10  -1    8.30    1.00
  -2 -10   1    9.90    0.80
  -2 -10   1    8.40    1.00
   1  10  -1    0.10    0.50
   1  10  -1    0.50    0.50
  -1 -10   1    0.60    0.40
  -1 -10   1    0.00    0.50
  -1 -10   1    0.30    0.30
   0  10  -1    4.90    0.80
   0  10  -1    3.80    0.60
   0 -10   1    5.40    0.60
   0 -10   1    4.50    0.60
   0 -10   1    5.20    0.90
  -1  10  -1    6.50    0.90
  -1  10  -1    5.00    0.80
   1 -10   1    5.90    0.60
  -2  10  -1    9.60    0.90
  -2  10  -1    8.40    0.90
   2 -10   1    9.00    0.60
   2 -10   1    8.50    0.70
  -3  10  -1   14.90    1.00
  -3  10  -1   14.60    1.00
   3 -10   1   15.00    0.90
  -4  10  -1    2.30    0.60
  -4  10  -1    2.70    0.60
   4 -10   1    3.00    0.50
  -5  10  -1    5.60    0.90
  -5  10  -1    6.40    0.90
   5 -10   1    4.20    0.50
  -6  10  -1    6.20    1.00
  -6  10  -1    5.80    1.00
   6 -10   1    6.70    0.90
  -7  10  -1   10.20    1.20
   7 -10   1   10.60    1.00
  -8  10  -1    2.80    0.60
  -8  10  -1    2.50    0.80
   8 -10   1    3.60    0.70
  -9  10  -1    2.80    1.10
   9 -10   1    2.50    0.70
 -10  10  -1   -0.30    0.80
  10 -10   1   -0.50    0.70
 -11  10  -1    1.50    1.00
  11 -10   1    2.60    0.90
 -12  10  -1    4.20    1.20
  12 -10   1    3.90    0.90
  10   9  -1   11.40    1.80
 -10  -9   1   11.40    1.70
 -10  -9   1   11.30    1.70
   9   9  -1   27.90    1.90
  -9  -9   1   29.80    1.80
  -9  -9   1   27.40    1.70
   8   9  -1   21.90    1.70
  -8  -9   1   17.90    1.50
   7   9  -1   36.00    1.80
  -7  -9   1   31.60    1.70
  -7  -9   1   32.40    1.90
   6   9  -1   43.50    1.90
  -6  -9   1   42.20    1.80
  -6  -9   1   38.90    1.80
   5   9  -1   97.99    3.10
  -5  -9   1   96.59    3.00
  -5  -9   1   92.29    2.90
   4   9  -1    1.60    0.60
  -4  -9   1    2.00    0.60
  -4  -9   1    0.90    0.50
   3   9  -1  120.19    3.50
   3   9  -1  119.99    3.50
  -3  -9   1  123.49    3.50
  -3  -9   1  116.69    3.40
   2   9  -1  216.98    6.20
   2   9  -1  234.58    6.20
  -2  -9   1  227.78    6.10
  -2  -9   1  234.48    6.20
  -2  -9   1  229.28    5.90
   1   9  -1    1.00    0.50
   1   9  -1    0.40    0.40
  -1  -9   1    0.80    0.30
  -1  -9   1    0.60    0.40
  -1  -9   1    0.30    0.40
   0   9  -1   35.50    1.40
   0   9  -1   34.10    1.40
   0  -9   1   35.40    1.40
   0  -9   1   33.60    1.20
   0  -9   1   34.20    1.10
  -1   9  -1  105.09    3.10
  -1   9  -1  105.19    3.00
   1  -9   1  102.79    2.90
   1  -9   1  101.39    3.00
   1  -9   1  105.29    2.90
  -2   9  -1    2.00    0.50
   2  -9   1    2.40    0.30
   2  -9   1    1.10    0.60
  -3   9  -1   57.49    1.90
  -3   9  -1   57.49    1.90
   3  -9   1   60.39    1.60
   3  -9   1   56.59    1.80
  -4   9  -1    1.90    0.50
  -4   9  -1    1.90    0.50
   4  -9   1    2.20    0.40
  -5   9  -1   15.30    1.00
  -5   9  -1   14.50    1.00
   5  -9   1   14.60    0.90
  -6   9  -1   -0.30    0.50
  -6   9  -1    0.00    0.40
   6  -9   1   -0.10    0.40
  -7   9  -1    6.50    1.00
  -7   9  -1    6.40    1.00
   7  -9   1    6.10    0.80
  -8   9  -1   18.00    1.00
  -8   9  -1   16.10    1.30
   8  -9   1   15.80    1.10
  -9   9  -1   10.00    1.30
   9  -9   1   11.30    1.10
 -10   9  -1   31.20    1.90
  10  -9   1   35.00    1.70
 -11   9  -1    8.80    1.20
  11  -9   1    9.70    1.30
 -12   9  -1    2.20    1.00
  12  -9   1    3.00    0.90
  11   8  -1    2.30    1.10
 -11  -8   1    1.20    1.00
 -11  -8   1    0.20    0.80
  10   8  -1    0.60    1.00
 -10  -8   1    0.40    0.90
 -10  -8   1    2.20    0.90
   9   8  -1    0.50    0.90
  -9  -8   1   -0.10    0.70
  -9  -8   1    0.20    0.70
   8   8  -1   43.30    2.00
  -8  -8   1   35.90    1.80
  -8  -8   1   42.00    1.90
   7   8  -1    4.50    0.80
  -7  -8   1    3.20    0.70
  -7  -8   1    4.30    0.70
   6   8  -1    3.00    0.70
  -6  -8   1    1.60    0.60
  -6  -8   1    2.80    0.60
   5   8  -1   20.60    1.20
  -5  -8   1   22.50    1.10
  -5  -8   1   22.90    1.30
   4   8  -1  972.00   24.60
  -4  -8   1  977.60   24.50
  -4  -8   1  923.71   24.70
   3   8  -1   11.40    1.00
   3   8  -1    9.60    0.90
  -3  -8   1    9.40    0.90
  -3  -8   1    8.10    0.70
   2   8  -1  887.01   22.70
  -2  -8   1  892.01   22.60
  -2  -8   1  870.41   22.50
  -2  -8   1  902.71   22.70
   1   8  -1  743.63   19.10
   1   8  -1  757.92   19.20
  -1  -8   1  733.63   19.00
  -1  -8   1  748.23   19.10
  -1  -8   1  754.92   19.20
   0   8  -1  876.91   22.80
   0   8  -1  905.01   22.80
   0  -8   1  901.21   22.70
   0  -8   1  886.61   22.60
   0  -8   1  887.01   22.60
  -1   8  -1   16.00    1.00
   1  -8   1   16.80    0.70
   1  -8   1   17.20    0.70
  -2   8  -1    0.20    0.40
  -2   8  -1   -0.40    0.40
   2  -8   1   -0.30    0.40
   2  -8   1    0.70    0.30
   2  -8   1    0.00    0.20
  -3   8  -1  560.04   14.10
  -3   8  -1  538.25   14.00
   3  -8   1  549.85   13.90
   3  -8   1  537.85   14.00
  -4   8  -1  130.29    3.60
  -4   8  -1  127.99    3.70
   4  -8   1  129.09    3.60
  -5   8  -1   30.20    1.20
  -5   8  -1   31.00    1.30
   5  -8   1   30.80    1.20
  -6   8  -1  101.89    2.90
  -6   8  -1  105.19    3.10
   6  -8   1  104.89    3.00
  -7   8  -1   21.40    1.00
  -8   8  -1   18.70    1.20
   8  -8   1   18.20    1.20
  -9   8  -1   79.19    2.80
   9  -8   1   81.09    2.60
 -10   8  -1   29.40    1.80
  10  -8   1   32.20    1.70
 -11   8  -1   15.70    1.60
  11  -8   1   17.30    1.40
 -12   8  -1    0.70    0.90
  12  -8   1   -0.50    0.80
 -13   8  -1    2.30    1.40
  13  -8   1    2.90    1.00
  12   7  -1    5.80    1.60
 -12  -7   1    4.70    1.10
 -12  -7   1    4.50    1.20
  11   7  -1    1.20    1.00
 -11  -7   1    0.00    0.90
 -11  -7   1    1.00    0.80
  10   7  -1   25.50    1.90
 -10  -7   1   23.10    1.60
 -10  -7   1   24.70    1.60
   9   7  -1  121.39    4.10
  -9  -7   1  130.39    3.90
  -9  -7   1  126.09    3.90
   8   7  -1    0.90    0.70
  -8  -7   1   -0.40    0.60
   7   7  -1   16.60    1.20
  -7  -7   1   18.70    1.10
  -7  -7   1   18.30    1.20
   6   7  -1    7.20    0.90
  -6  -7   1    7.40    0.80
   5   7  -1   23.40    1.20
  -5  -7   1   25.50    1.20
  -5  -7   1   24.30    1.10
   4   7  -1  297.87    7.90
   4   7  -1  307.47    8.00
  -4  -7   1  302.77    7.90
  -4  -7   1  295.77    7.90
   3   7  -1  436.06   11.10
   3   7  -1  416.46   11.00
  -3  -7   1  437.56   11.00
  -3  -7   1  415.26   11.00
   2   7  -1  989.90   23.90
   2   7  -1  927.11   23.90
  -2  -7   1  925.21   23.80
  -2  -7   1  924.41   23.80
  -2  -7   1  912.01   23.60
   0  -7   1  106.29    3.00
   0  -7   1  119.19    3.20
   0  -7   1  113.29    3.00
  -1   7  -1   59.09    1.70
  -1   7  -1   59.29    1.70
   1  -7   1   52.99    1.60
   1  -7   1   52.89    1.60
   1  -7   1   54.39    1.70
  -2   7  -1   78.09    2.40
  -2   7  -1   82.59    2.40
  -2   7  -1   87.39    2.40
   2  -7   1   82.49    2.20
   2  -7   1   79.99    2.30
   2  -7   1   79.59    2.30
  -3   7  -1  344.67    9.10
  -3   7  -1  361.26    9.20
   3  -7   1  354.26    9.10
   3  -7   1  346.07    9.10
  -4   7  -1  996.90   24.70
  -4   7  -1  941.21   24.50
  -4   7  -1  971.20   24.50
   4  -7   1  953.70   24.60
  -5   7  -1   27.60    1.10
  -5   7  -1   30.60    1.20
   5  -7   1   30.90    1.10
  -6   7  -1  106.19    3.20
  -6   7  -1  103.19    2.90
  -6   7  -1  111.99    3.00
   6  -7   1  105.69    3.10
  -7   7  -1    0.30    0.30
  -7   7  -1    0.40    0.40
  -7   7  -1    0.20    0.40
   7  -7   1    0.30    0.40
  -8   7  -1   20.80    1.20
   8  -7   1   21.00    1.10
  -9   7  -1    9.10    1.10
   9  -7   1    9.50    1.00
 -10   7  -1  220.68    6.30
  10  -7   1  223.98    6.20
 -11   7  -1   -1.10    0.80
  11  -7   1    0.40    0.70
 -12   7  -1    9.20    1.60
  12  -7   1    8.30    1.30
 -13   7  -1    0.70    1.10
  13  -7   1   -0.60    0.90
  12   6  -1   13.30    2.00
 -12  -6   1   11.20    1.70
 -12  -6   1   12.30    1.50
  11   6  -1   28.80    2.10
 -11  -6   1   28.40    1.80
 -11  -6   1   27.20    1.70
  10   6  -1    2.50    0.90
 -10  -6   1    1.20    0.70
 -10  -6   1    3.20    0.80
   9   6  -1   -1.00    0.70
  -9  -6   1   -1.00    0.70
   8   6  -1   16.10    1.20
  -8  -6   1   16.60    1.20
  -8  -6   1   18.50    1.10
   7   6  -1   18.40    1.20
  -7  -6   1   20.40    1.10
  -7  -6   1   20.10    1.10
   6   6  -1   20.10    1.10
  -6  -6   1   20.80    1.00
  -6  -6   1   20.30    1.00
   5   6  -1  224.08    6.10
  -5  -6   1  225.68    6.00
   4   6  -1    7.40    0.70
   4   6  -1    5.10    0.70
  -4  -6   1    7.00    0.60
  -4  -6   1    6.30    0.60
  -3  -6   1    3.00    0.50
  -2  -6   1    0.80    0.30
  -2  -6   1    0.40    0.30
   1   6  -1   18.80    0.80
   1   6  -1   18.90    0.80
  -1  -6   1   18.10    0.80
  -1  -6   1   17.30    0.70
   0   6  -1  156.98    4.10
   0   6  -1  163.98    4.20
   0   6  -1  150.88    4.00
   0  -6   1  149.39    4.10
  -1   6  -1  168.68    4.10
  -1   6  -1  148.09    4.00
   1  -6   1  139.49    3.90
   1  -6   1  150.68    4.00
  -2   6  -1  102.89    2.90
  -2   6  -1  107.89    2.90
  -2   6  -1  107.09    2.90
   2  -6   1  108.39    2.80
   2  -6   1  103.39    2.90
  -4   6  -1   43.60    1.30
  -4   6  -1   42.00    1.40
  -4   6  -1   45.50    1.40
   4  -6   1   42.80    1.40
  -5   6  -1    0.00    0.30
  -5   6  -1   -0.10    0.30
  -5   6  -1    0.20    0.30
   5  -6   1    0.70    0.30
  -7   6  -1    0.40    0.30
  -7   6  -1    0.40    0.30
  -7   6  -1    1.00    0.50
   7  -6   1    0.30    0.40
  -8   6  -1    0.90    0.50
   8  -6   1    0.00    0.40
  -9   6  -1   55.69    2.10
   9  -6   1   51.59    1.90
 -10   6  -1   29.80    1.60
  10  -6   1   27.60    1.40
 -11   6  -1   26.60    1.70
  11  -6   1   28.50    1.40
 -12   6  -1   15.10    1.70
  12  -6   1   14.90    1.30
 -13   6  -1   -0.40    1.00
  12   5  -1    1.20    1.00
 -12  -5   1   -0.50    0.90
  11   5  -1    5.00    1.00
 -11  -5   1    4.00    0.90
 -11  -5   1    2.40    0.70
  10   5  -1   -0.70    0.70
 -10  -5   1    0.00    0.70
 -10  -5   1   -0.40    1.10
   9   5  -1    0.10    0.70
  -9  -5   1   -0.10    0.50
  -9  -5   1   -0.50    0.50
   8   5  -1   13.10    1.10
  -8  -5   1   12.00    1.00
  -8  -5   1   12.70    0.90
   7   5  -1    0.90    0.50
  -7  -5   1    0.60    0.40
  -7  -5   1    0.50    0.40
   6   5  -1    4.40    0.70
  -6  -5   1    5.00    0.70
  -6  -5   1    4.80    0.70
   5   5  -1   10.70    0.80
   5   5  -1   11.20    0.80
  -5  -5   1   11.10    0.70
  -5  -5   1   10.10    0.70
   4   5  -1  178.28    4.90
   4   5  -1  182.28    4.80
  -4  -5   1  182.78    4.80
   3   5  -1   34.70    1.20
   3   5  -1   33.80    1.20
  -3  -5   1   33.20    1.10
  -3  -5   1   35.00    1.10
   2   5  -1   19.60    0.90
   2   5  -1   20.50    0.80
  -2  -5   1   19.80    0.70
  -2  -5   1   21.10    0.80
   1   5  -1   71.49    2.00
   1   5  -1   69.39    2.00
   1   5  -1   70.29    1.90
  -1  -5   1   69.09    2.00
  -1  -5   1   69.89    1.90
   0   5  -1  441.26   11.20
   0   5  -1  432.46   11.20
   0   5  -1  444.66   11.30
   0  -5   1  442.96   11.20
   0  -5   1  439.46   11.30
  -1   5  -1   16.10    0.60
  -1   5  -1   13.20    0.50
  -1   5  -1   13.80    0.60
  -1   5  -1   13.60    0.60
   1  -5   1   13.30    0.50
   1  -5   1   14.90    0.60
  -2   5  -1  181.08    4.80
  -2   5  -1  187.18    4.80
  -2   5  -1  193.48    4.80
   2  -5   1  180.38    4.80
   2  -5   1  177.68    4.70
  -3   5  -1  153.48    4.00
  -3   5  -1  152.88    4.00
  -3   5  -1  148.09    3.90
  -3   5  -1  152.58    4.00
   3  -5   1  143.89    4.00
  -4   5  -1   75.09    2.20
  -4   5  -1   78.59    2.10
  -4   5  -1   76.39    2.10
   4  -5   1   75.49    2.20
  -5   5  -1   68.89    1.90
  -5   5  -1   70.59    1.90
  -5   5  -1   69.09    2.10
   5  -5   1   69.49    2.00
  -6   5  -1   67.29    1.90
  -6   5  -1   68.19    2.10
   6  -5   1   68.39    2.00
  -7   5  -1  185.08    5.00
   7  -5   1  180.38    4.90
  -8   5  -1   -0.20    0.40
   8  -5   1   -0.50    0.40
  -9   5  -1   78.39    2.70
   9  -5   1   78.29    2.40
 -10   5  -1   -0.20    0.80
  10  -5   1    0.10    0.50
 -11   5  -1    2.20    0.80
  11  -5   1    3.80    0.70
 -12   5  -1    2.50    0.90
  12  -5   1    2.70    0.80
 -13   5  -1   29.10    2.10
  13   4  -1    2.60    1.10
 -13  -4   1    1.10    1.10
  12   4  -1    0.30    1.00
 -12  -4   1    0.00    0.90
  11   4  -1    3.20    1.00
 -11  -4   1    2.50    0.70
 -11  -4   1    2.50    1.20
  10   4  -1   25.70    1.60
 -10  -4   1   26.30    1.40
 -10  -4   1   27.70    1.80
   9   4  -1    2.80    0.70
  -9  -4   1    2.50    0.60
   8   4  -1    4.00    0.70
  -8  -4   1    4.00    0.50
  -8  -4   1    3.40    0.60
   7   4  -1   18.70    1.00
  -7  -4   1   18.00    1.00
  -7  -4   1   19.10    0.90
   6   4  -1  316.07    8.40
   5   4  -1   22.70    1.00
   5   4  -1   23.00    1.00
  -5  -4   1   22.40    0.90
  -5  -4   1   23.30    0.90
   4   4  -1   45.00    1.40
   4   4  -1   49.90    1.40
  -4  -4   1   47.50    1.40
  -4  -4   1   40.00    1.40
  -4  -4   1   44.10    1.40
   3   4  -1  188.78    5.00
   3   4  -1  190.78    4.90
  -3  -4   1  185.18    4.90
  -3  -4   1  186.28    4.90
   2   4  -1    0.10    0.20
  -2  -4   1    0.20    0.20
  -2  -4   1    0.10    0.20
   1   4  -1 1144.49   29.70
   1   4  -1 1164.98   29.40
   1   4  -1 1187.18   29.40
  -1  -4   1 1156.68   29.40
   0   4  -1 1940.11   48.60
   0   4  -1 1914.51   48.80
   0   4  -1 1949.41   49.00
   0  -4   1 1865.91   48.90
   0  -4   1 1932.11   48.70
  -1   4  -1  656.13   16.40
  -1   4  -1  635.94   16.40
  -1   4  -1  649.54   16.40
  -1   4  -1  651.93   16.40
   1  -4   1  655.33   16.30
   1  -4   1  628.64   16.40
  -2   4  -1   53.89    1.50
  -2   4  -1   46.60    1.40
  -2   4  -1   49.40    1.40
  -2   4  -1   50.59    1.40
   2  -4   1   52.39    1.30
   2  -4   1   48.70    1.40
  -3   4  -1    0.70    0.20
  -3   4  -1    1.40    0.20
  -3   4  -1    0.80    0.20
  -3   4  -1    0.80    0.20
  -4   4  -1 1224.48   31.20
  -4   4  -1 1245.88   31.40
  -5   4  -1  441.86   11.20
  -5   4  -1  442.66   11.20
  -5   4  -1  439.46   11.40
   5  -4   1  437.36   11.30
  -6   4  -1 1070.89   27.30
  -6   4  -1 1065.79   27.10
   6  -4   1 1083.19   27.30
  -7   4  -1   19.80    1.00
  -7   4  -1   21.30    0.70
  -8   4  -1    0.10    0.40
  -8   4  -1    0.50    0.30
   8  -4   1    0.40    0.40
  -9   4  -1    0.00    0.50
   9  -4   1    0.80    0.40
 -10   4  -1   24.60    1.40
  10  -4   1   24.50    1.20
 -11   4  -1   18.80    1.70
  11  -4   1   18.70    1.20
 -12   4  -1   19.20    1.60
 -13   4  -1    4.40    1.10
  13   3  -1    3.30    1.20
  12   3  -1    1.70    1.00
 -12  -3   1    2.60    0.90
  11   3  -1   15.50    1.60
 -11  -3   1   13.70    1.50
 -11  -3   1   16.60    1.30
  10   3  -1    2.00    0.80
 -10  -3   1    2.40    0.90
 -10  -3   1    2.60    0.70
   9   3  -1  286.07    7.80
  -9  -3   1  277.27    7.60
  -9  -3   1  285.37    7.50
   8   3  -1   25.30    1.30
  -8  -3   1   24.50    1.10
  -8  -3   1   24.60    1.00
   7   3  -1   78.79    2.40
  -7  -3   1   76.79    2.30
  -7  -3   1   78.39    2.30
   6   3  -1   37.50    1.40
  -6  -3   1   34.70    1.20
  -6  -3   1   35.90    1.20
  -6  -3   1   37.30    1.30
   5   3  -1  429.36   11.40
   5   3  -1  458.15   11.50
  -5  -3   1  453.15   11.40
  -5  -3   1  432.76   11.40
  -5  -3   1  444.16   11.40
   4   3  -1 1830.92   46.50
   4   3  -1 1845.62   47.00
  -4  -3   1 1835.52   46.50
  -4  -3   1 1852.01   46.80
   3   3  -1 1044.70   26.10
   3   3  -1 1060.49   26.10
  -3  -3   1 1029.30   26.20
  -3  -3   1 1018.10   26.10
  -3  -3   1 1002.20   26.10
   2   3  -1  144.49    3.80
  -2  -3   1  144.09    3.80
  -2  -3   1  143.59    3.80
   1   3  -1   15.10    0.40
   1   3  -1   14.60    0.50
   1   3  -1   13.80    0.50
   1   3  -1   14.20    0.50
  -1  -3   1   13.80    0.50
  -1  -3   1   14.40    0.50
   0   3  -1  495.95   12.50
   0   3  -1  490.45   12.40
   0   3  -1  462.55   12.40
   0  -3   1  493.15   12.40
   0  -3   1  512.55   12.50
  -1   3  -1  863.01   21.30
  -1   3  -1  834.42   21.40
  -1   3  -1  821.22   21.50
   1  -3   1  834.52   21.40
   1  -3   1  863.21   21.30
  -2   3  -1    0.60    0.10
  -2   3  -1    0.10    0.20
  -2   3  -1    0.40    0.20
  -2   3  -1    0.30    0.10
   2  -3   1    0.20    0.10
  -3   3  -1   21.20    0.70
  -3   3  -1   21.10    0.60
  -3   3  -1   20.40    0.70
  -3   3  -1   20.30    0.60
   3  -3   1   21.50    0.60
  -4   3  -1  368.26    9.40
  -4   3  -1  372.76    9.50
  -4   3  -1  377.16    9.40
  -4   3  -1  375.06    9.60
   4  -3   1  367.46    9.50
  -5   3  -1   12.20    0.60
  -5   3  -1   12.20    0.50
   5  -3   1   13.20    0.60
  -6   3  -1  162.78    4.30
  -6   3  -1  167.18    4.50
   6  -3   1  165.48    4.40
  -7   3  -1   -0.20    0.30
  -7   3  -1   -0.30    0.40
   7  -3   1   -0.30    0.30
  -8   3  -1    0.70    0.40
  -8   3  -1    1.40    0.50
   8  -3   1    1.00    0.60
  -9   3  -1    5.00    0.90
  -9   3  -1    5.70    0.70
   9  -3   1    4.40    0.70
 -10   3  -1   14.30    1.20
  10  -3   1   15.50    1.00
 -11   3  -1    5.90    0.90
  11  -3   1    7.50    0.90
 -12   3  -1    6.50    1.10
 -13   3  -1    3.60    1.00
  13   2  -1   27.90    2.20
  12   2  -1    9.20    1.60
  11   2  -1   89.49    3.30
 -11  -2   1   85.59    2.90
  10   2  -1    1.90    0.70
 -10  -2   1    1.90    0.60
 -10  -2   1    2.20    0.60
   9   2  -1    0.30    0.50
  -9  -2   1    0.40    0.40
  -9  -2   1    0.30    0.50
   8   2  -1   30.80    1.30
  -8  -2   1   28.90    1.20
  -8  -2   1   30.60    1.10
   7   2  -1  218.78    5.90
  -7  -2   1  215.58    5.70
  -7  -2   1  217.08    5.70
  -7  -2   1  221.28    5.80
  -6  -2   1    2.50    0.40
  -6  -2   1    2.80    0.40
  -6  -2   1    2.40    0.30
  -6  -2   1    2.70    0.40
  -5  -2   1    6.00    0.40
  -5  -2   1    4.70    0.40
  -5  -2   1    4.70    0.50
  -5  -2   1    5.70    0.50
   4   2  -1   46.00    1.30
  -4  -2   1   43.50    1.30
  -4  -2   1   43.90    1.30
  -4  -2   1   42.80    1.30
   3   2  -1 1173.68   29.20
   3   2  -1 1123.69   28.90
  -3  -2   1 1105.19   29.00
  -3  -2   1 1182.18   29.20
   2   2  -1  151.78    3.90
   2   2  -1  154.08    3.90
  -2  -2   1  147.09    3.90
  -2  -2   1  155.48    3.90
  -2  -2   1  147.39    3.90
   1   2  -1  128.19    3.30
   1   2  -1  125.99    3.30
   1   2  -1  133.39    3.30
  -1  -2   1  127.49    3.30
  -1  -2   1  121.09    3.30
  -1  -2   1  130.09    3.30
  -1  -2   1  130.49    3.30
   0   2  -1   30.30    0.80
   0   2  -1   29.00    0.80
   0   2  -1   28.10    0.80
   0   2  -1   28.70    0.80
   0   2  -1   28.90    0.80
   0  -2   1   30.70    0.80
   0  -2   1   30.20    0.80
  -1   2  -1  128.59    3.20
  -1   2  -1  120.99    3.20
  -1   2  -1  127.19    3.20
   1  -2   1  121.69    3.20
   1  -2   1  125.19    3.20
  -2   2  -1   36.50    1.00
  -2   2  -1   35.60    1.00
  -2   2  -1   37.30    1.00
  -2   2  -1   37.90    1.00
  -2   2  -1   33.90    1.10
  -3   2  -1 1795.02   45.40
  -3   2  -1 1758.62   45.10
  -3   2  -1 1786.32   45.00
  -4   2  -1    0.90    0.20
   4  -2   1    1.00    0.20
  -5   2  -1    0.30    0.20
  -5   2  -1   -0.10    0.20
   5  -2   1    0.00    0.20
  -6   2  -1  114.49    3.20
  -6   2  -1  113.99    3.10
   6  -2   1  116.29    3.10
  -7   2  -1  142.59    3.80
   7  -2   1  141.99    3.80
  -8   2  -1   -0.20    0.40
  -8   2  -1   -0.70    0.40
   8  -2   1    0.00    0.30
  -9   2  -1   59.89    1.90
  -9   2  -1   59.89    2.10
   9  -2   1   59.99    1.90
 -10   2  -1   13.80    1.20
 -10   2  -1   13.80    0.90
  10  -2   1   12.80    0.90
 -11   2  -1    3.80    0.80
 -12   2  -1   13.50    1.60
  13  -2   1    5.50    1.10
  13   1  -1    0.50    1.10
  12   1  -1   46.30    2.30
 -12  -1   1   49.70    3.00
  11   1  -1   12.90    1.40
 -11  -1   1   16.20    1.20
  10   1  -1    9.50    1.20
 -10  -1   1    7.90    1.20
 -10  -1   1   10.90    1.00
  -9  -1   1    1.90    0.40
  -9  -1   1    2.40    0.50
  -9  -1   1    2.00    0.60
   8   1  -1   33.40    1.10
  -8  -1   1   29.90    1.10
  -8  -1   1   29.60    1.30
  -8  -1   1   30.00    1.10
   7   1  -1    2.50    0.30
  -7  -1   1    1.90    0.40
  -7  -1   1    2.00    0.40
  -7  -1   1    2.40    0.30
  -7  -1   1    2.40    0.40
   6   1  -1  871.11   21.40
  -6  -1   1  828.12   21.40
  -6  -1   1  867.21   21.60
  -6  -1   1  826.12   21.40
  -6  -1   1  826.62   21.40
   5   1  -1  118.89    3.00
  -5  -1   1  114.29    3.10
  -5  -1   1  120.89    3.10
  -5  -1   1  117.79    3.20
  -5  -1   1  111.29    3.10
   4   1  -1    4.60    0.30
  -4  -1   1    3.90    0.40
  -4  -1   1    4.60    0.30
  -4  -1   1    5.00    0.40
  -4  -1   1    5.10    0.30
   3   1  -1  924.71   23.00
   3   1  -1  884.61   23.00
  -3  -1   1  896.11   23.00
  -3  -1   1  938.41   23.20
  -3  -1   1  915.31   23.20
   2   1  -1 1536.65   35.80
   2   1  -1 1371.76   35.90
  -2  -1   1 1387.66   35.90
  -2  -1   1 1411.46   36.10
  -2  -1   1 1373.86   36.20
   1   1  -1   32.00    0.80
   1   1  -1   32.50    0.90
  -1  -1   1   30.30    0.80
  -1  -1   1   34.10    0.90
  -1  -1   1   28.60    0.90
  -1   1  -1 1466.45   39.30
   1  -1   1 1609.94   39.70
   1  -1   1 1583.04   39.30
  -3   1  -1  308.47    7.70
  -3   1  -1  283.77    7.70
  -3   1  -1  305.67    7.60
  -4   1  -1   93.09    2.50
  -4   1  -1   88.09    2.50
   4  -1   1   96.09    2.50
  -6   1  -1   77.69    2.10
  -6   1  -1   74.59    2.30
   6  -1   1   76.99    2.10
  -7   1  -1  305.37    7.90
   7  -1   1  303.47    7.90
  -8   1  -1   46.10    1.70
  -8   1  -1   46.90    1.50
   8  -1   1   47.00    1.50
  -9   1  -1    1.00    0.50
  -9   1  -1    2.30    0.50
   9  -1   1    1.90    0.40
 -10   1  -1   11.00    1.20
 -10   1  -1   10.40    1.00
 -11   1  -1    0.40    0.70
 -11   1  -1    2.20    0.70
  12  -1   1    7.20    1.00
  13  -1   1   31.50    2.10
  14   0  -1    4.10    1.60
  13   0  -1   78.79    3.20
  12   0  -1   17.90    1.60
 -11   0   1    9.30    1.10
 -11   0   1    7.20    1.30
 -10   0   1    6.60    0.90
 -10   0   1    4.90    0.80
   9   0  -1   -0.60    0.40
  -9   0   1    0.10    0.40
  -9   0   1    0.30    0.50
  -9   0   1    0.60    0.30
  -9   0   1    0.00    0.40
   8   0  -1  488.95   12.40
  -8   0   1  485.15   12.70
  -8   0   1  482.15   12.50
  -8   0   1  497.35   12.50
  -8   0   1  476.45   12.40
   7   0  -1  311.77    7.80
  -7   0   1  291.17    7.80
  -7   0   1  303.97    7.80
   6   0  -1   13.70    0.60
  -6   0   1   13.50    0.60
  -6   0   1   13.20    0.70
  -6   0   1   13.60    0.60
  -6   0   1   13.70    0.60
   5   0  -1  173.58    4.50
  -5   0   1  171.18    4.50
  -5   0   1  174.88    4.60
  -5   0   1  176.48    4.50
  -5   0   1  173.68    4.50
   4   0  -1  247.58    6.20
  -4   0   1  243.18    6.20
  -4   0   1  237.58    6.20
  -4   0   1  241.38    6.20
  -4   0   1  237.38    6.30
   3   0  -1 2213.28   57.49
   3   0  -1 2365.26   57.69
  -3   0   1 2197.78   57.69
  -3   0   1 2178.98   57.49
  -3   0   1 2356.66   57.69
  -3   0   1 2327.07   57.89
   2   0  -1 3011.90   76.59
   2   0  -1 2911.11   76.59
  -2   0   1 3216.18   76.59
  -2   0   1 3028.00   76.79
  -2   0   1 2985.50   76.69
   1   0  -1 1268.97   33.80
   1   0  -1 1326.97   33.60
   1   0  -1 1348.27   33.70
  -1   0   1 1358.46   33.80
  -1   0   1 1349.16   33.90
   1   0   1  145.89    3.70
  -3   0  -1  657.43   16.40
  -3   0  -1  639.54   16.50
  -3   0  -1  651.93   16.40
  -4   0  -1 4766.62  122.09
  -4   0  -1 4778.62  122.59
   4   0   1 4925.51  121.79
  -5   0  -1  489.25   12.70
  -5   0  -1  493.45   12.80
   5   0   1  506.95   12.60
  -6   0  -1  299.87    7.90
  -6   0  -1  306.57    8.00
   6   0   1  313.77    7.90
  -7   0  -1   15.10    1.00
  -7   0  -1   15.40    0.80
   7   0   1   16.90    0.70
  -8   0  -1    1.70    0.50
  -8   0  -1    2.30    0.70
   8   0   1    2.50    0.40
  -9   0  -1   64.99    2.30
  -9   0  -1   63.89    2.10
   9   0   1   67.59    1.90
 -10   0  -1    3.40    0.60
  10   0   1    2.70    0.70
 -11   0  -1    4.80    0.80
  11   0   1    3.90    0.90
  12   0   1   16.70    1.70
  13   0   1   12.50    1.90
  14  -1  -1    2.80    1.30
  13  -1  -1   -0.60    0.90
 -12   1   1   19.50    1.60
 -11   1   1    4.30    0.90
  10  -1  -1  159.58    4.30
 -10   1   1  162.38    4.40
 -10   1   1  154.68    4.70
   9  -1  -1    2.10    0.40
  -9   1   1    1.40    0.50
  -9   1   1    1.90    0.50
  -9   1   1    1.80    0.40
   8  -1  -1    1.20    0.40
  -8   1   1    1.10    0.40
  -8   1   1    0.80    0.30
  -8   1   1    0.60    0.40
  -8   1   1    0.90    0.30
   7  -1  -1  152.08    4.00
  -7   1   1  146.29    3.90
  -7   1   1  147.89    4.00
   6  -1  -1   72.09    2.00
  -6   1   1   71.89    2.00
  -6   1   1   73.49    2.00
  -6   1   1   70.79    2.00
  -6   1   1   70.19    2.10
   5  -1  -1  150.78    4.00
  -5   1   1  151.98    4.00
  -5   1   1  156.28    4.00
  -5   1   1  157.78    4.10
  -5   1   1  151.58    4.00
   4  -1  -1  130.89    3.50
  -4   1   1  126.39    3.50
  -4   1   1  145.49    3.50
  -4   1   1  130.59    3.50
  -4   1   1  137.29    3.60
   3  -1  -1  554.14   14.20
   3  -1  -1  551.04   14.20
  -3   1   1  588.34   14.20
  -3   1   1  552.94   14.10
  -3   1   1  575.14   14.20
  -3   1   1  535.95   14.20
   2  -1  -1  549.65   13.50
   2  -1  -1  540.65   13.50
  -2   1   1  544.25   13.50
  -2   1   1  500.35   13.60
  -2   1   1  535.45   13.60
   1  -1  -1 2428.36   61.19
   1  -1  -1 2385.46   61.19
  -1   1   1 2383.06   61.19
  -1   1   1 2482.35   61.29
   0  -1  -1 2895.31   69.89
   0  -1  -1 2782.92   69.99
   0   1   1 2709.73   69.79
   0   1   1 2576.94   69.89
   0   1   1 2851.71   69.99
   0   1   1 2797.32   69.99
  -1  -1  -1  680.83   17.30
  -1  -1  -1  692.53   17.40
   1   1   1  692.33   17.40
   1   1   1  673.73   17.30
  -2  -1  -1 2751.82   68.59
  -2  -1  -1 2710.93   68.69
  -2  -1  -1 2743.63   68.59
   2   1   1 2598.34   68.49
   2   1   1 2759.62   68.89
  -3  -1  -1  910.51   23.30
  -3  -1  -1  916.41   23.30
  -3  -1  -1  930.61   23.50
  -4  -1  -1 1353.66   34.30
  -4  -1  -1 1354.76   34.30
  -4  -1  -1 1340.17   34.50
  -4  -1  -1 1338.37   34.30
   4   1   1 1389.56   34.20
  -5  -1  -1    9.10    0.40
  -5  -1  -1    9.00    0.50
  -5  -1  -1   10.40    0.50
  -5  -1  -1   10.10    0.60
   5   1   1    9.90    0.40
  -6  -1  -1   15.10    0.80
  -6  -1  -1   14.10    0.60
  -6  -1  -1   15.10    0.60
   6   1   1   15.80    0.60
  -7  -1  -1   22.50    1.10
  -7  -1  -1   23.90    0.80
  -7  -1  -1   22.90    1.00
   7   1   1   24.00    0.80
  -8  -1  -1   81.89    2.50
   8   1   1   86.09    2.70
  -9  -1  -1    4.40    0.60
   9   1   1    3.60    0.70
 -10  -1  -1   -0.70    0.60
  10   1   1   -0.50    0.70
 -11  -1  -1  107.49    3.40
  11   1   1  110.29    3.80
 -12  -1  -1   14.80    2.40
  12   1   1   21.80    1.80
  13   1   1   15.10    2.00
  14  -2  -1    2.00    1.20
 -13   2   1   11.40    1.60
 -12   2   1   -0.40    0.80
  11  -2  -1   15.60    1.00
 -11   2   1   13.10    1.30
  10  -2  -1    9.00    0.80
 -10   2   1    6.50    1.10
   9  -2  -1   18.20    0.90
  -9   2   1   18.80    0.90
  -9   2   1   17.60    0.80
  -9   2   1   18.60    1.10
   8  -2  -1    6.60    0.60
  -8   2   1    6.00    0.70
  -8   2   1    7.10    0.60
  -8   2   1    7.80    0.60
  -8   2   1    7.20    0.60
   7  -2  -1  112.69    3.10
  -7   2   1  109.99    3.00
  -7   2   1  109.49    3.00
   6  -2  -1   58.79    1.70
  -6   2   1   55.69    1.60
  -6   2   1   54.89    1.80
  -6   2   1   55.79    1.60
  -6   2   1   56.19    1.60
   5  -2  -1    8.30    0.50
  -5   2   1    8.00    0.40
  -5   2   1    7.50    0.50
  -5   2   1    7.70    0.40
  -5   2   1    7.50    0.40
   4  -2  -1   12.80    0.50
  -4   2   1   13.70    0.50
  -4   2   1   14.70    0.60
  -4   2   1   13.20    0.50
   3  -2  -1   22.40    0.70
   3  -2  -1   21.40    0.70
  -3   2   1   21.90    0.70
  -3   2   1   22.20    0.70
  -3   2   1   21.40    0.70
   2  -2  -1  735.03   18.90
   2  -2  -1  751.52   19.00
  -2   2   1  730.43   18.90
  -2   2   1  769.92   19.10
   1  -2  -1 1555.84   39.80
   1  -2  -1 1585.04   39.80
  -1   2   1 1565.74   39.80
  -1   2   1 1538.65   39.80
  -1   2   1 1593.44   40.00
   0  -2  -1  341.77    8.90
   0  -2  -1  356.56    8.90
   0  -2  -1  354.86    8.90
   0   2   1  341.97    8.90
   0   2   1  356.06    8.90
  -1  -2  -1  257.37    6.50
  -1  -2  -1  239.38    6.60
  -1  -2  -1  257.17    6.50
   1   2   1  257.57    6.50
   1   2   1  259.47    6.50
  -2  -2  -1  662.13   17.10
  -2  -2  -1  668.93   17.00
   2   2   1  692.03   17.10
   2   2   1  671.73   17.00
  -3  -2  -1  303.67    7.70
  -3  -2  -1  294.87    7.70
  -3  -2  -1  303.57    7.70
   3   2   1  289.27    7.70
   3   2   1  309.07    7.70
  -4  -2  -1    6.70    0.40
  -4  -2  -1    7.90    0.40
  -4  -2  -1    6.10    0.50
   4   2   1    6.60    0.50
  -5  -2  -1    1.50    0.20
  -5  -2  -1    1.30    0.30
  -5  -2  -1    1.60    0.20
   5   2   1    1.60    0.30
  -6  -2  -1   69.89    2.00
  -6  -2  -1   71.99    2.10
  -6  -2  -1   68.49    2.00
   6   2   1   71.09    2.20
  -7  -2  -1   22.70    0.80
  -7  -2  -1   20.20    1.00
  -7  -2  -1   21.30    0.80
   7   2   1   21.50    1.10
  -8  -2  -1   11.80    0.70
  -8  -2  -1   10.70    0.90
  -8  -2  -1   12.10    0.70
   8   2   1   11.30    1.00
  -9  -2  -1  261.77    7.20
   9   2   1  276.87    7.40
 -10  -2  -1    4.50    0.70
  10   2   1    3.70    0.80
 -11  -2  -1    5.80    0.90
  11   2   1    7.20    1.20
 -12  -2  -1    1.00    0.90
  12   2   1    0.90    0.90
  13   2   1    1.10    1.20
 -14   3   1   -0.80    1.10
 -13   3   1    1.00    1.00
 -12   3   1   45.10    2.20
  11  -3  -1   10.80    1.00
 -11   3   1   11.10    1.30
  10  -3  -1    0.10    0.50
 -10   3   1   -0.40    0.60
   9  -3  -1    0.10    0.40
  -9   3   1   -0.30    0.50
   8  -3  -1   20.90    0.90
  -8   3   1   19.70    0.80
  -8   3   1   19.90    0.80
  -8   3   1   19.70    0.80
  -8   3   1   19.90    1.10
   7  -3  -1    7.00    0.60
  -7   3   1    7.10    0.50
  -7   3   1    6.30    0.70
  -7   3   1    6.80    0.40
  -7   3   1    6.90    0.50
   6  -3  -1   65.49    1.90
  -6   3   1   67.79    1.90
  -6   3   1   63.69    1.80
  -6   3   1   65.59    2.00
   5  -3  -1  153.78    4.10
  -5   3   1  149.09    4.00
  -5   3   1  157.58    4.20
  -5   3   1  157.48    4.10
   4  -3  -1  204.88    5.30
  -4   3   1  204.28    5.30
  -4   3   1  204.98    5.40
  -4   3   1  204.58    5.30
   3  -3  -1  109.29    2.90
   3  -3  -1  111.69    2.90
  -3   3   1  108.79    2.90
  -3   3   1  112.79    3.00
   2  -3  -1   44.40    1.20
   2  -3  -1   43.50    1.20
  -2   3   1   44.90    1.30
  -2   3   1   44.20    1.30
   1  -3  -1   62.19    1.70
   1  -3  -1   63.69    1.60
   1  -3  -1   62.19    1.70
  -1   3   1   62.19    1.70
  -1   3   1   58.69    1.70
   0  -3  -1  615.74   15.60
   0  -3  -1  600.84   15.70
   0  -3  -1  623.64   15.60
   0   3   1  624.34   15.70
   0   3   1  623.94   15.70
  -1  -3  -1  107.59    2.80
  -1  -3  -1  112.59    2.80
  -1  -3  -1  110.19    2.80
  -1  -3  -1  100.49    2.80
   1   3   1  108.19    2.90
   1   3   1  107.99    2.80
  -2  -3  -1  464.85   12.10
  -2  -3  -1  473.05   12.10
  -2  -3  -1  474.45   12.10
   2   3   1  474.15   12.10
   2   3   1  481.65   12.10
  -3  -3  -1   27.60    0.90
  -3  -3  -1   27.50    0.90
   3   3   1   28.80    0.90
   3   3   1   27.60    0.90
  -4  -3  -1   64.39    1.80
  -4  -3  -1   64.29    1.80
  -4  -3  -1   63.99    1.90
   4   3   1   66.89    1.90
   4   3   1   64.99    1.80
  -5  -3  -1    3.00    0.40
  -5  -3  -1    2.90    0.50
  -5  -3  -1    2.40    0.30
   5   3   1    2.50    0.40
  -6  -3  -1   68.69    2.10
  -6  -3  -1   64.49    1.90
  -7  -3  -1   37.80    1.30
  -7  -3  -1   37.70    1.30
  -7  -3  -1   39.70    1.40
   7   3   1   40.00    1.50
  -8  -3  -1    3.20    0.60
  -8  -3  -1    3.00    0.40
   8   3   1    4.80    0.80
  -9  -3  -1    2.50    0.50
  -9  -3  -1    2.70    0.60
   9   3   1    2.60    0.70
 -10  -3  -1   31.40    1.50
  10   3   1   28.90    2.50
 -11  -3  -1    6.90    1.00
  11   3   1    6.70    1.10
 -12  -3  -1    6.00    1.00
  12   3   1    4.40    1.10
 -13  -3  -1    1.80    1.10
  13   3   1    2.60    1.20
 -14   4   1   47.20    3.80
 -13   4   1    5.10    1.10
  12  -4  -1    2.10    0.70
 -12   4   1    1.90    0.90
  11  -4  -1   21.60    1.20
 -11   4   1   22.10    1.50
  10  -4  -1   90.99    2.80
 -10   4   1   92.99    3.20
   9  -4  -1  111.99    3.20
  -9   4   1  111.29    3.40
   8  -4  -1   -0.60    0.40
  -8   4   1    0.60    0.30
  -8   4   1    0.40    0.30
  -8   4   1    0.20    0.40
  -7   4   1   52.49    1.60
  -7   4   1   55.49    1.80
  -7   4   1   55.89    1.60
   6  -4  -1    8.60    0.60
  -6   4   1    9.90    0.60
  -6   4   1    9.20    0.70
  -6   4   1    9.90    0.60
   5  -4  -1   34.10    1.10
  -5   4   1   33.10    1.10
  -5   4   1   32.10    1.20
  -5   4   1   33.30    1.10
   4  -4  -1  951.80   24.90
   4  -4  -1  994.60   24.90
  -4   4   1  976.20   24.90
  -4   4   1 1001.30   25.00
  -4   4   1  987.00   24.90
   3  -4  -1  220.58    5.90
   3  -4  -1  230.68    5.90
  -3   4   1  227.18    5.90
  -3   4   1  236.48    6.00
   2  -4  -1  822.12   21.30
   2  -4  -1  845.42   21.30
  -2   4   1  866.41   21.40
  -2   4   1  824.42   21.30
  -2   4   1  843.22   21.30
   1  -4  -1    0.70    0.10
   1  -4  -1    0.50    0.20
   1  -4  -1    0.50    0.20
  -1   4   1    0.90    0.20
   0  -4  -1 3287.67   88.39
   0  -4  -1 3580.94   87.49
   0  -4  -1 3557.94   87.59
   0   4   1 3517.05   88.09
   0   4   1 3359.16   88.19
  -1  -4  -1   72.69    2.00
  -1  -4  -1   72.09    2.00
  -1  -4  -1   75.39    1.90
   1   4   1   73.69    2.10
   1   4   1   73.99    2.00
  -2  -4  -1    1.00    0.20
  -2  -4  -1    0.70    0.20
   2   4   1    1.00    0.20
   2   4   1    1.20    0.30
  -3  -4  -1  572.44   14.40
  -3  -4  -1  555.44   14.40
  -3  -4  -1  562.04   14.40
   3   4   1  558.64   14.40
   3   4   1  569.74   14.40
  -4  -4  -1    1.10    0.30
  -4  -4  -1    1.50    0.30
   4   4   1    1.20    0.30
   4   4   1    0.40    0.30
  -5  -4  -1   72.69    2.10
  -5  -4  -1   70.19    2.00
  -5  -4  -1   69.59    2.00
   5   4   1   69.79    2.20
  -6  -4  -1   23.40    1.00
  -6  -4  -1   23.90    1.00
  -6  -4  -1   24.80    1.00
   6   4   1   23.90    1.10
  -7  -4  -1   12.70    0.90
  -7  -4  -1   12.90    0.80
   7   4   1   12.20    0.90
  -8  -4  -1  127.79    3.70
  -8  -4  -1  126.89    3.60
   8   4   1  125.89    3.80
  -9  -4  -1   30.80    1.50
  -9  -4  -1   30.60    1.40
   9   4   1   30.30    1.80
 -10  -4  -1    1.80    0.70
 -10  -4  -1    1.40    0.60
  10   4   1    1.70    1.10
 -11  -4  -1    0.10    0.70
  11   4   1   -1.10    0.80
 -12  -4  -1   21.80    1.80
  12   4   1   18.10    1.90
 -13  -4  -1    0.60    1.10
 -13   5   1   -0.10    1.00
  12  -5  -1  192.18    5.40
 -12   5   1  189.68    5.70
  11  -5  -1    1.40    0.60
 -11   5   1    3.10    0.90
  10  -5  -1   50.19    1.90
 -10   5   1   53.99    2.10
   9  -5  -1   77.69    2.50
  -9   5   1   79.79    2.60
   8  -5  -1    0.20    0.40
  -8   5   1    1.10    0.40
  -8   5   1    1.40    0.50
   7  -5  -1   20.30    1.00
  -7   5   1   20.60    0.90
  -7   5   1   21.60    0.90
  -7   5   1   20.60    1.00
  -6   5   1   79.59    2.30
   5  -5  -1    4.00    0.50
  -5   5   1    4.40    0.50
  -5   5   1    4.20    0.50
  -5   5   1    3.80    0.50
   4  -5  -1   -0.10    0.30
   4  -5  -1    0.20    0.20
  -4   5   1    0.60    0.30
  -4   5   1    0.10    0.30
  -4   5   1   -0.10    0.30
   3  -5  -1   16.20    0.70
   3  -5  -1   15.20    0.60
  -3   5   1   18.60    0.70
  -3   5   1   17.50    0.90
  -3   5   1   15.00    0.70
   2  -5  -1  510.85   13.30
   2  -5  -1  512.25   13.20
  -2   5   1  521.45   13.30
  -2   5   1  505.85   13.30
  -2   5   1  547.45   13.40
   1  -5  -1   47.60    1.40
   1  -5  -1   47.20    1.40
   1  -5  -1   48.90    1.30
  -1   5   1   47.80    1.40
   0  -5  -1  790.32   20.10
   0  -5  -1  798.62   20.10
   0  -5  -1  800.22   20.20
   0   5   1  779.52   20.20
   0   5   1  801.52   20.20
  -1  -5  -1  216.28    5.60
  -1  -5  -1  217.58    5.50
  -1  -5  -1  214.38    5.70
   1   5   1  219.08    5.70
  -2  -5  -1   14.20    0.60
  -2  -5  -1   15.40    0.70
   2   5   1   14.40    0.70
   2   5   1   15.50    0.70
  -3  -5  -1  189.48    5.10
  -3  -5  -1  194.38    5.10
  -3  -5  -1  186.68    5.10
   3   5   1  198.38    5.20
   3   5   1  199.68    5.10
  -4  -5  -1   56.79    1.70
  -4  -5  -1   58.29    1.70
  -4  -5  -1   55.99    1.80
   4   5   1   55.69    1.80
   4   5   1   57.99    1.80
  -5  -5  -1    1.00    0.40
  -6  -5  -1   21.30    1.00
  -6  -5  -1   22.80    1.00
   6   5   1   22.20    1.10
  -7  -5  -1   10.90    0.90
  -7  -5  -1   10.90    0.90
   7   5   1   10.40    0.90
  -8  -5  -1   44.40    1.60
  -8  -5  -1   44.60    1.70
   8   5   1   46.10    2.10
  -9  -5  -1   43.40    1.80
  -9  -5  -1   43.00    1.80
   9   5   1   40.80    1.90
 -10  -5  -1   12.70    1.20
 -10  -5  -1   10.90    1.50
  10   5   1   10.80    1.40
 -11  -5  -1    8.70    1.40
  11   5   1    6.90    1.10
 -12  -5  -1    1.90    1.00
  12   5   1    1.60    1.10
  13  -6  -1    0.40    0.80
 -13   6   1   -0.50    1.10
  12  -6  -1    3.70    0.70
 -12   6   1    2.70    0.90
  11  -6  -1   -0.10    0.60
 -11   6   1   -0.10    0.80
  10  -6  -1  179.18    5.00
 -10   6   1  177.08    5.50
   9  -6  -1    0.90    0.50
  -9   6   1    0.60    0.60
  -9   6   1    0.90    0.40
   8  -6  -1    3.50    0.50
  -8   6   1    3.30    0.60
  -8   6   1    3.90    0.50
   7  -6  -1   39.20    1.40
  -7   6   1   39.70    1.30
  -7   6   1   37.90    1.50
   6  -6  -1   12.10    0.80
  -6   6   1   13.60    0.80
  -6   6   1   13.30    0.80
   5  -6  -1   63.19    1.90
  -5   6   1   60.99    2.00
  -5   6   1   61.69    1.90
  -5   6   1   62.69    1.90
   4  -6  -1 1338.17   34.80
   4  -6  -1 1392.86   34.80
  -4   6   1 1389.66   34.90
  -4   6   1 1375.26   34.80
   3  -6  -1   17.80    0.80
   3  -6  -1   18.20    0.70
  -3   6   1   17.50    0.80
  -3   6   1   18.50    0.90
  -3   6   1   17.30    0.80
   2  -6  -1   36.70    1.20
   2  -6  -1   37.60    1.20
  -2   6   1   39.60    1.30
  -2   6   1   37.10    1.30
   1  -6  -1  144.69    4.20
   1  -6  -1  154.68    3.90
   1  -6  -1  152.88    4.00
  -1   6   1  154.28    4.10
  -1   6   1  151.48    4.10
   0  -6  -1   10.20    0.60
   0  -6  -1    9.20    0.50
   0  -6  -1    9.50    0.50
   0   6   1   10.80    0.60
   0   6   1   10.30    0.60
  -1  -6  -1  250.97    6.40
  -1  -6  -1  248.38    6.50
  -1  -6  -1  246.88    6.50
   1   6   1  250.17    6.50
   1   6   1  251.07    6.60
  -2  -6  -1  253.97    6.70
  -2  -6  -1  257.37    6.70
   2   6   1  257.77    6.80
  -3  -6  -1   30.50    1.20
  -3  -6  -1   31.10    1.10
   3   6   1   32.40    1.20
   3   6   1   31.10    1.20
  -4  -6  -1   37.70    1.40
   4   6   1   41.80    1.50
   4   6   1   36.30    1.60
  -5  -6  -1   12.90    0.80
  -5  -6  -1   12.50    0.80
   5   6   1   13.40    0.90
  -6  -6  -1   23.20    1.10
  -6  -6  -1   23.60    1.10
   6   6   1   22.00    1.20
  -7  -6  -1   14.50    1.00
  -7  -6  -1   12.40    1.00
   7   6   1   10.70    1.10
  -8  -6  -1   12.20    1.10
  -8  -6  -1    9.90    1.40
   8   6   1    9.80    1.20
  -9  -6  -1   51.19    1.90
  -9  -6  -1   48.80    2.00
   9   6   1   49.10    2.20
 -10  -6  -1   18.50    1.50
 -10  -6  -1   20.70    1.40
  10   6   1   17.20    1.60
 -11  -6  -1    3.30    0.90
 -11  -6  -1    1.10    0.70
  11   6   1    0.10    1.00
 -12  -6  -1    7.80    1.20
  13  -7  -1    0.90    0.90
 -13   7   1    0.60    1.00
  12  -7  -1   10.90    1.30
 -12   7   1   11.90    1.60
  11  -7  -1   42.60    1.80
 -11   7   1   43.30    2.10
  10  -7  -1    1.30    0.60
 -10   7   1    0.40    0.70
   9  -7  -1   33.30    1.50
  -9   7   1   31.40    1.60
  -9   7   1   33.10    1.70
   8  -7  -1  238.78    6.40
  -8   7   1  237.28    6.30
  -8   7   1  232.98    6.50
   7  -7  -1    1.10    0.40
  -7   7   1    1.90    0.50
  -7   7   1    1.90    0.40
   6  -7  -1  292.37    7.80
  -6   7   1  299.07    7.90
  -6   7   1  297.97    7.80
   5  -7  -1   40.30    1.40
  -5   7   1   41.30    1.50
  -5   7   1   40.10    1.40
   4  -7  -1  221.58    6.00
  -4   7   1  221.78    5.90
  -4   7   1  229.18    6.10
   3  -7  -1   28.10    1.10
   3  -7  -1   28.00    1.00
  -3   7   1   26.50    1.10
  -3   7   1   29.50    1.10
   2  -7  -1   40.50    1.10
   2  -7  -1   39.10    1.30
   2  -7  -1   41.20    1.40
  -2   7   1   40.30    1.40
  -2   7   1   39.90    1.40
   1  -7  -1    4.10    0.40
   1  -7  -1    3.40    0.60
   1  -7  -1    3.40    0.40
  -1   7   1    2.90    0.40
   0  -7  -1   34.90    1.10
   0  -7  -1   33.80    1.10
   0  -7  -1   32.70    1.20
   0   7   1   35.70    1.30
   0   7   1   33.70    1.30
  -1  -7  -1   61.19    1.70
  -1  -7  -1   60.59    1.90
  -1  -7  -1   60.69    1.80
   1   7   1   62.09    1.90
   1   7   1   60.19    1.90
  -2  -7  -1 1748.23   43.60
  -2  -7  -1 1691.23   43.60
   2   7   1 1729.13   43.60
   2   7   1 1717.03   43.70
  -3  -7  -1   11.70    0.90
  -3  -7  -1   12.60    1.20
   3   7   1   13.10    0.90
   3   7   1   12.50    1.10
  -4  -7  -1 1116.59   28.20
  -4  -7  -1 1081.09   28.20
   4   7   1 1120.59   28.30
  -5  -7  -1   72.89    2.30
  -5  -7  -1   71.39    2.30
   5   7   1   69.49    2.40
  -6  -7  -1    2.00    0.60
  -6  -7  -1    1.80    0.50
   6   7   1    2.30    0.70
  -7  -7  -1   25.00    1.30
  -7  -7  -1   26.90    1.30
   7   7   1   25.70    1.50
  -8  -7  -1   -0.10    1.10
   8   7   1    1.90    0.80
  -9  -7  -1    5.90    0.90
  -9  -7  -1    4.60    0.70
   9   7   1    5.30    1.00
 -10  -7  -1    8.90    1.40
 -10  -7  -1   12.10    1.40
  10   7   1   10.00    1.70
 -11  -7  -1    0.50    0.80
 -11  -7  -1    2.30    1.00
  11   7   1    2.40    1.10
  13  -8  -1    3.00    1.00
 -13   8   1    1.40    1.30
  12  -8  -1    6.30    1.00
 -12   8   1    4.90    1.10
  11  -8  -1    3.60    0.70
 -11   8   1    3.90    1.00
  10  -8  -1   19.40    1.80
 -10   8   1   16.00    2.40
   9  -8  -1   18.80    1.20
  -9   8   1   16.50    1.40
  -9   8   1   18.70    1.20
   8  -8  -1   33.30    1.80
  -8   8   1   34.30    1.40
  -8   8   1   35.30    1.70
   7  -8  -1   12.70    0.90
  -7   8   1   13.60    0.90
  -7   8   1   13.90    1.10
   6  -8  -1   27.90    1.20
  -6   8   1   26.30    1.20
  -6   8   1   27.10    1.30
   5  -8  -1   12.10    0.80
  -5   8   1   13.10    0.90
  -5   8   1   11.70    0.90
   4  -8  -1   19.00    0.90
  -4   8   1   19.70    1.00
  -4   8   1   18.90    1.00
   3  -8  -1   30.00    1.30
   3  -8  -1   32.10    1.30
  -3   8   1   32.90    1.30
  -3   8   1   32.60    1.30
   2  -8  -1   69.59    2.20
   2  -8  -1   72.89    1.90
   2  -8  -1   68.19    2.10
  -2   8   1   71.39    2.20
   1  -8  -1    4.30    0.50
   1  -8  -1    5.00    0.50
   1  -8  -1    4.80    0.70
  -1   8   1    4.30    0.60
   0  -8  -1  198.48    5.10
   0  -8  -1  192.58    5.30
   0  -8  -1  200.18    5.20
   0   8   1  192.48    5.30
  -1  -8  -1   61.49    1.70
  -1  -8  -1   57.49    1.90
  -1  -8  -1   60.99    1.80
   1   8   1   58.99    2.00
   1   8   1   59.09    2.00
  -2  -8  -1   46.30    1.60
  -2  -8  -1   45.90    1.60
   2   8   1   47.40    1.70
   2   8   1   46.70    1.70
  -3  -8  -1  186.38    5.00
  -3  -8  -1  183.78    5.20
   3   8   1  188.58    5.20
   3   8   1  183.88    5.20
  -4  -8  -1  101.89    3.00
  -4  -8  -1  104.59    3.10
   4   8   1  104.19    3.20
  -5  -8  -1    4.90    0.80
  -5  -8  -1    2.40    0.60
   5   8   1    2.50    0.60
  -6  -8  -1  700.33   18.10
   6   8   1  701.73   18.40
  -7  -8  -1  259.47    7.10
  -7  -8  -1  258.87    7.10
   7   8   1  258.87    7.20
  -8  -8  -1   43.60    1.90
  -8  -8  -1   38.90    2.30
   8   8   1   40.80    2.30
  -9  -8  -1   26.70    1.70
  -9  -8  -1   28.70    1.70
   9   8   1   27.50    1.90
 -10  -8  -1   97.29    3.50
 -10  -8  -1  108.09    3.30
  10   8   1   96.39    3.70
 -11  -8  -1   20.80    1.90
 -11  -8  -1   14.90    1.80
  11   8   1   14.70    2.00
  12  -9  -1    0.80    0.80
 -12   9   1    0.70    1.00
  11  -9  -1    5.40    0.90
 -11   9   1    4.60    1.00
  10  -9  -1    0.90    0.60
 -10   9   1    0.60    0.80
   9  -9  -1    0.10    0.60
  -9   9   1    1.60    0.60
  -9   9   1    1.10    0.70
   8  -9  -1    0.50    0.50
  -8   9   1    0.80    0.60
  -8   9   1    1.30    0.60
   7  -9  -1    3.40    0.60
  -7   9   1    3.60    0.60
  -7   9   1    3.90    0.70
   6  -9  -1    2.40    0.50
  -6   9   1    3.10    0.60
  -6   9   1    2.70    0.60
   5  -9  -1    1.60    0.50
  -5   9   1    1.60    0.50
  -5   9   1    1.70    0.50
   4  -9  -1   14.80    0.80
  -4   9   1   13.40    1.00
  -4   9   1   13.70    1.00
   3  -9  -1    2.20    0.40
  -3   9   1    2.10    0.50
  -3   9   1    1.60    0.40
   2  -9  -1    5.00    0.80
   2  -9  -1    5.90    0.50
  -2   9   1    7.20    0.80
  -2   9   1    5.20    0.80
   1  -9  -1    5.80    0.60
   1  -9  -1    6.20    0.50
   1  -9  -1    5.40    0.80
  -1   9   1    5.50    0.80
  -1   9   1    5.70    0.80
   0  -9  -1   15.20    1.00
   0  -9  -1   14.40    0.70
   0  -9  -1   14.60    0.70
   0   9   1   14.60    1.00
   0   9   1   14.80    1.00
  -1  -9  -1   10.80    0.70
  -1  -9  -1   12.20    0.60
  -1  -9  -1   10.50    0.90
   1   9   1   10.60    1.00
   1   9   1   11.10    0.90
  -2  -9  -1    0.10    0.50
  -2  -9  -1    0.40    0.40
   2   9   1   -0.30    0.50
   2   9   1    0.10    0.40
  -3  -9  -1    6.90    0.70
  -3  -9  -1    6.20    0.90
   3   9   1    7.20    0.90
  -4  -9  -1   54.19    1.90
  -4  -9  -1   53.09    1.80
   4   9   1   49.20    2.00
  -5  -9  -1   61.49    2.10
  -5  -9  -1   60.39    2.20
   5   9   1   63.39    2.50
  -6  -9  -1   26.40    1.40
  -6  -9  -1   25.30    1.50
   6   9   1   26.10    1.80
  -7  -9  -1   24.90    1.50
  -7  -9  -1   28.40    1.60
   7   9   1   28.20    1.70
  -8  -9  -1   19.70    1.50
  -8  -9  -1   23.50    1.60
   8   9   1   23.10    1.70
  -9  -9  -1    9.30    1.20
  -9  -9  -1   11.90    1.60
   9   9   1   10.80    1.60
 -10  -9  -1    1.60    1.00
 -10  -9  -1    0.00    0.90
  10   9   1    1.60    1.10
  12 -10  -1   16.10    1.60
 -12  10   1   17.90    2.00
  11 -10  -1    0.60    0.80
 -11  10   1   -1.30    1.00
  10 -10  -1   42.50    1.90
 -10  10   1   41.60    2.20
   9 -10  -1    6.00    0.80
  -9  10   1    5.90    0.70
  -9  10   1    4.30    0.90
   8 -10  -1   21.30    1.40
  -8  10   1   21.60    1.30
  -8  10   1   21.80    1.50
   7 -10  -1   10.50    1.10
  -7  10   1    8.00    1.30
   6 -10  -1  143.99    4.10
  -6  10   1  139.29    4.00
  -6  10   1  138.89    4.20
   5 -10  -1    0.30    0.40
  -5  10   1    0.00    0.50
  -5  10   1    0.00    0.50
   4 -10  -1   14.60    0.90
  -4  10   1   17.90    1.10
  -4  10   1   15.40    1.10
   3 -10  -1    0.50    0.40
  -3  10   1    0.30    0.50
  -3  10   1    0.40    0.50
   2 -10  -1    5.30    0.50
   2 -10  -1    5.00    0.60
  -2  10   1    5.40    0.80
  -2  10   1    4.70    0.60
   1 -10  -1  119.49    3.70
   1 -10  -1  134.29    3.50
   1 -10  -1  137.79    3.80
  -1  10   1  127.09    3.80
   0 -10  -1    7.80    0.70
   0 -10  -1    7.50    0.70
   0 -10  -1    7.80    1.00
   0  10   1    8.50    1.10
   0  10   1    7.60    0.90
  -1 -10  -1    2.40    0.60
  -1 -10  -1    1.70    0.40
  -1 -10  -1    1.70    0.40
   1  10   1    1.30    0.60
   1  10   1    1.70    0.70
  -2 -10  -1   15.50    1.10
  -2 -10  -1   14.00    0.90
   2  10   1   12.60    1.10
  -3 -10  -1    9.50    0.80
  -3 -10  -1   10.10    1.10
   3  10   1    7.80    1.00
  -4 -10  -1    8.20    1.10
  -4 -10  -1    7.20    0.90
   4  10   1    6.80    1.10
  -5 -10  -1    0.40    0.60
  -5 -10  -1    1.00    0.50
   5  10   1    0.80    0.80
  -6 -10  -1    0.20    0.70
  -6 -10  -1    0.40    0.60
   6  10   1    0.60    0.80
  -7 -10  -1    4.40    0.80
  -7 -10  -1    5.10    0.80
   7  10   1    4.30    0.90
  -8 -10  -1   13.20    1.50
  -8 -10  -1    9.30    1.60
   8  10   1    8.40    1.20
  -9 -10  -1    6.50    1.00
  -9 -10  -1    6.70    1.10
   9  10   1    5.00    1.20
  11 -11  -1   18.40    1.60
 -11  11   1   17.00    1.90
  10 -11  -1   81.19    2.90
 -10  11   1   83.09    2.70
 -10  11   1   78.09    3.10
   9 -11  -1   12.20    1.30
  -9  11   1   11.40    1.60
  -9  11   1   10.60    1.40
   8 -11  -1  103.69    3.40
  -8  11   1  111.59    3.30
  -8  11   1  106.49    3.60
   7 -11  -1   23.50    1.40
  -7  11   1   24.90    2.10
  -7  11   1   25.50    1.60
   6 -11  -1    3.90    0.70
  -6  11   1    4.40    0.80
  -6  11   1    3.80    0.80
   5 -11  -1   19.50    1.10
  -5  11   1   19.10    1.30
  -5  11   1   20.60    1.40
   4 -11  -1    1.00    0.40
  -4  11   1    1.00    0.60
  -4  11   1    0.90    0.60
   3 -11  -1   12.40    0.90
  -3  11   1   12.10    1.10
  -3  11   1   11.80    1.20
   2 -11  -1    0.30    0.40
  -2  11   1    0.10    0.60
  -2  11   1    0.60    0.50
   1 -11  -1    7.20    0.70
   1 -11  -1    6.80    0.70
  -1  11   1    6.00    0.80
  -1  11   1    6.10    1.00
   0 -11  -1   98.99    3.10
   0 -11  -1  105.89    3.00
   0  11   1  107.99    3.30
   0  11   1  108.89    3.30
  -1 -11  -1    5.50    0.80
  -1 -11  -1    5.50    0.70
   1  11   1    6.50    1.10
  -2 -11  -1  381.76   10.20
  -2 -11  -1  384.76   10.00
   2  11   1  380.16   10.30
  -3 -11  -1   22.50    1.40
  -3 -11  -1   22.00    1.20
   3  11   1   20.30    1.50
  -4 -11  -1   13.80    1.10
  -4 -11  -1   15.80    1.40
   4  11   1   14.50    1.50
  -5 -11  -1    9.30    1.30
  -5 -11  -1    7.30    1.10
   5  11   1    7.30    1.30
  -6 -11  -1    0.10    0.80
  -6 -11  -1    1.10    0.70
   6  11   1    1.30    0.90
  -7 -11  -1    3.40    0.90
  -7 -11  -1    2.90    0.90
   7  11   1    3.60    1.10
  -8 -11  -1   -0.30    0.90
  -8 -11  -1   -0.20    0.90
   8  11   1   -0.10    1.10
  -9 -11  -1    1.50    1.20
  -9 -11  -1    2.00    1.30
   9  11   1    0.10    1.40
  10 -12  -1   94.89    3.30
 -10  12   1   97.89    3.20
 -10  12   1   92.99    3.60
   9 -12  -1    9.20    1.40
  -9  12   1   12.10    1.70
  -9  12   1   10.60    1.50
   8 -12  -1   19.10    1.60
  -8  12   1   23.50    1.80
  -8  12   1   25.40    1.60
   7 -12  -1   71.09    2.50
  -7  12   1   73.19    2.60
  -7  12   1   72.09    2.80
   6 -12  -1   66.79    2.40
  -6  12   1   67.49    2.50
  -6  12   1   71.79    2.70
   5 -12  -1   43.80    1.80
  -5  12   1   45.40    1.90
  -5  12   1   42.60    2.00
   4 -12  -1   17.20    1.20
  -4  12   1   20.10    1.40
  -4  12   1   23.00    1.50
   3 -12  -1    7.50    0.90
  -3  12   1    7.70    1.40
  -3  12   1   10.60    1.40
   2 -12  -1   12.80    0.90
  -2  12   1   13.40    1.50
  -2  12   1   12.50    1.30
   1 -12  -1   52.89    1.80
  -1  12   1   54.99    2.30
  -1  12   1   53.99    2.20
   0 -12  -1   35.00    1.40
   0  12   1   33.60    1.90
   0  12   1   33.20    1.70
  -1 -12  -1    1.40    0.50
   1  12   1    1.30    0.70
  -2 -12  -1   22.50    1.70
  -2 -12  -1   25.30    1.30
   2  12   1   26.30    1.60
  -3 -12  -1    4.20    0.70
  -3 -12  -1    4.80    0.90
   3  12   1    4.30    1.00
  -4 -12  -1   29.20    1.80
  -4 -12  -1   28.10    1.50
   4  12   1   26.30    1.80
  -5 -12  -1   10.10    1.70
  -5 -12  -1    7.60    1.20
   5  12   1    5.20    1.00
  -6 -12  -1    1.10    0.90
  -6 -12  -1    1.10    0.90
   6  12   1    0.80    1.00
  -7 -12  -1   28.30    1.90
  -7 -12  -1   28.90    2.10
   7  12   1   29.30    2.10
  -8 -12  -1   14.50    2.00
  -8 -12  -1   14.10    1.80
   8  12   1   13.70    2.10
   9 -13  -1    7.60    1.00
  -9  13   1    7.20    1.20
  -9  13   1    6.10    1.00
   8 -13  -1   55.29    2.30
  -8  13   1   55.79    2.30
  -8  13   1   54.99    2.60
   7 -13  -1   48.10    2.00
  -7  13   1   46.10    2.40
  -7  13   1   46.90    2.20
   6 -13  -1   -0.50    0.60
  -6  13   1   -0.50    0.80
  -6  13   1   -0.70    0.80
   5 -13  -1    0.20    1.00
  -5  13   1    0.00    0.80
  -5  13   1   -0.20    1.30
   4 -13  -1   36.50    1.70
  -4  13   1   39.50    2.10
  -4  13   1   43.30    3.00
   3 -13  -1   -0.10    0.50
  -3  13   1   -0.60    0.70
  -3  13   1   -0.30    0.80
   2 -13  -1   92.89    3.00
  -2  13   1  102.89    3.60
  -2  13   1  101.19    3.40
   1 -13  -1  109.79    3.40
  -1  13   1  108.39    3.60
  -1  13   1  109.39    3.70
   0  13   1    5.10    1.00
  -1 -13  -1    0.40    0.60
   1  13   1   -1.30    1.40
  -2 -13  -1   17.20    1.30
   2  13   1   16.00    1.60
  -3 -13  -1   12.60    2.00
  -3 -13  -1    9.10    1.40
   3  13   1    9.90    1.60
  -4 -13  -1   15.50    1.70
  -4 -13  -1    9.40    1.30
   4  13   1   13.20    1.70
  -5 -13  -1   58.99    2.40
  -5 -13  -1   58.19    2.60
   5  13   1   53.69    2.60
  -6 -13  -1   10.60    1.50
  -6 -13  -1    8.60    1.20
   6  13   1    8.20    1.40
  -7 -13  -1    2.10    1.20
   7  13   1   -1.10    1.70
   8 -14  -1   -1.10    0.80
  -8  14   1   -1.20    0.90
  -8  14   1    0.00    1.10
   7 -14  -1   14.90    1.40
  -7  14   1   14.90    1.80
  -7  14   1   10.60    1.90
   6 -14  -1    9.50    1.30
  -6  14   1    7.90    1.20
  -6  14   1    6.30    1.00
   5 -14  -1    1.10    0.70
  -5  14   1    1.40    0.90
  -5  14   1    2.80    1.00
   4 -14  -1   12.00    1.20
  -4  14   1   11.70    1.70
  -4  14   1    9.90    1.60
   3 -14  -1    5.50    0.80
  -3  14   1    4.80    1.20
  -3  14   1    6.30    1.10
   2 -14  -1  217.98    6.40
  -2  14   1  223.98    6.40
  -2  14   1  217.08    6.40
  -1  14   1   -0.20    0.90
  -1  14   1   -0.70    1.10
   0  14   1    8.20    1.10
   1  14   1    1.80    1.00
   2  14   1   10.00    1.60
  -3 -14  -1   -0.80    0.80
   3  14   1   -0.20    1.00
  -4 -14  -1  126.39    4.10
   4  14   1  133.69    4.50
  -5 -14  -1   -0.80    0.90
  -5 -14  -1   -1.90    1.10
   5  14   1    1.90    1.30
   7 -15  -1   13.60    1.60
  -7  15   1   14.10    2.40
  -7  15   1   12.50    2.10
   6 -15  -1    2.90    0.80
  -6  15   1    2.70    1.20
  -6  15   1    0.60    1.00
   5 -15  -1   29.00    1.70
  -5  15   1   30.50    2.20
  -5  15   1   29.60    2.10
   4 -15  -1    2.70    0.80
  -4  15   1    2.90    1.10
  -4  15   1    0.90    1.00
  -3  15   1   16.90    2.10
  -3  15   1   15.00    1.80
  -2  15   1   12.80    2.10
  -2  15   1   14.10    1.70
  -1  15   1   31.60    2.10
   0  15   1   26.00    2.00
   1  15   1   29.70    2.10
   2  15   1   16.40    2.00
   3  15   1    5.70    1.30
  -4  16   1   -2.10    1.10
  -3  16   1   -2.20    1.10
  -3  16   1    0.00    1.30
  -2  16   1    4.70    1.20
  -1  16   1   18.90    2.00
   1  16   1   11.50    1.60
   2  16  -2   65.39    3.00
   1  16  -2   51.29    2.60
   0  16  -2   -2.00    1.10
  -1  16  -2   10.10    1.80
  -1  16  -2    8.50    1.50
  -2  16  -2    2.60    1.10
  -2  16  -2    0.80    1.30
  -3  16  -2    7.50    1.20
  -3  16  -2    7.00    1.30
  -4  16  -2    8.80    1.30
  -4  16  -2    7.10    1.20
   4 -16   2   12.00    1.40
  -5  16  -2   52.19    2.60
  -5  16  -2   52.79    2.70
   5 -16   2   53.09    2.30
   5  15  -2    0.00    1.50
  -5 -15   2    0.40    1.00
   4  15  -2   17.60    2.00
  -4 -15   2   16.80    1.70
   3  15  -2   74.19    3.20
  -3 -15   2   79.39    2.80
   2  15  -2   74.69    3.00
   1  15  -2    1.00    1.00
   0  15  -2   77.29    3.90
   0  15  -2   73.29    2.90
  -1  15  -2   84.89    3.40
  -1  15  -2   83.09    3.20
  -2  15  -2  186.88    5.80
  -2  15  -2  195.78    5.80
  -3  15  -2    4.60    1.20
  -3  15  -2    6.50    1.10
   3 -15   2    5.60    0.80
  -4  15  -2    8.00    1.20
  -4  15  -2    7.80    1.20
   4 -15   2    8.00    1.20
  -5  15  -2    3.10    1.00
  -5  15  -2    4.70    1.10
   5 -15   2    2.40    0.80
  -6  15  -2    1.40    1.10
  -6  15  -2    2.10    1.00
   6 -15   2    2.40    0.80
  -7  15  -2    1.90    0.90
  -7  15  -2    1.10    1.20
   7 -15   2   -0.90    0.80
   6  14  -2   -2.30    1.20
  -6 -14   2    2.50    1.00
   5  14  -2   50.69    2.60
  -5 -14   2   51.29    2.30
   4  14  -2   14.80    1.80
  -4 -14   2   14.70    1.40
   3  14  -2   47.00    2.30
  -3 -14   2   45.90    2.00
   2  14  -2   10.80    1.60
  -2 -14   2   14.80    1.30
   1  14  -2    8.10    1.10
   0  14  -2   55.79    2.50
   0  14  -2   52.69    2.90
  -1  14  -2   99.09    3.90
  -1  14  -2  104.39    3.60
  -2  14  -2   43.40    2.20
  -2  14  -2   43.60    3.00
   2 -14   2   37.90    1.70
  -3  14  -2    5.70    1.20
   3 -14   2    7.40    1.00
  -4  14  -2   -1.20    0.80
  -4  14  -2    0.70    0.80
   4 -14   2    1.30    0.70
  -5  14  -2    0.70    0.90
  -5  14  -2    0.80    0.80
   5 -14   2    0.80    0.70
  -6  14  -2    6.00    1.00
  -6  14  -2    3.50    0.90
   6 -14   2    3.80    0.80
  -7  14  -2   51.39    2.20
  -7  14  -2   52.09    2.50
   7 -14   2   43.60    2.10
  -8  14  -2   26.00    1.80
  -8  14  -2   28.90    2.10
   8 -14   2   25.10    1.80
   7  13  -2    3.20    1.20
  -7 -13   2    6.20    1.10
  -7 -13   2    6.20    1.20
  -6 -13   2    1.60    0.90
  -6 -13   2    0.70    0.80
   5  13  -2   -0.70    1.00
  -5 -13   2    0.20    1.00
  -5 -13   2   -0.40    0.70
   4  13  -2    4.00    1.00
  -4 -13   2    5.60    0.90
   3  13  -2    1.90    1.30
  -3 -13   2    2.40    0.70
   2  13  -2   31.90    1.80
  -2 -13   2   31.80    1.50
   1  13  -2   27.60    1.60
   1  13  -2   29.30    1.90
  -1 -13   2   26.50    1.30
   0  13  -2    1.00    0.80
   0  13  -2    0.30    0.70
   0 -13   2   -0.30    0.50
  -1  13  -2   37.70    1.90
  -1  13  -2   33.90    1.70
   1 -13   2   33.60    1.40
  -2  13  -2   30.30    1.60
  -2  13  -2   30.40    1.80
   2 -13   2   29.80    1.40
  -3  13  -2   35.60    1.80
  -3  13  -2   37.80    1.90
   3 -13   2   34.90    1.50
  -4  13  -2    8.00    1.30
  -4  13  -2    9.10    1.30
   4 -13   2    9.70    1.10
  -5  13  -2   80.29    2.90
   5 -13   2   77.99    2.80
  -6  13  -2   -0.20    0.80
  -6  13  -2   -0.40    0.70
   6 -13   2    0.10    0.70
  -7  13  -2    5.30    0.90
  -7  13  -2    6.30    1.10
   7 -13   2    3.80    0.70
  -8  13  -2    1.00    1.00
   8 -13   2    0.10    0.70
  -9  13  -2    9.80    1.30
   9 -13   2   12.50    1.50
 -10  13  -2    4.40    1.30
   8  12  -2    0.40    1.10
  -8 -12   2    0.90    1.00
  -8 -12   2   -1.00    1.00
   7  12  -2   14.90    1.80
  -7 -12   2   18.60    1.50
  -7 -12   2   16.20    1.80
   6  12  -2   26.80    1.90
  -6 -12   2   27.80    1.60
  -6 -12   2   30.70    2.00
   5  12  -2    9.90    1.50
  -5 -12   2   10.50    1.60
  -5 -12   2   10.30    1.30
   4  12  -2    9.80    1.40
  -4 -12   2   11.00    1.10
  -4 -12   2   11.50    1.50
   3  12  -2    3.40    0.90
  -3 -12   2    3.30    0.80
  -3 -12   2    3.50    0.70
   2  12  -2   13.70    1.30
   2  12  -2   12.50    1.60
  -2 -12   2   11.70    1.00
   1  12  -2    5.50    0.90
   1  12  -2    4.20    0.80
  -1 -12   2    4.80    0.80
   0  12  -2   35.70    1.60
   0  12  -2   31.00    1.70
   0 -12   2   31.00    1.30
   0 -12   2   29.60    1.20
  -1  12  -2    3.70    0.70
  -1  12  -2    3.10    0.70
   1 -12   2    3.20    0.50
   1 -12   2    3.20    0.50
  -2  12  -2  108.49    3.30
  -2  12  -2  102.09    3.30
   2 -12   2  105.69    3.10
  -3  12  -2    0.50    0.60
  -3  12  -2   -0.40    0.60
   3 -12   2    0.50    0.50
  -4  12  -2   20.10    1.40
  -4  12  -2   22.20    1.40
   4 -12   2   18.80    1.20
  -5  12  -2   11.80    1.30
  -5  12  -2   14.50    1.30
   5 -12   2   13.10    1.10
  -6  12  -2   31.10    1.70
  -6  12  -2   27.70    1.50
   6 -12   2   25.90    1.70
  -7  12  -2   10.40    1.20
  -7  12  -2   11.80    1.70
   7 -12   2   11.90    1.20
  -8  12  -2    0.20    0.80
  -8  12  -2   -0.20    0.60
   8 -12   2    0.10    0.70
  -9  12  -2   20.30    1.80
   9 -12   2   21.80    1.60
 -10  12  -2    9.70    1.70
  10 -12   2    7.60    1.10
   9  11  -2   17.40    2.00
  -9 -11   2   16.20    1.90
  -9 -11   2   16.30    1.70
   8  11  -2   31.90    2.10
  -8 -11   2   32.60    1.90
  -8 -11   2   31.80    2.10
   7  11  -2    4.80    1.00
  -7 -11   2    4.70    1.00
  -7 -11   2    4.60    0.90
   6  11  -2    9.00    1.50
  -6 -11   2   12.80    1.60
  -6 -11   2   11.20    1.80
   5  11  -2    1.10    0.80
  -5 -11   2    1.90    0.60
  -5 -11   2    1.60    0.80
   4  11  -2    4.10    0.80
  -4 -11   2    5.00    0.70
  -4 -11   2    4.90    0.80
   3  11  -2    4.00    0.70
  -3 -11   2    4.80    0.80
  -3 -11   2    5.90    0.90
   2  11  -2    1.30    0.60
  -2 -11   2    1.70    0.50
   1  11  -2   17.40    1.30
   1  11  -2   18.50    1.20
  -1 -11   2   19.00    1.00
  -1 -11   2   18.90    0.90
   0  11  -2    1.40    0.60
   0  11  -2    0.20    0.50
   0 -11   2    0.50    0.40
   0 -11   2    1.60    0.40
  -1  11  -2   13.50    1.10
  -1  11  -2   14.00    1.10
   1 -11   2   12.80    0.80
   1 -11   2   12.80    0.80
  -2  11  -2   66.89    2.30
  -2  11  -2   68.39    2.30
   2 -11   2   65.19    2.10
   2 -11   2   67.69    2.00
  -3  11  -2   20.90    1.20
  -3  11  -2   20.30    1.30
   3 -11   2   20.60    1.10
  -4  11  -2   46.90    1.90
  -4  11  -2   44.30    1.80
   4 -11   2   46.00    1.70
  -5  11  -2   11.80    1.60
  -5  11  -2   13.50    1.20
   5 -11   2   12.70    1.00
  -6  11  -2   35.20    1.70
  -6  11  -2   31.90    1.50
   6 -11   2   34.40    1.50
  -7  11  -2    0.70    0.70
   7 -11   2   -0.50    0.50
  -8  11  -2   50.69    1.90
  -8  11  -2   51.69    2.20
   8 -11   2   53.89    2.10
  -9  11  -2    5.10    1.00
   9 -11   2    5.70    0.80
 -10  11  -2   43.80    2.30
  10 -11   2   46.30    2.10
 -11  11  -2    3.50    1.10
  11 -11   2    3.60    1.00
  10  10  -2    2.20    1.20
 -10 -10   2   -0.50    1.00
 -10 -10   2    0.10    1.10
   9  10  -2   19.30    1.80
  -9 -10   2   18.90    1.60
  -9 -10   2   19.80    1.80
   8  10  -2    1.20    0.90
  -8 -10   2   -0.20    0.90
  -8 -10   2    0.40    0.70
   7  10  -2    0.90    0.90
  -7 -10   2    1.40    0.90
  -7 -10   2    0.90    0.70
   6  10  -2   69.19    2.60
  -6 -10   2   73.99    2.70
  -6 -10   2   70.49    2.60
   5  10  -2   47.10    1.90
  -5 -10   2   44.40    1.90
  -5 -10   2   44.80    1.80
   4  10  -2   70.79    2.50
  -4 -10   2   72.39    2.30
  -4 -10   2   71.39    2.50
   3  10  -2    3.60    0.70
   3  10  -2    4.00    0.70
  -3 -10   2    3.70    0.60
  -3 -10   2    3.40    0.70
   2  10  -2    0.80    0.50
   2  10  -2    1.40    0.60
  -2 -10   2    1.20    0.50
  -2 -10   2    1.10    0.40
  -2 -10   2    1.40    0.30
   1  10  -2   27.40    1.40
   1  10  -2   27.10    1.30
  -1 -10   2   27.00    1.10
  -1 -10   2   27.70    1.40
  -1 -10   2   28.70    1.00
   0  10  -2    0.40    0.50
   0 -10   2    0.00    0.50
   0 -10   2   -0.10    0.30
   0 -10   2    0.60    0.40
  -1  10  -2   46.50    1.70
  -1  10  -2   48.90    1.70
   1 -10   2   48.40    1.50
   1 -10   2   46.90    1.60
  -2  10  -2   28.50    1.30
  -2  10  -2   26.90    1.30
   2 -10   2   27.00    1.00
   2 -10   2   26.80    1.10
  -3  10  -2   41.40    1.60
  -3  10  -2   43.40    1.60
   3 -10   2   41.80    1.50
   3 -10   2   44.30    1.30
  -4  10  -2    0.90    0.50
  -4  10  -2    1.00    0.50
   4 -10   2    1.30    0.40
  -5  10  -2   -0.50    0.40
  -5  10  -2    1.10    0.50
   5 -10   2   -0.70    0.40
  -6  10  -2    1.70    0.60
  -6  10  -2    1.40    0.60
   6 -10   2    1.70    0.60
  -7  10  -2   11.00    1.40
  -7  10  -2   10.00    1.10
   7 -10   2    8.60    1.10
  -8  10  -2   16.80    1.40
   8 -10   2   14.80    1.30
   9 -10   2    5.70    0.70
 -10  10  -2    2.80    0.90
  10 -10   2    3.70    0.80
 -11  10  -2   -1.50    0.90
  11 -10   2   -0.20    0.70
 -12  10  -2    1.10    1.10
  12 -10   2    2.00    1.00
  11   9  -2    8.00    1.40
 -11  -9   2    7.60    1.40
 -11  -9   2    8.20    1.40
  10   9  -2    2.00    1.00
 -10  -9   2    0.30    1.00
 -10  -9   2    1.50    0.90
   9   9  -2    9.60    1.50
  -9  -9   2    7.50    1.00
  -9  -9   2    7.70    1.00
   8   9  -2   55.79    3.30
  -8  -9   2   58.49    2.50
  -8  -9   2   58.69    2.30
   7   9  -2   71.39    2.60
  -7  -9   2   71.79    2.60
  -7  -9   2   67.69    2.50
   6   9  -2    3.00    0.70
  -6  -9   2    3.60    0.70
  -6  -9   2    2.20    0.70
   5   9  -2    4.30    0.70
  -5  -9   2    2.00    0.60
  -5  -9   2    3.10    0.70
   4   9  -2   15.40    1.10
  -4  -9   2   14.80    1.10
  -4  -9   2   14.40    0.90
   3   9  -2   10.70    1.10
   3   9  -2    9.10    0.90
  -3  -9   2    9.20    1.00
  -3  -9   2    7.60    0.80
   2   9  -2    0.50    0.40
   2   9  -2    0.50    0.50
  -2  -9   2   -0.70    0.40
  -2  -9   2    0.20    0.30
  -2  -9   2   -0.50    0.50
   1   9  -2   10.70    0.90
   1   9  -2   10.70    0.90
  -1  -9   2   10.50    0.60
  -1  -9   2   10.10    0.70
  -1  -9   2   11.00    0.90
   0   9  -2    0.50    0.40
   0  -9   2    0.10    0.30
   0  -9   2    0.00    0.30
   0  -9   2    0.20    0.50
  -1   9  -2  177.88    4.60
   1  -9   2  174.38    4.50
   1  -9   2  143.79    4.70
   1  -9   2  174.98    4.50
  -2   9  -2  119.49    3.80
   2  -9   2  124.49    3.30
  -3   9  -2    0.30    0.40
  -3   9  -2    0.00    0.40
   3  -9   2    0.60    0.30
   3  -9   2   -0.30    0.30
  -4   9  -2   28.20    1.20
  -4   9  -2   29.70    1.30
   4  -9   2   29.80    1.20
  -5   9  -2    2.70    0.50
  -5   9  -2    1.90    0.50
   5  -9   2    2.70    0.50
  -6   9  -2   17.20    1.00
  -6   9  -2   17.40    1.10
   6  -9   2   17.30    1.10
  -7   9  -2   41.30    2.00
  -7   9  -2   42.40    1.80
   7  -9   2   43.20    1.70
  -8   9  -2    2.10    0.70
   8  -9   2    2.70    0.80
  -9   9  -2    0.10    0.70
   9  -9   2    0.30    0.60
 -10   9  -2   -0.60    0.70
  10  -9   2   -0.30    0.60
 -11   9  -2   35.30    2.00
  11  -9   2   37.80    1.90
 -12   9  -2   16.60    1.90
  12  -9   2   19.90    1.60
  11   8  -2   15.80    1.90
 -11  -8   2   15.30    1.80
 -11  -8   2   13.90    1.80
  10   8  -2   52.59    2.50
 -10  -8   2   52.09    2.30
 -10  -8   2   52.39    2.30
   9   8  -2   34.60    1.90
  -9  -8   2   33.30    1.90
  -9  -8   2   29.90    1.70
   8   8  -2   50.09    2.10
  -8  -8   2   48.60    2.00
  -8  -8   2   51.89    2.10
   7   8  -2   28.70    1.60
  -7  -8   2   29.70    1.60
  -7  -8   2   29.70    1.70
   6   8  -2   24.50    1.30
  -6  -8   2   24.00    1.40
  -6  -8   2   21.90    1.20
   5   8  -2    2.70    0.60
  -5  -8   2    2.50    0.60
  -5  -8   2    3.20    0.60
   4   8  -2  142.99    4.20
   4   8  -2  167.38    4.30
  -4  -8   2  153.78    4.30
  -4  -8   2  137.79    4.20
   3   8  -2   31.70    1.40
   3   8  -2   26.30    1.20
  -3  -8   2   30.40    1.20
  -3  -8   2   29.40    1.30
   2   8  -2 2001.10   49.70
   2   8  -2 1984.40   49.70
  -2  -8   2 1924.41   49.60
  -2  -8   2 1931.91   49.40
   1   8  -2  131.39    3.50
  -1  -8   2  110.39    3.30
  -1  -8   2  122.59    3.40
   0   8  -2 1837.02   44.70
   0   8  -2 1783.22   44.90
   0   8  -2 1749.72   44.80
   0  -8   2 1732.33   44.80
   0  -8   2 1750.82   44.80
  -1   8  -2  316.27    8.40
  -1   8  -2  328.77    8.50
  -1   8  -2  325.77    8.40
   1  -8   2  326.77    8.40
   1  -8   2  314.17    8.30
  -2   8  -2    8.20    0.70
  -2   8  -2    7.50    0.80
   2  -8   2   10.30    0.50
   2  -8   2    8.90    0.70
  -3   8  -2   56.79    1.90
   3  -8   2   49.90    1.50
  -4   8  -2  142.89    3.90
   4  -8   2  143.99    3.90
  -5   8  -2  237.48    6.30
  -5   8  -2  235.58    6.40
   5  -8   2  243.58    6.40
  -7   8  -2   43.70    1.60
  -7   8  -2   44.90    1.70
  -7   8  -2   44.60    1.50
   7  -8   2   46.30    1.70
  -8   8  -2   11.80    1.10
   8  -8   2   11.50    1.00
 -10   8  -2    8.20    1.40
  10  -8   2    6.50    1.00
 -11   8  -2   -0.80    0.80
  11  -8   2    0.80    0.70
 -12   8  -2    3.60    1.00
  12  -8   2    5.80    0.90
  12   7  -2    3.30    1.20
 -12  -7   2   -1.00    1.10
 -12  -7   2   -0.50    0.80
  11   7  -2   39.10    2.30
 -11  -7   2   39.00    2.10
 -11  -7   2   36.70    2.00
  10   7  -2   20.70    1.80
 -10  -7   2   19.80    1.70
 -10  -7   2   20.30    1.50
   9   7  -2   47.20    2.10
  -9  -7   2   45.30    2.10
  -9  -7   2   52.99    2.40
   8   7  -2    1.40    0.70
  -8  -7   2    1.50    0.70
  -8  -7   2    1.60    0.60
   7   7  -2    6.70    1.00
  -7  -7   2    7.20    1.00
  -7  -7   2    5.80    0.90
   6   7  -2   12.80    1.00
  -6  -7   2   13.00    0.90
  -6  -7   2   12.40    0.90
   5   7  -2    5.70    0.80
  -5  -7   2    7.00    0.80
  -5  -7   2    7.90    0.70
   4   7  -2   34.20    1.40
   3   7  -2  601.64   15.30
   3   7  -2  592.14   15.30
  -3  -7   2  584.64   15.30
  -3  -7   2  596.84   15.20
   1   7  -2  211.48    5.60
   1   7  -2  209.38    5.40
   1   7  -2  209.28    5.60
  -1  -7   2  209.48    5.50
  -1  -7   2  208.28    5.60
   0   7  -2 1295.17   33.30
   0   7  -2 1338.27   33.30
   0   7  -2 1328.07   33.20
   0  -7   2 1342.27   33.20
   0  -7   2 1254.47   33.40
  -1   7  -2  128.99    3.70
  -1   7  -2  132.19    3.60
  -1   7  -2  135.99    3.60
   1  -7   2  134.99    3.60
   1  -7   2  137.89    3.60
  -2   7  -2 1995.50   50.89
  -2   7  -2 2002.40   50.99
  -2   7  -2 2033.00   50.79
  -2   7  -2 2014.30   50.89
   2  -7   2 2011.90   50.79
   2  -7   2 2013.80   50.79
  -3   7  -2   72.09    2.10
  -3   7  -2   74.39    2.20
  -3   7  -2   74.79    2.20
  -3   7  -2   74.99    2.20
   3  -7   2   71.59    2.10
   3  -7   2   76.09    2.00
  -4   7  -2  131.39    3.50
  -4   7  -2  124.49    3.50
  -4   7  -2  125.19    3.50
   4  -7   2  126.79    3.50
  -5   7  -2   12.30    0.80
  -5   7  -2   14.50    1.00
  -5   7  -2   12.20    0.80
   5  -7   2   14.80    0.80
  -6   7  -2  180.38    4.90
  -6   7  -2  170.28    4.70
  -6   7  -2  180.98    4.70
   6  -7   2  179.28    4.90
  -7   7  -2   56.79    2.00
  -7   7  -2   56.59    1.70
   7  -7   2   60.29    1.90
  -8   7  -2    9.90    1.00
   8  -7   2   12.10    0.90
  -9   7  -2   54.59    2.10
   9  -7   2   55.99    2.00
 -10   7  -2  181.58    5.40
  10  -7   2  185.58    5.20
 -11   7  -2    6.40    1.00
  11  -7   2    9.50    1.20
 -12   7  -2   66.49    2.80
  12  -7   2   65.09    2.50
 -13   7  -2    1.30    1.10
  12   6  -2    4.20    1.20
 -12  -6   2    4.90    1.00
  11   6  -2    6.20    1.20
 -11  -6   2    4.60    0.90
 -11  -6   2    4.20    0.90
  10   6  -2    5.20    0.90
 -10  -6   2    4.10    0.80
   9   6  -2    3.20    0.80
  -9  -6   2    3.90    0.70
  -9  -6   2    4.00    0.70
   8   6  -2    0.10    0.60
  -8  -6   2    0.70    0.50
  -8  -6   2    0.20    0.80
   7   6  -2   37.30    1.60
  -7  -6   2   40.40    1.50
  -7  -6   2   38.70    1.50
   6   6  -2   13.80    1.00
  -6  -6   2   14.60    0.90
  -6  -6   2   14.00    0.90
   5   6  -2    7.70    1.10
   4   6  -2    0.60    0.40
   4   6  -2    0.70    0.40
  -4  -6   2    0.90    0.30
  -4  -6   2    1.10    0.40
   3   6  -2    0.20    0.40
   3   6  -2   -0.30    0.30
  -3  -6   2    0.30    0.30
  -3  -6   2    0.10    0.30
   2   6  -2    3.00    0.30
   2   6  -2    3.30    0.60
   2   6  -2    3.40    0.50
  -2  -6   2    3.30    0.50
  -2  -6   2    3.30    0.50
   1   6  -2   33.90    1.10
   1   6  -2   33.30    1.00
   1   6  -2   32.30    1.10
  -1  -6   2   34.00    1.10
  -1  -6   2   32.90    1.10
   0   6  -2  120.49    3.10
   0   6  -2  110.39    3.10
   0   6  -2  112.09    3.00
   0  -6   2  111.99    3.00
   0  -6   2  110.19    3.10
  -1   6  -2  321.87    8.60
  -1   6  -2  333.17    8.50
  -1   6  -2  326.17    8.60
  -1   6  -2  339.57    8.60
   1  -6   2  337.37    8.60
   1  -6   2  337.57    8.50
  -2   6  -2   27.80    1.00
  -2   6  -2   30.00    1.00
  -2   6  -2   31.20    1.00
   2  -6   2   29.20    1.00
   2  -6   2   28.20    0.90
  -3   6  -2  149.69    4.10
  -3   6  -2  156.88    4.10
  -3   6  -2  155.38    4.10
  -3   6  -2  148.59    4.10
   3  -6   2  155.88    4.00
  -4   6  -2    7.70    0.50
  -4   6  -2    8.00    0.60
  -4   6  -2    6.40    0.60
   4  -6   2    7.80    0.40
  -5   6  -2    0.00    0.30
  -5   6  -2   -0.40    0.30
  -5   6  -2    0.10    0.30
   5  -6   2    0.10    0.30
  -6   6  -2   43.50    1.90
  -6   6  -2   44.40    1.30
  -6   6  -2   45.00    1.40
   6  -6   2   44.90    1.50
  -7   6  -2  190.48    5.30
   7  -6   2  192.98    5.20
  -8   6  -2   13.40    1.00
   8  -6   2   13.20    0.90
  -9   6  -2   39.30    1.70
   9  -6   2   40.60    1.60
 -10   6  -2    1.60    0.70
  10  -6   2    1.90    0.60
 -11   6  -2    4.40    0.90
  11  -6   2    4.10    0.80
 -12   6  -2   30.30    1.90
  12  -6   2   29.60    1.70
 -13   6  -2    3.50    1.20
  13   5  -2   -0.80    1.70
 -13  -5   2    3.80    1.20
  12   5  -2    1.00    1.10
 -12  -5   2    1.30    0.90
 -12  -5   2   -0.80    0.70
  11   5  -2    0.60    0.80
 -11  -5   2   -1.20    0.70
 -11  -5   2    0.80    0.80
  10   5  -2    2.60    0.80
 -10  -5   2    2.70    1.00
 -10  -5   2    2.60    0.70
   9   5  -2   12.90    1.20
  -9  -5   2   12.90    1.10
  -9  -5   2   11.00    1.10
   8   5  -2    2.20    0.60
  -8  -5   2    2.80    0.60
  -8  -5   2    3.10    0.60
   7   5  -2    0.00    0.40
  -7  -5   2    0.70    0.40
  -7  -5   2    0.40    0.40
   6   5  -2    5.80    0.70
  -6  -5   2    6.90    0.70
  -6  -5   2    6.80    0.70
   5   5  -2    4.50    0.70
   5   5  -2    3.80    0.50
   5   5  -2    2.90    0.40
  -5  -5   2    3.80    0.50
  -5  -5   2    5.40    0.60
   4   5  -2  120.89    3.30
   4   5  -2  120.89    3.40
   4   5  -2  122.49    3.30
  -4  -5   2  120.29    3.30
  -4  -5   2  121.59    3.30
   3   5  -2   51.69    1.60
   3   5  -2   51.89    1.60
   3   5  -2   51.39    1.60
  -3  -5   2   52.79    1.60
  -3  -5   2   50.49    1.60
   2   5  -2   19.40    0.80
   2   5  -2   20.10    0.80
   2   5  -2   20.40    0.60
  -2  -5   2   19.70    0.70
  -2  -5   2   18.60    0.80
   1   5  -2   75.39    2.10
   1   5  -2   76.19    2.10
   1   5  -2   75.99    2.00
  -1  -5   2   76.99    2.10
  -1  -5   2   73.39    2.10
   0   5  -2  502.65   12.90
   0   5  -2  496.45   12.80
   0   5  -2  512.45   12.90
   0  -5   2  507.85   12.80
   0  -5   2  503.35   12.90
  -1   5  -2    4.90    0.40
  -1   5  -2    4.40    0.40
  -1   5  -2    5.00    0.50
   1  -5   2    5.00    0.40
   1  -5   2    5.40    0.30
  -2   5  -2    1.50    0.20
  -2   5  -2    1.70    0.30
  -2   5  -2    1.40    0.20
  -2   5  -2    1.70    0.30
   2  -5   2    1.60    0.30
   2  -5   2    2.00    0.30
  -3   5  -2    0.90    0.30
  -3   5  -2    0.60    0.20
  -3   5  -2    0.80    0.20
  -3   5  -2    0.50    0.20
   3  -5   2    1.00    0.20
  -4   5  -2   12.90    0.60
  -4   5  -2   13.80    0.60
  -4   5  -2   12.90    0.70
  -4   5  -2   14.10    0.70
   4  -5   2   13.20    0.50
  -5   5  -2   10.30    0.50
  -5   5  -2    9.80    0.70
  -5   5  -2   10.60    0.50
   5  -5   2   10.60    0.60
   5  -5   2   10.70    0.50
  -6   5  -2   11.90    0.80
   6  -5   2   11.60    0.80
  -7   5  -2    6.40    0.70
   7  -5   2    6.90    0.50
   7  -5   2    5.30    0.60
  -8   5  -2    3.80    0.60
   8  -5   2    4.00    0.50
  -9   5  -2    4.00    0.70
   9  -5   2    4.80    0.60
 -10   5  -2    1.00    0.60
  10  -5   2    0.00    0.50
 -11   5  -2    7.80    1.30
  11  -5   2    6.80    0.80
 -12   5  -2    9.20    1.50
  12  -5   2    8.50    1.20
 -13   5  -2   65.19    2.80
  13   4  -2   41.70    2.60
 -13  -4   2   46.90    2.30
  12   4  -2    8.30    1.20
 -12  -4   2    9.20    1.50
 -12  -4   2   11.20    1.50
  11   4  -2   23.30    1.80
 -11  -4   2   21.40    1.40
 -11  -4   2   22.80    1.60
  10   4  -2    2.60    0.90
 -10  -4   2    3.00    0.70
 -10  -4   2    1.90    0.60
   9   4  -2   40.90    1.80
  -9  -4   2   39.50    1.60
  -9  -4   2   38.10    1.60
   8   4  -2   33.40    1.50
  -8  -4   2   33.80    1.30
  -8  -4   2   35.80    1.40
   7   4  -2    6.60    0.80
  -7  -4   2    6.90    0.70
  -7  -4   2    6.90    0.70
  -6  -4   2  188.08    5.20
   5   4  -2   11.60    0.70
   5   4  -2   11.50    0.70
  -5  -4   2   11.80    0.70
  -5  -4   2   10.60    0.70
  -5  -4   2   11.30    0.70
   4   4  -2  602.84   15.30
   4   4  -2  594.94   15.20
  -4  -4   2  593.74   15.30
  -4  -4   2  596.04   15.20
  -4  -4   2  592.94   15.20
   3   4  -2  279.57    7.40
   3   4  -2  292.37    7.40
  -3  -4   2  280.67    7.40
  -3  -4   2  283.27    7.30
   2   4  -2 1132.79   27.90
   2   4  -2 1074.19   28.10
   2   4  -2 1113.89   27.90
  -2  -4   2 1096.49   27.90
  -2  -4   2 1101.09   27.90
   1   4  -2  447.06   11.00
   1   4  -2  421.46   11.10
   1   4  -2  426.26   11.10
   1   4  -2  432.96   11.10
  -1  -4   2  446.76   11.10
  -1  -4   2  438.06   11.10
   0   4  -2  108.69    3.00
   0   4  -2  111.29    3.00
   0   4  -2  114.59    2.90
   0   4  -2  113.19    3.00
   0  -4   2  112.19    3.00
   0  -4   2  116.69    3.00
  -1   4  -2  300.77    7.50
  -1   4  -2  291.27    7.50
  -1   4  -2  288.47    7.50
   1  -4   2  294.77    7.50
   1  -4   2  295.67    7.50
  -2   4  -2 1242.48   31.80
  -2   4  -2 1231.38   31.90
  -2   4  -2 1286.47   32.00
  -2   4  -2 1267.27   31.80
   2  -4   2 1246.68   31.70
   2  -4   2 1269.57   31.90
  -3   4  -2  691.13   17.30
  -3   4  -2  661.03   17.20
  -3   4  -2  681.93   17.20
  -3   4  -2  695.03   17.30
   3  -4   2  677.53   17.20
  -4   4  -2    4.30    0.30
  -4   4  -2    3.90    0.40
  -4   4  -2    4.20    0.30
  -4   4  -2    4.60    0.40
   4  -4   2    4.60    0.30
  -5   4  -2   49.00    1.60
  -5   4  -2   51.39    1.60
   5  -4   2   52.59    1.40
  -6   4  -2   65.49    2.00
  -6   4  -2   63.49    1.80
   6  -4   2   63.29    1.90
  -7   4  -2  139.29    3.90
  -7   4  -2  138.59    3.70
  -8   4  -2  513.35   13.50
  -8   4  -2  519.65   13.20
   8  -4   2  519.45   13.30
  -9   4  -2   10.60    1.00
   9  -4   2   10.90    0.80
 -10   4  -2   23.10    1.40
  10  -4   2   23.20    1.20
 -11   4  -2    0.10    0.70
  11  -4   2    0.70    0.60
 -12   4  -2    2.00    0.90
 -13   4  -2   11.50    1.70
  13   3  -2   68.39    3.10
  12   3  -2   17.70    1.90
 -12  -3   2   20.40    1.60
  11   3  -2   44.00    2.70
 -11  -3   2   43.90    1.90
 -11  -3   2   44.40    2.50
  10   3  -2    4.10    0.80
 -10  -3   2    2.90    0.90
 -10  -3   2    3.10    0.70
   9   3  -2   58.79    2.20
  -9  -3   2   55.79    2.00
  -9  -3   2   58.49    1.90
   8   3  -2    0.90    0.50
  -8  -3   2    0.80    0.50
  -8  -3   2    0.40    0.40
   7   3  -2   28.00    1.20
  -7  -3   2   29.00    1.10
  -7  -3   2   28.30    1.10
   6   3  -2   42.10    1.40
  -6  -3   2   40.20    1.40
  -6  -3   2   40.90    1.40
  -6  -3   2   42.40    1.40
   5   3  -2  224.18    5.90
   5   3  -2  223.78    6.00
  -5  -3   2  227.28    6.00
  -5  -3   2  233.18    6.00
   4   3  -2   73.49    2.10
   4   3  -2   73.69    2.10
  -4  -3   2   73.39    2.10
  -4  -3   2   71.49    2.10
  -4  -3   2   72.09    2.00
   3   3  -2 2008.10   51.19
   3   3  -2 2009.40   50.89
  -3  -3   2 2025.50   50.99
  -3  -3   2 1972.80   50.69
   2   3  -2 1093.29   26.70
   2   3  -2 1036.30   26.70
   2   3  -2 1046.40   26.70
  -2  -3   2 1052.39   26.60
  -2  -3   2 1041.50   26.80
   1   3  -2  741.33   18.30
   1   3  -2  684.23   18.40
   1   3  -2  713.13   18.30
  -1  -3   2  736.13   18.30
  -1  -3   2  741.53   18.30
   0   3  -2 1356.06   36.90
   0   3  -2 1408.66   36.80
   0   3  -2 1451.65   36.50
   0   3  -2 1482.75   36.80
   0  -3   2 1487.05   36.70
   0  -3   2 1489.35   36.70
  -1   3  -2   50.49    1.40
  -1   3  -2   52.69    1.40
  -1   3  -2   50.99    1.40
   1  -3   2   51.19    1.40
   1  -3   2   51.49    1.40
  -2   3  -2  145.19    3.60
  -2   3  -2  137.99    3.60
  -2   3  -2  138.59    3.60
  -2   3  -2  140.69    3.60
   2  -3   2  138.09    3.60
  -3   3  -2  314.67    8.00
  -3   3  -2  312.27    8.10
   3  -3   2  313.97    8.00
  -4   3  -2   51.19    1.40
  -4   3  -2   53.49    1.50
  -4   3  -2   49.50    1.50
  -5   3  -2   87.29    2.50
  -5   3  -2   87.29    2.40
  -5   3  -2   84.59    2.30
  -6   3  -2  177.38    4.60
  -6   3  -2  176.18    4.80
   6  -3   2  175.78    4.70
  -7   3  -2   14.20    0.70
  -7   3  -2   13.20    0.90
   7  -3   2   14.10    0.70
  -8   3  -2    1.50    0.50
  -8   3  -2    1.20    0.40
   8  -3   2    1.70    0.40
  -9   3  -2    7.80    1.00
  -9   3  -2    9.50    0.80
   9  -3   2   10.60    0.80
 -10   3  -2    0.00    0.60
  10  -3   2    0.60    0.50
 -11   3  -2    2.20    0.80
  11  -3   2    1.70    0.70
 -12   3  -2    1.80    0.80
  13  -3   2   -0.20    1.00
  13   2  -2    4.60    1.20
  12   2  -2   46.10    2.30
 -12  -2   2   42.80    2.00
  11   2  -2   64.89    2.60
 -11  -2   2   66.19    2.30
 -11  -2   2   69.19    2.40
  10   2  -2   51.69    2.30
 -10  -2   2   55.89    2.00
 -10  -2   2   57.79    2.10
   9   2  -2   50.99    2.00
  -9  -2   2   50.69    1.70
  -9  -2   2   51.49    1.80
   8   2  -2   51.19    1.50
  -8  -2   2   49.40    1.60
  -8  -2   2   48.40    1.70
   7   2  -2    4.20    0.40
  -7  -2   2    3.70    0.60
  -7  -2   2    2.90    0.40
  -7  -2   2    4.20    0.70
  -7  -2   2    2.90    0.50
   6   2  -2  229.68    5.90
  -6  -2   2  228.08    6.10
  -6  -2   2  232.78    6.00
  -6  -2   2  223.18    6.00
  -6  -2   2  226.48    6.00
   5   2  -2  973.40   23.90
   5   2  -2  928.71   24.00
  -5  -2   2  957.30   24.10
  -5  -2   2  935.21   24.00
  -5  -2   2  935.31   24.10
  -5  -2   2  959.80   24.10
   4   2  -2  181.28    4.80
   4   2  -2  175.98    4.70
  -4  -2   2  188.18    4.80
  -4  -2   2  189.18    4.90
  -4  -2   2  187.88    4.80
   3   2  -2   79.59    2.20
   3   2  -2   84.39    2.10
  -3  -2   2   80.79    2.20
  -3  -2   2   83.59    2.30
  -3  -2   2   84.19    2.20
  -3  -2   2   77.79    2.20
   2   2  -2 2752.02   67.29
   2   2  -2 2658.93   67.69
   2   2  -2 2644.94   67.59
  -2  -2   2 2743.33   67.59
  -2  -2   2 2521.95   67.49
   1   2  -2 1562.74   38.80
   1   2  -2 1492.25   38.90
   1   2  -2 1573.74   38.70
  -1  -2   2 1597.64   38.90
  -1  -2   2 1411.26   38.90
   0   2  -2  526.65   13.50
   0   2  -2  533.75   13.50
   0   2  -2  545.45   13.50
   0  -2   2  532.55   13.60
   0  -2   2  528.55   13.50
  -1   2  -2  248.58    6.20
  -1   2  -2  249.28    6.20
   1  -2   2  240.68    6.20
   1  -2   2  238.48    6.20
  -2   2  -2   50.89    1.40
  -2   2  -2   52.19    1.40
  -2   2  -2   48.30    1.40
  -3   2  -2  573.84   14.50
  -3   2  -2  560.64   14.40
  -3   2  -2  571.84   14.40
  -4   2  -2  104.99    2.70
  -4   2  -2  102.59    2.80
  -4   2  -2  102.19    2.70
  -5   2  -2  193.58    5.00
  -5   2  -2  193.78    5.10
  -5   2  -2  188.18    5.00
  -6   2  -2   33.40    1.30
  -6   2  -2   36.40    1.10
   6  -2   2   36.00    1.10
  -7   2  -2    1.30    0.30
   7  -2   2    1.20    0.30
  -8   2  -2   23.40    1.00
  -8   2  -2   23.80    1.20
   8  -2   2   24.30    1.00
  -9   2  -2    1.20    0.60
  -9   2  -2    0.90    0.50
   9  -2   2    1.10    0.40
 -10   2  -2   16.70    1.20
 -10   2  -2   17.20    1.00
  10  -2   2   16.30    1.00
 -11   2  -2    1.60    0.70
  12  -2   2    4.30    1.00
  13  -2   2   16.80    1.80
  13   1  -2   19.60    1.90
  12   1  -2    0.30    0.80
  11   1  -2   11.70    1.30
 -11  -1   2   11.90    1.10
 -11  -1   2   11.10    1.10
 -10  -1   2   84.09    2.60
 -10  -1   2   85.39    2.70
 -10  -1   2   87.49    2.90
   9   1  -2    0.40    0.40
  -9  -1   2    1.40    0.40
  -9  -1   2    1.30    0.50
  -9  -1   2    0.60    0.60
   8   1  -2    0.60    0.30
  -8  -1   2    0.20    0.40
  -8  -1   2    0.30    0.40
   7   1  -2   44.60    1.30
  -7  -1   2   40.90    1.50
  -7  -1   2   38.50    1.90
  -7  -1   2   43.20    1.40
   6   1  -2  396.26    9.70
  -6  -1   2  379.56    9.70
  -6  -1   2  375.56    9.70
  -6  -1   2  380.96    9.80
  -6  -1   2  356.56    9.70
   5   1  -2   21.00    0.70
   5   1  -2   20.90    0.80
  -5  -1   2   20.40    0.80
  -5  -1   2   21.20    0.80
  -5  -1   2   19.90    0.80
  -5  -1   2   21.80    0.80
   4   1  -2   31.40    1.00
   4   1  -2   33.20    1.00
  -4  -1   2   32.40    1.00
  -4  -1   2   37.50    1.00
  -4  -1   2   31.70    1.00
   3   1  -2  100.39    2.70
   3   1  -2  101.59    2.70
  -3  -1   2  105.79    2.80
  -3  -1   2  107.09    2.80
  -3  -1   2  104.49    2.70
   2   1  -2  124.29    3.10
   2   1  -2  130.49    3.10
  -2  -1   2  107.69    3.20
  -2  -1   2  115.19    3.10
  -2  -1   2  125.59    3.10
   1   1  -2 1868.61   46.90
   1   1  -2 1882.31   46.90
   1   1  -2 1706.63   46.90
   1   1  -2 1889.21   46.80
  -1  -1   2 1740.03   46.90
  -1  -1   2 1914.61   46.80
  -1  -1   2 1888.11   46.80
  -1  -1   2 1887.21   46.90
  -1   1  -2  122.59    3.10
  -1   1  -2  120.99    3.10
  -1   1  -2  122.59    3.10
   1  -1   2  117.49    3.10
   1  -1   2  122.99    3.10
  -2   1  -2    1.70    0.30
  -2   1  -2    1.20    0.20
  -3   1  -2  218.28    5.60
  -3   1  -2  219.28    5.60
  -3   1  -2  221.28    5.70
  -4   1  -2 2072.39   52.99
  -4   1  -2 2068.79   52.49
  -4   1  -2 2099.39   52.69
  -5   1  -2  142.49    3.90
  -5   1  -2  143.69    3.80
  -6   1  -2   44.00    1.40
   6  -1   2   43.60    1.30
  -7   1  -2    1.10    0.40
  -7   1  -2    0.90    0.50
   7  -1   2    1.40    0.30
  -8   1  -2    2.50    0.50
  -8   1  -2    4.50    0.70
   8  -1   2    2.70    0.40
  -9   1  -2    8.30    0.80
  -9   1  -2    6.30    0.90
   9  -1   2    7.50    0.70
 -10   1  -2    0.90    0.60
 -10   1  -2    0.00    0.50
 -11   1  -2    0.50    0.70
  11  -1   2   -0.50    0.70
  12  -1   2    8.80    1.50
  13  -1   2   14.90    1.90
  14   0  -2    1.00    1.30
  13   0  -2   11.50    1.70
  12   0  -2    6.70    1.00
 -11   0   2   12.90    1.60
 -11   0   2   14.50    1.10
 -10   0   2   24.40    1.20
 -10   0   2   23.50    1.10
 -10   0   2   23.00    1.60
   9   0  -2   39.00    1.30
  -9   0   2   37.50    1.30
  -9   0   2   36.30    1.60
   8   0  -2   65.49    1.90
  -8   0   2   68.49    2.00
  -8   0   2   67.69    2.00
  -8   0   2   66.69    2.20
  -8   0   2   63.89    2.00
   7   0  -2   88.99    2.40
  -7   0   2   90.39    2.50
  -7   0   2   84.29    2.40
   6   0  -2  189.18    5.00
  -6   0   2  180.38    5.00
  -6   0   2  198.48    5.00
  -6   0   2  188.68    5.10
  -6   0   2  194.78    5.00
   5   0  -2    1.10    0.20
  -5   0   2    0.80    0.20
  -5   0   2    0.70    0.20
  -5   0   2    0.60    0.20
  -5   0   2    0.50    0.20
   4   0  -2  806.12   20.20
   4   0  -2  786.12   20.20
  -4   0   2  803.42   20.20
  -4   0   2  754.62   20.20
  -4   0   2  829.42   20.20
  -4   0   2  800.52   20.20
   3   0  -2   16.40    0.50
  -3   0   2   16.60    0.60
  -3   0   2   14.70    0.60
  -3   0   2   19.50    0.60
   2   0  -2  553.24   14.40
   2   0  -2  569.54   14.40
  -2   0   2  571.64   14.40
  -2   0   2  617.04   14.40
  -2   0   2  577.54   14.40
  -2   0   2  528.45   14.40
   1   0  -2   38.80    1.00
   1   0  -2   39.80    1.10
   1   0  -2   36.30    1.10
   1   0  -2   35.60    1.10
  -1   0   2   37.00    1.00
  -1   0   2   39.70    1.10
  -1   0   2   41.80    1.00
  -1   0   2   38.40    1.00
   0   0  -2    9.60    0.30
   0   0  -2   10.30    0.30
   0   0  -2   10.70    0.30
   0   0   2   10.50    0.30
   0   0   2   11.80    0.30
  -1   0  -2    1.50    0.20
  -1   0  -2    1.80    0.20
  -1   0  -2    1.70    0.20
  -1   0  -2    1.60    0.20
   1   0   2    1.60    0.20
  -2   0  -2 9999.00  252.17
  -3   0  -2  530.55   13.40
  -3   0  -2  528.85   13.30
  -3   0  -2  523.65   13.40
  -4   0  -2   16.50    0.60
  -4   0  -2   16.60    0.70
  -4   0  -2   16.30    0.60
  -5   0  -2    0.40    0.30
  -5   0  -2    0.10    0.30
  -6   0  -2 3627.24   93.39
  -6   0  -2 3588.94   92.79
   6   0   2 3782.22   92.69
  -7   0  -2  104.09    3.10
  -7   0  -2  104.39    3.00
   7   0   2  108.59    2.90
  -8   0  -2  170.58    4.80
  -8   0  -2  170.98    4.70
   8   0   2  178.88    4.60
  -9   0  -2   35.60    1.40
 -10   0  -2    9.10    1.00
  10   0   2    8.60    1.40
 -11   0  -2    5.20    0.80
  11   0   2    4.20    0.90
  12   0   2   78.69    3.10
  13   0   2    7.70    1.30
  14  -1  -2   17.20    2.00
  13  -1  -2    1.70    1.00
 -12   1   2    3.90    1.00
 -11   1   2   -0.20    0.70
  10  -1  -2    3.70    0.50
 -10   1   2    3.00    0.70
 -10   1   2    3.20    0.50
  -9   1   2   17.00    0.90
  -9   1   2   17.50    1.10
  -9   1   2   18.70    0.90
   8  -1  -2  112.29    3.10
  -8   1   2  110.89    3.00
  -8   1   2  104.69    3.00
  -8   1   2  112.29    3.00
  -8   1   2  109.09    3.30
   7  -1  -2   42.80    1.40
  -7   1   2   41.80    1.30
  -7   1   2   43.40    1.30
   6  -1  -2  174.18    4.60
  -6   1   2  173.68    4.60
  -6   1   2  175.88    4.70
  -6   1   2  167.98    4.60
  -6   1   2  181.28    4.60
   5  -1  -2   58.49    1.60
  -5   1   2   56.29    1.60
  -5   1   2   57.89    1.60
  -5   1   2   55.99    1.60
  -5   1   2   58.59    1.70
   4  -1  -2  118.79    3.10
   4  -1  -2  119.69    3.10
  -4   1   2  121.89    3.20
  -4   1   2  114.39    3.10
  -4   1   2  122.29    3.20
   3  -1  -2   13.60    0.50
   3  -1  -2   13.70    0.50
  -3   1   2   16.30    0.50
  -3   1   2   13.70    0.40
  -3   1   2   14.40    0.50
   2  -1  -2   93.09    2.40
   2  -1  -2   91.59    2.40
   2  -1  -2   90.29    2.30
  -2   1   2   84.19    2.40
  -2   1   2   96.59    2.30
  -2   1   2   86.69    2.40
  -2   1   2   85.39    2.40
   1  -1  -2   29.20    0.80
   1  -1  -2   28.70    0.80
  -1   1   2   28.00    0.80
  -1   1   2   29.10    0.80
  -1   1   2   31.90    0.80
  -1   1   2   28.80    0.80
  -1   1   2   29.00    0.80
   0  -1  -2  495.55   12.50
   0  -1  -2  494.05   12.50
   0  -1  -2  507.55   12.50
   0  -1  -2  473.05   12.50
   0   1   2  485.05   12.50
   0   1   2  512.35   12.60
  -1  -1  -2   45.00    1.20
  -1  -1  -2   47.20    1.20
  -1  -1  -2   40.80    1.30
   1   1   2   47.70    1.20
   1   1   2   44.70    1.20
  -2  -1  -2  320.47    8.10
  -2  -1  -2  324.77    8.10
  -2  -1  -2  320.37    8.20
  -2  -1  -2  306.07    8.10
   2   1   2  330.17    8.20
  -3  -1  -2 2701.13   69.09
  -3  -1  -2 2701.43   69.29
  -3  -1  -2 2691.73   69.09
  -3  -1  -2 2763.72   68.89
   3   1   2 2797.02   69.59
  -4  -1  -2 2907.61   74.29
  -4  -1  -2 2793.42   74.19
  -4  -1  -2 3016.10   73.99
  -4  -1  -2 2925.51   74.19
   4   1   2 3020.10   74.89
  -5  -1  -2   75.09    2.30
  -5  -1  -2   76.89    2.10
  -5  -1  -2   75.89    2.10
   5   1   2   81.39    2.30
   5   1   2   79.59    2.10
  -6  -1  -2    2.70    0.40
   6   1   2    3.70    0.60
  -7  -1  -2   12.10    1.00
   7   1   2   12.10    0.80
  -8  -1  -2   18.90    1.00
   8   1   2   21.20    1.10
  -9  -1  -2  206.38    5.60
   9   1   2  199.28    5.70
 -10  -1  -2    1.70    0.60
  10   1   2    1.60    0.70
 -11  -1  -2   38.70    1.80
  11   1   2   35.00    2.70
 -12  -1  -2   14.10    1.50
  12   1   2   12.80    1.70
  13   1   2   30.30    2.30
  14  -2  -2    3.90    1.20
 -13   2   2    2.30    1.10
 -12   2   2   -0.30    0.90
  11  -2  -2    7.40    1.00
 -11   2   2    6.80    1.20
  10  -2  -2    9.60    0.90
 -10   2   2    8.60    1.30
   9  -2  -2    0.70    0.40
  -9   2   2    0.90    0.40
  -9   2   2    0.60    0.50
  -9   2   2    0.40    0.40
   8  -2  -2    0.50    0.40
  -8   2   2    0.00    0.30
  -8   2   2   -0.40    0.40
  -8   2   2   -0.20    0.30
  -8   2   2   -0.10    0.30
   7  -2  -2   88.59    2.50
  -7   2   2   87.29    2.40
  -7   2   2   83.79    2.40
   6  -2  -2   42.00    1.30
  -6   2   2   43.30    1.40
  -6   2   2   41.60    1.30
  -6   2   2   44.70    1.30
  -6   2   2   42.90    1.20
   5  -2  -2  359.06    8.90
  -5   2   2  313.27    8.90
  -5   2   2  359.76    9.00
  -5   2   2  358.56    8.90
  -5   2   2  339.97    8.90
   4  -2  -2 1247.28   30.90
   4  -2  -2 1225.48   31.00
  -4   2   2 1196.28   30.90
  -4   2   2 1234.88   31.10
  -4   2   2 1214.18   30.90
   3  -2  -2  555.04   14.20
   3  -2  -2  556.64   14.20
  -3   2   2  554.44   14.20
  -3   2   2  567.74   14.20
   2  -2  -2    8.00    0.40
  -2   2   2    8.10    0.40
  -2   2   2    8.50    0.40
  -2   2   2    8.30    0.40
   1  -2  -2  293.47    7.50
   1  -2  -2  298.37    7.40
   1  -2  -2  289.37    7.40
  -1   2   2  293.47    7.50
  -1   2   2  285.57    7.50
   0  -2  -2  647.34   16.40
   0  -2  -2  675.33   16.40
   0  -2  -2  661.43   16.40
   0  -2  -2  621.94   16.40
   0   2   2  656.63   16.40
   0   2   2  626.54   16.50
  -1  -2  -2 2327.27   56.59
  -1  -2  -2 2237.08   56.79
  -1  -2  -2 2191.38   56.79
   1   2   2 2237.48   56.99
   1   2   2 2210.78   56.69
  -2  -2  -2 2026.40   50.79
  -2  -2  -2 1842.62   50.79
  -2  -2  -2 2056.99   50.89
   2   2   2 2064.19   51.19
   2   2   2 2032.50   50.69
  -3  -2  -2  176.28    4.60
  -3  -2  -2  177.88    4.60
  -3  -2  -2  176.08    4.60
   3   2   2  179.28    4.70
  -4  -2  -2   10.40    0.60
  -4  -2  -2   10.80    0.50
  -4  -2  -2   10.60    0.50
   4   2   2   12.80    0.60
  -5  -2  -2    5.80    0.50
  -5  -2  -2    5.60    0.40
   5   2   2    5.30    0.50
  -6  -2  -2   15.30    0.80
  -6  -2  -2   16.00    0.60
  -6  -2  -2   14.00    0.70
   6   2   2   14.20    0.80
  -7  -2  -2    0.90    0.30
  -7  -2  -2    0.90    0.40
  -7  -2  -2    1.20    0.30
   7   2   2    0.60    0.40
  -8  -2  -2   41.00    1.60
   8   2   2   43.00    1.70
  -9  -2  -2   26.50    1.30
   9   2   2   28.80    1.50
 -10  -2  -2   -0.30    0.60
  10   2   2    0.00    0.70
 -11  -2  -2   43.80    2.00
  11   2   2   45.80    2.20
 -12  -2  -2    2.10    0.90
  12   2   2   -0.60    1.00
  13   2   2   11.70    2.00
 -14   3   2   21.40    2.00
 -13   3   2   79.89    3.10
 -12   3   2   53.49    2.40
  11  -3  -2   22.70    1.20
 -11   3   2   22.20    1.80
  10  -3  -2    0.40    0.50
 -10   3   2   -0.10    0.50
 -10   3   2    0.90    0.60
   9  -3  -2   12.40    0.90
  -9   3   2   11.90    0.80
  -9   3   2   12.70    1.00
   8  -3  -2    2.80    0.40
  -8   3   2    2.20    0.40
  -8   3   2    2.00    0.40
  -8   3   2    2.70    0.50
   7  -3  -2   33.00    1.20
  -7   3   2   31.80    1.10
  -7   3   2   32.20    1.30
  -7   3   2   34.00    1.10
   6  -3  -2    0.20    0.30
  -6   3   2    0.10    0.30
  -6   3   2    0.10    0.30
  -6   3   2    0.20    0.30
   5  -3  -2    3.00    0.40
  -5   3   2    3.80    0.40
  -5   3   2    3.40    0.40
  -5   3   2    3.30    0.50
   4  -3  -2    0.10    0.20
   4  -3  -2    0.10    0.20
  -4   3   2    0.00    0.20
  -4   3   2    0.40    0.20
  -4   3   2    0.10    0.20
   3  -3  -2  438.56   11.20
  -3   3   2  433.06   11.20
  -3   3   2  450.25   11.30
   2  -3  -2  955.70   24.10
   2  -3  -2  954.00   24.10
  -2   3   2  966.50   24.10
  -2   3   2  921.41   24.10
  -2   3   2  970.90   24.40
   1  -3  -2   38.30    1.10
   1  -3  -2   38.30    1.10
   1  -3  -2   39.70    1.00
  -1   3   2   38.80    1.10
   0  -3  -2  716.23   18.80
   0  -3  -2  764.72   18.80
   0   3   2  756.12   19.00
   0   3   2  735.63   18.80
  -1  -3  -2    0.30    0.20
  -1  -3  -2    0.20    0.20
  -1  -3  -2    0.20    0.10
   1   3   2   -0.10    0.20
   1   3   2    0.10    0.20
  -2  -3  -2  315.77    8.00
  -2  -3  -2  308.27    8.00
   2   3   2  313.97    8.00
   2   3   2  312.47    8.10
  -3  -3  -2  126.79    3.40
  -3  -3  -2  124.09    3.30
  -3  -3  -2  122.69    3.30
   3   3   2  124.49    3.40
   3   3   2  126.19    3.30
  -4  -3  -2  147.29    3.90
  -4  -3  -2  145.79    3.90
  -4  -3  -2  147.99    3.90
  -5  -3  -2   91.59    2.50
  -5  -3  -2   90.89    2.50
  -5  -3  -2   90.49    2.60
   5   3   2   93.19    2.70
  -6  -3  -2   24.60    1.10
  -6  -3  -2   26.60    0.90
  -6  -3  -2   26.30    1.00
   6   3   2   26.80    1.10
  -7  -3  -2    2.80    0.50
  -7  -3  -2    2.30    0.40
  -7  -3  -2    3.70    0.50
   7   3   2    2.50    0.50
  -8  -3  -2  140.39    3.80
  -8  -3  -2  148.49    3.90
  -8  -3  -2  138.79    4.00
   8   3   2  133.29    4.10
  -9  -3  -2   55.39    2.00
   9   3   2   54.59    2.30
 -10  -3  -2   41.60    1.80
  10   3   2   38.80    2.00
 -11  -3  -2    0.50    0.80
  11   3   2    1.80    0.90
 -12  -3  -2    5.90    1.00
  12   3   2    4.20    1.10
 -13  -3  -2    2.20    1.10
  13   3   2   -1.30    1.20
 -14   4   2    3.60    1.70
 -13   4   2    9.40    1.70
  12  -4  -2   53.59    2.00
 -12   4   2   50.79    2.40
  11  -4  -2   93.19    2.90
 -11   4   2   92.49    3.20
  10  -4  -2  178.68    4.80
 -10   4   2  175.48    5.10
 -10   4   2  166.38    5.20
   9  -4  -2    2.70    0.50
  -9   4   2    3.10    0.70
  -9   4   2    3.40    0.70
   8  -4  -2   42.20    1.60
  -8   4   2   44.60    1.70
  -8   4   2   45.50    1.50
  -8   4   2   49.99    1.60
   7  -4  -2  443.96   11.40
  -7   4   2  443.66   11.30
  -7   4   2  432.96   11.30
  -7   4   2  437.16   11.50
   6  -4  -2    0.90    0.30
  -6   4   2    1.60    0.30
  -6   4   2    1.40    0.40
  -6   4   2    1.70    0.30
   5  -4  -2    0.80    0.30
   5  -4  -2    0.70    0.40
  -5   4   2    1.10    0.30
  -5   4   2    0.70    0.30
  -5   4   2    0.40    0.30
   4  -4  -2   75.39    2.10
   4  -4  -2   77.29    2.20
  -4   4   2   79.09    2.20
  -4   4   2   74.79    2.20
   3  -4  -2    4.00    0.40
   3  -4  -2    4.50    0.40
  -3   4   2    4.50    0.40
  -3   4   2    5.20    0.50
  -3   4   2    4.60    0.40
   2  -4  -2 1301.27   32.90
   2  -4  -2 1304.97   32.70
  -2   4   2 1273.77   32.70
  -2   4   2 1297.47   33.10
   1  -4  -2 1536.25   38.00
   1  -4  -2 1496.55   38.00
   1  -4  -2 1486.25   38.00
  -1   4   2 1475.05   38.30
  -1   4   2 1505.25   37.90
   0  -4  -2 3111.09   77.69
   0  -4  -2 3069.69   78.09
   0  -4  -2 3123.39   77.79
   0   4   2 3004.30   77.89
   0   4   2 3054.59   78.29
  -1  -4  -2   24.40    0.80
  -1  -4  -2   22.50    0.80
  -1  -4  -2   23.30    0.70
   1   4   2   24.00    0.80
   1   4   2   23.70    0.80
  -2  -4  -2    4.50    0.50
  -2  -4  -2    4.10    0.40
  -2  -4  -2    3.90    0.40
   2   4   2    4.40    0.40
   2   4   2    4.10    0.50
  -3  -4  -2   10.60    0.60
  -3  -4  -2    9.50    0.50
   3   4   2    9.50    0.60
   3   4   2    8.80    0.60
  -4  -4  -2   15.00    0.70
  -4  -4  -2   14.30    0.70
  -4  -4  -2   14.30    0.70
   4   4   2   14.20    0.80
   4   4   2   15.10    0.80
  -5  -4  -2  343.47    8.90
  -5  -4  -2  350.66    9.10
  -5  -4  -2  341.67    9.00
   5   4   2  348.37    9.10
  -6  -4  -2    9.00    0.70
  -6  -4  -2    9.00    0.70
  -6  -4  -2    9.00    0.70
   6   4   2    9.90    0.80
  -7  -4  -2    0.10    0.50
  -7  -4  -2    0.40    0.40
   7   4   2    1.20    0.50
  -8  -4  -2   10.10    1.40
  -8  -4  -2    8.80    0.90
   8   4   2    8.60    1.00
  -9  -4  -2    0.70    0.60
  -9  -4  -2    0.30    0.50
   9   4   2   -0.50    0.70
 -10  -4  -2   46.60    1.90
  10   4   2   38.90    2.40
 -11  -4  -2   28.20    1.70
  11   4   2   26.40    1.90
 -12  -4  -2    4.10    1.10
  12   4   2    2.00    1.10
 -13   5   2   13.00    1.80
  12  -5  -2    2.70    0.80
 -12   5   2    1.40    0.90
  11  -5  -2   40.70    1.70
 -11   5   2   37.40    2.50
  10  -5  -2  368.86    9.80
 -10   5   2  359.96   10.30
 -10   5   2  386.46    9.70
   9  -5  -2   34.00    1.40
  -9   5   2   34.40    1.30
  -9   5   2   33.90    1.60
   8  -5  -2   18.00    1.00
  -8   5   2   20.60    1.00
  -8   5   2   18.90    1.10
   7  -5  -2    4.00    0.50
  -7   5   2    5.20    0.60
  -7   5   2    4.30    0.80
  -7   5   2    4.10    0.70
   6  -5  -2   80.59    2.70
  -6   5   2   82.69    2.50
  -6   5   2   78.49    2.30
  -6   5   2   73.99    2.60
   5  -5  -2   14.20    0.80
   5  -5  -2   15.20    0.70
  -5   5   2   14.80    0.70
  -5   5   2   15.50    0.80
  -5   5   2   13.90    0.70
   4  -5  -2  158.98    4.30
   4  -5  -2  162.18    4.30
  -4   5   2  165.38    4.40
  -4   5   2  159.88    4.30
   3  -5  -2  616.24   15.80
   3  -5  -2  621.24   15.80
  -3   5   2  629.54   15.90
  -3   5   2  615.84   15.80
  -3   5   2  614.64   15.80
   2  -5  -2   21.30    0.70
   2  -5  -2   21.20    0.80
  -2   5   2   20.60    0.80
  -2   5   2   21.20    0.80
   1  -5  -2  331.57    8.70
   1  -5  -2  346.97    8.60
   1  -5  -2  333.07    8.60
  -1   5   2  330.97    8.70
  -1   5   2  342.97    8.70
   0  -5  -2   16.20    0.60
   0  -5  -2   16.90    0.60
   0  -5  -2   15.60    0.70
   0   5   2   15.70    0.70
   0   5   2   16.60    0.70
  -1  -5  -2   17.20    0.60
  -1  -5  -2   16.30    0.70
  -1  -5  -2   17.40    0.70
   1   5   2   17.40    0.80
   1   5   2   16.90    0.70
  -2  -5  -2  769.52   19.70
  -2  -5  -2  778.12   19.70
   2   5   2  784.22   19.70
   2   5   2  763.82   19.70
  -3  -5  -2  366.96   10.00
  -3  -5  -2  386.36   10.00
  -3  -5  -2  390.86   10.00
   3   5   2  398.66   10.00
   3   5   2  397.56   10.10
  -4  -5  -2   64.69    2.00
  -4  -5  -2   64.99    2.00
   4   5   2   65.09    2.10
   4   5   2   69.79    2.10
  -5  -5  -2    8.40    0.70
  -5  -5  -2    8.20    0.70
   5   5   2    8.40    0.80
  -6  -5  -2   10.50    0.80
  -6  -5  -2   10.10    0.80
   6   5   2   10.40    0.90
  -7  -5  -2   19.10    1.00
  -7  -5  -2   18.80    1.10
   7   5   2   20.40    1.20
  -8  -5  -2    2.40    0.60
   8   5   2    2.60    0.70
  -9  -5  -2   20.80    1.50
  -9  -5  -2   19.60    1.40
   9   5   2   17.50    1.60
 -10  -5  -2    6.10    1.20
 -10  -5  -2    9.90    1.30
  10   5   2    6.90    1.00
 -11  -5  -2    1.00    0.90
  11   5   2    1.00    0.90
 -12  -5  -2   26.80    2.00
  12   5   2   27.20    2.30
  13  -6  -2    1.80    0.90
 -13   6   2    0.50    1.00
  12  -6  -2    9.10    1.30
 -12   6   2   10.00    1.50
  11  -6  -2    3.80    0.70
 -11   6   2    3.90    0.80
  10  -6  -2   22.20    1.30
 -10   6   2   17.30    1.80
 -10   6   2   23.50    1.30
   9  -6  -2   31.90    1.40
  -9   6   2   30.40    1.40
  -9   6   2   29.10    1.50
   8  -6  -2   -0.60    0.40
  -8   6   2    0.60    0.50
  -8   6   2    0.50    0.40
   7  -6  -2   23.90    1.10
  -7   6   2   21.70    1.10
  -7   6   2   23.50    1.00
   6  -6  -2  118.99    3.30
  -6   6   2  115.39    3.40
  -6   6   2  121.39    3.30
  -5   6   2   41.60    1.40
  -5   6   2   42.90    1.80
   4  -6  -2  353.86    9.30
   4  -6  -2  350.46    9.20
  -4   6   2  367.36    9.40
  -4   6   2  360.66    9.30
  -4   6   2  354.16    9.30
   3  -6  -2    4.60    0.50
   3  -6  -2    5.60    0.60
  -3   6   2    5.30    0.60
  -3   6   2    5.20    0.60
   2  -6  -2  283.67    7.30
   2  -6  -2  295.07    7.30
   2  -6  -2  275.57    7.30
  -2   6   2  278.77    7.40
  -2   6   2  274.77    7.30
   1  -6  -2  328.67    8.50
   1  -6  -2  341.67    8.40
   1  -6  -2  326.57    8.40
  -1   6   2  326.57    8.50
  -1   6   2  320.77    8.60
   0  -6  -2  138.49    3.60
   0  -6  -2  137.69    3.80
   0  -6  -2  139.69    3.70
   0   6   2  135.99    3.80
   0   6   2  142.79    3.80
  -1  -6  -2   48.80    1.40
  -1  -6  -2   47.90    1.50
  -1  -6  -2   49.20    1.50
   1   6   2   48.60    1.60
   1   6   2   46.80    1.60
  -2  -6  -2  241.18    6.40
  -2  -6  -2  239.38    6.40
   2   6   2  255.77    6.50
   2   6   2  241.88    6.40
  -3  -6  -2   11.30    0.70
  -3  -6  -2   11.10    0.70
   3   6   2   10.50    0.80
   3   6   2   10.70    0.80
  -4  -6  -2   18.30    0.90
   4   6   2   20.40    1.00
  -5  -6  -2   11.80    0.80
  -5  -6  -2   13.10    0.80
   5   6   2   12.50    0.90
  -6  -6  -2   24.10    1.10
  -6  -6  -2   22.90    1.10
   6   6   2   24.90    1.30
  -7  -6  -2    0.30    0.60
  -7  -6  -2    0.40    0.50
   7   6   2   -0.20    0.60
  -8  -6  -2   56.19    2.10
  -8  -6  -2   57.79    2.00
   8   6   2   53.49    2.20
  -9  -6  -2  100.19    3.20
  -9  -6  -2   98.89    3.20
   9   6   2   96.09    3.50
 -10  -6  -2    2.10    0.70
 -10  -6  -2    3.80    0.90
  10   6   2    2.50    0.90
 -11  -6  -2    4.30    1.10
  11   6   2    6.30    1.10
 -12  -6  -2    2.40    1.10
  12   6   2    2.10    2.00
  13  -7  -2    0.70    0.90
 -13   7   2    0.10    1.00
  12  -7  -2    5.80    0.90
 -12   7   2    4.60    1.10
  11  -7  -2   85.79    2.90
 -11   7   2   86.59    3.10
  10  -7  -2    3.30    0.60
 -10   7   2    2.30    0.90
 -10   7   2    2.00    0.80
   9  -7  -2    6.60    1.00
  -9   7   2    7.10    1.00
  -9   7   2    5.40    0.90
   8  -7  -2    1.40    0.50
  -8   7   2    0.60    0.50
  -8   7   2    0.90    0.50
   7  -7  -2   57.09    1.90
  -7   7   2   56.69    1.80
  -7   7   2   55.19    2.00
   6  -7  -2  280.87    7.50
  -6   7   2  285.57    7.50
  -6   7   2  283.77    7.60
   5  -7  -2  142.59    3.90
  -5   7   2  139.59    3.90
  -5   7   2  142.19    4.00
  -4   7   2  334.77    8.70
  -4   7   2  328.47    9.00
   3  -7  -2   50.09    1.50
   3  -7  -2   49.10    1.60
  -3   7   2   47.70    1.60
  -3   7   2   48.50    1.60
   2  -7  -2    1.10    0.30
   2  -7  -2    1.20    0.40
   2  -7  -2    1.20    0.20
  -2   7   2    1.30    0.40
  -2   7   2    1.10    0.40
   1  -7  -2   34.00    1.20
   1  -7  -2   33.30    1.10
   1  -7  -2   34.50    1.10
  -1   7   2   33.90    1.30
  -1   7   2   35.70    1.30
   0  -7  -2   30.50    1.20
   0  -7  -2   31.40    1.00
   0  -7  -2   30.50    1.00
   0   7   2   31.60    1.20
   0   7   2   29.20    1.20
  -1  -7  -2   60.19    1.70
  -1  -7  -2   61.09    1.80
  -1  -7  -2   59.29    1.90
   1   7   2   58.39    1.90
  -2  -7  -2  198.48    5.30
  -2  -7  -2  196.18    5.30
   2   7   2  196.28    5.30
  -3  -7  -2    5.60    0.60
  -3  -7  -2    3.70    0.50
   3   7   2    3.60    0.60
   3   7   2    5.30    0.70
  -4  -7  -2  117.59    3.40
  -4  -7  -2  120.29    3.40
   4   7   2  119.69    3.50
  -5  -7  -2    6.00    0.80
  -5  -7  -2    6.40    0.80
   5   7   2    6.40    0.90
  -6  -7  -2  366.26    9.50
  -6  -7  -2  359.06    9.60
   6   7   2  354.16    9.60
  -7  -7  -2    0.00    0.60
  -7  -7  -2    0.60    0.50
   7   7   2    0.50    0.60
  -8  -7  -2  537.55   14.20
  -8  -7  -2  540.75   14.00
   8   7   2  540.85   14.50
  -9  -7  -2   15.50    1.30
  -9  -7  -2   13.40    1.40
   9   7   2   14.80    1.60
 -10  -7  -2    0.10    0.90
  10   7   2    1.40    1.00
 -11  -7  -2    8.80    1.50
 -11  -7  -2    6.30    1.20
  11   7   2    7.60    1.30
  13  -8  -2   19.20    1.70
 -13   8   2   19.50    3.00
  12  -8  -2   24.00    1.70
 -12   8   2   25.60    1.90
  11  -8  -2    3.10    0.70
 -11   8   2    1.40    0.90
  10  -8  -2    8.20    1.30
 -10   8   2   11.00    1.20
 -10   8   2    8.30    1.40
   9  -8  -2    0.90    0.60
  -9   8   2   -0.10    0.60
   8  -8  -2   24.10    1.30
  -8   8   2   22.30    1.40
  -8   8   2   26.20    1.60
   7  -8  -2   22.30    1.10
  -7   8   2   22.90    1.10
  -7   8   2   22.10    1.20
   6  -8  -2   65.39    2.00
  -6   8   2   61.99    2.20
  -6   8   2   61.79    2.00
   5  -8  -2  278.67    7.30
  -5   8   2  270.17    7.40
  -5   8   2  275.37    7.30
   4  -8  -2   28.60    1.10
  -4   8   2   27.50    1.20
  -4   8   2   29.70    1.20
   3  -8  -2   69.49    2.30
  -3   8   2   70.39    2.20
   2  -8  -2   47.00    1.60
   2  -8  -2   45.00    1.50
   2  -8  -2   46.90    1.30
  -2   8   2   45.20    1.60
  -2   8   2   47.50    1.60
   1  -8  -2  153.88    4.20
   1  -8  -2  159.28    4.10
   1  -8  -2  154.78    4.30
  -1   8   2  158.08    4.40
  -1   8   2  157.58    4.30
   0  -8  -2    0.80    0.30
   0  -8  -2    0.50    0.30
   0  -8  -2    0.50    0.40
   0   8   2    1.10    0.40
   0   8   2   -0.50    0.40
  -1  -8  -2   19.60    1.00
  -1  -8  -2   21.10    0.80
  -1  -8  -2   22.00    0.90
   1   8   2   19.30    1.10
   1   8   2   20.70    1.10
  -2  -8  -2  149.59    4.50
  -2  -8  -2  148.49    4.10
   2   8   2  145.39    4.20
   2   8   2  148.59    4.20
  -3  -8  -2    2.10    0.40
  -3  -8  -2    1.70    0.50
   3   8   2    1.40    0.50
  -4  -8  -2   56.59    1.90
  -4  -8  -2   54.99    1.90
   4   8   2   55.19    2.00
  -5  -8  -2  467.35   12.20
  -5  -8  -2  464.85   12.20
   5   8   2  466.85   12.30
  -6  -8  -2    6.50    1.00
   6   8   2    7.50    1.30
  -7  -8  -2    1.10    0.70
  -7  -8  -2    0.80    0.70
   7   8   2    1.70    0.80
  -8  -8  -2  197.18    5.50
  -8  -8  -2  182.18    5.70
   8   8   2  186.88    5.60
  -9  -8  -2   26.70    1.80
  -9  -8  -2   29.70    1.80
   9   8   2   28.70    1.90
 -10  -8  -2    6.10    1.10
 -10  -8  -2    5.40    1.00
  10   8   2    5.90    1.20
 -11  -8  -2   -0.30    1.50
  12  -9  -2    8.00    1.00
 -12   9   2   10.80    1.80
  11  -9  -2    1.90    0.80
 -11   9   2    1.60    0.90
  10  -9  -2    8.00    1.20
 -10   9   2    7.20    1.00
 -10   9   2    7.20    0.80
   9  -9  -2   10.80    1.20
  -9   9   2   11.70    1.30
  -9   9   2   12.70    1.30
   8  -9  -2    4.80    0.70
  -8   9   2    5.20    0.80
   7  -9  -2    0.40    0.50
  -7   9   2    0.10    0.60
  -7   9   2   -0.20    0.60
   6  -9  -2    1.80    0.50
  -6   9   2    1.90    0.70
  -6   9   2    2.20    0.60
   5  -9  -2    1.80    0.50
  -5   9   2    1.40    0.50
  -5   9   2    0.80    0.50
   4  -9  -2   30.90    1.20
  -4   9   2   29.30    1.40
  -4   9   2   31.30    1.40
   3  -9  -2    0.70    0.40
  -3   9   2    0.40    0.50
  -3   9   2    0.00    0.40
   2  -9  -2   41.70    1.20
   2  -9  -2   41.30    1.50
   2  -9  -2   37.70    1.50
  -2   9   2   39.60    1.60
  -2   9   2   40.20    1.50
   1  -9  -2    3.50    0.40
   1  -9  -2    3.30    0.50
   1  -9  -2    3.20    0.50
  -1   9   2    3.70    0.60
  -1   9   2    3.20    0.60
   0  -9  -2    3.10    0.40
   0  -9  -2    3.40    0.40
   0  -9  -2    3.70    0.50
   0   9   2    3.50    0.60
   0   9   2    3.60    0.60
  -1  -9  -2    0.50    0.30
  -1  -9  -2    0.50    0.50
   1   9   2    0.40    0.50
   1   9   2    0.10    0.50
  -2  -9  -2    0.30    0.40
   2   9   2    0.80    0.60
   2   9   2    0.20    0.40
  -3  -9  -2   17.00    1.10
  -3  -9  -2   16.70    0.90
   3   9   2   16.20    1.20
  -4  -9  -2   13.60    1.00
  -4  -9  -2   12.50    1.10
   4   9   2   13.80    1.20
  -5  -9  -2   15.20    1.10
  -5  -9  -2   15.70    1.20
   5   9   2   15.80    1.30
  -6  -9  -2   21.40    1.30
  -6  -9  -2   19.70    1.40
   6   9   2   19.30    1.50
  -7  -9  -2   -1.00    0.70
   7   9   2    0.00    1.20
  -8  -9  -2    6.50    1.00
  -8  -9  -2    8.40    1.40
   8   9   2    4.80    1.00
  -9  -9  -2    0.80    1.00
   9   9   2    2.40    1.00
 -10  -9  -2    3.40    1.10
 -10  -9  -2    3.30    0.90
  10   9   2    2.00    1.20
  12 -10  -2    7.70    1.20
 -12  10   2    7.60    1.50
  11 -10  -2   13.00    1.50
 -11  10   2   12.10    1.70
  10 -10  -2   12.60    1.40
 -10  10   2   13.20    1.40
 -10  10   2   11.80    1.60
   9 -10  -2   -0.60    0.60
  -9  10   2    0.90    0.80
  -9  10   2   -0.70    0.60
   8 -10  -2    9.20    1.10
  -8  10   2   12.30    1.20
  -8  10   2    9.10    1.30
   7 -10  -2    1.20    0.60
  -7  10   2    1.60    0.80
  -7  10   2    0.70    0.60
   6 -10  -2   17.10    1.10
  -6  10   2   17.50    1.20
  -6  10   2   19.10    1.50
   5 -10  -2    6.10    0.80
  -5  10   2    5.90    1.00
  -5  10   2    6.20    1.00
   4 -10  -2  182.58    5.00
  -4  10   2  179.68    5.30
  -4  10   2  179.88    5.10
   3 -10  -2    3.30    0.50
  -3  10   2    3.90    0.70
  -3  10   2    2.50    0.60
   2 -10  -2   16.80    0.90
  -2  10   2   16.60    1.10
  -2  10   2   17.00    1.20
   1 -10  -2   28.00    1.10
   1 -10  -2   26.60    1.40
   1 -10  -2   27.10    1.00
  -1  10   2   25.70    1.30
   0 -10  -2   12.60    0.80
   0 -10  -2   11.70    1.00
   0 -10  -2   13.60    1.10
   0  10   2   11.90    1.20
   0  10   2   12.70    1.10
  -1 -10  -2   49.10    1.60
  -1 -10  -2   47.60    1.50
   1  10   2   48.50    1.90
   1  10   2   48.30    1.90
  -2 -10  -2   13.60    1.10
  -2 -10  -2   12.50    0.90
   2  10   2   12.40    1.20
  -3 -10  -2    5.70    0.80
  -3 -10  -2    7.40    1.10
   3  10   2    6.50    1.10
  -4 -10  -2   10.40    1.00
  -4 -10  -2   10.80    1.20
   4  10   2   10.10    1.20
  -5 -10  -2    1.10    0.60
  -5 -10  -2    1.10    0.70
   5  10   2    0.80    0.90
  -6 -10  -2    2.10    0.80
  -6 -10  -2    0.50    1.00
   6  10   2    0.50    1.30
  -7 -10  -2    0.30    0.80
  -7 -10  -2   -0.30    0.70
   7  10   2    0.30    0.90
  -8 -10  -2   -0.80    0.80
  -8 -10  -2   -0.20    0.90
   8  10   2    0.00    1.00
  -9 -10  -2    2.60    1.00
  -9 -10  -2   -0.20    0.90
   9  10   2    0.10    1.10
  11 -11  -2   41.10    2.10
 -11  11   2   43.00    2.40
  10 -11  -2   29.90    1.80
 -10  11   2   27.30    1.70
 -10  11   2   27.00    2.00
   9 -11  -2   31.40    1.60
  -9  11   2   26.80    1.90
  -9  11   2   28.60    1.70
   8 -11  -2   26.10    1.50
  -8  11   2   27.60    1.60
  -8  11   2   26.50    1.80
   7 -11  -2    0.40    0.60
  -7  11   2    0.80    0.80
  -7  11   2    0.40    0.70
   6 -11  -2  190.68    5.40
  -6  11   2  188.38    5.60
  -6  11   2  190.18    5.40
   5 -11  -2   94.39    3.00
  -5  11   2   97.39    3.20
  -5  11   2   97.69    3.10
   4 -11  -2    5.60    0.80
  -4  11   2    4.60    0.70
  -4  11   2    5.70    0.90
   3 -11  -2    3.60    0.60
  -3  11   2    2.70    0.70
  -3  11   2    3.20    0.70
   2 -11  -2    8.90    0.80
  -2  11   2   11.70    1.10
  -2  11   2    7.90    1.20
   1 -11  -2    1.30    0.40
   1 -11  -2    1.10    0.40
  -1  11   2    1.30    0.70
  -1  11   2    1.00    0.60
   0 -11  -2   30.80    1.20
   0 -11  -2   31.00    1.20
   0 -11  -2   30.20    2.10
   0  11   2   32.70    1.90
   0  11   2   29.70    1.70
  -1 -11  -2   35.50    1.40
  -1 -11  -2   33.90    1.70
   1  11   2   36.60    1.70
  -2 -11  -2   21.50    1.20
  -2 -11  -2   22.60    1.40
   2  11   2   23.60    1.50
  -3 -11  -2    2.50    0.70
  -3 -11  -2    3.80    0.70
   3  11   2    2.90    0.80
  -4 -11  -2   91.19    2.90
  -4 -11  -2   93.89    3.10
   4  11   2   88.59    3.10
  -5 -11  -2    0.10    0.70
  -5 -11  -2    0.30    0.70
   5  11   2   -0.30    0.80
  -6 -11  -2   31.30    1.70
  -6 -11  -2   33.40    1.90
   6  11   2   29.90    1.90
  -7 -11  -2    2.20    0.80
  -7 -11  -2    1.10    0.80
   7  11   2    1.60    1.00
  -8 -11  -2    2.70    1.00
  -8 -11  -2    4.60    1.00
   8  11   2    5.00    1.20
  10 -12  -2  118.49    3.90
 -10  12   2  123.89    3.80
 -10  12   2  122.69    4.30
   9 -12  -2   10.40    1.40
  -9  12   2   11.90    1.70
  -9  12   2   12.20    1.60
   8 -12  -2  421.06   11.30
  -8  12   2  432.86   11.30
  -8  12   2  415.96   11.50
   7 -12  -2    7.20    1.20
  -7  12   2    9.00    1.40
  -7  12   2    6.10    1.10
   6 -12  -2    4.50    0.80
  -6  12   2    5.00    0.90
  -6  12   2    4.40    1.20
   5 -12  -2    9.40    1.10
  -5  12   2   10.90    1.40
  -5  12   2    8.80    1.40
   4 -12  -2   26.00    1.40
  -4  12   2   28.60    1.70
  -4  12   2   28.30    1.60
   3 -12  -2    2.30    0.60
  -3  12   2    2.20    0.80
  -3  12   2    2.40    0.90
   2 -12  -2   13.50    1.00
  -2  12   2   16.80    1.50
  -2  12   2   13.40    1.30
   1 -12  -2   10.50    0.90
  -1  12   2    9.70    1.50
  -1  12   2    9.10    1.20
   0 -12  -2   20.70    1.10
   0  12   2   25.80    2.00
   0  12   2   22.00    1.50
  -1 -12  -2   15.40    1.10
   1  12   2   12.80    1.30
  -2 -12  -2   67.29    2.60
  -2 -12  -2   67.79    2.30
   2  12   2   65.29    2.60
  -3 -12  -2   55.89    2.10
  -3 -12  -2   56.89    2.40
   3  12   2   56.09    3.60
  -4 -12  -2    6.10    1.50
  -4 -12  -2    5.60    1.00
   4  12   2    6.00    1.00
  -5 -12  -2   85.09    2.90
  -5 -12  -2   85.99    3.10
   5  12   2   85.69    3.20
  -6 -12  -2    4.20    1.00
  -6 -12  -2    8.40    1.40
   6  12   2    4.30    1.10
  -7 -12  -2    1.60    1.00
  -7 -12  -2   -0.10    1.00
   7  12   2    0.50    1.10
   9 -13  -2   11.40    1.50
  -9  13   2    7.60    1.30
  -9  13   2    7.80    1.10
   8 -13  -2   28.20    1.70
  -8  13   2   32.20    1.90
  -8  13   2   28.30    2.10
   7 -13  -2    7.40    0.90
  -7  13   2    9.80    1.60
  -7  13   2    7.60    1.20
   6 -13  -2   22.40    1.40
  -6  13   2   23.10    1.70
  -6  13   2   20.70    1.70
   5 -13  -2   23.60    1.40
  -5  13   2   23.10    1.80
  -5  13   2   24.30    1.80
   4 -13  -2    6.60    1.10
  -4  13   2    7.40    1.00
  -4  13   2    7.50    1.00
   3 -13  -2    0.70    0.60
  -3  13   2    1.10    1.40
  -3  13   2    3.10    0.90
   2 -13  -2  239.28    6.50
  -2  13   2  239.78    7.60
  -2  13   2  245.58    6.90
  -1  13   2    0.40    1.00
  -1  13   2   -0.40    0.90
   0  13   2   -0.20    1.00
   1  13   2    2.30    0.90
  -2 -13  -2    6.70    1.10
   2  13   2    8.00    1.10
  -3 -13  -2    0.30    0.70
  -3 -13  -2    1.70    1.10
   3  13   2    0.80    0.90
  -4 -13  -2  122.59    4.00
  -4 -13  -2  118.89    3.80
   4  13   2  120.69    4.10
  -5 -13  -2    3.90    1.00
  -5 -13  -2    2.40    0.90
   5  13   2    0.70    1.10
  -6 -13  -2    2.10    1.10
  -6 -13  -2    2.70    1.00
   6  13   2    1.00    1.20
   8 -14  -2    0.60    0.90
  -8  14   2    1.30    1.00
  -8  14   2    1.50    1.20
   7 -14  -2   17.30    1.50
  -7  14   2   17.10    1.90
  -7  14   2   17.60    2.00
   6 -14  -2   26.70    1.60
  -6  14   2   28.10    2.00
  -6  14   2   25.20    1.90
   5 -14  -2    8.30    1.20
  -5  14   2   10.20    1.80
  -5  14   2   11.50    1.70
   4 -14  -2  117.49    3.60
  -4  14   2  121.29    4.00
  -4  14   2  118.99    4.00
   3 -14  -2   20.70    2.10
  -3  14   2   27.20    2.10
  -3  14   2   26.70    1.80
  -2  14   2   11.50    1.50
  -2  14   2   10.00    1.50
  -1  14   2    3.90    1.00
   0  14   2   33.20    2.00
   1  14   2    3.60    1.10
   2  14   2    0.00    1.00
  -3 -14  -2   20.00    1.60
   3  14   2   17.80    1.90
  -4 -14  -2  101.89    3.40
   4  14   2   99.69    3.80
  -5 -14  -2    8.40    1.10
  -5 -14  -2    5.60    1.30
   5  14   2    5.70    1.40
   6 -15  -2    5.20    0.90
  -6  15   2    6.00    1.30
  -6  15   2    5.50    1.20
   5 -15  -2   -0.80    0.80
  -5  15   2    1.00    1.10
  -5  15   2    0.80    1.00
   4 -15  -2    4.30    0.90
  -4  15   2    2.80    1.10
  -4  15   2    2.20    1.20
  -3  15   2   14.10    1.70
  -3  15   2   14.70    2.10
  -2  15   2   19.80    1.80
  -1  15   2   27.10    2.00
   0  15   2    0.10    1.00
   1  15   2  123.49    4.20
   2  15   2   26.40    2.20
   3  15   2   -1.30    1.20
  -3  16   2    1.70    1.20
  -2  16   2    0.80    1.20
  -1  16   2    4.60    1.30
   0  16   2   15.60    2.30
   3  16  -3   76.09    3.40
   2  16  -3   16.80    2.10
   1  16  -3   68.79    3.00
   0  16  -3   30.60    2.20
  -1  16  -3    7.60    1.40
  -1  16  -3    7.00    1.30
  -2  16  -3    7.50    1.30
  -2  16  -3   11.00    1.80
  -3  16  -3    7.00    1.30
  -3  16  -3    3.60    1.20
  -4  16  -3   14.60    2.00
  -4  16  -3   12.20    2.00
   4 -16   3   15.90    1.50
  -5  16  -3    0.80    1.00
  -5  16  -3    1.00    1.20
   5 -16   3    2.40    0.90
   5  15  -3  107.59    4.00
  -5 -15   3  108.69    3.70
   4  15  -3   13.00    1.90
  -4 -15   3   12.10    1.60
   3  15  -3   -1.80    1.00
  -3 -15   3   -0.20    0.90
   2  15  -3   94.69    3.60
  -2 -15   3  104.39    3.50
   1  15  -3   42.90    2.30
   0  15  -3    6.80    1.10
  -1  15  -3    0.10    1.00
  -1  15  -3    1.30    1.20
  -2  15  -3  196.28    5.90
  -2  15  -3  206.58    6.00
   2 -15   3  199.18    5.60
  -3  15  -3   36.70    2.40
  -3  15  -3   32.40    2.10
   3 -15   3   36.50    1.70
  -4  15  -3   52.49    2.50
  -4  15  -3   56.09    2.60
   4 -15   3   53.49    2.20
  -5  15  -3   30.70    2.10
  -5  15  -3   26.70    2.00
   5 -15   3   31.40    1.70
  -6  15  -3    4.30    1.00
  -6  15  -3    5.10    1.20
   6 -15   3    5.60    0.90
  -7  15  -3    4.00    1.20
  -7  15  -3    4.40    0.90
   7 -15   3    2.50    1.00
   6  14  -3    1.10    1.20
  -6 -14   3    1.40    1.00
   5  14  -3    0.70    1.10
  -5 -14   3    2.50    0.90
   4  14  -3   -1.00    1.00
  -4 -14   3    1.30    0.80
   3  14  -3   12.00    1.60
  -3 -14   3   12.80    1.30
   2  14  -3   20.00    1.70
  -2 -14   3   19.10    1.40
   1  14  -3   16.60    2.50
   1  14  -3   21.50    2.00
  -1 -14   3   17.70    1.30
   0  14  -3   64.19    2.80
   0  14  -3   75.89    3.00
  -1  14  -3  122.19    3.90
  -1  14  -3  116.19    3.80
   1 -14   3  114.29    3.50
  -2  14  -3    9.80    1.60
  -2  14  -3   10.70    1.50
   2 -14   3    8.10    1.10
  -3  14  -3   17.10    2.10
  -3  14  -3   16.60    1.70
   3 -14   3   16.20    1.20
  -4  14  -3   15.60    1.60
  -4  14  -3   15.40    1.50
   4 -14   3   15.50    1.30
  -5  14  -3    8.10    1.50
  -5  14  -3    6.60    0.90
   5 -14   3    7.30    0.90
  -6  14  -3   37.90    2.20
  -6  14  -3   35.10    1.90
   6 -14   3   39.10    1.90
  -7  14  -3   44.40    2.40
  -7  14  -3   41.30    2.10
   7 -14   3   42.30    2.00
  -8  14  -3   15.00    1.60
  -8  14  -3   17.00    1.90
   8 -14   3   14.60    1.50
   7  13  -3    0.10    1.10
  -7 -13   3    1.40    0.90
  -7 -13   3   -0.30    1.10
   6  13  -3    0.80    1.00
  -6 -13   3    1.10    1.20
   5  13  -3    0.40    1.00
  -5 -13   3    0.70    0.80
   4  13  -3    5.70    1.10
  -4 -13   3    6.90    1.10
   3  13  -3    6.10    1.00
  -3 -13   3    6.10    0.80
   2  13  -3   48.30    2.10
  -2 -13   3   48.00    1.80
   1  13  -3    3.80    0.90
   1  13  -3    3.40    0.80
  -1 -13   3    3.50    0.60
   0  13  -3   -0.50    0.80
   0  13  -3    1.20    0.70
   0 -13   3   -0.30    0.50
   0 -13   3    0.00    0.50
  -1  13  -3    2.60    0.70
  -1  13  -3    2.70    0.80
   1 -13   3    1.10    0.50
  -2  13  -3    9.30    1.20
  -2  13  -3   11.20    1.40
   2 -13   3    8.50    1.00
  -3  13  -3   22.90    1.60
  -3  13  -3   23.20    1.50
   3 -13   3   22.70    1.30
  -4  13  -3   53.19    2.20
  -4  13  -3   53.59    2.30
   4 -13   3   53.49    2.00
  -5  13  -3    0.50    0.80
  -5  13  -3   -0.10    1.20
   5 -13   3   -0.30    0.80
  -6  13  -3    0.00    0.70
  -6  13  -3   -1.10    1.30
   6 -13   3   -0.40    0.60
  -7  13  -3    3.00    0.80
   7 -13   3    1.30    0.70
  -8  13  -3    1.30    0.70
  -8  13  -3    0.30    0.90
   8 -13   3    1.00    0.80
  -9  13  -3    0.00    1.00
   9 -13   3   -0.90    0.80
   8  12  -3    1.70    1.10
  -8 -12   3    0.70    1.00
  -8 -12   3   -0.50    0.90
   7  12  -3    1.30    1.00
  -7 -12   3    2.00    0.90
  -7 -12   3    1.40    0.90
   6  12  -3   10.90    1.50
  -6 -12   3   10.90    1.30
   5  12  -3   34.30    2.30
  -5 -12   3   35.20    2.10
  -5 -12   3   32.30    2.30
   4  12  -3   26.30    1.70
  -4 -12   3   28.00    1.80
  -4 -12   3   28.60    1.50
   3  12  -3   39.40    1.90
  -3 -12   3   39.70    1.60
   2  12  -3    4.20    0.90
  -2 -12   3    5.30    0.90
   1  12  -3   21.90    1.50
   1  12  -3   22.10    1.40
  -1 -12   3   22.90    1.10
  -1 -12   3   22.80    1.00
   0  12  -3   -0.60    0.60
   0  12  -3    1.00    0.60
   0 -12   3   -0.90    0.40
   0 -12   3   -0.10    0.40
  -1  12  -3    0.80    0.70
  -1  12  -3    0.50    0.60
   1 -12   3    0.50    0.40
   1 -12   3    0.70    0.40
  -2  12  -3    1.10    0.60
  -2  12  -3    1.60    0.70
   2 -12   3    1.90    0.50
  -3  12  -3    2.30    0.70
  -3  12  -3    1.60    0.60
   3 -12   3    1.60    0.50
  -4  12  -3  283.77    7.80
   4 -12   3  284.87    7.70
  -5  12  -3   10.00    1.50
  -5  12  -3    8.00    1.20
   5 -12   3    8.80    1.00
  -6  12  -3   69.19    2.50
  -6  12  -3   66.79    2.60
   6 -12   3   67.79    2.40
  -7  12  -3   13.10    1.50
  -7  12  -3   12.70    1.20
   7 -12   3   12.20    1.20
  -8  12  -3    2.60    0.90
   8 -12   3    3.60    0.90
  -9  12  -3   11.60    1.60
   9 -12   3   12.90    1.40
 -10  12  -3   14.80    1.90
  10 -12   3   15.00    1.60
   9  11  -3    6.70    1.30
  -9 -11   3    7.60    1.20
  -9 -11   3    6.30    1.10
   8  11  -3    6.80    1.10
  -8 -11   3    7.20    1.20
  -8 -11   3    7.60    1.10
   7  11  -3   61.59    2.60
  -7 -11   3   63.69    2.40
  -7 -11   3   56.79    2.80
   6  11  -3    7.30    1.00
  -6 -11   3    8.60    1.40
  -6 -11   3   10.20    1.50
   5  11  -3  108.99    3.60
  -5 -11   3  113.59    3.70
  -5 -11   3  110.99    3.60
   4  11  -3   52.09    2.10
  -4 -11   3   53.59    2.00
  -4 -11   3   53.89    2.20
   3  11  -3    0.30    0.70
  -3 -11   3    0.30    0.70
  -3 -11   3    1.00    0.50
   2  11  -3   39.40    1.80
   2  11  -3   41.30    1.70
  -2 -11   3   41.60    1.80
  -2 -11   3   39.80    1.50
   1  11  -3    1.80    0.60
   1  11  -3    2.30    0.60
  -1 -11   3    2.50    0.50
  -1 -11   3    2.40    0.40
   0  11  -3    7.80    1.10
   0  11  -3    7.60    1.00
   0 -11   3    9.30    0.70
   0 -11   3    9.30    0.70
  -1  11  -3   61.59    2.10
  -1  11  -3   62.99    2.20
   1 -11   3   61.89    2.30
   1 -11   3   61.89    2.00
  -2  11  -3    1.00    0.50
  -2  11  -3    0.60    0.50
   2 -11   3    0.70    0.40
   2 -11   3    0.90    0.40
  -3  11  -3   36.90    1.60
  -3  11  -3   37.50    1.60
   3 -11   3   35.50    1.40
  -4  11  -3   44.90    1.80
  -4  11  -3   46.40    1.80
   4 -11   3   47.00    1.70
  -5  11  -3   29.90    1.50
   5 -11   3   33.80    1.40
  -6  11  -3   66.89    2.40
  -6  11  -3   70.49    2.30
   6 -11   3   67.09    2.40
  -7  11  -3    1.40    0.60
  -7  11  -3    2.00    0.70
   7 -11   3    1.70    0.60
  -8  11  -3    4.40    0.90
   8 -11   3    4.40    0.70
  -9  11  -3    0.50    0.80
   9 -11   3   -0.20    0.70
 -10  11  -3    8.00    1.10
  10 -11   3    7.10    0.90
 -11  11  -3   -1.50    1.00
  11 -11   3    0.40    0.90
  10  10  -3   12.90    1.90
 -10 -10   3    8.50    1.30
 -10 -10   3   10.80    1.90
   9  10  -3   30.50    2.00
  -9 -10   3   33.10    2.10
  -9 -10   3   31.20    1.90
   8  10  -3    6.50    1.00
  -8 -10   3    4.30    0.90
  -8 -10   3    5.80    1.00
   7  10  -3  122.89    4.00
  -7 -10   3  129.29    4.00
  -7 -10   3  121.29    4.40
   6  10  -3   10.70    1.30
  -6 -10   3   12.50    1.50
  -6 -10   3   10.90    1.40
   5  10  -3    2.60    0.70
  -5 -10   3    1.80    0.70
  -5 -10   3    1.70    0.60
   4  10  -3   15.20    1.20
  -4 -10   3   13.70    1.30
  -4 -10   3   14.20    1.00
   3  10  -3   12.50    1.10
   3  10  -3   13.50    1.30
  -3 -10   3   12.90    0.90
  -3 -10   3   11.80    1.40
   2  10  -3  122.49    3.60
   2  10  -3  123.69    3.70
  -2 -10   3  124.49    3.30
  -2 -10   3  124.39    3.70
  -2 -10   3  124.09    3.50
   1  10  -3   17.20    1.20
   1  10  -3   16.40    1.10
  -1 -10   3   17.30    0.80
  -1 -10   3   17.30    1.20
  -1 -10   3   18.10    0.90
   0  10  -3   65.69    2.20
   0  10  -3   64.89    2.40
   0 -10   3   69.39    2.00
  -1  10  -3  124.89    3.70
  -1  10  -3  133.19    3.70
   1 -10   3  128.79    3.60
   1 -10   3  129.69    3.50
  -2  10  -3    0.80    0.50
  -2  10  -3    0.70    0.50
   2 -10   3    1.20    0.30
   2 -10   3    0.50    0.40
  -3  10  -3   23.00    1.10
  -3  10  -3   21.90    1.20
   3 -10   3   22.30    0.90
   3 -10   3   22.20    1.00
  -4  10  -3    0.70    0.50
  -4  10  -3    0.20    0.40
   4 -10   3   -0.10    0.40
  -5  10  -3   17.90    1.10
  -5  10  -3   16.70    1.10
   5 -10   3   18.50    1.00
  -6  10  -3    6.70    1.00
  -6  10  -3    7.40    0.90
   6 -10   3    7.70    0.90
  -7  10  -3    5.90    1.00
  -7  10  -3    4.40    0.60
   7 -10   3    4.30    0.70
  -8  10  -3    2.40    0.80
   8 -10   3    0.80    0.60
  -9  10  -3    0.80    1.20
   9 -10   3   -0.10    0.60
 -10  10  -3    1.80    0.90
  10 -10   3    2.80    0.80
 -11  10  -3   10.00    1.70
  11 -10   3    7.10    1.00
  11   9  -3    0.60    1.20
 -11  -9   3    0.90    1.00
 -11  -9   3   -0.50    1.10
  10   9  -3    3.80    1.10
 -10  -9   3    3.90    1.00
 -10  -9   3    3.70    1.00
   9   9  -3   15.40    1.70
  -9  -9   3   13.40    1.40
  -9  -9   3   15.50    1.70
   8   9  -3   98.89    3.40
  -8  -9   3   97.69    3.70
  -8  -9   3  100.99    3.30
   7   9  -3    1.00    0.70
  -7  -9   3    1.60    0.80
  -7  -9   3    2.60    0.70
   6   9  -3    4.50    0.70
  -6  -9   3    4.50    0.80
  -6  -9   3    2.60    0.90
   5   9  -3   24.20    1.30
  -5  -9   3   22.90    1.40
  -5  -9   3   22.30    1.20
   4   9  -3   14.40    1.60
   4   9  -3   13.00    1.00
  -4  -9   3   12.70    1.20
  -4  -9   3   10.80    0.90
   3   9  -3   52.49    1.80
   3   9  -3   52.99    2.00
  -3  -9   3   49.90    1.70
  -3  -9   3   51.49    1.90
   2   9  -3  255.37    6.80
   2   9  -3  254.07    6.80
  -2  -9   3  252.47    6.80
  -2  -9   3  250.67    6.70
   1   9  -3   45.40    1.40
   1   9  -3   45.20    1.60
  -1  -9   3   43.70    1.50
  -1  -9   3   44.30    1.60
   0   9  -3  185.88    5.00
   0   9  -3  180.28    4.80
   0   9  -3  179.58    4.90
   0  -9   3  175.18    4.80
   0  -9   3  183.18    5.00
  -1   9  -3   18.00    1.00
  -1   9  -3   18.60    1.00
  -1   9  -3   18.20    0.90
   1  -9   3   17.40    0.80
  -2   9  -3   15.90    0.90
  -2   9  -3   15.60    0.90
  -2   9  -3   15.10    0.90
   2  -9   3   15.00    0.70
  -3   9  -3   97.19    3.30
  -3   9  -3  106.39    3.00
   3  -9   3  110.39    2.90
  -4   9  -3  140.79    4.00
  -4   9  -3  132.59    3.80
   4  -9   3  141.09    3.90
   4  -9   3  143.89    3.70
  -5   9  -3   22.50    1.10
  -5   9  -3   22.80    1.20
   5  -9   3   23.80    1.10
  -6   9  -3    0.00    0.50
  -6   9  -3    0.00    0.40
   6  -9   3   -0.10    0.40
  -7   9  -3   12.20    1.10
   7  -9   3   10.90    1.00
  -8   9  -3   -0.10    0.60
   8  -9   3   -0.20    0.50
  -9   9  -3   17.10    1.40
   9  -9   3   16.50    1.20
 -10   9  -3    4.40    0.90
  10  -9   3    5.20    0.80
 -11   9  -3    2.10    1.00
  11  -9   3    3.20    0.90
 -12   9  -3    0.20    1.00
  12  -9   3    2.60    1.00
  11   8  -3    3.40    1.10
 -11  -8   3    0.70    0.90
 -11  -8   3    0.80    0.90
  10   8  -3   40.30    2.30
 -10  -8   3   45.00    2.20
 -10  -8   3   39.80    2.00
   9   8  -3  148.49    4.70
  -9  -8   3  144.79    4.70
  -9  -8   3  156.58    4.60
   8   8  -3   50.99    2.20
  -8  -8   3   54.99    2.10
  -8  -8   3   53.09    2.20
   7   8  -3    0.90    0.60
  -7  -8   3    0.30    0.60
  -7  -8   3   -0.40    0.60
   6   8  -3   20.10    1.20
  -6  -8   3   16.60    1.10
  -6  -8   3   17.40    1.20
   5   8  -3    5.10    0.80
  -5  -8   3    4.30    0.60
  -5  -8   3    5.50    0.80
   4   8  -3   49.00    1.70
   4   8  -3   47.40    1.70
  -4  -8   3   42.30    1.60
  -4  -8   3   46.10    1.70
   3   8  -3   70.29    2.20
  -3  -8   3   65.89    2.10
  -3  -8   3   69.69    2.20
   2   8  -3   55.49    1.80
  -2  -8   3   50.39    1.80
  -1  -8   3    0.20    0.40
  -1   8  -3  206.38    5.50
  -1   8  -3  216.28    5.60
  -1   8  -3  213.48    5.60
   1  -8   3  209.38    5.60
   1  -8   3  205.68    5.50
  -2   8  -3 1753.32   44.00
  -2   8  -3 1733.23   44.10
  -2   8  -3 1712.03   44.10
   2  -8   3 1763.92   44.00
  -3   8  -3   92.19    2.60
   3  -8   3   85.19    2.40
  -4   8  -3 1001.60   26.50
  -4   8  -3 1062.09   26.50
  -4   8  -3 1049.79   26.60
   4  -8   3 1053.39   26.30
  -5   8  -3  189.68    5.20
  -5   8  -3  188.78    5.10
  -5   8  -3  190.98    5.00
  -6   8  -3    3.80    0.50
  -6   8  -3    3.10    0.40
  -6   8  -3    5.10    0.80
   6  -8   3    4.70    0.70
  -7   8  -3   42.50    1.70
   7  -8   3   46.70    1.70
  -8   8  -3   -0.50    0.50
   8  -8   3    0.20    0.50
  -9   8  -3   48.50    2.00
   9  -8   3   50.69    1.90
 -10   8  -3   61.29    2.40
  10  -8   3   57.09    2.80
 -11   8  -3   -0.70    0.90
 -12   8  -3    6.60    1.20
  12  -8   3    7.80    1.00
  12   7  -3   15.80    2.10
 -12  -7   3   12.20    1.80
 -12  -7   3    9.50    1.10
  11   7  -3   35.20    2.20
 -11  -7   3   37.40    2.10
 -11  -7   3   31.50    1.90
  10   7  -3    1.20    0.80
 -10  -7   3    2.30    0.80
 -10  -7   3    0.30    0.80
   9   7  -3    1.90    0.80
  -9  -7   3    1.30    0.70
  -9  -7   3    0.50    0.80
   8   7  -3    2.70    0.70
  -8  -7   3    2.40    0.70
  -8  -7   3    2.40    0.60
   7   7  -3    0.70    0.50
  -7  -7   3    0.50    0.50
  -7  -7   3    0.50    0.50
   6   7  -3    3.50    0.60
  -6  -7   3    3.70    0.60
  -6  -7   3    3.50    0.60
   5   7  -3   21.00    1.10
  -5  -7   3   21.10    1.00
   4   7  -3   11.60    0.90
  -4  -7   3   12.20    0.80
  -4  -7   3   12.50    0.80
   3   7  -3  289.07    7.40
   3   7  -3  282.57    7.60
   3   7  -3  294.07    7.60
  -3  -7   3  297.67    7.60
  -3  -7   3  279.37    7.60
   2   7  -3   54.89    1.80
   2   7  -3   58.09    1.80
   2   7  -3   59.89    1.60
  -2  -7   3   57.69    1.70
  -2  -7   3   54.59    1.80
   1   7  -3   93.79    2.70
   1   7  -3   93.89    2.60
   1   7  -3   91.99    2.70
  -1  -7   3   97.29    2.60
  -1  -7   3   95.49    2.70
   0   7  -3  303.17    8.20
   0   7  -3  306.97    8.20
   0   7  -3  326.67    8.20
   0  -7   3  329.27    8.20
   0  -7   3  319.17    8.20
   1  -7   3   17.30    0.70
   1  -7   3   16.30    0.80
  -2   7  -3  349.07    9.50
  -2   7  -3  348.67    9.50
   2  -7   3  386.06    9.50
   2  -7   3  383.06    9.40
  -3   7  -3 1033.10   25.80
  -3   7  -3 1012.30   25.80
  -3   7  -3 1001.30   25.70
  -3   7  -3  979.60   25.70
   3  -7   3 1041.10   25.60
  -4   7  -3 1057.39   26.50
  -4   7  -3  981.40   26.80
  -4   7  -3 1047.00   26.60
   4  -7   3 1091.09   26.40
  -5   7  -3    2.60    0.40
  -5   7  -3    1.90    0.40
  -5   7  -3    2.30    0.40
  -5   7  -3    2.50    0.40
   5  -7   3    1.90    0.30
  -6   7  -3   55.09    1.90
  -6   7  -3   53.59    1.60
   6  -7   3   59.29    1.80
  -7   7  -3   53.89    1.90
   7  -7   3   55.19    1.80
  -8   7  -3    0.60    0.50
   8  -7   3    0.50    0.40
  -9   7  -3  182.08    5.20
   9  -7   3  181.88    5.10
 -10   7  -3   67.89    2.60
  10  -7   3   69.89    2.40
 -11   7  -3   28.90    1.80
  11  -7   3   27.00    1.60
 -12   7  -3   43.40    2.30
  12  -7   3   44.60    2.00
 -13   7  -3    3.30    1.20
  12   6  -3    2.30    1.10
 -12  -6   3    2.40    1.00
  11   6  -3   11.90    1.70
 -11  -6   3   13.00    1.60
 -11  -6   3   14.70    1.40
  10   6  -3   55.19    2.70
 -10  -6   3   59.19    2.60
 -10  -6   3   60.29    2.50
   9   6  -3   14.80    1.90
  -9  -6   3   11.80    1.20
  -9  -6   3   15.60    1.40
   8   6  -3    7.40    1.00
  -8  -6   3    6.80    1.00
  -8  -6   3    9.60    1.00
   7   6  -3    7.00    0.90
  -7  -6   3    6.80    0.90
  -7  -6   3    7.70    0.80
   6   6  -3    7.30    0.80
  -6  -6   3    6.20    0.70
  -6  -6   3    7.60    0.80
   5   6  -3  186.78    5.10
  -5  -6   3  188.58    5.10
  -5  -6   3  191.48    5.10
   4   6  -3   53.89    1.80
   4   6  -3   55.09    1.80
   4   6  -3   56.49    1.80
  -4  -6   3   54.79    1.80
  -4  -6   3   59.49    1.80
   3   6  -3    5.70    0.70
   3   6  -3    6.10    0.60
   3   6  -3    5.50    0.60
   3   6  -3    6.20    0.40
  -3  -6   3    5.40    0.50
  -3  -6   3    4.70    0.60
   2   6  -3  189.88    5.00
   2   6  -3  193.98    4.90
   2   6  -3  186.48    5.00
  -2  -6   3  189.58    5.00
  -2  -6   3  185.48    5.00
   1   6  -3  305.97    8.00
   1   6  -3  304.17    7.90
   1   6  -3  308.47    7.90
  -1  -6   3  312.37    8.00
  -1  -6   3  304.17    7.90
   0   6  -3  290.97    7.70
   0   6  -3  306.07    7.70
   0   6  -3  290.07    7.60
   0  -6   3  299.07    7.70
   0  -6   3  298.37    7.70
  -1   6  -3  100.09    2.80
  -1   6  -3  106.49    2.80
  -1   6  -3   99.19    2.80
  -1   6  -3   99.49    2.80
   1  -6   3  106.99    2.80
   1  -6   3  108.19    2.80
  -2   6  -3   31.40    1.10
  -2   6  -3   31.40    1.00
  -2   6  -3   29.90    1.00
  -2   6  -3   30.60    1.00
   2  -6   3   30.40    1.00
   2  -6   3   31.60    1.00
  -3   6  -3    1.80    0.30
  -3   6  -3    2.00    0.30
  -3   6  -3    1.60    0.30
  -4   6  -3  129.39    3.60
  -4   6  -3  132.99    3.70
  -4   6  -3  136.69    3.60
  -4   6  -3  134.39    3.70
   4  -6   3  139.39    3.50
  -5   6  -3   98.99    3.10
  -5   6  -3   98.99    2.90
   5  -6   3  101.39    2.70
   6  -6   3   16.40    0.70
   6  -6   3   16.40    0.80
  -7   6  -3   37.60    1.40
   7  -6   3   34.10    1.30
  -8   6  -3   43.00    1.70
   8  -6   3   42.60    1.60
  -9   6  -3   13.30    1.10
   9  -6   3   11.60    1.00
 -10   6  -3    1.50    0.70
  10  -6   3    1.30    0.60
 -11   6  -3    0.20    0.80
  11  -6   3   -0.70    0.60
 -12   6  -3   -0.80    0.90
  12  -6   3   -0.20    0.70
 -13   6  -3   40.90    2.40
  13   5  -3    5.00    1.50
 -13  -5   3    2.60    1.10
 -13  -5   3    2.60    1.20
  12   5  -3   16.80    1.90
 -12  -5   3   14.80    1.70
 -12  -5   3   18.60    1.70
  11   5  -3    3.00    1.10
 -11  -5   3    1.00    0.70
 -11  -5   3    2.50    0.80
  10   5  -3    5.00    1.00
 -10  -5   3    4.50    0.70
 -10  -5   3    5.60    0.80
   9   5  -3    1.10    0.70
  -9  -5   3    0.40    0.60
  -9  -5   3   -0.30    0.60
   8   5  -3    0.50    0.60
  -8  -5   3    0.40    0.50
  -8  -5   3    0.80    0.50
   7   5  -3   33.10    1.40
  -7  -5   3   33.60    1.30
  -7  -5   3   31.70    1.30
   6   5  -3   -0.40    0.40
  -6  -5   3   -0.40    0.40
  -6  -5   3    0.00    0.40
   5   5  -3    8.40    0.80
   5   5  -3    7.30    0.70
  -5  -5   3    9.70    0.60
  -5  -5   3    7.40    0.70
   4   5  -3   47.70    1.50
   4   5  -3   49.00    1.50
  -4  -5   3   46.00    1.50
  -4  -5   3   45.00    1.50
   3   5  -3   11.70    0.40
   3   5  -3   12.50    0.60
   3   5  -3   11.50    0.70
  -3  -5   3   11.30    0.60
  -3  -5   3   11.90    0.60
   2   5  -3  632.84   16.00
   2   5  -3  622.34   16.10
   2   5  -3  636.34   16.10
  -2  -5   3  630.14   16.10
  -2  -5   3  637.14   16.10
   1   5  -3  321.57    8.40
   1   5  -3  331.77    8.30
   1   5  -3  319.37    8.40
  -1  -5   3  328.57    8.40
  -1  -5   3  323.77    8.40
   0   5  -3   42.00    1.30
   0   5  -3   41.20    1.20
   0   5  -3   42.20    1.20
   0  -5   3   42.70    1.30
   0  -5   3   42.10    1.20
  -1   5  -3   33.50    1.00
  -1   5  -3   31.60    1.00
  -1   5  -3   33.90    1.00
   1  -5   3   32.80    1.00
   1  -5   3   32.30    1.00
  -2   5  -3  110.79    3.00
  -2   5  -3  114.99    3.10
  -2   5  -3  113.89    3.10
  -2   5  -3  119.79    3.00
   2  -5   3  109.29    3.10
   2  -5   3  116.29    3.00
  -3   5  -3   44.20    1.30
  -3   5  -3   44.50    1.30
  -3   5  -3   41.50    1.30
  -3   5  -3   43.70    1.30
   3  -5   3   45.40    1.30
  -4   5  -3    0.20    0.30
  -4   5  -3    0.30    0.20
  -4   5  -3    0.00    0.20
  -4   5  -3    0.20    0.30
   4  -5   3   -0.10    0.20
  -5   5  -3    6.80    0.60
  -5   5  -3    7.00    0.60
   5  -5   3    7.10    0.40
  -6   5  -3  103.79    3.00
   6  -5   3  100.99    2.70
  -7   5  -3    1.00    0.40
   7  -5   3    1.00    0.30
   7  -5   3    0.60    0.40
  -8   5  -3    5.60    0.80
   8  -5   3    7.60    0.60
   8  -5   3    6.70    0.70
  -9   5  -3    2.40    0.60
   9  -5   3    2.10    0.50
 -10   5  -3    3.10    0.70
  10  -5   3    4.20    0.60
  11  -5   3   16.50    1.20
 -12   5  -3   18.90    1.70
 -13   5  -3    3.00    1.10
  13   4  -3    2.20    1.20
 -13  -4   3    1.70    1.30
  12   4  -3   14.80    1.90
 -12  -4   3   15.00    1.60
 -12  -4   3   14.20    1.50
  11   4  -3   87.39    3.20
 -11  -4   3   88.39    2.90
 -11  -4   3   87.99    2.90
  10   4  -3   29.50    1.70
 -10  -4   3   30.50    1.50
   9   4  -3  111.29    3.50
  -9  -4   3  109.09    3.30
  -9  -4   3  109.19    3.30
   8   4  -3   31.80    1.40
  -8  -4   3   33.60    1.40
  -8  -4   3   31.40    1.30
   7   4  -3    1.70    0.50
  -7  -4   3    1.90    0.40
  -7  -4   3    2.30    0.50
   6   4  -3   34.20    1.50
  -6  -4   3   34.50    1.30
  -6  -4   3   33.50    1.50
   5   4  -3   83.49    2.40
   5   4  -3   80.89    2.30
  -5  -4   3   81.49    2.30
  -5  -4   3   78.49    2.30
  -5  -4   3   78.29    2.40
   4   4  -3  639.24   16.60
   4   4  -3  649.14   16.50
   4   4  -3  643.54   16.40
  -4  -4   3  660.43   16.60
   3   4  -3   48.40    1.50
   3   4  -3   52.69    1.40
   3   4  -3   49.99    1.50
  -3  -4   3   49.00    1.50
  -3  -4   3   49.60    1.50
   2   4  -3   94.19    2.60
   2   4  -3   96.09    2.60
   2   4  -3  101.59    2.50
  -2  -4   3   96.19    2.60
  -2  -4   3   94.39    2.60
   1   4  -3  841.12   21.70
   1   4  -3  865.11   21.70
   1   4  -3  855.51   21.70
  -1  -4   3  870.51   21.70
  -1  -4   3  856.51   21.70
   0   4  -3  995.30   24.80
   0   4  -3  948.11   24.80
   0   4  -3  978.00   24.90
   0   4  -3  999.50   24.90
   0  -4   3  967.80   24.80
   0  -4   3  996.80   24.80
  -1   4  -3  291.17    7.30
  -1   4  -3  277.07    7.30
  -1   4  -3  284.17    7.30
   1  -4   3  292.57    7.30
   1  -4   3  288.37    7.30
  -2   4  -3   35.60    1.10
  -2   4  -3   34.50    1.00
  -2   4  -3   36.10    1.10
  -2   4  -3   37.40    1.10
   2  -4   3   36.10    1.00
  -3   4  -3  135.99    3.60
  -3   4  -3  138.29    3.60
  -3   4  -3  140.69    3.70
  -3   4  -3  138.69    3.70
   3  -4   3  141.29    3.60
  -4   4  -3  208.18    5.50
  -4   4  -3  211.08    5.50
   4  -4   3  213.58    5.40
  -5   4  -3  107.49    3.00
  -5   4  -3  108.09    3.00
   5  -4   3  108.89    2.90
  -6   4  -3   40.50    1.40
  -6   4  -3   41.20    1.40
  -6   4  -3   40.40    1.30
  -7   4  -3   20.60    0.80
  -7   4  -3   19.50    1.00
   7  -4   3   18.10    1.00
  -8   4  -3   17.90    0.90
  -8   4  -3   17.00    1.10
   8  -4   3   18.00    0.90
  -9   4  -3    1.10    0.60
  -9   4  -3    1.60    0.50
   9  -4   3    0.90    0.50
 -10   4  -3   80.19    2.70
  10  -4   3   77.89    2.50
 -11   4  -3    1.40    0.80
  11  -4   3    1.40    0.60
 -12   4  -3   36.70    2.00
 -13   4  -3   -1.90    0.90
  13   3  -3   13.90    2.00
  12   3  -3  113.69    4.00
 -12  -3   3  119.69    3.50
 -12  -3   3  115.39    3.70
  11   3  -3  129.29    5.00
 -11  -3   3  124.99    4.30
 -11  -3   3  121.99    3.80
  10   3  -3   56.29    2.20
 -10  -3   3   57.69    2.40
 -10  -3   3   53.09    2.00
   9   3  -3   10.90    1.10
  -9  -3   3   11.10    0.90
  -9  -3   3   10.20    0.90
   8   3  -3   20.20    1.10
  -8  -3   3   18.50    1.00
  -8  -3   3   18.90    1.00
   7   3  -3   13.50    0.90
  -7  -3   3   13.60    0.80
  -7  -3   3   11.00    0.90
   6   3  -3   17.30    0.60
   6   3  -3   16.40    0.90
   6   3  -3   16.60    1.00
  -6  -3   3   16.80    0.80
  -6  -3   3   16.30    0.80
   5   3  -3   43.00    1.40
   5   3  -3   42.30    1.40
   5   3  -3   43.80    1.20
  -5  -3   3   40.30    1.40
  -5  -3   3   43.40    1.40
  -5  -3   3   43.40    1.40
   4   3  -3  110.19    2.80
   4   3  -3  107.89    3.00
   4   3  -3  108.49    3.00
  -4  -3   3  107.39    3.10
  -4  -3   3  105.49    2.90
  -4  -3   3  110.89    3.00
   3   3  -3  961.70   24.50
   3   3  -3  970.40   24.50
   3   3  -3  977.90   24.50
  -3  -3   3  964.60   24.50
  -3  -3   3  965.70   24.50
   2   3  -3 1160.58   29.00
   2   3  -3 1162.78   29.10
   2   3  -3 1125.69   28.90
  -2  -3   3 1126.19   29.00
  -2  -3   3 1148.49   28.90
   1   3  -3  112.29    2.90
   1   3  -3  114.19    2.90
   1   3  -3  102.39    3.00
  -1  -3   3  115.99    3.00
  -1  -3   3  113.89    2.90
   0   3  -3   16.90    0.60
   0   3  -3   16.60    0.50
   0   3  -3   16.60    0.60
   0   3  -3   17.50    0.60
   0  -3   3   17.10    0.60
   0  -3   3   17.50    0.60
  -1   3  -3  390.86    9.80
  -1   3  -3  385.86    9.80
  -1   3  -3  385.86    9.80
  -1   3  -3  383.26    9.80
   1  -3   3  383.26    9.80
   1  -3   3  385.46    9.80
  -2   3  -3  331.37    8.30
  -2   3  -3  321.97    8.20
  -2   3  -3  312.07    8.30
  -2   3  -3  323.47    8.20
   2  -3   3  331.47    8.30
  -3   3  -3   25.40    0.80
  -3   3  -3   26.40    0.80
   3  -3   3   25.90    0.80
  -4   3  -3   10.50    0.50
  -4   3  -3    9.80    0.50
  -4   3  -3   11.00    0.50
  -5   3  -3   27.60    0.90
  -5   3  -3   27.30    1.00
  -5   3  -3   26.70    0.90
  -6   3  -3    3.80    0.50
  -6   3  -3    3.60    0.50
  -6   3  -3    2.50    0.40
  -7   3  -3   39.60    1.30
  -7   3  -3   38.60    1.50
   7  -3   3   39.30    1.30
  -8   3  -3   90.59    2.80
  -8   3  -3   91.89    2.60
   8  -3   3   91.39    2.60
  -9   3  -3    3.90    0.50
  -9   3  -3    2.90    0.60
   9  -3   3    4.50    0.50
 -10   3  -3   42.90    1.90
 -10   3  -3   43.00    1.60
  10  -3   3   42.40    1.60
 -11   3  -3   -0.20    0.70
 -12   3  -3    0.00    0.80
  13  -3   3    2.90    1.10
  13   2  -3    5.70    1.30
  12   2  -3    1.30    1.00
 -12  -2   3    1.50    0.70
 -12  -2   3    0.60    0.80
  11   2  -3   -0.60    0.70
 -11  -2   3    0.00    0.50
 -11  -2   3   -0.20    0.70
  10   2  -3   33.70    1.70
 -10  -2   3   32.90    1.60
 -10  -2   3   34.10    1.50
   9   2  -3   31.70    1.50
  -9  -2   3   31.80    1.30
  -9  -2   3   32.30    1.30
   8   2  -3    0.70    0.30
  -8  -2   3    0.40    0.40
  -8  -2   3   -0.10    0.40
  -8  -2   3    0.80    0.40
   7   2  -3  187.68    4.80
  -7  -2   3  180.08    4.90
  -7  -2   3  183.78    5.00
  -7  -2   3  182.88    4.90
   6   2  -3  300.17    8.10
   6   2  -3  321.67    8.00
  -6  -2   3  306.47    8.10
  -6  -2   3  315.07    8.20
  -6  -2   3  318.87    8.20
  -6  -2   3  321.07    8.20
   5   2  -3   44.90    1.40
   5   2  -3   47.20    1.30
  -5  -2   3   46.30    1.40
  -5  -2   3   46.60    1.40
  -5  -2   3   45.80    1.40
   4   2  -3  102.89    2.60
   4   2  -3   98.49    2.70
  -4  -2   3   97.49    2.70
  -4  -2   3  101.59    2.70
  -4  -2   3   94.99    2.70
  -4  -2   3  100.29    2.70
   3   2  -3   62.79    1.70
   3   2  -3   59.99    1.60
  -3  -2   3   59.09    1.70
  -3  -2   3   58.69    1.70
  -3  -2   3   61.19    1.70
   2   2  -3   61.09    1.70
   2   2  -3   58.49    1.60
   2   2  -3   59.99    1.70
  -2  -2   3   60.79    1.70
  -2  -2   3   61.79    1.70
   1   2  -3   70.99    1.90
   1   2  -3   71.09    1.90
  -1  -2   3   72.89    1.90
  -1  -2   3   70.19    1.90
   0   2  -3 8148.69  204.18
   0  -2   3 8046.20  204.28
  -1   2  -3  630.64   16.00
  -1   2  -3  643.84   15.90
  -1   2  -3  624.04   16.00
  -1   2  -3  623.74   16.00
   1  -2   3  625.04   16.00
   1  -2   3  637.54   15.90
  -2   2  -3  265.67    6.10
  -2   2  -3  218.68    6.00
  -2   2  -3  223.98    6.00
  -3   2  -3  516.05   13.10
  -3   2  -3  515.95   13.00
  -3   2  -3  508.95   13.00
  -4   2  -3   94.79    2.50
  -4   2  -3   92.59    2.60
  -4   2  -3   95.19    2.50
  -5   2  -3   94.39    2.60
  -5   2  -3   96.39    2.70
  -5   2  -3   94.39    2.60
  -6   2  -3  154.58    4.10
  -6   2  -3  151.48    4.20
  -6   2  -3  155.88    4.10
  -7   2  -3   14.10    1.00
  -7   2  -3   14.50    0.80
   7  -2   3   14.40    0.70
  -8   2  -3   -0.10    0.40
  -8   2  -3   -0.80    0.40
   8  -2   3    0.00    0.30
  -9   2  -3   71.29    2.20
  -9   2  -3   68.79    2.40
   9  -2   3   72.39    2.10
 -10   2  -3    1.30    0.50
 -10   2  -3    1.20    0.70
  10  -2   3    0.40    0.50
 -11   2  -3   -0.10    0.70
  12  -2   3    0.10    0.80
  13  -2   3   22.30    2.00
  13   1  -3   46.10    2.50
  12   1  -3   -0.40    0.90
 -12  -1   3    1.00    1.30
  11   1  -3    1.20    0.90
 -11  -1   3    1.90    0.70
 -11  -1   3    2.00    0.70
 -10  -1   3   26.60    1.40
 -10  -1   3   27.50    1.30
 -10  -1   3   28.60    1.50
   9   1  -3    3.30    0.50
  -9  -1   3    3.00    0.60
  -9  -1   3    2.90    0.50
  -9  -1   3    3.40    0.50
   8   1  -3  558.34   14.30
  -8  -1   3  567.54   14.40
  -8  -1   3  549.35   14.40
  -8  -1   3  560.54   14.50
   7   1  -3  187.48    4.80
  -7  -1   3  182.48    4.90
  -7  -1   3  184.68    5.10
  -7  -1   3  184.68    4.90
   6   1  -3    1.80    0.40
   6   1  -3    2.20    0.30
  -6  -1   3    1.40    0.30
  -6  -1   3    1.90    0.30
  -6  -1   3    2.20    0.40
  -6  -1   3    2.00    0.40
   5   1  -3   25.20    0.80
   5   1  -3   24.40    0.90
  -5  -1   3   25.10    0.90
  -5  -1   3   25.50    0.90
  -5  -1   3   25.20    0.90
   4   1  -3   41.40    1.30
   4   1  -3   42.30    1.20
  -4  -1   3   42.60    1.20
  -4  -1   3   40.60    1.30
  -4  -1   3   43.60    1.30
  -4  -1   3   43.10    1.30
   3   1  -3  960.60   23.90
   3   1  -3  958.70   24.00
  -3  -1   3  980.90   24.00
  -3  -1   3  934.61   24.20
  -3  -1   3  903.81   24.00
  -3  -1   3  951.60   24.00
   2   1  -3  186.18    4.70
   2   1  -3  177.78    4.70
  -2  -1   3  176.58    4.70
  -2  -1   3  184.28    4.70
  -2  -1   3  184.68    4.70
   1   1  -3  901.81   22.80
   1   1  -3  910.21   23.00
   1   1  -3  920.11   22.90
   1   1  -3  895.21   22.90
  -1  -1   3  821.32   23.20
  -1  -1   3  931.81   23.00
  -1  -1   3  955.20   22.90
   0   1  -3 3501.35   88.09
   0   1  -3 3495.55   87.99
   0  -1   3 3341.77   88.19
   0  -1   3 3586.44   87.99
  -1   1  -3  178.18    4.40
  -1   1  -3  169.98    4.40
  -1   1  -3  165.58    4.40
  -1   1  -3  170.58    4.40
  -1   1  -3  166.88    4.40
   1  -1   3  181.48    4.40
  -2   1  -3 1145.49   29.00
  -2   1  -3 1156.28   29.10
  -2   1  -3 1135.19   29.10
  -3   1  -3   82.49    2.00
  -3   1  -3   72.19    2.10
  -3   1  -3   73.19    2.10
  -4   1  -3  966.80   24.50
  -4   1  -3  963.50   24.50
  -4   1  -3  974.40   24.60
  -5   1  -3   34.80    1.10
  -5   1  -3   37.10    1.20
  -5   1  -3   34.50    1.10
  -6   1  -3   76.89    2.30
  -6   1  -3   74.99    2.20
  -7   1  -3    7.60    0.70
  -7   1  -3    7.80    0.70
   7  -1   3    7.70    0.50
  -8   1  -3   72.59    2.40
  -8   1  -3   75.99    2.30
   8  -1   3   74.99    2.20
  -9   1  -3   69.49    2.20
  -9   1  -3   68.49    2.40
   9  -1   3   71.29    2.10
 -10   1  -3    5.30    0.70
  10  -1   3    6.10    1.10
 -11   1  -3    6.90    1.10
  11  -1   3    5.50    0.90
  12  -1   3   65.59    2.70
  13  -1   3    5.50    1.20
  14   0  -3    4.50    1.40
  13   0  -3    1.30    1.00
 -12   0   3    4.40    0.90
 -11   0   3   27.50    1.30
 -11   0   3   25.80    1.60
  10   0  -3    8.40    0.80
 -10   0   3    7.70    0.90
 -10   0   3    7.70    0.90
 -10   0   3    9.70    1.20
   9   0  -3   15.60    0.90
  -9   0   3   14.90    1.10
  -9   0   3   15.20    1.10
  -9   0   3   14.80    0.90
   8   0  -3   13.90    0.80
  -8   0   3   12.50    0.90
  -8   0   3   13.60    0.80
  -8   0   3   13.40    0.80
   7   0  -3   51.59    1.60
  -7   0   3   49.99    1.60
  -7   0   3   53.29    1.60
   6   0  -3  473.35   12.00
   6   0  -3  465.75   11.90
  -6   0   3  460.55   11.90
  -6   0   3  462.45   12.00
  -6   0   3  451.45   11.90
  -6   0   3  477.15   11.90
   5   0  -3   49.60    1.40
   5   0  -3   49.00    1.50
  -5   0   3   50.79    1.50
  -5   0   3   44.80    1.40
  -5   0   3   49.60    1.50
  -5   0   3   50.09    1.40
   4   0  -3   37.30    1.10
   4   0  -3   36.60    1.10
  -4   0   3   37.90    1.10
  -4   0   3   37.10    1.20
  -4   0   3   38.50    1.10
   3   0  -3  286.97    7.30
   3   0  -3  279.87    7.30
  -3   0   3  268.87    7.30
  -3   0   3  292.67    7.30
  -3   0   3  287.37    7.30
  -3   0   3  297.17    7.30
   2   0  -3 2775.32   70.09
   2   0  -3 2759.92   70.19
  -2   0   3 2795.52   70.09
  -2   0   3 2787.52   70.09
  -2   0   3 2718.53   70.19
   1   0  -3 2241.38   61.59
  -1   0   3 2463.35   61.29
  -1   0   3 2576.94   61.19
  -1   0   3 2386.76   61.19
   0   0  -3 1431.66   36.40
   0   0  -3 1390.56   36.30
   0   0  -3 1452.55   36.40
   0   0  -3 1419.96   36.40
   0   0   3 1423.16   36.40
   0   0   3 1492.65   36.30
  -1   0  -3  103.09    2.60
  -1   0  -3  101.49    2.60
  -1   0  -3  102.89    2.60
  -1   0  -3  101.39    2.70
   1   0   3   94.29    2.60
   1   0   3  107.99    2.60
  -2   0  -3  110.89    2.80
  -2   0  -3  101.59    2.90
  -2   0  -3  107.99    2.80
  -2   0  -3  111.49    2.90
   2   0   3  114.79    2.90
  -3   0  -3  260.57    6.60
  -3   0  -3  261.97    6.60
  -3   0  -3  250.97    6.60
  -4   0  -3 4532.15  115.99
  -4   0  -3 4572.24  115.29
  -4   0  -3 4589.54  115.69
  -5   0  -3 1646.44   41.90
  -5   0  -3 1681.93   42.00
  -5   0  -3 1650.23   42.10
  -6   0  -3  660.93   16.80
  -6   0  -3  648.54   16.80
   6   0   3  660.13   16.70
  -7   0  -3    2.40    0.40
  -7   0  -3    1.70    0.40
   7   0   3    2.40    0.30
  -8   0  -3  478.25   12.60
   8   0   3  492.95   12.40
   8   0   3  489.15   12.80
  -9   0  -3    3.80    0.60
   9   0   3    2.50    0.60
 -10   0  -3   48.40    1.80
  10   0   3   47.60    2.00
 -11   0  -3  206.18    5.80
 -12   0  -3   47.00    2.10
  12   0   3   43.10    2.30
  13   0   3    1.20    1.10
  14  -1  -3    0.80    1.10
 -13   1   3   15.40    1.70
 -12   1   3    3.80    0.90
 -11   1   3    0.00    0.50
 -11   1   3    0.50    0.80
  10  -1  -3    1.40    0.50
 -10   1   3    0.70    0.50
 -10   1   3    1.40    0.60
   9  -1  -3    1.10    0.40
  -9   1   3    0.80    0.40
  -9   1   3    1.30    0.40
  -9   1   3    1.50    0.50
   8  -1  -3  121.79    3.50
  -8   1   3  124.89    3.70
  -8   1   3  131.59    3.50
  -8   1   3  127.89    3.40
   7  -1  -3   47.60    1.50
  -7   1   3   45.30    1.50
  -7   1   3   47.40    1.40
   6  -1  -3   35.30    1.10
  -6   1   3   34.80    1.20
  -6   1   3   34.30    1.10
  -6   1   3   33.00    1.10
  -6   1   3   34.50    1.10
   5  -1  -3   69.49    2.00
   5  -1  -3   69.19    2.00
  -5   1   3   67.29    2.00
  -5   1   3   69.99    1.90
  -5   1   3   72.89    2.10
  -5   1   3   73.19    2.00
   4  -1  -3  985.90   25.60
   4  -1  -3  997.20   25.60
  -4   1   3 1024.70   25.70
  -4   1   3 1021.10   25.60
  -4   1   3 1032.30   25.60
   3  -1  -3  212.48    5.50
   3  -1  -3  209.48    5.50
  -3   1   3  222.38    5.40
  -3   1   3  214.78    5.50
  -3   1   3  212.48    5.50
  -3   1   3  200.58    5.50
   2  -1  -3   76.39    2.10
   2  -1  -3   78.69    2.10
  -2   1   3   80.19    2.10
  -2   1   3   81.39    2.10
   1  -1  -3    7.50    0.30
   1  -1  -3    7.30    0.40
  -1   1   3    7.10    0.40
  -1   1   3    7.20    0.30
  -1   1   3    7.30    0.30
   0  -1  -3   36.00    1.10
   0  -1  -3   41.20    1.10
   0  -1  -3   38.10    1.10
   0  -1  -3   37.80    1.10
   0   1   3   38.90    1.10
   0   1   3   43.20    1.10
  -1  -1  -3    5.10    0.30
  -1  -1  -3    5.60    0.20
  -1  -1  -3    4.40    0.30
  -1  -1  -3    5.10    0.30
   1   1   3    4.50    0.30
   1   1   3    4.90    0.30
  -2  -1  -3  212.88    5.50
  -2  -1  -3  205.88    5.50
  -2  -1  -3  213.68    5.50
  -2  -1  -3  212.38    5.50
   2   1   3  227.78    5.50
  -3  -1  -3  294.97    7.50
  -3  -1  -3  291.87    7.60
  -3  -1  -3  287.57    7.50
  -3  -1  -3  292.57    7.50
   3   1   3  303.57    7.60
  -4  -1  -3    0.20    0.20
  -4  -1  -3    0.10    0.20
  -4  -1  -3    0.10    0.20
   4   1   3    0.80    0.20
  -5  -1  -3  119.89    3.30
  -5  -1  -3  122.89    3.20
   5   1   3  124.39    3.40
  -6  -1  -3  524.35   13.70
   6   1   3  532.15   13.70
   6   1   3  538.45   13.50
  -7  -1  -3   78.99    2.40
   7   1   3   79.69    2.50
  -8  -1  -3   79.09    2.50
   8   1   3   80.49    2.60
  -9  -1  -3  144.89    4.20
   9   1   3  150.78    4.50
 -10  -1  -3    2.40    0.70
  10   1   3    2.70    0.80
 -11  -1  -3   16.80    1.60
  11   1   3   14.60    1.60
 -12  -1  -3    0.50    0.90
  12   1   3    1.70    1.00
  13   1   3   -0.10    1.20
 -14   2   3   -1.00    1.00
 -13   2   3    4.40    1.10
 -12   2   3    8.20    1.40
  11  -2  -3   -0.40    0.50
 -11   2   3    1.50    0.70
  10  -2  -3    0.20    0.50
 -10   2   3   -0.10    0.50
   9  -2  -3    0.50    0.40
  -9   2   3   -0.10    0.50
  -9   2   3   -0.50    0.40
  -9   2   3    0.50    0.50
   8  -2  -3   38.80    1.80
  -8   2   3   41.20    1.40
  -8   2   3   42.60    1.30
  -8   2   3   41.70    1.60
   7  -2  -3   25.80    1.00
  -7   2   3   24.60    1.20
  -7   2   3   26.60    0.90
  -7   2   3   24.90    1.00
  -7   2   3   24.80    1.00
   6  -2  -3   54.99    1.60
  -6   2   3   54.69    1.70
  -6   2   3   54.09    1.60
  -6   2   3   53.09    1.50
  -6   2   3   52.99    1.60
   5  -2  -3  195.28    5.00
   5  -2  -3  188.08    5.00
  -5   2   3  189.48    5.00
  -5   2   3  196.68    5.10
  -5   2   3  196.68    5.00
  -5   2   3  179.08    4.90
   4  -2  -3   25.70    0.90
   4  -2  -3   24.20    0.80
  -4   2   3   25.30    0.90
  -4   2   3   24.70    0.90
   3  -2  -3  327.37    8.40
   3  -2  -3  336.57    8.40
  -3   2   3  314.77    8.40
  -3   2   3  319.07    8.40
  -3   2   3  337.17    8.40
   2  -2  -3 2040.60   51.49
   2  -2  -3 2052.59   51.49
  -2   2   3 2006.10   51.39
  -2   2   3 2061.79   51.59
  -2   2   3 1973.10   51.19
   1  -2  -3 1786.22   44.90
   1  -2  -3 1750.42   44.90
   1  -2  -3 1726.23   45.00
  -1   2   3 1822.12   45.20
   0  -2  -3    3.30    0.30
   0  -2  -3    3.50    0.20
   0  -2  -3    3.60    0.30
   0  -2  -3    3.60    0.20
   0   2   3    3.90    0.30
   0   2   3    3.50    0.30
  -1  -2  -3   96.19    2.60
  -1  -2  -3   99.09    2.50
  -1  -2  -3   94.99    2.60
   1   2   3   98.29    2.60
   1   2   3   93.39    2.60
  -2  -2  -3  283.47    7.30
  -2  -2  -3  289.37    7.20
  -2  -2  -3  284.37    7.30
  -2  -2  -3  277.07    7.30
   2   2   3  290.47    7.30
   2   2   3  278.07    7.30
  -3  -2  -3  373.56    9.50
  -3  -2  -3  366.76    9.40
  -3  -2  -3  367.16    9.50
   3   2   3  374.46    9.50
  -4  -2  -3  365.56    9.50
  -4  -2  -3  368.86    9.50
   4   2   3  375.66    9.60
  -5  -2  -3   38.70    1.20
  -5  -2  -3   37.80    1.30
  -5  -2  -3   38.70    1.20
   5   2   3   40.40    1.30
  -6  -2  -3    0.80    0.20
  -6  -2  -3    0.50    0.30
  -7  -2  -3   10.10    0.80
  -7  -2  -3    9.60    0.60
   7   2   3    8.20    0.80
  -8  -2  -3   57.89    2.00
   8   2   3   58.19    2.20
  -9  -2  -3    0.90    0.60
   9   2   3    1.90    0.70
 -10  -2  -3   -0.50    0.60
  10   2   3    0.90    0.70
 -11  -2  -3    6.00    1.40
  11   2   3    5.00    1.10
 -12  -2  -3    0.00    0.90
  12   2   3    0.50    1.00
 -13  -2  -3    0.60    1.90
  13   2   3    0.20    1.20
 -14   3   3   11.50    2.00
 -13   3   3   36.80    2.20
  12  -3  -3    5.80    0.80
 -12   3   3    4.00    0.90
  11  -3  -3   14.10    1.10
 -11   3   3   13.60    1.30
  10  -3  -3  310.07    8.00
 -10   3   3  300.37    8.20
 -10   3   3  298.27    8.30
   9  -3  -3  148.79    4.20
  -9   3   3  149.79    4.20
  -9   3   3  149.88    4.40
   8  -3  -3   86.39    2.50
  -8   3   3   84.59    2.70
  -8   3   3   82.29    2.50
   7  -3  -3  166.78    4.70
  -7   3   3  169.38    4.60
  -7   3   3  174.18    4.60
  -7   3   3  173.08    4.70
   6  -3  -3    8.60    0.60
  -6   3   3    8.60    0.70
  -6   3   3    8.80    0.70
  -6   3   3    8.70    0.60
   5  -3  -3  135.69    3.60
   5  -3  -3  132.79    3.60
  -5   3   3  135.69    3.70
  -5   3   3  137.49    3.60
  -5   3   3  125.19    3.60
   4  -3  -3  199.38    5.20
   4  -3  -3  197.78    5.20
  -4   3   3  204.28    5.20
  -4   3   3  193.28    5.20
  -4   3   3  195.88    5.20
   3  -3  -3   10.50    0.50
   3  -3  -3   10.80    0.50
  -3   3   3    9.80    0.50
  -3   3   3   12.10    0.50
  -3   3   3   10.30    0.50
   2  -3  -3    7.00    0.40
   2  -3  -3    6.90    0.40
  -2   3   3    6.40    0.40
   1  -3  -3  540.15   13.50
   1  -3  -3  512.65   13.60
   1  -3  -3  548.25   13.50
  -1   3   3  504.55   13.60
  -1   3   3  555.24   13.60
   0  -3  -3  654.13   16.80
   0  -3  -3  661.73   16.90
   0  -3  -3  672.93   16.90
   0   3   3  683.03   17.00
   0   3   3  657.73   16.90
  -2  -3  -3  810.92   20.60
  -2  -3  -3  814.32   20.60
   2   3   3  816.82   20.60
   2   3   3  802.32   20.60
  -3  -3  -3   13.90    0.60
  -3  -3  -3   11.90    0.60
  -3  -3  -3   12.40    0.60
  -3  -3  -3   11.70    0.50
   3   3   3   12.00    0.60
   3   3   3   14.50    0.60
  -4  -3  -3    1.30    0.30
  -4  -3  -3    0.60    0.20
  -4  -3  -3    0.50    0.30
   4   3   3    0.90    0.30
  -5  -3  -3   19.40    0.80
  -5  -3  -3   19.60    0.90
  -5  -3  -3   18.70    0.80
   5   3   3   19.10    0.90
  -6  -3  -3    7.80    0.70
  -6  -3  -3    8.50    0.60
   6   3   3    8.30    0.70
  -7  -3  -3   29.30    1.20
  -7  -3  -3   29.60    1.00
  -7  -3  -3   28.40    1.00
   7   3   3   27.40    1.30
  -8  -3  -3    4.10    0.60
   8   3   3    3.20    0.60
  -9  -3  -3    5.20    0.70
   9   3   3    7.60    1.20
 -10  -3  -3   37.60    1.80
  10   3   3   37.00    1.90
 -11  -3  -3    8.30    1.00
  11   3   3    9.10    1.50
 -12  -3  -3   27.00    1.90
  12   3   3   24.00    2.10
 -13   4   3   38.50    2.20
  12  -4  -3  200.28    5.90
 -12   4   3  198.28    5.90
  11  -4  -3    6.90    1.00
 -11   4   3    7.60    1.30
  10  -4  -3    2.20    0.60
 -10   4   3    2.90    0.70
   9  -4  -3  181.88    5.00
  -9   4   3  185.78    5.00
  -9   4   3  181.48    5.20
   8  -4  -3  911.51   23.00
  -8   4   3  884.31   23.10
  -8   4   3  900.01   22.90
   7  -4  -3   -0.20    0.30
  -7   4   3    1.00    0.40
  -7   4   3    0.40    0.40
   6  -4  -3   19.40    0.90
  -6   4   3   19.10    1.00
  -6   4   3   19.60    0.90
  -6   4   3   20.40    0.90
   5  -4  -3  140.39    3.80
   5  -4  -3  142.29    3.80
  -5   4   3  142.19    3.80
  -5   4   3  142.19    3.90
   4  -4  -3   86.89    2.40
   4  -4  -3   85.89    2.40
  -4   4   3   84.29    2.40
  -4   4   3   84.39    2.40
  -4   4   3   87.19    2.40
   3  -4  -3    0.00    0.20
   3  -4  -3   -0.10    0.20
  -3   4   3    0.00    0.20
  -3   4   3    0.00    0.20
   2  -4  -3  213.98    5.60
   2  -4  -3  211.18    5.60
  -2   4   3  212.88    5.60
  -2   4   3  218.78    5.60
   1  -4  -3  563.94   13.80
   1  -4  -3  554.44   13.80
   1  -4  -3  518.85   13.90
  -1   4   3  527.35   13.90
  -1   4   3  557.74   13.90
   0  -4  -3   17.50    0.70
   0  -4  -3   16.80    0.60
   0  -4  -3   17.10    0.60
   0   4   3   20.90    0.70
   0   4   3   17.70    0.70
  -1  -4  -3   73.09    1.90
  -1  -4  -3   71.89    2.00
  -1  -4  -3   72.89    2.00
   1   4   3   72.99    2.00
   1   4   3   70.99    2.10
  -2  -4  -3 1856.91   47.40
  -2  -4  -3 1897.21   47.60
  -2  -4  -3 1838.62   47.70
   2   4   3 1874.51   47.40
   2   4   3 1922.01   47.90
  -3  -4  -3   68.09    2.00
   3   4   3   70.69    2.10
   3   4   3   70.19    2.00
  -4  -4  -3  231.98    6.20
  -4  -4  -3  236.38    6.20
  -4  -4  -3  234.18    6.10
   4   4   3  238.78    6.30
  -5  -4  -3    0.20    0.30
  -5  -4  -3    0.00    0.40
  -5  -4  -3    0.00    0.30
   5   4   3   -0.30    0.50
  -6  -4  -3   53.69    1.70
  -6  -4  -3   53.79    1.80
  -6  -4  -3   51.39    1.70
   6   4   3   55.39    1.90
  -7  -4  -3   17.20    1.00
  -7  -4  -3   16.30    0.90
   7   4   3   15.80    1.10
  -8  -4  -3    2.40    0.60
  -8  -4  -3    2.00    0.70
   8   4   3    3.40    0.70
  -9  -4  -3    0.50    0.60
   9   4   3   -0.10    0.60
 -10  -4  -3   23.10    2.20
  10   4   3   23.20    1.70
 -11  -4  -3   -0.10    0.90
  11   4   3    0.40    0.90
 -12  -4  -3    1.00    1.00
  12   4   3    0.80    1.00
  13  -5  -3    0.50    0.90
 -13   5   3    0.10    1.00
  12  -5  -3   23.60    1.50
 -12   5   3   19.80    1.70
  11  -5  -3    1.90    0.60
 -11   5   3    1.00    1.00
  10  -5  -3    6.50    0.90
 -10   5   3    3.90    0.80
 -10   5   3    5.00    0.90
   9  -5  -3   89.59    2.70
  -9   5   3   84.29    3.00
  -9   5   3   90.19    2.60
   8  -5  -3    0.40    0.40
  -8   5   3    0.80    0.50
  -8   5   3    1.50    0.40
   7  -5  -3   23.70    1.10
  -7   5   3   24.40    1.10
  -7   5   3   25.40    1.20
   6  -5  -3  345.57    8.90
  -6   5   3  346.87    9.00
  -6   5   3  329.87    8.90
   5  -5  -3   55.59    1.70
   5  -5  -3   52.59    1.70
  -5   5   3   52.19    1.70
  -5   5   3   53.29    1.70
   4  -5  -3  321.47    8.40
   4  -5  -3  327.47    8.40
  -4   5   3  312.77    8.40
  -4   5   3  338.47    8.50
  -4   5   3  327.97    8.50
   3  -5  -3  154.38    4.20
   3  -5  -3  155.18    4.10
  -3   5   3  154.28    4.20
  -3   5   3  157.98    4.20
   2  -5  -3   18.30    0.60
   2  -5  -3   18.60    0.70
  -2   5   3   18.30    0.80
  -2   5   3   20.40    0.80
   1  -5  -3  104.69    3.00
   1  -5  -3  109.49    3.00
   1  -5  -3  109.59    2.90
  -1   5   3  107.39    3.00
  -1   5   3  123.79    3.10
   0  -5  -3  231.68    6.00
   0  -5  -3  231.58    6.10
   0  -5  -3  231.88    6.00
   0   5   3  237.48    6.10
   0   5   3  234.98    6.10
  -1  -5  -3   35.60    1.10
  -1  -5  -3   34.30    1.20
  -1  -5  -3   36.70    1.00
   1   5   3   37.80    1.20
   1   5   3   35.60    1.20
  -2  -5  -3  417.86   11.00
  -2  -5  -3  432.36   11.00
   2   5   3  438.16   11.10
   2   5   3  423.86   11.00
  -3  -5  -3    9.70    0.60
  -3  -5  -3    9.50    0.70
  -3  -5  -3    9.30    0.60
   3   5   3    9.70    0.70
   3   5   3    9.30    0.70
  -4  -5  -3  326.57    8.50
  -5  -5  -3    3.90    0.60
  -5  -5  -3    3.50    0.50
   5   5   3    3.90    0.70
  -6  -5  -3    7.60    0.80
  -6  -5  -3    8.70    0.70
   6   5   3    9.50    0.90
  -7  -5  -3    2.30    0.50
  -7  -5  -3    2.20    0.60
   7   5   3    2.80    0.60
  -8  -5  -3    8.40    1.20
  -8  -5  -3    7.20    1.00
   8   5   3    7.10    1.10
  -9  -5  -3   58.19    2.30
  -9  -5  -3   60.19    2.40
   9   5   3   60.49    2.50
 -10  -5  -3    5.50    0.90
  10   5   3    5.60    1.00
 -11  -5  -3   10.40    1.50
  11   5   3    6.40    1.20
 -12  -5  -3    3.60    1.10
  12   5   3    2.20    1.10
  13  -6  -3    3.60    0.90
 -13   6   3    3.60    1.10
  12  -6  -3   10.20    1.30
 -12   6   3    8.50    1.20
  11  -6  -3   34.80    2.00
 -11   6   3   36.60    1.90
  10  -6  -3    3.10    0.60
 -10   6   3    2.00    0.80
 -10   6   3    2.90    0.70
   9  -6  -3   21.90    1.20
  -9   6   3   21.70    1.50
   8  -6  -3   20.00    1.10
  -8   6   3   20.30    1.20
  -8   6   3   19.00    1.10
   7  -6  -3    5.10    0.70
  -7   6   3    4.70    0.80
  -7   6   3    4.70    0.70
   6  -6  -3   58.89    1.90
  -6   6   3   60.39    2.00
  -6   6   3   57.79    1.90
   5  -6  -3   -0.20    0.30
  -5   6   3   -0.10    0.40
  -5   6   3    0.50    0.40
   4  -6  -3  698.43   18.00
   4  -6  -3  706.43   18.00
  -4   6   3  703.93   18.00
  -4   6   3  714.43   18.10
   3  -6  -3   37.50    1.20
   3  -6  -3   38.00    1.30
  -3   6   3   37.70    1.30
  -3   6   3   38.90    1.30
   2  -6  -3   -0.10    0.20
   2  -6  -3    0.30    0.20
   2  -6  -3    0.00    0.30
  -2   6   3    0.20    0.30
  -2   6   3    0.10    0.30
   1  -6  -3  200.88    5.40
   1  -6  -3  207.28    5.40
   1  -6  -3  211.38    5.30
  -1   6   3  203.28    5.50
  -1   6   3  202.98    5.50
   0  -6  -3   21.90    0.80
   0  -6  -3   21.60    0.80
   0  -6  -3   21.90    0.90
   0   6   3   21.60    1.00
   0   6   3   22.30    1.00
  -1  -6  -3  103.79    2.80
  -1  -6  -3  101.59    2.70
  -1  -6  -3  100.99    2.90
   1   6   3   99.69    2.90
   1   6   3   97.29    2.90
  -2  -6  -3  960.40   24.50
  -2  -6  -3  949.80   24.40
   2   6   3  975.80   24.50
   2   6   3  959.50   24.50
  -3  -6  -3    1.90    0.40
  -3  -6  -3    2.20    0.40
   3   6   3    2.10    0.50
  -4  -6  -3    5.40    0.60
  -4  -6  -3    5.50    0.70
   4   6   3    4.10    0.70
  -5  -6  -3   37.10    1.40
  -5  -6  -3   35.70    1.40
   5   6   3   36.70    1.50
  -6  -6  -3    2.30    0.50
  -6  -6  -3    2.10    0.50
   6   6   3    2.20    0.60
  -7  -6  -3    6.50    0.90
  -7  -6  -3    4.50    0.70
   7   6   3    5.00    0.80
  -8  -6  -3   33.00    1.60
  -8  -6  -3   31.70    1.60
   8   6   3   34.70    2.20
  -9  -6  -3    0.20    0.80
  -9  -6  -3    0.30    0.60
   9   6   3    0.10    0.90
 -10  -6  -3   14.60    1.30
 -10  -6  -3    9.10    1.10
  10   6   3   13.70    1.80
 -11  -6  -3    7.50    1.20
  11   6   3    7.70    1.30
  13  -7  -3    5.50    1.00
 -13   7   3    3.50    1.00
  12  -7  -3    6.20    0.90
 -12   7   3    3.80    1.10
  11  -7  -3   39.90    1.80
 -11   7   3   36.60    2.00
 -11   7   3   40.10    1.70
  10  -7  -3   19.10    1.30
 -10   7   3   18.60    1.40
 -10   7   3   18.60    1.20
   9  -7  -3   10.30    1.00
  -9   7   3    8.30    1.10
   8  -7  -3    2.20    0.50
  -8   7   3    1.50    0.60
  -8   7   3    1.60    0.50
   7  -7  -3    0.00    0.40
  -7   7   3    0.40    0.40
  -7   7   3   -0.20    0.50
   6  -7  -3   13.60    0.90
  -6   7   3   13.20    0.90
  -6   7   3   13.20    0.90
   5  -7  -3   16.50    0.90
  -5   7   3   16.40    1.00
  -5   7   3   15.90    0.90
   4  -7  -3   10.20    0.90
   4  -7  -3    9.80    0.70
  -4   7   3   10.10    0.80
  -4   7   3   10.40    0.80
   3  -7  -3    6.20    0.90
   3  -7  -3    6.40    0.60
  -3   7   3    7.20    0.80
   2  -7  -3  348.87    8.70
   2  -7  -3  341.87    8.80
   2  -7  -3  328.97    8.90
  -2   7   3  356.16    9.00
  -2   7   3  331.77    8.90
   1  -7  -3  165.58    4.30
   1  -7  -3  158.28    4.40
   1  -7  -3  161.98    4.30
  -1   7   3  164.28    4.50
  -1   7   3  160.58    4.40
   0  -7  -3  148.99    3.90
   0  -7  -3  148.99    4.10
   0  -7  -3  148.99    4.00
   0   7   3  145.79    4.10
   0   7   3  153.68    4.20
  -1  -7  -3   24.80    0.80
  -1  -7  -3   24.90    1.10
  -1  -7  -3   25.60    1.00
   1   7   3   23.60    1.10
  -2  -7  -3    1.30    0.40
  -2  -7  -3    1.00    0.40
   2   7   3    1.60    0.50
   2   7   3    1.60    0.50
  -3  -7  -3    1.00    0.60
  -3  -7  -3    2.10    0.50
   3   7   3    1.70    0.50
  -4  -7  -3    4.80    0.70
  -4  -7  -3    4.40    0.70
   4   7   3    3.40    0.60
  -5  -7  -3    9.30    0.90
  -5  -7  -3    9.20    0.90
   5   7   3    9.70    1.00
  -6  -7  -3   61.19    2.10
  -6  -7  -3   60.89    2.10
   6   7   3   61.69    2.30
  -7  -7  -3  173.48    5.10
   7   7   3  170.98    5.10
  -8  -7  -3  147.79    4.40
  -8  -7  -3  146.79    4.30
   8   7   3  147.39    4.60
  -9  -7  -3    0.90    0.80
  -9  -7  -3    0.60    0.70
   9   7   3    0.90    0.90
 -10  -7  -3  232.08    6.80
 -10  -7  -3  249.18    6.50
  10   7   3  221.88    6.90
 -11  -7  -3    4.40    1.20
  11   7   3    0.20    1.10
  12  -8  -3    2.40    0.80
 -12   8   3    2.40    1.00
  11  -8  -3   20.60    1.50
 -11   8   3   23.20    1.40
 -11   8   3   19.20    1.70
  10  -8  -3   29.70    1.50
 -10   8   3   29.30    1.70
 -10   8   3   31.50    1.50
   9  -8  -3    4.00    0.70
  -9   8   3    3.30    0.80
   8  -8  -3   21.90    1.40
  -8   8   3   22.60    1.40
  -8   8   3   21.40    1.40
   7  -8  -3   -0.20    0.40
  -7   8   3    0.20    0.50
  -7   8   3   -0.10    0.50
   6  -8  -3    2.10    0.50
  -6   8   3    2.20    0.50
  -6   8   3    2.20    0.60
   5  -8  -3   28.80    1.20
  -5   8   3   28.60    1.30
  -5   8   3   28.80    1.30
   4  -8  -3  132.89    3.70
  -4   8   3  131.69    3.80
  -4   8   3  135.99    3.80
   3  -8  -3  241.18    6.50
   3  -8  -3  244.98    6.40
  -3   8   3  247.78    6.50
  -3   8   3  239.28    6.60
   2  -8  -3  330.87    8.80
   2  -8  -3  340.07    8.70
   2  -8  -3  345.57    8.60
  -2   8   3  329.87    8.90
  -2   8   3  331.07    8.80
   1  -8  -3   47.30    1.60
   1  -8  -3   47.50    1.50
   1  -8  -3   49.00    1.40
  -1   8   3   47.60    1.70
  -1   8   3   45.80    1.70
   0  -8  -3  104.29    2.90
   0  -8  -3  103.69    3.00
   0  -8  -3  104.09    2.90
   0   8   3  104.89    3.10
   0   8   3  105.69    3.10
  -1  -8  -3    2.10    0.30
  -1  -8  -3    1.60    0.50
  -1  -8  -3    3.30    0.40
   1   8   3    2.40    0.50
   1   8   3    1.50    0.50
  -2  -8  -3   19.60    1.50
  -2  -8  -3   22.50    1.00
   2   8   3   21.10    1.10
   2   8   3   20.80    1.30
  -3  -8  -3    0.00    0.40
  -3  -8  -3    0.40    0.40
   3   8   3    0.40    0.50
  -4  -8  -3   55.49    1.90
  -4  -8  -3   54.29    1.90
   4   8   3   54.19    2.00
  -5  -8  -3   87.49    2.90
  -5  -8  -3   86.99    2.80
   5   8   3   93.59    3.00
  -6  -8  -3   34.00    1.80
  -6  -8  -3   30.20    1.70
   6   8   3   31.90    1.70
  -7  -8  -3  109.29    3.40
  -7  -8  -3  101.29    3.50
   7   8   3  101.59    3.50
  -8  -8  -3   93.49    3.10
  -8  -8  -3   91.69    3.00
   8   8   3   86.49    3.20
  -9  -8  -3   56.09    2.20
  -9  -8  -3   55.39    2.40
   9   8   3   51.09    2.50
 -10  -8  -3    4.70    1.10
  10   8   3    6.20    1.30
  12  -9  -3    2.50    0.90
 -12   9   3    2.20    1.10
  11  -9  -3   20.60    1.50
 -11   9   3   18.80    1.70
 -11   9   3   20.10    1.50
  10  -9  -3    2.50    0.70
 -10   9   3    2.40    0.90
 -10   9   3    2.40    0.70
   8  -9  -3    7.60    1.00
  -8   9   3   10.80    1.20
   7  -9  -3    9.00    0.90
  -7   9   3    7.30    1.00
  -7   9   3    7.90    1.20
   6  -9  -3   20.90    1.10
  -6   9   3   19.30    1.20
  -6   9   3   19.90    1.20
   5  -9  -3    3.90    0.50
  -5   9   3    4.30    0.80
  -5   9   3    4.10    0.60
   4  -9  -3   13.90    0.90
  -4   9   3   12.80    1.00
  -4   9   3   12.50    1.00
   3  -9  -3    0.20    0.40
  -3   9   3    0.20    0.40
  -3   9   3    0.10    0.40
   2  -9  -3    5.60    0.90
   2  -9  -3    5.70    0.50
   2  -9  -3    5.50    0.60
  -2   9   3    4.40    0.60
  -2   9   3    5.60    0.90
   1  -9  -3   20.70    1.10
   1  -9  -3   21.20    0.90
   1  -9  -3   21.20    0.90
  -1   9   3   21.00    1.10
  -1   9   3   21.90    1.20
   0  -9  -3   10.10    0.90
   0  -9  -3   11.10    0.70
   0  -9  -3   10.10    0.70
   0   9   3    9.50    0.90
   0   9   3   10.70    1.10
  -1  -9  -3    1.20    0.30
  -1  -9  -3    2.00    0.40
  -1  -9  -3    2.00    0.60
   1   9   3    2.00    0.70
   1   9   3    1.10    0.50
  -2  -9  -3   20.40    1.20
  -2  -9  -3   20.70    1.00
   2   9   3   21.80    1.20
  -3  -9  -3    4.40    0.60
  -3  -9  -3    4.80    0.60
   3   9   3    4.80    0.70
  -4  -9  -3   71.09    2.40
  -4  -9  -3   71.29    2.30
   4   9   3   71.29    2.60
  -5  -9  -3   16.70    1.20
  -5  -9  -3   16.50    1.30
   5   9   3   17.20    1.30
  -6  -9  -3   -0.60    0.60
  -6  -9  -3    0.00    0.80
   6   9   3    0.30    0.80
  -7  -9  -3   -0.10    0.70
  -7  -9  -3   -0.20    0.70
   7   9   3    0.40    0.80
  -8  -9  -3    8.60    1.50
  -8  -9  -3   11.90    1.50
   8   9   3    7.50    1.20
  -9  -9  -3   10.70    1.20
  -9  -9  -3   13.40    1.70
   9   9   3   13.00    1.90
 -10  -9  -3   63.79    3.20
 -10  -9  -3   55.19    3.10
  10   9   3   54.19    3.20
  11 -10  -3   32.60    1.80
 -11  10   3   30.80    1.80
 -11  10   3   30.50    2.00
  10 -10  -3   38.50    1.80
 -10  10   3   36.40    1.90
 -10  10   3   36.30    2.10
   9 -10  -3    0.00    0.60
  -9  10   3   -0.40    0.70
  -9  10   3    0.60    0.70
   8 -10  -3   25.80    1.70
  -8  10   3   26.40    1.60
  -8  10   3   24.60    1.80
   7 -10  -3   34.70    1.90
  -7  10   3   35.00    2.00
  -7  10   3   31.20    2.20
   6 -10  -3    2.00    0.50
  -6  10   3    1.40    0.70
  -6  10   3    1.80    0.60
   5 -10  -3  104.49    3.10
  -5  10   3  100.79    3.20
  -5  10   3  101.59    3.30
   4 -10  -3    6.50    0.80
  -4  10   3    6.70    0.90
  -4  10   3    6.20    1.00
   3 -10  -3    0.50    0.40
  -3  10   3   -0.10    0.50
  -3  10   3    0.50    0.60
   2 -10  -3   10.00    0.80
  -2  10   3   12.80    1.10
  -2  10   3    9.30    1.10
   1 -10  -3    2.20    0.40
   1 -10  -3    2.20    0.40
   1 -10  -3    3.10    0.60
  -1  10   3    2.10    0.60
   0 -10  -3   30.00    1.50
   0 -10  -3   31.60    1.30
   0 -10  -3   29.50    1.20
   0  10   3   33.20    1.50
   0  10   3   31.20    1.60
  -1 -10  -3   82.49    2.70
  -1 -10  -3   81.89    2.40
   1  10   3   79.59    2.70
  -2 -10  -3   23.30    1.40
  -2 -10  -3   23.30    1.20
   2  10   3   25.20    1.40
  -3 -10  -3    0.90    0.50
  -3 -10  -3    0.50    0.60
   3  10   3    0.30    0.70
  -4 -10  -3    5.10    0.70
  -4 -10  -3    4.70    0.70
   4  10   3    3.90    0.80
  -5 -10  -3   22.30    1.50
  -5 -10  -3   21.90    1.30
   5  10   3   22.80    1.60
  -6 -10  -3    2.20    1.10
  -6 -10  -3    0.90    0.70
   6  10   3    1.20    0.80
  -7 -10  -3   -0.30    0.80
  -7 -10  -3    0.40    0.80
   7  10   3   -0.70    0.90
  -8 -10  -3    1.80    0.90
  -8 -10  -3    0.60    0.90
   8  10   3   -1.60    1.00
  -9 -10  -3    1.60    1.00
  -9 -10  -3   -1.60    1.00
   9  10   3   -0.90    1.20
  11 -11  -3    1.60    0.90
 -11  11   3    0.60    0.90
 -11  11   3    2.30    1.10
  10 -11  -3    0.50    0.80
 -10  11   3    0.80    0.90
 -10  11   3    0.10    1.00
   9 -11  -3    1.50    0.80
  -9  11   3   -0.60    0.80
  -9  11   3   -0.10    0.90
   8 -11  -3  128.49    4.00
  -8  11   3  133.29    4.00
  -8  11   3  127.29    4.20
   7 -11  -3   53.29    2.30
  -7  11   3   55.69    2.30
  -7  11   3   50.39    3.10
   6 -11  -3  101.89    3.20
  -6  11   3  102.49    3.30
   5 -11  -3    3.00    0.60
  -5  11   3    2.70    0.70
  -5  11   3    3.70    0.80
   4 -11  -3  130.29    3.80
  -4  11   3  135.49    4.00
  -4  11   3  133.39    4.10
   3 -11  -3   15.10    1.00
  -3  11   3   15.00    1.30
  -3  11   3   15.90    1.40
   2 -11  -3   34.10    1.40
  -2  11   3   35.10    1.70
  -2  11   3   35.40    1.60
   1 -11  -3   22.60    1.10
  -1  11   3   22.10    1.60
  -1  11   3   22.50    1.40
   0 -11  -3    2.40    0.40
   0 -11  -3    2.70    0.50
   0 -11  -3    1.20    0.70
   0  11   3    1.30    0.70
   0  11   3    1.30    0.80
  -1 -11  -3   40.70    1.90
  -1 -11  -3   40.70    1.60
   1  11   3   46.20    2.30
  -2 -11  -3   15.00    1.40
  -2 -11  -3   13.20    1.00
   2  11   3   14.80    1.50
  -3 -11  -3    3.30    0.70
  -3 -11  -3    2.60    0.80
  -4 -11  -3   23.60    1.30
  -4 -11  -3   22.00    1.60
   4  11   3   19.20    2.30
  -5 -11  -3    3.50    0.80
   5  11   3    1.40    0.90
  -6 -11  -3    4.20    0.90
  -6 -11  -3    4.00    0.90
   6  11   3    2.90    1.00
  -7 -11  -3   32.40    1.90
  -7 -11  -3   35.80    2.10
   7  11   3   32.20    2.20
  -8 -11  -3   55.29    2.60
  -8 -11  -3   50.59    2.40
   8  11   3   47.70    2.70
  10 -12  -3    1.00    0.80
 -10  12   3   -0.10    0.90
 -10  12   3    1.40    1.10
   9 -12  -3   37.70    1.90
  -9  12   3   38.10    2.10
  -9  12   3   37.20    2.20
   8 -12  -3  108.89    3.50
  -8  12   3  109.39    3.60
  -8  12   3  108.99    3.80
   7 -12  -3  123.19    3.80
  -7  12   3  123.99    4.10
  -7  12   3  122.39    3.90
   6 -12  -3  250.57    6.80
  -6  12   3  237.58    7.00
   5 -12  -3   28.80    1.50
  -5  12   3   33.40    1.90
  -5  12   3   26.90    2.00
   4 -12  -3  307.17    8.50
  -4  12   3  321.87    8.70
  -4  12   3  325.57    8.90
   3 -12  -3   13.80    1.10
  -3  12   3   16.10    1.60
  -3  12   3   15.70    1.50
   2 -12  -3    2.70    0.60
  -2  12   3    4.10    0.90
   1 -12  -3   33.50    1.40
  -1  12   3   34.30    1.80
  -1  12   3   37.60    2.00
   0  12   3   38.30    2.30
  -1 -12  -3   19.50    1.10
  -1 -12  -3   17.30    1.60
   1  12   3   14.90    1.50
  -2 -12  -3   13.60    1.10
  -2 -12  -3   14.10    1.50
   2  12   3   10.80    1.90
  -3 -12  -3    1.50    0.70
  -3 -12  -3    2.00    0.80
   3  12   3    0.80    0.90
  -4 -12  -3   10.00    1.20
  -4 -12  -3    7.40    1.20
   4  12   3    6.60    1.20
  -5 -12  -3  108.39    3.50
  -5 -12  -3  108.49    3.70
   5  12   3  104.39    3.80
  -6 -12  -3   87.69    3.30
  -6 -12  -3   86.59    3.00
   6  12   3   78.79    3.30
  -7 -12  -3    7.00    1.20
  -7 -12  -3    5.00    1.10
   7  12   3    4.40    1.20
   9 -13  -3   35.10    2.00
  -9  13   3   35.10    2.20
  -9  13   3   32.40    2.30
   8 -13  -3   13.60    1.50
  -8  13   3   14.10    1.70
  -8  13   3   14.70    1.90
   7 -13  -3   47.20    2.00
  -7  13   3   46.40    2.40
  -7  13   3   47.40    2.30
   6 -13  -3    0.30    0.70
  -6  13   3   -0.60    0.80
  -6  13   3   -1.50    0.80
   5 -13  -3   39.00    1.70
  -5  13   3   38.60    2.10
  -5  13   3   35.30    2.10
   4 -13  -3   33.50    1.60
  -4  13   3   34.40    2.10
  -4  13   3   32.40    1.90
   3 -13  -3   18.80    1.20
  -3  13   3   17.30    1.60
  -3  13   3   17.10    1.80
   2 -13  -3   81.49    2.60
  -2  13   3   86.89    3.10
  -2  13   3   80.39    3.00
  -1  13   3   -1.00    0.70
   0  13   3   23.30    1.70
   1  13   3    1.60    0.90
  -2 -13  -3    9.70    1.20
   2  13   3    8.80    1.50
  -3 -13  -3    1.10    0.80
  -3 -13  -3   -1.60    1.00
   3  13   3   -0.40    0.90
  -4 -13  -3  111.39    3.60
  -4 -13  -3  114.49    4.00
   4  13   3  116.59    4.00
  -5 -13  -3    3.00    1.10
   5  13   3    1.00    1.20
  -6 -13  -3    1.20    1.00
   6  13   3    0.10    1.20
   8 -14  -3   17.40    1.70
  -8  14   3   18.60    2.20
  -8  14   3   17.70    2.10
   7 -14  -3    0.20    0.80
  -7  14   3   -1.00    1.00
  -7  14   3    0.90    1.10
   6 -14  -3    4.30    0.90
  -6  14   3    4.70    1.10
  -6  14   3    3.80    1.10
   5 -14  -3   28.90    1.60
  -5  14   3   26.90    2.20
  -5  14   3   30.30    2.10
   4 -14  -3   34.90    1.70
  -4  14   3   33.90    2.30
  -4  14   3   35.60    2.10
   3 -14  -3   14.40    1.30
  -3  14   3   14.50    1.60
  -3  14   3   13.50    2.00
  -2  14   3   89.99    3.30
  -1  14   3    1.20    1.00
   0  14   3   24.20    1.90
   1  14   3   19.90    1.80
   2  14   3    3.70    1.10
   3  14   3   54.49    2.70
  -4 -14  -3   13.80    2.40
  -4 -14  -3   10.30    1.20
   4  14   3   10.80    1.90
   6 -15  -3    4.80    1.00
  -6  15   3    5.80    1.40
  -6  15   3    5.60    1.30
   5 -15  -3    8.30    1.00
  -5  15   3    6.90    1.30
  -5  15   3    6.60    1.20
  -4  15   3   -1.80    1.10
  -4  15   3   -1.30    1.00
  -3  15   3    8.70    1.80
  -3  15   3    8.00    1.20
  -2  15   3    3.60    1.10
  -1  15   3   30.90    2.10
   0  15   3    3.70    1.10
   1  15   3   26.00    2.10
   2  15   3   26.20    2.30
   3  16  -4    0.00    1.30
   2  16  -4   26.80    2.20
   1  16  -4   29.20    2.20
   0  16  -4   14.80    2.40
   0  16  -4    8.10    1.40
  -1  16  -4  163.38    5.30
  -1  16  -4  176.08    5.50
  -2  16  -4   13.00    1.90
  -2  16  -4   13.00    2.20
  -3  16  -4    5.50    1.20
  -3  16  -4    6.10    1.30
  -4  16  -4   12.10    1.90
  -4  16  -4   10.50    1.30
   4 -16   4   15.70    1.50
  -5  16  -4   22.80    2.20
  -5  16  -4   25.00    2.10
   5 -16   4   25.70    1.80
   5  15  -4   53.79    2.80
  -5 -15   4   53.09    2.40
   4  15  -4    0.90    1.20
  -4 -15   4    5.00    1.00
   3  15  -4   29.20    2.20
  -3 -15   4   30.50    1.80
   2  15  -4    7.30    1.30
  -2 -15   4    9.40    1.40
   1  15  -4   31.60    2.10
   0  15  -4  265.17    7.40
   0  15  -4  241.38    7.20
  -1  15  -4   48.40    2.40
  -1  15  -4   57.99    2.70
  -2  15  -4   52.29    2.40
  -2  15  -4   59.69    2.70
   2 -15   4   50.59    2.10
  -3  15  -4   35.30    2.10
  -3  15  -4   28.60    2.00
   3 -15   4   29.80    1.70
  -4  15  -4    3.00    1.00
  -4  15  -4    4.10    1.00
   4 -15   4    4.90    0.90
  -5  15  -4    4.60    1.00
  -5  15  -4    1.50    1.10
   5 -15   4    2.20    0.80
  -6  15  -4    0.70    0.90
  -6  15  -4    3.30    1.10
   6 -15   4    3.20    0.90
  -7  15  -4  118.99    4.20
  -7  15  -4  123.89    3.80
   7 -15   4  119.59    3.90
   6  14  -4    0.70    1.20
  -6 -14   4    5.50    1.00
   5  14  -4    1.10    1.10
  -5 -14   4    2.30    0.90
   4  14  -4    1.40    1.10
  -4 -14   4    2.50    0.80
   3  14  -4    5.20    1.10
   2  14  -4    3.60    1.00
  -2 -14   4    4.60    1.00
   1  14  -4  170.68    5.10
   1  14  -4  164.08    5.10
  -1 -14   4  166.38    4.80
   0  14  -4   30.00    2.00
   0  14  -4   28.30    1.70
  -1  14  -4   14.30    1.50
  -1  14  -4   15.40    1.80
   1 -14   4   12.30    1.10
  -2  14  -4   36.30    2.00
  -2  14  -4   42.60    2.60
   2 -14   4   41.10    1.70
  -3  14  -4   10.80    1.50
  -3  14  -4   11.70    1.60
   3 -14   4   13.50    1.20
  -4  14  -4   45.90    2.20
  -4  14  -4   38.70    3.20
   4 -14   4   44.70    1.90
  -5  14  -4    9.00    1.00
  -5  14  -4   12.60    1.50
   5 -14   4   10.00    1.20
  -6  14  -4    1.90    0.80
  -6  14  -4    1.60    1.00
   6 -14   4    2.00    0.70
  -7  14  -4   21.20    1.70
  -7  14  -4   27.50    2.00
   7 -14   4   24.20    1.70
  -8  14  -4   19.40    2.00
   8 -14   4   17.90    1.70
  -8 -13   4    3.60    1.30
   7  13  -4    1.50    1.10
  -7 -13   4    2.70    1.30
  -7 -13   4    2.30    1.00
   6  13  -4    1.80    1.10
  -6 -13   4    2.10    0.90
   5  13  -4    4.10    1.10
  -5 -13   4    4.60    0.90
   4  13  -4   12.30    1.90
  -4 -13   4   15.30    1.30
   3  13  -4    0.40    0.90
  -3 -13   4    0.40    0.70
   2  13  -4   43.90    2.00
   2  13  -4   43.80    2.20
  -2 -13   4   45.70    1.80
   1  13  -4    2.70    0.80
   1  13  -4    0.20    0.80
  -1 -13   4    2.30    0.60
   0  13  -4    2.50    0.80
   0  13  -4    2.30    0.80
   0 -13   4    2.60    0.50
   0 -13   4    2.60    0.60
  -1  13  -4    5.50    0.80
  -1  13  -4    7.00    1.00
   1 -13   4    5.70    0.80
   1 -13   4    6.90    0.90
  -2  13  -4    0.90    0.70
  -2  13  -4    0.80    0.70
   2 -13   4    1.20    0.50
  -3  13  -4    3.20    0.80
  -3  13  -4    4.20    0.80
   3 -13   4    3.20    0.60
  -4  13  -4   44.20    2.00
  -4  13  -4   45.20    2.00
   4 -13   4   44.70    1.80
  -5  13  -4    2.40    0.80
   5 -13   4    1.10    1.00
  -6  13  -4    1.40    1.20
  -6  13  -4    1.40    0.70
   6 -13   4    0.90    0.70
  -7  13  -4    2.10    0.90
  -7  13  -4    2.60    0.70
   7 -13   4    0.90    0.70
  -8  13  -4    3.70    1.00
   8 -13   4    2.30    0.80
  -9  13  -4   14.60    1.90
   9 -13   4   15.80    1.60
  -9 -12   4    1.60    1.30
   8  12  -4   13.40    1.80
  -8 -12   4   16.00    1.60
  -8 -12   4   11.40    1.40
   7  12  -4    1.00    1.00
  -7 -12   4    1.50    0.90
  -7 -12   4   -1.00    1.00
   6  12  -4   -0.10    0.90
  -6 -12   4   -0.30    1.00
  -6 -12   4    1.00    0.80
   5  12  -4    2.10    0.90
  -5 -12   4    1.40    1.00
  -5 -12   4    2.30    1.00
   4  12  -4   16.20    1.50
  -4 -12   4   21.00    1.30
   3  12  -4   13.30    1.30
  -3 -12   4   13.20    1.10
   2  12  -4    3.80    0.80
   2  12  -4    2.70    0.80
  -2 -12   4    3.60    0.60
   1  12  -4   39.30    1.80
   1  12  -4   41.40    1.90
  -1 -12   4   40.40    1.40
  -1 -12   4   40.80    1.60
   0  12  -4    1.80    0.70
   0  12  -4    1.50    0.70
   0 -12   4    1.50    0.50
   0 -12   4    1.80    0.50
  -1  12  -4    0.40    0.60
  -1  12  -4   -0.20    0.60
   1 -12   4   -0.60    0.40
   1 -12   4    0.80    0.50
  -2  12  -4    9.20    1.10
  -2  12  -4    9.90    1.20
   2 -12   4    7.40    0.90
   2 -12   4    7.40    0.80
  -3  12  -4    0.80    0.60
  -3  12  -4    0.70    1.10
   3 -12   4    0.40    0.50
  -4  12  -4    2.50    0.70
  -4  12  -4    1.80    0.60
   4 -12   4    1.30    0.50
  -5  12  -4    8.70    1.20
  -5  12  -4    8.50    1.30
   5 -12   4    8.30    1.00
  -6  12  -4   85.09    3.30
  -6  12  -4   89.99    3.00
   6 -12   4   87.39    2.90
  -7  12  -4    3.10    0.70
  -7  12  -4    4.30    0.90
   7 -12   4    4.20    0.80
  -8  12  -4   50.49    2.30
   8 -12   4   52.29    2.20
  -9  12  -4    6.60    1.10
   9 -12   4    4.50    0.90
 -10  12  -4   21.60    2.00
  10 -12   4   20.90    1.70
   9  11  -4    6.00    1.20
  -9 -11   4    4.90    1.10
  -9 -11   4    3.40    1.10
   8  11  -4    8.10    1.10
  -8 -11   4    6.50    1.20
  -8 -11   4    6.90    1.00
   7  11  -4    0.30    0.90
  -7 -11   4    0.10    0.80
   6  11  -4   72.69    2.70
  -6 -11   4   70.59    3.20
  -6 -11   4   77.49    2.90
   5  11  -4  147.99    4.40
  -5 -11   4  146.39    4.30
  -5 -11   4  142.89    4.40
   4  11  -4    5.20    0.80
  -4 -11   4    5.20    0.80
  -4 -11   4    5.00    0.90
   3  11  -4  110.49    3.40
   3  11  -4  110.49    3.50
  -3 -11   4  107.59    3.40
  -3 -11   4  109.99    3.30
   2  11  -4  103.69    3.30
   2  11  -4  101.99    3.20
  -2 -11   4  105.39    3.10
  -2 -11   4  104.09    2.90
   1  11  -4   14.90    1.20
   1  11  -4   16.10    1.10
  -1 -11   4   16.30    0.80
  -1 -11   4   17.00    1.00
   0  11  -4   50.29    1.90
   0  11  -4   50.99    1.90
   0 -11   4   49.50    1.70
   0 -11   4   49.00    1.60
  -1  11  -4    5.80    0.70
  -1  11  -4    8.60    0.90
   1 -11   4    6.40    0.70
   1 -11   4    7.20    0.70
  -2  11  -4   11.80    1.00
  -2  11  -4   12.50    1.00
   2 -11   4   11.30    0.80
   2 -11   4   11.60    0.80
  -3  11  -4   11.10    1.00
  -3  11  -4   11.40    1.10
   3 -11   4   10.30    0.80
   3 -11   4   10.00    0.90
  -4  11  -4    4.20    0.70
  -4  11  -4    2.90    0.70
   4 -11   4    4.10    0.60
  -5  11  -4    5.70    1.00
   5 -11   4    4.80    0.60
  -6  11  -4    0.20    0.50
  -6  11  -4    0.60    0.60
   6 -11   4    0.00    0.50
  -7  11  -4   30.90    1.70
   7 -11   4   32.60    1.50
  -8  11  -4   16.70    1.50
   8 -11   4   18.00    1.30
  -9  11  -4    8.40    1.50
   9 -11   4    7.70    0.90
 -10  11  -4   25.40    2.00
  10 -11   4   30.20    1.80
 -11  11  -4   -0.80    1.10
  11 -11   4    0.10    0.80
  10  10  -4   11.30    1.80
 -10 -10   4    8.00    1.20
 -10 -10   4    8.50    1.20
   9  10  -4   16.50    1.70
  -9 -10   4   15.20    2.00
  -9 -10   4   14.90    1.50
   8  10  -4   48.20    2.20
  -8 -10   4   51.09    2.20
  -8 -10   4   48.80    2.50
   7  10  -4   31.30    1.70
  -7 -10   4   32.40    1.90
  -7 -10   4   28.00    2.20
   6  10  -4   15.70    1.40
  -6 -10   4   19.10    1.60
  -6 -10   4   17.40    1.20
   5  10  -4   52.99    2.10
  -5 -10   4   52.99    2.20
  -5 -10   4   56.19    2.20
   4  10  -4   25.70    1.40
  -4 -10   4   22.90    1.20
  -4 -10   4   23.70    1.50
   3  10  -4   35.40    1.80
   3  10  -4   36.60    1.50
  -3 -10   4   35.60    1.70
  -3 -10   4   36.70    1.40
   2  10  -4   59.19    2.20
   2  10  -4   62.09    1.80
   2  10  -4   60.79    2.10
  -2 -10   4   57.39    2.10
  -2 -10   4   61.99    2.00
   1  10  -4   53.79    1.90
   1  10  -4   54.09    1.70
  -1 -10   4   52.99    1.80
  -1 -10   4   52.59    2.00
   0  10  -4  177.08    5.00
   0  10  -4  183.28    5.00
   0 -10   4  185.68    4.90
  -1  10  -4    4.90    0.70
  -1  10  -4    4.50    0.60
  -1  10  -4    6.10    0.80
   1 -10   4    5.40    0.70
  -2  10  -4   40.50    1.50
  -2  10  -4   39.60    1.40
  -2  10  -4   41.40    1.60
   2 -10   4   40.80    1.40
  -3  10  -4   18.20    1.00
  -3  10  -4   18.90    1.10
  -3  10  -4   17.70    1.00
   3 -10   4   20.80    0.90
  -4  10  -4    7.90    0.90
  -4  10  -4    7.50    0.80
   4 -10   4    7.40    0.70
  -5  10  -4   12.00    1.10
  -5  10  -4   11.90    1.00
   5 -10   4   13.20    0.90
  -6  10  -4    1.10    0.60
  -6  10  -4    0.40    0.40
   6 -10   4    1.40    0.50
  -7  10  -4   36.90    1.70
   7 -10   4   38.80    1.60
  -8  10  -4    4.00    0.80
   8 -10   4    5.20    0.80
  -9  10  -4   -0.50    1.10
   9 -10   4    0.20    0.70
 -10  10  -4    0.50    0.90
  10 -10   4    1.50    0.70
 -11  10  -4    2.60    1.00
  11 -10   4    4.70    1.00
 -11  -9   4   -1.80    1.00
 -11  -9   4   -1.30    1.00
  10   9  -4    3.40    1.10
 -10  -9   4    3.10    1.00
 -10  -9   4    2.20    1.00
   9   9  -4    5.00    1.00
  -9  -9   4    3.20    0.90
  -9  -9   4    3.90    0.90
   8   9  -4   76.29    2.80
  -8  -9   4   74.39    3.20
  -8  -9   4   77.79    2.80
   7   9  -4    0.80    0.70
  -7  -9   4    0.80    0.80
  -7  -9   4    0.40    0.70
   6   9  -4    0.20    0.60
  -6  -9   4   -0.20    0.50
  -6  -9   4    0.40    0.60
   5   9  -4   22.70    1.30
  -5  -9   4   23.10    1.20
  -5  -9   4   22.10    1.30
   4   9  -4    0.20    0.60
   4   9  -4    0.00    0.50
  -4  -9   4    0.00    0.40
   3   9  -4   71.09    2.20
   3   9  -4   67.29    1.90
   3   9  -4   69.59    2.30
  -3  -9   4   68.49    2.30
  -3  -9   4   66.69    2.20
   2   9  -4  132.99    4.00
   2   9  -4  148.59    4.00
   2   9  -4  135.69    3.70
  -2  -9   4  135.09    3.90
  -2  -9   4  147.09    4.00
   1   9  -4   87.99    2.50
   1   9  -4   89.39    2.60
   1   9  -4   85.89    2.70
  -1  -9   4   86.49    2.70
  -1   9  -4   99.29    2.90
  -1   9  -4  104.09    2.90
   1  -9   4  100.69    2.80
  -2   9  -4   18.10    0.90
  -2   9  -4   16.70    1.00
  -2   9  -4   17.20    1.00
   2  -9   4   17.40    0.80
  -3   9  -4   24.80    1.30
  -3   9  -4   26.70    1.10
  -3   9  -4   27.10    1.10
   3  -9   4   27.80    1.00
  -4   9  -4    2.70    0.50
  -4   9  -4    3.40    0.50
  -4   9  -4    4.40    0.60
   4  -9   4    4.20    0.50
  -5   9  -4   16.80    0.90
  -5   9  -4   15.50    1.00
   5  -9   4   17.70    0.90
  -6   9  -4   14.10    1.10
  -6   9  -4   15.10    1.00
   6  -9   4   16.20    1.00
  -7   9  -4   15.80    1.20
   7  -9   4   17.00    1.10
  -8   9  -4    1.70    0.70
   8  -9   4    1.90    0.60
  -9   9  -4    2.20    0.80
   9  -9   4    1.90    0.70
 -10   9  -4   52.99    2.30
  10  -9   4   51.69    2.10
 -11   9  -4    0.00    0.90
  11  -9   4    0.90    0.80
 -12   9  -4    0.60    1.10
  12  -9   4    0.50    0.90
  11   8  -4   14.80    1.90
 -11  -8   4   14.00    1.90
 -11  -8   4    9.20    1.50
  10   8  -4   21.40    1.90
 -10  -8   4   25.40    1.80
 -10  -8   4   23.90    1.70
   9   8  -4   53.09    2.90
  -9  -8   4   56.29    3.40
  -9  -8   4   56.39    2.20
   8   8  -4    2.30    0.80
  -8  -8   4    3.10    0.70
  -8  -8   4    2.20    0.70
   7   8  -4    7.40    1.10
  -7  -8   4    6.60    0.90
  -7  -8   4    8.10    1.10
   6   8  -4   69.99    2.40
  -6  -8   4   69.69    2.40
  -6  -8   4   71.79    2.30
   5   8  -4    0.50    0.50
  -5  -8   4   -0.20    0.40
  -5  -8   4   -0.10    0.50
   4   8  -4  151.28    4.20
   4   8  -4  143.19    4.10
  -4  -8   4  144.09    4.10
  -4  -8   4  148.19    4.20
   3   8  -4  106.29    3.10
   3   8  -4  105.09    3.10
   3   8  -4  107.19    2.80
  -3  -8   4  103.79    3.00
  -3  -8   4  104.69    3.10
   2   8  -4    8.10    0.70
   2   8  -4    8.60    0.80
   2   8  -4    8.30    0.60
  -2  -8   4    5.90    0.70
  -2  -8   4    9.10    0.80
   1   8  -4   32.90    1.30
   1   8  -4   32.40    1.20
   1   8  -4   31.70    1.10
  -1  -8   4   33.00    1.20
  -1  -8   4   31.90    1.20
   0   8  -4  163.48    4.50
   0   8  -4  173.98    4.50
   0   8  -4  164.88    4.40
   0  -8   4  170.58    4.60
   0  -8   4  161.98    4.50
  -1   8  -4   17.00    0.90
  -1   8  -4   18.80    0.90
  -1   8  -4   16.90    0.80
   1  -8   4   17.20    0.80
   1  -8   4   17.90    1.00
  -2   8  -4  612.74   15.80
  -2   8  -4  628.04   15.80
  -2   8  -4  608.94   15.80
   2  -8   4  622.64   15.80
  -3   8  -4   13.40    0.90
  -3   8  -4   12.30    0.80
  -3   8  -4   10.80    0.80
  -3   8  -4   13.60    0.80
   3  -8   4   11.80    0.70
  -4   8  -4  892.01   23.10
  -4   8  -4  901.81   23.20
  -4   8  -4  907.61   23.20
  -4   8  -4  911.51   23.30
   4  -8   4  940.61   23.10
  -5   8  -4   27.40    1.30
  -5   8  -4   30.30    1.10
  -5   8  -4   30.60    1.10
  -5   8  -4   30.40    1.30
   5  -8   4   32.90    1.00
  -6   8  -4  570.74   14.60
  -6   8  -4  577.44   14.80
  -6   8  -4  568.54   14.60
  -7   8  -4  175.88    5.00
   7  -8   4  182.98    5.00
  -8   8  -4    4.50    0.70
   8  -8   4    3.90    0.60
  -9   8  -4   62.89    2.30
   9  -8   4   60.79    2.20
 -10   8  -4   83.19    3.10
  10  -8   4   83.59    2.80
 -11   8  -4   24.30    1.80
  11  -8   4   26.10    1.60
 -12   8  -4    5.80    1.20
  12  -8   4    7.70    1.10
  12   7  -4    2.30    1.20
 -12  -7   4    1.40    1.00
 -12  -7   4    0.10    1.00
  11   7  -4   20.30    1.90
 -11  -7   4   17.70    1.80
 -11  -7   4   18.30    1.60
  10   7  -4    6.40    1.00
 -10  -7   4    5.70    0.90
 -10  -7   4    6.50    0.90
   9   7  -4    1.10    0.80
  -9  -7   4    1.20    0.70
  -9  -7   4    0.20    0.60
   8   7  -4   96.09    3.20
  -8  -7   4   99.79    3.20
  -8  -7   4  104.99    3.30
   7   7  -4   -0.40    0.50
  -7  -7   4    0.50    0.50
  -7  -7   4   -0.40    0.50
   6   7  -4   26.50    1.30
  -6  -7   4   26.40    1.30
  -6  -7   4   28.20    1.20
   5   7  -4  106.79    3.10
   5   7  -4  106.49    3.30
  -5  -7   4  103.29    3.00
  -5  -7   4  102.89    3.30
   4   7  -4   67.29    2.10
   4   7  -4   63.19    2.10
  -4  -7   4   66.69    2.10
  -4  -7   4   67.89    2.10
   3   7  -4   27.60    0.90
   3   7  -4   26.80    1.20
  -3  -7   4   29.60    1.20
   2   7  -4   36.80    1.30
   2   7  -4   35.20    1.10
   2   7  -4   34.30    1.30
  -2  -7   4   37.00    1.30
  -2  -7   4   36.50    1.30
   1   7  -4   69.99    2.00
   1   7  -4   73.09    2.10
   1   7  -4   68.99    2.10
  -1  -7   4   72.99    2.10
  -1  -7   4   71.29    2.10
   0   7  -4   96.29    2.70
   0   7  -4   97.99    2.80
   0   7  -4   98.49    2.80
   0  -7   4   98.69    2.80
   0  -7   4  103.69    2.70
  -1   7  -4  159.38    4.30
  -1   7  -4  155.98    4.30
  -1   7  -4  169.18    4.30
  -1   7  -4  156.68    4.30
   1  -7   4  159.08    4.20
   1  -7   4  161.68    4.30
  -2   7  -4  427.26   11.10
  -2   7  -4  445.26   11.10
  -2   7  -4  430.26   11.00
  -2   7  -4  418.56   11.00
   2  -7   4  438.96   11.00
   2  -7   4  418.16   11.00
   3  -7   4    0.30    0.30
  -4   7  -4   93.09    2.80
  -4   7  -4   95.29    2.80
  -4   7  -4   97.29    2.70
  -4   7  -4   95.99    2.80
   4  -7   4   99.69    2.60
  -5   7  -4  155.28    4.30
  -5   7  -4  155.98    4.30
  -5   7  -4  154.68    4.10
  -5   7  -4  149.59    4.10
   5  -7   4  157.48    4.10
  -6   7  -4  163.08    4.60
  -6   7  -4  162.78    4.60
   6  -7   4  169.58    4.40
  -7   7  -4   44.60    1.70
   7  -7   4   43.50    1.80
  -8   7  -4  126.39    3.80
   8  -7   4  126.99    3.70
  -9   7  -4    0.90    0.60
   9  -7   4    0.40    0.60
 -10   7  -4    4.20    0.80
  10  -7   4    3.70    0.70
 -11   7  -4   12.40    1.50
  11  -7   4   11.30    1.20
 -12   7  -4   16.10    1.70
  12  -7   4   18.10    1.60
  12   6  -4    0.00    1.10
 -12  -6   4    0.50    0.90
 -12  -6   4    1.60    1.00
  11   6  -4    0.90    1.00
 -11  -6   4    1.40    0.80
 -11  -6   4    1.90    0.80
 -10  -6   4    4.40    0.90
 -10  -6   4    3.60    1.30
   9   6  -4   34.80    1.70
  -9  -6   4   33.30    1.70
  -9  -6   4   33.90    1.60
   8   6  -4   64.79    2.30
  -8  -6   4   66.99    2.30
  -8  -6   4   64.39    2.30
   7   6  -4   35.20    1.50
  -7  -6   4   38.20    1.50
  -7  -6   4   34.70    1.50
   6   6  -4    0.30    0.40
  -6  -6   4    0.10    0.40
  -6  -6   4    0.20    0.40
   5   6  -4   76.59    2.40
   5   6  -4   73.09    2.50
  -5  -6   4   80.59    2.30
  -5  -6   4   79.89    2.40
   4   6  -4    0.70    0.40
   4   6  -4    0.90    0.40
   3   6  -4  164.48    4.50
   3   6  -4  170.78    4.50
   3   6  -4  167.48    4.30
  -3  -6   4  164.48    4.50
  -3  -6   4  166.38    4.50
   2   6  -4  117.69    3.00
   2   6  -4  109.29    3.10
   2   6  -4  113.39    3.20
  -2  -6   4  116.79    3.10
  -2  -6   4  113.89    3.20
   1   6  -4    8.60    0.50
   1   6  -4    9.70    0.60
   1   6  -4    6.90    0.50
   1   6  -4    9.40    0.60
   0   6  -4  893.81   23.10
   0   6  -4  926.11   23.10
   0   6  -4  895.31   23.10
   0  -6   4  920.21   23.10
   0  -6   4  915.81   23.10
  -1   6  -4  299.27    7.70
  -1   6  -4  295.27    7.70
  -1   6  -4  296.97    7.70
   1  -6   4  293.87    7.70
   1  -6   4  297.27    7.60
  -2   6  -4   94.49    2.70
  -2   6  -4   93.59    2.70
  -2   6  -4   97.99    2.70
  -2   6  -4   98.89    2.70
   2  -6   4   99.29    2.80
   2  -6   4   99.09    2.60
  -3   6  -4   15.60    0.70
  -3   6  -4   15.20    0.70
  -3   6  -4   14.90    0.80
  -3   6  -4   14.70    0.70
   3  -6   4   15.50    0.60
  -4   6  -4  121.09    3.30
  -4   6  -4  123.29    3.30
  -4   6  -4  118.79    3.20
  -4   6  -4  115.49    3.20
   4  -6   4  121.69    3.20
  -5   6  -4   71.19    2.20
  -5   6  -4   73.19    2.20
   5  -6   4   72.29    2.00
  -6   6  -4  357.16    9.40
  -6   6  -4  356.06    9.80
   6  -6   4  362.26    9.20
  -7   6  -4    0.10    0.40
   7  -6   4   -0.10    0.40
  -8   6  -4    4.80    0.90
   8  -6   4    4.90    0.60
  -9   6  -4    0.30    0.60
   9  -6   4   -0.40    0.50
 -10   6  -4    1.20    0.70
  10  -6   4    1.40    0.60
 -11   6  -4    0.90    0.80
  11  -6   4   -0.10    1.30
 -12   6  -4    3.50    1.00
  12  -6   4    5.50    1.00
 -13   6  -4   33.50    2.30
  13   5  -4    1.70    1.30
 -13  -5   4    2.40    1.10
 -13  -5   4    3.10    1.20
  12   5  -4    4.60    1.20
 -12  -5   4    3.70    0.90
 -12  -5   4    3.40    1.00
  11   5  -4    3.00    1.00
 -11  -5   4    2.70    0.90
 -11  -5   4    1.20    0.80
  10   5  -4   33.00    1.90
 -10  -5   4   32.50    1.70
 -10  -5   4   36.30    1.70
   9   5  -4    7.70    1.10
  -9  -5   4    7.50    1.10
  -9  -5   4    9.40    1.00
   8   5  -4    6.40    0.90
  -8  -5   4    5.60    0.80
  -8  -5   4    4.60    0.70
   7   5  -4    2.70    0.50
  -7  -5   4    2.20    0.50
  -7  -5   4    1.50    0.50
   6   5  -4   28.70    1.20
  -6  -5   4   28.30    1.10
   5   5  -4   62.59    2.00
   5   5  -4   62.69    1.90
  -5  -5   4   62.49    2.00
  -5  -5   4   61.99    1.90
   4   5  -4   33.80    1.20
   4   5  -4   30.80    1.10
   4   5  -4   32.80    1.00
  -4  -5   4   31.90    1.10
  -4  -5   4   31.90    1.20
   3   5  -4  368.56    9.20
   3   5  -4  359.66    9.30
   3   5  -4  352.36    9.30
  -3  -5   4  358.76    9.30
  -3  -5   4  362.56    9.30
   2   5  -4   22.60    0.70
   2   5  -4   23.20    0.80
   2   5  -4   22.30    0.90
  -2  -5   4   21.20    0.80
  -2  -5   4   24.30    0.90
   1   5  -4   88.69    2.40
   1   5  -4   90.59    2.40
   1   5  -4   87.29    2.50
  -1  -5   4   91.29    2.50
  -1  -5   4   87.49    2.40
   0   5  -4  244.28    6.30
   0   5  -4  251.47    6.20
   0   5  -4  243.68    6.30
   0   5  -4  229.68    6.30
   0  -5   4  244.48    6.30
   0  -5   4  240.78    6.30
  -1   5  -4  180.58    4.70
  -1   5  -4  183.18    4.70
  -1   5  -4  181.18    4.70
   1  -5   4  179.58    4.70
   1  -5   4  182.28    4.70
  -2   5  -4  247.98    6.40
  -2   5  -4  241.98    6.40
  -2   5  -4  247.08    6.40
  -2   5  -4  244.28    6.40
   2  -5   4  251.77    6.40
  -3   5  -4    1.90    0.30
  -3   5  -4    2.30    0.30
  -3   5  -4    2.80    0.40
  -3   5  -4    2.20    0.40
   3  -5   4    2.60    0.40
  -4   5  -4    1.10    0.30
  -4   5  -4    1.30    0.30
   4  -5   4    1.30    0.20
  -5   5  -4    7.90    0.60
  -5   5  -4    8.40    0.60
   5  -5   4    8.70    0.50
  -6   5  -4   28.40    1.10
  -6   5  -4   30.70    1.20
   6  -5   4   30.10    1.00
  -7   5  -4   19.50    1.00
   7  -5   4   19.50    0.80
   7  -5   4   17.90    0.90
  -8   5  -4   88.89    2.70
   8  -5   4   86.79    2.50
   8  -5   4   86.09    2.60
  -9   5  -4    0.70    0.60
   9  -5   4    1.30    0.50
 -10   5  -4    0.80    0.70
  10  -5   4    1.20    0.50
 -11   5  -4   -0.90    0.80
  11  -5   4    0.30    0.60
 -12   5  -4   10.10    1.60
 -13   5  -4    9.40    1.30
  13   4  -4   67.59    3.20
 -13  -4   4   66.09    2.60
  12   4  -4  128.89    4.50
 -12  -4   4  134.99    4.10
 -12  -4   4  137.99    4.20
  11   4  -4   64.09    2.60
 -11  -4   4   62.69    2.40
 -11  -4   4   66.49    2.40
  10   4  -4   92.59    3.20
 -10  -4   4   99.29    3.70
 -10  -4   4   94.59    3.00
   9   4  -4  124.99    3.90
  -9  -4   4  128.39    3.70
  -9  -4   4  127.29    3.70
   8   4  -4   36.00    1.50
  -8  -4   4   37.20    1.40
  -8  -4   4   36.00    1.50
   7   4  -4    0.80    0.40
  -7  -4   4    0.10    0.40
  -7  -4   4   -0.20    0.40
   6   4  -4   63.39    2.00
   6   4  -4   65.69    1.80
  -6  -4   4   64.19    2.00
   5   4  -4    3.40    0.50
   5   4  -4    3.40    0.30
   5   4  -4    3.80    0.60
  -5  -4   4    2.60    0.40
  -5  -4   4    2.70    0.40
   4   4  -4   77.49    2.20
   4   4  -4   78.69    2.30
   4   4  -4   79.39    2.10
  -4  -4   4   76.79    2.20
  -4  -4   4   78.29    2.30
   3   4  -4  477.45   12.00
   3   4  -4  478.95   12.10
   3   4  -4  471.25   12.10
  -3  -4   4  469.85   12.10
  -3  -4   4  471.75   12.10
   2   4  -4  573.64   14.50
   2   4  -4  563.64   14.50
   2   4  -4  569.14   14.60
  -2  -4   4  577.94   14.60
  -2  -4   4  571.44   14.60
   1   4  -4   99.39    2.70
   1   4  -4  102.29    2.70
   1   4  -4   99.89    2.70
  -1  -4   4  101.69    2.70
  -1  -4   4  101.59    2.70
   0   4  -4 1296.07   33.20
   0   4  -4 1241.48   33.20
   0   4  -4 1296.97   33.20
   0   4  -4 1313.27   33.00
   0  -4   4 1316.57   33.10
   0  -4   4 1372.46   33.10
  -1   4  -4  171.58    4.40
  -1   4  -4  150.48    4.50
  -1   4  -4  174.18    4.40
  -1   4  -4  172.78    4.40
   1  -4   4  176.48    4.40
   1  -4   4  176.18    4.40
  -2   4  -4  195.98    5.10
  -2   4  -4  197.38    5.10
  -2   4  -4  198.88    5.10
  -2   4  -4  198.08    5.10
   2  -4   4  198.98    5.10
  -3   4  -4   79.89    2.20
  -3   4  -4   77.09    2.10
  -3   4  -4   83.19    2.20
   3  -4   4   80.19    2.20
  -4   4  -4    0.50    0.30
  -4   4  -4    0.10    0.20
   4  -4   4    0.20    0.20
  -5   4  -4  319.87    8.30
  -5   4  -4  317.57    8.30
   5  -4   4  321.17    8.20
  -6   4  -4    3.90    0.60
  -6   4  -4    3.20    0.50
  -6   4  -4    4.00    0.50
  -7   4  -4    2.00    0.40
  -7   4  -4    2.00    0.40
   7  -4   4    2.30    0.40
  -8   4  -4    1.00    0.40
  -8   4  -4    1.40    0.50
   8  -4   4    0.90    0.40
  -9   4  -4   24.20    1.30
  -9   4  -4   24.40    1.10
   9  -4   4   24.00    1.10
 -10   4  -4   43.60    1.90
  10  -4   4   44.60    1.70
 -11   4  -4   10.10    1.50
  11  -4   4    9.50    1.20
 -12   4  -4   -0.80    0.80
  13  -4   4    3.90    1.10
  13   3  -4    5.50    1.20
 -13  -3   4    3.70    0.90
  12   3  -4   87.59    3.40
 -12  -3   4   94.79    3.10
 -12  -3   4   88.69    3.10
  11   3  -4    3.40    1.30
 -11  -3   4    3.00    0.80
  10   3  -4  124.79    4.10
 -10  -3   4  135.89    3.80
 -10  -3   4  129.89    3.90
   9   3  -4   18.60    1.40
  -9  -3   4   19.70    1.10
  -9  -3   4   18.20    1.10
   8   3  -4   87.49    2.80
   8   3  -4   94.29    2.50
  -8  -3   4   88.29    2.70
  -8  -3   4   86.59    2.60
   7   3  -4  142.59    3.70
   7   3  -4  141.69    4.00
  -7  -3   4  138.89    3.90
  -7  -3   4  142.29    4.00
   6   3  -4   97.49    2.80
   6   3  -4   96.99    2.80
   6   3  -4   97.29    2.60
  -6  -3   4   95.89    2.70
  -6  -3   4   97.19    2.80
   5   3  -4  109.09    3.10
   5   3  -4  113.79    2.90
   5   3  -4  110.69    3.10
  -5  -3   4  109.79    3.10
  -5  -3   4  112.89    3.10
   4   3  -4   13.20    0.70
   4   3  -4   14.30    0.50
   4   3  -4   13.10    0.60
  -4  -3   4   12.60    0.70
  -4  -3   4   12.30    0.60
   3   3  -4    0.40    0.20
   3   3  -4    0.60    0.20
   3   3  -4    0.60    0.30
  -3  -3   4    0.70    0.30
  -3  -3   4    0.10    0.20
   2   3  -4   38.30    1.10
   2   3  -4   38.50    1.10
   2   3  -4   37.90    1.20
  -2  -3   4   39.60    1.20
   1   3  -4    5.90    0.30
   1   3  -4    6.20    0.30
   1   3  -4    5.60    0.40
  -1  -3   4    6.00    0.40
  -1  -3   4    6.40    0.40
   0   3  -4  812.92   21.20
   0   3  -4  833.62   21.30
   0   3  -4  871.21   21.20
   0  -3   4  821.62   21.20
   0  -3   4  857.21   21.20
  -1   3  -4  299.77    7.60
  -1   3  -4  300.67    7.60
  -1   3  -4  300.07    7.60
  -1   3  -4  295.47    7.60
   1  -3   4  294.77    7.60
   1  -3   4  298.37    7.60
  -2   3  -4 1664.43   46.10
  -2   3  -4 1848.32   45.90
  -2   3  -4 1870.31   46.00
  -2   3  -4 1834.82   46.20
   2  -3   4 1856.31   46.10
  -3   3  -4  657.13   16.30
  -3   3  -4  629.54   16.30
   3  -3   4  644.04   16.30
  -4   3  -4    5.80    0.40
  -4   3  -4    4.90    0.40
  -4   3  -4    5.30    0.40
  -5   3  -4    5.30    0.50
  -5   3  -4    5.00    0.50
  -5   3  -4    5.50    0.50
  -6   3  -4   -0.10    0.30
  -6   3  -4    0.10    0.30
  -6   3  -4   -0.50    0.30
  -7   3  -4   67.49    2.00
  -7   3  -4   66.89    2.10
   7  -3   4   67.39    2.00
  -8   3  -4    0.70    0.50
  -8   3  -4    1.50    0.50
   8  -3   4    1.20    0.40
  -9   3  -4    8.60    0.80
  -9   3  -4    7.40    1.00
   9  -3   4    7.70    0.70
 -10   3  -4   32.90    1.40
 -10   3  -4   34.70    1.70
  10  -3   4   36.40    1.40
 -11   3  -4   20.40    1.60
  12  -3   4   19.80    1.70
  13  -3   4   13.20    1.80
  13   2  -4   26.00    2.10
  12   2  -4   31.00    2.00
 -12  -2   4   34.00    1.80
  11   2  -4    7.90    1.10
 -11  -2   4    8.80    1.10
 -11  -2   4    7.70    1.30
  10   2  -4   59.29    2.30
 -10  -2   4   58.99    2.00
 -10  -2   4   59.29    2.10
   9   2  -4    0.50    0.60
  -9  -2   4    1.60    0.50
  -9  -2   4    2.00    0.60
  -9  -2   4    1.80    0.50
   8   2  -4   25.60    1.00
  -8  -2   4   26.30    1.10
  -8  -2   4   26.00    1.10
  -8  -2   4   27.90    1.20
   7   2  -4    9.10    0.60
  -7  -2   4    9.40    0.80
  -7  -2   4    9.00    0.70
  -7  -2   4    9.70    0.70
   6   2  -4  191.88    5.10
   6   2  -4  198.48    5.00
  -6  -2   4  180.48    5.20
  -6  -2   4  192.38    5.10
  -6  -2   4  195.78    5.10
  -6  -2   4  193.58    5.20
   5   2  -4  168.48    4.30
   5   2  -4  165.58    4.40
  -5  -2   4  160.28    4.40
  -5  -2   4  168.38    4.40
  -5  -2   4  166.88    4.50
  -5  -2   4  168.38    4.50
   4   2  -4   69.49    1.90
   4   2  -4   67.99    1.90
  -4  -2   4   67.99    1.90
  -4  -2   4   66.19    2.00
  -4  -2   4   67.99    1.90
   3   2  -4   11.00    0.40
   3   2  -4   10.80    0.50
  -3  -2   4   10.50    0.50
  -3  -2   4   11.20    0.60
  -3  -2   4   11.60    0.50
   2   2  -4 1153.18   28.80
   2   2  -4 1139.29   28.80
  -2  -2   4 1120.29   28.90
  -2  -2   4 1124.99   28.80
  -2  -2   4 1148.99   28.90
   1   2  -4   86.89    2.60
   1   2  -4   98.49    2.50
   1   2  -4   95.89    2.50
   1   2  -4   97.09    2.50
  -1  -2   4   95.39    2.50
  -1  -2   4  100.09    2.50
   0   2  -4 1843.62   46.60
   0   2  -4 1793.12   46.60
   0  -2   4 1812.92   46.60
   0  -2   4 1894.21   46.60
  -1   2  -4  436.26   11.00
  -1   2  -4  431.36   11.00
  -1   2  -4  430.56   11.00
   1  -2   4  431.86   11.00
   1  -2   4  433.26   10.90
  -2   2  -4  274.87    7.00
  -2   2  -4  270.97    7.00
  -2   2  -4  278.87    7.00
  -3   2  -4  299.87    7.80
  -3   2  -4  304.07    7.80
  -3   2  -4  303.87    7.80
  -4   2  -4  626.64   16.00
  -4   2  -4  629.64   16.00
  -4   2  -4  633.14   16.00
  -5   2  -4  185.38    4.90
  -5   2  -4  182.98    4.90
  -5   2  -4  184.48    4.80
  -6   2  -4  213.28    5.70
  -6   2  -4  213.48    5.60
  -6   2  -4  215.38    5.60
  -7   2  -4   -0.50    0.40
  -7   2  -4   -0.30    0.40
   7  -2   4    0.30    0.30
  -8   2  -4    0.40    0.50
  -8   2  -4    1.00    0.40
   8  -2   4    0.80    0.40
  -9   2  -4    3.90    0.70
  -9   2  -4    3.20    0.50
   9  -2   4    3.00    0.50
 -10   2  -4    4.10    0.70
 -10   2  -4    5.30    0.70
 -11   2  -4   12.90    1.40
  11  -2   4   11.70    2.10
  12  -2   4   27.80    1.90
  13  -2   4    3.20    1.20
  13   1  -4   14.40    1.80
  12   1  -4    0.80    0.90
 -12  -1   4    0.60    0.70
 -11  -1   4    0.30    1.00
 -11  -1   4   -0.10    0.70
 -11  -1   4    0.00    0.60
 -10  -1   4    1.20    0.70
 -10  -1   4    1.40    0.60
 -10  -1   4    1.10    0.60
   9   1  -4   -0.10    0.40
  -9  -1   4   -0.10    0.50
  -9  -1   4   -0.10    0.40
  -9  -1   4   -0.30    0.40
   8   1  -4   36.50    1.20
  -8  -1   4   34.80    1.40
  -8  -1   4   34.90    1.30
  -8  -1   4   34.90    1.30
   7   1  -4  374.76    9.70
  -7  -1   4  382.66   10.00
  -7  -1   4  379.06    9.80
   6   1  -4  808.22   20.40
   6   1  -4  796.22   20.50
  -6  -1   4  806.12   20.40
  -6  -1   4  795.32   20.50
  -6  -1   4  814.52   20.50
   5   1  -4   43.50    1.30
   5   1  -4   43.40    1.40
  -5  -1   4   42.00    1.40
  -5  -1   4   41.90    1.30
  -5  -1   4   44.20    1.30
  -5  -1   4   42.20    1.40
   4   1  -4  855.71   21.80
   4   1  -4  848.32   21.90
  -4  -1   4  856.21   21.90
  -4  -1   4  856.01   21.90
  -4  -1   4  864.31   21.80
  -4  -1   4  891.41   22.00
   3   1  -4  104.59    2.90
   3   1  -4  106.99    2.80
  -3  -1   4  108.19    2.80
  -3  -1   4  108.09    2.80
  -3  -1   4  106.09    2.90
   2   1  -4 1360.46   34.30
  -2  -1   4 1354.86   34.30
  -2  -1   4 1338.97   34.30
   1   1  -4 4210.68  105.09
   1   1  -4 4088.19  104.69
   1   1  -4 3962.00  104.99
  -1  -1   4 4230.88  105.19
  -1  -1   4 4123.79  105.09
  -1  -1   4 4300.07  104.69
   0   1  -4   50.99    1.40
   0  -1   4   51.59    1.40
   0  -1   4   50.49    1.40
  -1   1  -4    0.20    0.10
  -1   1  -4    0.60    0.10
  -1   1  -4    0.30    0.20
  -2   1  -4  270.57    6.90
  -2   1  -4  265.57    6.90
  -2   1  -4  270.07    6.90
  -3   1  -4    8.80    0.40
  -3   1  -4    8.80    0.40
  -3   1  -4    9.30    0.50
  -4   1  -4    6.10    0.50
  -4   1  -4    5.40    0.40
  -4   1  -4    5.30    0.40
  -5   1  -4  142.29    3.70
  -5   1  -4  143.59    3.90
  -5   1  -4  140.29    3.80
  -6   1  -4 1766.62   45.20
  -6   1  -4 1798.12   45.30
  -6   1  -4 1798.92   45.10
  -7   1  -4    2.50    0.60
   7  -1   4    3.50    0.50
  -8   1  -4  151.18    4.30
  -8   1  -4  152.78    4.20
   8  -1   4  154.98    4.10
  -9   1  -4    1.30    0.50
   9  -1   4    0.30    0.50
   9  -1   4    0.50    0.60
 -10   1  -4   41.60    1.70
  10  -1   4   40.60    1.80
 -11   1  -4    9.60    1.20
  12  -1   4   25.90    1.90
  13  -1   4   11.80    1.90
  14   0  -4   70.79    3.30
  13   0  -4   23.00    1.90
 -12   0   4    4.00    0.70
 -12   0   4    4.40    1.00
 -11   0   4   -0.10    0.50
 -11   0   4   -0.40    0.70
  10   0  -4    2.70    0.50
 -10   0   4    2.30    0.50
 -10   0   4    2.90    0.80
   9   0  -4  209.08    6.10
  -9   0   4  223.98    6.10
  -9   0   4  215.18    5.90
  -9   0   4  223.48    5.80
   8   0  -4   29.80    1.10
  -8   0   4   26.30    1.10
  -8   0   4   27.90    1.10
  -8   0   4   26.60    1.20
   7   0  -4    0.40    0.30
  -7   0   4   -0.40    0.60
  -7   0   4    0.70    0.30
   6   0  -4  219.58    5.80
   6   0  -4  223.18    5.70
  -6   0   4  215.98    5.80
  -6   0   4  222.98    5.90
  -6   0   4  216.38    5.70
   5   0  -4  110.49    3.00
   5   0  -4  112.69    3.00
  -5   0   4  112.59    3.10
  -5   0   4  115.19    3.00
  -5   0   4  108.99    3.00
  -5   0   4  112.99    3.10
   4   0  -4  468.65   11.70
   4   0  -4  455.55   11.70
  -4   0   4  422.96   11.70
  -4   0   4  474.95   11.80
  -4   0   4  464.75   11.80
  -4   0   4  468.15   11.70
   3   0  -4  705.13   17.80
   3   0  -4  683.83   17.80
  -3   0   4  722.83   17.80
  -3   0   4  690.13   17.90
  -3   0   4  714.13   17.80
   2   0  -4 1987.40   49.80
   2   0  -4 1995.80   49.90
  -2   0   4 1907.61   49.99
  -2   0   4 1906.81   50.09
  -2   0   4 2006.20   49.80
   1   0  -4  297.77    8.00
   1   0  -4  311.77    7.90
  -1   0   4  313.37    7.90
  -1   0   4  333.37    7.90
  -1   0   4  297.97    7.90
   0   0  -4 1270.97   32.40
   0   0  -4 1267.77   32.30
   0   0  -4 1284.57   32.30
   0   0   4 1203.58   32.20
   0   0   4 1338.57   32.30
  -1   0  -4  600.94   15.20
  -1   0  -4  607.04   15.20
  -1   0  -4  591.34   15.20
  -1   0  -4  596.64   15.20
   1   0   4  569.94   15.20
   1   0   4  630.14   15.20
  -2   0  -4 1378.46   36.00
  -2   0  -4 1397.16   36.00
  -2   0  -4 1418.06   35.90
  -2   0  -4 1435.96   36.10
   2   0   4 1487.55   36.30
  -3   0  -4  390.86   10.20
  -3   0  -4  403.76   10.10
   3   0   4  402.66   10.20
  -4   0  -4  120.29    3.20
  -4   0  -4  119.89    3.30
   4   0   4  127.49    3.30
  -5   0  -4    0.30    0.30
  -5   0  -4    0.80    0.30
   5   0   4    0.60    0.30
  -6   0  -4  398.66   10.30
  -6   0  -4  400.26   10.40
   6   0   4  409.56   10.50
  -7   0  -4  233.38    6.20
   7   0   4  235.28    6.10
   7   0   4  231.88    6.30
  -8   0  -4  679.03   17.40
   8   0   4  689.63   17.20
   8   0   4  663.93   17.50
  -9   0  -4   18.10    1.10
   9   0   4   16.50    1.20
 -10   0  -4    2.80    0.70
  10   0   4    2.00    0.80
 -11   0  -4   31.50    1.70
  11   0   4   29.70    1.80
 -12   0  -4   60.39    2.40
  12   0   4   60.29    2.70
  13   0   4   43.10    2.60
  14  -1  -4    3.20    1.20
 -13   1   4   -0.30    1.00
 -12   1   4   14.90    1.50
 -12   1   4   15.60    1.30
  11  -1  -4    6.40    0.90
 -11   1   4    6.30    0.90
 -11   1   4    5.50    0.80
  10  -1  -4    0.30    0.50
 -10   1   4    1.20    0.70
   9  -1  -4    8.70    0.70
  -9   1   4    7.40    0.90
  -9   1   4    9.90    0.70
  -9   1   4    7.60    0.80
   8  -1  -4    0.50    0.50
  -8   1   4   -0.10    0.40
  -8   1   4    0.20    0.40
  -8   1   4   -0.20    0.30
   7  -1  -4    5.30    0.60
  -7   1   4    7.00    0.70
  -7   1   4    5.20    0.50
   6  -1  -4  325.37    8.40
   6  -1  -4  330.87    8.40
  -6   1   4  339.87    8.50
  -6   1   4  331.57    8.40
  -6   1   4  335.67    8.30
  -6   1   4  283.17    8.40
   5  -1  -4  207.48    5.50
   5  -1  -4  211.48    5.60
  -5   1   4  221.58    5.60
  -5   1   4  203.68    5.60
  -5   1   4  213.38    5.50
  -5   1   4  213.28    5.60
   4  -1  -4   32.00    1.00
   4  -1  -4   30.30    1.00
  -4   1   4   30.60    1.00
  -4   1   4   32.60    0.90
  -4   1   4   28.80    1.00
  -4   1   4   30.50    1.00
   3  -1  -4   10.60    0.50
   3  -1  -4   11.90    0.50
  -3   1   4   11.40    0.40
  -3   1   4   11.00    0.50
  -3   1   4   11.10    0.50
   2  -1  -4  212.98    5.40
   2  -1  -4  213.38    5.40
  -2   1   4  224.78    5.40
  -2   1   4  185.48    5.40
   1  -1  -4  415.66   10.40
  -1   1   4  406.76   10.40
  -1   1   4  411.36   10.40
  -1   1   4  400.46   10.40
   0  -1  -4   14.10    0.50
   0  -1  -4   15.30    0.60
   0  -1  -4   14.20    0.50
   0  -1  -4   15.10    0.50
   0   1   4   14.90    0.50
   0   1   4   15.50    0.50
  -1  -1  -4   70.39    1.90
  -1  -1  -4   70.19    1.90
  -1  -1  -4   72.19    1.80
  -1  -1  -4   59.59    1.80
   1   1   4   68.29    1.90
   1   1   4   73.49    1.90
  -2  -1  -4  344.97    8.90
  -2  -1  -4  352.66    8.90
  -2  -1  -4  344.77    9.00
  -2  -1  -4  343.07    8.90
   2   1   4  365.26    9.00
  -3  -1  -4   -0.20    0.20
  -3  -1  -4    0.10    0.20
   3   1   4    0.00    0.20
  -4  -1  -4   11.00    0.40
  -4  -1  -4   10.90    0.50
  -4  -1  -4   11.40    0.60
  -4  -1  -4   11.30    0.40
   4   1   4   10.80    0.60
  -5  -1  -4    5.00    0.50
  -5  -1  -4    4.40    0.40
   5   1   4    4.80    0.50
  -6  -1  -4  225.88    6.40
   6   1   4  246.68    6.30
  -7  -1  -4   31.80    1.30
   7   1   4   30.80    1.30
  -8  -1  -4    0.40    0.50
   8   1   4    0.40    0.50
  -9  -1  -4  157.88    4.50
   9   1   4  155.58    4.60
 -10  -1  -4  127.39    3.80
  10   1   4  125.19    4.00
 -11  -1  -4   19.90    1.90
  11   1   4   21.70    1.70
 -12  -1  -4    0.80    0.90
  12   1   4   -0.40    1.00
  13   1   4    2.70    1.20
 -14   2   4    2.40    1.20
 -13   2   4    5.90    1.10
 -12   2   4    0.90    0.60
 -12   2   4    1.20    0.80
  11  -2  -4    1.00    0.60
 -11   2   4    0.60    0.70
 -11   2   4   -0.20    0.80
  10  -2  -4    0.10    0.50
 -10   2   4    0.00    0.60
   9  -2  -4    7.30    0.80
  -9   2   4    6.20    0.80
  -9   2   4    6.70    0.90
   8  -2  -4   18.30    0.90
  -8   2   4   18.90    0.80
  -8   2   4   18.70    1.00
  -8   2   4   16.50    0.90
   7  -2  -4   14.00    0.80
  -7   2   4   13.30    0.80
  -7   2   4   14.50    0.90
  -7   2   4   13.70    0.60
   6  -2  -4   20.80    0.90
   6  -2  -4   22.60    0.90
  -6   2   4   23.10    1.00
  -6   2   4   22.80    0.90
  -6   2   4   22.00    0.90
  -6   2   4   24.00    0.70
   5  -2  -4  100.99    2.80
   5  -2  -4  100.49    2.80
  -5   2   4  100.29    2.80
  -5   2   4  100.19    2.80
  -5   2   4  100.19    2.80
  -5   2   4  103.99    2.60
   4  -2  -4  221.38    5.70
   4  -2  -4  215.18    5.60
  -4   2   4  221.28    5.70
  -4   2   4  228.28    5.50
  -4   2   4  217.88    5.70
  -4   2   4  197.18    5.60
   3  -2  -4   21.20    0.80
   3  -2  -4   20.50    0.70
  -3   2   4   21.90    0.80
  -3   2   4   21.80    0.60
  -3   2   4   20.70    0.80
   2  -2  -4   33.50    1.00
   2  -2  -4   32.70    1.00
  -2   2   4   32.30    1.00
  -2   2   4   32.80    0.90
  -2   2   4   32.60    1.00
   1  -2  -4  273.07    7.10
   1  -2  -4  272.57    7.10
   1  -2  -4  285.27    7.10
  -1   2   4  272.57    7.10
  -1   2   4  283.07    7.10
   0  -2  -4  474.85   11.90
   0  -2  -4  438.66   11.90
   0  -2  -4  466.95   12.00
   0  -2  -4  474.65   11.90
   0   2   4  487.55   11.90
   0   2   4  472.85   11.90
  -1  -2  -4  797.82   19.80
  -1  -2  -4  772.92   19.80
  -1  -2  -4  773.42   19.80
   1   2   4  800.92   19.90
   1   2   4  771.22   19.80
  -2  -2  -4   36.00    1.10
  -2  -2  -4   36.90    1.00
  -2  -2  -4   35.20    1.10
  -2  -2  -4   35.30    1.10
   2   2   4   36.90    1.10
   2   2   4   35.30    1.10
  -3  -2  -4    3.30    0.40
  -3  -2  -4    3.40    0.40
  -3  -2  -4    3.00    0.40
  -3  -2  -4    3.40    0.30
   3   2   4    3.60    0.40
  -4  -2  -4   15.70    0.70
  -4  -2  -4   16.90    0.60
   4   2   4   16.30    0.70
  -5  -2  -4    2.80    0.40
  -5  -2  -4    2.60    0.40
   5   2   4    2.00    0.40
  -6  -2  -4   11.80    0.80
   6   2   4   11.90    0.80
  -7  -2  -4    0.60    0.50
   7   2   4    0.60    0.50
  -8  -2  -4   10.20    1.00
   8   2   4   13.10    1.00
  -9  -2  -4    7.60    1.10
   9   2   4    9.20    1.50
 -10  -2  -4    8.40    1.20
  10   2   4    7.60    1.40
 -11  -2  -4   -0.70    0.80
  11   2   4    1.40    0.80
 -12  -2  -4    0.90    1.00
  12   2   4    1.00    1.00
 -14   3   4    4.30    1.50
 -13   3   4    7.00    1.20
  12  -3  -4   10.80    1.20
 -12   3   4   11.80    1.50
  11  -3  -4    0.60    0.60
 -11   3   4    0.80    0.70
 -11   3   4    0.40    0.60
  10  -3  -4   33.70    1.40
 -10   3   4   35.30    1.90
   9  -3  -4    1.00    0.40
  -9   3   4    1.70    0.60
  -9   3   4    0.30    0.50
   8  -3  -4  188.48    5.00
  -8   3   4  183.58    5.10
  -8   3   4  178.58    5.00
   7  -3  -4  339.87    8.90
  -7   3   4  344.87    9.00
  -7   3   4  338.87    8.90
   6  -3  -4  364.26    9.00
  -6   3   4  295.27    8.90
  -6   3   4  359.36    9.00
  -6   3   4  363.16    9.10
   5  -3  -4    1.20    0.30
   5  -3  -4    1.10    0.40
  -5   3   4    0.90    0.30
  -5   3   4    0.90    0.30
  -5   3   4    0.90    0.30
   4  -3  -4   60.19    1.70
   4  -3  -4   59.59    1.80
  -4   3   4   59.99    1.80
  -4   3   4   59.09    1.90
  -4   3   4   61.49    1.80
   3  -3  -4  368.36    9.40
   3  -3  -4  359.16    9.40
  -3   3   4  372.96    9.40
  -3   3   4  361.16    9.40
   2  -3  -4  193.68    5.10
  -2   3   4  192.28    5.10
  -2   3   4  200.58    5.10
   1  -3  -4  173.08    4.50
   1  -3  -4  178.68    4.40
   1  -3  -4  171.58    4.50
  -1   3   4  175.78    4.50
  -1   3   4  159.98    4.60
   0  -3  -4   17.60    0.60
   0  -3  -4   17.70    0.60
   0  -3  -4   16.90    0.70
   0   3   4   17.90    0.70
   0   3   4   18.60    0.70
  -1  -3  -4    1.10    0.30
  -1  -3  -4    0.80    0.20
  -1  -3  -4    1.00    0.20
  -1  -3  -4    0.90    0.20
   1   3   4    1.00    0.30
   1   3   4    1.40    0.20
  -2  -3  -4   13.00    0.60
  -2  -3  -4   12.60    0.60
  -2  -3  -4   14.20    0.50
   2   3   4   12.90    0.60
   2   3   4   13.80    0.60
  -3  -3  -4   19.50    0.80
  -3  -3  -4   18.60    0.80
  -3  -3  -4   19.80    0.80
   3   3   4   20.80    0.80
  -4  -3  -4  512.05   13.00
  -4  -3  -4  502.95   13.00
  -4  -3  -4  504.05   13.10
   4   3   4  523.05   13.20
  -5  -3  -4    3.10    0.50
   5   3   4    2.10    0.40
  -6  -3  -4   92.69    2.60
  -6  -3  -4   96.09    2.60
  -6  -3  -4   95.39    2.80
   6   3   4   97.19    2.90
  -7  -3  -4    1.00    0.50
  -7  -3  -4    1.00    0.30
  -7  -3  -4    0.70    0.30
   7   3   4    0.30    0.40
  -8  -3  -4    4.40    0.70
   8   3   4    3.60    0.60
  -9  -3  -4   12.50    1.20
   9   3   4   10.30    1.20
 -10  -3  -4   -0.60    0.70
  10   3   4    1.20    1.20
 -11  -3  -4    1.50    0.90
  11   3   4    0.20    0.90
 -12  -3  -4    2.40    1.10
  12   3   4    0.90    1.10
 -13   4   4    9.80    1.70
  12  -4  -4   13.70    1.40
 -12   4   4   16.00    1.50
  11  -4  -4  162.58    4.70
 -11   4   4  160.28    5.00
 -11   4   4  171.08    4.80
  10  -4  -4  520.75   13.50
 -10   4   4  526.45   13.80
 -10   4   4  511.55   13.90
   9  -4  -4   25.40    1.30
  -9   4   4   29.80    1.30
  -9   4   4   28.20    1.40
   8  -4  -4  220.78    5.90
  -8   4   4  213.28    6.00
  -8   4   4  218.28    5.80
   7  -4  -4    0.90    0.40
  -7   4   4    1.00    0.40
  -7   4   4    1.10    0.40
  -6   4   4  248.38    6.70
   5  -4  -4  157.38    4.10
   5  -4  -4  156.18    4.10
  -5   4   4  151.38    4.10
  -5   4   4  156.88    4.20
  -5   4   4  143.99    4.10
   4  -4  -4   18.20    0.80
   4  -4  -4   17.70    0.80
  -4   4   4   18.30    0.80
  -4   4   4   18.20    0.80
   3  -4  -4   62.79    1.80
   3  -4  -4   62.19    1.80
  -3   4   4   62.09    1.90
  -3   4   4   63.69    1.90
   2  -4  -4   63.39    1.80
   2  -4  -4   64.09    1.80
   2  -4  -4   61.99    1.80
  -2   4   4   61.89    1.80
  -2   4   4   62.29    1.80
   1  -4  -4  524.55   13.20
   1  -4  -4  505.95   13.20
   1  -4  -4  514.35   13.30
  -1   4   4  535.25   13.30
  -1   4   4  519.85   13.30
   0  -4  -4   10.30    0.50
   0  -4  -4    9.70    0.60
   0  -4  -4   10.70    0.50
   0   4   4   11.30    0.60
   0   4   4   10.30    0.60
  -1  -4  -4    0.30    0.20
  -1  -4  -4    0.00    0.20
  -1  -4  -4    0.20    0.20
   1   4   4    0.00    0.30
   1   4   4   -0.10    0.20
  -2  -4  -4  170.08    4.30
  -2  -4  -4  170.18    4.50
  -2  -4  -4  159.48    4.50
  -2  -4  -4  169.78    4.50
   2   4   4  171.68    4.50
   2   4   4  172.48    4.50
  -3  -4  -4   28.50    1.00
  -3  -4  -4   27.40    1.00
  -3  -4  -4   28.10    1.00
   3   4   4   27.20    1.10
   3   4   4   29.20    1.10
  -4  -4  -4   84.99    2.40
  -4  -4  -4   86.99    2.50
  -4  -4  -4   85.89    2.50
   4   4   4   87.19    2.60
  -5  -4  -4  149.69    4.00
  -5  -4  -4  150.48    4.10
  -5  -4  -4  144.69    4.10
   5   4   4  154.38    4.20
  -6  -4  -4  161.28    4.50
  -6  -4  -4  161.88    4.30
   6   4   4  160.58    4.50
  -7  -4  -4   32.40    1.20
  -7  -4  -4   33.20    1.40
   7   4   4   30.40    1.40
  -8  -4  -4   -0.20    0.60
  -8  -4  -4    0.70    0.70
   8   4   4    0.40    0.60
  -9  -4  -4   17.70    1.40
   9   4   4   18.90    1.90
 -10  -4  -4    6.40    0.90
  10   4   4    9.90    1.50
 -11  -4  -4   13.40    1.60
  11   4   4   11.70    1.70
 -12  -4  -4   46.50    2.40
  12   4   4   44.60    2.50
  13  -5  -4   10.80    1.40
 -13   5   4    8.60    1.30
  12  -5  -4    7.30    0.90
 -12   5   4    7.80    1.40
  11  -5  -4   13.10    1.20
 -11   5   4   10.40    1.40
 -11   5   4   12.80    1.20
  10  -5  -4   13.40    1.10
 -10   5   4   12.90    1.30
 -10   5   4   15.40    1.10
   9  -5  -4   45.10    1.70
  -9   5   4   45.30    1.90
  -9   5   4   46.30    1.70
   8  -5  -4  532.55   13.80
  -8   5   4  519.95   13.90
  -8   5   4  540.05   13.70
   7  -5  -4  150.38    4.10
  -7   5   4  145.19    4.20
  -7   5   4  148.69    4.10
   6  -5  -4  220.58    5.90
  -6   5   4  224.48    5.90
  -6   5   4  218.38    6.00
   5  -5  -4  105.89    3.00
   5  -5  -4  104.69    3.20
  -5   5   4  103.69    3.00
  -5   5   4  107.79    3.10
   4  -5  -4  965.30   24.40
   4  -5  -4  958.20   24.40
  -4   5   4  966.30   24.50
  -4   5   4  954.90   24.50
   3  -5  -4   62.79    1.80
  -3   5   4   62.79    1.90
  -3   5   4   63.39    1.90
   2  -5  -4   -0.10    0.30
   2  -5  -4   -0.20    0.20
   2  -5  -4   -0.20    0.20
  -2   5   4   -0.20    0.30
  -2   5   4    0.50    0.30
   1  -5  -4   46.40    1.30
   1  -5  -4   46.30    1.40
   1  -5  -4   44.90    1.50
  -1   5   4   49.80    1.50
  -1   5   4   46.50    1.50
   0  -5  -4   94.59    2.50
   0  -5  -4   97.19    2.60
   0  -5  -4   90.69    2.60
   0   5   4   93.89    2.70
   0   5   4   94.79    2.70
  -1  -5  -4    0.50    0.30
  -1  -5  -4    0.80    0.20
  -1  -5  -4    0.40    0.30
   1   5   4    0.90    0.30
   1   5   4    0.70    0.40
  -2  -5  -4  851.81   21.80
  -2  -5  -4  795.62   21.80
  -2  -5  -4  870.21   21.80
  -2  -5  -4  873.11   21.70
   2   5   4  884.31   21.90
   2   5   4  866.91   21.80
  -3  -5  -4    0.10    0.30
  -3  -5  -4    0.20    0.30
   3   5   4    0.40    0.50
   3   5   4   -0.50    0.30
  -4  -5  -4  175.38    4.80
  -4  -5  -4  173.98    4.70
   4   5   4  176.38    4.80
  -5  -5  -4   91.29    2.70
  -5  -5  -4   90.69    2.70
   5   5   4   93.29    2.80
  -6  -5  -4    4.90    0.70
  -6  -5  -4    4.70    0.80
   6   5   4    5.10    0.80
  -7  -5  -4   18.90    1.40
  -7  -5  -4   18.10    1.00
   7   5   4   17.50    1.20
  -8  -5  -4   25.20    1.40
  -8  -5  -4   22.50    1.40
   8   5   4   21.90    1.50
  -9  -5  -4    3.00    0.80
 -10  -5  -4    3.20    0.90
  10   5   4    3.30    1.00
 -11  -5  -4   -0.60    0.90
  11   5   4    2.20    1.10
  13  -6  -4    0.90    0.90
 -13   6   4    0.90    1.00
  12  -6  -4    7.10    0.90
 -12   6   4    5.50    1.10
  11  -6  -4   31.70    1.60
 -11   6   4   31.20    1.80
 -11   6   4   32.20    1.60
  10  -6  -4    5.70    0.70
 -10   6   4    4.90    0.90
 -10   6   4    7.00    1.00
   9  -6  -4   11.10    1.00
  -9   6   4   11.50    1.80
  -9   6   4   10.50    1.40
   8  -6  -4   12.50    0.90
  -8   6   4   14.70    1.00
  -8   6   4   11.50    1.00
   7  -6  -4    7.90    0.80
  -7   6   4    9.30    0.90
  -7   6   4    8.10    0.90
   6  -6  -4   98.79    2.90
  -6   6   4   97.09    2.90
  -6   6   4   97.79    3.00
   5  -6  -4  209.08    5.50
  -5   6   4  204.58    5.60
   4  -6  -4   78.09    2.30
   4  -6  -4   75.99    2.30
  -4   6   4   72.29    2.50
  -4   6   4   78.19    2.30
   3  -6  -4   58.39    1.80
   3  -6  -4   56.89    1.80
  -3   6   4   58.69    1.90
  -3   6   4   58.49    1.90
   2  -6  -4   53.59    1.50
   2  -6  -4   53.69    1.60
   2  -6  -4   52.89    1.70
  -2   6   4   55.09    1.70
  -2   6   4   54.09    1.70
   1  -6  -4   26.00    0.90
   1  -6  -4   26.30    0.90
   1  -6  -4   25.10    1.00
  -1   6   4   26.70    1.10
  -1   6   4   25.80    1.10
   0  -6  -4  104.69    2.80
   0  -6  -4  103.89    2.80
   0  -6  -4  103.49    3.00
   0   6   4  104.89    3.00
   0   6   4  105.29    3.00
  -1  -6  -4  932.91   23.50
  -1  -6  -4  935.61   23.60
  -1  -6  -4  931.21   23.70
   1   6   4  929.91   23.70
   1   6   4  910.41   23.70
  -2  -6  -4   71.59    2.20
  -2  -6  -4   70.39    2.10
   2   6   4   70.19    2.20
   2   6   4   71.89    2.20
  -3  -6  -4   25.00    1.10
   3   6   4   25.70    1.10
  -4  -6  -4  102.49    3.00
  -4  -6  -4  105.39    3.00
   4   6   4  105.09    3.10
  -5  -6  -4   -0.30    0.40
  -5  -6  -4   -0.30    0.40
   5   6   4    0.10    0.50
  -6  -6  -4   13.40    1.00
  -6  -6  -4   13.40    1.00
   6   6   4   11.30    1.10
  -7  -6  -4   75.19    2.80
   7   6   4   74.69    2.60
  -8  -6  -4  140.49    4.50
   8   6   4  148.19    4.70
  -9  -6  -4    4.40    0.70
  -9  -6  -4    3.30    0.80
   9   6   4    5.10    0.90
 -10  -6  -4    0.50    0.90
  10   6   4    1.90    1.00
 -11  -6  -4    1.30    1.00
  11   6   4    4.30    1.20
  13  -7  -4   13.80    1.70
 -13   7   4   17.10    1.80
  12  -7  -4   46.10    2.10
 -12   7   4   45.00    1.90
 -12   7   4   46.50    2.30
  11  -7  -4    3.80    0.80
 -11   7   4    2.80    0.90
  10  -7  -4    4.20    0.70
 -10   7   4    4.00    1.50
   9  -7  -4    4.50    0.70
  -9   7   4    3.70    0.70
  -9   7   4    4.60    0.70
   8  -7  -4   17.80    1.30
  -8   7   4   18.20    1.50
  -8   7   4   17.60    1.30
   7  -7  -4   35.80    1.40
  -7   7   4   36.20    1.50
  -7   7   4   33.60    1.50
   6  -7  -4   17.60    0.90
  -6   7   4   16.40    1.00
  -6   7   4   16.00    1.00
   5  -7  -4   76.29    2.30
  -5   7   4   73.49    2.40
  -5   7   4   75.59    2.30
   4  -7  -4    4.50    0.60
  -4   7   4    4.60    0.70
  -4   7   4    4.60    0.80
   3  -7  -4    1.20    0.40
   3  -7  -4    0.70    0.40
  -3   7   4    1.10    0.40
  -3   7   4    0.60    0.40
   2  -7  -4  135.89    3.50
   2  -7  -4  131.69    3.60
   2  -7  -4  130.19    3.70
  -2   7   4  131.69    3.70
   1  -7  -4  253.27    6.40
   1  -7  -4  248.78    6.40
   1  -7  -4  238.88    6.50
  -1   7   4  239.68    6.50
   0  -7  -4   54.79    1.60
   0  -7  -4   52.89    1.80
   0  -7  -4   53.49    1.60
   0   7   4   54.19    1.80
  -1  -7  -4    0.70    0.30
  -1  -7  -4    0.40    0.40
  -1  -7  -4    0.30    0.30
   1   7   4    0.20    0.50
   1   7   4    0.30    0.40
  -2  -7  -4  185.48    5.10
   2   7   4  186.98    5.50
   2   7   4  192.08    5.20
  -3  -7  -4   49.40    1.70
  -3  -7  -4   49.20    1.70
   3   7   4   49.70    1.80
  -4  -7  -4   18.40    1.00
  -4  -7  -4   17.20    1.00
   4   7   4   18.90    1.10
  -5  -7  -4   85.39    2.70
  -5  -7  -4   86.19    2.70
   5   7   4   88.09    2.80
  -6  -7  -4   12.00    1.10
  -6  -7  -4   11.10    1.10
   6   7   4   12.40    1.30
  -7  -7  -4   50.29    2.40
  -7  -7  -4   46.50    2.00
   7   7   4   47.90    2.10
  -8  -7  -4   42.60    1.90
  -8  -7  -4   42.60    2.00
   8   7   4   39.60    2.30
  -9  -7  -4   39.90    1.80
  -9  -7  -4   34.20    1.90
   9   7   4   36.00    2.10
 -10  -7  -4    1.80    0.80
 -10  -7  -4    1.00    1.00
  10   7   4    1.90    1.00
 -11  -7  -4    0.60    1.60
  12  -8  -4   37.80    1.90
 -12   8   4   38.10    2.30
  11  -8  -4    1.00    0.70
 -11   8   4    1.90    0.70
 -11   8   4    0.30    0.80
  10  -8  -4   36.50    1.70
 -10   8   4   34.90    1.70
 -10   8   4   33.60    1.90
   9  -8  -4    8.00    1.10
  -9   8   4    9.00    1.20
  -9   8   4    8.20    1.20
   8  -8  -4    2.60    0.60
  -8   8   4    2.70    0.60
  -8   8   4    2.60    0.70
   7  -8  -4    0.20    0.50
  -7   8   4    0.40    0.60
  -7   8   4    0.70    0.60
   6  -8  -4    3.40    0.50
  -6   8   4    2.20    0.60
  -6   8   4    2.90    0.60
   5  -8  -4   31.20    1.30
  -5   8   4   29.60    1.40
  -5   8   4   32.90    1.40
   4  -8  -4    1.70    0.40
  -4   8   4    1.90    0.50
  -4   8   4    1.10    0.50
   3  -8  -4   20.40    1.10
   3  -8  -4   22.30    1.00
  -3   8   4   22.30    1.10
  -3   8   4   22.80    1.20
   2  -8  -4   68.49    2.50
   2  -8  -4   76.49    2.10
   2  -8  -4   79.59    2.40
  -2   8   4   76.79    2.40
  -2   8   4   76.69    2.40
   1  -8  -4   26.10    1.20
   1  -8  -4   26.60    1.00
   1  -8  -4   27.10    1.00
  -1   8   4   24.50    1.20
  -1   8   4   26.60    1.30
   0  -8  -4  236.18    6.20
   0  -8  -4  241.48    6.30
   0  -8  -4  238.78    6.40
   0   8   4  237.58    6.50
   0   8   4  242.08    6.50
  -1  -8  -4   73.79    2.00
  -1  -8  -4   71.09    2.30
  -1  -8  -4   67.69    2.20
   1   8   4   74.19    2.40
   1   8   4   71.89    2.30
  -3  -8  -4   23.90    1.10
  -3  -8  -4   22.70    1.20
   3   8   4   25.80    1.30
  -4  -8  -4    7.50    1.00
  -4  -8  -4    8.80    0.90
   4   8   4    9.70    1.00
  -5  -8  -4   27.60    1.50
  -5  -8  -4   29.00    1.40
   5   8   4   28.70    1.60
  -6  -8  -4    1.00    0.70
  -6  -8  -4    1.70    0.80
   6   8   4    0.80    0.90
  -7  -8  -4    3.40    0.80
  -7  -8  -4    5.40    1.00
   7   8   4    5.80    1.30
  -8  -8  -4    2.00    0.80
  -8  -8  -4    2.10    0.80
   8   8   4    1.90    0.90
  -9  -8  -4   20.20    1.80
  -9  -8  -4   22.70    1.80
   9   8   4   22.70    1.90
 -10  -8  -4   38.40    2.30
 -10  -8  -4   44.50    2.10
  10   8   4   35.60    2.30
  12  -9  -4    1.10    0.90
 -12   9   4   -0.70    1.00
  11  -9  -4    4.50    0.80
 -11   9   4    4.10    0.80
 -11   9   4    3.90    1.10
  10  -9  -4   11.30    1.30
 -10   9   4    9.80    1.50
 -10   9   4    7.90    1.40
   9  -9  -4   23.90    1.40
  -9   9   4   23.50    1.60
  -9   9   4   22.20    1.60
   8  -9  -4   23.60    1.50
  -8   9   4   23.10    1.40
  -8   9   4   21.90    1.50
   7  -9  -4    3.50    0.60
  -7   9   4    2.70    0.80
  -7   9   4    3.50    1.00
   6  -9  -4   16.40    1.10
  -6   9   4   18.30    1.20
  -6   9   4   18.90    1.30
   5  -9  -4   11.20    0.90
  -5   9   4    9.90    1.10
  -5   9   4   10.50    1.00
   4  -9  -4   17.40    1.00
  -4   9   4   19.60    1.10
  -4   9   4   19.00    1.20
   3  -9  -4    3.30    0.50
  -3   9   4    3.40    0.60
  -3   9   4    4.70    0.80
   2  -9  -4   54.19    1.70
   2  -9  -4   56.59    2.00
   2  -9  -4   57.29    1.60
  -2   9   4   52.79    2.00
  -2   9   4   56.09    2.00
   1  -9  -4   12.90    1.10
   1  -9  -4   13.30    0.70
  -1   9   4   13.20    1.00
  -1   9   4   12.50    1.10
   0  -9  -4   17.40    0.90
   0  -9  -4   16.60    0.90
   0  -9  -4   18.70    1.10
   0   9   4   18.40    1.10
   0   9   4   17.90    1.30
  -1  -9  -4    8.50    0.90
  -1  -9  -4    6.70    0.60
  -1  -9  -4    7.90    0.70
   1   9   4    7.40    1.00
  -2  -9  -4    0.40    0.40
  -2  -9  -4    0.10    0.50
   2   9   4    0.00    0.60
  -3  -9  -4   14.50    1.10
  -3  -9  -4   14.80    1.00
   3   9   4   13.10    1.10
  -4  -9  -4   22.80    1.30
  -4  -9  -4   23.00    1.40
   4   9   4   24.30    1.60
  -5  -9  -4   11.50    1.20
  -5  -9  -4   13.30    1.10
   5   9   4   12.80    1.40
  -6  -9  -4   33.60    1.80
  -6  -9  -4   35.90    1.70
   6   9   4   33.00    2.00
  -7  -9  -4    2.50    0.80
  -7  -9  -4    1.60    0.80
   7   9   4    1.40    0.90
  -8  -9  -4   -0.40    0.80
  -8  -9  -4    0.80    0.90
   8   9   4   -0.30    1.00
  -9  -9  -4   -1.00    0.90
  -9  -9  -4   -0.20    0.90
   9   9   4    1.60    1.00
  11 -10  -4   37.80    1.90
 -11  10   4   31.10    1.90
 -11  10   4   36.30    2.20
  10 -10  -4    8.70    1.30
 -10  10   4    8.80    1.20
 -10  10   4    9.00    1.00
   9 -10  -4    0.40    0.60
  -9  10   4   -1.00    0.80
  -9  10   4    0.70    0.80
   8 -10  -4   92.29    3.00
  -8  10   4   90.79    3.30
   7 -10  -4    0.60    0.50
  -7  10   4   -0.90    0.60
  -7  10   4    0.40    0.80
   6 -10  -4   96.49    3.00
  -6  10   4   91.99    3.20
  -6  10   4  100.39    3.10
   5 -10  -4  111.49    3.40
  -5  10   4  115.69    3.50
  -5  10   4  112.09    3.60
   4 -10  -4    7.30    0.80
  -4  10   4    8.10    1.00
  -4  10   4    8.70    1.20
   3 -10  -4   54.89    1.80
  -3  10   4   54.59    2.10
  -3  10   4   53.39    2.10
   2 -10  -4   20.20    1.00
  -2  10   4   21.40    1.30
  -2  10   4   20.10    1.20
   1 -10  -4   63.69    2.30
   1 -10  -4   64.19    1.90
   1 -10  -4   61.99    1.90
  -1  10   4   63.09    2.30
   0 -10  -4    1.40    0.40
   0 -10  -4    1.70    0.60
   0  10   4    1.40    0.60
   0  10   4    1.30    0.70
  -1 -10  -4   12.00    0.90
  -1 -10  -4   10.30    1.20
   1  10   4   14.30    1.20
  -2 -10  -4   34.00    1.60
  -2 -10  -4   32.70    1.40
   2  10   4   31.50    1.90
  -3 -10  -4   16.00    1.10
  -3 -10  -4   16.70    1.30
   3  10   4   14.10    1.30
  -4 -10  -4    0.20    0.60
  -4 -10  -4    0.50    0.60
   4  10   4    1.00    1.00
  -5 -10  -4    6.40    1.10
  -5 -10  -4    8.40    1.30
  -6 -10  -4   21.40    1.60
  -6 -10  -4   19.40    1.40
   6  10   4   16.50    1.60
  -7 -10  -4    3.10    0.90
  -7 -10  -4    2.30    0.90
   7  10   4    1.90    1.00
  -8 -10  -4    3.40    1.10
  -8 -10  -4    3.70    1.00
   8  10   4    1.50    1.10
  11 -11  -4   35.90    2.40
 -11  11   4   30.20    2.90
 -11  11   4   33.00    2.60
  10 -11  -4   82.39    3.00
 -10  11   4   86.29    3.00
 -10  11   4   81.59    3.30
   9 -11  -4   42.90    2.00
  -9  11   4   40.50    2.10
  -9  11   4   42.50    2.20
   8 -11  -4   78.79    2.80
  -8  11   4   78.99    3.00
  -8  11   4   85.79    2.90
   7 -11  -4    3.80    0.70
  -7  11   4    2.30    1.60
  -7  11   4    3.40    0.90
   6 -11  -4  223.38    6.20
  -6  11   4  223.78    6.30
  -6  11   4  219.98    6.40
   5 -11  -4    9.90    1.00
  -5  11   4    8.10    1.40
  -5  11   4    9.30    1.40
   4 -11  -4  234.78    6.30
  -4  11   4  238.48    6.50
  -4  11   4  225.88    6.60
   3 -11  -4   37.80    1.50
  -3  11   4   37.00    1.90
  -3  11   4   40.20    1.90
   2 -11  -4    9.20    0.90
  -2  11   4   11.30    1.30
  -2  11   4   11.40    1.20
   1 -11  -4  102.69    3.00
  -1  11   4  101.99    3.30
  -1  11   4  104.99    3.50
   0 -11  -4    8.30    1.30
   0 -11  -4    7.80    0.80
   0  11   4    7.00    1.00
  -1 -11  -4    0.30    0.70
  -1 -11  -4    0.30    0.50
   1  11   4    0.20    0.70
  -2 -11  -4    4.00    0.80
  -2 -11  -4    6.30    0.90
   2  11   4    3.60    1.00
  -3 -11  -4    4.60    0.70
  -3 -11  -4    3.80    0.80
   3  11   4    4.70    1.00
  -4 -11  -4    9.00    1.10
  -4 -11  -4   10.50    1.50
   4  11   4    6.80    1.00
  -5 -11  -4   28.30    1.90
  -5 -11  -4   26.00    1.50
   5  11   4   23.40    1.80
  -6 -11  -4   14.20    1.40
  -6 -11  -4   15.80    1.80
   6  11   4   13.50    1.70
  -7 -11  -4   26.10    2.10
  -7 -11  -4   22.70    1.80
   7  11   4   20.10    2.00
  -8 -11  -4    1.80    1.30
  -8 -11  -4    0.90    1.30
   8  11   4   -0.10    1.50
  10 -12  -4    9.40    1.20
 -10  12   4   12.10    1.80
 -10  12   4   11.60    1.90
   9 -12  -4   11.30    1.50
  -9  12   4   12.40    1.80
  -9  12   4   14.20    1.70
   8 -12  -4    9.30    1.30
  -8  12   4   11.20    1.60
  -8  12   4    6.90    1.20
   7 -12  -4    2.10    0.70
  -7  12   4    2.80    0.90
  -7  12   4    2.70    0.90
   6 -12  -4   89.89    2.90
  -6  12   4   92.89    3.20
  -6  12   4   85.69    3.20
   5 -12  -4  181.08    5.20
  -5  12   4  185.98    5.40
  -5  12   4  179.78    5.50
   4 -12  -4  172.48    4.80
  -4  12   4  162.18    5.30
  -4  12   4  176.08    5.10
   3 -12  -4    5.70    0.70
  -3  12   4    5.90    1.10
  -3  12   4    6.40    1.00
   2 -12  -4 1102.49   28.50
  -2  12   4 1131.69   28.80
  -2  12   4 1123.59   28.90
  -1  12   4    2.60    0.90
   0  12   4    0.40    0.90
  -1 -12  -4    0.40    0.60
  -1 -12  -4    0.60    0.80
   1  12   4   -0.30    1.30
   2  12   4    1.00    0.90
  -3 -12  -4   11.50    1.60
  -3 -12  -4   10.90    1.20
   3  12   4    9.80    1.50
  -4 -12  -4  119.69    3.90
  -4 -12  -4  115.99    3.60
   4  12   4  113.89    4.00
  -5 -12  -4    0.70    0.80
  -5 -12  -4    1.40    1.00
   5  12   4    1.90    1.00
  -6 -12  -4   11.90    2.00
  -6 -12  -4   11.40    1.60
   6  12   4    7.80    1.30
  -7 -12  -4    1.20    1.20
  -7 -12  -4    3.00    1.40
   9 -13  -4   11.90    1.60
  -9  13   4    9.40    1.40
  -9  13   4    9.60    1.50
   8 -13  -4    1.90    0.90
  -8  13   4    1.90    1.00
  -8  13   4    3.30    1.10
   7 -13  -4   -1.00    0.70
  -7  13   4    1.00    1.00
   6 -13  -4    1.00    0.70
  -6  13   4    0.90    1.00
  -6  13   4    2.10    1.00
   5 -13  -4    5.90    0.80
  -5  13   4    6.10    1.10
  -5  13   4    5.10    1.00
   4 -13  -4    0.00    0.70
  -4  13   4    0.20    0.80
   3 -13  -4    3.20    0.70
  -3  13   4    2.20    1.00
  -3  13   4    1.20    0.90
  -2  13   4    8.50    1.40
  -1  13   4   30.40    1.90
   1  13   4    2.10    1.00
   2  13   4   -0.80    0.90
  -3 -13  -4   21.00    2.20
  -3 -13  -4   15.90    1.50
   3  13   4   16.60    1.80
  -4 -13  -4  125.19    4.20
  -4 -13  -4  116.69    3.80
   4  13   4  120.09    4.20
  -5 -13  -4    6.40    1.00
   5  13   4    5.60    1.30
   7 -14  -4   23.70    1.60
  -7  14   4   22.50    2.10
  -7  14   4   18.60    2.10
   6 -14  -4   14.20    1.40
  -6  14   4   15.50    2.00
  -6  14   4   12.50    1.80
   5 -14  -4    1.60    0.70
  -5  14   4   -0.50    1.00
  -5  14   4    0.20    1.00
   4 -14  -4    0.90    0.70
  -4  14   4    0.30    1.10
  -3  14   4    3.90    1.00
  -3  14   4    2.50    1.30
  -2  14   4   14.70    1.60
  -1  14   4    2.20    1.00
   0  14   4   40.50    2.20
   1  14   4   45.80    2.40
   2  14   4   54.99    2.70
   3  14   4   -0.30    1.10
  -4 -14  -4    6.50    1.40
   4  14   4    5.20    1.80
   5 -15  -4    0.50    0.90
  -5  15   4   -1.50    1.10
  -5  15   4    0.90    1.30
  -4  15   4   -0.70    1.10
  -4  15   4    0.00    1.20
  -3  15   4    2.90    1.10
  -2  15   4    1.40    1.10
  -1  15   4    3.50    1.20
   0  15   4   39.20    2.30
   1  15   4   13.10    1.90
   3  16  -5   -2.60    1.30
   2  16  -5    4.20    1.20
   1  16  -5    0.30    1.20
   0  16  -5    4.50    1.20
   0  16  -5    3.80    1.30
  -1  16  -5   23.70    2.40
  -1  16  -5   22.00    2.00
  -2  16  -5  151.78    5.00
  -2  16  -5  165.48    5.10
  -3  16  -5   78.89    3.20
  -3  16  -5   72.99    3.90
   3 -16   5   71.99    2.70
  -4  16  -5    4.70    1.10
   4 -16   5    3.50    1.00
  -5  16  -5   50.39    2.50
   5 -16   5   43.70    2.20
   5  15  -5    9.00    1.40
  -5 -15   5   10.30    1.70
  -4 -15   5   -0.20    0.90
   3  15  -5   -0.80    1.10
  -3 -15   5   -0.80    0.80
   2  15  -5   11.20    1.80
  -2 -15   5   17.40    1.50
   1  15  -5    2.50    1.10
   1  15  -5    4.30    1.20
  -1  15  -5  230.38    6.80
  -1  15  -5  240.88    6.90
  -2  15  -5   91.79    3.40
  -2  15  -5  108.39    3.60
   2 -15   5   95.99    3.10
  -3  15  -5   47.40    2.40
  -3  15  -5   56.69    2.60
   3 -15   5   51.89    2.10
  -4  15  -5  132.19    4.10
  -4  15  -5  118.29    4.10
   4 -15   5  126.19    3.90
  -5  15  -5   45.80    2.50
  -5  15  -5   51.19    2.40
   5 -15   5   46.50    2.10
  -6  15  -5   35.80    2.00
   6 -15   5   33.30    1.90
  -7  15  -5   19.10    1.70
   7 -15   5   21.90    1.80
   6  14  -5    1.50    1.20
  -6 -14   5    4.20    1.00
   5  14  -5   20.70    2.00
  -5 -14   5   26.20    1.70
   4  14  -5   -0.50    1.00
  -4 -14   5    0.70    0.80
   3  14  -5   -1.00    0.90
  -3 -14   5    0.60    0.80
   2  14  -5   36.50    3.30
  -2 -14   5   36.70    2.30
   1  14  -5   11.10    1.50
   1  14  -5   11.90    1.70
  -1 -14   5   12.40    1.20
   0  14  -5    8.50    1.50
   0  14  -5    5.30    0.90
   0 -14   5    8.00    1.10
  -1  14  -5   45.00    2.20
  -1  14  -5   39.70    2.00
   1 -14   5   38.60    1.70
  -2  14  -5    5.20    1.70
  -2  14  -5    7.70    1.30
   2 -14   5    6.20    0.90
  -3  14  -5   12.60    1.60
  -3  14  -5    8.20    1.00
   3 -14   5    8.70    1.30
  -4  14  -5    2.50    1.00
  -4  14  -5    1.20    0.80
   4 -14   5    2.10    0.70
  -5  14  -5   33.60    1.90
  -5  14  -5   32.90    2.00
   5 -14   5   33.70    1.70
  -6  14  -5   73.79    2.60
  -6  14  -5   73.59    2.90
   6 -14   5   76.49    2.70
  -7  14  -5    2.60    0.80
  -7  14  -5    4.10    1.00
   7 -14   5    2.50    0.90
   8 -14   5    6.40    1.00
  -8 -13   5    1.40    1.40
   7  13  -5   -1.10    1.10
  -7 -13   5    0.10    0.90
   6  13  -5    4.40    1.20
  -6 -13   5    6.80    1.00
   5  13  -5    1.20    1.00
  -5 -13   5    1.50    0.80
   4  13  -5    3.20    1.30
  -4 -13   5    4.10    0.70
   3  13  -5    6.90    1.00
  -3 -13   5    5.70    0.80
   2  13  -5   11.10    1.60
   2  13  -5   12.30    1.40
  -2 -13   5   12.70    1.10
   1  13  -5    0.00    0.70
   1  13  -5   -0.60    0.80
  -1 -13   5   -0.20    0.50
   0  13  -5   -0.70    0.70
   0  13  -5   -0.90    0.70
   0 -13   5    0.10    0.50
   0 -13   5   -0.10    0.50
  -1  13  -5    9.80    1.20
  -1  13  -5    9.10    1.30
   1 -13   5    9.80    1.00
   1 -13   5   10.30    1.00
  -2  13  -5    0.60    0.70
  -2  13  -5    1.30    0.70
   2 -13   5    0.80    0.60
  -3  13  -5    5.30    0.80
  -3  13  -5    9.00    1.30
   3 -13   5    7.50    1.00
  -4  13  -5   20.50    1.50
  -4  13  -5   20.60    1.60
   4 -13   5   20.90    1.30
  -5  13  -5   -0.10    0.70
  -5  13  -5   -0.20    0.80
   5 -13   5   -0.70    0.60
  -6  13  -5    1.40    0.70
  -6  13  -5    1.90    0.90
   6 -13   5    1.30    0.70
  -7  13  -5    4.80    0.70
  -7  13  -5    5.30    1.00
   7 -13   5    5.00    0.90
  -8  13  -5    0.10    0.90
   8 -13   5    0.00    0.70
  -9  13  -5    6.80    1.60
   9 -13   5    6.00    1.10
   8  12  -5    2.30    1.10
  -8 -12   5   -0.30    1.20
  -8 -12   5    2.70    1.00
   7  12  -5    4.30    1.10
  -7 -12   5    4.40    1.30
  -7 -12   5    5.90    1.00
   6  12  -5    0.90    0.90
  -6 -12   5    0.10    0.80
  -6 -12   5    0.10    1.10
   5  12  -5   22.50    1.60
  -5 -12   5   21.00    2.70
  -5 -12   5   21.40    1.50
   4  12  -5    4.00    0.90
  -4 -12   5    6.10    0.80
   3  12  -5    9.50    1.20
   3  12  -5   11.00    1.30
  -3 -12   5    8.60    1.00
   2  12  -5    1.40    0.70
   2  12  -5    0.10    0.70
  -2 -12   5    1.00    0.60
   1  12  -5    5.30    0.80
   1  12  -5    6.70    0.80
  -1 -12   5    6.60    0.80
  -1 -12   5    6.50    0.90
   0  12  -5   19.00    1.40
   0  12  -5   17.60    1.30
   0 -12   5   20.20    1.10
   0 -12   5   18.00    1.00
  -1  12  -5   56.89    2.10
  -1  12  -5   56.19    2.10
   1 -12   5   57.59    1.90
   1 -12   5   57.09    1.90
  -2  12  -5    0.40    0.60
  -2  12  -5    1.00    0.60
   2 -12   5    1.50    0.50
   2 -12   5    0.70    0.50
  -3  12  -5   21.40    1.30
  -3  12  -5   20.80    1.50
   3 -12   5   20.70    1.20
  -4  12  -5   12.50    1.40
  -4  12  -5   14.00    1.20
   4 -12   5   13.60    1.10
  -5  12  -5    0.40    0.90
  -5  12  -5   -0.30    0.70
   5 -12   5    0.00    0.50
  -6  12  -5   14.10    1.40
   6 -12   5   10.90    1.70
  -7  12  -5    0.60    0.80
   7 -12   5    1.60    0.60
  -8  12  -5    0.40    0.90
   8 -12   5    0.70    0.70
  -9  12  -5   -1.70    0.90
   9 -12   5    0.50    0.70
 -10  12  -5   23.20    2.20
  10 -12   5   29.10    1.90
   9  11  -5   44.70    2.40
  -9 -11   5   48.00    2.70
  -9 -11   5   47.90    2.30
   8  11  -5    1.00    1.00
  -8 -11   5   -2.00    1.00
  -8 -11   5   -0.30    0.80
   7  11  -5   22.80    1.70
  -7 -11   5   23.80    3.50
  -7 -11   5   24.10    1.60
   6  11  -5   35.70    1.90
  -6 -11   5   36.50    2.10
   5  11  -5   -0.30    0.70
  -5 -11   5    0.30    0.80
  -5 -11   5   -0.80    0.60
   4  11  -5   59.19    2.20
  -4 -11   5   56.89    2.20
  -4 -11   5   59.69    2.40
   3  11  -5    2.80    0.80
   3  11  -5    2.40    0.70
  -3 -11   5    2.50    0.60
   2  11  -5   43.20    1.90
   2  11  -5   40.10    1.70
  -2 -11   5   41.90    1.60
   1  11  -5   91.79    2.90
   1  11  -5   96.29    2.80
   1  11  -5   98.39    3.10
  -1 -11   5   95.99    2.90
   0  11  -5    0.20    0.50
   0  11  -5   -0.10    0.40
   0  11  -5    0.50    0.60
   0 -11   5    1.10    0.50
  -1  11  -5  140.29    4.10
  -1  11  -5  143.29    4.10
  -1  11  -5  144.99    4.00
   1 -11   5  141.09    3.90
  -2  11  -5   15.10    1.10
  -2  11  -5   16.50    1.10
  -2  11  -5   15.50    1.00
   2 -11   5   16.90    0.90
  -3  11  -5    6.00    1.00
  -3  11  -5    5.20    0.70
  -3  11  -5    5.30    0.70
   3 -11   5    6.10    0.70
  -4  11  -5   38.20    2.00
  -4  11  -5   41.10    1.70
   4 -11   5   41.30    1.60
  -5  11  -5    1.90    0.70
   5 -11   5    1.90    0.60
  -6  11  -5    0.00    1.00
  -6  11  -5    0.30    0.60
   6 -11   5    0.20    0.80
  -7  11  -5    2.00    0.70
   7 -11   5    2.60    0.70
  -8  11  -5   22.60    1.60
   8 -11   5   22.50    1.50
  -9  11  -5    2.20    0.90
   9 -11   5    1.00    0.70
 -10  11  -5    3.80    1.10
  10 -11   5    5.70    1.00
 -11  11  -5    0.70    1.30
  11 -11   5    2.50    1.00
  10  10  -5    2.00    1.20
 -10 -10   5    0.40    1.10
 -10 -10   5    2.00    1.00
   9  10  -5   12.60    1.60
  -9 -10   5    9.50    1.40
  -9 -10   5    9.40    1.30
   8  10  -5   44.40    2.20
  -8 -10   5   45.60    2.10
  -8 -10   5   49.10    2.40
   7  10  -5    9.80    1.30
  -7 -10   5   10.40    1.70
  -7 -10   5    8.40    1.50
   6  10  -5    2.50    0.80
  -6 -10   5    3.30    0.80
  -6 -10   5    2.40    0.90
   5  10  -5    1.00    0.70
  -5 -10   5    0.30    0.60
  -5 -10   5    0.10    0.60
   4  10  -5    7.40    1.00
   4  10  -5   10.30    1.40
  -4 -10   5    7.90    1.10
  -4 -10   5    6.80    0.90
   3  10  -5   63.29    2.30
   3  10  -5   60.49    1.80
   3  10  -5   56.09    2.00
  -3 -10   5   55.69    2.30
  -3 -10   5   57.09    2.00
   2  10  -5  154.88    4.30
   2  10  -5  149.69    4.10
  -2 -10   5  151.88    4.30
  -2 -10   5  150.58    4.40
   1  10  -5   51.99    1.80
   1  10  -5   50.79    1.90
   1  10  -5   50.89    1.70
  -1 -10   5   52.09    1.70
   0  10  -5   43.30    1.70
   0  10  -5   40.90    1.60
   0  10  -5   42.70    1.50
   0 -10   5   43.80    1.50
  -1  10  -5    2.20    0.50
  -1  10  -5    1.70    0.50
  -1  10  -5    1.50    0.60
  -2  10  -5    2.00    0.50
  -2  10  -5    2.30    0.50
  -2  10  -5    2.00    0.50
   2 -10   5    2.50    0.40
  -3  10  -5   -0.10    0.40
  -3  10  -5    0.70    0.50
  -3  10  -5    0.60    0.50
   3 -10   5    0.00    0.40
  -4  10  -5    3.80    0.60
  -4  10  -5    2.70    0.60
  -4  10  -5    2.30    0.50
   4 -10   5    3.40    0.40
  -5  10  -5   -0.40    0.60
  -5  10  -5   -0.60    0.50
  -6  10  -5    5.30    0.60
  -6  10  -5    5.90    1.00
   6 -10   5    5.60    0.80
  -7  10  -5   81.89    2.70
   7 -10   5   81.39    2.70
  -8  10  -5    3.00    0.80
   8 -10   5    3.50    1.00
  -9  10  -5   22.00    2.10
   9 -10   5   26.30    1.50
 -10  10  -5    8.10    1.10
  10 -10   5    8.80    1.30
 -11  10  -5    1.80    1.00
  11 -10   5    1.40    0.80
  11   9  -5    3.30    1.20
 -11  -9   5    0.50    1.10
 -11  -9   5   -0.70    1.00
  10   9  -5    1.50    1.00
 -10  -9   5    1.30    0.90
 -10  -9   5    1.30    0.90
   9   9  -5   39.70    2.10
  -9  -9   5   40.00    2.20
  -9  -9   5   38.30    2.00
   8   9  -5    1.30    0.80
  -8  -9   5    0.40    0.80
  -8  -9   5    0.50    0.70
   7   9  -5   40.00    1.80
  -7  -9   5   41.10    1.90
  -7  -9   5   42.60    2.70
   6   9  -5    0.60    0.60
  -6  -9   5    0.40    0.60
  -6  -9   5   -0.30    0.60
   5   9  -5    1.70    0.60
  -5  -9   5    0.80    0.50
  -5  -9   5    1.60    0.60
   4   9  -5   19.70    1.30
   4   9  -5   17.20    1.10
  -4  -9   5   20.50    1.20
  -4  -9   5   19.20    1.10
   3   9  -5  257.67    7.00
   3   9  -5  260.27    7.00
   3   9  -5  267.17    6.80
  -3  -9   5  256.77    7.00
  -3  -9   5  259.47    7.00
   2   9  -5   99.29    3.00
   2   9  -5  101.29    2.80
   2   9  -5   97.99    3.10
  -2  -9   5   98.09    2.90
  -2  -9   5  101.19    3.00
   1   9  -5    6.90    0.60
   1   9  -5    7.50    0.90
   1   9  -5    8.40    0.80
  -1  -9   5    8.40    0.90
  -1  -9   5    6.40    0.70
   0   9  -5    7.50    0.70
   0   9  -5    8.50    0.70
   0  -9   5    8.10    0.70
  -1   9  -5  123.99    3.60
  -1   9  -5  122.19    3.40
  -1   9  -5  121.49    3.50
   1  -9   5  124.79    3.40
  -2   9  -5    3.80    0.50
  -2   9  -5    4.40    0.70
  -2   9  -5    4.10    0.50
   2  -9   5    4.60    0.60
  -3   9  -5  237.08    6.40
  -3   9  -5  244.08    6.40
  -3   9  -5  238.38    6.40
   3  -9   5  243.98    6.30
  -4   9  -5  155.48    4.80
  -4   9  -5  162.78    4.50
  -4   9  -5  166.68    4.60
   4  -9   5  173.88    4.40
  -5   9  -5   64.99    2.10
  -5   9  -5   61.69    2.10
  -5   9  -5   62.59    2.00
   5  -9   5   69.39    1.90
  -6   9  -5   29.40    1.40
   6  -9   5   35.50    1.50
  -7   9  -5    0.50    0.60
   7  -9   5    1.00    0.70
  -8   9  -5   28.00    1.60
   8  -9   5   32.40    1.60
  -9   9  -5    7.60    1.00
   9  -9   5    8.30    1.20
 -10   9  -5   41.80    2.10
  10  -9   5   40.30    1.90
 -11   9  -5   -0.50    0.90
  11  -9   5    1.60    0.80
 -12   9  -5    0.00    1.10
  12  -9   5    1.30    0.90
  11   8  -5   64.09    2.90
 -11  -8   5   67.89    2.70
 -11  -8   5   69.69    2.80
  10   8  -5   10.80    1.60
 -10  -8   5   10.90    1.70
 -10  -8   5    9.40    1.40
   9   8  -5    0.20    1.20
  -9  -8   5    0.30    0.70
   8   8  -5   14.30    1.30
  -8  -8   5   15.20    1.30
  -8  -8   5   15.10    1.40
   7   8  -5   12.70    1.20
  -7  -8   5   13.60    1.30
  -7  -8   5   13.50    1.20
   6   8  -5  143.59    4.20
  -6  -8   5  150.68    4.20
  -6  -8   5  147.69    4.30
   5   8  -5   60.49    2.00
  -5  -8   5   59.19    2.10
  -5  -8   5   59.39    2.00
   4   8  -5    4.30    0.50
   4   8  -5    4.60    0.80
  -4  -8   5    3.50    0.50
  -4  -8   5    4.80    0.70
   3   8  -5  132.79    3.80
   3   8  -5  136.39    3.70
   3   8  -5  134.79    3.50
  -3  -8   5  131.39    3.80
  -3  -8   5  129.49    3.70
   2   8  -5  140.49    4.00
   2   8  -5  141.29    3.90
   2   8  -5  147.19    3.80
  -2  -8   5  140.09    4.00
  -2  -8   5  139.39    4.00
   1   8  -5    0.10    0.40
   1   8  -5    0.30    0.30
   1   8  -5    0.10    0.40
  -1  -8   5   -0.20    0.40
  -1  -8   5    0.10    0.40
   0   8  -5   -0.30    0.40
   0   8  -5   -0.20    0.30
   0  -8   5    0.30    0.40
   0  -8   5   -0.20    0.30
  -1   8  -5  155.08    4.20
  -1   8  -5  152.48    4.20
  -1   8  -5  151.68    4.20
   1  -8   5  156.48    4.10
  -2   8  -5  115.89    3.20
   2  -8   5  112.19    3.10
  -3   8  -5  441.96   11.70
  -3   8  -5  460.55   11.70
  -3   8  -5  436.76   11.70
  -3   8  -5  457.25   11.70
   3  -8   5  469.35   11.60
  -4   8  -5  704.23   18.10
  -4   8  -5  718.43   18.20
  -4   8  -5  706.53   18.20
  -4   8  -5  697.23   18.10
   4  -8   5  723.53   18.10
  -5   8  -5   13.60    0.80
  -5   8  -5   12.50    0.90
  -5   8  -5   13.60    0.80
   5  -8   5   12.40    0.70
  -6   8  -5    0.80    0.50
  -6   8  -5    0.10    0.50
   6  -8   5    0.50    0.50
  -7   8  -5   89.19    2.80
   7  -8   5   92.19    2.80
  -8   8  -5   92.99    3.00
   8  -8   5   98.69    3.10
  -9   8  -5  216.18    6.10
   9  -8   5  215.58    6.00
 -10   8  -5   86.19    3.80
  10  -8   5   94.19    3.00
 -11   8  -5   55.29    2.50
  11  -8   5   58.59    2.30
 -12   8  -5   31.70    2.20
  12  -8   5   27.80    1.90
  12   7  -5    2.40    1.20
 -12  -7   5    1.60    1.00
 -12  -7   5    0.60    1.00
  11   7  -5    1.50    1.00
 -11  -7   5    1.60    0.90
 -11  -7   5    0.30    0.80
  10   7  -5   20.10    1.70
 -10  -7   5   19.60    1.60
 -10  -7   5   21.70    1.50
   9   7  -5    5.10    0.90
  -9  -7   5    5.10    0.80
  -9  -7   5    7.20    1.10
   8   7  -5   14.40    1.30
  -8  -7   5   17.40    1.20
  -8  -7   5   16.50    1.30
   7   7  -5    4.10    0.70
  -7  -7   5    5.90    1.00
  -7  -7   5    4.40    0.70
   6   7  -5  222.28    6.10
  -6  -7   5  225.68    6.10
  -6  -7   5  224.38    6.10
   5   7  -5    0.30    0.40
   5   7  -5    0.00    0.50
  -5  -7   5    1.10    0.50
   4   7  -5   17.30    1.00
   4   7  -5   16.70    0.90
   4   7  -5   17.70    0.70
  -4  -7   5   19.70    1.00
  -4  -7   5   18.40    1.00
   3   7  -5   74.29    2.30
   3   7  -5   75.39    2.10
   3   7  -5   74.49    2.20
  -3  -7   5   74.09    2.30
   2   7  -5   -0.10    0.40
   2   7  -5   -0.10    0.30
   2   7  -5    1.20    0.40
   2   7  -5    0.30    0.30
  -2  -7   5    0.60    0.40
  -2  -7   5    0.60    0.30
   1   7  -5   10.20    0.60
   1   7  -5    7.60    0.80
   1   7  -5    8.70    0.60
  -1  -7   5    8.00    0.70
  -1  -7   5    9.90    0.60
   0   7  -5   40.30    1.20
   0   7  -5   32.30    1.10
   0   7  -5   32.70    1.20
   0  -7   5   35.10    1.20
   0  -7   5   33.80    1.20
  -1   7  -5   49.80    1.50
  -1   7  -5   48.80    1.50
  -1   7  -5   49.80    1.60
   1  -7   5   50.39    1.50
   1  -7   5   51.39    1.60
  -2   7  -5    5.60    0.60
  -2   7  -5    3.80    0.50
  -2   7  -5    4.80    0.50
  -2   7  -5    5.10    0.60
   2  -7   5    4.40    0.50
  -3   7  -5    9.70    0.80
  -3   7  -5    8.70    0.70
  -3   7  -5    9.80    0.60
  -3   7  -5    7.60    0.70
   3  -7   5    8.00    0.60
  -4   7  -5   47.20    1.50
  -4   7  -5   45.60    1.40
  -4   7  -5   48.60    1.40
  -4   7  -5   44.60    1.60
   4  -7   5   46.30    1.40
  -5   7  -5   59.09    1.90
  -5   7  -5   59.99    1.90
   5  -7   5   60.39    1.80
  -6   7  -5  247.28    6.80
  -6   7  -5  255.17    6.80
   6  -7   5  256.57    6.60
  -7   7  -5   55.39    1.90
   7  -7   5   56.09    1.90
   7  -7   5   53.89    2.00
  -8   7  -5   14.40    1.10
   8  -7   5   14.00    1.00
  -9   7  -5   14.70    1.30
   9  -7   5   14.40    1.10
 -10   7  -5   46.80    2.10
  10  -7   5   48.30    1.90
 -11   7  -5    1.80    0.90
  11  -7   5    1.60    0.70
 -12   7  -5    8.10    1.20
  12  -7   5    6.00    1.00
  12   6  -5    1.70    1.10
 -12  -6   5   -0.60    0.90
 -12  -6   5    2.30    1.00
  11   6  -5   -0.10    0.90
 -11  -6   5    0.60    0.80
 -11  -6   5   -1.10    0.80
  10   6  -5    5.90    1.30
 -10  -6   5    4.80    1.40
 -10  -6   5    5.10    0.90
   9   6  -5    3.00    0.80
  -9  -6   5    7.10    1.20
  -9  -6   5    4.80    0.70
   8   6  -5    1.90    0.60
  -8  -6   5    2.80    0.70
   7   6  -5    7.40    0.90
  -7  -6   5    8.50    0.90
  -7  -6   5    8.00    0.90
   6   6  -5   12.20    0.90
  -6  -6   5   11.20    0.90
  -6  -6   5   12.80    0.90
   5   6  -5   45.30    1.70
   5   6  -5   45.00    1.60
   5   6  -5   47.10    1.30
  -5  -6   5   47.20    1.60
  -5  -6   5   44.80    1.60
   4   6  -5    6.50    0.80
   4   6  -5    5.30    0.60
   4   6  -5    7.10    0.40
  -4  -6   5    4.50    0.70
   3   6  -5   30.60    0.90
   3   6  -5   28.70    1.10
   3   6  -5   27.60    1.00
  -3  -6   5   30.20    1.10
  -3  -6   5   27.40    1.10
   2   6  -5   16.20    0.80
   2   6  -5   15.50    0.60
   2   6  -5   14.80    0.70
  -2  -6   5   17.10    0.80
  -2  -6   5   15.40    0.80
   1   6  -5    0.90    0.20
   1   6  -5    0.50    0.30
   1   6  -5    0.30    0.30
  -1  -6   5    0.90    0.30
  -1  -6   5    0.00    0.30
   0   6  -5    2.00    0.40
   0   6  -5    2.10    0.30
   0   6  -5    2.00    0.40
   0  -6   5    3.30    0.50
  -1   6  -5   14.80    0.70
  -1   6  -5   14.60    0.60
  -1   6  -5   15.40    0.70
   1  -6   5   15.00    0.70
   1  -6   5   15.50    0.70
  -2   6  -5  135.19    3.70
  -2   6  -5  139.79    3.70
  -2   6  -5  137.79    3.70
  -2   6  -5  133.39    3.70
   2  -6   5  141.19    3.70
  -3   6  -5   32.50    1.00
  -3   6  -5   32.20    1.10
  -3   6  -5   31.50    1.10
  -3   6  -5   30.70    1.00
   3  -6   5   32.70    1.10
  -4   6  -5   66.49    1.90
  -4   6  -5   62.89    1.80
  -4   6  -5   67.39    2.00
  -4   6  -5   65.59    1.80
   4  -6   5   63.49    1.90
  -5   6  -5   67.39    2.00
  -5   6  -5   65.19    2.00
   5  -6   5   64.89    1.90
  -6   6  -5  171.38    4.70
  -6   6  -5  178.58    4.80
   6  -6   5  166.78    4.60
  -7   6  -5   52.99    1.80
  -7   6  -5   52.59    1.80
   7  -6   5   50.79    1.60
  -8   6  -5   85.09    2.70
   8  -6   5   86.19    2.60
  -9   6  -5    0.00    0.60
   9  -6   5    0.40    0.50
 -10   6  -5   20.20    1.40
  10  -6   5   20.20    1.20
 -11   6  -5   13.50    1.50
  11  -6   5   16.20    1.30
 -12   6  -5   24.50    1.90
  13   5  -5    0.30    1.30
 -13  -5   5    0.70    1.50
 -13  -5   5    0.00    1.20
  12   5  -5    3.00    1.10
 -12  -5   5    1.60    0.90
 -12  -5   5    1.50    0.90
  11   5  -5   20.00    1.80
 -11  -5   5   20.40    1.50
 -11  -5   5   21.20    1.80
  10   5  -5   19.00    1.60
 -10  -5   5   22.20    1.40
 -10  -5   5   19.90    1.60
   9   5  -5   55.29    2.20
  -9  -5   5   55.39    2.00
  -9  -5   5   55.89    2.40
   8   5  -5    1.00    0.60
  -8  -5   5    1.00    0.60
  -8  -5   5    0.30    0.50
   7   5  -5   11.00    0.90
  -7  -5   5   11.70    0.90
  -7  -5   5    8.30    0.90
   6   5  -5    6.70    0.50
   6   5  -5    5.90    0.70
  -6  -5   5    6.40    0.70
   5   5  -5   57.69    1.80
   5   5  -5   59.89    1.90
   5   5  -5   59.59    1.70
  -5  -5   5   58.29    1.90
   4   5  -5    6.60    0.60
   4   5  -5    6.90    0.70
   4   5  -5    6.60    0.40
  -4  -5   5    7.60    0.60
  -4  -5   5    7.30    0.70
   3   5  -5  125.29    3.30
   3   5  -5  124.79    3.30
   3   5  -5  120.39    3.40
  -3  -5   5  118.29    3.40
  -3  -5   5  126.09    3.40
   2   5  -5  153.48    4.00
   2   5  -5  149.39    4.00
   2   5  -5  149.99    4.10
  -2  -5   5  149.09    4.00
  -2  -5   5  152.58    4.10
   1   5  -5  545.65   14.10
   1   5  -5  548.45   14.00
   1   5  -5  560.74   14.00
  -1  -5   5  555.14   14.10
  -1  -5   5  544.65   14.10
   0   5  -5   23.60    0.90
   0   5  -5   24.10    0.80
   0   5  -5   23.30    0.90
   0  -5   5   22.80    0.90
   0  -5   5   24.50    0.80
  -1   5  -5   49.30    1.50
  -1   5  -5   49.00    1.40
  -1   5  -5   49.50    1.40
  -1   5  -5   49.80    1.40
   1  -5   5   48.00    1.40
   1  -5   5   49.99    1.50
  -2   5  -5   48.00    1.40
  -2   5  -5   47.20    1.40
  -2   5  -5   49.10    1.40
  -2   5  -5   47.60    1.40
   2  -5   5   47.70    1.40
  -3   5  -5  102.19    2.80
  -3   5  -5  100.59    2.70
  -3   5  -5  101.39    2.70
  -3   5  -5  102.09    2.80
   3  -5   5  101.49    2.80
  -4   5  -5  128.69    3.50
  -4   5  -5  125.69    3.50
   4  -5   5  129.99    3.40
  -5   5  -5   21.40    0.90
  -5   5  -5   20.30    0.90
   5  -5   5   20.90    0.80
  -6   5  -5   12.00    0.70
  -6   5  -5   12.10    0.80
   6  -5   5   11.80    0.70
  -7   5  -5    7.40    0.70
  -7   5  -5    6.90    0.80
   7  -5   5    7.30    0.60
  -8   5  -5   15.10    1.10
   8  -5   5   14.20    0.90
   8  -5   5   16.30    0.90
  -9   5  -5    0.20    0.60
   9  -5   5    0.30    0.50
 -10   5  -5   15.90    1.40
  10  -5   5   17.60    1.10
 -11   5  -5    0.20    0.80
  11  -5   5    1.20    0.60
 -12   5  -5   13.80    1.70
  13  -5   5    3.10    1.20
  13   4  -5   70.59    3.30
 -13  -4   5   72.29    2.70
  12   4  -5   63.79    2.90
 -12  -4   5   63.99    2.60
 -12  -4   5   73.19    2.70
  11   4  -5  137.69    4.40
 -11  -4   5  140.29    4.20
 -11  -4   5  134.29    4.10
  10   4  -5  281.27    7.70
 -10  -4   5  281.77    7.50
 -10  -4   5  270.67    7.60
   9   4  -5  142.49    4.30
  -9  -4   5  143.19    4.10
  -9  -4   5  144.19    4.10
   8   4  -5  376.36   10.20
  -8  -4   5  380.26   10.20
  -8  -4   5  403.06   10.20
   7   4  -5   16.50    1.00
   7   4  -5   17.40    0.70
  -7  -4   5   16.10    0.90
  -7  -4   5   17.10    1.00
   6   4  -5    1.90    0.50
   6   4  -5    2.80    0.40
   6   4  -5    1.50    0.40
  -6  -4   5    1.70    0.60
  -6  -4   5    1.70    0.50
   5   4  -5    1.80    0.30
  -5  -4   5    1.30    0.40
   4   4  -5  175.88    4.70
   4   4  -5  176.38    4.60
   4   4  -5  177.08    4.70
  -4  -4   5  177.98    4.70
  -4  -4   5  174.88    4.70
   3   4  -5   19.50    0.80
   3   4  -5   20.60    0.70
   3   4  -5   21.30    0.80
  -3  -4   5   21.30    0.80
  -3  -4   5   19.70    0.80
   2   4  -5  357.06    9.20
   2   4  -5  353.36    9.30
   2   4  -5  355.36    9.20
  -2  -4   5  365.26    9.30
  -2  -4   5  369.46    9.30
   1   4  -5   29.60    0.90
   1   4  -5   28.80    1.00
   1   4  -5   29.90    1.00
  -1  -4   5   29.00    1.00
  -1  -4   5   31.20    1.00
   0   4  -5  288.87    7.20
   0   4  -5  283.07    7.30
   0   4  -5  276.47    7.30
   0   4  -5  275.47    7.30
   0  -4   5  288.77    7.30
   0  -4   5  287.77    7.30
  -1   4  -5  538.05   13.70
  -1   4  -5  536.35   13.70
  -1   4  -5  540.65   13.80
  -1   4  -5  553.74   13.70
   1  -4   5  537.55   13.80
   1  -4   5  537.25   13.70
  -2   4  -5 1453.55   37.30
  -2   4  -5 1496.55   37.20
  -2   4  -5 1468.95   37.30
  -2   4  -5 1470.75   37.20
   2  -4   5 1464.95   37.20
  -3   4  -5  122.29    3.20
  -3   4  -5  118.99    3.20
  -3   4  -5  115.89    3.10
   3  -4   5  122.09    3.20
  -4   4  -5    4.40    0.50
  -4   4  -5    4.50    0.50
   4  -4   5    4.50    0.50
  -5   4  -5   28.70    1.10
  -5   4  -5   27.70    1.00
   5  -4   5   29.70    1.00
  -6   4  -5   12.20    0.80
  -6   4  -5   14.10    0.70
  -6   4  -5   13.20    0.80
  -7   4  -5   87.09    2.70
  -7   4  -5   92.99    2.60
  -7   4  -5   89.99    2.60
  -8   4  -5    0.20    0.50
  -8   4  -5    0.20    0.40
   8  -4   5    0.20    0.40
  -9   4  -5   15.30    1.20
  -9   4  -5   13.90    0.90
   9  -4   5   15.10    0.90
 -10   4  -5   16.20    1.30
  10  -4   5   14.90    1.10
 -11   4  -5    2.30    0.90
  12  -4   5   28.00    1.90
  13  -4   5    2.10    1.10
  13   3  -5    2.00    1.20
 -13  -3   5   -0.20    0.90
  12   3  -5    0.00    0.90
 -12  -3   5   -1.30    0.80
 -12  -3   5    1.60    0.80
  11   3  -5    2.70    1.60
 -11  -3   5    2.20    0.80
 -11  -3   5    2.40    0.80
  10   3  -5  114.49    3.60
 -10  -3   5  114.99    3.40
 -10  -3   5  113.39    3.80
   9   3  -5    0.90    0.60
  -9  -3   5    1.60    0.50
  -9  -3   5    1.70    0.60
   8   3  -5  387.16   10.40
   8   3  -5  398.66   10.10
  -8  -3   5  390.86   10.30
  -8  -3   5  397.66   10.30
   7   3  -5    6.90    0.70
   7   3  -5    5.00    0.50
  -7  -3   5    7.10    0.70
  -7  -3   5    7.10    0.70
   6   3  -5  748.03   19.10
   6   3  -5  750.32   19.30
   6   3  -5  743.93   19.20
  -6  -3   5  753.82   19.20
  -6  -3   5  764.52   19.20
   5   3  -5  496.35   12.60
   5   3  -5  492.35   12.70
   5   3  -5  492.35   12.70
  -5  -3   5  497.25   12.70
  -5  -3   5  496.55   12.70
   4   3  -5   41.60    1.20
   4   3  -5   37.20    1.20
  -4  -3   5   36.70    1.30
  -4  -3   5   38.60    1.20
   3   3  -5   65.59    1.90
   3   3  -5   66.39    1.80
   3   3  -5   66.19    1.80
  -3  -3   5   66.49    1.90
  -3  -3   5   65.09    1.90
   2   3  -5  149.88    3.90
   2   3  -5  146.29    3.90
   2   3  -5  153.08    3.90
  -2  -3   5  144.39    3.90
   1   3  -5  212.58    5.50
   1   3  -5  206.78    5.50
   1   3  -5  215.98    5.40
  -1  -3   5  224.38    5.60
  -1  -3   5  209.18    5.50
   0   3  -5  648.84   16.50
   0   3  -5  647.34   16.50
   0  -3   5  632.44   16.50
   0  -3   5  672.63   16.50
  -1   3  -5  345.07    9.00
  -1   3  -5  362.46    9.00
  -1   3  -5  353.86    9.00
   1  -3   5  345.37    9.00
  -2   3  -5  523.35   13.70
  -2   3  -5  540.25   13.60
  -2   3  -5  551.14   13.60
   2  -3   5  537.75   13.70
  -3   3  -5   12.90    0.50
  -3   3  -5   13.50    0.60
   3  -3   5   14.00    0.60
  -4   3  -5  572.84   14.80
  -4   3  -5  580.54   14.80
  -4   3  -5  587.24   14.80
  -5   3  -5   40.90    1.30
  -5   3  -5   41.40    1.30
  -5   3  -5   40.50    1.30
  -6   3  -5    0.30    0.30
  -6   3  -5   -0.40    0.40
  -6   3  -5    0.50    0.40
  -7   3  -5    0.80    0.40
  -7   3  -5    0.70    0.40
  -8   3  -5    7.40    0.80
  -8   3  -5    7.50    0.90
   8  -3   5    8.10    0.70
  -9   3  -5    8.40    1.00
  -9   3  -5    7.40    0.90
   9  -3   5    5.90    0.70
 -10   3  -5    5.30    0.80
 -10   3  -5    6.50    1.00
  10  -3   5    6.20    0.90
  11  -3   5    1.40    0.90
  12  -3   5    0.20    0.90
  13  -3   5   20.50    2.00
  13   2  -5   13.90    1.90
 -13  -2   5   13.60    1.80
  12   2  -5    7.60    1.10
 -12  -2   5    8.80    1.00
  11   2  -5   13.50    1.40
 -11  -2   5   13.30    1.20
 -11  -2   5   16.60    1.70
  10   2  -5   11.20    1.20
 -10  -2   5   13.60    1.00
   9   2  -5    0.40    0.40
  -9  -2   5    0.90    0.50
  -9  -2   5    0.60    0.50
  -9  -2   5    1.40    0.50
   8   2  -5   17.10    0.90
  -8  -2   5   21.00    1.00
  -8  -2   5   19.80    1.10
  -8  -2   5   20.00    1.00
   7   2  -5   92.29    2.60
  -7  -2   5   95.89    2.80
  -7  -2   5   92.19    2.70
  -7  -2   5   92.29    2.70
   6   2  -5   26.40    1.10
   6   2  -5   24.90    0.90
  -6  -2   5   24.00    1.00
  -6  -2   5   24.50    1.00
  -6  -2   5   25.20    1.10
   5   2  -5  348.27    9.00
   5   2  -5  349.17    9.10
  -5  -2   5  356.26    9.10
  -5  -2   5  350.46    9.10
  -5  -2   5  357.86    9.20
   4   2  -5    6.70    0.60
   4   2  -5    7.10    0.40
  -4  -2   5    6.30    0.50
  -4  -2   5    8.30    0.50
  -4  -2   5    7.20    0.50
   3   2  -5  259.77    7.10
   3   2  -5  276.17    7.00
  -3  -2   5  266.07    7.00
  -3  -2   5  277.27    7.00
  -3  -2   5  274.77    7.00
   2   2  -5  608.84   15.30
   2   2  -5  598.34   15.30
  -2  -2   5  603.54   15.30
  -2  -2   5  613.84   15.20
  -2  -2   5  587.14   15.30
   1   2  -5  771.42   19.60
   1   2  -5  738.03   19.60
   1   2  -5  775.52   19.50
  -1  -2   5  795.92   19.60
  -1  -2   5  779.22   19.60
   0   2  -5 3062.79   79.19
   0   2  -5 3167.68   79.19
   0  -2   5 3164.58   79.19
   0  -2   5 3097.69   79.29
  -1   2  -5  539.75   13.40
  -1   2  -5  517.75   13.40
  -1   2  -5  523.65   13.40
   1  -2   5  535.85   13.50
  -2   2  -5    0.50    0.20
  -2   2  -5    0.70    0.10
  -2   2  -5    0.70    0.20
  -3   2  -5  387.06   10.10
  -3   2  -5  402.16   10.10
  -3   2  -5  402.26   10.20
  -4   2  -5    9.10    0.50
  -4   2  -5    8.50    0.50
  -4   2  -5    7.60    0.50
  -5   2  -5    8.30    0.60
  -5   2  -5    8.10    0.60
  -5   2  -5    8.40    0.50
  -6   2  -5  667.43   17.20
  -6   2  -5  678.13   17.30
  -6   2  -5  683.23   17.30
  -7   2  -5   13.00    0.80
  -7   2  -5   11.90    0.70
  -8   2  -5   -0.40    0.40
  -8   2  -5    0.10    0.40
  -9   2  -5    7.90    1.00
  -9   2  -5    8.30    0.90
   9  -2   5    8.20    0.80
 -10   2  -5    1.10    0.60
  10  -2   5    0.80    0.70
 -11   2  -5    1.10    0.80
  11  -2   5    0.00    0.80
  12  -2   5   48.70    2.40
  13  -2   5    1.30    1.10
  13   1  -5    7.00    1.30
 -13  -1   5   11.50    1.60
  12   1  -5   21.00    1.70
 -12  -1   5   24.40    1.60
 -11  -1   5   -0.20    0.60
 -11  -1   5   -0.60    0.60
 -11  -1   5    0.50    0.70
  10   1  -5    0.00    0.50
 -10  -1   5    1.10    0.50
 -10  -1   5   -0.30    0.60
  -9  -1   5   43.50    1.50
  -9  -1   5   41.70    1.60
  -9  -1   5   43.50    1.70
   8   1  -5    0.60    0.40
  -8  -1   5    0.20    0.40
  -8  -1   5    0.60    0.40
  -8  -1   5    1.20    0.50
   7   1  -5  173.58    4.70
  -7  -1   5  176.68    4.70
  -7  -1   5  177.68    4.80
   6   1  -5    8.30    0.70
   6   1  -5    7.50    0.50
  -6  -1   5    6.40    0.60
  -6  -1   5    5.70    0.50
  -6  -1   5    7.50    0.70
   5   1  -5   23.70    0.80
   5   1  -5   23.90    1.00
  -5  -1   5   24.70    1.00
  -5  -1   5   23.50    0.90
  -5  -1   5   23.10    0.80
   4   1  -5  387.26    9.60
   4   1  -5  360.26    9.60
  -4  -1   5  363.36    9.60
  -4  -1   5  378.66    9.60
  -4  -1   5  381.66    9.60
   3   1  -5    0.40    0.20
   3   1  -5    0.20    0.20
  -3  -1   5    0.20    0.20
  -3  -1   5    0.00    0.20
  -3  -1   5    0.40    0.20
   2   1  -5 2106.89   54.09
   2   1  -5 2170.38   54.09
  -2  -1   5 2188.78   53.99
  -2  -1   5 2089.19   54.09
  -2  -1   5 2099.49   54.29
   1   1  -5  126.39    3.30
   1   1  -5  116.89    3.30
  -1  -1   5  130.99    3.30
  -1  -1   5  128.69    3.30
   0   1  -5  669.83   17.00
   0   1  -5  678.93   17.00
   0  -1   5  664.03   17.00
   0  -1   5  668.63   17.00
  -1   1  -5   26.10    0.80
  -1   1  -5   25.80    0.80
  -1   1  -5   25.80    0.80
  -1   1  -5   25.10    0.80
  -2   1  -5   90.19    2.30
  -2   1  -5   89.69    2.30
  -2   1  -5   92.19    2.40
   2  -1   5   77.39    2.40
  -3   1  -5   19.60    0.70
  -3   1  -5   18.20    0.70
   3  -1   5   21.90    0.70
  -4   1  -5    0.30    0.20
  -4   1  -5    0.10    0.30
  -5   1  -5  199.38    5.20
  -5   1  -5  200.58    5.30
  -5   1  -5  193.78    5.20
  -6   1  -5   12.00    0.70
  -6   1  -5   13.50    0.80
  -6   1  -5   11.10    0.80
  -7   1  -5    1.50    0.40
  -7   1  -5    1.90    0.40
   7  -1   5    1.90    0.40
  -8   1  -5  325.27    8.70
   8  -1   5  335.97    8.60
   8  -1   5  329.97    8.80
  -9   1  -5    8.50    0.90
   9  -1   5    7.70    1.00
 -10   1  -5   89.29    2.80
  10  -1   5   81.69    2.90
 -11   1  -5   71.99    2.50
  11  -1   5   67.29    2.70
  12  -1   5   34.70    2.10
  13  -1   5    2.00    1.20
  14   0  -5    1.30    1.70
  13   0  -5   20.50    1.90
 -13   0   5   25.70    1.70
 -12   0   5   38.50    1.70
 -12   0   5   35.50    2.00
 -11   0   5   39.60    1.90
 -11   0   5   37.10    1.60
  10   0  -5    7.60    0.80
 -10   0   5    5.50    0.80
 -10   0   5    6.50    1.00
 -10   0   5    6.50    1.00
   9   0  -5    0.80    0.40
  -9   0   5   -0.60    0.40
  -9   0   5    0.60    0.50
  -9   0   5   -0.10    0.40
   8   0  -5   14.20    0.80
  -8   0   5   13.70    0.90
  -8   0   5   15.10    0.80
  -8   0   5   14.90    0.90
   7   0  -5  114.89    3.10
  -7   0   5  115.09    3.10
  -7   0   5  107.99    3.20
   6   0  -5   23.00    0.90
   6   0  -5   22.70    1.00
  -6   0   5   23.60    1.00
  -6   0   5   21.10    0.80
  -6   0   5   22.40    1.00
  -6   0   5   21.00    1.00
   5   0  -5    9.30    0.50
   5   0  -5    9.20    0.60
  -5   0   5    8.70    0.50
  -5   0   5    8.10    0.60
  -5   0   5    8.60    0.60
   4   0  -5 1857.41   47.70
   4   0  -5 1879.51   47.50
  -4   0   5 1890.51   47.90
  -4   0   5 1873.41   47.80
  -4   0   5 1902.91   47.70
   3   0  -5  161.68    4.30
   3   0  -5  159.38    4.20
  -3   0   5  159.48    4.30
  -3   0   5  162.28    4.20
  -3   0   5  163.98    4.20
   2   0  -5   23.00    0.80
   2   0  -5   25.90    0.80
  -2   0   5   22.70    0.80
  -2   0   5   22.40    0.70
  -2   0   5   24.70    0.80
   1   0  -5    0.10    0.20
   1   0  -5    0.10    0.20
  -1   0   5    0.30    0.20
  -1   0   5    0.20    0.20
   0   0  -5  863.31   21.90
   0   0  -5  870.21   21.90
   0   0  -5  856.21   21.90
   0   0   5  839.02   21.90
   0   0   5  893.41   21.90
  -1   0  -5  364.96    9.20
  -1   0  -5  358.86    9.20
  -1   0  -5  356.46    9.20
  -1   0  -5  355.66    9.20
   1   0   5  380.96    9.20
   1   0   5  352.36    9.20
  -2   0  -5   75.79    2.10
  -2   0  -5   75.19    2.00
  -2   0  -5   74.39    2.00
  -2   0  -5   74.19    2.00
   2   0   5   80.09    2.10
  -3   0  -5    8.10    0.40
  -3   0  -5    8.10    0.50
   3   0   5    8.90    0.50
  -4   0  -5  142.49    3.70
  -4   0  -5  138.49    3.80
   4   0   5  143.69    3.80
  -5   0  -5    0.80    0.30
  -5   0  -5    1.00    0.40
   5   0   5    1.30    0.30
  -6   0  -5    9.20    0.60
   6   0   5   10.30    0.70
  -7   0  -5   75.79    2.30
   7   0   5   77.09    2.40
  -8   0  -5    8.20    0.90
   8   0   5    7.00    0.90
  -9   0  -5   36.80    1.60
   9   0   5   37.10    1.70
 -10   0  -5  160.98    4.50
  10   0   5  149.79    4.60
 -11   0  -5   19.90    1.90
  11   0   5   20.30    1.70
 -12   0  -5   39.40    2.10
  12   0   5   35.60    2.30
  13   0   5    3.10    1.30
  14  -1  -5   -0.30    1.30
 -13   1   5    5.00    1.10
 -12   1   5    7.80    1.40
 -12   1   5    8.60    1.20
  11  -1  -5   -0.10    0.60
 -11   1   5    0.80    0.70
 -11   1   5   -0.40    0.50
  10  -1  -5   13.40    1.00
 -10   1   5   14.40    1.20
  -9   1   5   -0.30    0.40
  -9   1   5   -0.20    0.40
  -9   1   5    0.30    0.50
   8  -1  -5    0.00    0.40
  -8   1   5   -0.30    0.40
  -8   1   5    0.10    0.30
   7  -1  -5  161.58    4.30
  -7   1   5  158.08    4.50
  -7   1   5  165.08    4.20
  -7   1   5  156.68    4.40
   6  -1  -5    5.40    0.70
   6  -1  -5    5.20    0.50
  -6   1   5    4.50    0.70
  -6   1   5    5.40    0.60
  -6   1   5    4.20    0.40
  -6   1   5    4.50    0.60
   5  -1  -5   25.80    1.00
   5  -1  -5   26.70    0.90
  -5   1   5   27.00    1.00
  -5   1   5   24.90    1.10
  -5   1   5   26.20    1.00
  -5   1   5   25.70    0.80
   4  -1  -5   86.79    2.50
   4  -1  -5   88.99    2.50
  -4   1   5   89.79    2.50
  -4   1   5   89.29    2.50
  -4   1   5   89.09    2.40
   3  -1  -5  287.97    7.50
   3  -1  -5  293.77    7.60
  -3   1   5  292.77    7.60
  -3   1   5  297.77    7.50
  -3   1   5  291.17    7.50
   2  -1  -5 1258.27   31.40
   2  -1  -5 1271.47   31.40
  -2   1   5 1300.47   31.50
  -2   1   5 1225.68   31.50
  -2   1   5 1150.48   31.50
   1  -1  -5  221.98    5.70
   1  -1  -5  218.48    5.70
  -1   1   5  213.58    5.60
  -1   1   5  226.48    5.60
  -1   1   5  218.48    5.70
   0  -1  -5    9.50    0.40
   0  -1  -5    9.80    0.40
   0  -1  -5    9.70    0.50
   0  -1  -5    9.80    0.50
   0   1   5    9.70    0.50
   0   1   5    9.10    0.40
  -1  -1  -5    6.70    0.40
  -1  -1  -5    6.20    0.40
  -1  -1  -5    7.50    0.40
  -1  -1  -5    7.10    0.40
   1   1   5    6.50    0.40
   1   1   5    6.60    0.40
  -2  -1  -5  443.56   11.40
  -2  -1  -5  432.36   11.40
  -2  -1  -5  449.26   11.40
  -2  -1  -5  439.66   11.40
   2   1   5  471.55   11.40
  -3  -1  -5   21.30    0.70
  -3  -1  -5   21.00    0.70
  -3  -1  -5   20.80    0.80
  -3  -1  -5   22.20    0.70
   3   1   5   22.60    0.80
  -4  -1  -5  100.89    2.70
  -4  -1  -5  100.39    2.90
  -4  -1  -5  104.49    2.70
   4   1   5  105.39    2.90
  -5  -1  -5    4.90    0.40
  -5  -1  -5    5.50    0.60
   5   1   5    5.20    0.60
  -6  -1  -5   -0.30    0.20
  -6  -1  -5    0.90    0.40
  -7  -1  -5  101.69    3.00
   7   1   5  103.39    3.10
  -8  -1  -5  380.16   10.10
   8   1   5  383.66   10.10
  -9  -1  -5   61.99    2.20
   9   1   5   59.79    2.20
 -10  -1  -5   32.70    1.70
  10   1   5   31.40    1.80
 -11  -1  -5   14.40    1.50
  11   1   5   16.30    1.70
 -12  -1  -5   15.00    1.70
  12   1   5   14.20    1.90
 -14   2   5    4.80    1.40
 -13   2   5   32.70    2.10
 -12   2   5    1.00    0.80
 -12   2   5    1.70    0.60
  11  -2  -5    3.40    0.60
 -11   2   5    3.30    0.70
 -11   2   5    5.30    0.90
  10  -2  -5    1.10    0.50
 -10   2   5    0.90    0.60
 -10   2   5    1.80    0.60
   9  -2  -5    2.10    0.50
  -9   2   5    1.70    0.50
  -9   2   5    1.40    0.60
   8  -2  -5    1.50    0.40
  -8   2   5    1.50    0.40
  -8   2   5    0.70    0.40
  -8   2   5    1.50    0.50
  -7   2   5   53.69    1.80
  -7   2   5   53.29    1.80
  -7   2   5   53.09    1.50
   6  -2  -5   21.90    0.90
   6  -2  -5   21.90    1.00
  -6   2   5   22.20    1.00
  -6   2   5   22.60    0.70
  -6   2   5   22.20    1.00
   5  -2  -5   75.79    2.20
   5  -2  -5   75.39    2.20
  -5   2   5   77.89    2.20
  -5   2   5   77.79    2.20
  -5   2   5   72.89    2.30
  -5   2   5   79.59    2.10
   4  -2  -5   79.69    2.30
   4  -2  -5   81.59    2.30
  -4   2   5   81.09    2.30
  -4   2   5   83.59    2.30
  -4   2   5   85.69    2.20
   3  -2  -5    3.30    0.40
   3  -2  -5    2.70    0.40
  -3   2   5    3.00    0.40
  -3   2   5    3.00    0.50
  -3   2   5    3.00    0.30
   2  -2  -5  311.37    8.10
  -2   2   5  321.17    8.20
  -2   2   5  326.37    8.20
  -2   2   5  311.47    8.10
   1  -2  -5   11.70    0.50
   1  -2  -5   11.70    0.50
   1  -2  -5   11.80    0.60
  -1   2   5   11.90    0.60
  -1   2   5   12.20    0.50
   0  -2  -5  102.49    2.80
   0  -2  -5  104.69    2.70
   0  -2  -5   98.19    2.80
   0  -2  -5  104.39    2.70
   0   2   5  103.19    2.80
   0   2   5  105.09    2.80
  -1  -2  -5 1099.89   27.70
  -1  -2  -5 1102.39   27.60
  -1  -2  -5 1095.49   27.60
   1   2   5 1115.09   27.80
   1   2   5 1049.79   27.60
  -2  -2  -5   56.19    1.50
  -2  -2  -5   56.39    1.60
  -2  -2  -5   55.49    1.60
  -2  -2  -5   55.99    1.60
   2   2   5   55.09    1.60
   2   2   5   54.99    1.60
  -3  -2  -5   54.69    1.60
  -3  -2  -5   53.19    1.60
  -3  -2  -5   55.69    1.50
  -3  -2  -5   53.49    1.60
   3   2   5   52.59    1.60
  -4  -2  -5   42.20    1.30
  -4  -2  -5   41.20    1.40
  -4  -2  -5   40.60    1.20
  -4  -2  -5   42.30    1.20
   4   2   5   42.50    1.40
  -5  -2  -5    1.00    0.20
   5   2   5    0.60    0.40
  -6  -2  -5   78.79    2.40
   6   2   5   78.19    2.40
  -7  -2  -5   29.50    1.30
   7   2   5   28.90    1.30
  -8  -2  -5   -0.30    0.50
   8   2   5    0.40    0.50
  -9  -2  -5    1.60    0.70
   9   2   5    2.40    0.70
 -10  -2  -5    3.80    0.80
  10   2   5    3.40    0.90
 -11  -2  -5    1.30    0.90
  11   2   5    1.80    0.90
 -12  -2  -5    0.60    1.00
  12   2   5    0.50    1.00
 -13   3   5   38.20    2.30
  12  -3  -5   17.60    1.50
 -12   3   5   20.40    1.30
 -12   3   5   16.80    1.60
  11  -3  -5   70.79    2.40
 -11   3   5   70.69    2.70
 -11   3   5   70.39    2.40
  10  -3  -5    5.70    0.70
 -10   3   5    5.20    0.80
 -10   3   5    5.60    1.00
   9  -3  -5   14.30    1.00
  -9   3   5   14.30    1.10
  -9   3   5   13.30    1.00
   8  -3  -5  519.85   13.80
  -8   3   5  540.25   14.00
  -8   3   5  544.45   13.80
   7  -3  -5    2.60    0.40
  -7   3   5    2.20    0.50
   6  -3  -5    0.20    0.40
  -6   3   5   -0.50    0.40
  -6   3   5    0.50    0.40
   5  -3  -5   -0.10    0.30
   5  -3  -5   -0.50    0.30
  -5   3   5    0.20    0.40
  -5   3   5    0.20    0.30
   4  -3  -5  407.36   10.30
   4  -3  -5  386.86   10.30
  -4   3   5  399.16   10.30
  -4   3   5  405.36   10.30
   3  -3  -5  129.49    3.80
   3  -3  -5  139.09    3.70
  -3   3   5  144.49    3.70
  -3   3   5  136.39    3.70
  -3   3   5  136.29    3.50
   2  -3  -5    1.00    0.20
   2  -3  -5    0.90    0.30
  -2   3   5    1.30    0.20
  -2   3   5    1.30    0.30
  -2   3   5    1.20    0.30
   1  -3  -5  386.26   10.00
   1  -3  -5  383.16    9.90
  -1   3   5  401.96   10.00
   0  -3  -5   21.10    0.70
   0  -3  -5   21.10    0.80
   0  -3  -5   20.80    0.70
   0   3   5   22.10    0.80
   0   3   5   22.00    0.80
  -1  -3  -5   11.10    0.50
  -1  -3  -5   11.00    0.60
  -1  -3  -5   11.70    0.60
  -1  -3  -5   12.00    0.50
   1   3   5   12.00    0.60
   1   3   5   11.30    0.60
  -2  -3  -5    1.10    0.30
  -2  -3  -5    2.00    0.30
  -2  -3  -5    1.40    0.30
  -2  -3  -5    0.70    0.30
   2   3   5    1.20    0.30
   2   3   5    1.20    0.30
  -3  -3  -5   17.70    0.60
  -3  -3  -5   18.00    0.80
  -3  -3  -5   18.10    0.80
  -3  -3  -5   18.20    0.80
   3   3   5   18.20    0.80
  -4  -3  -5   52.89    1.70
  -4  -3  -5   51.39    1.60
   4   3   5   49.10    1.70
  -5  -3  -5   53.59    1.60
  -5  -3  -5   53.99    1.80
  -5  -3  -5   54.09    1.60
  -6  -3  -5  117.69    3.40
  -6  -3  -5  113.89    3.10
  -6  -3  -5  117.49    3.20
   6   3   5  116.99    3.40
  -7  -3  -5    1.50    0.50
   7   3   5    1.20    0.50
  -8  -3  -5   35.70    1.60
   8   3   5   33.40    1.60
  -9  -3  -5    2.50    0.80
   9   3   5    0.80    0.70
 -10  -3  -5    0.90    0.80
  10   3   5    1.20    0.80
 -11  -3  -5    1.00    0.90
  11   3   5    2.30    1.00
 -12  -3  -5    2.10    1.00
  12   3   5    1.80    1.10
 -13   4   5    3.70    1.10
  12  -4  -5   -0.20    0.70
 -12   4   5    0.00    0.80
 -12   4   5    0.20    0.60
  11  -4  -5    4.30    0.70
 -11   4   5    2.30    1.10
  10  -4  -5   15.00    1.10
 -10   4   5   16.10    1.40
 -10   4   5   17.50    1.20
   9  -4  -5  106.79    3.20
  -9   4   5  106.99    3.20
  -9   4   5  106.39    3.40
   8  -4  -5   42.90    1.60
  -8   4   5   42.20    1.60
  -8   4   5   42.60    1.70
   7  -4  -5   12.60    0.80
  -7   4   5   13.60    0.90
  -7   4   5   12.90    0.90
   6  -4  -5 2735.13   68.69
  -6   4   5 2705.23   69.39
   5  -4  -5   34.70    1.30
   5  -4  -5   33.70    1.20
  -5   4   5   32.70    1.30
  -5   4   5   32.80    1.30
   4  -4  -5  322.47    8.50
   4  -4  -5  332.87    8.50
  -4   4   5  331.17    8.60
  -4   4   5  325.97    8.60
   3  -4  -5  392.36    9.80
   3  -4  -5  382.86    9.70
  -3   4   5  336.37    9.70
  -3   4   5  393.86    9.80
  -3   4   5  385.86    9.80
   2  -4  -5  742.43   18.60
   2  -4  -5  731.73   18.70
   2  -4  -5  725.33   18.70
  -2   4   5  746.83   18.80
  -2   4   5  731.23   18.80
   1  -4  -5  327.47    8.40
   1  -4  -5  333.57    8.40
   1  -4  -5  325.67    8.50
  -1   4   5  326.27    8.50
  -1   4   5  329.67    8.50
   0  -4  -5  311.17    8.00
   0  -4  -5  312.87    8.10
   0  -4  -5  312.37    8.00
   0   4   5  306.97    8.10
   0   4   5  320.67    8.10
  -1  -4  -5  178.58    5.00
  -1  -4  -5  187.78    4.80
  -1  -4  -5  185.58    4.90
  -1  -4  -5  183.78    4.90
   1   4   5  186.18    4.90
   1   4   5  190.48    4.90
  -2  -4  -5   93.89    2.70
  -2  -4  -5   93.09    2.70
  -2  -4  -5   96.69    2.50
   2   4   5   99.59    2.70
   2   4   5   95.39    2.70
  -3  -4  -5   53.99    1.70
  -3  -4  -5   55.19    1.70
  -3  -4  -5   55.99    1.70
   3   4   5   56.09    1.80
  -4  -4  -5  380.26    9.90
  -4  -4  -5  374.66    9.80
  -4  -4  -5  388.46    9.90
   4   4   5  383.56   10.00
  -5  -4  -5    0.00    0.40
  -5  -4  -5    0.20    0.30
   5   4   5    0.40    0.40
  -6  -4  -5   21.10    1.00
  -6  -4  -5   21.10    1.10
   6   4   5   21.70    1.10
  -7  -4  -5    3.60    0.60
  -7  -4  -5    3.20    0.50
   7   4   5    3.20    0.60
  -8  -4  -5   82.89    2.70
   8   4   5   78.99    2.80
  -9  -4  -5   43.70    2.00
   9   4   5   42.60    2.00
 -10  -4  -5    2.00    0.80
  10   4   5    1.30    0.80
 -11  -4  -5    1.70    0.90
  11   4   5    2.30    1.00
 -12  -4  -5    3.40    1.20
  12   4   5    6.00    1.30
  13  -5  -5    1.30    0.90
 -13   5   5    4.70    1.20
  12  -5  -5   13.00    1.30
 -12   5   5   12.20    1.50
 -12   5   5   10.30    1.30
  11  -5  -5   74.89    2.80
 -11   5   5   80.79    2.60
 -11   5   5   76.99    2.80
  10  -5  -5    2.30    0.60
 -10   5   5    1.10    0.90
 -10   5   5    1.50    0.80
   9  -5  -5    0.20    0.50
  -9   5   5   -0.10    0.80
  -9   5   5    0.10    0.90
   8  -5  -5    0.30    0.50
  -8   5   5    0.50    0.50
  -8   5   5    0.40    0.50
   7  -5  -5   26.00    1.20
  -7   5   5   28.70    1.20
  -7   5   5   25.90    1.30
   6  -5  -5  399.76   10.40
  -6   5   5  401.26   10.40
  -6   5   5  392.66   10.40
   5  -5  -5  269.87    7.10
   5  -5  -5  270.97    7.20
  -5   5   5  273.97    7.20
   4  -5  -5  378.96    9.90
  -4   5   5  385.96   10.00
  -4   5   5  380.36    9.90
   3  -5  -5    1.80    0.30
   3  -5  -5    2.60    0.40
  -3   5   5    3.20    0.60
  -3   5   5    2.90    0.50
   2  -5  -5    5.50    0.60
   2  -5  -5    3.40    0.50
   2  -5  -5    4.20    0.40
  -2   5   5    5.30    0.60
  -2   5   5    5.20    0.60
   1  -5  -5   56.39    1.80
   1  -5  -5   55.59    1.60
   1  -5  -5   57.19    1.70
  -1   5   5   56.09    1.80
  -1   5   5   57.59    1.80
   0  -5  -5   28.30    0.90
   0  -5  -5   26.40    1.10
   0  -5  -5   27.20    0.90
   0   5   5   29.30    1.10
   0   5   5   28.60    1.10
  -1  -5  -5   76.79    2.20
  -1  -5  -5   71.79    2.20
  -1  -5  -5   79.89    2.10
   1   5   5   75.39    2.30
   1   5   5   77.09    2.30
  -2  -5  -5  652.03   17.00
  -2  -5  -5  667.53   16.80
  -2  -5  -5  666.23   17.00
   2   5   5  676.23   17.00
   2   5   5  652.13   17.00
   3   5   5    6.80    0.90
  -4  -5  -5   33.70    1.30
  -4  -5  -5   32.00    1.20
   4   5   5   33.40    1.30
  -5  -5  -5    0.10    0.40
  -5  -5  -5    0.50    0.40
   5   5   5    1.20    0.50
  -6  -5  -5  161.38    4.50
  -6  -5  -5  161.18    4.40
   6   5   5  158.88    4.60
  -7  -5  -5   42.30    1.70
  -7  -5  -5   43.00    1.60
   7   5   5   43.20    1.90
  -8  -5  -5  269.67    7.40
  -8  -5  -5  264.37    7.20
   8   5   5  264.57    7.40
  -9  -5  -5    5.40    1.00
   9   5   5    3.90    1.00
 -10  -5  -5    2.50    0.90
  10   5   5    3.70    1.10
 -11  -5  -5    5.00    1.10
  11   5   5    5.00    1.20
  13  -6  -5   18.60    1.70
 -13   6   5   19.40    1.90
  12  -6  -5    5.20    0.90
 -12   6   5    6.00    1.10
 -12   6   5    5.30    0.80
  11  -6  -5   28.40    1.50
 -11   6   5   27.60    1.80
 -11   6   5   30.30    1.60
  10  -6  -5   21.20    1.30
 -10   6   5   21.50    1.40
 -10   6   5   21.30    1.50
   9  -6  -5    2.80    0.80
  -9   6   5    1.50    0.80
  -9   6   5    2.40    0.80
   8  -6  -5    8.20    0.90
  -8   6   5    6.50    0.90
  -8   6   5    6.60    1.00
   7  -6  -5   57.99    1.90
  -7   6   5   59.09    2.00
  -7   6   5   56.89    2.00
   6  -6  -5   42.10    1.50
  -6   6   5   41.70    1.50
  -6   6   5   41.70    1.60
   5  -6  -5  142.99    3.90
  -5   6   5  138.49    4.00
   4  -6  -5  150.98    4.20
   4  -6  -5  152.48    4.20
  -4   6   5  153.48    4.30
  -4   6   5  155.08    4.20
   3  -6  -5   35.80    1.30
   3  -6  -5   36.00    1.20
  -3   6   5   34.70    1.30
  -3   6   5   37.00    1.40
   2  -6  -5  273.57    7.30
   2  -6  -5  271.97    7.20
   2  -6  -5  284.57    7.10
  -2   6   5  276.07    7.40
  -2   6   5  285.47    7.40
   1  -6  -5    0.50    0.30
   1  -6  -5    0.90    0.40
   1  -6  -5    0.20    0.30
  -1   6   5    1.20    0.40
  -1   6   5    0.80    0.40
   0  -6  -5  141.29    4.00
   0  -6  -5  143.09    3.90
   0  -6  -5  144.49    3.80
   0   6   5  147.39    4.00
   0   6   5  144.09    4.00
  -1  -6  -5   67.39    1.80
  -1  -6  -5   63.39    2.00
  -1  -6  -5   64.79    1.90
   1   6   5   69.89    2.10
   1   6   5   59.89    2.20
  -2  -6  -5    6.60    0.40
   2   6   5    5.10    0.70
  -3  -6  -5  115.19    3.30
  -3  -6  -5  114.99    3.30
   3   6   5  114.39    3.40
  -4  -6  -5    2.10    0.50
  -4  -6  -5    1.70    0.50
   4   6   5    1.10    0.50
  -5  -6  -5    1.40    0.50
  -5  -6  -5    0.90    0.50
   5   6   5    0.30    0.50
  -6  -6  -5    1.00    0.50
  -6  -6  -5    1.70    0.50
   6   6   5    1.30    0.90
  -7  -6  -5   48.90    1.90
  -7  -6  -5   46.50    1.90
   7   6   5   45.20    2.10
  -8  -6  -5   51.69    2.40
  -8  -6  -5   61.69    2.40
   8   6   5   51.39    2.30
  -9  -6  -5    2.40    0.90
  -9  -6  -5    3.90    0.70
   9   6   5    4.10    1.00
 -10  -6  -5   36.10    2.00
  10   6   5   37.50    2.20
 -11  -6  -5    2.20    1.10
  11   6   5    2.70    1.10
  13  -7  -5   12.80    1.60
 -13   7   5    9.80    2.00
  12  -7  -5   13.30    1.50
 -12   7   5   13.80    1.70
 -12   7   5   14.70    1.50
  11  -7  -5   14.30    1.30
 -11   7   5   13.10    1.30
 -11   7   5   13.40    1.60
  10  -7  -5   53.09    2.60
 -10   7   5   50.39    2.20
 -10   7   5   50.79    2.10
   9  -7  -5   17.50    1.20
  -9   7   5   17.10    1.30
  -9   7   5   15.80    1.40
   8  -7  -5    1.90    0.70
  -8   7   5    2.20    0.60
  -8   7   5    0.70    0.60
   7  -7  -5   19.00    1.10
  -7   7   5   20.00    1.20
  -7   7   5   19.40    1.20
   6  -7  -5    9.20    0.80
  -6   7   5    9.50    0.90
  -6   7   5    9.20    0.90
   5  -7  -5   29.80    1.20
  -5   7   5   30.80    1.30
  -5   7   5   30.90    1.30
   4  -7  -5    0.90    0.50
   4  -7  -5    0.90    0.40
  -4   7   5    0.20    0.50
  -4   7   5    0.10    0.40
   3  -7  -5   30.40    1.10
   3  -7  -5   31.00    1.30
  -3   7   5   31.70    1.30
  -3   7   5   29.80    1.30
   2  -7  -5    4.90    0.80
   2  -7  -5    5.00    0.40
   2  -7  -5    4.80    0.60
  -2   7   5    4.30    0.60
  -2   7   5    4.80    0.70
   1  -7  -5   32.80    1.10
   1  -7  -5   31.10    1.30
   1  -7  -5   31.80    1.10
  -1   7   5   32.20    1.30
  -1   7   5   33.00    1.30
   0  -7  -5  445.36   11.80
   0  -7  -5  453.45   11.70
   0  -7  -5  456.35   11.70
   0   7   5  448.86   11.80
   0   7   5  474.55   11.90
  -1  -7  -5   33.00    1.20
  -1  -7  -5   33.10    1.10
  -1  -7  -5   32.20    1.30
   1   7   5   31.10    1.30
   1   7   5   31.10    1.40
  -2  -7  -5    0.50    0.40
  -2  -7  -5    1.10    0.40
   2   7   5    0.10    0.40
  -3  -7  -5   -0.20    0.40
  -3  -7  -5   -0.10    0.50
   3   7   5    0.90    0.50
  -4  -7  -5   95.59    2.90
  -4  -7  -5   95.99    2.90
   4   7   5  101.69    3.20
  -5  -7  -5  249.78    6.70
  -5  -7  -5  241.48    6.60
   5   7   5  247.38    6.80
  -6  -7  -5   10.60    1.20
  -6  -7  -5   11.50    1.30
   6   7   5   11.50    1.40
  -7  -7  -5    4.70    0.90
  -7  -7  -5    4.60    0.80
   7   7   5    6.20    1.00
  -8  -7  -5   10.10    1.40
  -8  -7  -5   10.30    1.40
   8   7   5    9.70    1.50
  -9  -7  -5    1.40    0.90
  -9  -7  -5   -1.20    0.80
   9   7   5    0.40    0.90
 -10  -7  -5    7.00    1.10
  10   7   5   10.10    1.80
  12  -8  -5    0.40    0.80
 -12   8   5    2.90    1.10
 -12   8   5    1.80    0.80
  11  -8  -5   18.80    1.40
 -11   8   5   21.10    1.50
 -11   8   5   15.70    1.70
  10  -8  -5   18.70    1.30
 -10   8   5   17.00    1.60
 -10   8   5   16.40    1.50
   9  -8  -5   -0.60    0.60
  -9   8   5    0.40    0.70
  -9   8   5   -0.10    0.70
   8  -8  -5  173.08    4.90
  -8   8   5  182.48    5.20
  -8   8   5  165.18    5.30
   7  -8  -5   -0.10    0.50
  -7   8   5   -0.20    0.60
  -7   8   5    0.20    0.50
   6  -8  -5    4.20    0.60
  -6   8   5    4.00    0.70
  -6   8   5    4.50    0.70
   5  -8  -5   34.80    1.40
  -5   8   5   35.20    1.50
  -5   8   5   34.40    1.50
   4  -8  -5    0.20    0.40
  -4   8   5    0.60    0.50
  -4   8   5    0.50    0.50
   3  -8  -5   77.69    2.40
   3  -8  -5   74.79    2.30
  -3   8   5   71.99    2.40
  -3   8   5   78.69    2.50
   2  -8  -5    6.70    0.60
   2  -8  -5    6.80    0.90
   2  -8  -5    6.10    0.50
  -2   8   5    5.80    0.80
  -2   8   5    6.90    1.00
   1  -8  -5    2.80    0.60
   1  -8  -5    3.50    0.40
   1  -8  -5    2.60    0.40
  -1   8   5    2.60    0.60
  -1   8   5    2.40    0.50
   0  -8  -5   15.90    0.80
   0  -8  -5   17.10    0.80
   0  -8  -5   15.50    1.10
   0   8   5   14.40    1.00
   0   8   5   17.90    1.20
  -1  -8  -5   19.90    0.90
  -1  -8  -5   19.20    0.80
  -1  -8  -5   19.30    1.10
   1   8   5   19.10    1.10
  -2  -8  -5  130.29    3.80
  -2  -8  -5  132.29    3.70
   2   8   5  136.19    3.90
  -3  -8  -5   70.19    2.30
  -3  -8  -5   68.99    2.20
   3   8   5   67.89    2.40
  -4  -8  -5  155.28    4.40
  -4  -8  -5  153.08    4.40
   4   8   5  158.38    4.60
  -5  -8  -5   23.30    1.40
  -5  -8  -5   21.50    1.40
   5   8   5   23.10    1.50
  -6  -8  -5   15.40    1.30
  -6  -8  -5   14.20    1.30
   6   8   5   15.60    1.40
  -7  -8  -5   -0.80    0.70
  -7  -8  -5    1.40    0.80
   7   8   5    0.00    0.80
  -8  -8  -5    1.20    0.80
  -8  -8  -5    0.90    0.80
   8   8   5    1.00    1.00
  -9  -8  -5   14.40    1.70
  -9  -8  -5   12.70    1.70
   9   8   5   14.80    1.80
 -10  -8  -5   58.79    3.00
  10   8   5   45.50    3.40
  12  -9  -5   -0.10    0.90
 -12   9   5    0.60    0.90
 -12   9   5   -0.20    1.10
  11  -9  -5   35.10    1.80
 -11   9   5   31.70    2.00
 -11   9   5   32.80    1.90
  10  -9  -5    2.20    0.70
 -10   9   5    2.00    0.90
 -10   9   5    2.00    0.80
   9  -9  -5    5.70    0.80
  -9   9   5    6.60    1.00
  -9   9   5    6.10    0.90
   8  -9  -5   21.00    1.30
  -8   9   5   21.90    1.50
  -8   9   5   21.90    1.60
   7  -9  -5   37.20    1.60
  -7   9   5   37.30    1.70
  -7   9   5   37.70    2.00
   6  -9  -5   33.00    1.50
  -6   9   5   34.10    1.80
  -6   9   5   34.30    1.60
   5  -9  -5   42.80    1.60
  -5   9   5   44.80    1.80
  -5   9   5   44.30    1.80
   4  -9  -5   12.30    0.90
  -4   9   5   11.60    1.20
  -4   9   5   12.20    1.00
   3  -9  -5   -0.10    0.40
  -3   9   5    0.50    0.50
  -3   9   5    0.20    0.50
   2  -9  -5    1.30    0.50
   2  -9  -5    1.10    0.40
  -2   9   5    0.60    0.70
  -2   9   5    1.00    0.50
   1  -9  -5    3.30    0.60
   1  -9  -5    3.10    0.50
   1  -9  -5    3.40    0.50
  -1   9   5    3.30    0.60
  -1   9   5    3.20    0.60
   0  -9  -5   90.89    2.80
   0  -9  -5   88.09    3.00
   0  -9  -5   91.29    2.60
   0   9   5   83.19    2.80
   0   9   5   91.09    2.90
  -1  -9  -5    0.20    0.40
  -1  -9  -5    1.20    0.60
  -1  -9  -5    0.50    0.40
   1   9   5    0.60    0.60
  -2  -9  -5   49.40    1.80
  -2  -9  -5   51.19    2.00
   2   9   5   52.69    2.00
  -3  -9  -5    0.30    0.50
  -3  -9  -5    0.00    0.50
   3   9   5    0.00    0.70
  -4  -9  -5    3.10    0.70
  -4  -9  -5    2.70    0.60
   4   9   5    2.80    0.80
  -5  -9  -5   17.40    1.40
  -5  -9  -5   14.60    1.20
   5   9   5   14.90    1.40
  -6  -9  -5    1.90    0.70
  -6  -9  -5    2.00    0.80
   6   9   5    1.90    0.90
  -7  -9  -5   -0.20    0.80
  -7  -9  -5    0.10    0.80
   7   9   5   -1.10    0.90
  -8  -9  -5    4.70    1.00
  -8  -9  -5    3.20    0.90
   8   9   5    2.10    1.10
  -9  -9  -5    0.80    1.00
  -9  -9  -5   -0.30    1.00
   9   9   5   -1.10    1.00
  11 -10  -5    0.30    0.80
 -11  10   5    0.90    1.00
  10 -10  -5    0.10    0.70
 -10  10   5   -1.30    0.80
 -10  10   5   -1.50    0.90
   9 -10  -5   11.30    1.30
  -9  10   5    9.70    1.50
  -9  10   5   11.30    1.50
   8 -10  -5    0.00    0.60
  -8  10   5    0.30    0.80
  -8  10   5   -1.10    0.70
   7 -10  -5    2.00    0.60
  -7  10   5    1.80    0.80
  -7  10   5    1.10    0.80
   6 -10  -5   12.10    1.10
  -6  10   5   14.50    1.40
  -6  10   5   11.50    1.20
   5 -10  -5   27.70    1.30
  -5  10   5   28.70    1.70
  -5  10   5   25.60    1.50
   4 -10  -5  172.98    4.80
  -4  10   5  176.88    5.00
  -4  10   5  172.68    5.50
   3 -10  -5    6.00    0.80
  -3  10   5    5.30    0.80
  -3  10   5    6.10    1.00
   2 -10  -5  102.39    3.00
  -2  10   5  100.99    3.20
  -2  10   5  103.39    3.30
   1 -10  -5   18.70    1.00
   1 -10  -5   19.60    1.40
   1 -10  -5   19.60    1.10
  -1  10   5   18.70    1.30
   0 -10  -5   12.30    0.80
   0 -10  -5   10.80    0.90
   0 -10  -5   10.70    1.20
   0  10   5    9.30    1.20
  -1 -10  -5  239.88    6.30
  -1 -10  -5  233.68    6.50
   1  10   5  231.88    6.70
  -2 -10  -5    0.40    0.50
  -2 -10  -5    1.00    0.70
   2  10   5   -0.40    0.80
  -3 -10  -5    0.40    0.70
  -3 -10  -5    0.20    0.60
   3  10   5    0.60    1.10
  -4 -10  -5    0.50    0.60
  -4 -10  -5    0.10    0.70
   4  10   5   -0.30    0.80
  -5 -10  -5    0.60    0.70
  -5 -10  -5    0.30    1.00
   5  10   5   -0.40    0.80
  -6 -10  -5    1.40    0.90
  -6 -10  -5    2.10    0.80
   6  10   5    2.20    1.00
  -7 -10  -5   29.40    1.80
  -7 -10  -5   27.30    2.00
   7  10   5   26.70    2.10
  -8 -10  -5   38.10    2.10
  -8 -10  -5   38.10    2.30
   8  10   5   29.20    2.30
  10 -11  -5    7.40    1.00
 -10  11   5    6.90    1.10
 -10  11   5    7.50    1.20
   9 -11  -5   34.80    1.80
  -9  11   5   37.50    2.10
  -9  11   5   38.00    2.20
   8 -11  -5  175.58    5.20
  -8  11   5  177.88    5.40
  -8  11   5  181.98    5.30
   7 -11  -5   94.19    3.10
  -7  11   5   91.49    3.30
  -7  11   5   94.99    3.20
   6 -11  -5   63.09    2.30
  -6  11   5   59.29    2.90
  -6  11   5   63.99    2.50
   5 -11  -5    0.80    0.60
  -5  11   5   -0.70    0.70
  -5  11   5    0.20    0.80
   4 -11  -5   30.60    1.40
  -4  11   5   29.70    1.80
  -4  11   5   28.80    1.60
   3 -11  -5   16.30    1.10
  -3  11   5   13.30    1.30
  -3  11   5   15.10    1.50
   2 -11  -5  109.09    3.20
  -2  11   5  110.39    3.80
  -2  11   5  113.79    3.60
   1 -11  -5   20.10    1.10
  -1  11   5   17.00    1.70
   0 -11  -5  165.98    4.90
   0 -11  -5  171.78    4.60
   0  11   5  161.08    5.00
  -1 -11  -5    0.80    0.80
  -1 -11  -5    1.20    0.60
  -2 -11  -5   36.90    1.90
  -2 -11  -5   34.90    1.50
   2  11   5   32.70    1.90
  -3 -11  -5   26.10    1.40
  -3 -11  -5   27.70    1.80
   3  11   5   23.30    1.90
  -4 -11  -5   32.60    2.10
  -4 -11  -5   33.70    1.70
   4  11   5   28.80    1.90
  -5 -11  -5   49.80    2.40
  -5 -11  -5   48.20    2.10
   5  11   5   47.10    2.40
  -6 -11  -5    6.50    1.10
  -6 -11  -5    5.10    1.00
   6  11   5    3.30    1.20
  -7 -11  -5    1.80    1.00
  -7 -11  -5    2.40    1.00
   9 -12  -5   48.70    2.20
  -9  12   5   47.40    2.50
  -9  12   5   48.60    2.40
   8 -12  -5    0.20    0.70
  -8  12   5    1.30    0.90
  -8  12   5   -0.50    0.90
   7 -12  -5   52.29    2.10
  -7  12   5   53.59    2.40
  -7  12   5   48.60    2.40
   6 -12  -5   28.30    1.50
  -6  12   5   29.70    1.90
  -6  12   5   31.20    1.90
   5 -12  -5   23.60    1.70
  -5  12   5   24.70    1.80
  -5  12   5   24.30    1.70
   4 -12  -5  267.67    7.40
  -4  12   5  282.17    7.70
  -4  12   5  274.67    7.80
   3 -12  -5  212.38    5.70
  -3  12   5  189.38    6.60
  -3  12   5  217.48    6.10
   2 -12  -5   48.20    1.80
  -1  12   5   32.80    2.70
   0  12   5  308.67    8.90
  -1 -12  -5    2.50    1.00
   1  12   5    0.40    0.90
  -2 -12  -5   84.39    3.10
  -2 -12  -5   81.09    2.70
   2  12   5   82.29    3.10
  -3 -12  -5    1.90    1.00
   3  12   5    1.80    1.00
  -4 -12  -5   73.39    3.00
  -4 -12  -5   71.39    2.60
   4  12   5   71.79    3.00
  -5 -12  -5    8.70    1.30
  -5 -12  -5    9.60    1.40
   5  12   5    6.50    1.30
  -6 -12  -5    2.40    1.10
  -6 -12  -5    4.30    1.10
   6  12   5    2.40    1.20
   8 -13  -5   12.20    1.50
  -8  13   5   13.40    1.90
  -8  13   5    7.80    1.30
   7 -13  -5   11.30    1.30
  -7  13   5    8.30    1.30
  -7  13   5    8.70    1.20
  -6  13   5    5.80    1.10
  -6  13   5    7.00    1.10
   5 -13  -5   11.80    1.30
  -5  13   5   11.90    1.80
  -5  13   5   11.00    1.60
   4 -13  -5   32.00    1.60
  -4  13   5   27.90    2.20
  -4  13   5   31.10    1.90
   3 -13  -5   81.59    3.00
  -3  13   5   76.49    3.00
  -3  13   5   82.69    3.50
  -2  13   5    4.60    1.00
  -1  13   5   55.79    2.40
   0  13   5    5.10    1.00
   1  13   5   62.19    2.70
   2  13   5   71.99    3.00
  -3 -13  -5   54.29    2.80
  -3 -13  -5   48.80    2.20
   3  13   5   52.99    2.60
  -4 -13  -5    2.90    1.20
  -4 -13  -5    3.80    1.00
   4  13   5    3.80    1.20
  -5 -13  -5    1.20    0.90
  -5 -13  -5   -0.40    1.20
   5  13   5   -1.40    1.40
   7 -14  -5    0.40    0.90
  -7  14   5    0.90    1.30
  -7  14   5   -0.40    1.20
   6 -14  -5    3.30    0.90
  -6  14   5    3.90    1.20
   5 -14  -5   -0.70    0.80
  -5  14   5    1.00    1.10
  -5  14   5   -0.80    1.00
   4 -14  -5   -0.20    0.70
  -4  14   5   -0.60    1.20
  -4  14   5   -0.30    1.00
  -3  14   5   13.50    1.60
  -2  14   5    0.30    0.90
  -1  14   5    0.20    1.00
   0  14   5    0.60    0.90
   1  14   5   48.00    2.50
   2  14   5    1.00    1.20
   3  14   5   -0.20    1.20
  -4  15   5   -1.70    1.30
  -3  15   5    1.70    1.20
  -2  15   5    0.20    1.10
  -1  15   5   -2.00    1.00
   0  15   5    7.10    1.60
  -3 -16   6    1.90    1.10
   0  16  -6   25.20    2.80
  -1  16  -6   33.20    2.50
  -2  16  -6    6.20    1.40
   3 -16   6   10.80    1.50
  -4  16  -6   54.79    2.60
   4 -16   6   46.50    2.30
   5 -16   6    7.80    1.10
   5  15  -6   17.60    2.20
  -5 -15   6   21.50    1.80
   4  15  -6    2.90    1.30
  -4 -15   6    6.40    1.00
  -3 -15   6   -0.50    0.90
  -2 -15   6    0.70    0.80
   1  15  -6   36.20    2.10
   1  15  -6   42.50    2.40
  -1 -15   6   37.10    1.90
   0  15  -6   51.89    2.50
   0  15  -6   59.99    2.70
  -1  15  -6    1.00    1.10
  -1  15  -6    0.20    0.90
  -2  15  -6   28.10    2.30
  -2  15  -6   38.30    2.20
   2 -15   6   29.50    1.60
  -3  15  -6   41.40    2.30
   3 -15   6   38.20    1.90
  -4  15  -6    3.40    1.00
   4 -15   6    1.90    0.80
  -5  15  -6   11.70    1.80
   5 -15   6   10.80    1.40
  -6  15  -6   44.50    2.10
   6 -15   6   40.20    2.10
   7 -15   6    9.40    1.30
   6  14  -6    3.60    1.30
  -6 -14   6    4.30    1.00
   5  14  -6   -1.30    1.10
  -5 -14   6    0.60    0.90
   4  14  -6    6.90    1.20
  -4 -14   6    8.20    1.40
   3  14  -6    3.60    1.10
  -3 -14   6    6.70    0.90
   2  14  -6   16.80    1.90
   2  14  -6   18.80    1.80
  -2 -14   6   18.30    1.40
   0  14  -6    5.30    1.00
   0  14  -6    5.40    1.00
   0 -14   6    5.20    0.80
   0 -14   6    4.20    0.80
  -1  14  -6   -0.60    0.80
   1 -14   6   -0.90    0.60
  -2  14  -6    7.00    1.00
  -2  14  -6    8.00    1.10
   2 -14   6   10.30    1.10
  -3  14  -6    4.30    0.90
  -3  14  -6    4.20    0.90
   3 -14   6    4.90    0.80
  -4  14  -6   94.29    3.20
  -4  14  -6   95.39    3.20
   4 -14   6   95.79    3.10
  -5  14  -6    9.90    1.50
  -5  14  -6   11.40    1.60
   5 -14   6   12.70    1.30
  -6  14  -6    2.30    0.80
   6 -14   6    1.90    0.80
   7 -14   6   10.60    1.50
   8 -14   6    3.40    1.00
   7  13  -6   -1.60    1.10
  -7 -13   6    1.20    0.90
   6  13  -6    3.70    1.10
  -6 -13   6    4.40    1.00
   5  13  -6    4.30    1.10
  -5 -13   6    4.40    0.90
   4  13  -6   -0.40    0.90
  -4 -13   6    0.70    0.70
   3  13  -6    8.10    1.40
  -3 -13   6    9.50    1.10
   2  13  -6    0.20    0.90
   2  13  -6    0.50    0.80
  -2 -13   6    1.00    0.70
   1  13  -6    0.50    0.80
   1  13  -6    0.30    0.70
  -1 -13   6    0.10    0.60
  -1 -13   6   -0.30    0.60
   0  13  -6    7.80    1.20
   0  13  -6    7.30    0.90
   0 -13   6   10.60    1.00
   0 -13   6   10.60    1.00
  -1  13  -6   21.30    1.40
  -1  13  -6   20.40    1.50
   1 -13   6   21.20    1.20
   1 -13   6   22.10    1.20
  -2  13  -6   54.59    2.20
  -2  13  -6   51.49    2.10
   2 -13   6   51.19    1.90
  -3  13  -6   26.80    1.50
  -3  13  -6   24.70    1.70
   3 -13   6   26.20    1.40
  -4  13  -6    1.30    0.70
   4 -13   6    0.30    0.60
  -5  13  -6    1.30    0.80
  -5  13  -6    1.90    0.70
   5 -13   6    1.80    0.70
  -6  13  -6    1.90    0.80
  -6  13  -6    1.50    0.70
   6 -13   6    1.50    0.70
  -7  13  -6   11.40    1.80
   7 -13   6   10.90    1.30
   8 -13   6    2.00    0.80
   9 -13   6    5.90    1.00
   8  12  -6    4.10    1.20
  -8 -12   6    7.00    1.20
  -8 -12   6    6.10    1.40
   7  12  -6   -0.70    1.00
  -7 -12   6    0.20    1.20
  -7 -12   6    1.70    0.90
   6  12  -6   36.60    2.00
  -6 -12   6   36.20    1.80
   5  12  -6    5.80    1.20
  -5 -12   6    4.40    0.80
   4  12  -6   14.20    1.40
  -4 -12   6   12.10    1.20
   3  12  -6    4.90    0.90
   3  12  -6    4.60    1.00
  -3 -12   6    4.90    0.70
   2  12  -6   28.20    1.80
   2  12  -6   26.70    1.50
  -2 -12   6   27.40    1.40
   1  12  -6    1.90    0.70
   1  12  -6    2.90    0.80
   1  12  -6    2.90    0.60
  -1 -12   6    2.30    0.60
   0  12  -6    3.40    0.60
   0  12  -6    2.60    0.70
   0  12  -6    3.30    0.70
   0 -12   6    4.20    0.60
  -1  12  -6   19.60    1.10
  -1  12  -6   16.90    1.20
  -1  12  -6   17.80    1.30
   1 -12   6   17.80    1.10
  -2  12  -6   27.10    1.30
  -2  12  -6   28.10    1.60
  -2  12  -6   25.40    1.40
   2 -12   6   26.90    1.20
  -3  12  -6   11.90    1.20
  -3  12  -6   10.20    1.10
  -3  12  -6   11.70    1.10
  -4  12  -6    6.30    1.10
  -4  12  -6    5.90    0.80
   4 -12   6    5.80    0.80
  -5  12  -6   22.60    1.40
  -5  12  -6   22.50    1.40
   5 -12   6   24.10    1.40
  -6  12  -6    0.20    0.70
  -6  12  -6    0.00    0.60
   6 -12   6    0.30    0.60
  -7  12  -6    6.20    0.90
   7 -12   6    4.70    0.80
  -8  12  -6   16.30    1.60
   8 -12   6   14.00    1.40
   9 -12   6   11.70    1.40
  10 -12   6   19.30    1.80
   9  11  -6   56.59    2.70
  -9 -11   6   58.69    2.60
  -9 -11   6   60.89    3.10
   8  11  -6   28.60    2.00
  -8 -11   6   27.40    1.80
  -8 -11   6   33.20    2.40
   7  11  -6   69.59    2.80
  -7 -11   6   74.39    2.70
  -7 -11   6   70.69    3.50
   6  11  -6   14.60    1.50
  -6 -11   6   14.70    1.60
  -6 -11   6   14.20    1.90
   5  11  -6    1.00    0.80
  -5 -11   6    2.20    0.90
  -5 -11   6   -0.10    0.80
   4  11  -6    0.90    0.70
  -4 -11   6    1.40    0.60
   3  11  -6   46.20    1.80
   3  11  -6   42.30    2.10
  -3 -11   6   43.70    1.70
   2  11  -6    6.30    1.00
   2  11  -6    4.30    0.90
   2  11  -6    5.40    0.70
  -2 -11   6    5.60    0.90
   1  11  -6   36.70    1.70
   1  11  -6   36.50    1.40
   1  11  -6   32.60    1.50
  -1 -11   6   34.50    1.40
   0  11  -6  227.08    6.40
   0  11  -6  236.78    6.50
   0  11  -6  243.08    6.30
   0 -11   6  238.08    6.30
  -1  11  -6   83.79    2.50
  -1  11  -6   83.19    2.60
  -1  11  -6   82.19    2.60
   1 -11   6   82.59    2.50
  -2  11  -6   46.60    1.70
  -2  11  -6   45.00    1.80
  -2  11  -6   46.10    1.70
   2 -11   6   46.20    1.60
  -3  11  -6   51.49    1.80
  -3  11  -6   50.29    1.90
  -3  11  -6   50.79    1.90
   3 -11   6   50.49    1.70
  -4  11  -6    6.90    1.00
  -4  11  -6    6.60    1.00
  -5  11  -6    2.50    0.70
  -5  11  -6    1.40    0.60
  -6  11  -6    0.30    0.70
  -6  11  -6    0.30    0.60
   6 -11   6    0.50    0.50
  -7  11  -6    1.10    0.70
   7 -11   6    1.90    0.70
  -8  11  -6   -0.50    0.80
   8 -11   6   -0.60    0.60
  -9  11  -6    3.10    1.00
   9 -11   6    4.50    0.90
  10 -11   6    1.90    0.90
  10  10  -6   21.50    2.00
 -10 -10   6   22.90    2.40
 -10 -10   6   22.40    1.90
   9  10  -6   18.90    1.80
  -9 -10   6   21.80    2.10
  -9 -10   6   18.40    1.70
   8  10  -6    2.30    0.90
  -8 -10   6    1.00    0.80
  -8 -10   6    3.10    1.00
   7  10  -6    4.40    0.90
  -7 -10   6    3.70    1.10
  -7 -10   6    3.70    0.80
   6  10  -6   24.10    1.50
  -6 -10   6   26.00    1.50
  -6 -10   6   23.30    1.60
   5  10  -6   28.60    1.50
  -5 -10   6   28.00    1.60
  -5 -10   6   28.60    1.40
   4  10  -6   -0.80    0.50
  -4 -10   6   -0.20    0.50
  -4 -10   6   -0.30    0.60
   3  10  -6   12.20    1.00
   3  10  -6   12.40    1.40
   3  10  -6   12.30    0.90
  -3 -10   6   14.70    1.20
  -3 -10   6   12.50    1.00
   2  10  -6  160.08    4.50
   2  10  -6  161.28    4.40
   2  10  -6  156.98    4.60
  -2 -10   6  160.78    4.50
   1  10  -6    1.50    0.40
   1  10  -6    1.40    0.50
   1  10  -6    0.40    0.60
  -1 -10   6    0.80    0.50
   0  10  -6    1.50    0.60
   0  10  -6    0.90    0.40
   0  10  -6    0.30    0.80
   0 -10   6    1.40    0.50
  -1  10  -6    9.20    0.80
  -1  10  -6    7.90    0.80
  -1  10  -6    8.90    1.00
   1 -10   6    8.80    0.80
  -2  10  -6  140.49    4.00
  -2  10  -6  146.39    4.00
   2 -10   6  140.79    4.10
  -3  10  -6    0.90    0.50
  -3  10  -6    0.80    0.50
  -3  10  -6    0.10    0.40
   3 -10   6    0.10    0.40
  -4  10  -6  250.17    6.80
  -4  10  -6  257.57    6.90
  -4  10  -6  256.37    6.90
   4 -10   6  264.47    6.80
  -5  10  -6    2.70    0.60
  -5  10  -6    1.90    0.60
  -6  10  -6    9.30    1.10
  -7  10  -6   11.30    1.20
   7 -10   6    9.90    1.20
  -8  10  -6    1.00    0.80
   8 -10   6    0.90    0.60
  -9  10  -6   12.00    1.80
   9 -10   6   13.30    1.30
 -10  10  -6   35.40    2.10
  10 -10   6   37.00    1.90
  11 -10   6    6.10    1.10
  11   9  -6   27.80    2.20
 -11  -9   6   31.00    2.40
 -11  -9   6   22.80    2.00
  10   9  -6    3.20    1.10
 -10  -9   6    2.00    0.90
 -10  -9   6    0.60    1.00
   9   9  -6   39.90    2.10
  -9  -9   6   40.60    2.00
  -9  -9   6   38.10    2.10
   8   9  -6    1.50    0.90
  -8  -9   6    0.90    0.80
  -8  -9   6   -0.60    0.70
   7   9  -6    1.10    0.70
  -7  -9   6   -0.80    0.60
  -7  -9   6   -0.70    0.80
   6   9  -6    7.60    1.10
  -6  -9   6    8.70    1.20
  -6  -9   6    8.40    1.00
   5   9  -6   30.20    1.40
  -5  -9   6   29.60    1.50
  -5  -9   6   28.40    1.40
   4   9  -6   42.80    1.70
   4   9  -6   42.10    1.40
   4   9  -6   42.50    1.80
  -4  -9   6   43.20    1.60
  -4  -9   6   44.50    1.80
   3   9  -6  101.09    2.80
   3   9  -6  103.29    3.00
   3   9  -6  102.29    3.10
  -3  -9   6  100.49    3.00
  -3  -9   6  102.79    3.10
   2   9  -6   12.40    0.70
   2   9  -6   12.20    1.00
   2   9  -6   12.60    0.90
  -2  -9   6   11.70    1.00
  -2  -9   6   11.10    0.90
   1   9  -6   35.90    1.40
   1   9  -6   38.00    1.30
  -1  -9   6   37.10    1.40
   0   9  -6    0.20    0.40
   0   9  -6    0.20    0.50
   0   9  -6    0.40    0.40
   0  -9   6    0.30    0.40
  -1   9  -6   15.20    0.80
  -1   9  -6   14.50    1.00
  -1   9  -6   15.90    0.90
   1  -9   6   14.50    0.90
  -2   9  -6   24.50    1.10
  -2   9  -6   24.30    1.10
  -2   9  -6   23.80    1.10
   2  -9   6   24.90    1.00
  -3   9  -6  289.17    7.90
  -3   9  -6  300.77    7.90
  -3   9  -6  306.17    8.00
   3  -9   6  310.47    7.90
  -4   9  -6   32.60    1.30
  -4   9  -6   30.90    1.20
  -4   9  -6   33.00    1.40
   4  -9   6   32.40    1.20
  -5   9  -6   34.90    1.40
  -5   9  -6   35.20    1.30
  -5   9  -6   34.90    1.40
   5  -9   6   35.10    1.30
  -6   9  -6   42.80    1.70
  -6   9  -6   46.40    2.00
  -7   9  -6   47.80    1.90
   7  -9   6   50.39    2.00
  -8   9  -6    4.00    0.80
   8  -9   6    5.60    0.80
  -9   9  -6   51.79    2.20
   9  -9   6   54.59    2.10
 -10   9  -6    9.90    1.50
  10  -9   6   10.60    1.30
 -11   9  -6    6.20    1.20
  11  -9   6    6.40    1.00
  11   8  -6   12.40    1.90
 -11  -8   6    8.50    1.20
 -11  -8   6   11.60    1.90
  10   8  -6   26.50    1.90
 -10  -8   6   24.10    1.70
 -10  -8   6   23.80    1.90
   9   8  -6   42.60    2.50
  -9  -8   6   43.30    2.00
  -9  -8   6   40.70    3.30
   8   8  -6    0.20    0.70
  -8  -8   6    0.50    0.60
  -8  -8   6    2.40    0.80
   7   8  -6   18.10    1.30
  -7  -8   6   19.30    1.40
  -7  -8   6   18.00    1.40
   6   8  -6    1.80    0.60
  -6  -8   6    1.60    0.70
  -6  -8   6    1.40    0.50
   5   8  -6  198.28    5.60
   5   8  -6  209.68    5.80
   5   8  -6  204.78    5.80
  -5  -8   6  202.78    5.60
  -5  -8   6  203.78    5.70
   4   8  -6  542.35   14.10
   4   8  -6  542.65   14.10
   4   8  -6  549.65   13.90
  -4  -8   6  538.75   14.10
  -4  -8   6  546.55   14.10
   3   8  -6   14.90    1.00
   3   8  -6   14.00    0.90
   3   8  -6   14.00    1.10
   3   8  -6   14.40    0.70
  -3  -8   6   12.40    1.00
  -3  -8   6   15.00    0.90
   2   8  -6   70.99    2.10
   2   8  -6   70.19    2.00
   2   8  -6   66.79    2.20
   2   8  -6   68.29    2.20
  -2  -8   6   65.39    2.20
  -2  -8   6   67.79    2.10
   1   8  -6   25.80    1.00
   1   8  -6   23.00    1.20
   1   8  -6   25.70    1.00
  -1  -8   6   25.40    1.10
   0   8  -6   54.49    1.70
   0   8  -6   54.89    1.80
   0   8  -6   54.59    1.70
   0  -8   6   53.99    1.90
   0  -8   6   56.09    1.70
  -1   8  -6   73.29    2.10
  -1   8  -6   67.69    2.20
   1  -8   6   71.49    2.10
  -2   8  -6    0.10    0.30
  -2   8  -6   -0.50    0.30
  -2   8  -6    0.10    0.30
   2  -8   6    0.40    0.30
  -3   8  -6    0.90    0.40
  -3   8  -6    1.20    0.40
  -3   8  -6    0.00    0.40
   3  -8   6    1.00    0.40
  -4   8  -6   16.80    0.80
  -4   8  -6   18.60    0.90
  -4   8  -6   17.30    0.90
  -4   8  -6   13.00    0.90
   4  -8   6   15.10    0.80
  -5   8  -6   68.69    2.30
  -5   8  -6   67.19    2.20
   5  -8   6   70.79    2.10
  -6   8  -6  366.36    9.70
  -6   8  -6  362.36    9.60
   6  -8   6  368.36    9.50
  -7   8  -6    2.60    0.60
  -7   8  -6    4.20    0.70
  -8   8  -6  158.18    4.60
   8  -8   6  162.48    4.60
  -9   8  -6    3.90    0.80
   9  -8   6    2.60    0.70
 -10   8  -6    4.50    1.70
  10  -8   6    5.40    0.80
 -11   8  -6    8.70    1.20
  11  -8   6   11.40    1.40
 -12   8  -6   29.80    2.90
  12  -8   6   30.30    1.90
  12   7  -6   29.10    2.30
 -12  -7   6   26.30    2.00
 -12  -7   6   24.50    2.20
  11   7  -6    0.60    1.00
 -11  -7   6    0.00    0.90
 -11  -7   6    1.90    0.90
  10   7  -6    2.20    0.90
 -10  -7   6    2.10    0.80
 -10  -7   6    2.30    0.80
   9   7  -6    2.20    0.80
  -9  -7   6    1.80    0.70
  -9  -7   6    2.10    0.70
   8   7  -6    2.90    0.70
  -8  -7   6    2.50    0.70
  -8  -7   6    2.40    0.70
   7   7  -6   -0.20    0.50
  -7  -7   6    0.00    0.60
  -7  -7   6    0.10    0.50
   6   7  -6   11.30    0.90
  -6  -7   6   12.60    0.90
  -6  -7   6   11.80    1.10
   5   7  -6    0.50    0.60
   5   7  -6   -0.20    0.30
  -5  -7   6    0.60    0.50
  -5  -7   6    0.20    0.50
   4   7  -6    0.50    0.30
   4   7  -6    0.20    0.40
   4   7  -6    0.90    0.50
  -4  -7   6    1.10    0.50
  -4  -7   6    0.20    0.40
   3   7  -6    2.00    0.50
   3   7  -6    2.00    0.40
   3   7  -6    2.50    0.30
  -3  -7   6    2.20    0.40
  -3  -7   6    2.10    0.40
   2   7  -6   54.49    1.70
   2   7  -6   55.79    1.60
   2   7  -6   55.59    1.80
  -2  -7   6   52.89    1.80
  -2  -7   6   55.29    1.70
   1   7  -6   22.20    0.90
   1   7  -6   21.70    1.00
   1   7  -6   23.10    0.90
  -1  -7   6   22.80    0.90
  -1  -7   6   22.90    1.10
   0   7  -6   95.59    2.80
   0   7  -6   95.99    2.70
   0   7  -6   99.09    2.70
   0   7  -6   95.39    2.70
   0  -7   6   95.29    2.80
   0  -7   6   99.49    2.70
  -1   7  -6   50.69    1.60
  -1   7  -6   53.69    1.60
  -1   7  -6   50.99    1.60
   1  -7   6   52.39    1.60
   1  -7   6   52.69    1.70
  -2   7  -6   47.70    1.50
  -2   7  -6   46.90    1.50
  -2   7  -6   47.40    1.50
  -2   7  -6   48.10    1.50
   2  -7   6   49.00    1.50
  -3   7  -6   12.70    0.70
  -3   7  -6   11.70    0.80
  -3   7  -6   13.60    0.70
  -3   7  -6   14.80    0.70
   3  -7   6   14.00    0.70
  -4   7  -6    9.40    0.60
  -4   7  -6    9.60    0.70
  -4   7  -6    9.20    0.60
   4  -7   6    8.80    0.70
  -5   7  -6   37.10    1.30
  -5   7  -6   34.50    1.40
   5  -7   6   35.70    1.20
  -6   7  -6   59.79    2.00
  -6   7  -6   59.19    2.00
   6  -7   6   58.99    1.80
  -7   7  -6  111.09    3.30
  -7   7  -6  110.39    3.30
   7  -7   6  110.29    3.10
  -8   7  -6  181.58    5.20
   8  -7   6  189.38    5.20
  -9   7  -6   35.30    1.70
   9  -7   6   35.80    1.60
 -10   7  -6   30.30    1.80
  10  -7   6   32.50    1.90
 -11   7  -6   15.70    1.70
  11  -7   6   19.10    1.50
 -12   7  -6   14.40    1.80
  12   6  -6    1.30    1.20
 -12  -6   6   -1.60    0.90
 -12  -6   6   -0.90    0.90
  11   6  -6    2.70    1.00
 -11  -6   6    2.70    0.90
 -11  -6   6    2.80    0.90
  10   6  -6   10.30    1.80
 -10  -6   6   13.20    1.80
 -10  -6   6    9.50    1.40
   9   6  -6   10.50    1.20
  -9  -6   6    9.40    1.10
  -9  -6   6    9.70    1.30
   8   6  -6    2.20    0.60
  -8  -6   6    2.20    0.70
  -8  -6   6    1.30    0.60
   7   6  -6    0.00    0.50
  -7  -6   6    0.70    0.50
  -7  -6   6    0.70    0.60
   6   6  -6    7.70    0.80
   6   6  -6    7.30    0.60
  -6  -6   6    7.50    0.80
  -6  -6   6    7.60    0.90
   5   6  -6   33.20    1.40
   5   6  -6   32.60    1.30
   5   6  -6   34.90    1.10
  -5  -6   6   33.30    1.30
  -5  -6   6   31.60    1.40
   4   6  -6   25.00    0.90
   4   6  -6   23.10    1.00
   4   6  -6   22.50    1.10
  -4  -6   6   23.00    1.10
   3   6  -6  108.09    3.10
   3   6  -6  106.69    3.00
   3   6  -6  109.29    2.90
  -3  -6   6  107.69    3.10
  -3  -6   6  106.99    3.00
   2   6  -6   72.29    2.20
   2   6  -6   71.19    2.10
   2   6  -6   74.79    2.00
  -2  -6   6   69.79    2.20
  -2  -6   6   73.89    2.10
   1   6  -6    1.30    0.30
   1   6  -6    1.40    0.30
   1   6  -6    1.00    0.30
  -1  -6   6    1.00    0.30
  -1  -6   6    1.40    0.40
   0   6  -6   81.39    2.30
   0   6  -6   80.59    2.20
   0   6  -6   75.59    2.30
   0   6  -6   83.99    2.30
   0  -6   6   82.59    2.30
   0  -6   6   83.19    2.30
  -1   6  -6  170.48    4.50
  -1   6  -6  171.98    4.50
  -1   6  -6  166.38    4.50
  -1   6  -6  171.98    4.50
   1  -6   6  165.88    4.50
   1  -6   6  177.48    4.60
  -2   6  -6    2.90    0.50
  -2   6  -6    2.10    0.30
  -2   6  -6    2.20    0.40
  -2   6  -6    2.40    0.30
   2  -6   6    3.70    0.50
  -3   6  -6   85.19    2.40
  -3   6  -6   84.29    2.40
  -3   6  -6   86.99    2.50
  -3   6  -6   83.59    2.40
   3  -6   6   90.09    2.40
  -4   6  -6   17.50    0.80
  -4   6  -6   17.40    0.90
   4  -6   6   17.40    0.80
  -5   6  -6   12.00    0.80
  -5   6  -6   13.40    0.80
   5  -6   6   13.00    0.70
  -6   6  -6   39.30    1.40
  -6   6  -6   38.10    1.40
   6  -6   6   36.60    1.30
  -7   6  -6   10.50    0.90
  -7   6  -6   10.90    0.90
   7  -6   6   10.90    0.80
  -8   6  -6   13.00    1.00
   8  -6   6   12.00    0.90
   8  -6   6   12.10    0.90
  -9   6  -6    3.30    0.70
   9  -6   6    2.20    0.60
 -10   6  -6    9.80    1.40
  10  -6   6    9.30    1.10
 -11   6  -6    5.50    1.00
  11  -6   6    4.40    0.80
 -12   6  -6   51.09    2.40
  13   5  -6   16.00    2.50
  12   5  -6    4.90    1.20
 -12  -5   6    3.60    1.00
 -12  -5   6    2.70    1.00
  11   5  -6    0.10    1.00
 -11  -5   6    0.00    0.80
 -11  -5   6    1.10    0.80
  10   5  -6   37.30    1.90
 -10  -5   6   38.10    1.90
 -10  -5   6   35.10    1.70
   9   5  -6   54.09    2.10
  -9  -5   6   54.59    2.00
  -9  -5   6   55.29    2.10
   8   5  -6   60.29    2.20
  -8  -5   6   64.89    2.10
  -8  -5   6   60.49    2.20
   7   5  -6    8.90    0.80
   7   5  -6    8.50    0.60
  -7  -5   6    7.30    0.90
  -7  -5   6    9.10    0.80
   6   5  -6   74.69    2.10
  -6  -5   6   71.69    2.30
   5   5  -6   30.70    1.20
   5   5  -6   32.40    1.00
   5   5  -6   29.00    1.30
  -5  -5   6   30.80    1.20
  -5  -5   6   29.40    1.30
   4   5  -6    0.00    0.20
   4   5  -6    0.10    0.30
  -4  -5   6    0.00    0.30
   3   5  -6  261.77    6.70
   3   5  -6  266.17    6.90
   3   5  -6  255.87    6.80
  -3  -5   6  260.27    6.90
  -3  -5   6  259.17    6.80
   2   5  -6    8.90    0.50
   2   5  -6    8.30    0.60
   2   5  -6    8.30    0.50
  -2  -5   6    8.60    0.60
  -2  -5   6    8.70    0.60
   1   5  -6    0.00    0.20
   1   5  -6    0.30    0.20
   1   5  -6    0.30    0.30
  -1  -5   6    0.40    0.30
  -1  -5   6    0.30    0.30
   0   5  -6  251.27    6.70
   0   5  -6  260.77    6.70
   0   5  -6  255.47    6.70
   0  -5   6  256.57    6.70
   0  -5   6  264.87    6.70
  -1   5  -6  243.38    6.30
  -1   5  -6  245.58    6.30
  -1   5  -6  235.48    6.20
  -1   5  -6  244.78    6.30
   1  -5   6  240.88    6.30
   1  -5   6  249.38    6.30
  -2   5  -6   11.30    0.60
  -2   5  -6    9.50    0.50
  -2   5  -6   10.10    0.50
  -2   5  -6    9.60    0.50
   2  -5   6   10.50    0.60
  -3   5  -6   44.20    1.30
  -3   5  -6   42.60    1.30
  -3   5  -6   41.70    1.40
  -3   5  -6   42.10    1.30
   3  -5   6   43.50    1.30
  -4   5  -6  165.98    4.50
  -4   5  -6  169.98    4.50
   4  -5   6  169.48    4.50
  -5   5  -6   23.70    0.90
  -5   5  -6   21.90    1.00
   5  -5   6   23.00    0.90
  -6   5  -6   37.20    1.40
  -6   5  -6   37.80    1.40
   6  -5   6   37.70    1.30
  -7   5  -6    5.10    0.70
  -7   5  -6    6.60    0.70
  -8   5  -6    1.00    0.50
   8  -5   6    0.90    0.40
  -9   5  -6   -0.10    0.60
   9  -5   6    0.00    0.50
   9  -5   6    0.70    0.50
 -10   5  -6    0.90    0.70
  10  -5   6   -0.30    0.60
 -11   5  -6    1.40    0.90
  11  -5   6    2.80    1.00
  12  -5   6    0.80    1.00
  13   4  -6   13.70    2.20
 -13  -4   6   12.80    1.90
  12   4  -6   43.30    2.30
 -12  -4   6   37.30    2.00
 -12  -4   6   46.80    2.20
  11   4  -6   65.49    2.70
 -11  -4   6   65.39    2.40
 -11  -4   6   66.59    2.50
  10   4  -6   80.39    2.90
 -10  -4   6   88.09    3.40
 -10  -4   6   83.69    2.80
   9   4  -6   51.29    2.00
  -9  -4   6   52.39    2.00
  -9  -4   6   49.50    1.90
   8   4  -6   26.80    1.30
   8   4  -6   25.90    1.40
  -8  -4   6   25.10    1.30
  -8  -4   6   22.50    1.20
   7   4  -6  538.85   14.30
   7   4  -6  550.34   14.10
  -7  -4   6  560.14   14.30
  -7  -4   6  556.24   14.30
   6   4  -6  549.95   13.80
   6   4  -6  523.05   14.20
   6   4  -6  535.45   14.00
  -6  -4   6  546.05   14.00
  -6  -4   6  557.34   14.00
   5   4  -6  195.78    5.30
   5   4  -6  197.68    5.10
   5   4  -6  192.38    5.20
  -5  -4   6  196.38    5.30
  -5  -4   6  202.18    5.30
   4   4  -6  219.08    5.90
   4   4  -6  220.98    5.80
   4   4  -6  224.98    5.80
  -4  -4   6  224.08    5.90
  -4  -4   6  222.18    5.90
   3   4  -6  282.97    7.50
   3   4  -6  288.47    7.40
   3   4  -6  287.27    7.40
  -3  -4   6  289.77    7.50
  -3  -4   6  289.17    7.50
   2   4  -6    4.90    0.30
   2   4  -6    4.80    0.50
   2   4  -6    5.30    0.40
  -2  -4   6    4.10    0.60
  -2  -4   6    5.90    0.50
   1   4  -6   55.89    1.60
   1   4  -6   56.29    1.70
  -1  -4   6   57.89    1.70
  -1  -4   6   54.99    1.70
   0   4  -6  103.59    2.80
   0   4  -6  102.39    2.80
   0  -4   6  102.39    2.80
   0  -4   6  104.89    2.80
  -1   4  -6    6.90    0.50
  -1   4  -6    7.10    0.40
  -1   4  -6    6.70    0.40
   1  -4   6    7.20    0.50
  -2   4  -6   81.39    2.30
  -2   4  -6   81.39    2.20
  -3   4  -6  706.33   18.30
  -3   4  -6  725.83   18.20
   3  -4   6  723.63   18.30
  -4   4  -6  405.56   10.60
  -4   4  -6  412.76   10.50
   4  -4   6  411.16   10.50
  -5   4  -6   46.80    1.50
  -5   4  -6   50.09    1.50
   5  -4   6   50.59    1.50
  -6   4  -6  155.88    4.20
  -6   4  -6  152.88    4.30
   6  -4   6  159.78    4.20
  -7   4  -6   52.99    1.70
  -7   4  -6   54.69    1.80
  -7   4  -6   53.49    1.80
  -8   4  -6    0.40    0.40
  -8   4  -6   -0.20    0.50
  -9   4  -6   29.00    1.50
  -9   4  -6   29.00    1.30
   9  -4   6   29.60    1.30
 -10   4  -6    5.50    0.80
  10  -4   6    5.50    0.70
  11  -4   6   -0.40    0.70
  12  -4   6    4.60    1.10
  13   3  -6   18.80    2.10
 -13  -3   6   24.50    2.00
  12   3  -6   36.50    2.10
 -12  -3   6   39.70    2.70
 -12  -3   6   38.60    2.10
  11   3  -6   22.30    2.60
 -11  -3   6   25.50    1.50
 -11  -3   6   28.20    1.60
  10   3  -6   81.39    2.80
 -10  -3   6   81.39    2.60
 -10  -3   6   81.29    2.70
   9   3  -6    8.10    1.00
  -9  -3   6    7.60    0.90
  -9  -3   6    9.00    1.00
   8   3  -6  547.65   14.40
   8   3  -6  562.64   14.20
  -8  -3   6  550.04   14.40
  -8  -3   6  557.04   14.30
   7   3  -6   45.50    1.50
   7   3  -6   46.60    1.70
  -7  -3   6   47.10    1.70
  -7  -3   6   48.60    1.60
   6   3  -6  170.28    4.50
   6   3  -6  168.78    4.70
  -6  -3   6  172.08    4.70
  -6  -3   6  170.58    4.60
   5   3  -6   32.20    1.20
   5   3  -6   30.90    1.00
  -5  -3   6   31.10    1.20
  -5  -3   6   29.70    1.10
   4   3  -6   93.79    2.60
   4   3  -6   96.39    2.60
   4   3  -6   98.59    2.70
  -4  -3   6   95.69    2.70
  -4  -3   6   97.99    2.70
   3   3  -6 1019.00   25.90
   3   3  -6 1006.40   26.00
   3   3  -6 1027.80   25.90
  -3  -3   6 1029.80   26.00
  -3  -3   6 1036.70   26.00
   2   3  -6    0.20    0.20
   2   3  -6    0.20    0.20
   2   3  -6    0.10    0.20
  -2  -3   6    0.50    0.30
  -2  -3   6    0.30    0.20
   1   3  -6  676.53   17.20
   1   3  -6  610.54   17.30
   1   3  -6  693.63   17.20
  -1  -3   6  683.03   17.20
  -1  -3   6  717.83   17.20
   0   3  -6  860.51   22.40
   0   3  -6  890.01   22.40
   0  -3   6  865.51   22.40
   0  -3   6  917.01   22.40
  -1   3  -6  132.29    3.50
  -1   3  -6  133.19    3.50
  -1   3  -6  132.39    3.50
   1  -3   6  132.59    3.50
  -2   3  -6    4.00    0.30
  -2   3  -6    2.40    0.40
   2  -3   6    3.40    0.40
  -3   3  -6    7.40    0.50
  -3   3  -6    9.00    0.40
   3  -3   6    7.30    0.50
  -4   3  -6   85.89    2.40
  -4   3  -6   85.59    2.30
  -4   3  -6   82.29    2.40
  -5   3  -6    5.20    0.60
  -5   3  -6    6.60    0.60
  -5   3  -6    6.80    0.60
  -6   3  -6    0.60    0.30
  -6   3  -6    0.30    0.40
  -6   3  -6    0.30    0.40
  -7   3  -6    0.50    0.40
  -7   3  -6   -0.10    0.40
  -7   3  -6   -0.40    0.40
  -8   3  -6   43.50    1.70
  -8   3  -6   45.80    1.60
  -9   3  -6   60.29    2.00
  -9   3  -6   60.69    2.20
   9  -3   6   59.49    1.90
 -10   3  -6    0.70    0.70
  10  -3   6    0.10    0.60
  11  -3   6    4.40    0.90
  12  -3   6   36.60    2.20
  13   2  -6   15.00    1.90
 -13  -2   6   14.60    1.80
  12   2  -6    1.70    1.00
 -12  -2   6    1.30    0.80
  11   2  -6   36.80    2.00
 -11  -2   6   40.50    1.70
  10   2  -6    0.80    0.70
 -10  -2   6    2.00    0.60
 -10  -2   6    2.00    0.60
  -9  -2   6   63.29    2.20
  -9  -2   6   62.29    2.20
  -9  -2   6   63.89    2.10
   8   2  -6   12.20    0.80
  -8  -2   6   12.50    0.80
  -8  -2   6   13.20    1.00
  -8  -2   6   11.40    0.90
   7   2  -6   57.89    1.80
  -7  -2   6   57.59    1.90
  -7  -2   6   59.79    1.80
  -7  -2   6   58.29    2.00
   6   2  -6   34.60    1.20
   6   2  -6   36.10    1.40
  -6  -2   6   35.20    1.30
  -6  -2   6   36.80    1.40
  -6  -2   6   36.20    1.20
   5   2  -6   20.50    1.00
   5   2  -6   20.80    0.80
  -5  -2   6   20.60    0.80
  -5  -2   6   21.10    0.90
  -5  -2   6   22.20    0.90
   4   2  -6    0.20    0.20
   4   2  -6    0.60    0.30
  -4  -2   6    0.40    0.20
  -4  -2   6    0.20    0.30
  -4  -2   6    0.00    0.20
   3   2  -6  402.46   10.40
   3   2  -6  403.96   10.30
  -3  -2   6  410.26   10.30
  -3  -2   6  407.86   10.40
  -3  -2   6  393.96   10.30
   2   2  -6    7.20    0.50
   2   2  -6    7.70    0.40
  -2  -2   6    6.70    0.50
  -2  -2   6    7.90    0.30
   1   2  -6  626.44   15.40
   1   2  -6  603.94   15.40
   1   2  -6  561.24   15.40
  -1  -2   6  635.34   15.40
  -1  -2   6  597.54   15.40
   0   2  -6   73.39    2.00
   0   2  -6   76.49    2.00
   0  -2   6   72.99    2.00
   0  -2   6   73.89    2.10
  -1   2  -6  318.47    8.20
  -1   2  -6  323.77    8.20
  -1   2  -6  321.97    8.20
   1  -2   6  320.37    8.30
  -2   2  -6   37.90    1.10
  -2   2  -6   38.90    1.20
  -2   2  -6   38.40    1.10
   2  -2   6   39.00    1.20
   2  -2   6   41.10    1.10
  -3   2  -6   14.70    0.60
  -3   2  -6   14.10    0.70
  -3   2  -6   14.10    0.60
  -4   2  -6   34.00    1.10
  -4   2  -6   35.80    1.20
  -5   2  -6  444.06   11.50
  -5   2  -6  448.06   11.50
  -5   2  -6  447.76   11.50
  -6   2  -6    6.20    0.60
  -6   2  -6    5.90    0.90
  -7   2  -6   30.20    1.10
  -7   2  -6   28.00    1.20
  -7   2  -6   28.50    1.20
  -8   2  -6   30.70    1.30
   8  -2   6   31.00    1.40
   8  -2   6   31.20    1.20
  -9   2  -6    0.50    0.50
   9  -2   6    0.80    0.40
   9  -2   6   -0.30    0.50
 -10   2  -6    2.80    0.70
  10  -2   6    2.00    0.70
 -11   2  -6    1.90    0.80
  11  -2   6    1.70    0.90
  12  -2   6   19.70    1.90
  13   1  -6    8.70    1.30
  12   1  -6    4.50    1.00
 -12  -1   6    5.10    0.80
 -11  -1   6   -0.50    0.70
 -11  -1   6    0.20    0.70
  10   1  -6   23.10    1.10
 -10  -1   6   21.80    1.40
 -10  -1   6   24.50    1.20
 -10  -1   6   20.60    1.30
   9   1  -6   16.60    0.90
  -9  -1   6   16.90    0.90
  -9  -1   6   15.40    1.10
  -9  -1   6   15.70    1.10
   8   1  -6   41.70    1.70
  -8  -1   6   43.60    1.60
  -8  -1   6   46.60    1.50
  -8  -1   6   43.10    1.60
   7   1  -6    5.60    0.60
  -7  -1   6    6.00    0.60
  -7  -1   6    5.30    0.70
  -7  -1   6    6.30    0.90
   6   1  -6    1.40    0.50
   6   1  -6    1.50    0.30
  -6  -1   6    1.10    0.40
  -6  -1   6    1.30    0.30
  -6  -1   6    0.90    0.30
   5   1  -6   17.20    0.70
   5   1  -6   16.90    0.80
  -5  -1   6   15.90    0.80
  -5  -1   6   16.60    0.70
  -5  -1   6   17.20    0.70
   4   1  -6   67.59    1.90
   4   1  -6   63.19    1.90
  -4  -1   6   65.09    1.90
  -4  -1   6   66.49    1.90
  -4  -1   6   68.19    1.90
   3   1  -6  435.96   11.00
   3   1  -6  431.36   11.10
  -3  -1   6  415.86   11.10
  -3  -1   6  435.36   11.00
  -3  -1   6  441.26   11.00
   2   1  -6  226.28    5.90
   2   1  -6  221.48    5.90
  -2  -1   6  221.78    5.90
  -2  -1   6  228.68    5.90
  -2  -1   6  233.28    5.80
   1   1  -6  371.56    9.30
   1   1  -6  358.46    9.30
   1   1  -6  346.77    9.30
  -1  -1   6  374.66    9.30
  -1  -1   6  364.06    9.30
   0   1  -6 1073.89   27.20
   0   1  -6 1089.19   27.10
   0  -1   6 1041.90   27.10
   0  -1   6 1087.49   27.30
  -1   1  -6   77.39    2.10
  -1   1  -6   80.09    2.20
  -1   1  -6   79.59    2.10
  -1   1  -6   79.49    2.10
  -2   1  -6  200.68    5.40
  -2   1  -6  201.08    5.30
  -2   1  -6  203.68    5.30
   2  -1   6  219.98    5.40
  -3   1  -6  570.54   14.80
  -3   1  -6  574.84   14.80
   3  -1   6  595.14   14.80
  -4   1  -6  127.49    3.50
  -4   1  -6  127.89    3.40
   4  -1   6  130.99    3.50
  -5   1  -6  109.89    3.10
  -5   1  -6  108.69    3.00
   5  -1   6  109.39    3.00
  -6   1  -6    8.70    0.70
  -6   1  -6    8.80    0.60
  -7   1  -6    9.80    0.70
  -7   1  -6    9.70    0.80
   7  -1   6   10.90    0.80
  -8   1  -6    7.20    0.90
   8  -1   6    7.40    0.90
   8  -1   6    7.00    0.70
  -9   1  -6    4.50    0.70
   9  -1   6    5.20    0.80
 -10   1  -6    4.00    0.80
 -11   1  -6   29.60    2.40
  11  -1   6   31.40    1.90
  12  -1   6   80.89    3.20
  13   0  -6    1.00    1.00
 -13   0   6    1.70    0.80
 -12   0   6   42.10    1.80
 -12   0   6   39.80    2.10
  11   0  -6   -0.90    0.90
 -11   0   6    0.10    0.60
 -11   0   6   -0.10    0.70
  10   0  -6    8.70    0.90
 -10   0   6    9.90    1.40
 -10   0   6    9.00    1.30
 -10   0   6    8.60    1.10
   9   0  -6   47.10    1.60
  -9   0   6   47.00    1.80
  -9   0   6   44.60    1.70
  -9   0   6   46.70    1.90
   8   0  -6   52.19    1.70
  -8   0   6   51.39    1.80
  -8   0   6   52.09    1.90
  -8   0   6   54.59    1.70
   7   0  -6    2.80    0.40
  -7   0   6    2.80    0.40
  -7   0   6    2.10    0.50
  -7   0   6    2.40    0.50
   6   0  -6   17.10    0.80
   6   0  -6   16.50    0.90
  -6   0   6   16.70    0.80
  -6   0   6   18.30    0.70
  -6   0   6   15.90    0.90
   5   0  -6   28.00    1.00
   5   0  -6   29.30    1.10
  -5   0   6   29.40    1.00
  -5   0   6   28.20    1.00
  -5   0   6   27.40    1.10
   4   0  -6    6.10    0.50
  -4   0   6    7.40    0.60
  -4   0   6    6.20    0.40
  -4   0   6    6.10    0.50
   3   0  -6   55.29    1.60
   3   0  -6   55.69    1.60
  -3   0   6   55.39    1.50
  -3   0   6   53.19    1.60
  -3   0   6   53.19    1.50
   2   0  -6  923.51   23.20
   2   0  -6  932.51   23.20
  -2   0   6  842.42   23.30
  -2   0   6  892.51   23.20
  -2   0   6  985.90   23.10
   1   0  -6  259.27    6.90
   1   0  -6  268.37    6.90
  -1   0   6  270.17    6.90
  -1   0   6  266.57    6.90
  -1   0   6  280.07    6.90
   0   0  -6 1365.86   34.60
   0   0  -6 1366.96   34.80
   0   0   6 1365.86   34.90
   0   0   6 1414.26   34.70
   0   0   6 1340.87   34.60
  -1   0  -6  232.88    6.00
  -1   0  -6  231.68    6.00
  -1   0  -6  235.48    6.00
  -1   0  -6  230.88    6.00
   1   0   6  221.48    6.00
   1   0   6  239.88    6.00
  -2   0  -6    7.90    0.40
  -2   0  -6    7.50    0.50
  -2   0  -6    7.50    0.40
  -2   0  -6    7.40    0.40
   2   0   6    8.80    0.40
  -3   0  -6    2.30    0.40
  -3   0  -6    1.50    0.20
  -3   0  -6    1.00    0.30
  -3   0  -6    1.50    0.20
   3   0   6    1.70    0.30
  -4   0  -6  241.18    6.20
  -4   0  -6  231.48    6.30
   4   0   6  246.28    6.30
  -5   0  -6    5.70    0.60
  -5   0  -6    3.80    0.40
   5   0   6    4.80    0.60
  -6   0  -6   40.40    1.40
  -6   0  -6   40.50    1.30
   6   0   6   40.70    1.50
  -7   0  -6   20.00    0.80
  -7   0  -6   20.50    1.10
   7   0   6   19.50    1.10
  -8   0  -6   10.70    1.00
   8   0   6   10.10    1.00
  -9   0  -6  237.08    6.50
   9   0   6  234.48    6.60
 -10   0  -6  135.99    4.00
  10   0   6  128.09    4.10
 -11   0  -6   33.20    1.80
  11   0   6   30.60    2.00
 -12   0  -6   13.40    1.70
  12   0   6   13.30    2.00
 -13   1   6    5.40    1.10
 -12   1   6    0.90    0.80
 -12   1   6    0.10    0.60
  11  -1  -6   11.10    1.00
 -11   1   6    8.60    1.10
 -11   1   6    9.60    1.30
  10  -1  -6   99.49    2.90
 -10   1   6   97.19    3.20
   9  -1  -6   20.10    1.00
  -9   1   6   19.10    1.20
  -9   1   6   17.80    1.20
  -9   1   6   21.90    1.10
   8  -1  -6    1.30    0.40
  -8   1   6    1.70    0.50
  -8   1   6    1.80    0.40
  -8   1   6    1.80    0.50
  -7   1   6    7.60    0.60
  -7   1   6    7.80    0.70
  -7   1   6    7.10    0.80
   6  -1  -6   37.40    1.40
   6  -1  -6   36.60    1.30
  -6   1   6   38.40    1.20
  -6   1   6   39.00    1.30
  -6   1   6   35.50    1.40
   5  -1  -6  507.45   13.10
   5  -1  -6  505.65   13.10
  -5   1   6  502.15   13.10
  -5   1   6  518.35   13.10
  -5   1   6  520.55   13.00
   4  -1  -6   53.69    1.60
  -4   1   6   56.39    1.70
  -4   1   6   57.49    1.60
  -4   1   6   56.49    1.70
   3  -1  -6   10.00    0.60
   3  -1  -6   10.30    0.50
  -3   1   6   10.40    0.60
  -3   1   6   10.50    0.50
  -3   1   6    9.90    0.50
   2  -1  -6   80.79    2.20
   2  -1  -6   80.79    2.30
  -2   1   6   77.39    2.20
  -2   1   6   78.59    2.30
  -2   1   6   82.99    2.20
   1  -1  -6  411.66   10.70
   1  -1  -6  420.66   10.70
  -1   1   6  418.16   10.70
  -1   1   6  441.56   10.70
  -1   1   6  402.86   10.70
   0  -1  -6 1208.68   31.40
   0  -1  -6 1250.17   31.30
   0  -1  -6 1219.08   31.40
   0  -1  -6 1236.28   31.40
   0   1   6 1301.17   31.50
   0   1   6 1226.38   31.40
  -1  -1  -6  230.98    6.10
  -1  -1  -6  237.08    6.00
  -1  -1  -6  234.18    6.10
  -1  -1  -6  227.18    6.10
   1   1   6  226.68    6.10
   1   1   6  248.78    6.00
  -2  -1  -6   18.00    0.70
  -2  -1  -6   18.80    0.60
  -2  -1  -6   17.90    0.70
  -2  -1  -6   19.20    0.70
   2   1   6   19.00    0.70
  -3  -1  -6   66.69    1.90
  -3  -1  -6   66.29    1.80
  -3  -1  -6   67.19    1.90
  -3  -1  -6   66.19    2.00
   3   1   6   69.59    1.90
  -4  -1  -6  105.09    2.80
  -4  -1  -6  102.19    2.90
  -4  -1  -6  103.09    2.80
   4   1   6  108.99    2.90
  -5  -1  -6    0.60    0.20
  -5  -1  -6    1.10    0.40
   5   1   6    0.80    0.30
  -6  -1  -6   35.70    1.10
  -6  -1  -6   35.50    1.40
   6   1   6   36.90    1.40
  -7  -1  -6    2.50    0.50
   7   1   6    2.30    0.60
  -8  -1  -6   36.10    1.60
   8   1   6   37.70    1.60
  -9  -1  -6   52.69    2.00
   9   1   6   50.09    2.10
 -10  -1  -6   73.29    2.60
  10   1   6   70.69    2.70
 -11  -1  -6   45.40    2.10
  11   1   6   42.30    2.20
 -12  -1  -6   48.60    2.40
  12   1   6   42.60    2.50
 -13   2   6    2.80    0.70
 -13   2   6    2.60    1.10
  12  -2  -6    1.00    0.70
 -12   2   6    0.30    0.60
 -12   2   6   -0.20    0.80
  11  -2  -6    1.30    0.60
 -11   2   6    1.40    0.80
 -11   2   6    1.20    0.70
  10  -2  -6    0.00    0.50
 -10   2   6   -0.60    0.60
   9  -2  -6   -0.50    0.40
  -9   2   6   -0.70    0.50
  -9   2   6   -0.20    0.60
   8  -2  -6   18.20    1.00
  -8   2   6   19.30    1.10
  -8   2   6   19.50    1.10
   7  -2  -6    5.10    0.60
  -7   2   6    4.90    0.80
  -7   2   6    6.80    0.50
  -7   2   6    6.70    0.70
   6  -2  -6    4.90    0.80
   6  -2  -6    6.80    0.70
  -6   2   6    7.20    0.70
  -6   2   6    5.70    0.70
  -6   2   6    6.10    0.40
   5  -2  -6    0.10    0.30
   5  -2  -6    0.10    0.30
  -5   2   6   -0.40    0.30
  -5   2   6    0.10    0.30
  -5   2   6    0.00    0.20
   4  -2  -6   12.60    0.90
   4  -2  -6   13.40    0.70
  -4   2   6   12.90    0.70
  -4   2   6   13.50    0.70
  -4   2   6   14.10    0.50
   3  -2  -6  330.87    8.50
   3  -2  -6  334.17    8.60
  -3   2   6  330.67    8.50
  -3   2   6  319.57    8.40
  -3   2   6  333.77    8.50
   2  -2  -6  164.08    4.40
   2  -2  -6  166.28    4.40
  -2   2   6  163.38    4.30
  -2   2   6  166.38    4.40
  -2   2   6  167.38    4.40
   1  -2  -6  520.65   13.10
   1  -2  -6  503.95   13.10
   1  -2  -6  502.55   13.00
  -1   2   6  520.85   13.10
  -1   2   6  514.15   13.10
   0  -2  -6   42.90    1.40
   0  -2  -6   44.90    1.30
   0  -2  -6   47.10    1.30
   0  -2  -6   44.80    1.40
   0   2   6   44.10    1.40
   0   2   6   46.00    1.30
  -1  -2  -6   14.40    0.70
  -1  -2  -6   13.80    0.60
  -1  -2  -6   15.20    0.60
   1   2   6   14.00    0.70
   1   2   6   14.90    0.60
  -2  -2  -6  196.28    5.10
  -2  -2  -6  192.08    5.10
  -2  -2  -6  192.88    5.10
  -2  -2  -6  195.98    5.00
   2   2   6  197.58    5.10
  -3  -2  -6  543.85   14.10
  -3  -2  -6  562.94   14.10
  -3  -2  -6  542.15   14.20
  -3  -2  -6  549.85   14.10
   3   2   6  571.34   14.20
  -4  -2  -6   45.20    1.50
  -4  -2  -6   45.90    1.30
  -4  -2  -6   44.50    1.40
  -4  -2  -6   45.80    1.40
   4   2   6   43.80    1.50
  -5  -2  -6   28.20    1.00
  -5  -2  -6   26.70    1.10
  -5  -2  -6   26.40    0.90
  -5  -2  -6   26.00    0.90
   5   2   6   27.00    1.10
  -6  -2  -6   22.70    1.10
   6   2   6   23.00    1.10
  -7  -2  -6    1.30    0.50
   7   2   6    1.20    0.50
  -8  -2  -6   47.00    1.80
   8   2   6   42.80    1.80
  -9  -2  -6    1.30    0.70
   9   2   6    0.20    0.70
 -10  -2  -6    0.40    0.70
  10   2   6    0.90    0.80
 -11  -2  -6    1.30    0.90
  11   2   6    0.80    1.00
 -12  -2  -6    1.30    1.10
  12   2   6   -0.60    1.00
 -13   3   6   11.00    1.30
 -13   3   6    9.70    1.70
  12  -3  -6   25.20    1.50
 -12   3   6   25.80    1.80
 -12   3   6   26.90    1.50
  11  -3  -6  103.79    3.20
 -11   3   6  103.59    3.90
  10  -3  -6   75.79    2.50
 -10   3   6   77.59    2.80
   9  -3  -6  259.37    7.00
  -9   3   6  265.07    7.30
  -9   3   6  263.47    7.30
   8  -3  -6   30.60    1.30
  -8   3   6   30.40    1.40
  -8   3   6   31.90    1.40
   7  -3  -6    5.90    0.70
  -7   3   6    4.00    0.50
  -7   3   6    5.40    0.70
   6  -3  -6  348.47    9.00
  -6   3   6  343.67    9.10
   5  -3  -6  177.28    4.80
   5  -3  -6  183.28    4.90
  -5   3   6  180.28    4.90
  -5   3   6  177.58    4.90
   4  -3  -6  605.54   15.70
   4  -3  -6  612.34   15.70
  -4   3   6  617.64   15.70
  -4   3   6  629.94   15.60
  -4   3   6  605.74   15.70
   3  -3  -6  113.49    3.10
   3  -3  -6  112.09    3.10
  -3   3   6  112.29    3.00
  -3   3   6  116.69    3.10
  -3   3   6  114.09    3.20
   2  -3  -6    1.90    0.30
   2  -3  -6    1.70    0.30
  -2   3   6    1.50    0.30
  -2   3   6    2.20    0.30
  -2   3   6    1.50    0.20
   1  -3  -6    9.30    0.50
   1  -3  -6    9.10    0.60
   1  -3  -6    9.60    0.50
  -1   3   6   10.70    0.60
   0  -3  -6   16.60    0.70
   0  -3  -6   16.90    0.70
   0  -3  -6   17.30    0.70
   0   3   6   17.10    0.70
   0   3   6   16.70    0.80
  -1  -3  -6   98.19    2.70
  -1  -3  -6   97.59    2.70
  -1  -3  -6   99.89    2.60
  -1  -3  -6   94.59    2.70
   1   3   6   97.19    2.70
   1   3   6   98.59    2.70
  -2  -3  -6   43.30    1.40
  -2  -3  -6   43.60    1.30
  -2  -3  -6   43.80    1.40
  -2  -3  -6   44.00    1.40
   2   3   6   42.80    1.40
   2   3   6   46.70    1.40
  -3  -3  -6    2.20    0.40
  -3  -3  -6    1.90    0.40
  -3  -3  -6    3.50    0.60
  -3  -3  -6    2.10    0.30
   3   3   6    2.60    0.40
  -4  -3  -6    3.50    0.40
  -4  -3  -6    3.90    0.60
  -4  -3  -6    3.70    0.60
   4   3   6    3.70    0.60
  -5  -3  -6   13.90    0.90
  -5  -3  -6   13.50    0.80
  -5  -3  -6   13.20    0.70
   5   3   6   15.00    0.90
  -6  -3  -6   39.90    1.50
  -6  -3  -6   40.30    1.30
  -6  -3  -6   37.90    1.30
   6   3   6   39.50    1.50
  -7  -3  -6    2.00    0.60
   7   3   6    1.50    0.50
  -8  -3  -6    7.20    1.10
   8   3   6    6.80    1.10
  -9  -3  -6    1.90    0.70
   9   3   6    2.20    0.80
 -10  -3  -6   28.90    1.80
  10   3   6   26.60    1.80
 -11  -3  -6   12.70    1.60
  11   3   6   13.30    1.70
 -12  -3  -6   12.40    1.90
  12   3   6   17.50    2.00
  13  -4  -6    1.70    1.00
 -13   4   6    1.90    1.00
 -13   4   6    2.40    0.70
  12  -4  -6   12.50    1.30
 -12   4   6   11.30    1.50
 -12   4   6   13.30    1.40
  11  -4  -6    3.40    0.70
 -11   4   6    3.50    0.90
 -11   4   6    3.80    0.70
  10  -4  -6   28.50    1.40
 -10   4   6   28.00    1.60
   9  -4  -6  159.58    4.50
  -9   4   6  158.58    4.60
  -9   4   6  157.58    4.50
   8  -4  -6  139.79    4.00
  -8   4   6  140.59    4.10
  -8   4   6  141.89    4.00
   7  -4  -6   32.30    1.30
  -7   4   6   33.60    1.40
  -7   4   6   32.00    1.40
   6  -4  -6   46.00    1.50
  -6   4   6   44.40    1.80
  -6   4   6   44.80    1.60
   5  -4  -6  137.19    3.80
   5  -4  -6  127.09    3.70
  -5   4   6  140.49    3.80
  -5   4   6  134.19    3.80
   4  -4  -6 4432.66  112.59
   4  -4  -6 4423.26  112.39
  -4   4   6 4408.86  112.89
  -4   4   6 4470.35  112.79
   3  -4  -6  152.08    4.10
   3  -4  -6  152.38    4.10
  -3   4   6  152.18    4.10
  -3   4   6  153.58    4.10
  -3   4   6  147.69    3.90
   2  -4  -6 1000.10   25.20
   2  -4  -6  977.40   25.40
   2  -4  -6  992.10   25.30
  -2   4   6 1014.40   25.40
  -2   4   6 1000.80   25.40
   1  -4  -6  242.18    6.40
   1  -4  -6  240.78    6.30
   1  -4  -6  246.38    6.30
  -1   4   6  240.38    6.40
  -1   4   6  246.08    6.40
   0  -4  -6   82.89    2.30
   0  -4  -6   82.29    2.30
   0  -4  -6   82.29    2.40
   0   4   6   82.79    2.40
   0   4   6   82.99    2.40
  -1  -4  -6    7.80    0.60
  -1  -4  -6    7.40    0.70
  -1  -4  -6    8.90    0.50
  -1  -4  -6    7.20    0.60
   1   4   6    7.70    0.70
   1   4   6    8.50    0.60
  -2  -4  -6  272.57    7.10
  -2  -4  -6  276.07    7.00
  -2  -4  -6  266.17    7.10
   2   4   6  263.17    7.10
   2   4   6  281.07    7.20
  -3  -4  -6   60.69    1.60
  -3  -4  -6   55.69    1.90
   3   4   6   58.19    1.90
  -4  -4  -6    0.40    0.40
  -4  -4  -6    0.00    0.40
   4   4   6    0.10    0.40
  -5  -4  -6    7.60    0.80
  -5  -4  -6    7.40    0.80
   5   4   6    8.50    0.80
  -6  -4  -6   25.20    1.40
  -6  -4  -6   26.70    1.40
   6   4   6   24.50    1.30
  -7  -4  -6    7.50    1.00
  -7  -4  -6    7.50    0.90
   7   4   6    6.60    1.00
  -8  -4  -6    9.20    1.20
   8   4   6    7.20    1.10
  -9  -4  -6    8.30    1.30
   9   4   6    9.90    1.40
 -10  -4  -6    2.50    0.90
  10   4   6    2.30    0.90
 -11  -4  -6    1.70    1.00
  11   4   6    3.10    1.10
  13  -5  -6    7.00    1.00
 -13   5   6    6.80    1.20
 -13   5   6    8.00    1.40
  12  -5  -6    0.00    0.70
 -12   5   6    1.30    0.90
 -12   5   6    0.80    0.70
  11  -5  -6   22.50    1.40
 -11   5   6   23.20    1.60
 -11   5   6   22.70    1.50
  10  -5  -6    4.80    0.70
 -10   5   6    4.30    1.00
 -10   5   6    3.60    0.70
   9  -5  -6   10.40    1.00
  -9   5   6    8.90    1.60
  -9   5   6    9.80    1.20
   8  -5  -6   15.90    1.00
  -8   5   6   14.40    1.10
  -8   5   6   15.50    1.10
   7  -5  -6   18.40    1.00
  -7   5   6   17.20    1.10
  -7   5   6   16.20    1.10
   6  -5  -6    4.10    0.60
  -6   5   6    3.10    0.50
  -6   5   6    3.10    0.50
   5  -5  -6   31.50    1.50
   5  -5  -6   34.20    1.20
  -5   5   6   33.40    1.30
  -5   5   6   34.10    1.30
   4  -5  -6   36.70    1.40
   4  -5  -6   32.80    1.60
  -4   5   6   37.80    1.40
  -4   5   6   36.10    1.40
   3  -5  -6   29.90    1.20
   3  -5  -6   30.20    1.10
  -3   5   6   30.90    1.20
  -3   5   6   29.90    1.20
  -3   5   6   29.70    0.90
   2  -5  -6  862.21   21.60
   2  -5  -6  846.42   21.70
   2  -5  -6  844.42   21.70
  -2   5   6  847.02   21.70
  -2   5   6  857.41   21.70
   1  -5  -6   12.40    0.70
   1  -5  -6   14.10    0.80
   1  -5  -6   12.20    0.60
  -1   5   6   13.10    0.80
  -1   5   6   13.70    0.80
   0  -5  -6  272.27    6.90
   0  -5  -6  267.77    6.90
   0  -5  -6  253.57    7.00
   0   5   6  274.67    7.10
   0   5   6  265.77    7.00
  -1  -5  -6  111.29    3.00
  -1  -5  -6  114.29    3.10
  -1  -5  -6  106.69    3.10
   1   5   6  105.39    3.10
   1   5   6  114.09    3.20
  -2  -5  -6  240.18    6.40
  -2  -5  -6  233.28    6.50
  -2  -5  -6  249.48    6.30
   2   5   6  250.97    6.50
  -3  -5  -6    3.10    0.50
  -3  -5  -6    2.60    0.40
   3   5   6    3.20    0.50
  -4  -5  -6   45.40    1.60
  -4  -5  -6   47.10    1.60
   4   5   6   48.00    1.70
  -5  -5  -6    5.70    0.80
  -5  -5  -6    7.00    0.80
   5   5   6    6.60    0.90
  -6  -5  -6    3.30    1.00
  -6  -5  -6    3.70    0.80
   6   5   6    2.20    0.60
  -7  -5  -6   33.60    1.60
  -7  -5  -6   34.90    1.60
   7   5   6   33.30    1.70
  -8  -5  -6  207.18    6.30
  -8  -5  -6  241.58    6.10
   8   5   6  210.98    6.30
  -9  -5  -6   12.50    1.40
   9   5   6   16.40    1.60
 -10  -5  -6   49.80    2.30
  10   5   6   49.80    2.50
 -11  -5  -6    5.60    1.20
  11   5   6    6.10    1.30
  13  -6  -6    6.70    1.10
 -13   6   6    6.00    0.90
 -13   6   6   11.00    1.80
  12  -6  -6   13.80    1.60
 -12   6   6   15.90    1.70
 -12   6   6   14.90    1.50
  11  -6  -6    4.80    0.80
 -11   6   6    4.20    0.90
 -11   6   6    4.10    0.80
  10  -6  -6    0.20    0.70
 -10   6   6   -0.30    0.70
   9  -6  -6    0.30    0.60
  -9   6   6    0.60    0.70
  -9   6   6    0.50    0.60
   8  -6  -6   16.00    1.00
  -8   6   6   14.40    1.10
  -8   6   6   15.20    1.20
   7  -6  -6    0.00    0.40
  -7   6   6    0.70    0.50
  -7   6   6   -0.40    0.50
   6  -6  -6    2.10    0.40
  -6   6   6    2.80    0.50
  -6   6   6    3.70    0.60
   5  -6  -6   15.90    0.90
  -5   6   6   16.70    1.10
  -5   6   6   16.80    1.00
   4  -6  -6  115.39    3.30
   4  -6  -6  118.49    3.40
  -4   6   6  118.19    3.40
  -4   6   6  117.39    3.40
   3  -6  -6   26.90    1.20
  -3   6   6   28.40    1.20
  -3   6   6   27.00    0.90
  -3   6   6   27.80    1.30
   2  -6  -6  121.69    3.50
   2  -6  -6  122.49    3.20
   2  -6  -6  130.59    3.40
  -2   6   6  112.59    3.60
  -2   6   6  121.79    3.50
   1  -6  -6   13.50    0.70
  -1   6   6   14.70    1.00
  -1   6   6   14.70    0.90
   0  -6  -6  207.08    5.30
   0  -6  -6  201.58    5.40
   0  -6  -6  201.88    5.30
   0   6   6  187.28    5.60
   0   6   6  200.28    5.40
  -1  -6  -6  227.78    5.90
  -1  -6  -6  225.98    6.00
  -1  -6  -6  231.88    5.80
   1   6   6  210.68    6.10
  -2  -6  -6  248.08    6.60
  -2  -6  -6  250.37    6.40
  -2  -6  -6  255.77    6.70
   2   6   6  243.38    6.70
  -3  -6  -6   12.90    0.90
  -3  -6  -6   14.10    0.90
   3   6   6   13.90    1.00
  -4  -6  -6    6.60    0.90
  -4  -6  -6    6.10    0.80
   4   6   6    6.80    0.90
  -5  -6  -6   16.20    1.10
  -5  -6  -6   17.40    1.10
   5   6   6   18.70    1.20
  -6  -6  -6   17.20    1.40
   6   6   6   17.90    1.30
  -7  -6  -6  121.29    3.70
   7   6   6  117.59    3.80
  -8  -6  -6    9.80    1.30
  -8  -6  -6   12.50    1.30
   8   6   6    8.90    1.50
  -9  -6  -6    1.20    0.80
   9   6   6    1.20    0.90
 -10  -6  -6   17.60    1.80
  10   6   6   17.20    1.90
  12  -7  -6   10.40    1.40
 -12   7   6    7.30    1.20
 -12   7   6   10.70    1.50
  11  -7  -6   39.60    1.90
 -11   7   6   42.90    2.00
 -11   7   6   40.80    2.10
  10  -7  -6    0.00    0.60
 -10   7   6   -0.80    0.70
 -10   7   6   -0.20    0.70
   9  -7  -6    1.60    0.70
  -9   7   6    2.60    0.80
  -9   7   6    1.30    0.70
   8  -7  -6    9.50    1.00
  -8   7   6    8.50    1.10
  -8   7   6    8.80    1.20
   7  -7  -6   27.10    1.30
  -7   7   6   24.80    1.40
  -7   7   6   28.60    1.40
   6  -7  -6  121.59    3.50
  -6   7   6  117.89    3.50
  -6   7   6  116.89    3.60
   5  -7  -6   37.40    1.40
  -5   7   6   38.20    1.50
  -5   7   6   38.40    1.60
   4  -7  -6    1.90    0.40
   4  -7  -6    0.80    0.60
  -4   7   6    1.40    0.50
   3  -7  -6    4.10    0.60
   3  -7  -6    4.80    0.60
  -3   7   6    5.60    0.90
  -3   7   6    4.80    0.70
   2  -7  -6   26.60    0.90
   2  -7  -6   24.10    1.20
   2  -7  -6   27.30    1.30
  -2   7   6   26.30    1.30
  -2   7   6   27.40    1.20
   1  -7  -6    0.40    0.40
   1  -7  -6    0.20    0.30
   1  -7  -6   -0.10    0.30
  -1   7   6    0.10    0.40
  -1   7   6    0.50    0.50
   0  -7  -6    2.30    0.40
   0  -7  -6    2.70    0.50
   0  -7  -6    2.10    0.40
   0   7   6    2.30    0.50
   0   7   6    1.90    0.50
  -1  -7  -6    6.70    0.60
  -1  -7  -6    6.40    0.80
  -1  -7  -6    7.60    0.90
   1   7   6    7.20    0.80
  -2  -7  -6   56.89    1.90
  -2  -7  -6   55.39    1.60
  -2  -7  -6   56.99    1.80
   2   7   6   55.89    2.00
  -3  -7  -6    6.10    0.80
  -3  -7  -6    6.90    0.90
   3   7   6    6.60    0.90
   4   7   6    6.00    1.00
  -5  -7  -6   12.30    1.10
  -5  -7  -6   16.40    1.20
   5   7   6   16.80    1.30
  -6  -7  -6    0.20    0.90
   6   7   6    0.20    0.70
  -7  -7  -6   30.40    2.40
  -7  -7  -6   28.00    1.90
   7   7   6   28.20    1.90
  -8  -7  -6   23.80    1.60
  -8  -7  -6   23.80    1.60
   8   7   6   22.70    1.70
  -9  -7  -6    9.80    1.50
  -9  -7  -6    7.60    0.90
   9   7   6    7.10    1.20
 -10  -7  -6    9.20    1.30
  10   7   6    6.10    1.20
  12  -8  -6    0.60    0.80
 -12   8   6   -0.10    0.80
 -12   8   6   -1.00    1.10
  11  -8  -6    0.00    0.70
 -11   8   6   -0.50    0.90
 -11   8   6    0.40    0.80
  10  -8  -6   33.50    1.70
 -10   8   6   31.80    1.90
 -10   8   6   34.10    1.90
   9  -8  -6   10.10    1.20
  -9   8   6    8.40    1.20
   8  -8  -6   29.50    1.60
  -8   8   6   26.10    1.60
  -8   8   6   28.70    1.70
   7  -8  -6    2.50    0.60
  -7   8   6    4.10    0.80
  -7   8   6    3.80    0.80
   6  -8  -6  212.28    5.80
  -6   8   6  207.58    6.00
  -6   8   6  214.98    5.90
   5  -8  -6    8.30    0.80
  -5   8   6    9.20    1.00
  -5   8   6    8.20    1.10
   4  -8  -6   21.00    1.00
  -4   8   6   21.50    1.30
  -4   8   6   21.60    1.20
   3  -8  -6  133.09    3.70
   3  -8  -6  134.89    3.90
  -3   8   6  130.19    3.90
  -3   8   6  130.89    4.50
   2  -8  -6    0.50    0.50
   2  -8  -6    1.30    0.30
   2  -8  -6    0.70    0.40
  -2   8   6    1.00    0.50
  -2   8   6    0.90    0.60
   1  -8  -6   35.20    1.50
   1  -8  -6   36.10    1.20
   1  -8  -6   34.80    1.30
  -1   8   6   35.60    1.50
  -1   8   6   35.50    1.60
   0  -8  -6    9.90    1.00
   0  -8  -6    9.30    1.20
   0  -8  -6   10.00    0.70
   0   8   6    9.00    0.90
   0   8   6   10.60    1.20
  -1  -8  -6   11.10    0.80
  -1  -8  -6   11.30    1.00
  -1  -8  -6   11.30    0.70
   1   8   6    9.90    1.00
  -2  -8  -6  114.69    3.30
  -2  -8  -6  114.69    3.40
   2   8   6  109.19    3.40
  -3  -8  -6   40.10    1.70
  -3  -8  -6   41.80    1.60
   3   8   6   39.00    1.80
  -4  -8  -6   38.20    1.70
  -4  -8  -6   36.60    1.60
   4   8   6   40.80    1.80
  -5  -8  -6   29.30    1.50
  -5  -8  -6   27.90    1.60
   5   8   6   32.10    1.70
  -6  -8  -6   99.29    3.50
  -6  -8  -6  100.49    3.30
   6   8   6   97.39    3.40
  -7  -8  -6    4.60    0.90
  -7  -8  -6    6.10    1.00
   7   8   6    5.00    1.00
  -8  -8  -6    0.20    0.80
  -8  -8  -6   -0.20    0.80
   8   8   6    0.10    0.90
  -9  -8  -6    5.60    1.10
  -9  -8  -6    5.50    1.00
   9   8   6    5.00    1.10
  11  -9  -6   16.50    1.60
 -11   9   6   17.40    1.70
 -11   9   6   18.00    1.80
  10  -9  -6    0.90    0.70
 -10   9   6    1.80    1.00
 -10   9   6    1.40    0.90
   9  -9  -6    2.50    0.80
  -9   9   6    2.40    0.80
  -9   9   6    1.50    0.80
   8  -9  -6    2.70    0.80
  -8   9   6    3.40    1.30
  -8   9   6    2.60    0.80
   7  -9  -6    7.80    1.00
  -7   9   6    5.80    0.80
  -7   9   6    6.40    0.90
   6  -9  -6   12.80    1.00
  -6   9   6   12.20    1.20
  -6   9   6    9.70    1.30
   5  -9  -6   38.80    1.50
  -5   9   6   38.80    1.80
  -5   9   6   39.30    1.80
   4  -9  -6   31.00    1.30
  -4   9   6   31.70    1.50
  -4   9   6   32.50    1.60
   3  -9  -6    6.50    0.80
  -3   9   6    6.50    0.90
  -3   9   6    7.20    1.20
   2  -9  -6    5.30    0.70
   2  -9  -6    5.00    0.70
  -2   9   6    6.00    0.90
   1  -9  -6    0.60    0.40
   1  -9  -6   -0.20    0.40
   1  -9  -6    0.00    0.70
  -1   9   6    0.30    0.60
  -1   9   6    0.10    0.60
   0  -9  -6    0.80    0.60
   0  -9  -6    0.20    0.40
   0  -9  -6    0.30    0.50
   0   9   6    0.20    0.60
  -1  -9  -6   32.90    1.30
  -1  -9  -6   31.90    1.60
   1   9   6   34.60    1.60
  -2  -9  -6   23.50    1.50
  -2  -9  -6   23.10    1.20
   2   9   6   23.10    1.40
  -3  -9  -6    0.00    0.70
  -3  -9  -6    0.50    0.50
   3   9   6   -0.30    0.80
  -4  -9  -6   12.70    1.40
  -4  -9  -6   12.30    1.10
   4   9   6   11.90    1.30
  -5  -9  -6    0.80    0.60
  -5  -9  -6    0.70    0.80
   5   9   6    0.30    0.90
  -6  -9  -6    1.80    0.80
  -6  -9  -6    2.10    0.80
   6   9   6    1.30    0.90
  -7  -9  -6    1.50    0.80
  -7  -9  -6    1.10    0.90
   7   9   6    0.60    1.00
  -8  -9  -6    1.60    1.00
  -8  -9  -6    0.70    0.90
   8   9   6   -0.10    1.10
  11 -10  -6    8.50    1.20
 -11  10   6    8.50    1.10
 -11  10   6    8.30    1.30
  10 -10  -6   22.30    1.60
 -10  10   6   20.50    1.80
 -10  10   6   23.30    1.90
   9 -10  -6   31.80    1.70
  -9  10   6   36.90    2.00
  -9  10   6   33.30    2.00
   8 -10  -6    5.50    0.80
  -8  10   6    5.60    0.90
  -8  10   6    5.70    1.00
   7 -10  -6   71.99    2.90
  -7  10   6   79.19    3.20
  -7  10   6   75.49    2.80
   6 -10  -6   78.49    2.60
  -6  10   6   79.09    2.80
  -6  10   6   78.89    2.80
   5 -10  -6   38.20    1.60
  -5  10   6   38.80    1.90
  -5  10   6   34.40    2.30
   4 -10  -6    8.00    0.90
  -4  10   6    6.40    0.90
  -4  10   6    6.50    1.20
   3 -10  -6    3.20    0.60
  -3  10   6    3.60    0.70
  -3  10   6    2.70    0.80
   2 -10  -6   87.09    2.70
  -2  10   6   89.79    3.00
  -2  10   6   88.69    3.00
   1 -10  -6   77.79    2.80
   1 -10  -6   80.19    2.40
  -1  10   6   80.99    2.80
   0 -10  -6   43.20    1.50
   0 -10  -6   40.40    1.50
   0 -10  -6   40.80    1.90
   0  10   6   38.90    1.80
  -1 -10  -6   11.80    1.30
  -1 -10  -6   10.90    1.00
   1  10   6   11.50    1.20
  -2 -10  -6   16.70    1.50
  -2 -10  -6   18.20    1.10
   2  10   6   16.40    1.40
  -3 -10  -6   12.10    1.10
  -3 -10  -6   14.00    1.50
   3  10   6   10.10    1.40
  -4 -10  -6    7.20    1.00
  -4 -10  -6    8.10    1.10
   4  10   6    6.40    1.00
  -5 -10  -6    0.90    0.70
  -5 -10  -6   -0.10    0.80
   5  10   6   -0.90    0.90
  -6 -10  -6    3.60    0.90
  -6 -10  -6    3.00    0.90
   6  10   6    1.00    1.00
  -7 -10  -6    7.20    1.00
   7  10   6    5.60    1.30
  -8 -10  -6    1.50    1.30
   8  10   6    2.40    1.40
  10 -11  -6    0.10    0.90
 -10  11   6    1.10    1.00
 -10  11   6    1.40    1.10
   9 -11  -6    4.20    0.90
  -9  11   6    4.00    1.20
  -9  11   6    3.90    1.00
   8 -11  -6   41.60    1.90
  -8  11   6   40.30    2.20
  -8  11   6   44.80    2.20
   7 -11  -6    0.70    0.60
  -7  11   6   -0.50    0.80
  -7  11   6    1.40    0.90
   6 -11  -6    0.20    0.60
  -6  11   6   -0.60    0.80
  -6  11   6   -0.30    0.80
   5 -11  -6   60.29    2.10
  -5  11   6   57.79    2.40
  -5  11   6   57.09    3.40
   4 -11  -6  264.87    7.20
  -4  11   6  268.17    7.50
  -4  11   6  269.17    7.50
   3 -11  -6   17.10    1.10
  -3  11   6   12.40    1.70
  -3  11   6   14.90    1.40
   2 -11  -6  729.13   18.50
  -2  11   6  711.73   18.90
   1 -11  -6   28.80    1.30
  -1  11   6   21.20    1.60
   0 -11  -6   64.39    2.60
   0  11   6   63.79    2.70
  -1 -11  -6   31.20    1.90
  -1 -11  -6   31.10    1.50
   1  11   6   28.10    1.80
  -2 -11  -6   74.49    2.50
  -2 -11  -6   76.19    2.80
   2  11   6   70.29    3.10
  -3 -11  -6   12.00    2.00
  -3 -11  -6   12.60    1.20
   3  11   6    9.10    1.20
  -4 -11  -6   53.09    2.50
  -4 -11  -6   50.79    2.10
   4  11   6   46.90    2.40
  -5 -11  -6   21.50    1.60
  -5 -11  -6   24.80    2.00
   5  11   6   19.40    1.90
  -6 -11  -6    1.90    1.00
  -6 -11  -6   -0.60    0.80
   6  11   6   -2.00    1.10
  -7 -11  -6    1.50    1.30
  -7 -11  -6    3.30    1.10
   7  11   6   -1.20    1.50
   9 -12  -6    7.30    1.00
  -9  12   6    7.20    1.30
  -9  12   6    7.90    1.20
   8 -12  -6   24.60    1.60
  -8  12   6   21.80    2.00
  -8  12   6   28.20    2.00
   7 -12  -6    0.90    0.70
  -7  12   6   -0.50    1.00
  -7  12   6    0.40    0.90
   6 -12  -6   34.00    1.70
  -6  12   6   31.70    2.00
  -6  12   6   34.70    2.10
   5 -12  -6    1.10    0.60
  -5  12   6    2.20    0.90
   4 -12  -6   24.90    1.70
  -4  12   6   26.00    1.70
  -4  12   6   26.90    2.00
   3 -12  -6    4.40    0.70
  -3  12   6    2.20    0.90
  -3  12   6    3.30    1.10
   2 -12  -6   80.39    2.60
  -2  12   6   78.09    2.90
  -1  12   6    2.20    0.80
   0  12   6  263.67    7.50
  -1 -12  -6   94.49    3.40
   1  12   6   92.49    3.40
  -2 -12  -6   20.90    2.20
  -2 -12  -6   18.50    2.20
   2  12   6   22.20    1.80
  -3 -12  -6   67.29    2.90
  -3 -12  -6   64.29    2.50
   3  12   6   61.79    2.80
  -4 -12  -6  305.77    8.60
  -4 -12  -6  328.37    8.90
   4  12   6  316.57    9.00
  -5 -12  -6    1.70    0.90
  -5 -12  -6   -1.30    1.10
   5  12   6   -0.70    1.10
   8 -13  -6    6.10    1.00
  -8  13   6    7.10    1.30
  -8  13   6    5.50    1.40
   7 -13  -6   14.80    1.50
  -7  13   6   16.00    1.90
  -7  13   6   15.70    2.00
   6 -13  -6    2.10    0.80
  -6  13   6    3.40    1.10
  -6  13   6    0.60    1.20
   5 -13  -6   31.70    1.70
  -5  13   6   35.70    2.30
  -5  13   6   34.20    2.10
   4 -13  -6    0.60    0.70
  -4  13   6    0.40    0.90
  -4  13   6   -1.90    1.20
   3 -13  -6    2.20    0.80
  -3  13   6    2.90    1.00
  -2  13   6   76.29    3.00
  -1  13   6   15.10    1.70
   0  13   6    1.30    1.00
   1  13   6   56.39    2.60
  -2 -13  -6    4.10    1.50
   2  13   6    4.90    1.20
  -3 -13  -6   -1.00    1.30
   3  13   6    0.70    1.10
  -4 -13  -6   19.80    1.70
  -4 -13  -6   23.30    2.50
   4  13   6   17.30    2.10
   6 -14  -6    0.80    0.80
  -6  14   6   -0.90    1.20
  -6  14   6    0.30    1.10
   5 -14  -6    4.70    0.90
  -5  14   6    4.70    1.20
  -5  14   6    4.20    1.30
  -4  14   6   10.20    1.80
  -3  14   6    6.00    1.20
  -2  14   6   -1.30    1.00
  -1  14   6   15.10    1.80
   0  14   6    6.10    1.20
   1  14   6   -1.30    1.10
   2  14   6   21.10    2.20
  -3 -16   7    0.80    1.10
   1  16  -7   34.70    2.70
   0  16  -7    2.80    1.30
  -1  16  -7   17.00    2.50
  -2  16  -7   17.00    2.20
  -3  16  -7    0.30    1.10
   3 -16   7    1.90    0.90
  -4  16  -7    8.10    1.20
   4 -16   7    7.60    1.10
  -5 -15   7    8.40    1.20
  -4 -15   7    5.00    1.10
  -3 -15   7   16.50    1.60
  -2 -15   7    3.70    1.00
   1  15  -7   18.60    2.10
  -1 -15   7   22.10    1.60
   0  15  -7   25.10    1.90
   1 -15   7    3.70    0.80
  -2  15  -7    6.80    1.10
   2 -15   7    6.80    0.90
  -3  15  -7   11.40    1.80
   3 -15   7    7.00    0.90
  -4  15  -7   22.60    1.90
   4 -15   7   22.20    1.60
  -5  15  -7   32.80    2.00
   5 -15   7   29.50    1.80
  -6  15  -7   54.99    2.30
   6 -15   7   50.69    2.40
  -6 -14   7    1.10    1.00
  -5 -14   7   13.10    1.50
   4  14  -7   15.60    2.10
  -4 -14   7   20.90    1.60
  -3 -14   7   -0.40    0.70
   2  14  -7   -0.80    0.90
   2  14  -7   -0.90    1.70
  -2 -14   7    0.40    0.70
   1  14  -7    1.10    1.00
  -1 -14   7    0.70    0.90
   0  14  -7    0.00    1.10
   0 -14   7    1.10    0.70
   0 -14   7    0.50    0.70
  -1  14  -7   21.20    1.60
   1 -14   7   20.50    1.30
  -2  14  -7    1.20    0.80
   2 -14   7   -0.30    0.80
  -3  14  -7    0.20    0.80
   3 -14   7    0.60    0.60
  -4  14  -7   58.79    2.40
   4 -14   7   55.89    2.20
  -5  14  -7   18.60    1.60
   5 -14   7   15.70    1.40
  -6  14  -7   24.10    1.60
   6 -14   7   23.90    1.60
   7 -14   7    0.30    0.80
   8 -14   7   11.10    1.40
   7  13  -7   -1.40    1.10
  -7 -13   7    0.30    1.00
   6  13  -7   27.40    2.00
  -6 -13   7   32.70    1.80
   5  13  -7   -0.40    1.00
  -5 -13   7    1.00    0.80
   4  13  -7    0.70    0.90
  -4 -13   7    1.70    0.80
   3  13  -7    6.20    1.00
  -3 -13   7    6.10    1.40
   2  13  -7    9.80    1.30
   2  13  -7    9.60    1.20
  -2 -13   7   12.60    1.20
   1  13  -7    3.30    0.80
   1  13  -7    3.70    0.80
   1  13  -7    3.70    0.70
  -1 -13   7    4.40    0.70
   0  13  -7   10.30    1.10
   0  13  -7    9.30    1.20
   0  13  -7   11.70    1.50
   0 -13   7   13.30    1.10
  -1  13  -7    3.80    0.80
  -1  13  -7    5.40    0.70
  -1  13  -7    5.00    0.80
   1 -13   7    7.10    1.00
  -2  13  -7    5.90    0.80
  -2  13  -7    5.10    0.80
  -2  13  -7    6.10    0.90
   2 -13   7    7.00    1.00
  -3  13  -7   34.60    1.70
  -3  13  -7   32.40    2.20
   3 -13   7   33.10    1.50
  -4  13  -7   55.69    2.10
   4 -13   7   52.09    2.20
  -5  13  -7    3.00    0.80
   5 -13   7    3.20    0.80
  -6  13  -7    0.80    0.70
   6 -13   7    2.10    0.70
   7 -13   7    7.40    0.90
   8 -13   7    3.50    0.90
   9 -13   7   19.00    2.30
   8  12  -7   12.90    1.80
  -8 -12   7   14.20    1.70
  -8 -12   7   18.70    1.70
   7  12  -7    4.00    1.10
  -7 -12   7    5.40    1.00
   6  12  -7   10.70    1.60
  -6 -12   7    9.40    1.40
   5  12  -7    6.10    1.00
  -5 -12   7    6.10    0.90
   4  12  -7   21.80    1.60
  -4 -12   7   24.30    1.40
   3  12  -7   25.90    1.60
   3  12  -7   26.60    2.00
  -3 -12   7   25.80    1.40
   2  12  -7   14.40    1.60
   2  12  -7   15.30    1.30
   2  12  -7   17.10    1.10
  -2 -12   7   17.20    1.20
   1  12  -7    2.60    0.80
   1  12  -7    4.10    0.60
   1  12  -7    3.00    0.70
  -1 -12   7    3.90    0.70
   0  12  -7    0.90    0.60
   0  12  -7    0.20    0.70
   0  12  -7    1.60    0.50
   0 -12   7    0.90    0.60
  -1  12  -7   18.30    1.20
  -1  12  -7   17.40    1.40
  -1  12  -7   20.10    1.20
   1 -12   7   19.10    1.10
  -2  12  -7   -0.10    0.50
  -2  12  -7   -1.00    0.70
  -2  12  -7   -0.40    0.60
   2 -12   7   -0.60    0.50
  -3  12  -7   33.70    1.60
  -3  12  -7   37.60    1.80
  -3  12  -7   39.30    1.60
   3 -12   7   39.60    1.70
  -4  12  -7    0.90    0.70
  -4  12  -7   -0.70    0.80
  -4  12  -7    0.80    0.90
  -5  12  -7    0.60    0.70
  -5  12  -7    1.60    0.70
   5 -12   7    0.50    0.60
   6 -12   7    1.70    0.60
   7 -12   7   20.90    1.50
   8 -12   7    4.80    0.90
   9 -12   7    3.00    0.90
   9  11  -7   20.90    2.00
  -9 -11   7   27.10    2.50
  -9 -11   7   22.40    1.90
   8  11  -7  275.57    8.00
  -8 -11   7  289.77    8.00
  -8 -11   7  286.07    8.10
   7  11  -7    2.20    1.20
  -7 -11   7    1.50    1.00
  -7 -11   7    0.70    0.90
   6  11  -7   28.30    1.70
  -6 -11   7   26.80    1.90
  -6 -11   7   26.70    1.60
   5  11  -7   62.29    2.30
  -5 -11   7   62.09    2.30
   4  11  -7   28.00    1.50
  -4 -11   7   25.20    1.40
   3  11  -7   28.20    1.70
   3  11  -7   26.60    1.40
  -3 -11   7   27.20    1.50
   2  11  -7   89.19    2.80
   2  11  -7   87.89    3.00
   2  11  -7   90.49    2.70
  -2 -11   7   90.09    2.80
   1  11  -7   33.70    1.40
   1  11  -7   33.00    1.70
   1  11  -7   34.00    1.50
  -1 -11   7   34.40    1.50
   0  11  -7   27.70    1.30
   0  11  -7   27.30    1.50
   0  11  -7   25.40    1.30
   0 -11   7   26.80    1.30
  -1  11  -7   30.70    1.40
  -1  11  -7   30.70    1.50
  -1  11  -7   31.40    1.40
   1 -11   7   29.20    1.30
  -2  11  -7   79.99    2.60
  -2  11  -7   87.19    3.30
  -2  11  -7   83.79    2.60
   2 -11   7   84.49    2.50
  -3  11  -7    6.50    1.10
  -3  11  -7    8.50    1.00
  -3  11  -7    6.00    0.90
   3 -11   7    7.30    0.90
  -4  11  -7   29.20    1.70
  -4  11  -7   25.50    1.40
  -4  11  -7   28.10    1.40
   4 -11   7   30.50    1.80
  -5  11  -7   15.10    1.20
  -5  11  -7   16.70    1.20
  -6  11  -7   31.00    1.60
   6 -11   7   30.20    1.50
  -7  11  -7   33.00    1.70
   7 -11   7   30.10    1.60
   8 -11   7    0.30    0.70
   9 -11   7   -1.30    0.70
  10 -11   7   16.70    1.60
  10  10  -7    4.90    1.20
 -10 -10   7    5.80    1.20
 -10 -10   7    6.80    1.20
   9  10  -7   85.29    3.20
  -9 -10   7   88.79    3.20
  -9 -10   7   92.49    3.40
   8  10  -7    2.70    0.90
  -8 -10   7    1.40    0.90
  -8 -10   7    1.40    0.80
   7  10  -7    1.40    0.80
  -7 -10   7   -0.40    0.70
  -7 -10   7    1.00    0.80
   6  10  -7   22.40    1.50
  -6 -10   7   21.30    1.60
  -6 -10   7   22.80    1.60
   5  10  -7    2.00    0.70
  -5 -10   7    2.10    0.70
  -5 -10   7    1.70    0.70
   4  10  -7   51.49    1.90
   4  10  -7   55.09    2.20
  -4 -10   7   51.19    2.30
  -4 -10   7   54.19    2.00
   3  10  -7  124.69    3.70
   3  10  -7  126.49    3.80
  -3 -10   7  126.59    3.70
   2  10  -7   21.80    1.10
   2  10  -7   20.20    1.30
   2  10  -7   23.10    1.00
  -2 -10   7   19.50    1.10
   1  10  -7    1.60    0.40
   1  10  -7    0.70    0.50
   1  10  -7    1.10    0.60
  -1 -10   7    0.30    0.50
   0  10  -7    3.50    0.70
   0  10  -7    3.30    0.50
   0  10  -7    5.20    0.70
   0 -10   7    5.20    0.70
  -1  10  -7    0.10    0.50
  -1  10  -7    0.20    0.40
  -1  10  -7    0.60    0.50
   1 -10   7    0.10    0.40
  -2  10  -7    8.00    0.90
  -2  10  -7    9.30    0.80
  -2  10  -7    9.90    1.30
   2 -10   7    9.50    0.80
  -3  10  -7   61.49    2.00
  -3  10  -7   61.69    2.10
   3 -10   7   60.99    2.00
  -4  10  -7  194.08    5.30
  -4  10  -7  181.18    5.10
  -4  10  -7  191.98    5.20
   4 -10   7  196.28    5.10
  -5  10  -7    0.60    0.50
  -5  10  -7    0.60    0.50
  -5  10  -7    0.10    0.50
  -6  10  -7   43.80    1.80
  -6  10  -7   41.40    1.70
  -7  10  -7   -0.60    0.60
   7 -10   7    0.80    0.60
  -8  10  -7   -0.90    0.70
   8 -10   7   -0.20    0.60
   9 -10   7    2.40    0.80
  10 -10   7   16.20    1.50
  11 -10   7    0.50    0.90
  11   9  -7   25.40    2.20
 -11  -9   7   19.20    2.40
 -11  -9   7   22.00    1.90
  10   9  -7    8.50    1.30
 -10  -9   7    6.80    1.10
 -10  -9   7    6.70    1.30
   9   9  -7    1.70    1.00
  -9  -9   7   -0.40    0.90
  -9  -9   7   -0.10    0.80
   8   9  -7    7.90    1.30
  -8  -9   7    6.80    1.00
  -8  -9   7    4.50    0.90
   7   9  -7    0.30    0.70
  -7  -9   7    0.80    0.70
  -7  -9   7   -0.90    0.60
   6   9  -7    0.70    0.60
  -6  -9   7    0.70    0.70
  -6  -9   7    0.10    0.60
   5   9  -7    9.40    1.00
  -5  -9   7    9.10    1.00
  -5  -9   7    9.70    1.10
   4   9  -7    3.40    0.70
   4   9  -7    2.60    0.60
   4   9  -7    4.50    0.50
  -4  -9   7    2.60    0.60
  -4  -9   7    4.20    0.60
   3   9  -7   54.89    2.40
   3   9  -7   62.09    1.80
  -3  -9   7   61.69    2.00
  -3  -9   7   58.69    2.10
   2   9  -7   47.40    1.70
   2   9  -7   50.59    1.70
  -2  -9   7   48.80    1.70
   1   9  -7   13.60    0.90
   1   9  -7   13.70    1.00
   1   9  -7   15.20    0.80
  -1  -9   7   15.80    0.90
   0   9  -7   48.10    1.70
   0   9  -7   49.60    1.60
   0   9  -7   48.40    1.60
   0  -9   7   48.20    1.60
  -1   9  -7    6.50    0.70
  -1   9  -7    5.20    0.80
  -1   9  -7    6.40    0.70
   1  -9   7    6.30    0.70
  -2   9  -7   13.00    0.80
  -2   9  -7   11.50    0.90
  -2   9  -7   12.40    0.80
   2  -9   7   12.90    0.90
  -3   9  -7  154.68    4.30
  -3   9  -7  160.58    4.40
  -3   9  -7  160.18    4.30
  -4   9  -7    4.00    0.80
  -4   9  -7    3.40    0.50
  -4   9  -7    3.30    0.60
  -5   9  -7   18.80    1.10
  -5   9  -7   18.00    0.90
  -5   9  -7   17.60    1.00
  -5   9  -7   20.50    1.10
  -6   9  -7    1.20    0.50
  -6   9  -7    0.90    0.60
  -7   9  -7    0.00    0.60
  -7   9  -7    0.50    0.70
  -8   9  -7    9.10    1.20
   8  -9   7    8.00    1.10
  -9   9  -7  104.19    3.40
   9  -9   7  109.49    3.40
  10  -9   7   34.30    1.80
  11  -9   7   22.90    1.70
  11   8  -7    5.00    1.20
 -11  -8   7    2.30    1.00
 -11  -8   7    3.20    1.00
  10   8  -7   18.50    1.80
 -10  -8   7   15.00    2.00
 -10  -8   7   18.90    1.60
   9   8  -7    3.10    1.00
  -9  -8   7    3.50    1.70
  -9  -8   7    1.10    0.70
   8   8  -7    3.30    0.80
  -8  -8   7    2.90    0.80
  -8  -8   7    2.80    0.70
   7   8  -7   17.70    1.30
  -7  -8   7   17.90    1.40
  -7  -8   7   18.20    1.20
   6   8  -7   14.70    1.10
  -6  -8   7   12.50    1.20
  -6  -8   7   11.20    1.10
   5   8  -7   78.99    2.60
   5   8  -7   79.99    2.20
   5   8  -7   78.49    2.50
  -5  -8   7   76.49    2.90
  -5  -8   7   77.09    2.50
   4   8  -7    2.00    0.60
   4   8  -7    2.20    0.40
   4   8  -7    2.10    0.50
  -4  -8   7    1.00    0.50
  -4  -8   7    2.00    0.50
   3   8  -7   80.49    2.40
   3   8  -7   80.99    2.50
   3   8  -7   80.99    2.30
  -3  -8   7   76.09    2.40
  -3  -8   7   78.99    2.50
   2   8  -7  100.59    3.00
   2   8  -7   97.49    2.80
   2   8  -7   99.79    2.80
  -2  -8   7   98.09    2.90
  -2  -8   7   98.29    3.00
   1   8  -7   22.60    0.90
   1   8  -7   21.50    0.90
   1   8  -7   24.20    1.20
   1   8  -7   23.40    1.10
  -1  -8   7   19.30    1.30
  -1  -8   7   23.20    1.00
   0   8  -7   87.89    2.50
  -1   8  -7   24.60    1.10
  -1   8  -7   26.00    1.00
  -1   8  -7   25.10    1.00
   1  -8   7   25.70    1.10
  -2   8  -7   48.80    1.50
  -2   8  -7   47.50    1.60
  -2   8  -7   48.20    1.60
   2  -8   7   49.00    1.60
  -3   8  -7   11.00    0.80
  -3   8  -7   10.00    0.80
  -3   8  -7   12.00    0.70
   3  -8   7   12.10    0.80
  -4   8  -7   22.50    1.00
  -4   8  -7   24.50    1.00
  -4   8  -7   23.40    1.10
  -4   8  -7   21.90    1.00
   4  -8   7   23.90    1.00
  -5   8  -7    2.10    0.50
  -5   8  -7    0.70    0.50
   5  -8   7    2.20    0.50
  -6   8  -7   -0.50    0.50
  -6   8  -7    0.50    0.50
  -7   8  -7   42.60    1.70
  -7   8  -7   40.50    1.70
  -8   8  -7   26.50    1.40
   8  -8   7   25.20    1.40
  -9   8  -7   69.89    2.40
   9  -8   7   62.59    3.00
 -10   8  -7  139.49    4.50
  10  -8   7  149.29    4.30
  11  -8   7    3.60    0.90
  12   7  -7    4.20    1.30
 -12  -7   7    3.90    1.10
 -12  -7   7    1.50    1.10
  11   7  -7   27.40    2.00
 -11  -7   7   23.60    2.10
 -11  -7   7   24.70    1.80
  10   7  -7   44.50    2.20
 -10  -7   7   40.20    2.20
 -10  -7   7   44.70    2.00
   9   7  -7    2.40    0.80
  -9  -7   7    1.40    0.70
  -9  -7   7    0.80    0.70
   8   7  -7    0.60    0.70
  -8  -7   7    0.00    0.70
  -8  -7   7    0.70    0.70
   7   7  -7    4.70    0.70
  -7  -7   7    6.80    0.90
  -7  -7   7    4.30    0.70
   6   7  -7   11.30    1.00
  -6  -7   7   12.70    1.10
  -6  -7   7   13.60    1.00
   5   7  -7    3.10    0.40
   5   7  -7    4.10    0.70
  -5  -7   7    4.00    0.60
  -5  -7   7    3.20    0.60
   4   7  -7   77.69    2.30
   4   7  -7   79.49    2.50
   4   7  -7   80.89    2.20
  -4  -7   7   76.69    2.50
  -4  -7   7   77.09    2.40
   3   7  -7  148.09    4.10
   3   7  -7  154.18    4.00
   3   7  -7  149.99    4.20
  -3  -7   7  149.19    4.20
  -3  -7   7  148.49    4.10
   2   7  -7  217.18    5.80
   2   7  -7  212.78    5.70
   2   7  -7  221.08    5.70
  -2  -7   7  209.18    5.80
  -2  -7   7  215.98    5.80
   1   7  -7    6.70    0.60
   1   7  -7    6.90    0.60
   1   7  -7    6.40    0.70
  -1  -7   7    6.70    0.70
  -1  -7   7    6.20    0.80
   0   7  -7  111.19    2.90
   0   7  -7  108.39    3.00
   0   7  -7  107.59    3.10
   0  -7   7  109.39    3.00
   0  -7   7  105.59    3.10
  -1   7  -7    0.50    0.30
  -1   7  -7    1.20    0.30
  -1   7  -7    0.50    0.40
  -1   7  -7    0.80    0.40
   1  -7   7    0.70    0.30
  -2   7  -7   17.10    0.70
  -2   7  -7   16.50    0.80
  -2   7  -7   17.50    0.90
  -2   7  -7   17.50    0.80
   2  -7   7   18.90    0.90
  -3   7  -7  113.59    3.30
  -3   7  -7  115.09    3.20
  -3   7  -7  120.69    3.20
  -3   7  -7  116.29    3.20
   3  -7   7  124.89    3.30
  -4   7  -7    3.10    0.40
  -4   7  -7    3.60    0.60
  -4   7  -7    3.70    0.60
  -4   7  -7    3.20    0.50
   4  -7   7    3.90    0.50
  -5   7  -7    0.60    0.40
  -5   7  -7   -0.20    0.50
   5  -7   7    0.60    0.40
  -6   7  -7   97.39    2.90
  -7   7  -7   63.99    2.20
  -7   7  -7   62.99    2.10
   7  -7   7   62.49    2.00
  -8   7  -7   48.50    1.90
  -9   7  -7    3.50    0.80
   9  -7   7    2.90    0.70
 -10   7  -7    5.50    1.00
  10  -7   7    5.30    0.80
 -11   7  -7    2.40    1.00
  11  -7   7    3.10    0.90
  12   6  -7    6.00    1.30
 -12  -6   7    4.80    1.10
 -12  -6   7    6.70    1.10
  11   6  -7    2.30    1.10
 -11  -6   7    2.80    0.90
 -11  -6   7    2.50    0.90
  10   6  -7   32.70    2.30
 -10  -6   7   29.20    1.90
 -10  -6   7   29.20    2.00
   9   6  -7    8.60    1.20
  -9  -6   7    8.80    1.30
  -9  -6   7    5.90    0.80
   8   6  -7   11.90    1.10
  -8  -6   7   10.10    1.00
  -8  -6   7   11.70    1.20
   7   6  -7    0.40    0.50
  -7  -6   7    0.80    0.60
  -7  -6   7    0.00    0.50
   6   6  -7    0.20    0.30
   6   6  -7   -0.20    0.40
  -6  -6   7    0.00    0.40
  -6  -6   7   -0.40    0.50
   5   6  -7    0.90    0.50
   5   6  -7    0.50    0.40
   5   6  -7    1.10    0.30
  -5  -6   7    0.50    0.50
  -5  -6   7    0.40    0.40
   4   6  -7   97.69    2.90
   4   6  -7   98.59    2.80
   4   6  -7   97.79    2.70
  -4  -6   7   96.09    2.90
  -4  -6   7   97.49    2.80
   3   6  -7   52.69    1.60
   3   6  -7   55.39    1.80
   3   6  -7   55.69    1.60
  -3  -6   7   54.99    1.80
   2   6  -7   69.39    2.00
   2   6  -7   69.29    2.10
   2   6  -7   69.39    2.00
  -2  -6   7   72.39    2.10
  -2  -6   7   67.09    2.10
   1   6  -7   33.50    1.10
   1   6  -7   33.80    1.00
   1   6  -7   32.90    1.20
  -1  -6   7   32.70    1.20
  -1  -6   7   33.60    1.20
   0   6  -7  150.18    4.20
   0   6  -7  158.78    4.30
   0   6  -7  162.48    4.20
   0   6  -7  157.28    4.10
   0  -6   7  160.58    4.30
   0  -6   7  159.18    4.30
  -1   6  -7   36.80    1.20
  -1   6  -7   36.00    1.10
  -1   6  -7   35.80    1.20
  -1   6  -7   37.70    1.20
   1  -6   7   37.90    1.30
   1  -6   7   36.40    1.30
  -2   6  -7   39.40    1.20
  -2   6  -7   38.40    1.40
  -2   6  -7   41.20    1.30
  -2   6  -7   39.80    1.30
   2  -6   7   42.40    1.40
  -3   6  -7   18.10    0.70
  -3   6  -7   16.50    0.80
   3  -6   7   19.60    0.80
  -4   6  -7   26.50    1.10
  -4   6  -7   27.90    1.00
   4  -6   7   26.80    1.00
  -5   6  -7   74.19    2.30
  -5   6  -7   75.59    2.20
   5  -6   7   76.59    2.20
  -6   6  -7   80.59    2.40
  -6   6  -7   77.59    2.40
  -7   6  -7   12.60    0.90
  -7   6  -7   12.80    1.00
   7  -6   7   12.20    0.80
  -8   6  -7    0.60    0.50
  -8   6  -7    0.70    0.50
   8  -6   7    0.70    0.50
  -9   6  -7   18.50    1.30
   9  -6   7   21.00    1.20
 -10   6  -7    6.60    1.00
  10  -6   7    7.00    1.10
 -11   6  -7    4.30    1.00
  11  -6   7    4.60    0.90
  12   5  -7   14.70    2.10
 -12  -5   7   17.40    1.90
 -12  -5   7   15.20    1.60
  11   5  -7   29.60    2.00
 -11  -5   7   26.60    1.70
 -11  -5   7   28.20    1.90
  10   5  -7   21.00    1.60
 -10  -5   7   19.80    1.40
 -10  -5   7   22.90    1.60
   9   5  -7    4.30    0.70
  -9  -5   7    3.50    0.70
  -9  -5   7    4.10    0.70
   8   5  -7   47.20    1.80
  -8  -5   7   47.60    1.90
  -8  -5   7   46.80    1.80
   7   5  -7    3.90    0.60
   7   5  -7    4.60    0.80
  -7  -5   7    2.70    0.50
  -7  -5   7    2.70    0.60
   6   5  -7   14.40    1.30
   6   5  -7   16.60    0.80
   6   5  -7   14.10    1.30
  -6  -5   7   16.00    0.90
   5   5  -7    5.00    0.60
   5   5  -7    4.70    0.50
   5   5  -7    4.30    0.60
  -5  -5   7    3.50    0.60
  -5  -5   7    5.00    0.70
   4   5  -7   30.00    1.00
   4   5  -7   30.40    1.00
   4   5  -7   24.80    1.20
  -4  -5   7   28.80    1.50
  -4  -5   7   25.60    1.20
   3   5  -7   41.90    1.30
   3   5  -7   38.80    1.40
   3   5  -7   39.20    1.30
  -3  -5   7   40.60    1.40
  -3  -5   7   40.40    1.40
   2   5  -7    1.00    0.40
   2   5  -7    1.90    0.30
  -2  -5   7    1.50    0.30
  -2  -5   7    1.40    0.40
   1   5  -7    3.00    0.40
   1   5  -7    2.80    0.40
   1   5  -7    2.50    0.40
  -1  -5   7    4.10    0.50
  -1  -5   7    2.30    0.40
   0   5  -7    1.00    0.30
   0   5  -7    1.00    0.30
   0  -5   7    0.70    0.30
   0  -5   7    1.40    0.30
  -1   5  -7    4.00    0.50
  -1   5  -7    4.20    0.50
  -1   5  -7    4.30    0.50
   1  -5   7    4.40    0.50
  -2   5  -7    3.00    0.40
  -2   5  -7    1.80    0.30
  -2   5  -7    2.40    0.30
  -2   5  -7    3.00    0.50
   2  -5   7    2.60    0.40
  -3   5  -7   65.49    1.80
  -3   5  -7   62.99    1.80
  -3   5  -7   63.99    1.80
  -3   5  -7   62.09    1.90
   3  -5   7   61.79    1.90
  -4   5  -7    5.70    0.50
   4  -5   7    5.80    0.60
  -5   5  -7    0.20    0.30
  -5   5  -7    0.00    0.30
   5  -5   7    0.70    0.40
  -6   5  -7   16.00    0.90
  -6   5  -7   16.70    0.90
   6  -5   7   15.30    1.20
  -7   5  -7    0.70    0.50
  -7   5  -7    0.50    0.50
   7  -5   7    0.20    0.40
  -8   5  -7    9.00    1.00
  -8   5  -7   10.70    0.90
   8  -5   7    9.80    0.90
  -9   5  -7   14.90    1.20
   9  -5   7   13.90    1.00
   9  -5   7   15.10    1.10
 -10   5  -7   -0.80    0.70
  10  -5   7   -0.90    0.60
  11  -5   7    0.80    0.80
  12  -5   7    6.00    1.30
  13   4  -7    4.40    1.40
 -13  -4   7    2.70    1.10
  12   4  -7   30.90    2.10
 -12  -4   7   25.30    1.70
 -12  -4   7   27.60    2.10
  11   4  -7   15.20    1.70
 -11  -4   7   17.40    1.60
 -11  -4   7   11.70    1.30
  10   4  -7   25.70    1.60
 -10  -4   7   28.60    1.50
 -10  -4   7   27.80    1.60
   9   4  -7   24.40    1.40
  -9  -4   7   24.30    1.30
  -9  -4   7   25.10    1.40
   8   4  -7  391.26   10.00
   8   4  -7  384.46   10.20
  -8  -4   7  385.36   10.20
  -8  -4   7  383.86   10.10
   7   4  -7   19.10    1.00
   7   4  -7   18.10    0.80
  -7  -4   7   18.20    1.10
  -7  -4   7   15.80    1.00
   6   4  -7 1414.06   35.90
   6   4  -7 1388.96   35.70
   6   4  -7 1412.16   35.90
  -6  -4   7 1418.76   35.90
  -6  -4   7 1424.76   35.90
   5   4  -7  349.87    9.10
   5   4  -7  355.96    9.10
   5   4  -7  356.96    9.00
  -5  -4   7  355.66    9.20
  -5  -4   7  323.77    9.30
   4   4  -7  481.55   12.30
   4   4  -7  486.45   12.20
   4   4  -7  469.35   12.20
  -4  -4   7  481.05   12.30
  -4  -4   7  470.35   12.30
   3   4  -7  235.88    6.20
   3   4  -7  236.08    6.10
   3   4  -7  238.78    6.10
  -3  -4   7  237.68    6.20
  -3  -4   7  231.78    6.20
   2   4  -7   55.79    1.60
   2   4  -7   62.09    1.70
   2   4  -7   59.69    1.80
  -2  -4   7   61.39    1.80
   1   4  -7  153.88    4.10
   1   4  -7  152.68    4.10
  -1  -4   7  155.48    4.10
  -1  -4   7  153.88    4.10
   0   4  -7  234.78    6.00
   0   4  -7  225.48    6.00
   0  -4   7  229.18    6.00
   0  -4   7  232.18    6.00
  -1   4  -7    5.00    0.40
  -1   4  -7    5.70    0.50
  -1   4  -7    5.00    0.50
   1  -4   7    5.60    0.50
  -2   4  -7  189.88    5.00
  -2   4  -7  191.18    4.90
  -2   4  -7  183.98    4.90
   2  -4   7  187.38    5.00
  -3   4  -7    2.40    0.30
  -3   4  -7    1.70    0.40
  -3   4  -7    1.70    0.20
  -4   4  -7   88.59    2.60
  -4   4  -7   90.19    2.50
   4  -4   7   93.69    2.60
  -5   4  -7   29.00    1.10
   5  -4   7   29.50    1.10
  -6   4  -7   59.89    1.90
  -6   4  -7   59.29    1.90
   6  -4   7   61.59    1.90
  -7   4  -7   27.10    1.10
  -7   4  -7   25.70    1.20
   7  -4   7   28.20    1.20
  -8   4  -7   27.60    1.30
  -8   4  -7   27.80    1.20
   8  -4   7   30.50    1.30
  -9   4  -7    0.80    0.60
   9  -4   7    1.10    0.50
  10  -4   7    1.70    0.80
  10  -4   7    1.70    0.60
  10  -4   7    2.50    0.70
  11  -4   7    2.50    0.90
  12  -4   7    4.30    1.10
  13   3  -7   24.60    2.30
 -13  -3   7   31.30    2.10
  12   3  -7    0.30    1.00
 -12  -3   7    0.40    0.80
  11   3  -7    3.10    1.20
 -11  -3   7    2.10    0.80
 -11  -3   7    2.10    0.70
  10   3  -7    3.70    0.80
 -10  -3   7    3.60    0.70
 -10  -3   7    4.20    0.70
   9   3  -7    1.50    0.50
   9   3  -7    0.60    0.60
  -9  -3   7    0.40    0.50
  -9  -3   7    1.00    0.60
   8   3  -7    9.10    0.80
   8   3  -7    9.00    0.90
  -8  -3   7    9.80    1.00
  -8  -3   7    7.20    0.80
   7   3  -7  188.28    5.00
  -7  -3   7  190.38    5.20
  -7  -3   7  187.28    5.10
   6   3  -7  659.13   16.90
   6   3  -7  659.63   17.10
  -6  -3   7  675.83   17.10
   5   3  -7   50.89    1.70
   5   3  -7   47.60    1.50
  -5  -3   7   49.30    1.70
  -5  -3   7   49.80    1.60
   4   3  -7  926.91   23.30
   4   3  -7  895.21   23.20
   4   3  -7  922.71   23.20
  -4  -3   7  912.21   23.30
   3   3  -7    3.50    0.40
   3   3  -7    3.20    0.40
  -3  -3   7    3.50    0.50
   2   3  -7    0.20    0.30
   2   3  -7    0.10    0.20
   2   3  -7    0.30    0.20
  -2  -3   7    0.10    0.30
  -2  -3   7    0.10    0.30
   1   3  -7 1106.99   27.90
   1   3  -7 1128.39   27.90
   1   3  -7 1026.90   27.90
  -1  -3   7 1113.49   27.90
  -1  -3   7 1135.29   27.90
   0   3  -7  334.07    8.70
   0   3  -7  349.37    8.90
   0  -3   7  339.87    8.80
   0  -3   7  335.57    8.70
  -1   3  -7  379.16    9.90
  -1   3  -7  397.36    9.90
  -1   3  -7  380.56    9.90
   1  -3   7  386.86    9.90
  -2   3  -7   14.60    0.60
  -2   3  -7   14.10    0.60
  -2   3  -7   13.90    0.60
   2  -3   7   14.60    0.70
  -3   3  -7   45.60    1.30
  -3   3  -7   44.90    1.40
   3  -3   7   45.90    1.40
  -4   3  -7   54.19    1.60
  -4   3  -7   51.99    1.60
   4  -3   7   52.39    1.60
  -5   3  -7    2.00    0.40
  -5   3  -7    2.20    0.40
  -5   3  -7    2.40    0.40
  -6   3  -7  532.65   14.50
  -6   3  -7  571.04   14.40
  -6   3  -7  578.44   14.40
  -7   3  -7    0.50    0.40
  -7   3  -7    0.30    0.40
  -7   3  -7    0.20    0.50
  -8   3  -7   -0.30    0.40
  -8   3  -7    0.40    0.50
   8  -3   7   -0.30    0.50
  -9   3  -7    3.50    0.60
   9  -3   7    2.20    0.50
   9  -3   7    2.50    0.60
 -10   3  -7    5.60    0.80
  10  -3   7    6.00    0.90
  11  -3   7   12.00    1.50
  12  -3   7   22.60    2.00
  13   2  -7    0.70    1.10
 -13  -2   7   -0.30    0.80
  12   2  -7    0.40    0.90
 -12  -2   7    1.40    0.80
  11   2  -7    1.30    0.80
 -11  -2   7    1.20    0.70
 -11  -2   7    1.00    0.70
 -10  -2   7    0.10    0.60
 -10  -2   7    0.00    0.60
   9   2  -7  110.29    3.10
  -9  -2   7  107.59    3.30
  -9  -2   7  107.59    3.30
  -9  -2   7  110.19    3.20
   8   2  -7   14.90    0.90
  -8  -2   7   13.90    0.90
  -8  -2   7   14.10    1.00
  -8  -2   7   13.10    0.90
   7   2  -7    0.10    0.40
  -7  -2   7    0.10    0.40
  -7  -2   7    0.60    0.50
   6   2  -7    2.50    0.50
   6   2  -7    0.90    0.40
  -6  -2   7    1.40    0.50
  -6  -2   7    1.80    0.40
  -6  -2   7    1.30    0.40
   5   2  -7   82.39    2.40
   5   2  -7   79.59    2.30
  -5  -2   7   83.49    2.50
  -5  -2   7   83.29    2.40
  -5  -2   7   84.19    2.40
   4   2  -7   85.09    2.50
   4   2  -7   83.99    2.40
  -4  -2   7   84.89    2.30
  -4  -2   7   84.99    2.40
  -4  -2   7   85.09    2.50
   3   2  -7   95.49    2.70
   3   2  -7   97.29    2.70
  -3  -2   7   99.29    2.60
  -3  -2   7   96.99    2.70
  -3  -2   7   97.29    2.70
   2   2  -7   39.00    1.20
   2   2  -7   37.60    1.20
  -2  -2   7   39.00    1.20
  -2  -2   7   40.50    1.30
   1   2  -7  169.98    4.50
   1   2  -7  175.88    4.50
   1   2  -7  158.88    4.50
  -1  -2   7  174.28    4.50
  -1  -2   7  171.28    4.50
   0   2  -7   -0.10    0.20
   0   2  -7   -0.10    0.20
   0  -2   7    0.00    0.20
   0  -2   7   -0.30    0.20
  -1   2  -7   46.30    1.40
  -1   2  -7   49.60    1.40
  -1   2  -7   47.60    1.40
   1  -2   7   49.40    1.50
  -2   2  -7  192.88    5.10
  -2   2  -7  201.28    5.10
  -2   2  -7  195.98    5.10
   2  -2   7  194.28    5.20
  -3   2  -7  194.28    5.10
  -3   2  -7  187.88    5.00
   3  -2   7  193.58    5.00
  -4   2  -7  116.49    3.20
  -4   2  -7  117.49    3.30
   4  -2   7  118.19    3.20
  -5   2  -7  275.87    7.20
  -5   2  -7  266.87    7.30
   5  -2   7  283.67    7.20
  -6   2  -7   10.70    0.80
   6  -2   7   12.30    0.80
  -7   2  -7   47.10    1.60
  -7   2  -7   45.70    1.50
   7  -2   7   46.60    1.60
  -8   2  -7   13.20    1.00
  -8   2  -7   11.70    0.80
   8  -2   7   10.90    1.00
  -9   2  -7   20.90    1.30
   9  -2   7   18.80    1.30
 -10   2  -7    0.80    0.70
  10  -2   7    0.70    0.70
 -11   2  -7   53.09    2.20
  11  -2   7   50.59    2.30
  12  -2   7   27.80    2.20
  13   1  -7    3.10    1.10
 -13  -1   7    4.90    0.90
  12   1  -7    0.50    0.80
 -12  -1   7    0.70    0.70
 -11  -1   7    1.90    0.80
  10   1  -7   10.10    1.00
 -10  -1   7    9.90    1.70
 -10  -1   7    9.00    1.10
 -10  -1   7   10.70    1.00
   9   1  -7   42.50    1.50
  -9  -1   7   42.00    1.70
  -9  -1   7   40.80    1.50
  -9  -1   7   40.10    1.70
   8   1  -7   31.70    1.20
  -8  -1   7   31.10    1.40
  -8  -1   7   30.00    1.40
   7   1  -7    6.90    0.70
  -7  -1   7    6.00    0.70
  -7  -1   7    6.20    0.60
  -7  -1   7    5.70    0.80
   6   1  -7    3.20    0.40
  -6  -1   7    3.90    0.60
  -6  -1   7    3.40    0.50
  -6  -1   7    3.60    0.50
   5   1  -7   37.80    1.40
   5   1  -7   38.70    1.30
  -5  -1   7   39.20    1.30
  -5  -1   7   38.70    1.40
  -5  -1   7   39.50    1.30
   4   1  -7    1.80    0.40
   4   1  -7    1.40    0.30
  -4  -1   7    1.50    0.40
  -4  -1   7    1.70    0.30
  -4  -1   7    2.20    0.30
   3   1  -7  193.58    5.20
   3   1  -7  199.68    5.20
  -3  -1   7  194.48    5.20
  -3  -1   7  205.98    5.10
  -3  -1   7  194.88    5.20
   2   1  -7  699.43   18.00
   2   1  -7  710.73   18.00
  -2  -1   7  705.03   18.00
  -2  -1   7  734.63   17.90
  -2  -1   7  689.23   18.00
   1   1  -7  251.17    6.50
   1   1  -7  243.18    6.50
   1   1  -7  256.27    6.50
  -1  -1   7  248.88    6.50
  -1  -1   7  245.38    6.50
   0   1  -7  504.15   12.60
   0   1  -7  497.25   12.60
   0  -1   7  482.05   12.60
   0  -1   7  490.35   12.60
  -1   1  -7   40.80    1.20
  -1   1  -7   39.10    1.20
  -1   1  -7   39.50    1.20
   1  -1   7   39.60    1.20
  -2   1  -7   88.89    2.40
  -2   1  -7   89.69    2.50
  -2   1  -7   81.99    2.50
  -2   1  -7   88.39    2.40
   2  -1   7   93.19    2.40
  -3   1  -7  270.57    7.10
  -3   1  -7  271.17    7.00
  -3   1  -7  260.17    6.90
   3  -1   7  281.67    7.00
  -4   1  -7   -0.20    0.40
   4  -1   7    0.10    0.30
  -5   1  -7   79.49    2.20
  -5   1  -7   74.39    2.40
   5  -1   7   73.59    2.20
  -6   1  -7  138.49    3.90
  -6   1  -7  139.79    3.80
   6  -1   7  146.09    3.90
  -7   1  -7    0.70    0.50
  -7   1  -7    1.20    0.40
   7  -1   7    1.60    0.50
  -8   1  -7   22.90    1.20
   8  -1   7   21.30    1.20
  -9   1  -7   36.40    1.60
   9  -1   7   35.20    1.70
 -10   1  -7    9.90    1.30
  10  -1   7   11.50    1.40
 -11   1  -7   37.90    2.00
  11  -1   7   33.30    2.10
  12  -1   7   17.90    2.10
  13   0  -7    0.10    1.00
 -13   0   7   -0.10    0.80
 -12   0   7    0.40    0.70
 -12   0   7    2.30    0.90
  11   0  -7    1.10    0.60
 -11   0   7    0.60    0.70
  10   0  -7  106.29    3.10
 -10   0   7  102.99    3.30
 -10   0   7  100.89    3.40
   9   0  -7   53.29    1.80
  -9   0   7   52.39    2.00
  -9   0   7   51.09    1.90
   8   0  -7  165.08    4.50
  -8   0   7  165.78    4.40
  -8   0   7  166.38    4.60
  -8   0   7  160.88    4.60
   7   0  -7   79.99    2.40
  -7   0   7   81.09    2.30
  -7   0   7   80.69    2.50
  -7   0   7   83.79    2.50
   6   0  -7   63.69    2.10
   6   0  -7   68.19    2.00
  -6   0   7   66.89    1.90
  -6   0   7   62.99    2.10
  -6   0   7   65.19    2.00
   5   0  -7   -0.20    0.30
   5   0  -7   -0.10    0.30
  -5   0   7    0.20    0.30
  -5   0   7   -0.10    0.30
  -5   0   7   -0.40    0.30
   4   0  -7  324.67    8.50
   4   0  -7  323.47    8.40
  -4   0   7  331.17    8.40
  -4   0   7  322.47    8.40
  -4   0   7  322.27    8.50
   3   0  -7  510.55   13.00
   3   0  -7  502.45   13.00
  -3   0   7  505.45   13.00
  -3   0   7  518.75   13.00
  -3   0   7  503.65   13.00
   2   0  -7   31.90    1.00
   2   0  -7   32.80    1.10
  -2   0   7   32.00    1.00
  -2   0   7   33.80    1.00
   1   0  -7  353.46    9.20
   1   0  -7  351.06    9.20
  -1   0   7  375.96    9.10
  -1   0   7  358.36    9.20
  -1   0   7  356.66    9.20
   0   0  -7    8.30    0.50
   0   0  -7    7.40    0.50
   0   0   7    7.30    0.50
   0   0   7    8.00    0.50
  -1   0  -7  138.49    3.80
  -1   0  -7  142.29    3.70
  -1   0  -7  138.29    3.70
  -1   0  -7  142.49    3.70
   1   0   7  150.28    3.70
   1   0   7  136.99    3.70
  -2   0  -7 1995.10   50.19
  -2   0  -7 1982.40   50.19
  -2   0  -7 1990.10   50.09
  -2   0  -7 1930.21   50.29
   2   0   7 2033.00   50.39
  -3   0  -7  110.39    2.90
  -3   0  -7  106.99    2.90
  -3   0  -7  108.39    2.90
  -3   0  -7  106.09    3.00
   3   0   7  108.49    2.90
  -4   0  -7   13.80    0.80
  -4   0  -7   14.70    0.70
   4   0   7   14.60    0.70
  -5   0  -7    4.30    0.50
  -5   0  -7    4.90    0.60
   5   0   7    5.40    0.60
  -6   0  -7   72.69    2.20
  -6   0  -7   70.69    2.00
  -7   0  -7   40.30    1.50
  -7   0  -7   36.80    1.30
   7   0   7   40.00    1.50
  -8   0  -7   55.19    2.00
   8   0   7   55.59    2.10
  -9   0  -7   14.90    1.20
   9   0   7   13.50    1.30
 -10   0  -7    2.00    0.90
  10   0   7    1.90    0.80
 -11   0  -7   44.80    2.10
  11   0   7   44.10    2.30
 -12   0  -7   30.10    2.10
  12   0   7   34.80    2.30
 -13   1   7   22.20    1.60
 -13   1   7   21.70    1.90
 -12   1   7   15.00    1.40
 -12   1   7   17.20    1.60
  11  -1  -7    3.60    0.70
 -11   1   7    1.40    0.80
  10  -1  -7    2.10    0.50
 -10   1   7    0.50    0.60
 -10   1   7    1.20    0.70
   9  -1  -7   25.10    1.20
  -9   1   7   23.90    1.30
  -9   1   7   24.60    1.30
   8  -1  -7   59.29    1.90
  -8   1   7   58.09    2.00
  -8   1   7   57.79    2.10
  -8   1   7   61.79    1.80
   7  -1  -7  137.59    3.80
  -7   1   7  138.89    3.90
  -7   1   7  138.59    3.70
  -7   1   7  134.49    3.90
   6  -1  -7   37.50    1.40
  -6   1   7   34.10    1.40
  -6   1   7   36.20    1.30
  -6   1   7   37.10    1.20
   5  -1  -7    0.30    0.30
   5  -1  -7   -0.50    0.40
  -5   1   7    0.30    0.30
  -5   1   7    0.00    0.40
  -5   1   7    0.30    0.30
   4  -1  -7   63.09    1.90
   4  -1  -7   64.89    2.00
  -4   1   7   66.29    1.80
  -4   1   7   66.19    1.90
  -4   1   7   64.19    2.00
   3  -1  -7  278.67    7.30
   3  -1  -7  274.67    7.30
  -3   1   7  291.97    7.20
  -3   1   7  280.87    7.30
  -3   1   7  272.77    7.20
   2  -1  -7   16.30    0.70
   2  -1  -7   15.70    0.70
  -2   1   7   14.90    0.60
  -2   1   7   15.30    0.60
  -2   1   7   16.20    0.70
   1  -1  -7   54.79    1.60
   1  -1  -7   53.59    1.60
  -1   1   7   54.19    1.60
  -1   1   7   54.09    1.60
  -1   1   7   55.09    1.50
   0  -1  -7  299.07    7.60
   0  -1  -7  283.57    7.60
   0  -1  -7  294.87    7.60
   0  -1  -7  294.37    7.70
   0   1   7  311.37    7.60
   0   1   7  293.37    7.70
  -1  -1  -7   31.80    1.00
  -1  -1  -7   30.70    1.00
  -1  -1  -7   29.00    1.00
  -1  -1  -7   30.90    1.00
   1   1   7   32.60    1.00
   1   1   7   30.30    1.00
  -2  -1  -7  152.58    4.00
  -2  -1  -7  149.69    4.10
  -2  -1  -7  150.28    4.00
  -2  -1  -7  146.89    4.00
   2   1   7  159.28    4.00
  -3  -1  -7   47.80    1.40
  -3  -1  -7   46.70    1.40
  -3  -1  -7   47.10    1.40
  -3  -1  -7   45.90    1.50
   3   1   7   47.00    1.40
  -4  -1  -7   19.20    0.70
  -4  -1  -7   19.60    0.80
   4   1   7   19.40    0.80
  -5  -1  -7    1.40    0.40
  -5  -1  -7    2.00    0.30
   5   1   7    2.10    0.40
  -6  -1  -7    1.30    0.40
  -6  -1  -7    1.40    0.30
   6   1   7    1.50    0.40
  -7  -1  -7    6.60    0.90
   7   1   7    6.80    0.80
  -8  -1  -7   15.40    1.20
   8   1   7   15.70    1.20
  -9  -1  -7    0.80    0.70
   9   1   7    1.20    0.70
 -10  -1  -7    4.90    0.90
  10   1   7    4.60    1.10
 -11  -1  -7    1.40    0.90
  11   1   7    1.70    0.90
 -12  -1  -7    1.40    1.10
  12   1   7    0.20    1.10
 -13   2   7    8.90    1.30
 -13   2   7   12.10    1.40
  12  -2  -7   11.20    1.30
 -12   2   7    9.20    1.30
 -12   2   7    9.60    1.50
  11  -2  -7  123.99    3.60
 -11   2   7  116.09    4.00
 -11   2   7  119.19    4.00
  10  -2  -7    0.20    0.60
 -10   2   7    0.20    0.60
 -10   2   7   -0.50    0.60
   9  -2  -7   21.50    1.10
  -9   2   7   20.10    1.30
  -9   2   7   21.40    2.00
   8  -2  -7   12.90    0.90
  -8   2   7   13.80    1.00
  -8   2   7   14.70    1.00
   7  -2  -7   48.60    1.60
  -7   2   7   47.40    1.70
  -7   2   7   51.59    1.50
  -7   2   7   48.10    1.70
   6  -2  -7    1.70    0.40
   6  -2  -7    1.70    0.50
  -6   2   7    1.80    0.50
  -6   2   7    2.10    0.40
  -6   2   7    2.40    0.30
   5  -2  -7   66.19    2.00
   5  -2  -7   63.29    2.00
  -5   2   7   68.49    1.80
  -5   2   7   68.19    2.00
  -5   2   7   64.39    2.10
   4  -2  -7   63.09    2.00
   4  -2  -7   65.49    2.00
  -4   2   7   67.89    2.10
  -4   2   7   71.29    2.00
  -4   2   7   68.09    1.90
   3  -2  -7   -0.10    0.30
   3  -2  -7    0.10    0.30
  -3   2   7   -0.40    0.30
  -3   2   7    0.30    0.30
  -3   2   7    0.40    0.20
   2  -2  -7   14.80    0.70
   2  -2  -7   14.60    0.70
  -2   2   7   14.70    0.60
  -2   2   7   15.40    0.60
  -2   2   7   14.30    0.80
   1  -2  -7  544.85   13.90
   1  -2  -7  537.85   13.90
  -1   2   7  554.14   13.90
  -1   2   7  538.95   13.90
   0  -2  -7  131.29    3.50
   0  -2  -7  130.69    3.60
   0  -2  -7  122.99    3.50
   0  -2  -7  131.49    3.50
   0   2   7  134.09    3.60
   0   2   7  136.59    3.50
  -1  -2  -7  323.07    8.30
  -1  -2  -7  320.47    8.30
  -1  -2  -7  324.47    8.30
   1   2   7  335.27    8.30
   1   2   7  309.57    8.30
  -2  -2  -7   62.49    1.80
  -2  -2  -7   62.89    1.90
  -2  -2  -7   63.69    1.90
  -2  -2  -7   61.79    1.90
   2   2   7   66.59    1.90
  -3  -2  -7   -0.10    0.20
  -3  -2  -7   -0.10    0.30
  -3  -2  -7    0.20    0.30
  -3  -2  -7    0.20    0.50
   3   2   7   -0.20    0.30
  -4  -2  -7    2.00    0.40
  -4  -2  -7    1.30    0.30
  -4  -2  -7    1.30    0.30
  -4  -2  -7    1.40    0.40
   4   2   7    1.40    0.40
  -5  -2  -7  120.39    3.30
  -5  -2  -7  122.89    3.30
  -5  -2  -7  122.09    3.50
  -5  -2  -7  122.19    3.20
  -6  -2  -7    5.10    0.80
   6   2   7    4.10    0.70
  -7  -2  -7   24.50    1.30
   7   2   7   24.40    1.30
  -8  -2  -7    0.30    0.60
   8   2   7    1.20    0.60
  -9  -2  -7   -0.10    0.70
   9   2   7    1.40    0.80
 -10  -2  -7    0.90    0.80
  10   2   7    0.10    0.80
 -11  -2  -7   -1.00    0.90
  11   2   7    0.50    0.90
 -12  -2  -7   -0.70    1.10
 -13   3   7    0.30    0.70
 -13   3   7    0.70    1.00
  12  -3  -7   16.00    1.40
 -12   3   7   13.80    1.60
 -12   3   7   10.50    1.30
  11  -3  -7   14.50    1.20
 -11   3   7   13.10    1.60
 -11   3   7   11.00    1.40
  10  -3  -7   84.09    2.70
 -10   3   7   83.79    2.90
 -10   3   7   82.19    2.70
   9  -3  -7   22.60    1.20
  -9   3   7   24.10    1.40
  -9   3   7   25.30    1.40
   8  -3  -7   -0.10    0.40
  -8   3   7    0.80    0.50
  -8   3   7    0.10    0.50
   7  -3  -7  317.47    8.30
  -7   3   7  316.17    8.40
  -7   3   7  313.37    8.40
   6  -3  -7  111.59    3.20
  -6   3   7  116.09    3.30
   5  -3  -7  158.98    4.50
   5  -3  -7  161.88    4.40
  -5   3   7  169.48    4.20
  -5   3   7  163.78    4.50
  -5   3   7  160.58    4.50
   4  -3  -7    0.10    0.40
   4  -3  -7    1.20    0.30
  -4   3   7    1.00    0.20
  -4   3   7    1.20    0.40
   3  -3  -7  266.37    7.00
   3  -3  -7  262.97    7.00
  -3   3   7  263.77    6.90
  -3   3   7  272.57    7.00
  -3   3   7  266.67    7.00
   2  -3  -7 2361.46   59.99
   2  -3  -7 2327.37   59.69
  -2   3   7 2400.86   59.69
  -2   3   7 2413.36   59.99
  -2   3   7 2309.57   59.89
   1  -3  -7    0.70    0.30
   1  -3  -7    1.10    0.20
   1  -3  -7    0.90    0.30
  -1   3   7    0.20    0.30
   0  -3  -7   33.60    1.20
   0  -3  -7   36.50    1.10
   0  -3  -7   35.60    1.10
   0   3   7   35.30    1.20
   0   3   7   34.10    1.20
  -1  -3  -7   38.40    1.20
  -1  -3  -7   37.00    1.30
  -1  -3  -7   37.50    1.30
  -1  -3  -7   37.70    1.30
   1   3   7   39.50    1.30
   1   3   7   38.40    1.30
  -2  -3  -7   75.09    2.20
  -2  -3  -7   74.49    2.20
  -2  -3  -7   75.69    2.10
  -2  -3  -7   76.39    2.20
   2   3   7   78.69    2.20
  -3  -3  -7  159.48    4.80
  -3  -3  -7  169.98    4.40
  -3  -3  -7  163.58    4.70
  -3  -3  -7  171.88    4.50
   3   3   7  173.08    4.60
  -4  -3  -7    1.20    0.30
  -4  -3  -7    0.60    0.40
  -4  -3  -7    0.80    0.40
  -4  -3  -7    1.30    0.40
   4   3   7    0.10    0.40
  -5  -3  -7   28.00    1.10
  -5  -3  -7   27.40    1.20
  -5  -3  -7   27.90    1.00
   5   3   7   27.20    1.20
  -6  -3  -7    0.40    0.40
  -6  -3  -7    0.60    0.50
   6   3   7    0.80    0.50
  -7  -3  -7    0.30    0.50
   7   3   7    0.20    0.60
  -8  -3  -7   53.69    2.10
   8   3   7   51.89    2.10
  -9  -3  -7   -0.50    0.70
   9   3   7   -0.20    0.80
 -10  -3  -7   12.40    1.50
  10   3   7   11.60    1.50
 -11  -3  -7    6.50    1.10
  11   3   7    9.70    1.70
  13  -4  -7    5.70    1.00
 -13   4   7    5.70    0.90
 -13   4   7    6.90    1.20
  12  -4  -7   26.90    1.60
 -12   4   7   27.50    1.70
 -12   4   7   24.40    1.80
  11  -4  -7   27.70    1.90
 -11   4   7   30.00    1.60
 -11   4   7   29.20    1.80
  10  -4  -7    6.10    0.80
 -10   4   7    4.20    0.80
 -10   4   7    4.50    0.80
   9  -4  -7   12.80    1.00
  -9   4   7   10.90    1.40
  -9   4   7   13.70    1.20
   8  -4  -7   15.50    1.00
  -8   4   7   15.90    1.20
  -8   4   7   15.80    1.10
   7  -4  -7   70.69    2.20
  -7   4   7   71.29    2.30
  -7   4   7   69.79    2.30
   6  -4  -7  111.39    3.30
  -6   4   7  115.09    3.30
  -6   4   7  116.69    3.30
   5  -4  -7   31.40    1.20
   5  -4  -7   32.50    1.30
  -5   4   7   32.20    1.30
   4  -4  -7  434.86   11.00
   4  -4  -7  360.36   11.30
  -4   4   7  432.56   11.00
  -4   4   7  437.26   11.00
  -4   4   7  443.76   10.70
   3  -4  -7  139.49    3.80
   3  -4  -7  139.99    3.90
  -3   4   7  135.69    3.70
  -3   4   7  139.39    3.80
  -3   4   7  143.39    3.90
   2  -4  -7  194.18    5.10
   2  -4  -7  191.48    5.20
  -2   4   7  203.08    5.20
  -2   4   7  191.68    5.20
  -2   4   7  191.08    5.10
   1  -4  -7    6.00    0.50
   1  -4  -7    4.80    0.70
   1  -4  -7    5.20    0.50
  -1   4   7    4.50    0.70
  -1   4   7    4.30    0.60
   0  -4  -7 1853.81   46.30
   0  -4  -7 1821.62   46.40
   0  -4  -7 1790.22   46.40
   0   4   7 1843.82   46.40
   0   4   7 1862.61   46.50
  -1  -4  -7  314.37    8.30
  -1  -4  -7  325.17    8.20
  -1  -4  -7  314.97    8.30
   1   4   7  324.47    8.30
   1   4   7  310.67    8.30
  -2  -4  -7  270.97    7.10
  -2  -4  -7  249.78    7.50
  -2  -4  -7  273.97    7.00
   2   4   7  287.57    7.20
  -3  -4  -7   38.40    1.10
  -3  -4  -7   35.70    1.30
  -3  -4  -7   38.00    1.40
   3   4   7   36.20    1.40
  -4  -4  -7   13.70    0.90
  -4  -4  -7   12.20    0.90
   4   4   7   12.70    0.90
  -5  -4  -7   44.50    1.60
  -5  -4  -7   42.30    1.60
   5   4   7   43.30    1.60
  -6  -4  -7   14.60    1.10
   6   4   7   15.20    1.10
  -7  -4  -7   11.10    1.10
  -7  -4  -7   11.60    0.90
   7   4   7   13.10    1.20
  -8  -4  -7   89.39    3.10
   8   4   7   91.39    3.10
  -9  -4  -7    2.30    0.90
   9   4   7    2.90    0.90
 -10  -4  -7   28.50    1.90
  10   4   7   29.20    2.00
 -11  -4  -7    1.70    1.10
  13  -5  -7    6.20    1.10
 -13   5   7    4.50    0.90
 -13   5   7    6.50    1.20
  12  -5  -7    3.00    0.80
 -12   5   7    3.70    1.10
 -12   5   7    2.40    0.80
  11  -5  -7   12.50    1.30
 -11   5   7   16.60    1.50
 -11   5   7   16.70    1.50
  10  -5  -7    0.00    0.60
 -10   5   7   -0.20    0.70
 -10   5   7   -0.40    0.60
   9  -5  -7    2.40    0.90
  -9   5   7    2.20    0.70
  -9   5   7    2.10    0.70
   8  -5  -7    0.90    0.60
  -8   5   7    1.40    0.60
  -8   5   7    0.80    0.60
   7  -5  -7  128.89    3.70
  -7   5   7  130.99    3.80
  -7   5   7  131.29    3.80
   6  -5  -7   12.50    0.90
  -6   5   7   12.90    1.00
  -6   5   7   14.00    0.90
   5  -5  -7  186.58    5.10
   5  -5  -7  188.58    5.20
  -5   5   7  189.08    5.20
  -5   5   7  188.48    5.30
   4  -5  -7    0.50    0.40
   4  -5  -7    0.70    0.40
  -4   5   7    0.50    0.40
   3  -5  -7   58.99    1.90
  -3   5   7   57.19    1.90
  -3   5   7   59.59    1.90
  -3   5   7   55.79    1.60
   2  -5  -7  590.64   14.90
   2  -5  -7  584.64   14.80
   2  -5  -7  574.84   14.70
  -2   5   7  578.14   14.90
  -2   5   7  566.14   14.90
   1  -5  -7  249.88    6.40
   1  -5  -7  236.88    6.50
   1  -5  -7  240.28    6.30
  -1   5   7  248.58    6.50
  -1   5   7  239.78    6.50
   0  -5  -7  263.17    7.00
   0  -5  -7  262.07    7.10
   0  -5  -7  297.67    7.00
   0   5   7  275.77    7.10
   0   5   7  248.28    7.10
  -1  -5  -7  193.68    4.90
  -1  -5  -7  185.68    5.10
  -1  -5  -7  183.58    5.00
   1   5   7  186.28    5.10
  -2  -5  -7  266.37    7.40
  -2  -5  -7  301.37    7.20
  -2  -5  -7  274.17    7.40
  -3  -5  -7   23.90    1.10
  -3  -5  -7   21.00    1.10
  -3  -5  -7   23.10    0.80
   3   5   7   21.10    1.10
  -5  -5  -7   14.20    1.00
  -6  -5  -7    1.40    0.60
  -6  -5  -7    1.20    0.80
   6   5   7    1.10    0.60
  -7  -5  -7  147.69    4.10
  -7  -5  -7  135.99    4.20
   7   5   7  140.49    4.30
  -8  -5  -7   16.70    1.40
   8   5   7   22.00    1.60
  -9  -5  -7   16.80    1.60
   9   5   7   16.10    1.60
 -10  -5  -7    4.60    1.10
  13  -6  -7   15.20    1.80
 -13   6   7   18.50    3.00
  12  -6  -7   42.90    2.00
 -12   6   7   41.60    2.00
 -12   6   7   37.90    2.30
  11  -6  -7    4.30    0.80
 -11   6   7    5.00    1.00
 -11   6   7    8.70    1.40
  10  -6  -7    0.10    0.60
 -10   6   7    1.10    0.70
 -10   6   7    0.80    0.80
   9  -6  -7   -0.20    0.60
  -9   6   7   -0.20    0.80
  -9   6   7   -0.30    0.60
   8  -6  -7   -0.20    0.60
  -8   6   7    0.00    0.60
  -8   6   7    0.20    0.60
   7  -6  -7   55.69    2.10
  -7   6   7   51.99    2.00
  -7   6   7   52.69    2.00
   6  -6  -7   18.00    1.10
  -6   6   7   15.80    1.10
  -6   6   7   15.40    1.10
   5  -6  -7   30.40    1.20
  -5   6   7   27.40    1.30
  -5   6   7   30.50    1.40
   4  -6  -7   14.30    0.80
   4  -6  -7   15.40    1.10
  -4   6   7   12.70    0.90
  -4   6   7   15.60    1.10
   3  -6  -7   35.40    1.30
   3  -6  -7   35.20    1.50
  -3   6   7   35.40    1.40
  -3   6   7   34.40    1.40
  -3   6   7   35.80    1.10
   2  -6  -7   39.50    1.50
   2  -6  -7   38.20    1.20
  -2   6   7   42.00    1.60
  -2   6   7   39.80    1.50
   1  -6  -7   32.00    1.10
   1  -6  -7   32.40    1.30
   1  -6  -7   33.50    1.20
  -1   6   7   30.50    1.40
  -1  -6  -7    3.80    0.70
  -1  -6  -7    3.60    0.60
  -1  -6  -7    3.40    0.50
   1   6   7    4.70    0.80
  -2  -6  -7  106.99    3.10
  -2  -6  -7  107.19    2.90
  -2  -6  -7  105.09    3.10
   2   6   7  105.99    3.20
  -3  -6  -7   34.10    1.40
  -3  -6  -7   33.80    1.40
   3   6   7   32.80    1.50
  -4  -6  -7  126.69    3.70
  -4  -6  -7  130.49    3.70
   4   6   7  125.29    3.80
  -5  -6  -7  138.69    4.00
  -5  -6  -7  129.39    4.10
   5   6   7  137.49    4.10
  -6  -6  -7    2.70    0.70
  -6  -6  -7    2.40    0.60
   6   6   7    4.00    0.80
  -7  -6  -7    2.10    1.10
  -7  -6  -7    1.70    0.80
   7   6   7    3.30    0.80
  -8  -6  -7   21.40    1.40
  -8  -6  -7   18.90    1.60
   8   6   7   21.30    1.60
  -9  -6  -7   12.10    1.60
   9   6   7   10.60    1.60
 -10  -6  -7    1.70    1.10
  10   6   7    2.00    1.10
  12  -7  -7    7.60    1.10
 -12   7   7    8.20    1.00
 -12   7   7    8.90    1.30
  11  -7  -7    8.20    1.30
 -11   7   7    5.70    0.90
 -11   7   7    9.10    1.50
  10  -7  -7   12.20    1.30
 -10   7   7   12.50    1.50
 -10   7   7   13.70    1.50
   9  -7  -7   44.00    1.90
  -9   7   7   42.90    2.00
  -9   7   7   42.90    2.00
   8  -7  -7   48.10    1.90
  -8   7   7   47.30    2.00
  -8   7   7   49.60    2.00
   7  -7  -7    0.40    0.50
  -7   7   7    0.10    0.60
  -7   7   7   -0.10    0.60
   6  -7  -7    6.40    0.80
  -6   7   7    5.20    0.90
  -6   7   7    6.60    1.00
   5  -7  -7   33.60    1.30
  -5   7   7   30.30    1.40
  -5   7   7   32.80    1.50
   4  -7  -7  126.09    3.60
   4  -7  -7  133.89    4.00
  -4   7   7  125.89    4.00
  -4   7   7  127.69    3.80
   3  -7  -7    4.70    0.60
   3  -7  -7    4.30    0.70
  -3   7   7    3.50    0.60
  -3   7   7    5.90    1.00
   2  -7  -7   12.10    0.80
   2  -7  -7   11.50    0.60
   2  -7  -7   10.70    1.00
  -2   7   7   11.10    0.90
  -2   7   7   12.00    1.10
   1  -7  -7    8.30    0.90
   1  -7  -7    9.20    0.70
  -1   7   7    9.20    1.10
  -1   7   7    9.00    0.90
   0  -7  -7    7.40    0.70
   0  -7  -7    6.80    0.90
   0  -7  -7    7.80    0.70
   0   7   7    7.40    0.80
  -1  -7  -7    5.70    0.60
  -1  -7  -7    5.70    0.70
  -1  -7  -7    4.60    0.70
   1   7   7    4.80    0.70
  -2  -7  -7   56.39    2.00
  -2  -7  -7   55.59    1.80
  -2  -7  -7   56.79    1.90
   2   7   7   56.59    2.00
  -3  -7  -7   90.99    2.80
  -3  -7  -7   90.59    2.70
   3   7   7   86.69    2.90
  -4  -7  -7   71.49    2.40
  -4  -7  -7   74.79    2.50
   4   7   7   71.99    2.50
  -5  -7  -7   14.50    1.20
  -5  -7  -7   16.90    1.30
   5   7   7   15.50    1.30
  -6  -7  -7   32.60    1.60
  -6  -7  -7   32.60    1.70
   6   7   7   30.60    1.70
  -7  -7  -7   -0.10    0.80
  -7  -7  -7   -0.50    0.70
   7   7   7    0.20    0.80
  -8  -7  -7    0.80    0.90
  -8  -7  -7    0.20    0.80
   8   7   7    2.40    0.90
  -9  -7  -7    2.80    1.10
   9   7   7    2.40    1.00
  12  -8  -7   -0.60    0.90
 -12   8   7    0.50    1.10
 -12   8   7    0.90    0.90
  11  -8  -7   12.50    1.50
 -11   8   7   14.10    1.70
 -11   8   7   15.10    1.70
  10  -8  -7    1.80    0.80
 -10   8   7    1.10    0.90
 -10   8   7    1.40    0.90
   9  -8  -7    4.00    0.80
  -9   8   7    4.40    0.90
  -9   8   7    4.30    0.90
   8  -8  -7   84.69    2.80
  -8   8   7   84.99    3.20
  -8   8   7   85.79    2.90
   7  -8  -7   14.10    1.10
  -7   8   7   14.40    1.30
  -7   8   7   13.90    1.20
   6  -8  -7  157.38    4.50
  -6   8   7  149.79    4.60
  -6   8   7  158.58    4.50
   5  -8  -7   78.69    2.50
  -5   8   7   78.29    2.70
  -5   8   7   78.89    2.80
   4  -8  -7    8.60    0.90
  -4   8   7   11.10    1.10
  -4   8   7    9.10    1.00
   3  -8  -7    5.80    0.70
   3  -8  -7    7.90    1.20
  -3   8   7    6.40    0.90
   2  -8  -7    8.40    0.70
   2  -8  -7    8.30    0.80
   2  -8  -7    8.40    1.10
  -2   8   7    8.40    0.90
  -2   8   7    7.80    1.20
   1  -8  -7  167.98    4.50
   1  -8  -7  173.68    5.00
   1  -8  -7  162.68    4.50
  -1   8   7  169.58    4.80
  -1   8   7  160.28    4.70
   0  -8  -7    0.20    0.40
   0  -8  -7    0.00    0.50
   0   8   7   -0.10    0.50
  -1  -8  -7   26.60    1.00
  -1  -8  -7   25.60    1.20
  -1  -8  -7   24.40    1.40
   1   8   7   25.20    1.40
  -2  -8  -7    2.50    0.50
  -2  -8  -7    2.20    0.60
   2   8   7    2.70    0.70
  -3  -8  -7    7.10    0.90
  -3  -8  -7    6.50    1.20
   3   8   7    5.10    0.80
  -4  -8  -7   86.39    2.80
  -4  -8  -7   85.59    2.70
   4   8   7   80.79    2.90
  -5  -8  -7   13.50    1.20
  -5  -8  -7   13.60    1.40
   5   8   7   15.60    1.40
  -6  -8  -7    1.50    0.70
  -6  -8  -7    1.80    0.80
   6   8   7    1.90    0.90
  -7  -8  -7   -0.20    0.80
  -7  -8  -7    0.50    0.90
   7   8   7    0.90    1.00
  -8  -8  -7   17.20    1.70
  -8  -8  -7   15.80    1.60
   8   8   7   13.10    1.80
  -9  -8  -7    0.90    0.90
  -9  -8  -7    2.10    1.10
   9   8   7   -1.30    1.10
  11  -9  -7   10.20    1.20
 -11   9   7   11.20    1.70
 -11   9   7   13.00    1.80
  10  -9  -7    2.10    0.80
 -10   9   7    2.10    1.00
 -10   9   7    0.80    0.90
   9  -9  -7   41.70    1.90
  -9   9   7   44.40    2.10
  -9   9   7   41.10    2.10
   8  -9  -7    4.50    0.70
  -8   9   7    5.30    0.90
   7  -9  -7    1.40    0.80
  -7   9   7    1.20    0.80
  -7   9   7    0.70    0.80
   6  -9  -7   31.40    1.70
  -6   9   7   30.90    1.70
  -6   9   7   30.20    1.60
   5  -9  -7    3.30    0.60
  -5   9   7    3.60    0.80
  -5   9   7    4.60    0.80
   4  -9  -7   54.69    1.90
  -4   9   7   55.19    2.10
  -4   9   7   58.29    2.20
   3  -9  -7   37.50    1.50
  -3   9   7   38.70    1.90
  -3   9   7   36.70    1.70
   2  -9  -7   27.40    1.30
   2  -9  -7   29.20    1.60
  -2   9   7   34.40    2.20
  -2   9   7   26.60    1.70
   1  -9  -7    7.20    1.20
   1  -9  -7    6.00    0.80
   1  -9  -7    7.10    0.90
  -1   9   7    5.20    0.90
   0  -9  -7    0.40    0.60
   0  -9  -7    0.60    0.50
   0  -9  -7    0.20    0.40
   0   9   7    0.70    0.70
  -1  -9  -7   28.10    1.30
  -1  -9  -7   27.00    1.60
   1   9   7   26.60    1.50
  -2  -9  -7    0.00    0.70
  -2  -9  -7   -0.40    0.50
   2   9   7   -0.10    0.70
  -3  -9  -7    6.40    1.00
  -3  -9  -7    5.00    0.80
   3   9   7    5.00    0.90
  -4  -9  -7   11.50    1.10
  -4  -9  -7   14.10    1.40
   4   9   7    9.00    1.30
  -5  -9  -7    0.40    0.80
  -5  -9  -7    0.70    0.70
   5   9   7    0.20    0.90
  -6  -9  -7   16.50    1.70
  -6  -9  -7   14.80    1.40
   6   9   7   12.00    1.60
  -7  -9  -7    4.60    1.00
  -7  -9  -7    5.00    1.00
   7   9   7    3.80    1.10
  -8  -9  -7    6.80    1.10
   8   9   7    7.40    1.30
  10 -10  -7    3.60    0.90
 -10  10   7    3.40    1.00
 -10  10   7    4.70    1.10
   9 -10  -7   20.40    1.60
  -9  10   7   21.30    1.90
  -9  10   7   18.70    1.70
   8 -10  -7   61.79    2.40
  -8  10   7   66.89    2.70
  -8  10   7   65.69    2.70
   7 -10  -7    9.30    1.20
  -7  10   7   11.00    1.40
  -7  10   7    8.80    1.70
   6 -10  -7   11.70    1.10
  -6  10   7    9.60    1.50
  -6  10   7    8.80    1.30
   5 -10  -7   48.00    1.80
  -5  10   7   48.50    2.20
  -5  10   7   44.70    2.10
   4 -10  -7    3.20    0.60
  -4  10   7    3.30    0.80
  -4  10   7    3.10    0.80
   3 -10  -7    6.10    0.90
  -3  10   7    5.00    0.90
  -3  10   7    4.60    0.80
   2 -10  -7    1.70    0.50
  -2  10   7    3.70    0.80
   1 -10  -7    7.20    0.90
   1 -10  -7    5.20    0.90
  -1  10   7    5.30    0.80
   0 -10  -7   32.10    1.40
   0 -10  -7   35.10    1.80
   0  10   7   31.90    1.70
  -1 -10  -7    7.60    0.90
  -1 -10  -7    8.70    1.00
   1  10   7    7.60    1.10
  -2 -10  -7   45.80    1.80
  -2 -10  -7   45.80    2.20
   2  10   7   46.90    2.10
  -3 -10  -7   56.59    2.10
  -3 -10  -7   54.29    2.40
   3  10   7   47.50    3.10
  -4 -10  -7   50.89    2.30
  -4 -10  -7   49.50    2.10
   4  10   7   48.00    2.30
  -5 -10  -7   14.60    1.80
  -5 -10  -7   16.30    1.50
   5  10   7   14.70    1.70
  -6 -10  -7    0.80    0.80
  -6 -10  -7   -1.20    0.90
   6  10   7   -2.10    1.00
  -7 -10  -7   15.90    1.70
  -7 -10  -7   18.50    2.10
   7  10   7   14.50    1.90
  10 -11  -7   91.49    3.70
 -10  11   7   78.89    3.80
 -10  11   7   89.49    3.80
   9 -11  -7   14.00    1.50
  -9  11   7   15.70    1.80
  -9  11   7   17.50    1.90
   8 -11  -7    3.70    0.90
  -8  11   7    5.30    1.10
  -8  11   7    6.30    1.20
   7 -11  -7   12.50    1.40
  -7  11   7   16.60    1.70
  -7  11   7   13.00    1.60
   6 -11  -7    7.60    0.90
  -6  11   7    7.50    1.00
  -6  11   7    8.60    1.40
   5 -11  -7    1.60    1.10
  -5  11   7    1.40    0.90
  -5  11   7    2.30    0.90
   4 -11  -7    6.00    0.70
  -4  11   7    6.30    1.00
  -4  11   7    6.90    1.10
   3 -11  -7   59.19    2.10
  -3  11   7   59.29    2.50
   2 -11  -7  295.87    7.90
  -2  11   7  297.37    8.30
  -1  11   7    5.10    1.00
   0 -11  -7  377.96    9.80
   0  11   7  340.07   10.50
  -1 -11  -7   10.60    1.70
  -1 -11  -7    8.40    1.10
   1  11   7    5.80    1.00
  -2 -11  -7   87.49    2.80
  -2 -11  -7   87.29    3.40
   2  11   7   78.19    3.10
  -3 -11  -7   19.90    1.40
  -3 -11  -7   17.50    1.90
   3  11   7   15.90    1.80
  -4 -11  -7    8.00    1.20
  -4 -11  -7   11.30    1.30
   4  11   7    6.90    1.30
  -5 -11  -7   35.70    2.30
  -5 -11  -7   34.10    1.80
   5  11   7   25.30    2.20
  -6 -11  -7    9.00    1.20
   6  11   7    8.40    1.40
   9 -12  -7   28.80    2.80
  -9  12   7   26.40    2.60
   8 -12  -7    1.80    0.80
  -8  12   7    2.20    1.10
  -8  12   7    2.20    1.10
   7 -12  -7   17.40    1.50
  -7  12   7   18.20    1.90
  -7  12   7   22.40    2.10
   6 -12  -7   12.70    1.30
  -6  12   7   11.00    1.80
  -6  12   7   12.10    1.60
   5 -12  -7   10.20    1.20
  -5  12   7   10.40    1.60
  -5  12   7   11.10    1.80
   4 -12  -7   73.99    2.50
  -4  12   7   69.39    2.80
  -4  12   7   74.49    3.30
   3 -12  -7   96.49    3.00
  -3  12   7   90.69    3.30
  -2  12   7    0.50    0.80
  -1  12   7   67.69    2.70
   0  12   7   15.60    1.60
  -1 -12  -7   21.80    2.30
   1  12   7   19.20    1.80
  -2 -12  -7  422.86   11.30
   2  12   7  406.06   11.30
  -3 -12  -7  164.58    4.90
  -3 -12  -7  172.28    5.30
   3  12   7  161.78    5.20
  -4 -12  -7   15.00    2.20
  -4 -12  -7   10.90    1.60
   4  12   7    8.20    1.40
  -5 -12  -7   12.10    1.70
  -5 -12  -7   13.40    2.10
   7 -13  -7    1.50    1.00
  -7  13   7    0.70    1.10
  -7  13   7    1.80    1.10
   6 -13  -7    9.60    1.40
  -6  13   7    9.30    1.30
  -6  13   7   12.50    2.00
   5 -13  -7   -0.60    0.80
  -5  13   7   -0.20    1.10
  -5  13   7    0.30    1.00
   4 -13  -7   11.70    1.30
  -4  13   7    7.60    1.20
  -3  13   7    3.50    1.10
  -2  13   7    3.00    1.10
  -1  13   7   -0.70    0.90
   0  13   7   56.99    2.60
   1  13   7    1.90    1.10
  -2 -13  -7   13.30    2.30
   2  13   7    8.70    1.40
  -3 -13  -7    4.70    1.40
   3  13   7    3.30    1.30
  -5  14   7    6.50    1.60
  -4  14   7    0.70    1.10
  -3  14   7    2.10    1.10
  -2  14   7   10.30    1.80
  -1  14   7    0.80    1.20
   0  14   7    5.70    1.30
   1  14   7    2.20    1.90
   1  16  -8    8.10    1.30
   0  16  -8    5.10    1.30
  -1  16  -8   -1.50    1.30
  -2  16  -8    2.70    1.10
   2 -16   8   -0.70    0.90
  -3  16  -8    0.30    1.10
   3 -16   8   -0.10    0.80
   4 -16   8    4.10    1.00
  -4 -15   8   12.70    1.70
  -3 -15   8    2.70    1.00
   2  15  -8   90.09    3.80
  -2 -15   8   90.79    3.10
   1  15  -8    8.90    1.30
  -1 -15   8    8.30    1.10
   0  15  -8    1.50    1.10
  -1  15  -8   27.40    2.10
   1 -15   8   27.70    1.70
  -2  15  -8    0.30    1.00
   2 -15   8   -1.50    0.70
  -3  15  -8    1.30    0.90
   3 -15   8   -0.60    0.80
  -4  15  -8    9.40    1.10
   4 -15   8   10.70    1.50
  -5  15  -8   19.60    1.90
   5 -15   8   18.20    1.60
  -6  15  -8   42.30    2.10
   6 -15   8   35.30    2.10
  -6 -14   8   19.40    1.80
  -5 -14   8    1.70    0.90
  -4 -14   8    2.00    0.90
  -3 -14   8   24.20    1.60
   2  14  -8    6.60    1.20
  -2 -14   8    6.30    0.90
   1  14  -8    4.50    1.10
  -1 -14   8    4.20    0.80
   0  14  -8   -0.50    0.90
   0 -14   8   -0.30    0.80
  -1  14  -8    0.20    0.80
   1 -14   8    0.00    0.90
  -2  14  -8   31.80    1.90
   2 -14   8   31.60    1.60
  -3  14  -8   22.90    1.80
   3 -14   8   23.20    1.50
  -4  14  -8    0.50    0.80
   4 -14   8   -0.60    0.70
  -5  14  -8    0.50    0.80
   5 -14   8    0.30    0.70
  -6  14  -8    9.20    1.40
   6 -14   8    8.00    1.10
   7 -14   8    0.80    0.80
  -7 -13   8    2.40    1.10
  -6 -13   8    5.80    1.00
  -5 -13   8    0.70    0.80
  -4 -13   8   22.40    1.50
   3  13  -8   -1.90    1.10
  -3 -13   8    0.00    0.70
   2  13  -8    0.50    0.90
  -2 -13   8    0.20    0.70
   1  13  -8    3.10    0.70
   1  13  -8    3.30    1.00
  -1 -13   8    5.30    0.80
   0  13  -8   -1.30    0.70
   0  13  -8    0.00    0.60
   0 -13   8    0.40    0.70
  -1  13  -8    3.90    0.70
  -1  13  -8    3.80    0.80
   1 -13   8    5.70    0.80
  -2  13  -8    6.60    0.80
  -2  13  -8    6.40    0.90
   2 -13   8    7.20    1.10
  -3  13  -8    2.30    0.90
  -3  13  -8    1.70    0.70
  -4  13  -8    1.20    0.70
  -4  13  -8    0.40    0.70
  -5  13  -8    4.80    0.80
   5 -13   8    4.40    0.80
   6 -13   8    0.90    0.70
   7 -13   8    2.00    0.90
   8 -13   8    3.30    0.80
  -8 -12   8    2.10    1.10
  -7 -12   8   95.49    3.40
  -6 -12   8  140.99    4.40
   5  12  -8   -0.30    0.90
  -5 -12   8    0.80    0.70
   4  12  -8    9.50    1.40
  -4 -12   8    8.70    1.40
   3  12  -8   -2.10    1.00
   3  12  -8    0.70    0.70
  -3 -12   8    0.30    0.70
   2  12  -8    1.30    0.60
   2  12  -8    0.40    0.70
  -2 -12   8    0.30    0.70
   1  12  -8   20.70    1.30
   1  12  -8   20.70    1.80
   1  12  -8   24.40    1.30
  -1 -12   8   25.20    1.30
   0  12  -8   84.39    2.60
   0  12  -8   78.59    2.80
   0  12  -8   84.39    3.30
   0 -12   8   81.29    2.60
  -1  12  -8    8.10    1.00
  -1  12  -8    7.30    0.90
   1 -12   8    9.70    1.00
  -2  12  -8    6.90    1.00
  -2  12  -8    7.20    1.20
   2 -12   8    8.70    1.00
  -3  12  -8    7.10    1.10
  -3  12  -8    8.30    1.20
   3 -12   8    8.00    1.00
  -4  12  -8   23.50    1.50
  -4  12  -8   18.70    1.50
  -5  12  -8    2.90    0.70
  -5  12  -8    2.60    0.90
   6 -12   8   -0.80    0.60
   7 -12   8   -0.50    0.70
   8 -12   8    2.00    0.90
   9  11  -8    1.60    1.40
  -9 -11   8    3.30    1.10
  -9 -11   8    3.10    1.30
   8  11  -8    2.20    1.10
  -8 -11   8    0.80    0.90
  -8 -11   8    0.20    1.00
   7  11  -8  111.99    4.70
  -7 -11   8  131.49    4.00
   6  11  -8   36.80    1.90
  -6 -11   8   38.80    1.90
   5  11  -8   16.60    1.40
  -5 -11   8   18.50    1.50
   4  11  -8  137.29    4.20
   4  11  -8  127.19    3.90
  -4 -11   8  137.79    4.00
   3  11  -8  153.98    4.20
   3  11  -8  147.89    4.40
   3  11  -8  155.88    4.60
  -3 -11   8  153.48    4.50
   2  11  -8  185.18    5.20
   2  11  -8  186.88    5.30
   2  11  -8  190.28    5.10
  -2 -11   8  185.88    5.20
   1  11  -8   29.30    1.60
   1  11  -8   28.70    1.30
   1  11  -8   26.20    1.30
  -1 -11   8   27.40    1.40
   0  11  -8    8.00    1.20
   0  11  -8    8.10    0.90
   0  11  -8    8.30    0.90
   0 -11   8    8.20    0.90
  -1  11  -8    4.90    0.60
  -1  11  -8    3.90    0.80
  -1  11  -8    5.70    0.80
   1 -11   8    5.20    0.90
  -2  11  -8    6.70    0.90
  -2  11  -8    5.90    1.00
  -2  11  -8    7.20    1.00
   2 -11   8    7.40    0.90
  -3  11  -8   76.79    3.20
  -3  11  -8   79.29    2.50
   3 -11   8   77.39    2.40
  -4  11  -8    3.20    0.80
  -4  11  -8    4.70    0.70
   4 -11   8    3.40    0.60
  -5  11  -8   39.70    1.60
  -5  11  -8   41.00    1.80
  -6  11  -8   71.49    3.30
   7 -11   8   15.50    1.30
   8 -11   8   20.70    1.50
   9 -11   8    8.60    1.40
  10 -11   8    3.80    1.00
  10  10  -8   14.20    1.90
 -10 -10   8   14.20    2.10
   9  10  -8    2.60    1.00
  -9 -10   8    2.50    1.00
  -9 -10   8    2.00    1.20
   8  10  -8   27.30    1.80
  -8 -10   8   30.20    1.80
  -8 -10   8   28.60    2.10
   7  10  -8    1.00    0.80
  -7 -10   8    1.00    0.80
  -7 -10   8    0.80    0.80
   6  10  -8   27.10    1.60
  -6 -10   8   28.60    1.80
  -6 -10   8   29.50    1.60
   5  10  -8    0.50    0.70
  -5 -10   8   -0.40    0.60
  -5 -10   8    0.00    0.80
   4  10  -8    0.00    0.60
   4  10  -8    0.40    0.50
   4  10  -8   -0.40    0.70
  -4 -10   8   -0.10    0.60
   3  10  -8   30.10    1.20
   3  10  -8   30.00    1.40
   3  10  -8   29.80    1.60
  -3 -10   8   28.80    1.40
   2  10  -8    2.60    0.70
   2  10  -8    2.60    0.50
  -2 -10   8    2.60    0.60
   1  10  -8    0.20    0.60
   1  10  -8    0.20    0.50
   1  10  -8    0.70    0.50
  -1 -10   8    0.80    0.50
   0  10  -8   22.00    1.10
   0  10  -8   23.90    1.30
   0  10  -8   24.20    1.10
   0 -10   8   22.50    1.20
  -1  10  -8    3.00    0.50
  -1  10  -8    3.40    0.60
  -1  10  -8    2.40    0.60
   1 -10   8    3.60    0.60
  -2  10  -8    2.50    0.50
  -2  10  -8    3.30    0.60
  -2  10  -8    2.10    0.60
   2 -10   8    2.10    0.50
  -3  10  -8  102.49    2.90
  -3  10  -8   98.19    2.90
  -3  10  -8   96.29    3.00
   3 -10   8  100.39    2.90
  -4  10  -8    2.20    0.50
  -4  10  -8    1.80    0.70
  -4  10  -8    2.10    0.70
   4 -10   8    1.90    0.50
  -5  10  -8   19.10    1.30
  -5  10  -8   17.90    1.40
   5 -10   8   17.50    1.10
  -6  10  -8   -0.40    0.90
   8 -10   8    4.50    0.80
   9 -10   8   30.90    1.70
  10 -10   8   26.10    1.70
 -11  -9   8    1.90    1.40
 -11  -9   8    0.00    1.20
  10   9  -8    2.30    1.10
 -10  -9   8    1.70    1.00
 -10  -9   8    2.80    1.00
   9   9  -8    0.50    0.90
  -9  -9   8    0.40    1.00
  -9  -9   8    0.50    0.80
   8   9  -8    7.30    1.30
  -8  -9   8    4.20    0.90
  -8  -9   8    5.40    1.00
   7   9  -8   -0.10    0.70
  -7  -9   8    0.90    0.70
  -7  -9   8    1.10    0.70
   6   9  -8    8.20    1.10
  -6  -9   8    9.50    1.30
  -6  -9   8    7.40    1.10
   5   9  -8   41.30    1.70
  -5  -9   8   39.10    1.80
  -5  -9   8   42.50    2.10
   4   9  -8   18.20    1.50
   4   9  -8   18.10    1.10
   4   9  -8   18.40    1.70
  -4  -9   8   18.50    1.20
  -4  -9   8   17.80    1.30
   3   9  -8   20.20    0.90
   3   9  -8   19.20    1.40
   3   9  -8   19.80    1.10
   3   9  -8   18.20    1.20
  -3  -9   8   18.00    1.10
   2   9  -8   16.10    1.20
   2   9  -8   16.40    0.90
   2   9  -8   14.90    0.90
   2   9  -8   16.60    1.10
  -2  -9   8   15.30    1.00
   1   9  -8    8.40    0.70
   1   9  -8    8.90    1.00
   1   9  -8    7.20    0.70
  -1  -9   8    8.40    0.80
   0   9  -8   15.60    0.90
   0   9  -8   14.50    1.00
   0   9  -8   13.60    0.80
   0  -9   8   15.10    0.90
  -1   9  -8  176.98    4.90
  -1   9  -8  181.18    4.90
  -1   9  -8  179.48    4.80
   1  -9   8  183.38    4.90
  -2   9  -8    3.20    0.40
  -2   9  -8    2.60    0.50
  -2   9  -8    2.30    0.50
   2  -9   8    2.50    0.50
  -3   9  -8    5.00    0.80
  -3   9  -8    4.00    0.70
  -3   9  -8    3.10    0.50
   3  -9   8    4.60    0.70
  -4   9  -8   20.20    1.00
  -4   9  -8   21.60    1.00
  -4   9  -8   21.50    1.20
   4  -9   8   21.20    1.10
  -5   9  -8    0.70    0.50
   5  -9   8    0.30    0.50
  -6   9  -8    1.40    0.70
  -6   9  -8    1.70    0.60
   6  -9   8    0.60    0.50
  -7   9  -8   12.20    1.30
   8  -9   8    0.50    0.60
   9  -9   8   31.80    1.70
  10  -9   8    5.40    0.90
  11  -9   8    7.80    1.10
  11   8  -8    1.50    1.20
 -11  -8   8    0.50    1.00
 -11  -8   8   -1.50    1.00
  10   8  -8    4.90    1.10
 -10  -8   8    3.90    1.00
 -10  -8   8    1.90    0.90
   9   8  -8   36.10    2.10
  -9  -8   8   33.40    1.80
  -9  -8   8   37.90    2.40
   8   8  -8   14.80    1.30
  -8  -8   8   12.20    1.30
  -8  -8   8   14.00    1.50
   7   8  -8    9.10    1.10
  -7  -8   8    8.90    1.30
  -7  -8   8    8.10    1.20
   6   8  -8   21.10    1.20
  -6  -8   8   23.10    1.30
  -6  -8   8   21.70    1.40
   5   8  -8    0.10    0.40
   5   8  -8    0.30    0.60
   5   8  -8    0.20    0.50
  -5  -8   8   -0.50    0.50
  -5  -8   8   -0.20    0.70
   4   8  -8    9.70    0.90
   4   8  -8   10.20    0.70
   4   8  -8   10.20    1.10
  -4  -8   8    8.70    1.10
  -4  -8   8   10.40    0.90
   3   8  -8   56.79    1.80
   3   8  -8   57.79    2.00
   3   8  -8   58.29    1.80
  -3  -8   8   57.39    1.90
  -3  -8   8   57.59    2.00
   2   8  -8   63.59    1.90
  -2  -8   8   64.19    2.20
  -2  -8   8   65.29    2.10
   1   8  -8    0.80    0.40
   1   8  -8    0.70    0.40
   1   8  -8    0.20    0.30
  -1  -8   8    1.30    0.50
   0   8  -8  103.59    3.00
   0   8  -8  104.69    2.90
   0   8  -8  107.29    3.10
   0   8  -8  105.49    3.00
   0  -8   8  104.59    3.00
  -1   8  -8   45.80    1.60
  -1   8  -8   47.40    1.60
  -1   8  -8   46.20    1.40
   1  -8   8   48.90    1.60
  -2   8  -8  193.68    5.20
  -2   8  -8  191.58    5.30
  -2   8  -8  191.28    5.10
   2  -8   8  201.88    5.30
  -3   8  -8    8.30    0.60
  -3   8  -8    7.80    0.80
  -3   8  -8    7.80    0.70
   3  -8   8    7.10    0.80
  -4   8  -8   31.10    1.10
  -4   8  -8   29.40    1.10
  -4   8  -8   29.20    1.10
  -4   8  -8   28.30    1.30
   4  -8   8   31.10    1.20
  -5   8  -8   48.00    1.60
  -5   8  -8   45.50    1.80
   5  -8   8   49.00    1.70
  -6   8  -8   36.50    1.50
  -6   8  -8   34.60    1.40
   6  -8   8   35.60    1.40
  -7   8  -8   29.30    1.70
  -7   8  -8   29.00    1.40
   7  -8   8   29.00    1.50
  -8   8  -8   38.70    1.70
  -8   8  -8   35.60    1.70
   9  -8   8   28.10    1.50
  10  -8   8   -0.20    0.70
  11  -8   8   24.40    1.70
  12   7  -8    5.40    1.30
 -12  -7   8    1.80    1.40
 -12  -7   8    5.00    1.20
  11   7  -8    3.20    1.10
 -11  -7   8    0.80    1.00
 -11  -7   8    1.80    1.00
  10   7  -8    2.80    1.00
 -10  -7   8    0.10    0.80
 -10  -7   8    1.30    0.90
   9   7  -8    3.40    0.90
  -9  -7   8    3.20    1.00
  -9  -7   8    3.40    0.80
   8   7  -8    3.60    0.70
  -8  -7   8    3.90    0.70
  -8  -7   8    1.70    0.80
   7   7  -8    2.70    0.60
  -7  -7   8    2.10    0.60
  -7  -7   8    1.90    0.60
   6   7  -8    2.30    0.60
   6   7  -8    2.30    0.40
  -6  -7   8    2.10    0.60
  -6  -7   8    2.10    0.70
   5   7  -8   10.60    0.70
   5   7  -8    9.60    1.10
   5   7  -8    8.50    0.80
  -5  -7   8    9.30    1.00
  -5  -7   8   10.30    0.90
   4   7  -8   32.30    1.20
   4   7  -8   31.30    1.40
   4   7  -8   31.50    1.20
  -4  -7   8   31.00    1.30
  -4  -7   8   32.20    1.40
   3   7  -8   18.40    0.90
   3   7  -8   17.70    1.10
   3   7  -8   19.10    0.90
  -3  -7   8   17.50    1.00
  -3  -7   8   19.70    1.10
   2   7  -8  110.29    3.00
   2   7  -8  108.29    3.20
   2   7  -8  111.99    3.00
  -2  -7   8  105.69    3.10
  -2  -7   8  108.19    3.20
   1   7  -8  265.57    7.00
   1   7  -8  273.07    7.20
   1   7  -8  272.97    7.10
  -1  -7   8  272.47    7.20
  -1  -7   8  274.67    7.20
   0   7  -8  300.47    7.70
  -1   7  -8    3.80    0.60
  -1   7  -8    3.80    0.60
  -1   7  -8    3.70    0.40
   1  -7   8    3.60    0.60
  -2   7  -8    0.20    0.50
  -2   7  -8    0.30    0.30
  -2   7  -8   -0.40    0.20
  -2   7  -8   -0.80    0.40
   2  -7   8    0.20    0.40
  -3   7  -8    9.40    0.60
  -3   7  -8    8.60    0.60
  -3   7  -8    9.60    0.70
  -3   7  -8    9.20    0.70
  -4   7  -8    0.60    0.30
  -4   7  -8   -0.20    0.40
  -4   7  -8   -0.30    0.30
   4  -7   8    0.20    0.40
  -5   7  -8   50.79    1.80
  -5   7  -8   52.69    1.70
   5  -7   8   52.29    1.70
  -6   7  -8   25.50    1.30
   6  -7   8   26.80    1.10
  -7   7  -8    0.20    0.50
  -7   7  -8    0.00    0.60
   7  -7   8    0.50    0.50
  -8   7  -8   22.80    1.30
  -8   7  -8   21.70    1.30
  -9   7  -8   16.00    1.40
   9  -7   8   13.80    1.20
  10  -7   8   32.70    1.70
  11  -7   8   18.40    1.60
  12   6  -8    0.90    1.20
 -12  -6   8    1.20    1.10
 -12  -6   8    0.10    1.10
  11   6  -8    0.60    1.00
 -11  -6   8    1.90    0.80
 -11  -6   8    0.40    1.00
  10   6  -8   52.59    3.40
 -10  -6   8   55.29    2.20
 -10  -6   8   61.49    2.50
   9   6  -8    0.20    0.70
  -9  -6   8   -0.20    0.60
  -9  -6   8    1.20    0.70
   8   6  -8   66.49    2.30
  -8  -6   8   66.29    2.40
  -8  -6   8   71.29    2.30
   7   6  -8   22.40    1.00
   7   6  -8   21.30    1.20
  -7  -6   8   21.20    1.20
  -7  -6   8   20.30    1.30
   6   6  -8   10.40    0.70
   6   6  -8   10.00    0.80
  -6  -6   8   11.30    0.90
  -6  -6   8    9.30    1.00
   5   6  -8    0.20    0.40
   5   6  -8    0.30    0.50
   5   6  -8   -0.30    0.30
  -5  -6   8    0.20    0.50
  -5  -6   8    0.30    0.40
   4   6  -8   64.39    2.10
   4   6  -8   64.79    1.90
   4   6  -8   63.89    1.90
  -4  -6   8   63.39    2.10
  -4  -6   8   62.39    2.00
   3   6  -8   28.70    1.20
   3   6  -8   29.20    1.10
   3   6  -8   29.00    1.00
  -3  -6   8   29.10    1.20
  -3  -6   8   28.70    1.20
   2   6  -8   56.19    1.70
   2   6  -8   54.29    1.80
   2   6  -8   55.99    1.60
  -2  -6   8   55.49    1.80
   1   6  -8   36.10    1.20
   1   6  -8   36.90    1.10
   1   6  -8   36.50    1.30
  -1  -6   8   37.80    1.40
   0   6  -8   13.30    0.70
   0   6  -8   11.10    0.80
   0  -6   8   13.10    0.70
   0  -6   8   11.20    0.90
  -1   6  -8    1.90    0.40
  -2   6  -8   10.70    0.70
  -2   6  -8   10.80    0.70
  -2   6  -8    9.40    0.70
   2  -6   8   12.30    0.70
  -3   6  -8  116.29    3.20
  -3   6  -8  117.29    3.20
  -3   6  -8  119.99    3.20
  -3   6  -8  116.29    3.30
   3  -6   8  121.09    3.30
  -4   6  -8    0.20    0.30
  -4   6  -8    0.30    0.40
  -5   6  -8    6.40    0.70
  -5   6  -8    7.50    0.60
   5  -6   8    7.20    0.70
  -6   6  -8   28.50    1.30
  -6   6  -8   29.90    1.20
   6  -6   8   29.80    1.20
  -7   6  -8    4.80    0.80
  -7   6  -8    4.90    0.60
   7  -6   8    6.90    0.80
  -8   6  -8   17.80    1.20
  -8   6  -8   18.30    1.20
   8  -6   8   19.30    1.10
  -9   6  -8   12.20    1.20
   9  -6   8   14.10    1.10
 -10   6  -8    7.40    1.20
  12   5  -8   31.40    2.30
 -12  -5   8   32.70    2.20
 -12  -5   8   27.80    1.90
  11   5  -8   27.00    2.00
 -11  -5   8   26.20    1.90
 -11  -5   8   26.80    1.70
  10   5  -8    0.40    0.80
 -10  -5   8    1.70    0.90
 -10  -5   8    0.30    0.70
   9   5  -8   39.40    1.80
  -9  -5   8   40.50    1.80
  -9  -5   8   37.20    1.70
   8   5  -8   32.50    1.50
  -8  -5   8   30.70    1.60
  -8  -5   8   30.10    1.40
   7   5  -8   36.60    1.30
   7   5  -8   38.30    1.50
  -7  -5   8   37.40    1.60
  -7  -5   8   36.80    1.50
   6   5  -8   38.20    1.50
   6   5  -8   38.00    1.30
   6   5  -8   43.60    1.80
  -6  -5   8   39.00    1.50
   5   5  -8   28.80    1.10
   5   5  -8   30.50    1.30
   5   5  -8   28.70    1.10
  -5  -5   8   29.40    1.20
  -5  -5   8   30.90    1.30
   4   5  -8  278.97    7.40
   4   5  -8  286.27    7.50
   4   5  -8  286.87    7.40
  -4  -5   8  281.37    7.50
  -4  -5   8  290.77    7.60
   3   5  -8   14.90    0.90
   3   5  -8   16.80    0.80
   3   5  -8   16.40    0.70
  -3  -5   8   14.00    0.90
  -3  -5   8   16.80    0.90
   2   5  -8   10.20    0.60
   2   5  -8   10.20    0.50
  -2  -5   8    9.80    0.70
  -2  -5   8    7.30    0.80
   1   5  -8  133.39    3.70
   1   5  -8  133.19    3.60
  -1  -5   8  135.89    3.70
  -1  -5   8  132.99    3.70
   0   5  -8   23.40    1.00
   0   5  -8   25.90    0.90
   0  -5   8   26.30    1.00
   0  -5   8   23.70    1.00
  -1   5  -8   22.00    0.90
  -1   5  -8   24.10    0.90
   1  -5   8   23.10    1.00
  -2   5  -8   65.29    2.00
  -2   5  -8   65.19    1.90
  -2   5  -8   65.99    1.90
   2  -5   8   66.99    2.00
  -3   5  -8    2.90    0.50
   3  -5   8    2.40    0.40
  -4   5  -8   45.30    1.50
  -4   5  -8   45.10    1.40
   4  -5   8   45.50    1.50
  -5   5  -8    6.40    0.70
  -5   5  -8    5.10    0.60
   5  -5   8    6.40    0.70
  -6   5  -8   43.60    1.60
  -6   5  -8   44.80    1.50
   6  -5   8   44.60    1.60
  -7   5  -8    0.00    0.40
  -7   5  -8    0.40    0.40
   7  -5   8   -0.30    0.40
  -8   5  -8    6.40    0.90
  -8   5  -8    6.40    0.90
   8  -5   8    6.60    0.90
   9  -5   8    2.50    0.60
   9  -5   8    1.90    0.60
  10  -5   8   22.60    1.50
  10  -5   8   23.10    1.30
  13   4  -8    7.30    1.50
 -13  -4   8    9.70    1.60
  12   4  -8   17.00    1.90
 -12  -4   8   17.80    1.90
  11   4  -8   49.90    2.40
 -11  -4   8   43.70    2.80
 -11  -4   8   52.39    2.20
  10   4  -8    0.60    0.70
 -10  -4   8    0.20    0.70
 -10  -4   8   -1.10    0.60
   9   4  -8   33.40    1.60
  -9  -4   8   34.10    1.60
  -9  -4   8   34.80    1.50
   8   4  -8   24.10    1.30
   8   4  -8   24.70    1.10
  -8  -4   8   21.20    1.20
  -8  -4   8   25.10    1.40
   7   4  -8   20.20    0.90
   7   4  -8   19.00    1.10
  -7  -4   8   20.30    1.20
  -7  -4   8   18.30    1.10
   6   4  -8  319.77    8.50
   6   4  -8  321.37    8.40
   6   4  -8  314.47    8.30
  -6  -4   8  327.37    8.50
  -6  -4   8  312.97    8.40
   5   4  -8   72.59    2.20
   5   4  -8   72.99    2.10
   5   4  -8   76.89    2.30
  -5  -4   8   71.49    2.20
  -5  -4   8   74.79    2.30
   4   4  -8 1866.41   46.80
   4   4  -8 1840.32   46.70
   4   4  -8 1801.92   46.60
  -4  -4   8 1833.82   46.80
  -4  -4   8 1889.21   46.80
   3   4  -8   28.20    0.90
   3   4  -8   27.30    1.00
   3   4  -8   26.80    1.10
  -3  -4   8   28.50    1.10
  -3  -4   8   27.10    1.10
   2   4  -8  250.67    6.40
   2   4  -8  238.98    6.40
  -2  -4   8  242.38    6.40
   1   4  -8  743.73   18.60
   1   4  -8  750.72   18.70
   1   4  -8  639.04   18.70
  -1  -4   8  757.82   18.70
  -1  -4   8  766.82   18.70
   0   4  -8   30.70    1.10
   0   4  -8   30.50    1.10
   0  -4   8   31.70    1.10
   0  -4   8   29.90    1.10
  -1   4  -8   47.80    1.50
  -1   4  -8   48.90    1.50
  -1   4  -8   48.50    1.50
   1  -4   8   48.60    1.50
  -2   4  -8    8.00    0.50
  -2   4  -8    7.50    0.60
  -2   4  -8    8.10    0.50
   2  -4   8    7.00    0.60
  -3   4  -8   76.39    2.10
  -3   4  -8   77.09    2.20
  -3   4  -8   77.19    2.10
   3  -4   8   78.09    2.30
  -4   4  -8    0.70    0.30
   4  -4   8    0.80    0.40
  -5   4  -8   19.20    0.80
  -5   4  -8   19.30    0.90
   5  -4   8   19.50    0.90
  -6   4  -8    2.30    0.40
  -6   4  -8    2.40    0.50
   6  -4   8    2.00    0.50
  -7   4  -8    7.10    0.80
  -7   4  -8    6.50    0.90
   7  -4   8    7.70    0.80
  -8   4  -8   32.70    1.40
   8  -4   8   35.70    1.40
   8  -4   8   32.70    1.40
   9  -4   8   54.29    2.00
   9  -4   8   52.79    1.90
   9  -4   8   50.79    2.00
  10  -4   8    7.30    0.90
  10  -4   8    5.10    0.90
  11  -4   8    1.90    1.30
  13   3  -8    6.90    1.30
 -13  -3   8    6.80    1.20
  12   3  -8    1.80    1.00
 -12  -3   8    3.40    0.90
  11   3  -8    9.60    1.50
 -11  -3   8    9.00    1.30
 -11  -3   8    7.50    1.20
  10   3  -8    0.30    0.70
 -10  -3   8    1.10    0.70
 -10  -3   8    0.30    0.60
   9   3  -8    1.60    0.60
   9   3  -8    2.00    0.50
  -9  -3   8    1.40    0.60
  -9  -3   8    2.00    0.60
   8   3  -8   -0.20    0.50
   8   3  -8    0.10    0.40
  -8  -3   8   -0.30    0.50
  -8  -3   8    0.40    0.50
  -7  -3   8  141.19    4.10
  -7  -3   8  144.59    4.00
   6   3  -8   99.69    3.00
   6   3  -8  100.69    2.80
  -6  -3   8   96.59    2.90
  -6  -3   8   98.59    3.00
   5   3  -8    1.20    0.40
   5   3  -8    1.60    0.40
  -5  -3   8    1.10    0.40
  -5  -3   8    1.10    0.40
   4   3  -8  408.26   10.60
   4   3  -8  410.26   10.50
   4   3  -8  399.06   10.50
  -4  -3   8  409.76   10.60
  -4  -3   8  419.26   10.60
   3   3  -8  263.57    6.70
   3   3  -8  258.77    6.80
   3   3  -8  263.97    6.90
  -3  -3   8  255.97    6.80
  -3  -3   8  262.27    6.90
   2   3  -8 2429.76   62.09
   2   3  -8 2456.75   61.89
  -2  -3   8 2440.46   62.19
  -2  -3   8 2436.76   61.69
   1   3  -8  137.09    4.00
   1   3  -8  150.08    4.00
   1   3  -8  151.18    4.00
  -1  -3   8  150.98    4.00
  -1  -3   8  150.18    4.00
   0   3  -8    0.10    0.30
   0   3  -8    0.40    0.30
   0   3  -8    0.20    0.20
   0  -3   8    0.30    0.30
   0  -3   8   -0.20    0.30
  -1   3  -8    3.30    0.40
  -1   3  -8    3.80    0.40
   1  -3   8    2.70    0.40
  -2   3  -8    2.30    0.30
  -3   3  -8  259.37    6.80
   3  -3   8  259.27    6.90
   3  -3   8  267.47    6.70
  -4   3  -8    1.10    0.40
   4  -3   8    0.30    0.40
   4  -3   8    1.10    0.30
  -5   3  -8  221.98    5.70
  -5   3  -8  194.58    5.80
   5  -3   8  218.78    5.60
  -6   3  -8  139.79    3.90
  -6   3  -8  144.39    4.00
   6  -3   8  145.69    3.90
  -7   3  -8    0.10    0.40
  -7   3  -8    0.30    0.50
   7  -3   8    0.70    0.40
  -8   3  -8   79.59    2.40
  -8   3  -8   83.49    2.60
   8  -3   8   79.29    2.60
  -9   3  -8    4.30    0.70
   9  -3   8    4.10    0.60
   9  -3   8    4.00    0.70
 -10   3  -8    6.10    0.90
  10  -3   8    7.40    1.30
  11  -3   8    6.20    1.10
  13   2  -8   -0.60    1.10
 -13  -2   8    0.10    0.90
  12   2  -8    0.30    0.90
 -12  -2   8    1.80    0.80
  11   2  -8    7.50    1.80
 -11  -2   8    7.50    1.30
  10   2  -8    0.40    0.60
 -10  -2   8    0.40    0.60
 -10  -2   8    1.30    0.60
   9   2  -8   42.10    1.50
  -9  -2   8   41.50    1.70
  -9  -2   8   41.70    1.80
  -9  -2   8   41.40    1.60
   8   2  -8   30.70    1.20
  -8  -2   8   31.00    1.30
  -8  -2   8   29.70    1.40
  -8  -2   8   31.20    1.30
   7   2  -8    0.20    0.40
  -7  -2   8   -0.40    0.40
  -7  -2   8    0.40    0.40
  -7  -2   8    0.20    0.50
   6   2  -8    7.30    0.90
   6   2  -8    5.50    0.60
  -6  -2   8    5.10    0.60
  -6  -2   8    5.20    0.80
  -6  -2   8    4.80    0.60
   5   2  -8   25.30    1.10
   5   2  -8   22.30    1.00
  -5  -2   8   23.90    0.90
  -5  -2   8   22.70    1.10
  -5  -2   8   25.10    1.00
   4   2  -8   36.40    1.30
   4   2  -8   39.30    1.40
  -4  -2   8   39.60    1.40
  -4  -2   8   39.80    1.20
  -4  -2   8   38.10    1.30
   3   2  -8  334.27    8.80
  -3  -2   8  350.76    8.70
  -3  -2   8  338.37    8.80
  -3  -2   8  333.27    8.80
   2   2  -8   48.50    1.50
   2   2  -8   48.60    1.50
  -2  -2   8   49.90    1.60
  -2  -2   8   48.10    1.50
   1   2  -8   89.19    2.50
   1   2  -8   86.29    2.50
   1   2  -8   92.89    2.50
  -1  -2   8   87.29    2.50
  -1  -2   8   89.59    2.50
   0   2  -8  164.68    4.30
   0   2  -8  166.38    4.30
   0  -2   8  162.38    4.30
   0  -2   8  158.38    4.30
  -1   2  -8   53.89    1.60
  -1   2  -8   54.59    1.60
  -1   2  -8   54.59    1.60
   1  -2   8   55.99    1.70
  -2   2  -8    9.40    0.50
  -2   2  -8    9.60    0.60
  -2   2  -8    9.00    0.50
   2  -2   8    9.70    0.60
  -3   2  -8  262.27    6.90
  -3   2  -8  260.47    6.70
  -3   2  -8  260.37    6.80
   3  -2   8  264.17    6.70
  -4   2  -8   43.20    1.40
   4  -2   8   46.00    1.40
  -5   2  -8  229.28    6.20
  -5   2  -8  234.28    6.20
   5  -2   8  238.08    6.20
  -6   2  -8   59.99    2.00
  -6   2  -8   64.59    2.00
   6  -2   8   62.59    2.00
  -7   2  -8   27.80    1.30
  -7   2  -8   25.70    1.10
   7  -2   8   24.50    1.20
  -8   2  -8   10.40    0.80
  -9   2  -8    0.60    0.70
   9  -2   8    1.20    0.60
 -10   2  -8    9.70    1.30
  10  -2   8    9.60    1.40
 -11   2  -8   84.59    2.90
  11  -2   8   82.99    3.20
  13   1  -8    8.40    1.20
 -13  -1   8    8.10    1.10
  12   1  -8    2.00    0.90
 -12  -1   8    1.50    0.70
 -11  -1   8   -0.30    0.70
 -11  -1   8   -0.10    0.80
  10   1  -8   37.50    1.50
 -10  -1   8   33.90    1.70
 -10  -1   8   37.40    1.70
 -10  -1   8   37.20    1.50
   9   1  -8    0.10    0.50
  -9  -1   8    0.00    0.60
  -9  -1   8    1.00    0.60
  -9  -1   8    0.00    0.50
   8   1  -8   83.59    2.50
  -8  -1   8   82.09    2.60
  -8  -1   8   80.89    2.60
  -8  -1   8   82.49    2.50
   7   1  -8  165.78    4.60
  -7  -1   8  171.78    4.70
  -7  -1   8  171.68    4.60
  -7  -1   8  166.58    4.70
   6   1  -8   93.39    2.80
  -6  -1   8   95.09    2.80
  -6  -1   8   93.19    2.70
  -6  -1   8   94.89    2.70
   5   1  -8    2.40    0.50
   5   1  -8    2.60    0.40
  -5  -1   8    3.30    0.50
  -5  -1   8    2.60    0.40
  -5  -1   8    2.00    0.40
   4   1  -8   27.00    1.10
   4   1  -8   25.30    1.00
  -4  -1   8   27.10    1.10
  -4  -1   8   26.90    1.00
  -4  -1   8   27.30    0.90
   3   1  -8  124.09    3.40
   3   1  -8  123.69    3.40
  -3  -1   8  122.39    3.30
  -3  -1   8  120.89    3.40
  -3  -1   8  124.89    3.30
   2   1  -8  320.97    8.30
   2   1  -8  321.97    8.20
  -2  -1   8  332.27    8.10
  -2  -1   8  313.37    8.20
  -2  -1   8  303.47    8.40
   1   1  -8  294.47    7.70
   1   1  -8  295.17    7.80
   1   1  -8  304.17    7.70
  -1  -1   8  299.27    7.70
  -1  -1   8  293.37    7.70
   0   1  -8  125.39    3.30
   0  -1   8  122.99    3.30
   0  -1   8  123.49    3.40
  -1   1  -8   43.30    1.30
  -1   1  -8   42.90    1.30
  -1   1  -8   44.50    1.30
   1  -1   8   43.90    1.40
  -2   1  -8  116.99    3.20
  -2   1  -8  117.09    3.10
  -2   1  -8  117.69    3.10
  -2   1  -8  117.89    3.20
   2  -1   8  119.29    3.10
  -3   1  -8   53.19    1.60
  -3   1  -8   54.19    1.70
  -3   1  -8   63.39    1.70
  -3   1  -8   53.79    1.60
   3  -1   8   55.79    1.60
  -4   1  -8  118.19    3.70
  -4   1  -8  125.89    3.40
   4  -1   8  128.99    3.40
  -6   1  -8    8.70    0.70
  -7   1  -8    6.90    0.90
  -7   1  -8    4.90    0.70
   7  -1   8    5.10    0.80
  -8   1  -8   99.79    3.10
   8  -1   8   98.29    3.10
  -9   1  -8   54.89    2.10
   9  -1   8   52.49    2.10
 -10   1  -8    0.40    0.80
  10  -1   8    0.60    0.80
 -11   1  -8    4.90    1.10
  12  -1   8   19.50    3.10
  13   0  -8    1.40    1.10
 -13   0   8    0.50    0.80
 -12   0   8   -0.10    0.90
 -12   0   8    0.20    0.70
  11   0  -8    3.00    0.70
 -11   0   8    2.00    0.90
 -11   0   8    1.90    0.70
  10   0  -8   30.60    1.40
 -10   0   8   29.80    1.60
 -10   0   8   29.00    1.60
   9   0  -8    2.40    0.50
  -9   0   8    1.70    0.50
  -9   0   8    1.80    0.60
  -9   0   8    2.50    0.60
   8   0  -8   61.09    2.00
  -8   0   8   59.59    2.10
  -8   0   8   61.69    1.90
  -8   0   8   58.59    2.10
   7   0  -8   50.99    1.70
  -7   0   8   49.80    1.80
  -7   0   8   50.89    1.60
  -7   0   8   51.39    1.80
   6   0  -8  272.47    7.10
   6   0  -8  264.57    7.20
  -6   0   8  267.57    7.20
  -6   0   8  276.17    7.10
  -6   0   8  274.97    7.20
   5   0  -8   33.20    1.30
   5   0  -8   33.10    1.20
  -5   0   8   33.50    1.30
  -5   0   8   34.70    1.20
  -5   0   8   34.20    1.10
   4   0  -8   31.40    1.20
   4   0  -8   31.70    1.10
  -4   0   8   31.10    1.20
  -4   0   8   31.50    1.10
  -4   0   8   31.20    1.10
   3   0  -8   46.50    1.50
   3   0  -8   46.00    1.40
  -3   0   8   45.40    1.50
  -3   0   8   46.50    1.40
  -3   0   8   45.80    1.40
   2   0  -8  163.18    4.40
   2   0  -8  163.38    4.30
  -2   0   8  170.68    4.30
  -2   0   8  159.08    4.30
  -2   0   8  160.48    4.50
   1   0  -8   83.69    2.30
   1   0  -8   82.29    2.30
  -1   0   8   75.99    2.30
  -1   0   8   82.49    2.30
  -1   0   8   82.09    2.30
   0   0  -8  109.49    2.90
   0   0  -8  106.49    2.90
   0   0   8  106.89    2.90
   0   0   8  106.79    2.90
   0   0   8  107.69    2.90
  -1   0  -8  245.18    6.50
  -1   0  -8  244.98    6.50
  -1   0  -8  249.97    6.50
  -1   0  -8  248.58    6.50
   1   0   8  252.97    6.60
   1   0   8  255.27    6.40
  -2   0  -8   93.99    2.60
  -2   0  -8   94.69    2.70
  -2   0  -8   92.19    2.70
  -2   0  -8   95.99    2.60
   2   0   8   96.69    2.60
  -3   0  -8   12.60    0.70
  -3   0  -8   12.30    0.60
  -3   0  -8   12.50    0.60
  -3   0  -8   12.00    0.60
   3   0   8   12.10    0.60
  -4   0  -8  330.67    8.50
  -4   0  -8  326.77    8.60
   4   0   8  330.87    8.50
  -5   0  -8    1.70    0.40
  -5   0  -8    1.20    0.40
   5   0   8    1.40    0.40
  -6   0  -8   38.80    1.30
  -6   0  -8   38.10    1.50
   6   0   8   38.30    1.40
  -7   0  -8    1.10    0.40
  -7   0  -8    0.80    0.60
   7   0   8    0.40    0.50
   8   0   8    9.50    1.00
  -9   0  -8   29.00    1.60
   9   0   8   27.20    1.50
 -10   0  -8    2.50    0.80
  10   0   8    3.30    1.00
 -11   0  -8   12.20    1.70
  11   0   8   16.10    1.70
 -12   0  -8    6.80    1.30
  12   0   8    8.60    1.40
 -13   1   8   -1.40    0.80
 -13   1   8    1.20    1.00
 -12   1   8    0.70    0.90
 -12   1   8    1.20    0.80
  11  -1  -8    4.40    0.70
 -11   1   8    3.10    0.80
 -11   1   8    2.40    1.20
  10  -1  -8    8.20    1.00
 -10   1   8    8.50    1.10
 -10   1   8    6.20    0.80
   9  -1  -8    6.60    0.90
  -9   1   8    8.80    1.00
  -9   1   8    8.50    1.00
   8  -1  -8  168.58    4.70
  -8   1   8  170.58    4.60
  -8   1   8  173.98    4.90
  -8   1   8  173.88    4.90
   7  -1  -8   15.70    0.90
  -7   1   8   15.00    0.90
  -7   1   8   15.00    0.80
  -7   1   8   15.10    1.00
   6  -1  -8    1.20    0.40
   6  -1  -8    1.60    0.50
  -6   1   8    0.70    0.40
  -6   1   8    1.00    0.30
  -6   1   8    1.70    0.50
   5  -1  -8   45.10    1.60
  -5   1   8   45.60    1.50
  -5   1   8   45.30    1.60
  -5   1   8   46.70    1.40
   4  -1  -8  123.49    3.40
   4  -1  -8  122.89    3.40
  -4   1   8  123.59    3.50
  -4   1   8  123.49    3.40
  -4   1   8  122.29    3.30
   3  -1  -8   19.60    0.90
   3  -1  -8   20.00    0.80
  -3   1   8   21.40    1.00
  -3   1   8   21.60    0.80
  -3   1   8   20.40    0.80
   2  -1  -8   78.09    2.30
   2  -1  -8   79.79    2.20
  -2   1   8   75.29    2.20
  -2   1   8   78.19    2.30
  -2   1   8   78.99    2.20
   1  -1  -8   29.90    1.10
   1  -1  -8   31.40    1.10
  -1   1   8   32.60    1.00
  -1   1   8   30.80    1.10
  -1   1   8   29.70    1.00
   0  -1  -8   12.70    0.70
   0  -1  -8   11.80    0.70
   0  -1  -8   12.30    0.60
   0  -1  -8   12.00    0.60
   0   1   8   12.20    0.60
   0   1   8   12.60    0.70
  -1  -1  -8    9.30    0.60
  -1  -1  -8    9.70    0.70
  -1  -1  -8    9.20    0.60
  -1  -1  -8    9.10    0.50
   1   1   8    9.30    0.50
  -2  -1  -8   59.29    1.70
  -2  -1  -8   56.49    1.80
  -2  -1  -8   57.69    1.70
  -2  -1  -8   61.89    1.80
   2   1   8   60.69    1.70
  -3  -1  -8   15.60    0.80
  -3  -1  -8   13.90    0.70
   3   1   8   14.30    0.70
  -4  -1  -8   35.50    1.10
  -4  -1  -8   34.90    1.30
  -4  -1  -8   34.40    1.10
   4   1   8   34.40    1.20
  -5  -1  -8   38.60    1.30
  -5  -1  -8   37.60    1.50
   5   1   8   41.50    1.40
  -6  -1  -8   27.20    1.00
  -6  -1  -8   29.10    1.30
   6   1   8   28.80    1.20
  -7  -1  -8   16.30    1.10
   7   1   8   17.50    1.10
  -8  -1  -8   38.40    1.70
   8   1   8   37.00    1.70
  -9  -1  -8    0.00    0.70
   9   1   8    0.40    0.70
 -10  -1  -8    3.20    0.90
  10   1   8    2.20    0.90
 -11  -1  -8    4.50    1.00
  11   1   8    4.90    1.10
 -13   2   8   16.70    1.80
 -13   2   8   16.00    1.50
  12  -2  -8    8.60    1.00
 -12   2   8    6.20    0.90
 -12   2   8    6.00    1.00
  11  -2  -8   32.50    1.60
 -11   2   8   32.20    1.90
 -11   2   8   32.80    1.80
  10  -2  -8   42.10    1.70
 -10   2   8   40.60    1.80
 -10   2   8   41.00    1.80
   9  -2  -8  100.79    3.00
  -9   2   8   98.79    3.20
  -9   2   8  101.19    3.20
   8  -2  -8   41.40    1.50
  -8   2   8   37.70    1.60
  -8   2   8   39.70    1.60
   7  -2  -8   30.80    1.30
  -7   2   8   30.50    1.30
  -7   2   8   33.00    1.10
  -7   2   8   29.10    1.40
   6  -2  -8   51.49    1.90
   6  -2  -8   49.30    1.70
  -6   2   8   50.89    1.50
  -6   2   8   48.80    2.00
   5  -2  -8    4.90    0.60
   5  -2  -8    4.70    0.80
  -5   2   8    3.90    0.50
  -5   2   8    4.80    0.60
  -5   2   8    5.20    0.50
   4  -2  -8   18.40    0.90
   4  -2  -8   18.50    1.00
  -4   2   8   17.80    1.00
  -4   2   8   18.20    0.80
  -4   2   8   20.40    0.80
   3  -2  -8   21.40    0.90
   3  -2  -8   19.70    1.00
  -3   2   8   22.90    0.90
  -3   2   8   21.60    0.80
  -3   2   8   22.10    1.00
   2  -2  -8   -0.10    0.30
   2  -2  -8   -0.40    0.30
  -2   2   8   -0.30    0.30
  -2   2   8    0.10    0.30
  -2   2   8    0.00    0.20
   1  -2  -8   44.30    1.50
   1  -2  -8   45.60    1.40
  -1   2   8   44.40    1.40
  -1   2   8   45.80    1.50
  -1   2   8   48.30    1.40
   0  -2  -8   76.29    2.40
   0  -2  -8   79.19    2.30
   0  -2  -8   81.79    2.40
   0  -2  -8   83.09    2.30
   0   2   8   86.49    2.30
   0   2   8   82.99    2.40
  -1  -2  -8    0.50    0.30
  -1  -2  -8    0.90    0.30
  -1  -2  -8    0.30    0.30
  -1  -2  -8    0.60    0.30
   1   2   8    1.00    0.40
  -2  -2  -8  109.09    3.10
  -2  -2  -8  111.29    3.10
  -2  -2  -8  107.69    3.00
  -2  -2  -8  108.79    3.00
   2   2   8  113.49    3.00
  -3  -2  -8  139.69    3.80
  -3  -2  -8  135.59    3.70
  -3  -2  -8  137.39    3.90
  -3  -2  -8  144.19    3.80
   3   2   8  140.79    3.80
  -4  -2  -8    2.90    0.50
  -4  -2  -8    3.30    0.40
  -4  -2  -8    3.90    0.70
  -4  -2  -8    3.50    0.60
   4   2   8    3.80    0.50
  -5  -2  -8   30.80    1.30
  -5  -2  -8   30.90    1.10
  -5  -2  -8   30.80    1.10
   5   2   8   32.80    1.30
  -6  -2  -8   10.30    1.00
   6   2   8   10.30    0.90
  -7  -2  -8   -0.10    0.60
   7   2   8    0.10    0.50
  -8  -2  -8   15.40    1.30
   8   2   8   11.80    1.20
  -9  -2  -8    4.00    0.90
   9   2   8    4.40    0.90
 -10  -2  -8    9.80    1.50
  10   2   8    9.40    1.50
 -11  -2  -8    0.80    1.00
  11   2   8    2.30    1.00
 -13   3   8    2.80    0.80
 -13   3   8    1.70    1.00
  12  -3  -8   -0.60    0.70
 -12   3   8   -0.50    0.90
 -12   3   8    0.60    0.80
  11  -3  -8    2.10    1.20
 -11   3   8    0.60    0.70
 -11   3   8    1.60    0.80
  10  -3  -8   60.79    2.20
 -10   3   8   61.99    2.30
 -10   3   8   60.29    2.40
   9  -3  -8    1.20    0.50
  -9   3   8    1.60    0.70
  -9   3   8    1.60    0.60
   8  -3  -8    4.30    0.60
  -8   3   8    3.50    0.60
  -8   3   8    3.70    0.60
   7  -3  -8    2.80    0.50
  -7   3   8    3.00    0.60
  -7   3   8    2.80    0.60
   6  -3  -8   36.00    1.30
  -6   3   8   37.30    1.10
  -6   3   8   33.20    1.60
  -6   3   8   36.90    1.40
   5  -3  -8  317.77    8.50
   5  -3  -8  309.77    8.40
  -5   3   8  324.77    8.20
  -5   3   8  319.77    8.50
  -5   3   8  330.17    8.40
   4  -3  -8  500.75   13.10
   4  -3  -8  509.55   13.20
  -4   3   8  523.15   13.10
  -4   3   8  507.85   13.20
  -4   3   8  506.55   13.00
   3  -3  -8  148.59    4.10
   3  -3  -8  150.68    4.10
  -3   3   8  146.69    4.00
  -3   3   8  151.68    4.20
  -3   3   8  154.48    4.10
   2  -3  -8   36.90    1.40
   2  -3  -8   39.20    1.30
  -2   3   8   38.00    1.20
  -2   3   8   38.00    1.40
  -2   3   8   40.70    1.30
   1  -3  -8   60.89    1.80
   1  -3  -8   63.49    1.90
   1  -3  -8   63.09    2.00
  -1   3   8   64.69    1.90
   0  -3  -8  426.36   11.10
   0  -3  -8  426.46   11.00
   0  -3  -8  424.46   11.00
   0   3   8  426.16   11.10
   0   3   8  440.46   11.00
  -1  -3  -8   11.10    0.70
  -1  -3  -8   11.50    0.60
  -1  -3  -8   10.20    0.80
   1   3   8   10.90    0.70
   1   3   8   10.50    1.30
  -2  -3  -8   24.10    1.20
  -2  -3  -8   26.40    0.90
   2   3   8   24.60    1.00
  -3  -3  -8    6.00    0.60
  -3  -3  -8    5.40    0.50
  -3  -3  -8    4.90    0.70
   3   3   8    4.40    0.50
  -4  -3  -8   13.90    0.90
  -4  -3  -8   14.40    0.70
  -4  -3  -8   14.10    0.80
  -5  -3  -8    1.90    0.50
  -5  -3  -8    2.00    0.40
   5   3   8    2.40    0.50
  -6  -3  -8   28.60    1.20
  -6  -3  -8   28.10    1.40
   6   3   8   25.70    1.30
  -7  -3  -8    1.60    0.60
   7   3   8    2.10    0.70
  -8  -3  -8   35.50    1.70
   8   3   8   33.70    1.80
  -9  -3  -8    3.70    0.90
   9   3   8    5.20    1.00
 -10  -3  -8    0.10    0.90
  10   3   8    1.40    0.90
 -11  -3  -8    9.40    1.30
  13  -4  -8   10.10    1.20
 -13   4   8   10.20    1.80
 -13   4   8    6.40    0.90
  12  -4  -8   45.80    2.00
 -12   4   8   43.60    2.10
 -12   4   8   45.60    2.30
  11  -4  -8    6.70    0.90
 -11   4   8    6.20    0.90
 -11   4   8    6.00    1.00
  10  -4  -8    0.60    0.60
 -10   4   8    0.90    0.70
 -10   4   8    0.40    0.70
   9  -4  -8   32.90    1.50
  -9   4   8   32.10    1.60
  -9   4   8   33.60    1.60
   8  -4  -8   51.69    1.90
  -8   4   8   53.49    2.00
  -8   4   8   52.59    2.00
   7  -4  -8   -0.10    0.50
  -7   4   8    0.00    0.50
  -7   4   8   -0.20    0.50
   6  -4  -8   78.39    2.40
  -6   4   8   79.39    2.50
  -6   4   8   80.09    2.50
   5  -4  -8   66.69    2.10
   5  -4  -8   69.59    2.30
  -5   4   8   72.79    2.20
  -5   4   8   71.19    2.30
   4  -4  -8   -0.10    0.40
   4  -4  -8    0.40    0.30
  -4   4   8    0.50    0.50
  -4   4   8    0.60    0.40
  -4   4   8    0.30    0.30
   3  -4  -8   93.59    2.80
   3  -4  -8   91.49    2.80
  -3   4   8   93.49    2.60
  -3   4   8   98.19    2.80
  -3   4   8   95.19    2.80
   2  -4  -8 1549.14   39.10
   2  -4  -8 1534.95   39.00
  -2   4   8 1516.35   38.90
  -2   4   8 1545.95   39.10
  -2   4   8 1550.44   39.00
   1  -4  -8  389.96   10.00
   1  -4  -8  392.16   10.10
   1  -4  -8  386.46   10.00
  -1   4   8  387.86   10.10
  -1   4   8  389.36   10.10
   0  -4  -8  848.62   21.90
   0  -4  -8  860.31   22.00
   0  -4  -8  864.31   21.90
   0   4   8  859.31   21.90
   0   4   8  864.91   22.00
  -1  -4  -8  208.18    5.50
  -1  -4  -8  205.88    5.60
   1   4   8  213.08    5.60
  -2  -4  -8 1122.09   28.80
  -2  -4  -8 1129.79   28.90
  -2  -4  -8 1120.69   28.90
   2   4   8 1170.48   28.90
  -3  -4  -8   41.70    1.50
  -3  -4  -8   43.50    1.30
  -3  -4  -8   44.10    1.50
   3   4   8   41.10    1.70
  -4  -4  -8  142.49    3.90
  -4  -4  -8  137.29    4.00
   4   4   8  141.99    4.00
  -5  -4  -8  140.59    3.90
  -5  -4  -8  141.29    4.00
   5   4   8  135.19    4.00
  -6  -4  -8    2.90    0.50
  -6  -4  -8    2.60    0.70
   6   4   8    2.90    0.70
  -7  -4  -8    8.70    1.30
   7   4   8    9.20    1.20
  -8  -4  -8   85.79    3.00
   8   4   8   86.39    3.00
  -9  -4  -8   27.60    1.80
   9   4   8   26.10    1.80
 -10  -4  -8   16.10    1.80
  10   4   8   17.70    1.80
  13  -5  -8   18.20    1.70
 -13   5   8   23.10    2.30
  12  -5  -8    5.10    1.00
 -12   5   8    4.10    0.90
 -12   5   8    5.20    1.20
  11  -5  -8    1.30    0.70
 -11   5   8    0.10    0.80
 -11   5   8   -0.20    0.80
  10  -5  -8   24.00    2.20
 -10   5   8   19.50    2.20
   9  -5  -8   -0.50    0.50
  -9   5   8    0.50    0.70
  -9   5   8   -0.10    0.60
   8  -5  -8    2.40    0.60
  -8   5   8    2.40    0.70
  -8   5   8    2.80    0.70
   7  -5  -8   41.90    1.60
  -7   5   8   42.60    1.80
  -7   5   8   41.10    1.70
   6  -5  -8   99.69    2.90
  -6   5   8   99.19    3.00
  -6   5   8   97.19    3.00
   5  -5  -8   22.50    1.00
   5  -5  -8   20.40    1.30
  -5   5   8   21.00    1.10
   4  -5  -8   18.60    0.90
  -4   5   8   18.10    1.10
  -4   5   8   16.20    1.00
  -4   5   8   17.60    0.70
   3  -5  -8    1.10    0.40
   3  -5  -8    1.50    0.50
  -3   5   8    1.20    0.50
  -3   5   8    1.10    0.30
   2  -5  -8   16.70    1.00
   2  -5  -8   16.90    1.00
  -2   5   8   18.20    0.90
  -2   5   8   17.30    1.10
   1  -5  -8  167.78    4.50
   1  -5  -8  162.48    4.40
   1  -5  -8  162.58    4.60
  -1   5   8  165.78    4.60
  -1   5   8  169.28    4.60
   0  -5  -8  640.34   16.30
   0  -5  -8  630.04   16.50
   0  -5  -8  650.93   16.30
   0   5   8  623.04   16.60
   0   5   8  648.74   16.40
  -3  -5  -8    0.80    0.50
  -3  -5  -8    1.50    0.50
   3   5   8    1.40    0.50
  -4  -5  -8  138.29    3.90
  -4  -5  -8  135.39    4.00
   4   5   8  139.79    4.00
  -5  -5  -8   70.09    2.40
   5   5   8   68.49    2.40
  -6  -5  -8   45.20    1.70
  -6  -5  -8   43.10    1.80
   6   5   8   45.40    1.90
  -7  -5  -8   75.89    2.40
  -7  -5  -8   62.29    2.60
   7   5   8   71.89    2.60
  -8  -5  -8    0.70    0.80
   8   5   8    2.30    0.80
  -9  -5  -8   16.60    1.70
   9   5   8   19.00    1.70
 -10  -5  -8    1.40    1.10
  10   5   8    2.70    1.10
  12  -6  -8    6.10    1.00
 -12   6   8    3.80    1.20
 -12   6   8    4.10    0.90
  11  -6  -8   37.10    1.80
 -11   6   8   34.60    2.00
 -11   6   8   38.00    2.00
  10  -6  -8   14.50    1.30
 -10   6   8   13.40    1.50
 -10   6   8   11.90    1.40
   9  -6  -8    0.50    0.60
  -9   6   8    0.30    0.70
  -9   6   8    0.00    0.70
   8  -6  -8   10.30    1.50
  -8   6   8    6.90    1.10
  -8   6   8    7.60    1.20
   7  -6  -8   10.90    1.20
  -7   6   8    8.50    1.10
  -7   6   8    9.80    1.00
   6  -6  -8   41.70    1.60
  -6   6   8   39.40    1.70
  -6   6   8   40.10    1.70
   5  -6  -8  105.79    3.10
  -5   6   8  105.89    3.20
  -5   6   8  103.09    3.20
   4  -6  -8    8.40    1.00
   4  -6  -8    8.30    0.70
  -4   6   8    6.40    0.80
  -4   6   8    8.20    1.00
   3  -6  -8   26.60    1.30
   3  -6  -8   25.70    1.10
  -3   6   8   26.50    1.30
  -3   6   8   24.80    1.20
  -3   6   8   26.10    0.90
   2  -6  -8   48.80    1.60
   2  -6  -8   50.39    1.80
  -2   6   8   50.29    1.80
  -2   6   8   49.20    1.80
  -1   6   8   11.70    1.10
   0  -6  -8   60.09    1.90
   0  -6  -8   61.79    2.10
   0   6   8   59.89    2.00
  -1  -6  -8    7.70    0.70
  -1  -6  -8    9.20    1.00
  -1  -6  -8    9.00    0.80
   1   6   8    7.80    0.90
  -2  -6  -8    3.70    0.60
  -2  -6  -8    4.50    0.80
  -2  -6  -8    4.20    0.60
   2   6   8    6.50    0.90
  -3  -6  -8    6.10    1.10
   3   6   8    7.30    0.90
  -4  -6  -8   46.30    1.90
  -4  -6  -8   47.90    1.90
   4   6   8   48.10    1.90
  -5  -6  -8   19.90    1.50
  -5  -6  -8   20.20    1.30
   5   6   8   22.10    1.40
  -6  -6  -8    0.00    0.60
  -6  -6  -8    0.90    0.70
   6   6   8   -0.20    0.70
  -7  -6  -8   12.40    1.20
  -7  -6  -8   10.60    1.30
  -8  -6  -8   11.90    1.50
   8   6   8   13.00    1.60
  -9  -6  -8    3.00    1.00
   9   6   8    3.10    1.10
  12  -7  -8   13.90    1.60
 -12   7   8   10.00    1.80
 -12   7   8   12.70    1.80
  11  -7  -8   -0.80    0.70
 -11   7   8   -0.30    0.80
 -11   7   8    0.80    0.90
  10  -7  -8    1.90    0.80
 -10   7   8    0.20    0.80
 -10   7   8    0.80    0.80
   9  -7  -8    0.80    0.70
  -9   7   8   -0.30    0.80
   8  -7  -8    3.80    0.70
  -8   7   8    3.10    0.80
  -8   7   8    4.40    0.80
   7  -7  -8   22.50    1.60
  -7   7   8   21.30    1.40
  -7   7   8   21.10    1.50
   6  -7  -8  103.79    3.10
  -6   7   8  104.49    3.30
  -6   7   8  104.39    3.30
   5  -7  -8   37.90    1.50
  -5   7   8   38.20    1.60
  -5   7   8   36.30    1.70
   4  -7  -8   70.39    2.20
  -4   7   8   69.89    2.40
  -4   7   8   72.99    2.50
   3  -7  -8    4.80    0.70
   3  -7  -8    4.10    0.70
  -3   7   8    3.20    0.60
  -3   7   8    3.80    0.70
   2  -7  -8   10.40    0.80
   2  -7  -8    9.50    0.70
   2  -7  -8    9.70    1.10
  -2   7   8   11.30    1.30
  -2   7   8    9.80    0.90
   1  -7  -8    6.60    1.00
   1  -7  -8    6.70    0.70
   1  -7  -8    8.10    0.70
  -1   7   8    6.80    0.90
   0  -7  -8    0.80    0.50
   0  -7  -8    1.30    0.40
   0  -7  -8    1.10    0.40
   0   7   8    0.40    0.50
  -1  -7  -8    1.50    0.50
  -1  -7  -8    0.80    0.50
  -1  -7  -8    0.70    0.40
   1   7   8    0.50    0.50
  -2  -7  -8    0.30    0.60
  -2  -7  -8    0.00    0.40
   2   7   8   -0.10    0.50
  -3  -7  -8   -0.20    0.50
  -3  -7  -8   -0.10    0.60
   3   7   8   -0.30    0.60
  -4  -7  -8   99.99    3.10
   4   7   8   99.99    3.20
  -5  -7  -8   76.09    2.80
  -5  -7  -8   76.89    2.60
   5   7   8   74.99    2.70
  -6  -7  -8   68.99    2.50
  -6  -7  -8   68.79    2.50
   6   7   8   65.49    2.70
  -7  -7  -8    5.80    1.00
  -7  -7  -8    8.20    1.30
   7   7   8    4.10    1.00
  -8  -7  -8    1.00    0.90
  -8  -7  -8    1.40    0.90
   8   7   8    1.80    1.00
  -9  -7  -8   11.60    1.80
   9   7   8    9.00    1.30
  11  -8  -8   11.00    1.50
 -11   8   8   10.90    1.70
 -11   8   8   11.90    1.70
  10  -8  -8    1.20    0.80
 -10   8   8    2.70    1.00
 -10   8   8    2.30    0.90
   9  -8  -8   -0.50    0.60
  -9   8   8    0.00    0.80
  -9   8   8   -0.30    0.80
   8  -8  -8    0.80    0.70
  -8   8   8    0.80    0.70
  -8   8   8    1.70    1.00
   7  -8  -8    0.10    0.50
  -7   8   8    1.10    0.80
  -7   8   8    1.00    0.70
   6  -8  -8    0.30    0.60
  -6   8   8    0.80    0.70
  -6   8   8    1.10    0.60
   5  -8  -8   24.60    1.30
  -5   8   8   25.00    1.50
  -5   8   8   23.50    1.40
   4  -8  -8  304.57    8.20
  -4   8   8  305.97    8.30
  -4   8   8  312.07    8.30
   3  -8  -8   46.10    1.70
   3  -8  -8   44.20    2.00
  -3   8   8   44.20    1.80
  -3   8   8   49.60    2.00
   2  -8  -8  175.98    5.10
   2  -8  -8  171.38    4.80
  -2   8   8  174.38    5.00
  -2   8   8  183.48    5.10
   1  -8  -8    8.10    1.10
   1  -8  -8    8.20    0.70
   1  -8  -8    8.00    0.80
  -1   8   8    6.40    1.00
   0  -8  -8   25.50    1.10
   0  -8  -8   24.90    1.10
   0  -8  -8   23.00    1.40
   0   8   8   24.70    1.40
  -1  -8  -8  142.99    4.10
  -1  -8  -8  145.49    4.30
   1   8   8  145.39    4.30
  -2  -8  -8    0.40    0.60
  -2  -8  -8   -0.70    0.50
   2   8   8   -0.10    0.70
  -3  -8  -8   60.29    2.10
  -3  -8  -8   61.29    2.30
   3   8   8   56.99    2.30
  -4  -8  -8    0.70    0.70
  -4  -8  -8    0.20    0.60
   4   8   8   -0.10    0.70
  -5  -8  -8    1.50    0.90
  -5  -8  -8   -0.80    0.80
   5   8   8    0.30    1.00
  -6  -8  -8    4.40    0.90
  -6  -8  -8    2.80    0.80
   6   8   8    3.00    1.00
  -7  -8  -8   23.00    1.70
  -7  -8  -8   19.30    1.70
   7   8   8   17.20    1.80
  -8  -8  -8   23.20    1.90
  -8  -8  -8   27.50    1.90
   8   8   8   18.60    2.00
  11  -9  -8    6.70    1.10
 -11   9   8    5.40    1.20
 -11   9   8    6.00    1.10
  10  -9  -8    4.30    0.90
 -10   9   8    4.90    1.00
 -10   9   8    4.30    1.10
   9  -9  -8   77.39    2.80
  -9   9   8   78.09    3.00
  -9   9   8   78.29    3.00
   8  -9  -8    3.00    0.70
  -8   9   8    3.80    0.90
  -8   9   8    3.80    0.90
   7  -9  -8  106.19    3.30
  -7   9   8  100.39    4.50
  -7   9   8  107.19    3.50
   6  -9  -8    5.50    0.70
  -6   9   8    6.80    1.20
  -6   9   8    6.40    0.90
   5  -9  -8    4.30    0.60
  -5   9   8    3.90    0.90
  -5   9   8    4.50    0.80
   4  -9  -8    6.60    0.90
  -4   9   8    6.70    0.90
  -4   9   8    7.30    1.10
   3  -9  -8   11.50    1.00
  -3   9   8   10.10    1.20
  -3   9   8   12.60    1.50
   2  -9  -8   34.80    1.40
   2  -9  -8   37.80    1.90
  -2   9   8   33.90    1.70
   1  -9  -8   59.09    1.90
   1  -9  -8   58.19    1.90
   1  -9  -8   57.49    2.30
  -1   9   8   59.39    2.20
   0  -9  -8    9.90    1.40
   0  -9  -8   11.90    0.90
   0  -9  -8   10.80    0.90
   0   9   8   11.00    1.20
  -1  -9  -8   32.30    1.40
  -1  -9  -8   29.80    1.70
   1   9   8   31.00    1.70
  -2  -9  -8    7.20    1.00
   2   9   8    7.30    1.20
  -3  -9  -8    1.70    0.70
  -3  -9  -8    1.00    0.80
   3   9   8    0.70    0.80
   4   9   8    8.90    1.40
  -5  -9  -8    5.00    1.00
  -5  -9  -8    3.60    0.80
   5   9   8    3.30    1.00
  -6  -9  -8    0.60    0.90
  -6  -9  -8    3.10    0.90
   6   9   8    0.70    1.00
  -7  -9  -8   23.10    1.90
  -7  -9  -8   19.90    1.80
   7   9   8   15.70    1.90
  10 -10  -8    9.40    1.20
 -10  10   8   12.60    1.90
 -10  10   8   11.10    1.90
   9 -10  -8   13.80    1.50
  -9  10   8   18.20    1.80
  -9  10   8   15.60    1.90
   8 -10  -8   57.99    2.30
  -8  10   8   59.89    2.60
  -8  10   8   57.89    2.60
   7 -10  -8    2.80    0.70
  -7  10   8    4.10    0.90
  -7  10   8    5.40    1.00
   6 -10  -8    1.70    0.70
  -6  10   8    0.90    0.80
  -6  10   8    2.30    0.80
   5 -10  -8   -0.70    0.50
  -5  10   8   -1.00    0.90
  -5  10   8    0.40    0.80
   4 -10  -8   23.80    1.30
  -4  10   8   24.90    1.60
  -4  10   8   21.50    1.80
   3 -10  -8   67.09    2.20
  -3  10   8   65.49    2.50
   2 -10  -8   25.00    1.30
  -2  10   8   28.60    1.60
   1 -10  -8   30.60    1.90
   1 -10  -8   29.10    1.40
  -1  10   8   28.80    1.60
   0 -10  -8   62.09    2.50
   0  10   8   61.39    2.40
  -1 -10  -8    4.00    0.90
  -1 -10  -8    4.20    0.70
   1  10   8    3.80    0.90
  -2 -10  -8   19.40    1.30
  -2 -10  -8   18.80    1.70
   2  10   8   20.70    2.20
   3  10   8    7.60    1.20
  -4 -10  -8   32.10    1.70
  -4 -10  -8   33.20    2.10
   4  10   8   33.30    2.00
  -5 -10  -8   55.39    2.50
  -5 -10  -8   54.39    2.30
   5  10   8   47.40    2.50
  -6 -10  -8    0.60    0.90
  -6 -10  -8   -0.20    1.00
   6  10   8    0.30    1.10
   9 -11  -8    5.00    1.00
  -9  11   8    5.00    1.20
  -9  11   8    5.30    1.20
   8 -11  -8   85.39    3.00
  -8  11   8   86.29    3.30
  -8  11   8   84.39    3.30
   7 -11  -8   19.40    1.50
  -7  11   8   27.00    2.10
  -7  11   8   20.20    1.80
   6 -11  -8   40.00    1.80
  -6  11   8   41.60    2.30
  -6  11   8   37.80    2.10
   5 -11  -8    3.80    0.70
  -5  11   8    4.10    1.00
  -5  11   8    2.80    1.10
   4 -11  -8   25.00    2.00
  -4  11   8   24.30    1.70
   3 -11  -8   55.19    2.10
  -3  11   8   55.19    2.30
   2 -11  -8   -0.10    0.60
  -2  11   8    0.30    0.80
  -1  11   8    0.50    0.80
   0 -11  -8    2.40    1.00
   0  11   8    3.30    0.90
  -1 -11  -8   25.60    2.30
   1  11   8   30.10    1.90
  -2 -11  -8   96.89    3.40
  -2 -11  -8  101.69    3.50
   2  11   8   95.19    3.50
  -3 -11  -8   33.00    1.80
  -3 -11  -8   32.50    2.30
   3  11   8   34.80    2.10
  -4 -11  -8  392.46   10.50
  -4 -11  -8  383.26   10.30
   4  11   8  377.16   10.60
  -5 -11  -8    8.50    1.20
  -5 -11  -8    8.30    1.10
   5  11   8    7.60    1.30
   8 -12  -8    7.20    1.10
  -8  12   8    5.70    1.30
  -8  12   8    6.80    1.30
   7 -12  -8   16.20    1.50
  -7  12   8   17.20    2.20
  -7  12   8   14.90    1.90
   6 -12  -8   19.70    1.50
  -6  12   8   24.70    2.20
  -6  12   8   19.30    1.80
   5 -12  -8   39.70    1.90
  -5  12   8   38.00    2.20
   4 -12  -8    8.30    1.20
  -4  12   8    9.00    1.60
   3 -12  -8    3.80    0.80
  -3  12   8    1.50    0.90
  -2  12   8   68.99    2.80
  -1  12   8    2.40    1.00
   0  12   8   -0.30    0.90
  -1 -12  -8   87.59    3.50
   1  12   8   89.99    3.30
  -2 -12  -8   13.50    2.20
   2  12   8   14.60    1.80
  -3 -12  -8    0.40    1.10
   3  12   8   -1.20    1.10
  -4 -12  -8   96.09    3.20
  -4 -12  -8   90.19    4.00
   4  12   8   86.79    3.60
   6 -13  -8    2.10    0.90
  -6  13   8   -0.50    1.30
  -6  13   8    0.30    1.10
   5 -13  -8    9.90    1.40
  -5  13   8   12.70    1.80
   4 -13  -8    2.80    0.90
  -4  13   8    1.50    1.10
  -3  13   8    2.00    1.00
  -2  13   8    1.30    1.10
  -1  13   8   21.30    1.90
   0  13   8    2.30    1.10
   1  13   8    5.70    1.20
  -2 -13  -8    0.60    1.40
   2  13   8    2.00    1.20
   1  16  -9   16.50    2.20
   0  16  -9   54.19    2.80
  -1  16  -9    4.30    1.20
  -2  16  -9    0.80    1.10
   2 -16   9    1.90    0.90
  -3  16  -9   -2.60    1.20
   3 -16   9    1.00    0.90
  -4 -15   9   10.20    1.70
  -3 -15   9    0.70    0.90
   2  15  -9    9.60    1.40
  -2 -15   9    7.80    1.10
   1  15  -9   31.70    2.20
  -1 -15   9   30.20    1.80
   0  15  -9   32.00    2.30
  -1  15  -9    9.90    1.70
   1 -15   9    7.30    0.90
  -2  15  -9    4.60    1.10
   2 -15   9    2.40    0.80
   3 -15   9   14.70    1.50
  -4  15  -9   28.70    2.00
   4 -15   9   24.40    1.80
  -5  15  -9    0.50    0.90
   5 -15   9    0.40    0.80
  -6 -14   9   12.20    1.80
  -5 -14   9    1.60    1.00
  -4 -14   9   14.80    1.60
  -3 -14   9    1.70    0.80
   2  14  -9    0.00    1.00
  -2 -14   9   -0.70    0.80
   1  14  -9    1.50    1.00
  -1 -14   9    1.30    0.80
   0  14  -9    2.70    1.00
   0  14  -9    2.50    1.00
   0 -14   9    4.70    0.90
  -1  14  -9    0.60    0.70
  -1  14  -9   -0.60    0.90
   1 -14   9    1.20    1.10
  -2  14  -9    2.10    0.80
  -2  14  -9    1.80    0.80
  -3  14  -9    2.50    0.80
  -3  14  -9    2.30    0.90
  -4  14  -9   28.20    1.80
   4 -14   9   22.20    1.60
  -5  14  -9    1.60    0.80
   5 -14   9    2.30    0.90
   6 -14   9    2.60    0.90
   7 -14   9   14.20    1.70
  -7 -13   9    0.60    1.10
  -6 -13   9    3.50    1.00
  -5 -13   9    7.70    1.00
  -4 -13   9    1.20    0.80
   3  13  -9    3.80    1.30
  -3 -13   9    2.90    0.80
   2  13  -9   -1.20    0.90
  -2 -13   9    0.80    0.90
   1  13  -9    0.60    0.70
  -1 -13   9   -1.00    0.70
   0  13  -9   27.80    1.80
   0  13  -9   32.50    1.60
   0 -13   9   32.00    1.60
  -1  13  -9    4.30    0.80
   1 -13   9    2.30    0.70
  -2  13  -9    4.30    0.80
  -2  13  -9    5.20    0.90
   2 -13   9    6.40    0.80
  -3  13  -9   -0.40    0.70
  -3  13  -9   -0.50    0.70
  -4  13  -9    1.30    0.90
  -4  13  -9    1.40    0.70
  -5  13  -9   -0.40    0.70
   6 -13   9   15.90    1.50
   7 -13   9    0.50    0.80
   8 -13   9    4.80    1.00
  -8 -12   9  121.69    4.10
  -7 -12   9   13.80    1.70
  -6 -12   9    6.80    1.10
  -5 -12   9  113.79    3.70
  -4 -12   9   23.10    1.60
   3  12  -9   54.39    2.50
  -3 -12   9   57.29    2.20
   2  12  -9    2.20    0.70
  -2 -12   9    1.50    0.70
   1  12  -9   11.10    1.20
   1  12  -9   12.50    1.10
  -1 -12   9   10.90    1.20
   0  12  -9   25.40    1.40
   0  12  -9   20.40    1.60
   0 -12   9   25.50    1.40
  -1  12  -9    0.90    0.60
  -1  12  -9    0.00    0.70
   1 -12   9   -0.10    0.60
  -2  12  -9   21.80    1.30
  -2  12  -9   17.80    1.60
   2 -12   9   23.10    1.30
  -3  12  -9   12.20    1.20
  -3  12  -9   14.60    1.30
   3 -12   9   12.80    1.20
  -4  12  -9   -1.50    0.90
  -4  12  -9   -0.20    1.10
  -5  12  -9    7.30    0.90
  -5  12  -9    8.20    0.80
  -6  12  -9   -0.70    0.80
   7 -12   9   17.10    1.40
   8 -12   9   -0.30    0.80
   9 -12   9    5.60    1.00
  -9 -11   9   43.10    3.30
  -9 -11   9   40.20    2.30
  -8 -11   9   -0.20    0.90
  -7 -11   9   -1.40    0.90
  -6 -11   9  137.39    4.20
  -5 -11   9   27.00    2.30
   4  11  -9   11.70    1.70
  -4 -11   9   10.80    1.40
   3  11  -9   10.00    1.60
   3  11  -9   10.90    1.00
  -3 -11   9    8.90    1.20
   2  11  -9  134.29    3.80
   2  11  -9  136.59    4.10
  -2 -11   9  133.19    4.00
   1  11  -9   19.30    1.10
   1  11  -9   17.90    1.50
  -1 -11   9   17.90    1.20
   0  11  -9   18.90    1.50
   0  11  -9   23.90    1.20
   0 -11   9   23.90    1.30
  -1  11  -9   72.69    2.90
  -1  11  -9   72.69    2.40
   1 -11   9   71.99    2.40
  -2  11  -9   30.30    1.60
  -2  11  -9   30.60    1.50
   2 -11   9   31.20    1.40
  -3  11  -9   42.50    1.90
  -3  11  -9   48.00    1.90
   3 -11   9   48.00    1.80
  -4  11  -9  110.79    3.40
   4 -11   9  108.69    3.30
  -5  11  -9   10.30    1.00
  -5  11  -9   10.90    1.20
  -6  11  -9   -0.70    0.70
  -7  11  -9   17.10    1.50
   8 -11   9   10.90    1.40
   9 -11   9    5.20    1.00
 -10 -10   9    2.80    1.10
 -10 -10   9    0.20    1.20
  -9 -10   9    1.10    1.10
  -9 -10   9   -0.40    0.90
   8  10  -9    1.60    1.40
  -8 -10   9   -0.10    0.80
  -8 -10   9   -0.30    1.00
   7  10  -9   64.79    2.50
  -7 -10   9   65.09    2.50
  -7 -10   9   67.79    2.80
   6  10  -9   37.10    1.70
  -6 -10   9   34.10    2.10
   5  10  -9  100.29    3.20
  -5 -10   9  106.59    3.40
   4  10  -9  140.19    3.80
   4  10  -9  138.39    4.20
   4  10  -9  130.79    3.90
  -4 -10   9  140.99    4.30
   3  10  -9   38.90    1.90
   3  10  -9   36.30    1.70
   3  10  -9   38.40    1.40
  -3 -10   9   39.60    1.70
   2  10  -9   35.60    1.80
   2  10  -9   35.90    1.40
  -2 -10   9   36.20    1.60
   1  10  -9   11.90    1.20
   1  10  -9   12.30    0.90
  -1 -10   9   12.30    1.00
   0  10  -9    1.30    0.60
   0  10  -9    1.10    0.50
   0 -10   9    1.40    0.50
  -1  10  -9   36.10    1.50
  -1  10  -9   36.70    1.50
   1 -10   9   35.80    1.50
  -2  10  -9   28.70    1.40
  -2  10  -9   28.10    1.40
   2 -10   9   29.20    1.30
  -3  10  -9  103.99    3.20
   3 -10   9  103.99    3.10
  -4  10  -9    0.60    0.60
   4 -10   9   -0.20    0.50
  -5  10  -9   10.40    1.20
   5 -10   9   11.90    1.00
  -6  10  -9    5.40    0.80
  -7  10  -9   10.70    1.30
   8 -10   9   17.60    1.40
   9 -10   9   62.39    2.50
  10 -10   9    6.70    1.00
 -10  -9   9    9.60    1.40
 -10  -9   9   11.00    1.70
   9   9  -9    1.20    0.90
  -9  -9   9    0.40    1.00
  -9  -9   9    0.20    0.90
   8   9  -9    5.70    0.90
  -8  -9   9    4.30    0.90
   7   9  -9   14.70    1.30
  -7  -9   9   11.70    1.60
  -7  -9   9   13.50    1.60
   6   9  -9   30.70    1.50
  -6  -9   9   32.70    1.90
  -6  -9   9   27.10    1.80
   5   9  -9   11.40    0.90
   5   9  -9   10.70    1.50
   5   9  -9    9.80    1.00
  -5  -9   9   11.80    1.10
  -5  -9   9   10.50    1.30
   4   9  -9   33.40    1.60
   4   9  -9   33.50    1.30
   4   9  -9   27.60    1.60
  -4  -9   9   33.00    1.50
   3   9  -9   18.50    1.00
   3   9  -9   18.50    1.30
   3   9  -9   18.30    0.90
  -3  -9   9   18.10    1.10
   2   9  -9    0.50    0.40
   2   9  -9    0.00    0.40
   2   9  -9    0.10    0.50
  -2  -9   9   -0.10    0.50
   1   9  -9    0.80    0.60
   1   9  -9    0.40    0.50
   1   9  -9    0.70    0.40
  -1  -9   9    0.70    0.50
   0   9  -9    8.00    1.00
   0   9  -9    8.10    0.80
   0  -9   9    7.30    0.80
  -1   9  -9   22.80    1.30
  -1   9  -9   22.10    1.10
   1  -9   9   22.10    1.10
  -2   9  -9   37.70    1.50
  -2   9  -9   36.30    1.40
   2  -9   9   38.30    1.50
  -3   9  -9   17.60    1.10
  -3   9  -9   17.60    1.00
   3  -9   9   18.00    1.10
  -4   9  -9    4.70    0.80
  -4   9  -9    5.60    0.90
   4  -9   9    5.00    0.60
  -5   9  -9    9.50    1.30
   5  -9   9    7.10    0.90
  -6   9  -9   30.50    1.90
   6  -9   9   25.50    1.30
  -7   9  -9   63.09    2.50
  -8   9  -9    5.20    0.90
   9  -9   9    1.80    0.70
  10  -9   9    3.50    0.90
  11   8  -9   20.80    2.30
 -11  -8   9   19.00    2.30
 -11  -8   9   17.70    1.80
  10   8  -9   60.59    2.70
 -10  -8   9   61.89    2.50
 -10  -8   9   64.09    2.90
   9   8  -9   -0.60    1.10
  -9  -8   9   -0.20    1.00
  -9  -8   9    0.20    0.80
   8   8  -9    1.40    0.70
  -8  -8   9    1.30    0.80
   7   8  -9   27.80    1.40
  -7  -8   9   27.70    1.70
  -7  -8   9   25.90    1.50
   6   8  -9    1.00    0.60
  -6  -8   9    0.40    0.70
  -6  -8   9    0.10    0.60
   5   8  -9   44.80    2.20
   5   8  -9   42.00    1.60
   5   8  -9   41.80    1.50
  -5  -8   9   40.80    1.70
   4   8  -9   21.30    1.10
   4   8  -9   21.30    1.00
  -4  -8   9   21.30    1.20
  -4  -8   9   20.70    1.30
   3   8  -9    2.30    0.50
   3   8  -9    1.60    0.50
   3   8  -9    1.80    0.40
  -3  -8   9    2.00    0.60
   2   8  -9   13.80    0.80
   2   8  -9   11.40    0.80
   2   8  -9   13.50    1.00
  -2  -8   9   13.80    1.00
   1   8  -9    1.30    0.50
   1   8  -9    2.30    0.50
  -1  -8   9    1.50    0.50
   0   8  -9  223.48    6.00
   0   8  -9  222.38    5.90
   0  -8   9  220.48    6.00
  -1   8  -9   37.80    1.40
  -1   8  -9   37.40    1.40
   1  -8   9   37.80    1.40
  -2   8  -9  122.29    3.50
  -2   8  -9  123.29    3.50
   2  -8   9  124.79    3.50
  -3   8  -9   39.30    1.50
  -3   8  -9   37.60    1.40
   3  -8   9   41.10    1.50
  -4   8  -9   15.00    0.90
  -4   8  -9   14.80    1.00
  -4   8  -9   15.10    0.80
   4  -8   9   15.90    1.00
  -5   8  -9    0.90    0.50
   5  -8   9    0.70    0.50
  -6   8  -9   -0.30    0.50
   6  -8   9   -0.20    0.50
  -7   8  -9   17.10    1.20
   7  -8   9   15.80    1.10
  -8   8  -9    1.00    1.00
   9  -8   9    1.00    0.70
  10  -8   9    9.80    1.40
  11  -8   9    6.90    1.10
  11   7  -9   25.90    2.10
 -11  -7   9   24.40    1.80
 -11  -7   9   29.60    2.30
  10   7  -9   11.20    1.60
 -10  -7   9    6.90    1.00
 -10  -7   9    7.50    1.20
   9   7  -9   38.50    1.90
  -9  -7   9   37.60    1.80
  -9  -7   9   40.20    2.10
   8   7  -9   20.90    1.40
  -8  -7   9   21.60    1.50
  -8  -7   9   20.70    1.30
   7   7  -9    1.30    0.60
  -7  -7   9    1.60    0.60
  -7  -7   9    1.00    0.70
   6   7  -9   19.70    1.10
   6   7  -9   19.30    1.00
  -6  -7   9   20.40    1.20
  -6  -7   9   19.30    1.40
   5   7  -9    1.00    0.50
   5   7  -9    1.00    0.70
   5   7  -9    0.70    0.40
  -5  -7   9    0.40    0.50
  -5  -7   9    0.40    0.60
   4   7  -9    1.00    0.50
   4   7  -9    0.00    0.50
   4   7  -9    1.00    0.40
  -4  -7   9    0.30    0.40
  -4  -7   9    0.50    0.50
   3   7  -9   52.69    1.70
   3   7  -9   57.59    1.90
   3   7  -9   55.59    1.80
  -3  -7   9   54.99    1.90
  -3  -7   9   54.79    1.90
   2   7  -9    0.30    0.80
   2   7  -9   -0.20    0.30
   2   7  -9    0.00    0.30
  -2  -7   9    0.20    0.40
   1   7  -9   23.10    1.10
   1   7  -9   22.80    1.00
  -1  -7   9   21.90    1.00
   0   7  -9    9.80    0.80
   0   7  -9    9.10    0.70
   0  -7   9    9.10    0.80
  -1   7  -9   62.09    1.90
  -1   7  -9   59.79    1.90
   1  -7   9   63.59    2.00
  -2   7  -9   97.29    2.80
  -2   7  -9   98.79    2.90
   2  -7   9  100.79    2.90
  -3   7  -9   69.19    2.00
  -3   7  -9   67.09    2.10
  -3   7  -9   66.99    2.00
   3  -7   9   67.89    2.10
  -4   7  -9   87.29    2.70
   4  -7   9   88.89    2.60
  -5   7  -9   12.60    1.00
   5  -7   9   12.40    0.90
  -6   7  -9    1.70    0.60
   6  -7   9    1.40    0.50
  -7   7  -9    0.30    0.60
   7  -7   9    1.80    0.60
  -8   7  -9    9.70    1.10
   8  -7   9   10.10    1.20
   9  -7   9   21.60    1.40
  10  -7   9   -0.20    0.80
  12   6  -9   17.80    2.20
 -12  -6   9   15.40    2.20
 -12  -6   9   10.80    1.80
  11   6  -9   32.40    2.20
 -11  -6   9   35.00    2.20
 -11  -6   9   29.10    1.90
  10   6  -9    5.50    1.60
 -10  -6   9    3.90    0.90
 -10  -6   9    3.60    0.90
   9   6  -9    7.30    1.20
  -9  -6   9    4.10    0.80
  -9  -6   9    5.10    0.90
   8   6  -9    4.20    0.70
  -8  -6   9    3.90    0.70
  -8  -6   9    4.30    0.80
   7   6  -9   41.20    1.70
   7   6  -9   44.10    1.50
  -7  -6   9   44.80    1.70
  -7  -6   9   43.30    1.80
   6   6  -9   54.49    1.70
   6   6  -9   47.50    1.80
  -6  -6   9   52.69    1.90
  -6  -6   9   51.79    2.00
   5   6  -9   23.30    1.30
   5   6  -9   21.20    1.00
  -5  -6   9   22.40    1.30
  -5  -6   9   23.40    1.10
   4   6  -9  126.09    3.60
   4   6  -9  123.19    3.30
   4   6  -9  115.59    3.50
  -4  -6   9  125.89    3.60
  -4  -6   9  122.19    3.50
   3   6  -9    0.70    0.40
   3   6  -9    0.20    0.40
   3   6  -9    1.10    0.30
  -3  -6   9    0.90    0.50
  -3  -6   9    0.50    0.40
   2   6  -9   37.40    1.40
   2   6  -9   36.20    1.40
  -2  -6   9   37.70    1.40
  -2  -6   9   36.00    1.40
   1   6  -9    1.00    0.40
  -1  -6   9    1.80    0.40
   0   6  -9    8.20    0.70
   0  -6   9    8.50    0.70
  -1   6  -9    7.90    0.70
  -1   6  -9    8.70    0.70
   1  -6   9    7.80    0.70
  -2   6  -9   54.59    1.70
  -2   6  -9   56.79    1.70
  -2   6  -9   56.29    1.80
   2  -6   9   58.89    1.80
  -3   6  -9    0.20    0.30
  -3   6  -9    0.30    0.30
  -3   6  -9    0.40    0.30
   3  -6   9    0.40    0.40
  -4   6  -9    2.10    0.50
  -4   6  -9    1.90    0.30
   4  -6   9    1.60    0.50
  -5   6  -9   24.40    1.00
  -5   6  -9   23.30    1.10
   5  -6   9   22.80    1.10
  -6   6  -9   24.00    1.10
  -6   6  -9   22.90    1.20
   6  -6   9   23.80    1.10
  -7   6  -9    5.70    1.00
  -7   6  -9    6.20    0.90
   7  -6   9    6.50    0.90
  -8   6  -9    4.20    0.70
   8  -6   9    4.00    0.70
   9  -6   9    0.10    0.60
  10  -6   9   -0.70    0.70
  12   5  -9   49.99    2.70
 -12  -5   9   51.19    2.70
 -12  -5   9   47.50    2.40
  11   5  -9    7.30    1.20
 -11  -5   9    6.90    1.00
 -11  -5   9    6.90    1.10
  10   5  -9    0.10    0.80
 -10  -5   9   -1.40    0.70
 -10  -5   9    0.00    0.90
   9   5  -9    6.60    1.10
  -9  -5   9    4.70    0.70
  -9  -5   9    6.30    0.90
   8   5  -9   22.90    1.10
   8   5  -9   23.40    1.30
  -8  -5   9   22.90    1.30
  -8  -5   9   23.20    1.40
   7   5  -9  167.08    4.80
   7   5  -9  173.48    4.60
  -7  -5   9  171.08    4.80
  -7  -5   9  177.08    4.90
   6   5  -9  144.09    4.00
   6   5  -9  149.29    4.20
   6   5  -9  148.59    4.00
  -6  -5   9  142.89    4.10
  -6  -5   9  142.89    4.40
   5   5  -9   62.59    1.90
   5   5  -9   62.09    2.10
   5   5  -9   61.39    2.10
  -5  -5   9   61.69    2.00
  -5  -5   9   60.19    2.10
   4   5  -9  118.99    3.30
   4   5  -9  116.79    3.20
   4   5  -9  118.69    3.40
  -4  -5   9  116.99    3.40
  -4  -5   9  117.29    3.40
   3   5  -9   43.50    1.30
   3   5  -9   43.90    1.40
   3   5  -9   43.60    1.60
  -3  -5   9   44.40    1.50
  -3  -5   9   42.60    1.60
   2   5  -9  362.76    9.30
   2   5  -9  368.56    9.20
  -2  -5   9  338.17    9.40
   1   5  -9   67.19    2.00
   1   5  -9   62.29    2.00
  -1  -5   9   65.79    2.00
  -1  -5   9   65.99    2.20
   0   5  -9    3.80    0.50
  -1   5  -9   90.59    2.60
   1  -5   9   96.59    2.80
  -2   5  -9   22.90    0.90
  -2   5  -9   22.30    0.90
  -2   5  -9   21.30    0.90
  -3   5  -9    6.80    0.60
  -3   5  -9    4.80    0.50
  -3   5  -9    5.20    0.60
   3  -5   9    6.40    0.70
  -4   5  -9    1.70    0.30
  -4   5  -9    1.00    0.40
   4  -5   9    0.70    0.40
  -5   5  -9   21.30    0.90
  -5   5  -9   21.90    1.00
   5  -5   9   20.90    1.00
  -6   5  -9    1.00    0.40
  -6   5  -9    0.50    0.40
   6  -5   9    0.20    0.50
  -7   5  -9    1.50    0.50
   7  -5   9    1.30    0.50
  -8   5  -9    1.10    0.60
   8  -5   9    2.60    0.60
   8  -5   9    2.60    0.90
   9  -5   9   14.40    1.20
  10  -5   9   -0.10    0.70
  12   4  -9    7.10    1.20
 -12  -4   9    5.30    1.10
  11   4  -9   13.20    1.70
 -11  -4   9   15.00    1.60
 -11  -4   9   11.80    1.40
  10   4  -9   10.50    1.30
 -10  -4   9   10.80    1.30
 -10  -4   9    8.30    1.20
   9   4  -9    8.80    1.10
  -9  -4   9    8.90    1.00
  -9  -4   9    6.50    0.90
   8   4  -9    1.30    0.50
   8   4  -9    1.80    0.60
  -8  -4   9    0.80    0.50
  -8  -4   9    1.70    0.70
   7   4  -9    4.30    0.70
   7   4  -9    4.00    0.60
  -7  -4   9    4.30    0.70
  -7  -4   9    3.80    0.60
   6   4  -9    0.00    0.40
   6   4  -9    0.70    0.50
   6   4  -9   -0.10    0.40
  -6  -4   9   -0.60    0.40
  -6  -4   9    0.70    0.90
   5   4  -9   60.59    2.00
   5   4  -9   60.89    1.80
   5   4  -9   58.59    2.00
  -5  -4   9   56.79    1.90
  -5  -4   9   60.99    2.00
   4   4  -9  138.19    3.80
   4   4  -9  134.59    3.70
   4   4  -9  140.29    3.90
  -4  -4   9  137.09    3.90
  -4  -4   9  137.19    3.80
   3   4  -9   46.90    1.50
   3   4  -9   48.30    1.60
  -3  -4   9   41.50    1.80
  -3  -4   9   46.70    1.60
   2   4  -9 1333.87   33.40
   2   4  -9 1303.57   33.30
  -2  -4   9 1303.57   33.40
   1   4  -9    1.10    0.40
   1   4  -9    1.40    0.40
  -1  -4   9    1.10    0.40
  -1  -4   9    1.20    0.40
   0   4  -9 2089.89   52.39
   0   4  -9 2052.59   52.49
   0  -4   9 2080.39   52.39
   0  -4   9 2069.09   52.39
  -1   4  -9  367.66    9.40
  -1   4  -9  368.86    9.50
  -1   4  -9  353.46    9.40
   1  -4   9  373.36    9.50
  -2   4  -9    2.20    0.50
  -2   4  -9    1.50    0.30
   2  -4   9    1.60    0.40
  -3   4  -9   20.90    0.80
  -3   4  -9   22.00    0.80
  -3   4  -9   23.30    1.00
   3  -4   9   22.30    1.10
  -4   4  -9    0.40    0.40
   4  -4   9    0.50    0.30
   4  -4   9   -0.10    0.40
  -5   4  -9    8.20    0.70
   5  -4   9    7.10    0.80
   5  -4   9    5.70    0.60
  -6   4  -9   50.19    1.70
   6  -4   9   51.39    1.80
   6  -4   9   50.89    1.70
  -7   4  -9    0.80    0.50
   7  -4   9    0.90    0.50
   7  -4   9    0.80    0.50
  -8   4  -9   29.10    1.30
   8  -4   9   26.20    1.40
   8  -4   9   30.80    1.40
   9  -4   9    2.50    0.70
   9  -4   9    3.30    1.10
  10  -4   9   21.60    1.80
  13   3  -9    2.40    1.30
 -13  -3   9    1.80    1.20
  12   3  -9    0.90    1.00
 -12  -3   9    1.00    0.90
  11   3  -9    8.00    1.40
 -11  -3   9    7.00    1.00
 -11  -3   9    9.80    1.30
  10   3  -9   12.40    1.30
 -10  -3   9   15.70    1.40
 -10  -3   9   12.80    1.20
   9   3  -9   35.10    1.40
   9   3  -9   35.60    1.60
  -9  -3   9   37.60    1.50
  -9  -3   9   38.80    1.80
   8   3  -9   10.40    1.00
   8   3  -9    9.10    0.80
  -8  -3   9   11.90    0.90
  -8  -3   9    9.50    1.20
   7   3  -9   27.10    1.20
   7   3  -9   27.90    1.10
  -7  -3   9   25.90    1.20
  -7  -3   9   28.20    1.40
   6   3  -9   20.10    1.20
   6   3  -9   18.40    0.90
  -6  -3   9   18.50    1.10
  -6  -3   9   17.70    1.00
   5   3  -9    7.60    0.60
   5   3  -9    8.00    0.90
   5   3  -9    6.30    0.80
  -5  -3   9    7.80    0.90
   4   3  -9  305.67    8.00
   4   3  -9  305.27    7.90
   4   3  -9  301.57    7.80
  -4  -3   9  305.67    8.00
  -4  -3   9  303.97    8.00
   3   3  -9  221.48    5.90
   3   3  -9  216.78    5.70
   3   3  -9  228.88    5.90
  -3  -3   9  219.88    5.90
  -3  -3   9  221.38    5.90
   2   3  -9   70.09    2.10
   2   3  -9   70.89    2.10
  -2  -3   9   67.79    2.10
  -2  -3   9   69.79    2.10
   1   3  -9  616.74   15.40
   1   3  -9  570.64   15.40
  -1  -3   9  608.44   15.40
  -1  -3   9  615.84   15.50
   0   3  -9  953.30   23.40
   0   3  -9  955.90   23.40
   0   3  -9  780.62   23.30
   0  -3   9  947.71   23.40
   0  -3   9  963.80   23.40
   1  -3   9    1.90    0.40
  -2   3  -9  206.28    5.40
  -2   3  -9  206.68    5.30
  -2   3  -9  193.68    5.30
   2  -3   9  204.98    5.40
  -3   3  -9  143.29    3.80
   3  -3   9  130.99    4.00
  -4   3  -9   32.60    1.20
   4  -3   9   35.00    1.10
   4  -3   9   32.20    1.30
  -5   3  -9  279.57    7.50
   5  -3   9  294.47    7.50
   5  -3   9  285.37    7.60
  -6   3  -9   13.20    0.90
   6  -3   9   12.90    0.90
   6  -3   9   12.10    0.90
  -7   3  -9   72.39    2.30
  -7   3  -9   75.49    2.40
   7  -3   9   73.69    2.30
  -8   3  -9    1.30    0.50
  -8   3  -9    1.00    0.60
   8  -3   9    1.50    0.60
   9  -3   9    5.00    0.80
  10  -3   9    4.40    0.90
  13   2  -9   11.30    1.90
 -13  -2   9   12.60    1.90
  12   2  -9    1.50    1.00
 -12  -2   9    2.90    0.90
  11   2  -9    6.40    1.00
 -11  -2   9   10.30    1.40
  10   2  -9   14.90    1.10
 -10  -2   9   12.70    1.10
 -10  -2   9   15.70    1.40
   9   2  -9   21.30    1.10
  -9  -2   9   22.20    1.20
  -9  -2   9   21.90    1.30
  -9  -2   9   23.40    1.50
   8   2  -9   60.79    2.00
  -8  -2   9   60.99    2.10
  -8  -2   9   61.19    2.00
  -8  -2   9   58.89    2.20
   7   2  -9   31.30    1.20
  -7  -2   9   29.80    1.40
  -7  -2   9   30.50    1.30
  -7  -2   9   31.80    1.20
   6   2  -9    8.00    0.70
   6   2  -9    8.80    1.00
  -6  -2   9    7.60    0.70
  -6  -2   9    8.90    0.70
  -6  -2   9    7.80    0.90
   5   2  -9   56.99    1.90
  -5  -2   9   53.49    1.90
  -5  -2   9   56.09    1.80
  -5  -2   9   56.49    1.70
   4   2  -9   46.90    1.60
   4   2  -9   49.10    1.70
  -4  -2   9   46.40    1.50
  -4  -2   9   50.59    1.50
  -4  -2   9   51.29    1.70
   3   2  -9   29.80    1.10
   3   2  -9   26.80    1.10
  -3  -2   9   27.70    0.90
  -3  -2   9   27.30    1.10
  -3  -2   9   26.90    1.10
   2   2  -9    0.60    0.40
  -2  -2   9    0.20    0.40
  -2  -2   9    0.30    0.30
  -1  -2   9    1.00    0.30
  -1  -2   9    1.00    0.30
   0   2  -9  111.89    2.90
   0  -2   9  105.49    2.90
   0  -2   9   99.49    2.90
  -1   2  -9   10.00    0.60
  -1   2  -9   10.40    0.60
  -1   2  -9   10.70    0.70
   1  -2   9    7.70    0.70
  -2   2  -9  110.89    2.80
  -2   2  -9  104.19    2.90
  -2   2  -9   99.49    2.80
   2  -2   9  101.39    2.90
  -3   2  -9   16.70    0.70
   3  -2   9   16.30    0.60
   3  -2   9   14.10    0.80
  -4   2  -9   11.30    0.80
  -4   2  -9   10.40    0.80
   4  -2   9   12.50    0.60
  -6   2  -9   16.70    0.90
  -6   2  -9   16.30    1.00
   6  -2   9   18.60    1.00
  -8   2  -9   23.60    1.10
  -8   2  -9   25.60    1.40
   8  -2   9   23.00    1.40
  -9   2  -9   25.90    1.50
   9  -2   9   26.20    1.60
 -10   2  -9    6.70    1.00
 -11   2  -9    9.10    1.20
  13   1  -9    0.30    1.10
 -13  -1   9    0.70    0.90
  12   1  -9    3.10    1.00
 -12  -1   9    2.60    0.90
 -11  -1   9    0.90    0.70
 -11  -1   9    0.70    1.10
  10   1  -9   17.10    1.20
 -10  -1   9   16.60    1.30
 -10  -1   9   17.00    1.40
   9   1  -9    2.20    0.60
  -9  -1   9    1.20    0.60
  -9  -1   9    2.00    0.50
  -9  -1   9    0.40    0.60
   8   1  -9   63.69    2.10
  -8  -1   9   63.29    2.00
  -8  -1   9   65.59    2.30
  -8  -1   9   63.59    2.20
   7   1  -9    4.40    0.70
  -7  -1   9    4.30    0.50
  -7  -1   9    4.50    0.70
  -7  -1   9    5.10    0.90
   6   1  -9   45.10    1.70
   6   1  -9   43.60    1.50
  -6  -1   9   43.10    1.70
  -6  -1   9   44.20    1.50
  -6  -1   9   44.00    1.50
   5   1  -9  150.98    4.20
   5   1  -9  151.38    4.20
  -5  -1   9  152.58    4.30
  -5  -1   9  155.08    4.10
  -5  -1   9  152.98    4.10
   4   1  -9   68.39    2.10
   4   1  -9   67.99    2.00
  -4  -1   9   67.39    2.10
  -4  -1   9   69.79    1.90
  -4  -1   9   68.49    2.00
   3   1  -9    3.50    0.50
   3   1  -9    4.80    0.60
  -3  -1   9    4.70    0.50
  -3  -1   9    3.80    0.60
  -3  -1   9    3.20    0.40
   2   1  -9    0.80    0.30
   2   1  -9    1.00    0.30
  -2  -1   9    1.20    0.30
   1   1  -9  172.58    4.60
   1   1  -9  169.68    4.60
  -1  -1   9  169.98    4.60
  -1  -1   9  173.48    4.60
   0   1  -9  127.99    3.50
   0   1  -9  134.89    3.50
   0  -1   9  128.29    3.50
   0  -1   9  127.39    3.50
  -1   1  -9   37.30    1.20
  -1   1  -9   35.90    1.20
  -1   1  -9   36.60    1.20
   1  -1   9   35.00    1.30
  -2   1  -9   66.89    1.90
  -2   1  -9   68.79    1.90
  -2   1  -9   62.99    1.90
   2  -1   9   63.59    2.00
  -3   1  -9    0.90    0.40
  -3   1  -9    1.20    0.30
  -3   1  -9    0.80    0.30
  -3   1  -9    0.50    0.30
   3  -1   9    1.40    0.30
  -4   1  -9   74.39    2.20
  -4   1  -9   74.39    2.30
   4  -1   9   75.09    2.10
  -5   1  -9   32.50    1.30
  -5   1  -9   30.60    1.30
   5  -1   9   31.20    1.20
  -6   1  -9   43.70    1.60
  -6   1  -9   42.80    1.50
  -7   1  -9   28.20    1.40
  -7   1  -9   24.60    1.10
   7  -1   9   26.30    1.20
  -8   1  -9   25.80    1.40
   8  -1   9   23.50    1.30
  -9   1  -9    1.30    0.80
   9  -1   9    2.20    0.70
 -10   1  -9    2.50    0.90
  10  -1   9    1.80    0.90
 -11   1  -9   13.50    1.70
  13   0  -9   15.00    1.90
 -13   0   9   14.60    1.60
 -12   0   9    4.20    0.90
 -12   0   9    3.40    1.00
  11   0  -9   -1.00    0.70
 -11   0   9    0.00    0.70
 -11   0   9   -0.20    1.00
  10   0  -9    1.70    0.60
 -10   0   9    0.00    0.70
 -10   0   9    0.80    0.70
   9   0  -9    0.50    0.50
  -9   0   9    0.80    0.60
  -9   0   9    0.30    0.60
  -9   0   9    1.10    0.80
   8   0  -9    2.90    0.50
  -8   0   9    3.00    0.70
  -8   0   9    1.60    0.50
   7   0  -9    3.90    0.50
  -7   0   9    4.20    0.70
  -7   0   9    3.70    0.60
  -7   0   9    3.90    0.60
   6   0  -9   40.60    1.60
   6   0  -9   41.30    1.50
  -6   0   9   41.60    1.60
  -6   0   9   43.20    1.40
  -6   0   9   42.70    1.50
   5   0  -9   20.80    1.10
   5   0  -9   22.40    1.00
  -5   0   9   21.50    0.90
  -5   0   9   20.20    1.10
  -5   0   9   21.20    0.90
   4   0  -9  117.89    3.40
   4   0  -9  117.39    3.70
  -4   0   9  118.39    3.40
  -4   0   9  118.49    3.20
  -4   0   9  118.29    3.20
   3   0  -9    7.80    0.60
   3   0  -9    7.20    0.70
  -3   0   9    7.70    0.60
  -3   0   9    7.40    0.50
  -3   0   9    7.50    0.70
   2   0  -9    6.90    0.60
   2   0  -9    6.40    0.60
  -2   0   9    6.70    0.50
  -2   0   9    6.10    0.40
  -2   0   9    5.70    0.70
   1   0  -9  475.45   12.20
   1   0  -9  481.55   12.20
  -1   0   9  468.65   12.20
  -1   0   9  473.05   12.20
   0   0  -9   22.30    0.80
   0   0  -9   19.40    0.80
   0   0   9   17.50    0.90
   0   0   9   17.30    0.80
  -1   0  -9   15.00    0.70
  -1   0  -9   13.30    0.80
  -1   0  -9   14.20    0.70
   1   0   9   13.30    0.70
   1   0   9   14.40    0.60
  -2   0  -9   39.30    1.40
  -2   0  -9   38.70    1.40
  -2   0  -9   38.20    1.30
  -2   0  -9   35.40    1.40
   2   0   9   41.50    1.20
  -3   0  -9   47.30    1.40
  -3   0  -9   45.00    1.40
  -3   0  -9   47.80    1.50
  -3   0  -9   45.50    1.60
   3   0   9   46.20    1.40
  -4   0  -9  180.48    4.80
  -4   0  -9  180.68    4.90
   4   0   9  179.28    4.80
  -5   0  -9   66.79    2.10
  -5   0  -9   64.89    2.00
   5   0   9   66.59    2.00
  -6   0  -9    3.20    0.60
  -6   0  -9    2.90    0.40
   6   0   9    2.70    0.50
  -7   0  -9    7.20    1.00
   7   0   9    5.30    0.90
  -8   0  -9   48.50    1.90
   8   0   9   44.60    1.80
  -9   0  -9    0.80    1.00
   9   0   9    2.60    0.80
 -10   0  -9   12.60    1.60
  10   0   9   15.50    1.50
 -11   0  -9    0.60    1.00
 -13   1   9   19.00    1.90
 -13   1   9   19.90    1.70
  12  -1  -9    3.40    1.20
 -12   1   9    1.10    0.80
 -12   1   9    2.20    1.00
  11  -1  -9   53.39    2.10
 -11   1   9   53.89    2.30
 -11   1   9   54.29    2.40
  10  -1  -9    8.80    1.10
 -10   1   9   11.30    1.20
 -10   1   9    9.60    1.30
   9  -1  -9   23.80    1.30
  -9   1   9   23.20    1.30
  -9   1   9   24.20    1.50
   8  -1  -9   44.40    1.70
  -8   1   9   45.00    1.80
  -8   1   9   44.80    1.50
  -8   1   9   46.00    1.80
   7  -1  -9    2.00    0.50
  -7   1   9    2.10    0.60
  -7   1   9    2.00    0.50
  -7   1   9    2.40    0.40
   6  -1  -9  230.58    6.30
   6  -1  -9  234.18    6.40
  -6   1   9  246.88    6.40
  -6   1   9  237.58    6.50
  -6   1   9  240.28    6.20
   5  -1  -9  113.89    3.30
   5  -1  -9  112.09    3.20
  -5   1   9  110.79    3.10
  -5   1   9  113.69    3.20
  -5   1   9  115.79    3.30
   4  -1  -9  112.99    3.20
   4  -1  -9  110.09    3.20
  -4   1   9  113.99    3.10
  -4   1   9  114.69    3.30
  -4   1   9  113.69    3.10
   3  -1  -9    6.40    0.60
   3  -1  -9    4.70    0.70
  -3   1   9    5.70    0.50
  -3   1   9    5.90    0.80
  -3   1   9    5.90    0.50
   2  -1  -9    0.80    0.40
   2  -1  -9    1.00    0.40
  -2   1   9    1.20    0.40
  -2   1   9    1.00    0.30
  -1   1   9    3.00    0.50
  -1   1   9    2.50    0.40
  -1   1   9    2.50    0.40
   0  -1  -9  128.29    3.50
   0  -1  -9  129.09    3.50
   0  -1  -9  118.99    3.50
   0   1   9  128.89    3.50
   0   1   9  124.39    3.50
   0   1   9  131.89    3.40
  -1  -1  -9   78.89    2.30
  -1  -1  -9   80.19    2.30
  -1  -1  -9   80.09    2.30
  -1  -1  -9   79.39    2.30
   1   1   9   79.59    2.20
  -2  -1  -9   57.29    2.00
  -2  -1  -9   57.99    1.70
  -2  -1  -9   52.69    2.00
  -2  -1  -9   59.79    1.80
   2   1   9   60.29    1.70
  -3  -1  -9   13.80    0.80
  -3  -1  -9   12.00    0.70
  -3  -1  -9   13.70    0.80
  -3  -1  -9   16.00    0.80
   3   1   9   13.70    0.80
  -4  -1  -9   40.50    1.30
  -4  -1  -9   40.10    1.30
  -4  -1  -9   39.20    1.50
   4   1   9   42.30    1.40
  -5  -1  -9    9.00    0.70
  -5  -1  -9    9.10    0.80
   5   1   9    7.00    1.00
  -6  -1  -9   69.59    2.10
  -6  -1  -9   70.69    2.30
   6   1   9   69.49    2.20
  -7  -1  -9    7.30    1.00
   7   1   9    8.10    1.00
  -8  -1  -9   25.30    1.50
   8   1   9   27.10    1.50
  -9  -1  -9    9.70    1.40
   9   1   9    9.80    1.30
 -10  -1  -9    5.10    1.00
  10   1   9    4.30    1.00
 -11  -1  -9    0.30    1.10
 -13   2   9    1.90    0.90
 -13   2   9   -0.30    1.00
  12  -2  -9   29.30    1.80
 -12   2   9   32.40    2.10
 -12   2   9   31.80    1.90
  11  -2  -9   25.50    1.90
 -11   2   9   26.10    1.70
 -11   2   9   26.80    1.70
  10  -2  -9   39.80    1.70
 -10   2   9   41.60    1.90
 -10   2   9   41.70    1.90
   9  -2  -9   -0.50    0.50
  -9   2   9    0.00    0.60
  -9   2   9   -0.30    0.60
   8  -2  -9    0.30    0.50
  -8   2   9    0.30    0.60
  -8   2   9    0.70    0.60
   7  -2  -9    3.50    0.60
  -7   2   9    3.90    0.50
  -7   2   9    3.90    0.60
  -7   2   9    4.10    0.70
   6  -2  -9   12.00    0.80
  -6   2   9   12.90    0.90
  -6   2   9   11.30    0.60
   5  -2  -9  207.88    5.70
   5  -2  -9  214.88    5.80
  -5   2   9  215.08    5.80
  -5   2   9  209.88    5.60
  -5   2   9  216.58    5.70
   4  -2  -9  152.28    4.30
   4  -2  -9  154.98    4.40
  -4   2   9  160.58    4.30
  -4   2   9  154.88    4.20
  -4   2   9  164.48    4.40
   3  -2  -9    4.60    0.70
  -3   2   9    5.80    0.60
  -3   2   9    4.80    0.50
  -3   2   9    4.10    0.50
   2  -2  -9    3.50    0.60
   2  -2  -9    1.70    0.40
  -2   2   9    2.90    0.50
  -2   2   9    2.70    0.50
   1  -2  -9   20.30    0.80
   1  -2  -9   17.40    0.90
  -1   2   9   18.80    0.80
  -1   2   9   18.10    1.00
  -1   2   9   19.40    0.80
   0  -2  -9    0.50    0.30
   0  -2  -9    0.70    0.30
   0  -2  -9    0.30    0.40
   0   2   9    1.10    0.30
   0   2   9    0.20    0.40
  -1  -2  -9   33.80    1.10
  -1  -2  -9   30.70    1.40
  -1  -2  -9   34.40    1.20
   1   2   9   34.30    1.20
  -2  -2  -9   85.19    2.50
  -2  -2  -9   81.79    2.40
  -2  -2  -9   83.09    2.50
   2   2   9   88.29    2.40
  -3  -2  -9   60.79    1.80
  -3  -2  -9   58.49    1.90
  -3  -2  -9   57.99    1.80
  -3  -2  -9   61.09    2.00
   3   2   9   60.59    1.90
  -4  -2  -9   -0.30    0.40
  -4  -2  -9    0.30    0.40
  -4  -2  -9    0.60    0.50
  -4  -2  -9   -0.30    0.30
   4   2   9   -0.30    0.40
  -5  -2  -9   44.90    1.40
  -5  -2  -9   41.10    1.40
  -5  -2  -9   40.20    1.60
  -5  -2  -9   42.50    1.40
   5   2   9   42.70    1.60
  -6  -2  -9    2.00    0.70
   6   2   9    2.70    0.60
  -7  -2  -9   -0.20    0.70
   7   2   9    0.80    0.60
  -8  -2  -9    1.00    0.70
   8   2   9    2.90    0.70
  -9  -2  -9    1.60    0.90
   9   2   9    3.80    1.10
 -10  -2  -9    0.20    0.90
  10   2   9    2.00    1.00
 -11  -2  -9   11.60    1.90
  11   2   9   18.30    2.70
 -13   3   9    2.10    0.90
 -13   3   9    0.70    1.20
  12  -3  -9   38.40    1.90
 -12   3   9   37.80    2.10
 -12   3   9   36.10    2.10
 -11   3   9   13.20    1.40
 -11   3   9   14.60    1.60
  10  -3  -9    8.30    1.10
 -10   3   9    7.80    1.30
 -10   3   9    9.00    1.40
   9  -3  -9   68.09    2.30
  -9   3   9   68.69    2.40
  -9   3   9   66.99    2.50
   8  -3  -9    5.60    0.90
  -8   3   9    5.80    0.90
  -8   3   9    4.70    0.70
   7  -3  -9   15.00    1.00
  -7   3   9   13.80    1.00
  -7   3   9   12.50    1.10
   6  -3  -9    4.70    0.70
  -6   3   9    5.30    0.70
  -6   3   9    4.10    0.60
  -6   3   9    4.10    0.50
   5  -3  -9   38.40    1.40
   5  -3  -9   39.80    1.60
  -5   3   9   39.50    1.60
  -5   3   9   39.70    1.20
   4  -3  -9  168.88    4.80
   4  -3  -9  179.48    4.90
  -4   3   9  174.28    4.60
  -4   3   9  179.48    4.90
  -4   3   9  175.98    4.80
   3  -3  -9    0.30    0.40
   3  -3  -9    0.20    0.30
  -3   3   9   -0.10    0.40
  -3   3   9    0.20    0.30
  -3   3   9    0.20    0.30
   2  -3  -9   30.60    1.30
  -2   3   9   31.60    1.30
  -2   3   9   34.30    1.20
  -2   3   9   32.10    1.10
   1  -3  -9  112.99    3.20
   1  -3  -9  115.89    3.10
  -1   3   9  117.19    3.10
  -1   3   9  107.49    3.40
  -1   3   9  111.49    3.10
   0  -3  -9  598.34   15.40
   0  -3  -9  591.54   15.40
   0  -3  -9  595.94   15.40
   0   3   9  615.74   15.40
  -1  -3  -9   62.49    2.00
  -1  -3  -9   66.49    1.90
   1   3   9   66.19    2.00
  -2  -3  -9  157.88    4.40
  -2  -3  -9  157.18    4.40
  -2  -3  -9  159.98    4.30
   2   3   9  166.38    4.40
  -3  -3  -9    0.40    0.40
  -3  -3  -9    0.40    0.40
  -3  -3  -9    0.20    0.30
  -4  -3  -9  163.58    4.60
  -4  -3  -9  164.38    4.40
  -4  -3  -9  158.78    4.30
   4   3   9  162.58    4.50
  -5  -3  -9   58.49    2.10
  -5  -3  -9   60.29    1.90
   5   3   9   58.49    2.00
  -6  -3  -9    9.90    1.20
   6   3   9    7.60    1.00
  -7  -3  -9   -0.20    0.60
   7   3   9   -0.10    0.60
  -8  -3  -9   67.59    2.50
   8   3   9   64.69    2.50
  -9  -3  -9    1.80    0.90
   9   3   9    2.60    0.90
 -10  -3  -9   -0.10    0.90
  10   3   9    2.40    1.00
  13  -4  -9    9.80    1.20
 -13   4   9   14.90    2.30
  12  -4  -9    5.50    0.90
 -12   4   9    6.80    1.10
 -12   4   9    4.60    1.00
  11  -4  -9   17.00    1.40
 -11   4   9   16.70    1.60
 -11   4   9   17.60    1.60
  10  -4  -9   47.40    2.80
 -10   4   9   48.50    2.20
   9  -4  -9   17.90    1.30
  -9   4   9   17.70    1.40
  -9   4   9   14.90    1.30
   8  -4  -9   49.99    1.90
  -8   4   9   47.10    1.90
  -8   4   9   50.29    2.00
   7  -4  -9   67.19    2.20
  -7   4   9   68.59    2.30
  -7   4   9   68.89    2.40
  -6   4   9   18.00    1.10
  -6   4   9   17.20    1.20
   5  -4  -9   92.59    2.80
   5  -4  -9   86.99    2.70
  -5   4   9   94.89    2.90
  -5   4   9   88.89    2.70
  -5   4   9   92.69    2.50
   4  -4  -9  160.78    4.40
   4  -4  -9  153.68    4.30
  -4   4   9  157.08    4.40
  -4   4   9  156.98    4.20
   3  -4  -9    0.80    0.40
   3  -4  -9    0.60    0.50
  -3   4   9    0.80    0.40
  -3   4   9    0.60    0.30
  -3   4   9    0.40    0.50
   2  -4  -9    2.70    0.40
   2  -4  -9    3.10    0.50
  -2   4   9    3.80    0.60
  -2   4   9    3.50    0.50
  -2   4   9    4.50    0.50
   1  -4  -9  109.79    3.10
   1  -4  -9  111.59    3.20
  -1   4   9  112.49    3.30
  -1   4   9  113.19    3.20
   0  -4  -9  686.83   17.80
   0  -4  -9  697.23   17.80
   0   4   9  705.83   17.90
  -1  -4  -9  621.14   16.00
  -1  -4  -9  637.04   16.20
  -1  -4  -9  620.04   16.10
   1   4   9  630.94   16.10
  -2  -4  -9 1441.46   36.70
  -2  -4  -9 1440.66   36.50
  -2  -4  -9 1448.06   36.70
  -3  -4  -9   38.90    1.50
  -3  -4  -9   36.50    1.40
  -3  -4  -9   36.10    1.20
   3   4   9   36.70    1.50
  -4  -4  -9    2.80    0.60
  -5  -4  -9    9.00    1.00
  -5  -4  -9    8.00    1.00
   5   4   9    6.80    1.00
  -6  -4  -9   57.59    2.10
  -6  -4  -9   57.99    2.10
   6   4   9   57.49    2.20
  -7  -4  -9  294.87    8.10
   7   4   9  284.67    7.90
  -8  -4  -9   34.90    1.90
   8   4   9   33.40    2.60
  -9  -4  -9    9.60    1.50
   9   4   9   12.50    1.60
 -10  -4  -9    1.50    1.10
  10   4   9    3.80    1.10
  12  -5  -9   36.00    1.90
 -12   5   9   39.30    2.10
 -12   5   9   35.90    2.20
  11  -5  -9   27.80    1.60
 -11   5   9   26.30    1.90
 -11   5   9   26.50    1.80
  10  -5  -9    5.80    0.80
 -10   5   9    5.30    0.90
 -10   5   9    5.00    0.90
   9  -5  -9    1.30    0.70
  -9   5   9    0.40    0.70
  -9   5   9    0.50    0.70
   8  -5  -9   45.40    2.30
  -8   5   9   44.90    2.00
  -8   5   9   43.90    1.90
   7  -5  -9   54.79    2.20
  -7   5   9   54.09    2.10
  -7   5   9   53.29    2.00
   6  -5  -9   64.09    2.10
  -6   5   9   65.79    2.30
  -6   5   9   60.99    2.20
   5  -5  -9    6.70    0.80
  -5   5   9    5.50    0.80
  -5   5   9    7.10    1.00
   4  -5  -9   16.50    1.10
   4  -5  -9   16.50    0.90
  -4   5   9   17.50    0.70
  -4   5   9   17.50    1.20
  -4   5   9   16.70    1.00
   3  -5  -9    8.60    0.70
   3  -5  -9    7.90    0.90
  -3   5   9    9.10    0.80
  -3   5   9    8.30    1.10
  -2   5   9   10.90    1.10
   1  -5  -9  105.79    3.00
   1  -5  -9  106.69    3.10
  -1   5   9  116.59    3.70
   0  -5  -9   25.20    1.00
   0  -5  -9   25.50    1.30
   0   5   9   25.50    1.20
  -1  -5  -9    2.50    0.40
  -1  -5  -9    2.60    0.50
  -1  -5  -9    3.30    0.50
   1   5   9    3.20    0.60
  -2  -5  -9   26.60    1.20
  -2  -5  -9   27.20    1.30
  -2  -5  -9   25.70    1.00
   2   5   9   29.10    1.30
  -3  -5  -9   47.60    1.80
  -3  -5  -9   46.80    1.60
  -3  -5  -9   47.80    1.70
   3   5   9   48.30    1.80
  -4  -5  -9  112.79    3.40
  -4  -5  -9  101.79    3.30
   4   5   9  122.19    3.50
  -5  -5  -9   72.69    2.60
   5   5   9   75.69    2.60
  -6  -5  -9    3.70    0.80
  -7  -5  -9    1.20    0.80
   7   5   9    1.60    0.80
  -8  -5  -9   46.20    2.20
   8   5   9   46.60    2.20
  -9  -5  -9   -0.60    1.00
   9   5   9    1.90    1.00
  12  -6  -9   24.70    1.70
 -12   6   9   20.30    2.00
 -12   6   9   21.20    1.90
  11  -6  -9    0.40    0.80
 -11   6   9    1.40    0.90
 -11   6   9    0.50    0.90
  10  -6  -9   26.20    1.60
 -10   6   9   25.60    1.80
 -10   6   9   24.00    1.70
   9  -6  -9    7.60    1.10
  -9   6   9    6.80    1.00
  -9   6   9    5.90    1.00
   8  -6  -9    8.70    1.10
  -8   6   9   10.80    1.40
  -8   6   9   10.30    1.20
   7  -6  -9    1.90    0.70
  -7   6   9    1.20    0.70
  -7   6   9    2.40    0.70
   6  -6  -9    2.30    0.60
  -6   6   9    1.90    0.60
  -6   6   9    1.00    0.70
   5  -6  -9    9.50    0.90
  -5   6   9   10.20    1.10
  -5   6   9    8.40    0.90
   4  -6  -9   26.60    1.20
   4  -6  -9   27.40    1.40
  -4   6   9   27.00    1.30
   3  -6  -9   31.90    1.30
   3  -6  -9   33.10    1.50
  -3   6   9   31.60    1.10
  -3   6   9   33.40    1.60
  -3   6   9   31.80    1.40
   2  -6  -9    2.10    0.50
  -2   6   9    3.50    0.60
  -2   6   9    2.20    0.50
  -2   6   9    2.40    0.70
   1  -6  -9    0.50    0.40
   1  -6  -9    0.60    0.50
  -1   6   9    0.10    0.40
   0  -6  -9    1.40    0.50
  -1  -6  -9   18.40    1.00
  -1  -6  -9   17.40    1.00
  -1  -6  -9   18.00    1.20
   1   6   9   18.50    1.10
  -2  -6  -9   51.19    1.80
  -2  -6  -9   50.19    1.60
  -2  -6  -9   52.69    1.90
   2   6   9   56.79    2.00
  -3  -6  -9    0.50    0.70
  -3  -6  -9    0.90    0.50
   3   6   9    0.90    0.60
  -4  -6  -9   15.10    1.30
  -4  -6  -9   13.70    1.20
   4   6   9   17.30    1.30
  -5  -6  -9   -0.30    0.60
  -5  -6  -9    0.30    0.80
   5   6   9   -0.50    0.70
  -6  -6  -9    3.20    0.80
   6   6   9    2.80    0.80
  -7  -6  -9    6.60    0.90
  -7  -6  -9    5.80    1.00
   7   6   9    6.00    1.00
  -8  -6  -9    1.00    0.90
   8   6   9    0.40    0.90
  -9  -6  -9    1.40    1.00
   9   6   9    1.80    1.10
 -12   7   9    6.00    1.50
  11  -7  -9    4.90    1.00
 -11   7   9    5.00    1.10
 -11   7   9    3.40    1.00
  10  -7  -9   -0.10    0.70
 -10   7   9    0.00    0.80
 -10   7   9   -0.80    0.80
   9  -7  -9   -0.10    0.70
  -9   7   9    1.10    0.90
  -9   7   9    0.30    0.80
  -8   7   9   25.90    1.70
  -8   7   9   25.20    1.50
   7  -7  -9    3.40    0.80
  -7   7   9    3.90    0.80
  -7   7   9    3.40    0.80
   6  -7  -9    9.40    1.00
  -6   7   9   10.10    1.10
  -6   7   9   12.50    1.30
   5  -7  -9   17.20    1.10
  -5   7   9   19.90    1.20
  -5   7   9   21.50    1.40
   4  -7  -9   13.30    1.00
  -4   7   9   13.50    1.30
  -4   7   9   14.00    1.10
   3  -7  -9   52.39    1.80
  -3   7   9   58.79    2.20
  -3   7   9   53.39    2.00
   2  -7  -9  121.99    3.60
   2  -7  -9  115.89    3.40
  -2   7   9  115.09    3.50
   1  -7  -9    0.00    0.60
   1  -7  -9    0.30    0.40
   1  -7  -9   -0.10    0.40
  -1   7   9   -0.20    0.50
   0  -7  -9   46.20    1.60
   0  -7  -9   46.00    1.90
   0  -7  -9   46.40    1.60
   0   7   9   45.60    1.80
  -1  -7  -9    9.40    1.10
  -1  -7  -9    8.60    0.90
  -1  -7  -9    8.70    0.70
   1   7   9    8.60    1.00
  -2  -7  -9   12.60    1.00
  -2  -7  -9   12.10    1.20
   2   7   9   12.10    1.20
  -3  -7  -9    0.60    0.60
  -3  -7  -9    0.00    0.60
   3   7   9    0.20    0.60
  -4  -7  -9    2.60    0.70
  -4  -7  -9    2.50    0.70
   4   7   9    2.70    0.80
  -5  -7  -9    3.30    1.10
  -5  -7  -9    3.20    1.00
   5   7   9    3.60    0.90
  -6  -7  -9   15.90    1.40
  -6  -7  -9   12.20    1.40
   6   7   9   15.50    1.60
  -7  -7  -9    1.80    0.90
  -7  -7  -9    0.60    0.90
   7   7   9   -0.40    0.90
  -8  -7  -9   12.60    1.70
   8   7   9   14.10    1.80
  11  -8  -9   15.70    1.70
 -11   8   9   18.00    2.00
 -11   8   9   14.70    1.80
  10  -8  -9   18.60    1.60
 -10   8   9   16.10    1.80
 -10   8   9   18.30    1.70
   9  -8  -9   16.40    1.40
  -9   8   9   18.20    1.60
  -9   8   9   15.50    1.80
   8  -8  -9    8.80    1.20
  -8   8   9    6.70    1.00
  -8   8   9    7.70    1.90
   7  -8  -9    0.70    0.90
  -7   8   9    0.80    0.70
  -7   8   9   -1.40    0.80
   6  -8  -9   44.40    1.80
  -6   8   9   45.40    2.00
  -6   8   9   46.80    2.10
   5  -8  -9   13.90    1.10
  -5   8   9   14.10    1.20
  -5   8   9   13.10    1.40
   4  -8  -9   26.60    1.30
  -4   8   9   28.40    1.70
  -4   8   9   26.50    1.50
   3  -8  -9   13.50    1.50
   3  -8  -9   14.20    1.00
  -3   8   9   16.20    1.60
  -3   8   9   14.70    1.20
   2  -8  -9  171.78    5.00
   2  -8  -9  170.68    4.70
  -2   8   9  166.48    4.90
   1  -8  -9   20.60    1.10
   1  -8  -9   22.60    1.00
   1  -8  -9   22.60    1.50
  -1   8   9   18.10    1.30
   0  -8  -9  157.88    4.40
   0  -8  -9  157.98    4.30
   0  -8  -9  163.38    4.70
   0   8   9  153.48    4.60
  -1  -8  -9    9.90    1.30
  -1  -8  -9    9.50    0.90
   1   8   9    9.10    1.20
  -2  -8  -9    2.00    0.70
  -2  -8  -9    0.90    0.60
   2   8   9    0.70    0.70
  -3  -8  -9    9.00    1.10
  -3  -8  -9    9.30    1.30
   3   8   9    8.90    1.30
  -4  -8  -9    8.00    1.10
   4   8   9    6.70    1.00
  -5  -8  -9   36.50    1.80
  -5  -8  -9   34.40    1.90
   5   8   9   28.10    1.90
  -6  -8  -9   22.70    1.60
  -6  -8  -9   22.70    1.70
   6   8   9   16.30    1.70
  -7  -8  -9    0.10    0.90
  -7  -8  -9    2.10    1.00
   7   8   9   -0.10    1.00
  -8  -8  -9    4.40    1.40
  -8  -8  -9    5.20    1.80
   8   8   9    3.20    1.20
  10  -9  -9   67.29    2.70
 -10   9   9   72.39    3.00
 -10   9   9   67.59    2.90
   9  -9  -9   23.50    1.70
  -9   9   9   26.30    2.00
  -9   9   9   22.60    1.80
   8  -9  -9   46.60    2.10
  -8   9   9   47.70    2.20
  -8   9   9   46.80    2.30
   7  -9  -9   30.80    1.60
  -7   9   9   30.10    1.80
  -7   9   9   30.20    2.30
   6  -9  -9   22.00    1.90
  -6   9   9   23.30    1.90
  -6   9   9   22.50    1.80
   5  -9  -9   53.69    2.00
  -5   9   9   54.89    2.20
  -5   9   9   53.89    2.40
   4  -9  -9   18.30    1.20
  -4   9   9   14.10    1.70
  -4   9   9   19.20    1.40
   3  -9  -9   34.10    1.50
  -3   9   9   33.90    1.70
   2  -9  -9  116.69    3.40
   2  -9  -9  116.69    3.80
  -2   9   9  114.79    3.60
   1  -9  -9   -0.30    0.80
   1  -9  -9   -0.50    0.50
  -1   9   9   -0.10    0.70
   0  -9  -9   45.20    1.70
   0  -9  -9   49.80    2.20
   0   9   9   45.30    2.00
  -1  -9  -9    0.10    0.60
  -1  -9  -9    0.40    0.70
   1   9   9   -0.30    0.70
  -2  -9  -9    2.90    0.90
  -2  -9  -9    3.40    0.70
   2   9   9    2.80    0.80
  -3  -9  -9    3.30    0.70
  -3  -9  -9    4.00    1.10
   3   9   9    1.20    1.40
  -4  -9  -9   34.80    1.90
  -4  -9  -9   35.70    1.80
   4   9   9   33.70    2.00
  -5  -9  -9    3.10    0.90
  -5  -9  -9    1.90    0.90
   5   9   9    1.70    1.00
  -6  -9  -9    0.30    0.80
  -6  -9  -9    0.80    0.90
   6   9   9   -1.30    1.00
  -7  -9  -9   19.20    1.80
  -7  -9  -9   16.10    2.20
   7   9   9   11.80    1.50
 -10  10   9   12.60    2.30
   9 -10  -9    3.40    0.90
  -9  10   9    5.20    1.20
  -9  10   9    2.30    1.10
   8 -10  -9   23.00    1.60
  -8  10   9   21.80    2.00
  -8  10   9   24.30    1.90
   7 -10  -9    7.60    0.90
  -7  10   9    7.40    1.10
  -7  10   9   11.70    1.80
   6 -10  -9    0.50    0.60
  -6  10   9    0.40    1.50
  -6  10   9   -0.40    0.80
   5 -10  -9   38.50    1.70
  -5  10   9   36.30    1.90
  -5  10   9   39.40    2.20
   4 -10  -9    0.30    0.70
  -4  10   9   -0.40    1.30
   3 -10  -9   10.30    1.10
  -3  10   9   12.40    1.40
   2 -10  -9  115.89    3.50
  -2  10   9  116.89    3.70
   1 -10  -9    1.10    0.90
   1 -10  -9    0.20    0.90
  -1  10   9    1.10    0.80
   0 -10  -9    5.30    1.00
   0  10   9    3.20    1.30
  -1 -10  -9   33.60    2.00
  -1 -10  -9   32.80    1.60
   1  10   9   33.00    1.90
  -2 -10  -9    0.60    0.70
  -2 -10  -9    0.60    0.80
   2  10   9   -0.30    0.90
  -3 -10  -9    1.30    0.70
  -3 -10  -9    1.50    1.00
   3  10   9    1.20    0.90
  -4 -10  -9    5.70    0.90
  -4 -10  -9    6.10    1.10
   4  10   9    4.70    1.20
  -5 -10  -9    1.80    1.00
  -5 -10  -9    1.00    1.00
  -6 -10  -9   17.20    2.10
  -6 -10  -9   20.60    1.80
   6  10   9   12.80    1.60
   8 -11  -9    6.50    1.00
  -8  11   9    4.50    1.10
  -8  11   9    4.40    1.10
   7 -11  -9   31.50    1.80
  -7  11   9   29.50    2.10
  -7  11   9   32.80    2.40
   6 -11  -9   47.60    2.10
  -6  11   9   47.90    2.40
  -6  11   9   53.19    2.70
   5 -11  -9   35.90    1.80
  -5  11   9   37.10    2.10
   4 -11  -9   94.69    3.10
  -4  11   9   98.39    3.40
   3 -11  -9    7.70    1.40
  -3  11   9   11.50    1.40
   2 -11  -9   22.50    1.90
  -2  11   9   18.70    1.60
  -1  11   9    0.00    0.80
   0 -11  -9   28.50    3.70
   0  11   9   28.70    1.80
  -1 -11  -9   -0.70    1.00
   1  11   9    0.60    1.00
  -2 -11  -9  102.89    3.70
   2  11   9  100.79    3.60
  -3 -11  -9  136.79    4.10
  -3 -11  -9  134.99    4.50
   3  11   9  128.19    4.40
  -4 -11  -9    5.30    1.00
  -4 -11  -9    4.80    1.20
   4  11   9    4.60    1.20
  -5 -11  -9   12.40    1.80
   7 -12  -9    1.50    0.90
  -7  12   9    1.30    1.10
  -7  12   9    5.10    1.40
   6 -12  -9   29.80    1.80
  -6  12   9   30.20    2.10
   5 -12  -9    1.00    0.80
  -5  12   9    0.80    1.00
   4 -12  -9   42.90    2.00
  -4  12   9   44.20    2.30
  -3  12   9    1.40    1.00
  -2  12   9    8.30    1.20
  -1  12   9    0.40    1.00
   0  12   9   13.20    1.70
  -1 -12  -9   21.80    2.40
   1  12   9   18.00    1.80
  -2 -12  -9    0.90    1.30
   2  12   9    0.50    1.10
  -3 -12  -9    2.80    1.30
   3  12   9   -0.30    1.20
   5 -13  -9   -0.30    0.90
  -5  13   9    0.20    1.20
  -4  13   9    9.50    1.40
  -3  13   9   18.00    1.90
  -2  13   9    2.30    1.10
  -1  13   9   -0.10    1.10
   0  13   9   20.10    2.00
   1  13   9    7.90    1.80
  -1  16 -10   24.40    2.50
  -4 -15  10   -1.40    1.00
  -3 -15  10    8.40    1.20
   2  15 -10    5.40    1.40
   1  15 -10    1.70    1.10
  -1 -15  10    0.70    1.00
   0  15 -10   -0.20    1.10
   0 -15  10    2.00    1.30
  -1  15 -10    3.90    1.00
  -2  15 -10    0.80    1.00
   2 -15  10   -0.80    0.70
  -3  15 -10    0.20    0.90
   3 -15  10    0.70    0.80
  -4  15 -10   15.60    1.90
   4 -15  10   11.70    1.60
  -5  15 -10    1.10    1.20
   5 -15  10    2.30    1.10
  -5 -14  10    1.70    1.00
  -4 -14  10    8.90    1.40
   3  14 -10    1.00    2.00
  -3 -14  10    1.10    0.90
   2  14 -10    5.00    1.20
  -2 -14  10    3.50    0.90
   1  14 -10   10.50    1.90
  -1 -14  10   13.40    1.50
   0  14 -10   37.70    2.20
   0  14 -10   41.10    1.90
   0 -14  10   37.10    1.90
  -1  14 -10    1.90    0.80
  -1  14 -10    1.30    0.90
   1 -14  10    1.10    0.90
  -2  14 -10    5.60    0.90
  -2  14 -10    5.90    1.00
  -3  14 -10    3.40    0.90
  -3  14 -10    1.20    0.90
  -4  14 -10    1.60    1.00
  -4  14 -10    2.90    0.90
  -5  14 -10    0.40    0.80
   5 -14  10   -1.10    0.70
   6 -14  10   -0.20    0.80
  -7 -13  10   -2.40    1.10
  -6 -13  10    1.00    0.90
  -5 -13  10    4.60    1.00
  -4 -13  10   -0.60    0.80
  -3 -13  10    1.10    0.80
  -2 -13  10   16.70    1.50
   1  13 -10    0.50    0.70
  -1 -13  10    0.80    0.80
   0  13 -10   -0.20    0.90
   0  13 -10    1.90    0.70
   0 -13  10    0.00    0.70
  -1  13 -10   -0.50    0.80
   1 -13  10    1.00    0.70
  -2  13 -10   23.90    1.40
  -2  13 -10   19.20    1.60
   2 -13  10   22.00    1.40
  -3  13 -10    5.60    0.90
  -3  13 -10    5.30    0.80
  -4  13 -10   -0.90    0.70
  -4  13 -10   -1.50    0.90
  -5  13 -10   -0.40    0.90
   6 -13  10    0.00    0.80
   7 -13  10    0.30    0.80
  -8 -12  10    6.00    1.20
  -7 -12  10    9.90    1.60
  -6 -12  10   28.70    1.80
  -5 -12  10   -0.20    0.90
  -4 -12  10  197.38    5.70
   3  12 -10  153.08    4.60
  -3 -12  10  139.79    4.80
   2  12 -10   54.29    2.40
   2  12 -10   53.19    2.00
  -2 -12  10   50.09    2.10
   1  12 -10   67.59    2.30
   1  12 -10   66.49    2.70
  -1 -12  10   65.49    2.40
   0  12 -10   20.60    1.70
   0  12 -10   24.20    1.40
   0 -12  10   22.70    1.40
  -1  12 -10   20.10    1.30
  -1  12 -10   14.80    1.50
   1 -12  10   19.90    1.30
  -2  12 -10    0.20    0.60
  -2  12 -10   -0.90    0.70
   2 -12  10    0.90    0.70
  -3  12 -10    0.90    0.90
  -3  12 -10   -0.70    0.80
   3 -12  10    1.10    0.70
  -4  12 -10    0.30    0.60
  -4  12 -10    1.30    0.70
  -5  12 -10    6.50    1.00
  -6  12 -10   21.20    1.70
   7 -12  10    7.50    1.00
   8 -12  10    0.60    0.80
  -9 -11  10   23.20    2.00
  -8 -11  10    3.00    1.00
  -7 -11  10   -1.30    0.80
  -6 -11  10   -0.30    0.80
  -5 -11  10   33.80    1.80
   4  11 -10  156.78    4.80
  -4 -11  10  152.18    4.60
   3  11 -10   98.59    3.30
   3  11 -10   96.19    2.90
  -3 -11  10   93.99    3.20
   2  11 -10  123.19    3.80
   2  11 -10  118.89    3.50
  -2 -11  10  112.49    3.60
   1  11 -10  102.29    3.10
   1  11 -10  100.99    3.30
  -1 -11  10  100.19    3.20
   0  11 -10    6.30    1.00
   0  11 -10    5.40    0.80
   0 -11  10    5.60    0.80
  -1  11 -10    2.70    0.70
   1 -11  10    1.50    0.70
  -2  11 -10    2.60    0.60
   2 -11  10    2.60    0.70
  -3  11 -10  200.88    5.60
   3 -11  10  198.38    5.50
  -4  11 -10   70.29    2.70
  -4  11 -10   70.99    2.50
   4 -11  10   68.99    2.40
  -5  11 -10   14.70    1.30
  -6  11 -10   20.70    1.50
  -7  11 -10   -0.20    0.80
   8 -11  10    4.60    0.90
   9 -11  10   28.60    1.90
  -9 -10  10   -0.40    1.00
  -9 -10  10    0.10    1.20
  -8 -10  10    7.30    1.20
  -7 -10  10    0.20    0.70
  -6 -10  10    5.00    0.90
  -5 -10  10  143.79    4.30
   4  10 -10   53.79    2.50
   4  10 -10   54.49    1.90
   4  10 -10   54.99    2.30
  -4 -10  10   53.39    2.20
   3  10 -10   61.79    2.00
   3  10 -10   62.39    2.50
   3  10 -10   62.29    2.30
  -3 -10  10   60.49    2.20
   2  10 -10   43.60    2.00
   2  10 -10   42.00    1.60
  -2 -10  10   40.60    1.70
   1  10 -10    8.20    1.30
   1  10 -10    8.20    0.90
  -1 -10  10    8.00    1.00
   0  10 -10   59.79    2.20
   0  10 -10   60.29    2.00
   0 -10  10   61.09    2.10
  -1  10 -10   51.39    1.90
  -1  10 -10   48.70    1.80
   1 -10  10   50.39    1.90
  -2  10 -10   62.49    2.20
   2 -10  10   63.29    2.20
  -3  10 -10    1.20    0.80
  -3  10 -10    1.90    0.60
   3 -10  10    1.50    0.60
  -4  10 -10    8.80    1.10
  -4  10 -10    8.80    1.40
   4 -10  10    9.20    1.00
  -5  10 -10   -0.70    1.10
   5 -10  10    0.00    0.60
  -6  10 -10    5.40    0.90
  -7  10 -10    3.10    0.80
  -8  10 -10    0.50    0.90
   9 -10  10   56.89    2.40
  10 -10  10    4.50    1.20
 -10  -9  10    4.10    1.00
 -10  -9  10    4.90    1.30
  -9  -9  10    4.50    1.10
  -8  -9  10   10.60    1.40
  -8  -9  10   10.40    1.30
  -7  -9  10    0.20    0.80
  -7  -9  10   -0.70    0.70
  -6  -9  10   23.10    1.50
   5   9 -10    8.80    0.90
   5   9 -10    9.90    1.40
  -5  -9  10    9.10    1.20
   4   9 -10    0.30    0.50
   4   9 -10   -0.40    0.70
  -4  -9  10    0.60    0.60
   3   9 -10   21.60    1.10
   3   9 -10   20.40    1.40
  -3  -9  10   21.20    1.20
   2   9 -10   16.80    1.20
   2   9 -10   14.40    0.90
  -2  -9  10   15.30    1.10
   1   9 -10    7.00    1.00
   1   9 -10    7.60    0.80
  -1  -9  10    7.60    0.90
   0   9 -10    6.60    1.00
   0   9 -10    6.30    0.80
   0  -9  10    6.00    0.90
  -1   9 -10   22.80    1.20
  -1   9 -10   22.30    1.20
   1  -9  10   22.70    1.20
  -2   9 -10   43.40    1.70
  -2   9 -10   44.60    1.60
   2  -9  10   45.30    1.70
  -3   9 -10   12.10    1.00
  -3   9 -10   11.40    1.00
   3  -9  10    9.60    1.00
  -4   9 -10    7.70    1.00
  -4   9 -10    8.70    1.20
   4  -9  10    7.20    0.90
  -5   9 -10   -0.90    0.60
   5  -9  10   -0.80    0.60
  -6   9 -10    9.90    1.20
   6  -9  10    9.10    1.10
  -7   9 -10   30.80    1.60
  -8   9 -10    0.40    0.80
   9  -9  10   10.10    1.30
  10  -9  10    2.50    0.90
 -11  -8  10    2.20    1.10
 -11  -8  10    1.90    1.20
 -10  -8  10    1.20    1.00
 -10  -8  10    2.90    1.10
  -9  -8  10    3.50    0.90
  -9  -8  10    4.60    1.10
   8   8 -10   27.70    2.10
  -8  -8  10   23.90    1.90
  -8  -8  10   25.30    1.60
   7   8 -10   14.10    1.50
  -7  -8  10   14.30    1.50
  -7  -8  10   14.10    1.20
   6   8 -10   50.69    2.10
   6   8 -10   51.99    1.80
  -6  -8  10   50.09    2.00
  -6  -8  10   50.39    2.10
   5   8 -10    1.00    0.40
   5   8 -10    0.70    0.70
  -5  -8  10    0.60    0.70
  -5  -8  10   -0.50    0.50
   4   8 -10   21.80    1.40
   4   8 -10   22.30    1.00
  -4  -8  10   21.00    1.20
   3   8 -10    0.20    0.40
   3   8 -10    0.30    0.50
  -3  -8  10    0.10    0.50
   2   8 -10    3.40    0.50
   2   8 -10    2.40    0.50
  -2  -8  10    4.30    0.60
   1   8 -10   10.50    1.00
   1   8 -10   11.80    0.80
  -1  -8  10   11.70    0.90
   0   8 -10    0.20    0.40
   0   8 -10    0.30    0.50
   0  -8  10   -0.20    0.40
  -1   8 -10   14.90    1.00
  -1   8 -10   14.50    1.00
   1  -8  10   16.40    1.00
  -2   8 -10   31.10    1.30
  -2   8 -10   29.40    1.30
   2  -8  10   28.10    1.30
  -3   8 -10    1.50    0.40
  -3   8 -10    1.00    0.50
   3  -8  10    0.90    0.50
  -4   8 -10   52.39    1.90
   4  -8  10   51.29    1.90
  -5   8 -10    9.10    1.00
   5  -8  10    8.80    1.00
  -6   8 -10   36.90    1.60
   6  -8  10   34.70    1.50
  -7   8 -10    4.20    0.80
  -8   8 -10    0.20    0.80
   9  -8  10   -1.20    0.70
  10  -8  10    3.00    0.90
 -11  -7  10    0.80    0.90
 -11  -7  10    0.70    1.20
  10   7 -10   46.60    2.70
 -10  -7  10   43.60    2.10
 -10  -7  10   46.90    2.50
   9   7 -10   23.00    1.60
  -9  -7  10   19.80    1.40
  -9  -7  10   19.40    3.00
   8   7 -10   22.60    1.40
  -8  -7  10   21.10    1.60
  -8  -7  10   20.00    1.40
   7   7 -10   40.90    1.70
  -7  -7  10   41.30    2.00
  -7  -7  10   41.10    2.00
   6   7 -10   43.40    1.50
   6   7 -10   40.60    1.60
  -6  -7  10   42.10    1.70
  -6  -7  10   41.60    1.90
   5   7 -10   29.40    1.20
   5   7 -10   27.50    1.20
  -5  -7  10   28.50    1.60
  -5  -7  10   31.60    1.40
   4   7 -10    0.40    0.40
   4   7 -10    1.00    0.60
   4   7 -10    0.50    0.70
  -4  -7  10    0.30    0.50
  -4  -7  10    0.70    0.70
   3   7 -10    6.60    1.00
   3   7 -10    6.90    0.70
  -3  -7  10    6.40    0.80
   2   7 -10    0.80    0.40
   2   7 -10    0.50    0.50
  -2  -7  10    1.10    0.40
   1   7 -10    8.50    0.70
   1   7 -10    7.50    0.90
  -1  -7  10    9.00    0.80
   0   7 -10   17.80    0.90
   0   7 -10   18.00    1.00
   0  -7  10   16.90    1.00
  -1   7 -10    0.30    0.40
  -1   7 -10    0.40    0.40
   1  -7  10   -0.60    0.50
  -2   7 -10  102.79    3.00
  -2   7 -10  103.79    2.90
   2  -7  10  104.79    3.10
  -3   7 -10    4.50    0.80
  -3   7 -10    4.80    0.70
   3  -7  10    4.40    0.60
  -4   7 -10   12.30    1.00
   4  -7  10   12.50    1.00
  -5   7 -10   72.99    2.40
   5  -7  10   71.69    2.30
  -6   7 -10  108.89    3.30
   6  -7  10  104.99    3.20
  -7   7 -10    1.00    0.70
   7  -7  10    0.30    0.60
  -8   7 -10   -0.20    0.70
   8  -7  10    1.00    0.70
  10  -7  10    2.30    0.80
 -12  -6  10   13.00    1.80
 -12  -6  10   13.00    1.80
  11   6 -10   -0.20    1.10
 -11  -6  10    1.00    0.90
 -11  -6  10   -1.60    1.10
  10   6 -10   -0.50    0.90
 -10  -6  10   -1.00    0.70
 -10  -6  10    1.00    0.90
   9   6 -10   16.50    1.40
  -9  -6  10   16.30    1.60
  -9  -6  10   17.70    1.30
   8   6 -10   24.20    1.40
  -8  -6  10   24.30    1.40
  -8  -6  10   24.60    1.60
   7   6 -10   81.79    2.60
   7   6 -10   82.99    2.50
  -7  -6  10   82.69    2.80
  -7  -6  10   83.79    2.70
   6   6 -10   51.69    1.70
  -6  -6  10   51.29    2.00
  -6  -6  10   51.79    2.00
   5   6 -10   10.10    1.10
   5   6 -10    9.40    0.80
   5   6 -10    9.90    0.80
  -5  -6  10    9.20    0.90
  -5  -6  10   11.10    1.10
   4   6 -10   66.79    2.20
   4   6 -10   63.29    1.90
   4   6 -10   65.89    2.00
  -4  -6  10   63.99    2.20
  -4  -6  10   63.19    2.10
   3   6 -10    0.60    0.40
   3   6 -10    0.30    0.50
  -3  -6  10    0.70    0.50
  -3  -6  10   -0.10    0.50
   2   6 -10   36.70    1.30
  -2  -6  10   37.20    1.40
   1   6 -10   37.70    1.30
   1   6 -10   35.20    1.40
  -1  -6  10   36.00    1.40
   0   6 -10    1.20    0.40
   0   6 -10    0.20    0.40
   0  -6  10    0.60    0.40
  -1   6 -10   10.00    0.80
  -1   6 -10   11.10    0.70
   1  -6  10   10.70    0.80
  -2   6 -10   -0.40    0.40
  -2   6 -10    0.30    0.40
  -2   6 -10   -0.40    0.30
   2  -6  10   -0.10    0.40
  -3   6 -10   67.29    2.10
  -3   6 -10   66.69    2.00
   3  -6  10   69.29    2.20
  -4   6 -10   18.00    1.00
   4  -6  10   19.90    1.00
  -5   6 -10   13.70    1.00
   5  -6  10   14.10    1.00
  -6   6 -10    0.70    0.50
   6  -6  10    0.70    0.50
  -7   6 -10    1.10    0.60
   7  -6  10    1.80    0.60
  -8   6 -10   -0.90    0.70
   8  -6  10    0.70    0.60
  -9   6 -10    4.80    0.90
  10  -6  10   12.30    1.40
  12   5 -10   21.70    2.30
 -12  -5  10   20.70    2.20
  11   5 -10   25.20    2.00
 -11  -5  10   27.00    2.00
 -11  -5  10   24.80    1.70
  10   5 -10    2.30    0.90
 -10  -5  10    0.90    0.80
 -10  -5  10    1.10    0.80
   9   5 -10   -0.70    0.70
  -9  -5  10   -0.50    0.60
  -9  -5  10   -0.20    0.60
   8   5 -10   36.00    1.40
   8   5 -10   35.30    1.60
  -8  -5  10   37.80    1.60
  -8  -5  10   35.50    1.80
   7   5 -10   13.90    1.00
   7   5 -10   14.40    0.90
  -7  -5  10   13.40    1.20
  -7  -5  10   13.70    1.10
   6   5 -10   60.69    2.20
   6   5 -10   58.19    1.90
   6   5 -10   60.49    1.90
  -6  -5  10   60.09    2.00
  -6  -5  10   60.89    2.20
   5   5 -10   67.59    2.10
   5   5 -10   70.19    2.30
   5   5 -10   68.89    2.00
  -5  -5  10   69.69    2.30
  -5  -5  10   68.39    2.20
   4   5 -10    1.20    0.30
   4   5 -10    1.40    0.40
   4   5 -10    0.40    0.50
  -4  -5  10    0.90    0.50
  -4  -5  10    0.90    0.50
   3   5 -10  111.19    3.10
   3   5 -10  114.99    3.30
  -3  -5  10  108.79    3.20
  -3  -5  10  111.49    3.30
   2   5 -10   26.60    1.00
   2   5 -10   24.70    1.20
  -2  -5  10   26.60    1.10
   1   5 -10  251.87    6.60
  -1  -5  10  244.88    6.60
   0   5 -10   70.99    2.10
   0   5 -10   66.29    2.10
   0  -5  10   70.39    2.20
  -1   5 -10   26.20    1.10
  -1   5 -10   25.30    1.10
   1  -5  10   26.60    1.10
  -2   5 -10  271.67    7.20
  -2   5 -10  264.77    7.10
  -2   5 -10  273.07    7.10
   2  -5  10  273.37    7.20
  -3   5 -10    0.20    0.40
   3  -5  10   -0.20    0.40
  -4   5 -10    2.50    0.50
   4  -5  10    2.20    0.50
  -5   5 -10   38.10    1.50
   5  -5  10   37.80    1.50
  -6   5 -10   37.40    1.50
   6  -5  10   36.60    1.50
  -7   5 -10    9.90    1.00
   7  -5  10   10.10    1.00
  -8   5 -10    7.00    1.00
   8  -5  10    7.80    1.10
  -9   5 -10    4.80    0.80
   9  -5  10    5.80    0.90
  12   4 -10    7.40    1.30
 -12  -4  10    6.40    1.10
  11   4 -10    6.10    1.10
 -11  -4  10    4.10    0.90
 -11  -4  10    5.40    0.90
  10   4 -10    2.10    0.90
 -10  -4  10    1.90    1.50
 -10  -4  10    1.10    0.70
   9   4 -10    8.80    1.20
   9   4 -10    9.30    1.10
  -9  -4  10    9.50    1.40
  -9  -4  10    9.30    1.10
   8   4 -10   20.20    1.20
   8   4 -10   22.90    1.10
  -8  -4  10   21.50    1.20
  -8  -4  10   22.60    1.50
   7   4 -10   33.40    1.40
   7   4 -10   32.50    1.30
  -7  -4  10   32.30    1.40
  -7  -4  10   34.30    1.60
   6   4 -10    0.60    0.60
   6   4 -10    1.10    0.40
   6   4 -10    1.30    0.40
  -6  -4  10    0.70    0.50
   5   4 -10  140.59    3.80
   5   4 -10  143.79    3.90
   5   4 -10  142.19    4.10
  -5  -4  10  141.99    4.10
  -5  -4  10  140.89    4.00
   4   4 -10    3.20    0.50
   4   4 -10    2.10    0.40
   4   4 -10    2.30    0.50
  -4  -4  10    2.50    0.60
  -4  -4  10    2.20    0.40
   3   4 -10   28.20    1.10
   3   4 -10   28.00    1.20
  -3  -4  10   29.90    1.20
  -3  -4  10   27.90    1.30
   2   4 -10  716.33   18.10
   2   4 -10  701.03   18.30
  -2  -4  10  703.63   18.10
  -2  -4  10  709.73   18.30
   1   4 -10  105.59    3.20
   1   4 -10  108.09    3.10
  -1  -4  10  107.29    3.10
   0   4 -10  107.69    3.10
   0  -4  10  109.89    3.10
  -1   4 -10  149.79    4.20
  -1   4 -10  157.78    4.20
  -1   4 -10  155.68    4.20
   1  -4  10  157.88    4.30
  -2   4 -10  692.53   17.80
  -2   4 -10  683.93   17.70
  -2   4 -10  720.73   17.80
   2  -4  10  690.13   17.90
  -3   4 -10  180.48    4.80
  -3   4 -10  182.58    4.90
  -3   4 -10  186.48    4.80
   3  -4  10  182.38    5.00
  -4   4 -10   42.50    1.50
   4  -4  10   44.30    1.60
  -5   4 -10  361.36    9.60
   5  -4  10  373.96    9.70
  -6   4 -10   39.00    1.50
   6  -4  10   41.90    1.60
  -7   4 -10    1.70    0.60
   7  -4  10    1.00    0.60
  -8   4 -10   -0.20    0.50
   8  -4  10    0.20    0.60
  -9   4 -10    3.10    0.70
   9  -4  10    3.00    0.80
  10  -4  10    3.30    0.90
  12   3 -10   43.60    2.40
 -12  -3  10   45.50    2.30
  11   3 -10    3.60    1.00
 -11  -3  10    1.80    0.80
  10   3 -10   29.70    1.70
 -10  -3  10   29.80    1.90
 -10  -3  10   28.10    1.50
   9   3 -10   43.10    1.80
   9   3 -10   45.60    1.70
  -9  -3  10   50.49    2.10
  -9  -3  10   46.60    1.80
   8   3 -10   78.29    2.40
   8   3 -10   75.79    2.50
  -8  -3  10   79.59    2.70
  -8  -3  10   75.99    2.50
   7   3 -10    0.10    0.40
   7   3 -10    1.00    0.50
  -7  -3  10    0.90    0.50
  -7  -3  10    0.80    0.50
   6   3 -10    3.20    0.50
   6   3 -10    3.10    0.60
   6   3 -10    3.00    0.40
  -6  -3  10    1.90    0.70
  -6  -3  10    2.70    0.50
   5   3 -10   11.60    0.70
   5   3 -10   12.20    1.00
   5   3 -10   10.30    0.70
  -5  -3  10   11.90    1.00
  -5  -3  10   10.80    0.80
   4   3 -10    4.50    0.50
   4   3 -10    5.00    0.80
   4   3 -10    4.90    0.60
  -4  -3  10    4.20    0.50
  -4  -3  10    3.50    0.50
   3   3 -10  180.88    5.20
   3   3 -10  195.18    5.10
  -3  -3  10  196.58    5.10
  -3  -3  10  179.28    5.20
   2   3 -10  397.06   10.40
  -2  -3  10  405.26   10.60
   1   3 -10  117.59    3.70
   1   3 -10  133.29    3.60
  -1  -3  10  132.39    3.60
  -1  -3  10  127.39    3.80
   0   3 -10  664.93   16.60
   0   3 -10  630.94   16.70
  -2   3 -10   47.10    1.40
  -2   3 -10   37.90    1.40
  -3   3 -10   24.50    0.90
  -3   3 -10   21.20    1.00
  -3   3 -10   24.80    0.90
   3  -3  10   24.50    1.10
  -4   3 -10  122.19    3.50
   4  -3  10  127.79    3.60
  -6   3 -10   41.90    1.50
   6  -3  10   42.20    1.60
  -7   3 -10    1.40    0.50
   7  -3  10    1.00    0.60
  -8   3 -10    2.00    0.60
   8  -3  10    1.90    0.70
   9  -3  10   13.70    2.20
  10  -3  10    2.80    0.90
  13   2 -10    3.60    1.20
  12   2 -10   -0.80    1.00
 -12  -2  10   -0.90    0.80
  11   2 -10    3.40    0.90
 -11  -2  10    3.60    0.90
  10   2 -10    2.50    0.80
  10   2 -10    1.40    0.70
 -10  -2  10    0.30    0.70
 -10  -2  10    1.70    0.80
   9   2 -10   20.30    1.20
  -9  -2  10   18.10    1.40
  -9  -2  10   18.90    1.20
  -9  -2  10   20.00    1.20
   8   2 -10    0.50    0.50
  -8  -2  10   -0.30    0.60
  -8  -2  10    0.20    0.50
  -8  -2  10    0.10    0.50
   7   2 -10    1.30    0.40
  -7  -2  10    1.70    0.50
  -7  -2  10    2.70    0.50
  -7  -2  10    0.80    0.50
   6   2 -10   10.90    1.10
   6   2 -10   10.90    0.80
  -6  -2  10   11.80    0.80
  -6  -2  10   11.40    1.10
  -6  -2  10   11.60    0.80
   5   2 -10    7.40    0.70
   5   2 -10    7.00    0.90
  -5  -2  10    7.10    0.70
  -5  -2  10    6.80    0.60
  -5  -2  10    5.40    0.90
   4   2 -10  102.29    3.00
   4   2 -10  102.49    2.90
  -4  -2  10  101.79    3.00
  -4  -2  10  106.69    2.80
   3   2 -10   52.59    1.70
  -3  -2  10   52.19    1.70
  -3  -2  10   47.70    1.60
   2   2 -10    3.30    0.70
   0   2 -10   28.00    1.20
  -1   2 -10   42.10    1.40
  -1   2 -10   44.20    1.40
   1  -2  10   40.60    1.70
  -2   2 -10  228.88    5.90
  -2   2 -10  220.88    5.90
   2  -2  10  229.18    6.10
  -3   2 -10   29.40    1.00
  -3   2 -10   29.60    1.10
  -3   2 -10   31.60    1.10
   3  -2  10   28.80    1.20
   4  -2  10   11.30    0.90
  -5   2 -10    1.00    0.50
  -5   2 -10    0.10    0.40
   5  -2  10    1.10    0.40
  -6   2 -10    2.50    0.50
  -6   2 -10    2.90    0.60
  -7   2 -10   -0.70    0.60
  -7   2 -10   -0.20    0.50
   7  -2  10    0.80    0.50
  -8   2 -10   11.80    1.20
  -8   2 -10   11.00    1.20
  -9   2 -10   44.40    2.00
 -10   2 -10   -2.00    0.90
  13   1 -10   -2.30    1.10
 -13  -1  10    0.30    1.00
  12   1 -10    5.10    1.10
 -12  -1  10    2.80    0.90
  11   1 -10   -0.20    1.10
 -11  -1  10    1.20    0.80
 -11  -1  10    1.00    0.80
  10   1 -10    1.80    0.70
 -10  -1  10    1.30    0.80
 -10  -1  10    1.70    0.70
   9   1 -10    4.10    0.70
  -9  -1  10    5.40    1.00
  -9  -1  10    3.10    0.70
  -9  -1  10    5.40    0.90
   8   1 -10   17.10    1.10
  -8  -1  10   17.50    1.30
  -8  -1  10   16.10    1.00
  -8  -1  10   15.80    1.00
   7   1 -10   61.29    2.00
  -7  -1  10   63.69    2.20
  -7  -1  10   63.79    2.00
  -7  -1  10   63.69    2.00
   6   1 -10   13.80    1.10
   6   1 -10   11.90    0.80
  -6  -1  10   12.90    1.10
  -6  -1  10   11.90    0.80
  -6  -1  10   12.30    0.80
   5   1 -10    6.30    0.90
   5   1 -10    7.30    0.70
  -5  -1  10    6.40    0.70
  -5  -1  10    5.60    0.90
  -5  -1  10    7.30    0.60
   4   1 -10   38.40    1.40
   4   1 -10   37.80    1.30
  -4  -1  10   36.90    1.20
  -4  -1  10   35.50    1.40
  -4  -1  10   35.50    1.30
   3   1 -10   10.90    0.80
   3   1 -10   10.00    0.70
  -3  -1  10    9.80    0.90
  -3  -1  10   10.80    0.50
  -3  -1  10    9.30    0.70
   2   1 -10   40.70    1.40
   2   1 -10   35.90    1.50
  -2  -1  10   39.40    1.30
   1   1 -10   82.49    2.40
   1   1 -10   84.39    2.40
  -1  -1  10   84.19    2.50
  -1  -1  10   83.09    2.40
   0   1 -10   21.30    0.90
   0   1 -10   22.40    1.00
   0  -1  10   21.50    1.00
  -1   1 -10   11.60    0.70
  -1   1 -10   11.80    0.80
   1  -1  10    9.50    0.90
  -2   1 -10   25.80    1.00
   2  -1  10   26.20    1.10
  -3   1 -10    7.90    0.70
  -3   1 -10    5.80    0.70
  -3   1 -10    7.70    0.60
   3  -1  10    9.20    0.60
  -4   1 -10   36.00    1.30
  -4   1 -10   36.00    1.40
   4  -1  10   36.50    1.20
  -5   1 -10    2.20    0.50
  -5   1 -10    1.90    0.40
   5  -1  10    2.40    0.40
  -6   1 -10    1.30    0.60
  -6   1 -10    1.70    0.40
   6  -1  10    2.40    0.50
  -7   1 -10    1.40    0.70
  -7   1 -10    1.80    0.50
   7  -1  10    2.40    0.60
  -8   1 -10    3.70    0.80
   8  -1  10    4.30    0.80
  -9   1 -10   24.00    1.60
 -10   1 -10    0.90    0.90
 -11   1 -10   -0.20    1.10
  13   0 -10    0.10    1.10
 -13   0  10    0.50    1.00
 -12   0  10    2.10    0.90
 -12   0  10    1.00    1.00
  11   0 -10    1.00    1.20
 -11   0  10   -1.40    0.70
 -11   0  10   -0.90    0.80
  10   0 -10    0.00    0.60
 -10   0  10   -0.40    0.70
 -10   0  10   -0.10    0.70
   9   0 -10    2.20    0.70
  -9   0  10    3.60    0.80
  -9   0  10    2.60    0.70
   8   0 -10   96.99    2.90
  -8   0  10   93.99    2.80
  -8   0  10   95.79    2.90
  -8   0  10   94.99    3.10
  -7   0  10    1.20    0.50
  -7   0  10    0.40    0.60
   6   0 -10   -0.40    0.60
   6   0 -10   -0.10    0.40
  -6   0  10    0.50    0.40
  -6   0  10   -0.30    0.30
  -6   0  10   -0.30    1.00
   5   0 -10    2.30    0.40
   5   0 -10    2.10    0.50
  -5   0  10    1.80    0.50
  -5   0  10    2.40    0.40
  -5   0  10    2.10    0.40
   4   0 -10  416.76   11.00
   4   0 -10  415.76   10.90
  -4   0  10  430.66   10.80
  -4   0  10  423.96   11.00
  -4   0  10  414.66   10.90
   3   0 -10    5.10    0.60
   3   0 -10    4.40    0.60
  -3   0  10    3.90    0.60
  -3   0  10    4.50    0.60
  -3   0  10    5.20    0.50
   2   0 -10   46.90    1.60
  -2   0  10   46.70    1.30
  -2   0  10   44.70    1.50
  -2   0  10   45.30    1.60
   1   0 -10   20.50    0.90
   1   0 -10   20.00    0.90
  -1   0  10   18.90    1.00
  -1   0  10   17.90    0.90
   0   0 -10    6.40    0.60
   0   0 -10    6.80    0.70
   0   0  10    6.50    0.60
  -1   0 -10  332.07    9.00
  -1   0 -10  355.36    9.00
  -1   0 -10  340.87    9.00
   1   0  10  350.66    9.00
  -2   0 -10  106.69    3.00
  -2   0 -10  108.69    3.00
  -2   0 -10  109.19    3.10
  -2   0 -10  108.29    3.00
   2   0  10  110.39    2.90
  -3   0 -10   51.69    1.70
  -3   0 -10   50.99    1.80
  -3   0 -10   51.89    1.60
  -3   0 -10   55.49    1.70
   3   0  10   54.59    1.60
  -4   0 -10    7.60    0.80
  -4   0 -10    7.90    0.70
   4   0  10    7.70    0.70
  -5   0 -10   37.00    1.30
  -5   0 -10   37.20    1.50
   5   0  10   36.40    1.40
  -6   0 -10  143.69    4.00
  -6   0 -10  148.79    4.20
   6   0  10  143.29    4.10
  -7   0 -10  114.19    3.60
   7   0  10  101.49    3.20
  -8   0 -10   72.89    2.60
   8   0  10   68.59    2.40
  -9   0 -10    1.80    0.80
 -10   0 -10   12.80    1.70
 -11   0 -10    2.20    1.10
 -13   1  10    0.40    1.00
 -13   1  10   -0.10    1.10
  12  -1 -10   72.39    2.80
 -12   1  10   74.29    2.80
 -12   1  10   71.39    2.90
  11  -1 -10   76.19    2.70
 -11   1  10   72.59    2.80
 -11   1  10   75.29    2.80
  10  -1 -10   12.30    1.20
 -10   1  10   10.80    1.30
 -10   1  10    9.70    1.50
   9  -1 -10   35.10    1.50
  -9   1  10   34.50    1.80
  -9   1  10   35.20    1.60
  -8   1  10    2.40    0.70
  -8   1  10    3.30    0.60
   7  -1 -10   47.10    1.70
  -7   1  10   49.00    1.60
  -7   1  10   48.00    1.90
  -7   1  10   48.00    1.70
   6  -1 -10    3.20    0.50
   6  -1 -10    2.70    0.60
  -6   1  10    4.20    0.60
   5  -1 -10  125.89    3.60
   5  -1 -10  120.99    3.50
  -5   1  10  129.99    3.50
  -5   1  10  124.19    3.40
  -5   1  10  126.19    3.70
   4  -1 -10   81.59    2.40
   4  -1 -10   84.09    2.50
  -4   1  10   79.19    2.40
  -4   1  10   81.49    2.40
  -4   1  10   82.39    2.60
   3  -1 -10  150.38    4.20
   3  -1 -10  149.29    4.10
  -3   1  10  152.08    4.00
  -3   1  10  144.89    4.00
  -3   1  10  151.88    4.20
   2  -1 -10  727.33   18.80
   2  -1 -10  732.33   18.80
  -2   1  10  754.82   18.70
  -2   1  10  738.53   18.80
  -2   1  10  718.73   18.70
   1  -1 -10   -0.10    0.40
  -1   1  10    0.60    0.30
  -1   1  10    0.20    0.30
  -1   1  10    0.20    0.50
   0  -1 -10   17.20    1.10
   0  -1 -10   17.90    0.80
   0   1  10   18.30    0.70
   0   1  10   18.20    1.00
  -1  -1 -10   37.20    1.40
  -1  -1 -10   38.50    1.40
  -1  -1 -10   38.70    1.30
   1   1  10   38.80    1.20
  -2  -1 -10    4.20    0.60
  -2  -1 -10    3.10    0.40
  -2  -1 -10    2.70    0.40
   2   1  10    3.80    0.60
  -3  -1 -10   38.80    1.30
  -3  -1 -10   44.20    1.50
  -3  -1 -10   37.80    1.50
  -3  -1 -10   39.90    1.40
   3   1  10   38.10    1.40
  -4  -1 -10   -0.70    0.40
  -4  -1 -10    0.20    0.40
  -4  -1 -10   -0.30    0.50
  -4  -1 -10   -0.20    0.40
   4   1  10   -0.50    0.40
  -5  -1 -10   23.00    1.20
   5   1  10   22.70    1.10
  -6  -1 -10    4.10    0.80
   6   1  10    5.10    0.90
  -7  -1 -10   13.40    1.20
   7   1  10   15.50    1.20
  -8  -1 -10    4.00    1.10
   8   1  10    5.70    0.80
  -9  -1 -10   -0.30    0.80
 -10  -1 -10    1.20    1.00
 -13   2  10    2.00    1.20
 -13   2  10    3.30    1.20
  12  -2 -10    0.30    1.00
 -12   2  10   -0.90    1.00
 -12   2  10    1.40    0.90
  11  -2 -10   -1.10    0.70
 -11   2  10   -1.20    0.80
 -11   2  10    0.40    0.90
  10  -2 -10   88.29    2.90
 -10   2  10   87.89    3.20
 -10   2  10   91.79    3.00
   9  -2 -10    6.00    0.80
  -9   2  10    6.10    0.90
  -9   2  10    6.50    1.10
   8  -2 -10   -0.30    0.50
  -8   2  10   -0.30    0.60
  -8   2  10    0.40    0.50
   7  -2 -10    2.20    0.50
  -7   2  10    2.10    0.50
  -7   2  10    2.10    0.60
   6  -2 -10   76.19    2.40
  -6   2  10   79.59    2.40
  -6   2  10   78.79    2.60
  -6   2  10   78.99    2.30
   5  -2 -10    0.30    0.40
   5  -2 -10    0.40    0.50
  -5   2  10   -0.30    0.50
  -5   2  10    0.50    0.30
  -5   2  10    0.70    0.40
   4  -2 -10   91.59    2.70
   4  -2 -10   90.69    2.80
  -4   2  10   95.19    2.70
  -4   2  10   96.19    2.90
  -4   2  10   97.29    2.70
   3  -2 -10  101.89    3.00
   3  -2 -10   99.89    2.90
  -3   2  10  100.59    2.80
  -3   2  10  104.69    2.90
  -3   2  10  103.59    3.00
   2  -2 -10   13.00    0.90
   2  -2 -10   12.90    0.80
  -2   2  10   12.60    1.00
  -2   2  10   11.30    0.70
  -2   2  10   11.70    0.70
   1  -2 -10    2.10    0.50
   1  -2 -10    1.50    0.40
  -1   2  10    2.40    0.40
  -1   2  10    2.10    0.40
  -1   2  10    1.80    0.60
   0  -2 -10   40.30    1.50
   0  -2 -10   38.20    1.70
   0   2  10   41.00    1.30
  -1  -2 -10   14.10    0.80
  -1  -2 -10   13.20    0.90
  -1  -2 -10   15.00    0.80
   1   2  10   16.30    0.80
  -2  -2 -10    1.40    0.40
  -2  -2 -10    2.10    0.40
  -2  -2 -10    2.30    0.40
   2   2  10    2.40    0.40
  -3  -2 -10   18.00    1.00
  -3  -2 -10   18.30    1.00
  -3  -2 -10   18.30    0.90
   3   2  10   17.40    1.00
  -4  -2 -10   12.50    0.90
  -4  -2 -10   12.50    0.80
  -4  -2 -10   12.20    1.20
  -5  -2 -10   10.40    1.00
  -5  -2 -10   10.10    0.80
  -5  -2 -10   11.50    0.90
   5   2  10   10.80    1.00
  -6  -2 -10    2.00    0.60
   6   2  10    2.40    0.60
  -7  -2 -10   16.40    1.50
   7   2  10   15.30    1.30
  -8  -2 -10   30.50    1.70
   8   2  10   28.30    1.70
  -9  -2 -10   -0.10    0.80
   9   2  10    0.60    0.90
 -10  -2 -10   -2.00    1.00
  12  -3 -10    5.50    1.00
 -12   3  10    5.00    1.00
 -12   3  10    5.30    1.10
  11  -3 -10   16.70    1.50
 -11   3  10   19.70    1.60
 -11   3  10   20.60    1.80
  10  -3 -10   23.00    1.70
 -10   3  10   23.00    2.10
 -10   3  10   21.30    1.60
   9  -3 -10   14.90    1.20
  -9   3  10   16.80    1.40
  -9   3  10   15.60    1.30
   8  -3 -10  123.59    3.70
  -8   3  10  123.89    3.80
  -8   3  10  122.69    3.70
   7  -3 -10   67.49    2.30
  -7   3  10   68.99    2.30
  -7   3  10   69.89    2.40
   6  -3 -10   31.80    1.40
  -6   3  10   31.10    1.50
  -6   3  10   33.60    1.40
   5  -3 -10   86.79    2.70
   5  -3 -10   87.29    2.80
  -5   3  10   93.09    2.90
  -5   3  10   88.39    2.50
  -5   3  10   90.49    2.70
   4  -3 -10    0.70    0.40
   4  -3 -10    0.60    0.50
  -4   3  10    0.60    0.40
  -4   3  10    0.60    0.60
  -4   3  10    0.70    0.30
   3  -3 -10   13.20    1.00
   3  -3 -10   13.00    0.80
  -3   3  10   12.60    0.70
  -3   3  10   14.60    1.00
  -3   3  10   13.00    0.80
   2  -3 -10    9.60    0.70
   2  -3 -10   10.30    0.90
  -2   3  10   11.40    0.70
  -2   3  10   11.90    0.70
  -2   3  10   11.20    1.00
   1  -3 -10    7.80    0.70
  -1   3  10    8.70    0.70
  -1   3  10    8.60    0.70
   0  -3 -10   -0.10    0.40
   0  -3 -10   -0.20    0.40
   0  -3 -10    0.70    0.50
   0   3  10    0.10    0.40
  -1  -3 -10  159.18    4.40
  -1  -3 -10  152.48    4.50
  -1  -3 -10  159.28    4.40
   1   3  10  169.68    4.40
  -2  -3 -10  716.03   18.50
  -2  -3 -10  713.03   18.40
  -2  -3 -10  713.03   18.50
   2   3  10  741.23   18.50
  -3  -3 -10    0.00    0.40
  -3  -3 -10    1.10    0.50
  -3  -3 -10    0.60    0.50
  -4  -3 -10  198.48    5.50
  -4  -3 -10  193.18    5.30
  -4  -3 -10  203.28    5.40
   4   3  10  204.08    5.50
  -5  -3 -10    8.00    1.10
  -5  -3 -10    8.70    0.90
   5   3  10    6.00    1.00
  -6  -3 -10    9.50    1.20
   6   3  10    9.30    1.10
  -7  -3 -10    0.00    1.30
   7   3  10    0.80    0.70
  -8  -3 -10    2.20    0.90
   8   3  10    3.00    1.10
  -9  -3 -10   11.80    1.60
   9   3  10   12.70    1.70
 -10  -3 -10    1.30    1.10
  12  -4 -10    8.40    1.10
 -12   4  10    8.70    1.20
 -12   4  10   12.20    1.70
  11  -4 -10    1.40    0.80
 -11   4  10    1.90    0.90
 -11   4  10    1.00    0.80
  10  -4 -10   32.30    1.70
 -10   4  10   36.90    1.90
 -10   4  10   33.40    1.90
   9  -4 -10    3.80    0.70
  -9   4  10    4.70    0.90
  -9   4  10    5.50    0.90
   8  -4 -10   22.40    1.50
  -8   4  10   21.50    1.40
  -8   4  10   20.40    1.50
   7  -4 -10   43.90    2.00
  -7   4  10   45.40    1.90
  -7   4  10   45.00    1.80
   6  -4 -10  285.27    7.70
  -6   4  10  286.27    7.80
  -6   4  10  289.47    7.70
   5  -4 -10    5.10    0.70
   5  -4 -10    5.20    0.70
  -5   4  10    5.00    0.80
   4  -4 -10    1.60    0.50
   4  -4 -10    1.80    0.60
  -4   4  10    2.10    0.70
  -4   4  10    1.50    0.50
  -4   4  10    2.00    0.40
   3  -4 -10    2.20    0.50
   3  -4 -10    2.20    0.50
  -3   4  10    2.50    0.60
  -3   4  10    3.70    0.50
  -3   4  10    3.90    0.70
   2  -4 -10   80.59    2.80
   2  -4 -10   83.39    2.50
  -2   4  10   84.99    2.50
  -2   4  10   86.89    2.70
  -2   4  10   84.39    2.40
   1  -4 -10   24.40    1.00
   1  -4 -10   24.40    1.20
  -1   4  10   26.00    1.10
   0  -4 -10   20.00    1.10
   0  -4 -10   19.40    0.90
   0  -4 -10   19.50    0.90
   0   4  10   20.50    1.00
  -1  -4 -10    1.00    0.60
  -1  -4 -10    1.30    0.40
  -1  -4 -10    1.30    0.50
   1   4  10    0.70    0.60
  -2  -4 -10   17.30    1.20
  -2  -4 -10   17.30    0.90
  -2  -4 -10   17.40    1.00
   2   4  10   18.60    1.10
  -3  -4 -10   11.90    1.00
  -3  -4 -10   11.10    0.80
  -3  -4 -10   12.20    1.00
   3   4  10   11.90    1.00
  -4  -4 -10  715.83   19.90
  -4  -4 -10  779.92   19.60
   4   4  10  782.22   19.60
  -5  -4 -10    3.20    0.70
  -5  -4 -10    2.60    0.70
   5   4  10    2.00    0.70
  -6  -4 -10  156.38    4.30
  -6  -4 -10  149.99    4.50
   6   4  10  147.59    4.40
  -7  -4 -10   44.30    2.10
   7   4  10   46.30    2.10
  -8  -4 -10   12.10    1.60
   8   4  10   16.30    1.60
  -9  -4 -10   44.10    2.30
   9   4  10   40.10    2.30
  12  -5 -10   -0.90    1.00
 -12   5  10    0.10    1.00
 -12   5  10    1.30    1.10
  11  -5 -10    4.70    0.90
 -11   5  10    6.90    1.10
 -11   5  10    7.30    1.10
  10  -5 -10   10.80    1.30
 -10   5  10    9.60    1.50
 -10   5  10   11.20    1.50
   9  -5 -10    9.10    1.20
  -9   5  10    6.80    1.00
  -9   5  10    8.10    1.30
   8  -5 -10   22.10    1.40
  -8   5  10   20.50    1.40
  -8   5  10   24.50    1.60
   7  -5 -10    9.70    1.30
  -7   5  10    8.70    1.10
  -7   5  10   11.40    1.30
   6  -5 -10    4.10    0.60
  -6   5  10    3.50    0.70
  -6   5  10    4.60    0.70
   5  -5 -10   60.69    2.00
  -5   5  10   59.29    2.20
  -5   5  10   59.19    2.10
  -4   5  10    2.00    0.40
   3  -5 -10    0.10    0.40
   3  -5 -10    0.50    0.50
  -3   5  10   -0.30    0.60
  -3   5  10   -0.20    0.40
  -3   5  10    0.30    0.30
   2  -5 -10   16.00    1.10
   2  -5 -10   15.70    0.90
  -2   5  10   18.30    1.00
  -2   5  10   17.70    0.90
   1  -5 -10    5.60    0.70
   1  -5 -10    6.50    0.90
  -1   5  10    8.60    0.80
   0  -5 -10   97.59    2.80
   0  -5 -10   96.09    2.80
   0  -5 -10   98.29    3.00
   0   5  10   99.39    2.90
  -1  -5 -10    9.30    1.10
  -1  -5 -10   11.00    0.80
  -1  -5 -10    9.50    0.70
   1   5  10   10.30    0.90
  -2  -5 -10  118.89    3.60
  -2  -5 -10  120.39    3.50
   2   5  10  121.49    3.50
  -3  -5 -10   62.39    2.20
  -3  -5 -10   58.89    2.10
   3   5  10   59.19    2.10
  -4  -5 -10   88.59    3.10
  -4  -5 -10   90.19    3.00
   4   5  10   82.19    2.80
  -5  -5 -10   59.19    2.30
  -5  -5 -10   65.89    2.40
   5   5  10   62.49    2.30
  -6  -5 -10  122.69    3.50
  -6  -5 -10  119.19    3.70
   6   5  10  113.79    3.70
  -7  -5 -10   10.50    1.40
   7   5  10   10.70    1.50
  -8  -5 -10   -0.10    0.90
   8   5  10   -0.80    0.90
  -9  -5 -10   -0.20    1.00
   9   5  10    0.50    1.10
  12  -6 -10   45.90    2.60
 -12   6  10   45.50    2.70
  11  -6 -10    2.40    0.80
 -11   6  10    1.70    0.90
 -11   6  10    0.70    1.00
  10  -6 -10    4.20    0.80
 -10   6  10    3.00    0.90
 -10   6  10    2.40    1.00
   9  -6 -10    1.10    0.70
  -9   6  10   -1.00    0.90
  -9   6  10    0.70    0.80
   8  -6 -10   42.10    2.10
  -8   6  10   44.30    2.00
  -8   6  10   44.00    2.10
   7  -6 -10    4.40    1.00
  -7   6  10    4.60    0.80
  -7   6  10    4.00    0.90
   6  -6 -10   55.09    2.10
  -6   6  10   58.99    2.30
  -6   6  10   59.59    2.20
   5  -6 -10   86.69    2.80
  -5   6  10   89.29    2.90
  -5   6  10   90.09    2.80
   4  -6 -10    1.40    0.70
   4  -6 -10    1.60    0.50
  -4   6  10    2.30    0.60
  -4   6  10    1.90    0.70
   3  -6 -10    0.70    0.50
   3  -6 -10    0.60    0.50
  -3   6  10    0.50    0.70
  -3   6  10    0.40    0.50
  -3   6  10    1.40    0.40
   2  -6 -10    0.00    0.40
   2  -6 -10    0.30    0.50
   1  -6 -10   -0.20    0.60
   1  -6 -10    1.00    0.40
   1  -6 -10   -0.50    0.40
  -1   6  10    0.80    0.50
   0  -6 -10   36.60    1.70
   0  -6 -10   34.80    1.40
   0  -6 -10   36.10    1.30
   0   6  10   35.60    1.50
  -1  -6 -10   63.89    2.10
  -1  -6 -10   66.69    2.30
  -1  -6 -10   64.29    2.00
   1   6  10   61.59    2.20
  -2  -6 -10   11.30    1.00
  -2  -6 -10   12.90    1.00
  -2  -6 -10   15.30    1.20
   2   6  10   12.40    1.10
  -3  -6 -10    9.00    1.00
   3   6  10    9.40    1.10
  -4  -6 -10    0.30    0.70
  -4  -6 -10    0.40    0.60
   4   6  10   -0.10    0.70
  -5  -6 -10    0.30    1.00
  -5  -6 -10    1.70    1.20
   5   6  10    0.60    0.80
  -6  -6 -10    1.40    0.80
  -6  -6 -10    2.60    0.80
   6   6  10    3.20    1.50
  -7  -6 -10    1.20    0.80
  -7  -6 -10    2.10    0.70
   7   6  10    1.50    1.00
  -8  -6 -10    1.50    1.00
   8   6  10    2.50    1.10
  11  -7 -10    1.90    0.90
 -11   7  10    2.30    1.10
 -11   7  10    2.70    1.10
  10  -7 -10   41.40    2.00
 -10   7  10   38.60    2.10
 -10   7  10   39.10    2.30
   9  -7 -10    5.00    0.90
  -9   7  10    6.20    1.00
  -9   7  10    5.00    1.00
   8  -7 -10    8.10    1.20
  -8   7  10   10.20    1.60
  -8   7  10    7.20    1.40
   7  -7 -10    3.00    0.80
  -7   7  10    3.00    0.80
  -7   7  10    4.00    0.80
   6  -7 -10    0.00    0.60
  -6   7  10   -0.50    0.70
  -6   7  10    0.70    0.70
   5  -7 -10   -0.60    0.50
  -5   7  10    1.00    0.70
  -5   7  10   -0.50    0.60
   4  -7 -10    1.80    0.60
  -4   7  10    2.40    0.70
  -4   7  10    2.30    0.70
   3  -7 -10    7.70    1.20
   3  -7 -10    6.10    0.90
  -3   7  10    8.30    1.00
   2  -7 -10   31.30    1.30
   2  -7 -10   31.30    1.70
  -2   7  10   30.10    1.50
  -2   7  10   30.30    1.20
   1  -7 -10   35.00    1.80
   1  -7 -10   35.00    1.30
   1  -7 -10   34.70    1.40
  -1   7  10   36.60    1.60
   0  -7 -10  130.49    3.70
   0  -7 -10  133.99    4.00
   0  -7 -10  130.09    3.70
   0   7  10  132.89    3.90
  -1  -7 -10   16.50    0.90
  -1  -7 -10   18.90    1.40
  -1  -7 -10   16.70    1.00
   1   7  10   17.00    1.30
  -2  -7 -10   54.59    2.00
  -2  -7 -10   55.89    2.20
   2   7  10   55.29    2.10
  -3  -7 -10   33.00    1.70
  -3  -7 -10   32.70    1.50
   3   7  10   31.40    1.70
  -4  -7 -10   18.80    1.30
   4   7  10   17.60    1.50
  -5  -7 -10   -0.50    0.70
  -5  -7 -10    0.40    0.80
   5   7  10    0.00    1.30
  -6  -7 -10    1.00    0.90
  -6  -7 -10    1.20    0.80
   6   7  10    0.30    0.90
  -7  -7 -10    4.90    1.00
  -7  -7 -10    1.90    0.90
   7   7  10    1.90    1.10
  -8  -7 -10    9.20    1.30
   8   7  10    7.30    1.30
 -11   8  10    2.10    1.50
 -11   8  10    0.90    1.80
  10  -8 -10    2.20    0.90
 -10   8  10    0.40    1.00
 -10   8  10    1.50    1.00
   9  -8 -10   68.49    2.70
  -9   8  10   66.09    2.80
  -9   8  10   69.09    2.90
   8  -8 -10   38.40    1.80
  -8   8  10   35.50    2.00
  -8   8  10   34.60    2.20
   7  -8 -10   10.40    1.30
  -7   8  10   12.50    1.60
  -7   8  10   11.80    1.80
   6  -8 -10   13.50    1.30
  -6   8  10   14.50    1.30
  -6   8  10   14.50    1.60
   5  -8 -10    1.60    0.60
  -5   8  10    1.60    0.80
  -5   8  10    2.20    0.70
   4  -8 -10    2.10    0.60
  -4   8  10    1.60    0.70
   3  -8 -10   21.40    1.20
   3  -8 -10   21.10    1.60
  -3   8  10   21.00    1.30
   2  -8 -10   54.99    2.30
   2  -8 -10   54.19    1.90
  -2   8  10   52.99    2.10
   1  -8 -10   22.10    1.20
   1  -8 -10   25.20    1.70
   1  -8 -10   24.60    1.20
  -1   8  10   24.00    1.40
   0  -8 -10   22.60    1.20
   0  -8 -10   22.30    1.10
   0  -8 -10   24.00    1.70
   0   8  10   22.10    1.50
  -1  -8 -10    7.20    0.90
  -1  -8 -10    6.00    0.90
   1   8  10    6.10    0.90
  -2  -8 -10   80.09    2.80
  -2  -8 -10   79.99    2.60
   2   8  10   76.39    2.80
  -3  -8 -10   15.20    1.30
   3   8  10   11.40    1.40
  -4  -8 -10   26.10    1.80
  -4  -8 -10   25.20    1.50
   4   8  10   24.80    1.70
  -5  -8 -10    1.80    0.80
  -5  -8 -10    3.10    0.90
   5   8  10    0.40    0.90
  -6  -8 -10    2.10    1.00
  -6  -8 -10    1.10    1.00
   6   8  10   -1.30    1.00
  -7  -8 -10   22.40    1.80
  -7  -8 -10   17.80    1.90
   7   8  10   13.80    1.90
  10  -9 -10   28.70    2.00
 -10   9  10   27.70    2.40
 -10   9  10   27.70    2.10
   9  -9 -10   38.80    2.10
  -9   9  10   37.90    2.40
  -9   9  10   39.60    2.20
   8  -9 -10   75.89    2.80
  -8   9  10   78.59    3.00
  -8   9  10   81.09    3.20
   7  -9 -10    0.20    0.70
  -7   9  10   -0.30    0.90
  -7   9  10    1.30    0.90
   6  -9 -10    3.70    0.70
  -6   9  10    4.20    0.90
  -6   9  10    4.60    1.10
   5  -9 -10    5.90    1.30
  -5   9  10    7.40    1.20
  -5   9  10    5.70    1.10
   4  -9 -10    7.50    1.10
  -4   9  10    7.20    0.90
   3  -9 -10   53.69    2.00
  -3   9  10   54.29    2.20
   2  -9 -10   55.29    2.50
   2  -9 -10   55.49    2.00
  -2   9  10   55.39    2.20
   1  -9 -10   21.50    1.20
   1  -9 -10   24.10    1.90
  -1   9  10   20.90    1.50
   0  -9 -10   26.00    1.80
   0  -9 -10   23.90    1.30
   0   9  10   23.90    1.60
  -1  -9 -10   13.40    1.60
  -1  -9 -10   15.50    1.20
   1   9  10   13.90    1.50
  -2  -9 -10   19.60    1.30
  -2  -9 -10   20.70    1.80
   2   9  10   17.20    1.70
  -3  -9 -10    4.60    0.80
  -3  -9 -10    4.30    1.00
   3   9  10    5.50    1.00
  -4  -9 -10    4.00    1.00
  -4  -9 -10    6.40    1.00
   4   9  10    3.70    1.10
  -5  -9 -10    4.10    1.00
  -5  -9 -10    2.20    0.90
   5   9  10    1.90    1.10
  -6  -9 -10   -0.60    0.90
  -6  -9 -10    0.60    1.10
   6   9  10   -2.20    1.10
   9 -10 -10    3.00    1.00
  -9  10  10    3.90    1.20
  -9  10  10    5.40    1.30
   8 -10 -10   12.20    1.50
  -8  10  10    9.80    1.30
  -8  10  10   13.10    1.70
   7 -10 -10   27.70    1.70
  -7  10  10   25.40    2.20
  -7  10  10   27.60    1.90
   6 -10 -10   12.00    1.30
  -6  10  10   16.50    1.60
  -6  10  10   17.40    2.00
   5 -10 -10    2.20    0.80
  -5  10  10    2.80    0.90
   4 -10 -10    1.30    0.70
  -4  10  10    0.80    0.80
   3 -10 -10  152.18    4.40
  -3  10  10  143.79    4.60
   2 -10 -10    8.60    1.10
  -2  10  10    7.70    1.10
   1 -10 -10   -0.20    1.00
   0 -10 -10    3.30    1.60
   0  10  10    3.00    0.90
  -1 -10 -10   -1.10    0.90
   1  10  10   -0.40    0.90
  -2 -10 -10    0.20    1.00
  -2 -10 -10    0.50    0.70
   2  10  10    0.10    0.90
  -3 -10 -10   63.39    2.40
  -3 -10 -10   61.49    2.80
   3  10  10   61.69    2.70
  -4 -10 -10   44.90    2.20
  -4 -10 -10   48.30    2.60
   4  10  10   45.80    2.50
  -5 -10 -10    1.20    1.00
  -5 -10 -10    2.10    1.10
   5  10  10    0.20    1.20
   8 -11 -10    0.70    1.00
  -8  11  10    1.50    1.20
  -8  11  10    1.00    1.20
   7 -11 -10   -0.90    0.70
  -7  11  10    1.10    1.10
   6 -11 -10   55.29    2.30
  -6  11  10   55.99    2.60
   5 -11 -10   56.99    2.30
  -5  11  10   60.09    2.60
   4 -11 -10    2.40    0.80
  -4  11  10    1.90    1.00
   3 -11 -10   -0.50    0.70
  -3  11  10    0.70    1.00
  -2  11  10  100.79    3.50
  -1  11  10   25.90    1.80
   0 -11 -10   30.70    2.40
   0  11  10   27.80    1.90
  -1 -11 -10   23.00    2.30
   1  11  10   25.30    1.90
  -2 -11 -10   16.10    2.20
   2  11  10   17.60    1.90
  -3 -11 -10   34.60    2.50
   3  11  10   36.70    2.30
  -4 -11 -10   72.59    3.70
  -4 -11 -10   66.19    2.70
   4  11  10   64.89    3.40
   6 -12 -10   -1.70    0.90
  -6  12  10    0.20    1.10
   5 -12 -10   10.50    1.50
  -5  12  10   14.20    1.80
   4 -12 -10    2.10    0.90
  -4  12  10    1.90    1.10
  -3  12  10    0.00    1.00
  -2  12  10    0.50    1.00
  -1  12  10   10.20    1.70
   0  12  10    2.00    1.10
  -1 -12 -10   14.20    2.50
   1  12  10    7.40    1.30
  -2 -12 -10   16.70    2.50
   2  12  10    9.90    1.60
  -3 -15  11    3.60    1.10
   2  15 -11   -0.10    1.20
  -2 -15  11   -1.30    0.90
   1  15 -11    2.70    1.20
  -1 -15  11    2.40    1.10
   0  15 -11    1.10    1.00
   0 -15  11    0.60    1.00
  -1  15 -11    8.30    1.10
  -1  15 -11   10.30    1.80
  -2  15 -11   26.00    1.80
  -2  15 -11   26.70    2.10
  -3  15 -11    2.50    1.00
  -4  15 -11    6.90    1.20
   4 -15  11    5.40    1.00
  -5 -14  11    2.70    1.10
  -4 -14  11   26.10    1.80
   3  14 -11   -1.40    1.30
  -3 -14  11    1.10    1.00
   2  14 -11    0.40    1.10
  -2 -14  11    1.20    1.00
   1  14 -11    1.80    1.10
   1  14 -11    0.60    1.10
  -1 -14  11    0.10    0.90
   0  14 -11   23.50    1.60
   0  14 -11   26.20    2.00
   0 -14  11   25.90    1.70
  -1  14 -11    5.50    1.00
  -1  14 -11    6.50    0.90
   1 -14  11    6.40    1.10
  -2  14 -11   43.30    2.10
  -2  14 -11   41.80    2.00
  -3  14 -11   10.80    1.50
  -3  14 -11   15.50    1.70
  -4  14 -11    0.40    0.90
  -4  14 -11    1.70    0.80
  -5  14 -11    0.70    1.10
   6 -14  11    8.60    1.60
  -6 -13  11    7.30    1.20
  -5 -13  11    1.60    1.00
  -4 -13  11   12.70    1.50
   3  13 -11    8.10    1.30
  -3 -13  11   10.50    1.50
   2  13 -11    0.80    1.00
   2  13 -11   -0.70    1.10
  -2 -13  11    1.40    0.80
   1  13 -11    0.20    1.00
   1  13 -11    1.70    1.20
  -1 -13  11    0.50    0.90
   0  13 -11    2.30    0.70
   0  13 -11    2.00    0.90
   0 -13  11    2.70    0.80
  -1  13 -11    3.00    0.90
  -1  13 -11    3.10    0.80
   1 -13  11    2.60    0.90
  -2  13 -11    0.20    0.80
  -2  13 -11   -0.20    0.70
  -3  13 -11   16.40    1.50
  -3  13 -11   17.80    1.50
  -4  13 -11   -1.70    0.70
  -4  13 -11   -1.40    0.70
  -5  13 -11    0.70    1.00
  -6  13 -11    6.20    1.10
   7 -13  11    3.70    0.90
  -7 -12  11   13.30    1.70
  -6 -12  11    5.00    1.10
  -5 -12  11    9.40    1.50
   4  12 -11    8.90    1.40
  -4 -12  11    8.90    1.10
   3  12 -11    1.40    1.10
  -3 -12  11    1.60    0.80
   2  12 -11  322.37    8.50
   2  12 -11  332.17    8.80
  -2 -12  11  299.37    8.90
   1  12 -11    2.30    0.80
   1  12 -11    3.20    0.70
  -1 -12  11    1.30    0.80
   0  12 -11   83.29    2.70
   0  12 -11   81.39    3.00
   0 -12  11   84.89    2.80
  -1  12 -11   81.39    2.70
   1 -12  11   79.29    2.80
  -2  12 -11    4.60    0.90
  -2  12 -11    4.90    1.10
   2 -12  11    5.30    0.80
  -3  12 -11   16.10    1.40
  -3  12 -11   20.00    1.50
   3 -12  11   20.10    1.50
  -4  12 -11   14.10    1.50
  -4  12 -11   13.50    1.30
  -5  12 -11    5.80    1.00
  -6  12 -11    7.00    1.10
  -7  12 -11   -1.90    0.90
   8 -12  11   10.00    1.60
  -8 -11  11    2.00    1.00
  -7 -11  11    0.50    0.80
  -6 -11  11    2.70    0.90
  -5 -11  11   12.30    1.50
   4  11 -11   59.99    2.80
  -4 -11  11   58.59    2.40
   3  11 -11  118.89    3.50
   3  11 -11  121.99    4.00
  -3 -11  11  116.59    3.70
   2  11 -11   33.90    1.60
   2  11 -11   33.80    2.00
  -2 -11  11   33.90    1.70
   1  11 -11   67.79    2.50
   1  11 -11   64.09    2.30
  -1 -11  11   64.09    2.40
   0  11 -11  193.78    5.40
   0  11 -11  192.78    5.50
   0 -11  11  191.08    5.50
  -1  11 -11   53.09    2.00
  -1  11 -11   52.49    2.30
   1 -11  11   50.69    2.00
  -2  11 -11   41.20    1.80
  -2  11 -11   44.30    1.80
   2 -11  11   43.20    1.80
  -3  11 -11   -0.20    0.70
  -3  11 -11   -0.40    0.60
   3 -11  11   -0.60    0.60
  -4  11 -11    0.50    0.60
  -4  11 -11    0.50    0.70
   4 -11  11    0.10    0.70
  -5  11 -11   12.30    1.40
  -6  11 -11    3.30    0.90
  -7  11 -11    7.10    1.10
   8 -11  11    7.20    1.00
  -9 -10  11    4.70    1.10
  -8 -10  11    0.20    0.90
  -7 -10  11   -0.80    0.80
  -6 -10  11   33.40    1.80
  -5 -10  11   -0.50    1.20
   4  10 -11   -0.50    0.60
   4  10 -11    1.20    0.80
  -4 -10  11    0.40    0.70
   3  10 -11   11.10    1.40
   3  10 -11    9.50    1.00
   3  10 -11    8.00    1.00
   2  10 -11   13.70    1.40
   2  10 -11   12.70    1.00
   2  10 -11   11.60    1.60
  -2 -10  11   10.50    1.30
   1  10 -11   42.00    1.90
   1  10 -11   40.60    1.60
  -1 -10  11   40.30    1.90
   0  10 -11    3.30    0.70
   0  10 -11    2.90    0.80
   0 -10  11    1.80    0.70
  -1  10 -11   84.89    3.30
  -1  10 -11   79.89    2.70
   1 -10  11   82.39    2.70
  -2  10 -11   92.19    2.90
  -2  10 -11   88.69    2.90
   2 -10  11   91.29    2.90
  -3  10 -11    1.20    0.60
   3 -10  11    0.40    0.60
  -4  10 -11   27.80    1.50
   4 -10  11   27.00    1.40
  -5  10 -11    1.20    1.10
   5 -10  11    0.40    0.70
  -6  10 -11    0.80    0.80
  -7  10 -11   33.50    1.80
  -8  10 -11    2.60    0.90
   9 -10  11    1.10    0.80
 -10  -9  11   10.70    1.70
 -10  -9  11   16.70    2.60
  -9  -9  11    0.30    1.40
  -9  -9  11   -1.80    0.80
  -8  -9  11    5.10    1.00
  -7  -9  11    0.00    0.80
  -6  -9  11   -0.20    0.80
   5   9 -11   -0.80    0.50
   5   9 -11    0.30    0.80
  -5  -9  11   -0.30    0.70
   4   9 -11    2.50    0.60
   4   9 -11    3.30    0.80
  -4  -9  11    2.20    1.00
   3   9 -11   10.20    1.30
   3   9 -11    9.50    0.90
  -3  -9  11   10.50    1.10
   2   9 -11    2.60    0.70
   2   9 -11    5.40    0.80
  -2  -9  11    4.00    0.80
   1   9 -11    7.40    0.90
   1   9 -11    8.30    1.10
  -1  -9  11    8.30    1.00
   0   9 -11    4.10    0.70
   0   9 -11    6.60    1.00
   0  -9  11    3.30    0.60
  -1   9 -11    7.10    1.10
  -1   9 -11    6.60    0.90
  -2   9 -11   14.20    1.10
  -2   9 -11   14.60    1.20
   2  -9  11   14.40    1.10
  -3   9 -11   42.80    1.90
   3  -9  11   43.40    1.80
  -4   9 -11   19.10    1.30
   4  -9  11   18.20    1.20
  -5   9 -11    1.00    0.60
   5  -9  11   -0.20    0.60
  -6   9 -11    5.10    1.10
   6  -9  11    5.10    0.80
  -7   9 -11    1.30    0.80
  -8   9 -11    3.70    0.90
   9  -9  11    8.80    1.40
 -10  -8  11   13.00    1.50
 -10  -8  11   15.60    1.70
  -9  -8  11    4.90    1.10
  -9  -8  11    1.80    0.90
  -8  -8  11    4.10    1.10
  -8  -8  11    4.10    0.90
  -7  -8  11    0.20    0.80
  -7  -8  11    0.70    0.80
   6   8 -11    0.50    0.60
  -6  -8  11   -0.10    0.70
   5   8 -11   68.89    2.60
   5   8 -11   69.89    2.20
  -5  -8  11   70.09    2.60
   4   8 -11  200.78    5.60
   4   8 -11  194.88    5.40
  -4  -8  11  196.78    5.50
   3   8 -11    0.60    0.60
   3   8 -11    0.90    0.40
  -3  -8  11    0.30    0.60
   2   8 -11    5.30    0.70
   2   8 -11    5.40    0.80
  -2  -8  11    7.00    0.90
   1   8 -11   39.80    1.50
   1   8 -11   38.40    1.60
  -1  -8  11   38.20    1.60
   0   8 -11    0.20    0.50
   0   8 -11    0.60    0.50
   0  -8  11    1.00    0.50
  -1   8 -11   21.20    1.10
  -1   8 -11   20.60    1.10
   1  -8  11   21.50    1.20
  -2   8 -11    7.80    0.90
  -2   8 -11    7.90    0.90
  -3   8 -11    3.20    0.60
   3  -8  11    1.80    0.60
  -4   8 -11   29.60    1.50
   4  -8  11   32.10    1.50
  -5   8 -11    8.00    1.10
   5  -8  11    5.90    0.80
  -6   8 -11   12.80    1.20
   6  -8  11   11.80    1.20
  -7   8 -11    4.10    0.80
   7  -8  11    3.10    0.80
  -8   8 -11   31.10    1.70
  10  -8  11    3.00    1.00
 -11  -7  11    1.50    1.00
 -11  -7  11    0.80    1.20
 -10  -7  11   -1.20    1.00
 -10  -7  11   -1.90    0.90
  -9  -7  11    2.50    1.00
  -9  -7  11    1.60    0.70
  -8  -7  11   10.10    1.60
   7   7 -11   10.40    1.00
  -7  -7  11    9.10    1.20
  -7  -7  11    9.90    1.40
   6   7 -11   34.80    1.40
  -6  -7  11   32.20    1.80
  -6  -7  11   34.70    1.60
   5   7 -11   50.29    1.70
   5   7 -11   51.49    2.10
  -5  -7  11   50.19    1.90
   4   7 -11   37.60    1.70
   4   7 -11   37.10    1.40
  -4  -7  11   36.30    1.60
   3   7 -11   56.69    1.90
   3   7 -11   55.79    2.00
  -3  -7  11   55.19    2.00
   2   7 -11    6.40    1.00
   2   7 -11    7.00    0.80
  -2  -7  11    6.00    0.80
   1   7 -11   61.19    2.00
   1   7 -11   59.99    2.00
  -1  -7  11   58.89    2.00
   0   7 -11    6.90    0.80
   0   7 -11    6.80    0.80
   0  -7  11    6.70    0.90
  -1   7 -11    2.60    0.50
  -1   7 -11    2.30    0.50
   1  -7  11    3.80    0.60
  -2   7 -11   10.10    0.90
  -2   7 -11   11.00    0.80
   2  -7  11    9.00    0.90
  -3   7 -11   12.00    1.50
  -3   7 -11    9.70    0.90
   3  -7  11    8.90    0.90
  -4   7 -11  115.79    3.40
   4  -7  11  118.09    3.50
  -5   7 -11   12.80    1.10
   5  -7  11   12.50    1.10
  -6   7 -11    0.20    0.60
   6  -7  11    0.20    0.60
  -7   7 -11   14.40    1.20
   7  -7  11   13.00    1.20
  -8   7 -11    4.20    0.80
   8  -7  11    4.40    0.80
  -9   7 -11    1.50    0.90
  10  -7  11    1.60    0.90
 -11  -6  11    2.10    1.00
 -11  -6  11    0.50    1.00
 -10  -6  11   -0.30    0.90
 -10  -6  11   -0.90    0.80
  -9  -6  11    0.40    0.70
  -9  -6  11    0.30    0.90
  -8  -6  11   45.40    1.90
  -8  -6  11   42.60    2.10
   7   6 -11   16.50    1.10
  -7  -6  11   16.00    1.20
  -7  -6  11   16.00    1.40
   6   6 -11   81.99    2.50
  -6  -6  11   81.29    2.60
  -6  -6  11   81.29    2.80
   5   6 -11   13.00    0.90
   5   6 -11   13.20    1.40
  -5  -6  11   11.70    1.20
  -5  -6  11   11.70    1.00
   4   6 -11   54.29    1.80
   4   6 -11   57.39    2.00
  -4  -6  11   54.49    1.90
   3   6 -11    4.10    0.60
  -3  -6  11    2.90    0.50
   2   6 -11   41.60    1.50
   2   6 -11   41.50    1.60
  -2  -6  11   41.30    1.60
   1   6 -11   25.30    1.10
   1   6 -11   25.10    1.20
  -1  -6  11   26.60    1.20
   0   6 -11    2.90    0.50
   0   6 -11    3.10    0.50
   0  -6  11    2.80    0.50
  -1   6 -11    0.90    0.40
  -1   6 -11    1.00    0.40
   1  -6  11    1.40    0.50
  -2   6 -11   12.00    0.80
  -2   6 -11   13.80    0.90
   2  -6  11   13.30    1.00
  -3   6 -11   11.40    0.90
  -3   6 -11   11.80    0.80
  -3   6 -11   12.70    0.80
   3  -6  11   12.80    1.00
  -4   6 -11    1.20    0.50
   4  -6  11    1.10    0.50
  -5   6 -11    1.80    0.60
   5  -6  11    1.10    0.50
  -6   6 -11    6.90    1.00
   6  -6  11    5.90    1.00
  -7   6 -11   -0.50    0.60
   7  -6  11   -0.50    0.60
  -8   6 -11    6.20    1.20
   8  -6  11    8.10    1.20
   9  -6  11    5.00    1.10
 -12  -5  11    2.60    1.20
 -11  -5  11   29.70    1.80
 -11  -5  11   26.60    2.10
 -10  -5  11    4.80    0.90
 -10  -5  11    3.90    0.90
   9   5 -11    6.20    0.90
  -9  -5  11    4.40    0.80
  -9  -5  11    8.30    1.20
   8   5 -11    0.50    0.60
   8   5 -11    0.00    0.50
  -8  -5  11    0.00    0.60
  -8  -5  11    0.30    0.60
   7   5 -11   51.19    1.90
   7   5 -11   52.89    1.80
  -7  -5  11   51.39    1.90
  -7  -5  11   51.89    2.10
   6   5 -11   67.39    2.40
   6   5 -11   63.79    2.30
   6   5 -11   60.79    2.00
  -6  -5  11   62.79    2.30
  -6  -5  11   62.89    2.20
   5   5 -11   20.10    1.00
   5   5 -11   21.70    1.30
  -5  -5  11   18.90    1.30
  -5  -5  11   18.80    1.10
   4   5 -11    0.10    0.40
   4   5 -11    0.10    0.90
  -4  -5  11    1.00    0.60
  -4  -5  11    0.00    0.50
   3   5 -11   38.80    1.90
   3   5 -11   42.50    1.50
  -3  -5  11   44.20    1.60
   2   5 -11    5.00    0.70
   2   5 -11    5.40    0.80
  -2  -5  11    4.70    0.70
   1   5 -11  246.98    6.60
   1   5 -11  250.57    6.60
  -1  -5  11  248.18    6.70
   0   5 -11  315.37    8.30
   0   5 -11  315.87    8.30
   0  -5  11  315.77    8.40
  -1   5 -11   53.89    1.70
  -1   5 -11   52.99    1.80
   1  -5  11   54.69    1.80
  -2   5 -11   27.70    1.20
  -2   5 -11   24.30    1.10
   2  -5  11   28.10    1.20
  -3   5 -11   10.80    0.80
  -3   5 -11   13.40    0.90
  -3   5 -11   10.60    0.70
   3  -5  11   14.10    0.90
  -4   5 -11   70.79    2.30
   4  -5  11   71.49    2.30
  -5   5 -11    2.40    0.50
   5  -5  11    3.00    0.60
  -6   5 -11    1.00    0.60
   6  -5  11    1.30    0.60
  -7   5 -11    2.60    0.70
   7  -5  11    1.10    0.60
  -8   5 -11   -0.20    0.80
   8  -5  11    0.90    0.70
  -9   5 -11    0.10    0.80
   9  -5  11    0.40    0.80
 -12  -4  11    1.20    1.10
  11   4 -11    6.20    1.80
 -11  -4  11    3.50    1.00
 -11  -4  11    4.30    1.30
  10   4 -11   52.59    2.30
 -10  -4  11   51.49    2.40
 -10  -4  11   52.69    2.80
   9   4 -11   25.00    1.40
   9   4 -11   27.30    1.50
  -9  -4  11   25.90    1.50
  -9  -4  11   25.90    1.70
   8   4 -11   57.39    2.00
   8   4 -11   57.79    2.00
  -8  -4  11   57.29    2.10
  -8  -4  11   57.99    2.30
   7   4 -11   12.60    1.00
   7   4 -11   12.10    1.00
  -7  -4  11   13.00    1.30
  -7  -4  11   13.30    1.00
   6   4 -11   34.10    1.60
   6   4 -11   29.10    1.30
   6   4 -11   27.90    1.20
  -6  -4  11   29.90    1.40
  -6  -4  11   31.50    1.50
   5   4 -11    9.30    0.80
   5   4 -11   10.40    0.90
   5   4 -11    9.00    1.10
  -5  -4  11   11.80    0.90
  -5  -4  11    8.80    1.10
   4   4 -11   15.80    1.10
   4   4 -11   14.90    0.90
  -4  -4  11   14.00    1.10
  -4  -4  11   14.50    0.90
   3   4 -11   97.49    2.90
   3   4 -11   93.49    2.70
  -3  -4  11   92.69    2.80
  -3  -4  11   92.69    2.90
   2   4 -11    5.50    0.70
  -2  -4  11    6.80    0.80
   1   4 -11   49.99    1.70
   1   4 -11   52.09    1.70
  -1  -4  11   49.40    1.70
   0   4 -11  548.95   14.40
   0   4 -11  566.54   14.40
   0  -4  11  567.94   14.50
  -1   4 -11   29.60    1.20
  -1   4 -11   29.40    1.20
   1  -4  11   29.50    1.30
  -2   4 -11  348.97    9.20
  -2   4 -11  369.46    9.30
  -2   4 -11  354.66    9.30
   2  -4  11  356.66    9.40
  -3   4 -11   69.69    2.00
  -3   4 -11   69.69    2.20
  -3   4 -11   67.09    2.00
   3  -4  11   70.19    2.20
  -4   4 -11   71.59    2.30
   4  -4  11   72.59    2.30
  -5   4 -11  143.39    4.10
   5  -4  11  148.39    4.20
  -6   4 -11  116.79    3.40
   6  -4  11  115.89    3.50
  -7   4 -11  157.28    4.50
   7  -4  11  159.38    4.60
  -8   4 -11    5.60    0.80
   8  -4  11    4.60    0.80
   9  -4  11    7.50    0.90
  10  -4  11   -0.30    1.00
 -12  -3  11   -0.50    0.90
  11   3 -11    3.00    1.00
 -11  -3  11    0.40    0.90
  10   3 -11   53.49    2.20
 -10  -3  11   50.89    2.80
 -10  -3  11   53.59    2.10
   9   3 -11    1.10    0.70
   9   3 -11    1.00    0.60
  -9  -3  11    0.80    0.80
  -9  -3  11    2.80    0.70
   8   3 -11   11.90    1.00
   8   3 -11   13.10    1.00
  -8  -3  11   12.50    1.30
  -8  -3  11   12.00    1.10
   7   3 -11   20.80    1.10
   7   3 -11   20.60    1.10
  -7  -3  11   21.90    1.40
  -7  -3  11   21.20    1.10
   6   3 -11    0.10    0.40
   6   3 -11    0.00    0.50
   6   3 -11   -0.30    0.40
  -6  -3  11   -0.20    0.40
   5   3 -11    7.30    1.00
   5   3 -11    7.50    0.70
   5   3 -11    7.20    0.60
  -5  -3  11    6.90    0.80
  -5  -3  11    7.00    1.00
   4   3 -11    9.00    0.70
   4   3 -11    8.20    1.00
  -4  -3  11    8.90    1.00
  -4  -3  11    9.50    0.80
   3   3 -11  105.49    3.00
   3   3 -11  109.49    3.10
  -3  -3  11  105.19    3.10
  -3  -3  11  104.69    3.10
   2   3 -11   80.19    2.50
   2   3 -11   76.79    2.30
  -2  -3  11   78.09    2.40
   1   3 -11   26.00    1.10
   1   3 -11   28.70    1.30
  -1  -3  11   28.90    1.20
  -1   3 -11  220.58    5.80
  -1   3 -11  216.28    5.80
   1  -3  11  214.78    5.90
  -2   3 -11  533.55   13.80
  -2   3 -11  521.65   13.70
  -2   3 -11  541.25   13.70
   2  -3  11  542.55   13.90
  -3   3 -11  310.37    8.10
  -3   3 -11  316.67    8.10
  -3   3 -11  308.97    8.20
   3  -3  11  319.57    8.30
  -4   3 -11  218.48    5.90
   4  -3  11  222.48    6.00
  -5   3 -11   15.90    1.00
   5  -3  11   15.60    1.10
  -6   3 -11   38.70    1.50
   6  -3  11   39.00    1.70
  -7   3 -11   14.40    1.00
   7  -3  11   13.50    1.20
  -8   3 -11   31.60    1.50
   8  -3  11   34.50    1.70
   9  -3  11   54.19    2.20
  10  -3  11    1.20    0.90
  12   2 -11    4.50    1.20
 -12  -2  11    2.30    1.00
  11   2 -11    2.70    0.90
 -11  -2  11    2.00    0.90
  10   2 -11   39.10    1.70
  10   2 -11   39.70    1.90
 -10  -2  11   35.90    3.30
   9   2 -11    0.80    0.60
  -9  -2  11    0.70    0.60
  -9  -2  11   -0.50    0.70
   8   2 -11    1.50    0.60
  -8  -2  11    1.40    0.50
  -8  -2  11    2.40    0.60
  -8  -2  11    1.20    0.70
   7   2 -11    0.10    0.50
  -7  -2  11    0.30    0.40
  -7  -2  11    0.10    0.50
  -7  -2  11    1.30    0.50
   6   2 -11    3.50    0.50
   6   2 -11    3.40    0.70
  -6  -2  11    4.80    0.70
  -6  -2  11    3.40    0.50
   5   2 -11   51.49    1.70
   5   2 -11   52.89    1.90
  -5  -2  11   51.89    1.90
  -5  -2  11   53.89    1.60
  -5  -2  11   52.49    1.70
   4   2 -11   20.90    1.00
   4   2 -11   21.70    1.10
  -4  -2  11   20.20    1.00
  -4  -2  11   21.70    1.20
   1   2 -11    9.30    0.70
  -1  -2  11   11.80    0.80
   0   2 -11    1.70    0.40
   0   2 -11    2.30    0.40
  -2   2 -11   43.60    1.50
  -3   2 -11   28.90    1.10
  -5   2 -11   15.50    1.00
   5  -2  11   13.60    1.10
  -6   2 -11    1.80    0.50
   6  -2  11    0.70    0.60
  -7   2 -11    0.80    0.50
   7  -2  11    0.20    0.60
   8  -2  11   28.30    2.30
   9  -2  11    1.10    0.80
  10  -2  11    2.90    1.00
  12   1 -11    6.00    1.20
 -12  -1  11    4.60    1.00
  11   1 -11    3.00    0.90
 -11  -1  11    0.10    0.90
 -10  -1  11    2.80    1.10
 -10  -1  11    2.30    0.80
   9   1 -11    2.80    0.60
  -9  -1  11    3.10    0.70
  -9  -1  11    2.10    0.80
  -9  -1  11    3.10    0.70
   8   1 -11   24.60    1.30
  -8  -1  11   24.30    1.20
  -8  -1  11   26.50    1.60
  -8  -1  11   24.40    1.30
   7   1 -11    3.70    0.60
  -7  -1  11    4.60    0.80
  -7  -1  11    4.20    0.70
  -7  -1  11    4.50    0.80
   6   1 -11    2.20    0.50
   6   1 -11    2.50    0.60
  -6  -1  11    2.90    0.50
  -6  -1  11    1.60    0.40
   5   1 -11   61.59    2.10
   5   1 -11   60.49    2.00
  -5  -1  11   59.79    1.90
  -5  -1  11   60.19    2.10
  -5  -1  11   62.59    1.80
   4   1 -11    2.30    0.50
   4   1 -11    2.50    0.50
  -4  -1  11    1.80    0.40
  -4  -1  11    3.70    0.50
  -4  -1  11    2.90    0.60
   3   1 -11   -0.10    0.30
   3   1 -11    0.60    0.50
  -3  -1  11    0.40    0.50
  -3  -1  11    0.60    0.40
   2   1 -11  372.86    9.40
   2   1 -11  379.16    9.40
  -2  -1  11  318.97    9.90
  -2  -1  11  363.76    9.40
   1   1 -11    0.70    0.30
  -1  -1  11    1.40    0.40
   0   1 -11   12.20    0.80
   0   1 -11   13.30    0.80
   0  -1  11   13.30    0.80
  -1   1 -11   48.00    1.60
  -1   1 -11   50.09    1.60
   1  -1  11   49.80    1.70
  -2   1 -11    6.00    0.70
  -2   1 -11    5.70    0.70
   2  -1  11    7.00    0.70
  -3   1 -11   26.20    1.10
  -3   1 -11   29.80    1.10
  -3   1 -11   27.20    1.10
   3  -1  11   27.00    1.20
  -4   1 -11   18.50    0.90
  -4   1 -11   19.10    1.10
  -5   1 -11    1.70    0.60
  -5   1 -11    1.60    0.50
  -6   1 -11    0.50    0.50
  -6   1 -11    0.10    0.60
  -7   1 -11    3.00    0.70
  -7   1 -11    3.50    0.70
  -8   1 -11   11.90    1.40
  -9   1 -11    2.00    0.90
 -10   1 -11    1.90    1.00
 -12   0  11   56.29    2.60
 -12   0  11   55.79    2.60
  11   0 -11   50.09    2.10
 -11   0  11   46.80    2.20
 -11   0  11   44.60    2.30
  10   0 -11    1.20    0.70
 -10   0  11   -0.40    0.70
 -10   0  11    0.30    1.50
   9   0 -11    3.00    0.70
  -9   0  11    2.60    0.80
  -9   0  11    4.10    0.70
   8   0 -11   16.60    1.10
  -8   0  11   13.20    0.90
  -8   0  11   13.30    1.30
  -8   0  11   14.10    1.10
   7   0 -11    1.60    0.50
  -7   0  11    1.70    0.50
  -7   0  11    0.70    0.70
  -7   0  11    1.60    0.50
   6   0 -11   50.09    1.70
   6   0 -11   48.30    1.90
  -6   0  11   44.50    2.00
  -6   0  11   51.19    1.70
  -6   0  11   49.20    1.60
   5   0 -11   12.80    0.90
   5   0 -11   13.20    1.10
  -5   0  11   10.50    0.90
  -5   0  11   11.60    1.10
  -5   0  11   12.10    0.80
   4   0 -11    4.60    0.70
   4   0 -11    4.30    0.60
  -4   0  11    4.50    0.70
  -4   0  11    4.40    0.60
   3   0 -11   21.30    1.00
   3   0 -11   21.80    1.10
  -3   0  11   22.70    0.80
  -3   0  11   23.50    1.20
   2   0 -11  134.69    3.70
   2   0 -11  128.09    3.60
  -2   0  11  141.89    3.80
  -2   0  11  115.89    3.70
   1   0 -11   60.19    1.90
  -1   0  11   59.19    1.90
   0   0 -11   39.20    1.40
   0   0 -11   39.50    1.40
   0   0  11   39.30    1.40
  -1   0 -11   62.19    1.90
  -1   0 -11   62.49    2.00
   1   0  11   63.19    2.00
  -2   0 -11    6.60    0.70
  -2   0 -11    6.00    0.60
   2   0  11    6.70    0.70
  -3   0 -11   64.59    2.10
  -3   0 -11   66.99    2.00
  -3   0 -11   62.39    2.00
   3   0  11   68.09    2.00
  -4   0 -11    0.50    0.40
  -4   0 -11    0.10    0.50
   4   0  11    0.20    0.40
  -5   0 -11   41.50    1.50
  -5   0 -11   43.50    1.90
   5   0  11   45.60    2.10
  -6   0 -11   25.00    1.40
  -6   0 -11   23.40    1.10
  -7   0 -11    9.30    1.30
  -8   0 -11   59.79    2.40
  -9   0 -11   30.10    1.90
 -10   0 -11   22.20    1.90
  12  -1 -11   65.79    2.60
 -12   1  11   60.59    2.70
 -12   1  11   65.99    2.80
  11  -1 -11    3.70    0.90
 -11   1  11    2.00    0.90
 -11   1  11    1.40    0.90
  10  -1 -11  203.48    6.50
 -10   1  11  197.48    7.00
 -10   1  11  220.08    6.00
   9  -1 -11   21.00    1.30
  -9   1  11   21.70    1.40
  -9   1  11   21.20    1.60
   8  -1 -11    1.30    0.50
  -8   1  11    1.60    0.60
  -8   1  11    0.90    0.70
   7  -1 -11   31.00    1.60
  -7   1  11   31.60    1.30
  -7   1  11   27.50    1.40
  -7   1  11   31.30    1.60
   6  -1 -11   28.00    2.00
   6  -1 -11   28.50    1.30
  -6   1  11   30.20    1.50
  -6   1  11   30.50    1.40
   5  -1 -11  161.08    4.60
   5  -1 -11  158.98    4.50
  -5   1  11  162.48    4.40
  -5   1  11  162.88    4.60
  -5   1  11  164.18    4.40
   4  -1 -11   70.29    2.30
   4  -1 -11   68.69    2.20
  -4   1  11   72.59    2.10
  -4   1  11   73.99    2.40
  -4   1  11   69.79    2.10
   3  -1 -11   74.79    2.40
   3  -1 -11   74.49    2.30
  -3   1  11   79.39    2.50
  -3   1  11   78.29    2.20
  -3   1  11   70.49    2.40
   2  -1 -11   26.10    1.30
  -2   1  11   25.80    1.00
  -2   1  11   26.70    1.40
   1  -1 -11   35.10    1.40
   1  -1 -11   35.70    1.30
  -1   1  11   35.00    1.30
  -1   1  11   36.20    1.20
   0  -1 -11  262.77    7.00
   0  -1 -11  262.27    7.00
   0   1  11  266.47    7.00
   0   1  11  270.57    6.90
  -1  -1 -11   83.59    2.40
  -1  -1 -11   83.39    2.50
   1   1  11   83.09    2.30
   1   1  11   84.49    2.50
  -2  -1 -11   10.20    0.70
  -2  -1 -11    9.40    0.80
  -2  -1 -11   10.60    0.80
   2   1  11    8.40    0.70
  -3  -1 -11    1.00    0.40
  -3  -1 -11    0.60    0.40
  -3  -1 -11    0.60    0.50
   3   1  11    0.70    0.40
  -4  -1 -11   13.90    0.80
  -4  -1 -11   15.20    1.00
  -4  -1 -11   14.20    1.00
   4   1  11   13.50    1.00
  -5  -1 -11    0.10    0.60
  -5  -1 -11    0.00    0.40
   5   1  11    0.00    0.50
  -6  -1 -11   -0.30    0.70
   6   1  11    1.10    0.60
  -7  -1 -11   -0.80    0.80
  -8  -1 -11   23.60    1.70
  -9  -1 -11    0.20    1.00
 -10  -1 -11    7.80    1.30
  12  -2 -11    5.60    1.10
 -12   2  11    4.90    1.20
 -12   2  11    6.00    1.10
  11  -2 -11    0.10    0.90
 -11   2  11    1.60    0.90
 -11   2  11    1.30    0.90
  10  -2 -11   -0.40    0.70
 -10   2  11    0.30    0.80
 -10   2  11    1.50    0.90
   9  -2 -11   84.99    2.80
  -9   2  11   86.09    3.10
  -9   2  11   87.39    2.90
   8  -2 -11    2.90    0.60
  -8   2  11    3.00    0.70
  -8   2  11    3.00    0.70
   7  -2 -11    8.50    1.00
  -7   2  11    9.00    1.00
  -7   2  11    7.50    1.20
   6  -2 -11    8.30    0.90
  -6   2  11    8.30    1.10
  -6   2  11    9.20    0.70
  -6   2  11    9.30    0.90
   5  -2 -11  115.59    3.40
   5  -2 -11  111.59    3.30
  -5   2  11  116.39    3.50
  -5   2  11  113.39    3.20
  -5   2  11  110.99    3.30
   4  -2 -11  127.69    3.70
   4  -2 -11  127.39    3.70
  -4   2  11  129.69    3.60
  -4   2  11  130.19    3.80
  -4   2  11  128.59    3.60
   3  -2 -11   62.09    2.00
   3  -2 -11   63.79    2.10
  -3   2  11   62.49    1.90
  -3   2  11   61.89    1.90
  -3   2  11   62.29    2.20
   2  -2 -11    1.50    0.40
  -2   2  11    2.10    0.40
  -2   2  11    0.90    0.60
   1  -2 -11   66.99    2.10
   1  -2 -11   68.09    2.20
  -1   2  11   65.49    2.10
  -1   2  11   68.69    2.00
   0  -2 -11   13.30    1.00
   0  -2 -11   13.60    0.80
   0   2  11   13.90    0.80
   0   2  11   13.10    0.80
  -1  -2 -11  147.99    4.20
  -1  -2 -11  148.89    4.20
  -1  -2 -11  150.98    4.10
   1   2  11  150.08    4.00
  -2  -2 -11   99.69    3.00
  -2  -2 -11  101.69    3.00
  -2  -2 -11  100.99    2.90
   2   2  11  105.39    2.90
  -3  -2 -11    4.30    0.70
  -3  -2 -11    4.40    0.60
  -3  -2 -11    3.60    0.60
   3   2  11    5.60    0.80
  -4  -2 -11   42.00    1.70
  -4  -2 -11   41.70    1.40
   4   2  11   43.30    1.60
  -5  -2 -11    0.70    0.60
  -5  -2 -11    1.10    0.90
   5   2  11    0.00    0.50
  -6  -2 -11    5.40    0.90
   6   2  11    6.40    1.10
  -7  -2 -11   23.30    1.60
   7   2  11   22.00    1.90
  -8  -2 -11   13.70    1.50
  -9  -2 -11   15.50    1.70
 -10  -2 -11    3.80    1.20
  12  -3 -11    5.30    1.10
 -12   3  11    5.50    1.20
 -12   3  11    3.20    1.10
  11  -3 -11   20.60    1.70
 -11   3  11   22.50    1.80
 -11   3  11   20.60    1.90
  10  -3 -11    0.40    0.70
 -10   3  11    2.20    1.00
 -10   3  11    0.90    0.80
   9  -3 -11    6.90    0.90
  -9   3  11    8.70    1.40
  -9   3  11    7.20    1.20
   8  -3 -11    3.00    0.70
  -8   3  11    6.10    1.00
  -8   3  11    4.00    0.80
   7  -3 -11   17.50    1.20
  -7   3  11   19.80    1.20
  -7   3  11   19.00    1.40
   6  -3 -11   68.49    2.30
  -6   3  11   71.69    2.50
  -6   3  11   70.59    2.30
   5  -3 -11    0.70    0.50
   5  -3 -11    1.40    0.60
  -5   3  11    1.00    0.80
  -5   3  11    1.50    0.50
  -5   3  11    0.90    0.40
   4  -3 -11   58.29    2.00
   4  -3 -11   54.69    1.90
  -4   3  11   54.49    2.00
  -4   3  11   56.99    1.80
  -4   3  11   57.99    2.10
   3  -3 -11   83.39    2.60
  -3   3  11   83.09    2.50
  -3   3  11   87.89    2.70
  -3   3  11   84.59    2.50
   2  -3 -11   30.30    1.20
   2  -3 -11   31.30    1.40
  -2   3  11   31.60    1.20
  -2   3  11   29.00    1.20
   1  -3 -11    8.00    0.90
   1  -3 -11    9.20    0.70
  -1   3  11    8.90    0.70
  -1   3  11    9.30    0.70
   0  -3 -11    0.20    0.50
   0  -3 -11   -0.30    0.40
   0   3  11   -0.10    0.40
   0   3  11   -0.10    0.40
  -1  -3 -11   30.60    1.40
  -1  -3 -11   29.60    1.30
  -1  -3 -11   30.80    1.20
   1   3  11   31.30    1.20
  -2  -3 -11    1.30    0.50
  -2  -3 -11    1.30    0.50
   2   3  11    2.00    0.50
  -3  -3 -11    2.70    0.50
  -3  -3 -11    2.10    0.60
  -3  -3 -11    1.10    0.50
   3   3  11    2.00    0.50
  -4  -3 -11   36.10    1.90
  -4  -3 -11   34.50    1.70
  -4  -3 -11   35.40    1.50
   4   3  11   34.30    1.50
  -5  -3 -11    0.50    0.70
  -5  -3 -11   -0.50    0.80
   5   3  11    1.60    0.70
  -6  -3 -11  133.59    4.20
   6   3  11  127.79    3.90
  -7  -3 -11   98.59    3.20
   7   3  11   92.39    3.10
  -8  -3 -11   39.30    2.10
  -9  -3 -11    0.90    1.00
  12  -4 -11    3.30    1.00
 -12   4  11    2.40    1.00
 -12   4  11    5.10    1.10
  11  -4 -11    2.00    0.80
 -11   4  11    1.40    0.90
 -11   4  11    2.70    1.10
  10  -4 -11   -0.10    0.70
 -10   4  11    1.70    0.90
 -10   4  11    1.20    0.80
   9  -4 -11    1.80    0.70
  -9   4  11    2.50    0.80
  -9   4  11    0.40    0.70
   8  -4 -11   97.29    3.10
  -8   4  11   97.59    3.10
  -8   4  11   95.09    3.30
   7  -4 -11   -0.40    0.60
  -7   4  11    0.70    0.60
  -7   4  11    0.60    0.80
   6  -4 -11    1.90    0.60
  -6   4  11    2.40    0.60
  -6   4  11    2.70    0.70
   5  -4 -11   -0.30    0.60
   5  -4 -11   -0.20    0.50
  -5   4  11    0.40    0.50
  -5   4  11    0.70    0.70
   4  -4 -11   79.89    2.50
   4  -4 -11   80.09    3.00
  -4   4  11   79.29    2.30
  -4   4  11   83.19    2.70
  -4   4  11   79.79    2.50
   3  -4 -11    4.30    0.60
   3  -4 -11    6.50    0.80
  -3   4  11    5.40    0.80
  -3   4  11    7.50    0.80
  -3   4  11    6.10    1.20
   2  -4 -11   39.40    1.50
   2  -4 -11   42.80    1.70
  -2   4  11   41.60    1.40
   1  -4 -11   68.29    2.30
   1  -4 -11   67.19    2.10
  -1   4  11   67.29    2.10
  -1   4  11   65.89    2.30
   0  -4 -11    8.00    1.00
   0  -4 -11    7.60    0.70
   0  -4 -11    6.60    0.70
  -1  -4 -11    0.40    0.50
  -1  -4 -11   -0.20    0.40
  -1  -4 -11    0.10    0.40
   1   4  11    0.00    0.50
  -2  -4 -11   -0.40    0.40
  -2  -4 -11    0.10    0.50
  -2  -4 -11    0.30    0.50
   2   4  11    0.20    0.50
  -3  -4 -11   69.09    2.10
  -3  -4 -11   70.49    2.30
  -3  -4 -11   68.69    2.50
   3   4  11   68.49    2.30
  -4  -4 -11   71.69    2.40
  -4  -4 -11   75.59    2.90
   4   4  11   67.59    2.40
  -5  -4 -11  106.39    3.40
  -5  -4 -11  112.29    3.30
   5   4  11  108.49    3.40
  -6  -4 -11   55.09    1.90
  -6  -4 -11   50.19    2.20
   6   4  11   50.09    2.20
  -7  -4 -11   27.00    1.80
  -8  -4 -11  158.58    4.90
  -9  -4 -11    0.60    1.00
  11  -5 -11   18.10    1.60
 -11   5  11   17.00    2.00
 -11   5  11   15.70    1.80
  10  -5 -11    0.70    0.70
 -10   5  11   -0.10    0.90
 -10   5  11   -0.20    0.80
   9  -5 -11    1.90    0.70
  -9   5  11    0.60    1.10
  -9   5  11   -0.10    1.10
  -8   5  11   20.20    1.70
  -8   5  11   19.10    1.40
   7  -5 -11    0.00    0.80
  -7   5  11   -0.50    0.70
  -7   5  11    0.00    0.60
   6  -5 -11   58.19    2.20
  -6   5  11   56.49    2.10
  -6   5  11   55.29    2.30
   5  -5 -11   46.40    2.00
  -5   5  11   48.90    2.00
  -5   5  11   47.10    1.80
   4  -5 -11   29.40    1.60
   4  -5 -11   29.40    1.30
  -4   5  11   30.60    1.40
  -4   5  11   27.80    2.00
   3  -5 -11    1.00    0.50
   3  -5 -11    1.90    0.60
  -3   5  11    0.80    0.50
   2  -5 -11   52.79    1.80
   2  -5 -11   53.09    2.00
  -2   5  11   53.39    1.70
  -2   5  11   55.79    1.90
   1  -5 -11   -0.50    0.40
   1  -5 -11    0.60    0.50
  -1   5  11    0.10    0.40
  -1   5  11   -0.60    0.50
   0  -5 -11    7.60    0.80
   0  -5 -11    6.00    0.80
   0  -5 -11    7.20    1.00
   0   5  11    7.10    0.90
  -1  -5 -11    4.50    0.50
  -1  -5 -11    4.10    0.70
  -1  -5 -11    4.90    0.80
   1   5  11    4.70    0.70
  -2  -5 -11   19.80    1.00
  -2  -5 -11   19.00    1.30
  -2  -5 -11   19.60    1.20
   2   5  11   20.40    1.20
  -3  -5 -11    4.40    0.80
  -3  -5 -11    5.60    0.80
   3   5  11    5.80    0.80
  -4  -5 -11  100.49    3.50
  -4  -5 -11  109.29    3.40
   4   5  11  103.99    3.30
  -5  -5 -11   47.80    2.70
  -5  -5 -11   53.19    2.20
   5   5  11   47.00    2.10
  -6  -5 -11   58.59    2.10
  -6  -5 -11   55.79    2.30
   6   5  11   51.39    2.30
  -7  -5 -11    0.50    0.90
   7   5  11    1.30    1.00
  -8  -5 -11    2.20    1.00
  11  -6 -11    1.00    1.00
 -11   6  11   -0.70    1.00
 -11   6  11   -0.10    1.00
  10  -6 -11    4.50    0.90
 -10   6  11    5.40    1.10
 -10   6  11    3.60    1.10
   9  -6 -11   -0.30    0.70
  -9   6  11   -0.60    0.90
  -9   6  11   -0.50    0.80
   8  -6 -11    0.10    0.60
  -8   6  11    0.60    0.80
  -8   6  11    1.10    0.90
   7  -6 -11    0.10    0.60
  -7   6  11    1.60    0.80
  -7   6  11   -0.70    0.60
   6  -6 -11   50.79    2.00
  -6   6  11   53.89    2.30
  -6   6  11   53.49    2.10
   5  -6 -11    1.10    0.60
  -5   6  11    0.70    0.60
  -5   6  11   -0.10    0.80
   4  -6 -11    8.70    1.00
   4  -6 -11   10.50    1.40
  -4   6  11   11.60    1.10
   3  -6 -11  107.19    3.40
   3  -6 -11  108.39    3.20
  -3   6  11  108.89    3.30
   2  -6 -11    1.40    0.60
   2  -6 -11    1.30    0.50
  -2   6  11    1.40    0.60
  -2   6  11    1.50    0.50
   1  -6 -11    1.60    0.50
   1  -6 -11    1.70    0.70
  -1   6  11    0.40    0.60
  -1   6  11    1.90    0.50
   0  -6 -11   20.80    1.10
   0  -6 -11   22.60    1.10
   0  -6 -11   22.00    1.40
   0   6  11   21.00    1.20
  -1  -6 -11    3.60    0.80
  -1  -6 -11    5.00    0.70
  -1  -6 -11    2.90    0.60
   1   6  11    4.80    0.70
  -2  -6 -11   71.89    2.50
  -2  -6 -11   72.89    2.40
   2   6  11   70.09    2.50
  -3  -6 -11   35.90    1.60
  -3  -6 -11   35.60    1.80
   3   6  11   34.20    1.70
  -4  -6 -11    4.60    0.80
   4   6  11    3.70    0.90
  -5  -6 -11   -0.10    0.70
  -5  -6 -11    0.50    0.70
   5   6  11   -1.00    0.80
  -6  -6 -11    0.30    0.80
  -6  -6 -11    1.50    0.70
   6   6  11   -1.60    0.90
  -7  -6 -11    8.30    1.20
   7   6  11    9.30    1.30
  -8  -6 -11   10.60    1.40
  11  -7 -11    4.70    1.60
 -11   7  11    3.10    1.30
 -11   7  11    3.40    1.20
  10  -7 -11   33.00    1.90
 -10   7  11   31.40    2.30
 -10   7  11   33.60    2.00
   9  -7 -11   30.40    1.70
  -9   7  11   27.40    2.20
  -9   7  11   28.50    1.90
   8  -7 -11   32.40    1.70
  -8   7  11   34.40    2.20
  -8   7  11   35.80    1.90
   7  -7 -11   12.80    1.20
  -7   7  11   11.40    1.70
  -7   7  11   13.10    1.30
   6  -7 -11    2.30    0.60
  -6   7  11    3.10    0.90
  -6   7  11    3.90    0.80
   5  -7 -11    1.60    0.60
  -5   7  11    1.00    0.90
  -5   7  11    0.60    0.70
   4  -7 -11   -0.60    0.50
  -4   7  11    0.30    0.60
   3  -7 -11    7.50    0.90
   3  -7 -11    7.60    1.00
  -3   7  11    8.30    1.10
   2  -7 -11   22.90    1.50
   2  -7 -11   20.60    1.20
  -2   7  11   20.00    1.30
  -2   7  11   23.10    1.40
   1  -7 -11    9.00    1.00
   1  -7 -11   10.20    1.30
  -1   7  11    6.60    1.10
  -1   7  11   11.80    0.90
   0  -7 -11   10.10    0.90
   0  -7 -11    8.50    1.40
   0  -7 -11   13.00    1.00
   0   7  11   11.00    1.10
  -1  -7 -11   20.80    1.50
  -1  -7 -11   19.30    1.20
   1   7  11   20.60    1.40
  -2  -7 -11    2.90    0.70
  -2  -7 -11    3.60    0.80
   2   7  11    3.70    0.80
  -3  -7 -11   10.20    1.70
  -3  -7 -11    9.00    1.10
   3   7  11    9.50    1.30
  -4  -7 -11    5.60    0.90
  -4  -7 -11    5.50    0.90
   4   7  11    5.10    1.10
  -5  -7 -11   28.40    1.90
  -5  -7 -11   29.80    1.70
   5   7  11   25.30    1.80
  -6  -7 -11    2.40    0.90
  -6  -7 -11    2.60    0.80
   6   7  11    1.80    1.10
  -7  -7 -11    8.60    1.20
   7   7  11    5.00    1.30
  10  -8 -11  291.67    7.90
 -10   8  11  279.37    8.10
 -10   8  11  277.37    8.10
   9  -8 -11    5.90    1.00
  -9   8  11    5.90    1.20
  -9   8  11    6.00    1.20
   8  -8 -11  172.68    5.10
  -8   8  11  170.08    5.20
  -8   8  11  177.38    5.40
   7  -8 -11   16.90    1.40
  -7   8  11   12.20    2.30
  -7   8  11   17.10    1.60
   6  -8 -11  104.59    3.30
  -6   8  11  100.59    3.60
   5  -8 -11    3.10    0.90
  -5   8  11    2.00    0.80
   4  -8 -11   -0.30    0.60
  -4   8  11    0.20    0.70
   3  -8 -11   19.70    1.30
  -3   8  11   21.90    1.40
   2  -8 -11    7.90    1.00
   2  -8 -11    6.30    0.90
  -2   8  11   10.10    1.20
   1  -8 -11   12.80    1.10
   1  -8 -11   13.50    1.60
  -1   8  11    9.80    1.20
   0  -8 -11  113.59    3.50
   0  -8 -11  114.79    3.70
   0  -8 -11  115.59    3.40
   0   8  11  113.19    3.60
  -1  -8 -11    7.50    1.10
  -1  -8 -11    8.40    1.10
   1   8  11    7.10    1.30
  -2  -8 -11   82.49    3.00
  -2  -8 -11   81.59    2.70
   2   8  11   76.99    2.90
  -3  -8 -11   33.60    2.00
  -3  -8 -11   34.20    1.70
   3   8  11   33.80    1.90
  -4  -8 -11   17.60    1.50
  -4  -8 -11   21.70    1.90
   4   8  11   19.00    1.80
  -5  -8 -11    7.40    1.10
  -5  -8 -11    7.40    1.10
   5   8  11    5.00    1.20
  -6  -8 -11    2.90    1.10
  -6  -8 -11    2.50    1.00
   6   8  11    1.30    1.20
   9  -9 -11    0.10    0.90
  -9   9  11   -1.20    1.10
  -9   9  11    0.10    1.10
   8  -9 -11   37.40    2.00
  -8   9  11   31.60    2.10
  -8   9  11   37.40    2.60
   7  -9 -11    2.10    0.80
  -7   9  11    1.70    1.00
  -7   9  11    1.60    1.10
   6  -9 -11   10.90    1.30
  -6   9  11   12.80    1.60
   5  -9 -11    1.90    0.80
  -5   9  11    1.70    0.90
   4  -9 -11   34.40    1.80
  -4   9  11   37.10    2.10
   3  -9 -11   23.70    1.40
  -3   9  11   23.60    2.00
   2  -9 -11   70.29    2.80
   2  -9 -11   70.29    2.40
  -2   9  11   70.79    2.70
   1  -9 -11   -1.60    0.90
   1  -9 -11    0.50    0.70
  -1   9  11   -0.70    0.80
   0  -9 -11    4.30    1.00
   0   9  11    4.20    1.60
  -1  -9 -11   11.90    1.70
  -1  -9 -11   12.40    1.20
   1   9  11    9.20    1.40
  -2  -9 -11   36.30    2.10
  -2  -9 -11   33.40    1.70
   2   9  11   33.90    2.00
  -3  -9 -11    1.10    0.80
  -3  -9 -11   -0.10    1.00
   3   9  11   -0.30    1.00
  -4  -9 -11  106.99    3.50
  -4  -9 -11  108.79    3.70
   4   9  11   98.39    3.70
  -5  -9 -11   -0.20    0.90
  -5  -9 -11    0.20    1.00
   5   9  11   -2.00    1.20
   8 -10 -11    9.90    1.50
  -8  10  11    7.10    1.30
  -8  10  11    6.50    1.40
   7 -10 -11    8.40    1.00
  -7  10  11    9.30    1.30
   6 -10 -11   15.20    1.50
  -6  10  11   15.00    2.10
   5 -10 -11   15.00    1.50
  -5  10  11   17.90    1.70
   4 -10 -11   45.70    2.00
  -4  10  11   42.90    2.20
   3 -10 -11   10.00    1.30
  -3  10  11    9.70    1.50
   2 -10 -11    4.40    1.10
  -2  10  11    4.80    1.00
   1 -10 -11    1.70    1.10
  -1  10  11    1.50    0.90
   0 -10 -11    2.80    1.20
   0  10  11    4.20    1.00
  -1 -10 -11    6.60    1.20
   1  10  11    6.80    1.10
  -2 -10 -11   -0.30    1.10
  -2 -10 -11    0.70    1.30
   2  10  11   -0.40    1.00
  -3 -10 -11   27.70    2.40
  -3 -10 -11   25.50    1.80
   3  10  11   27.90    2.10
  -4 -10 -11    7.10    1.30
   4  10  11    5.70    1.30
   7 -11 -11    1.10    0.90
  -7  11  11   -0.80    1.10
   6 -11 -11    0.00    0.80
  -6  11  11   -0.70    1.00
   5 -11 -11    2.70    1.00
  -5  11  11    2.10    1.10
   4 -11 -11  121.39    3.80
  -4  11  11  122.29    4.10
  -3  11  11    1.40    1.20
  -2  11  11   12.60    1.70
  -1  11  11    0.90    1.00
   0  11  11   13.00    1.70
  -1 -11 -11   80.59    3.30
   1  11  11   73.99    3.00
  -2 -11 -11    2.90    1.20
   2  11  11    0.70    1.20
  -4  12  11   29.30    2.50
  -3  12  11   42.50    2.60
  -2  12  11   -1.30    1.10
  -1  12  11   -0.50    1.10
   0  12  11   45.40    2.60
   2  15 -12    4.70    1.40
  -2 -15  12    7.20    1.20
   1  15 -12   -2.40    1.20
  -1 -15  12    1.20    1.10
   0  15 -12    9.90    1.20
   0 -15  12   14.50    1.90
  -1  15 -12   -0.80    1.10
  -1  15 -12    0.20    1.00
  -2  15 -12    4.20    1.10
  -2  15 -12    4.00    1.10
  -3  15 -12   11.20    1.40
  -4 -14  12    4.20    1.10
   3  14 -12   18.70    2.50
  -3 -14  12   12.60    1.70
   2  14 -12    6.90    1.40
  -2 -14  12    5.40    1.10
   1  14 -12    5.80    1.10
   1  14 -12    5.60    1.40
  -1 -14  12    5.50    1.10
   0  14 -12    6.00    1.10
   0  14 -12    7.60    1.00
   0 -14  12    4.00    1.10
  -1  14 -12   13.40    1.50
  -1  14 -12   12.10    1.80
   1 -14  12   12.80    1.60
  -2  14 -12    6.30    1.00
  -2  14 -12    6.20    1.00
  -3  14 -12    6.60    1.00
  -3  14 -12    5.90    1.00
  -4  14 -12    2.50    0.90
  -4  14 -12    1.80    0.90
  -5  14 -12    1.30    1.10
  -6 -13  12    1.40    1.00
  -5 -13  12    0.40    1.00
  -4 -13  12   25.70    1.90
   3  13 -12   16.30    2.20
  -3 -13  12   16.00    1.70
   2  13 -12   37.20    2.40
   2  13 -12   38.90    1.90
  -2 -13  12   39.50    2.00
   1  13 -12    3.30    0.80
   1  13 -12    0.80    1.00
  -1 -13  12    3.40    1.00
   0  13 -12    9.90    1.20
   0  13 -12    8.80    1.30
   0 -13  12   10.40    1.40
  -1  13 -12    0.40    0.90
  -1  13 -12    1.90    0.90
   1 -13  12    1.70    0.90
  -2  13 -12    1.60    0.90
  -2  13 -12    1.40    0.80
   2 -13  12    2.30    0.90
  -3  13 -12    4.30    0.80
  -3  13 -12    4.50    1.00
  -4  13 -12    5.30    1.00
  -4  13 -12    4.40    0.80
  -5  13 -12   -0.20    1.00
  -6  13 -12   -0.40    1.00
  -7 -12  12    7.70    1.30
  -6 -12  12   -0.40    1.00
  -5 -12  12   16.60    1.70
   4  12 -12    1.30    1.20
  -4 -12  12    0.70    0.90
   3  12 -12    5.80    0.90
   3  12 -12    5.70    1.40
  -3 -12  12    4.10    1.00
   2  12 -12    3.00    0.80
   2  12 -12    0.90    1.20
  -2 -12  12    2.00    0.90
   1  12 -12   63.59    2.70
   1  12 -12   62.69    2.40
  -1 -12  12   61.29    2.40
   0  12 -12   50.79    2.70
   0  12 -12   56.49    2.40
   0 -12  12   53.59    2.60
  -1  12 -12   27.90    1.60
  -1  12 -12   25.60    1.90
   1 -12  12   25.10    2.50
  -2  12 -12  144.69    4.30
  -2  12 -12  145.99    4.40
   2 -12  12  146.59    4.80
  -3  12 -12  132.69    3.90
  -3  12 -12  130.29    3.80
   3 -12  12  107.29    4.70
  -4  12 -12   63.39    2.30
  -4  12 -12   61.79    2.50
  -5  12 -12   24.50    1.80
  -6  12 -12    2.00    1.00
  -7  12 -12    2.10    1.20
  -8 -11  12   -1.90    1.00
  -7 -11  12   -1.30    0.90
  -6 -11  12    2.40    1.00
  -5 -11  12    6.10    1.00
   4  11 -12   22.60    2.10
   4  11 -12   24.90    2.20
  -4 -11  12   21.00    1.60
   3  11 -12    3.70    1.00
   3  11 -12    4.30    0.80
  -3 -11  12    4.00    0.90
   2  11 -12   58.09    2.10
   2  11 -12   57.09    2.60
  -2 -11  12   56.19    2.30
   1  11 -12    2.30    0.70
   1  11 -12    1.40    0.80
  -1 -11  12    1.80    0.80
   0  11 -12   15.40    1.30
   0  11 -12   16.10    1.60
   0 -11  12   14.50    1.40
  -1  11 -12   15.10    1.30
  -1  11 -12   14.70    1.50
   1 -11  12   11.90    1.30
  -2  11 -12   14.90    1.40
   2 -11  12   12.10    1.30
  -3  11 -12   12.00    1.30
  -3  11 -12   14.50    1.40
   3 -11  12   12.60    1.30
  -4  11 -12   44.50    2.00
   4 -11  12   41.40    1.90
  -5  11 -12   38.70    2.00
  -6  11 -12   19.20    1.60
  -7  11 -12    7.30    1.10
  -8  11 -12   -1.20    1.10
  -9 -10  12   -1.20    1.00
  -8 -10  12    1.50    0.90
  -7 -10  12    2.20    1.00
  -6 -10  12   14.40    1.50
  -5 -10  12   -0.30    0.80
   4  10 -12    0.20    0.60
   4  10 -12    2.50    1.00
  -4 -10  12    1.00    0.90
   3  10 -12    1.50    0.60
  -3 -10  12    3.30    0.80
   2  10 -12   27.50    1.70
   2  10 -12   23.70    1.40
  -2 -10  12   24.50    1.50
   1  10 -12   33.90    1.70
   1  10 -12   31.10    1.50
   1  10 -12   31.40    1.90
  -1 -10  12   30.20    1.60
   0  10 -12  130.29    3.90
   0  10 -12  122.79    3.70
   0 -10  12  123.59    3.80
  -1  10 -12    3.20    0.80
  -1  10 -12    3.50    0.70
   1 -10  12    2.60    0.80
  -2  10 -12    1.30    0.70
  -2  10 -12    1.30    0.60
   2 -10  12    0.80    0.70
  -3  10 -12   29.60    1.40
  -3  10 -12   27.30    1.50
   3 -10  12   28.00    1.50
  -4  10 -12    1.60    0.80
   4 -10  12   -0.60    0.70
  -5  10 -12    0.10    0.80
   5 -10  12   -1.20    0.70
  -6  10 -12    0.40    0.90
  -7  10 -12    9.80    1.50
  -8  10 -12   19.30    1.80
  -9  -9  12   -0.30    0.90
  -8  -9  12   -0.80    0.80
  -7  -9  12    8.60    1.40
  -6  -9  12   16.20    1.50
   5   9 -12    7.40    1.00
   5   9 -12    8.30    1.10
  -5  -9  12    8.70    1.20
   4   9 -12   10.80    1.40
   4   9 -12    9.90    1.00
  -4  -9  12   12.60    1.20
   3   9 -12   22.10    1.50
   3   9 -12   19.80    1.20
  -3  -9  12   20.10    1.50
   2   9 -12   52.39    1.90
   2   9 -12   53.39    2.10
  -2  -9  12   53.19    2.40
   1   9 -12   22.60    1.20
   1   9 -12   22.60    1.40
  -1  -9  12   22.30    1.40
   0   9 -12    0.30    0.60
   0   9 -12    0.10    0.60
   0  -9  12   -0.40    0.60
  -2   9 -12    2.50    0.90
  -3   9 -12   19.70    1.40
  -3   9 -12   20.50    1.30
   3  -9  12   19.50    1.30
  -4   9 -12   16.70    1.20
   4  -9  12   14.30    1.30
  -5   9 -12   15.70    1.90
   5  -9  12   15.70    1.30
  -6   9 -12    1.70    0.80
   6  -9  12    0.40    0.80
  -7   9 -12    1.80    0.80
  -8   9 -12   -0.50    0.90
   9  -9  12   -0.80    0.90
 -10  -8  12    7.70    1.40
 -10  -8  12    6.70    1.20
  -9  -8  12    0.80    0.80
  -8  -8  12   20.20    1.60
  -7  -8  12   -0.50    0.80
   6   8 -12   18.80    1.20
  -6  -8  12   17.30    1.50
   5   8 -12    5.60    0.70
   5   8 -12    5.20    0.90
  -5  -8  12    5.30    0.80
   4   8 -12    0.60    0.50
   4   8 -12    0.20    0.70
  -4  -8  12    0.70    0.60
   3   8 -12   50.09    2.00
   3   8 -12   51.39    1.80
  -3  -8  12   48.50    2.10
   2   8 -12   61.59    2.20
   2   8 -12   61.39    2.10
  -2  -8  12   62.49    2.20
   1   8 -12   11.60    1.10
   1   8 -12   12.30    1.00
  -1  -8  12   11.80    1.10
   0   8 -12   -0.40    0.50
   0   8 -12    0.20    0.50
   0  -8  12    0.20    0.50
  -1   8 -12   33.60    1.50
  -1   8 -12   33.80    1.50
   1  -8  12   34.10    1.50
  -2   8 -12   26.00    1.40
   2  -8  12   25.60    1.40
  -3   8 -12    2.20    0.80
   3  -8  12    2.80    0.70
  -4   8 -12    1.90    0.70
   4  -8  12    1.30    0.70
  -5   8 -12   20.20    1.30
   5  -8  12   19.20    1.40
  -6   8 -12   65.09    2.70
   6  -8  12   68.09    2.40
  -7   8 -12    3.40    0.80
   7  -8  12    1.00    0.80
  -8   8 -12    0.30    0.80
  -9   8 -12   -0.90    0.90
 -11  -7  12    8.20    1.20
 -10  -7  12    1.90    1.10
 -10  -7  12   -1.30    0.90
  -9  -7  12    0.90    1.10
  -9  -7  12   -0.20    0.80
  -8  -7  12   31.00    2.20
  -8  -7  12   31.10    1.70
   7   7 -12   46.20    1.80
  -7  -7  12   44.80    1.90
   6   7 -12    5.40    0.70
  -6  -7  12    5.40    0.80
   5   7 -12   19.60    1.60
   5   7 -12   23.40    1.20
  -5  -7  12   21.00    1.30
   4   7 -12  146.79    4.10
   4   7 -12  144.49    4.30
  -4  -7  12  140.89    4.20
   3   7 -12    2.40    0.60
   3   7 -12    2.00    0.50
  -3  -7  12    1.10    0.60
   2   7 -12  120.89    3.60
   2   7 -12  121.89    3.50
  -2  -7  12  117.29    3.60
   1   7 -12    2.70    0.60
   1   7 -12    1.50    0.50
  -1  -7  12    1.30    0.50
   0   7 -12    5.90    0.80
   0   7 -12    5.20    0.90
   0  -7  12    6.00    0.90
  -1   7 -12    5.60    0.80
  -1   7 -12    5.30    0.80
   1  -7  12    4.10    0.70
  -2   7 -12   28.50    1.20
  -2   7 -12   28.20    1.30
   2  -7  12   27.50    1.40
  -3   7 -12    9.70    1.10
  -3   7 -12   11.60    0.90
   3  -7  12    9.50    1.00
  -4   7 -12    7.60    1.00
   4  -7  12    7.40    1.10
  -5   7 -12   37.50    2.00
   5  -7  12   37.60    1.70
  -6   7 -12   10.10    1.20
   6  -7  12   10.60    1.20
  -7   7 -12   14.40    1.30
   7  -7  12   13.80    1.30
  -8   7 -12   36.20    1.80
   8  -7  12   35.30    1.80
  -9   7 -12   -0.90    0.90
 -11  -6  12   23.40    1.90
 -11  -6  12   30.60    2.40
 -10  -6  12    0.80    0.90
 -10  -6  12   -1.40    1.00
  -9  -6  12    1.30    0.70
  -8  -6  12   17.30    1.60
  -8  -6  12   16.00    1.40
   7   6 -12    6.50    1.00
  -7  -6  12    6.00    0.80
  -7  -6  12    6.80    1.00
   6   6 -12   96.59    2.90
  -6  -6  12   95.39    3.00
   5   6 -12   32.10    1.40
   5   6 -12   34.10    1.70
  -5  -6  12   32.80    1.50
   4   6 -12    6.20    0.80
   4   6 -12    7.80    1.00
  -4  -6  12    4.80    0.70
   3   6 -12    0.20    0.50
   3   6 -12    0.40    0.50
  -3  -6  12    0.10    0.50
   2   6 -12  171.48    4.80
   2   6 -12  170.28    4.80
  -2  -6  12  176.58    4.90
   1   6 -12   10.90    0.90
   1   6 -12   10.20    1.00
  -1  -6  12    9.90    0.90
   0   6 -12  235.88    6.30
   0   6 -12  231.68    6.30
   0  -6  12  236.98    6.40
  -1   6 -12    0.30    0.40
  -1   6 -12    0.10    0.40
   1  -6  12   -0.50    0.50
  -2   6 -12    1.30    0.40
  -2   6 -12    1.20    0.50
   2  -6  12    1.80    0.60
  -3   6 -12    0.80    0.40
  -3   6 -12    1.40    0.50
   3  -6  12    1.10    0.60
  -4   6 -12    0.90    0.50
   4  -6  12    1.10    0.60
  -5   6 -12   20.30    1.20
   5  -6  12   20.30    1.30
  -6   6 -12    9.60    1.10
   6  -6  12    8.90    1.10
  -7   6 -12    0.60    0.70
   7  -6  12   -0.30    0.70
  -8   6 -12    0.80    0.80
   8  -6  12   -0.20    0.70
  -9   6 -12    7.30    1.00
   9  -6  12    7.60    1.30
 -11  -5  12   -0.20    1.00
 -11  -5  12   -1.20    1.00
 -10  -5  12    8.90    1.20
 -10  -5  12    9.70    1.30
  -9  -5  12    2.40    0.90
  -9  -5  12    4.00    1.10
   8   5 -12   16.10    1.20
  -8  -5  12   14.20    1.60
  -8  -5  12   16.10    1.30
   7   5 -12    6.00    0.90
  -7  -5  12    4.20    0.70
  -7  -5  12    4.60    0.80
   6   5 -12   12.80    1.40
   6   5 -12   14.10    1.00
  -6  -5  12   13.00    1.10
  -6  -5  12   13.40    1.40
   5   5 -12    0.90    0.70
   5   5 -12    0.90    0.50
  -5  -5  12    0.40    0.60
   4   5 -12    0.40    0.50
   4   5 -12   -0.70    0.40
  -4  -5  12    0.40    0.50
   3   5 -12    5.90    0.80
   3   5 -12    7.40    0.90
  -3  -5  12    8.10    0.90
   2   5 -12   25.10    1.20
   2   5 -12   25.90    1.30
  -2  -5  12   26.30    1.20
   1   5 -12   69.99    2.20
   1   5 -12   70.79    2.30
  -1  -5  12   70.59    2.30
   0   5 -12   18.90    1.00
   0   5 -12   20.60    1.10
   0  -5  12   20.20    1.10
  -1   5 -12    6.10    0.80
  -1   5 -12    6.20    0.80
   1  -5  12    5.90    0.90
  -2   5 -12   94.69    2.90
  -2   5 -12   96.49    2.80
   2  -5  12   95.09    2.90
  -3   5 -12   13.60    0.90
  -3   5 -12   12.30    1.00
   3  -5  12   13.60    1.00
  -4   5 -12   47.30    1.80
   4  -5  12   47.60    1.80
  -5   5 -12   90.59    2.80
   5  -5  12   91.69    2.90
  -6   5 -12    3.10    0.70
   6  -5  12    1.40    0.70
  -7   5 -12    0.70    0.60
   7  -5  12    0.70    0.70
  -8   5 -12   17.60    1.50
   8  -5  12   21.50    1.50
  -9   5 -12    2.00    1.00
   9  -5  12    4.00    1.00
 -11  -4  12    0.70    0.90
 -10  -4  12   10.10    1.30
 -10  -4  12    9.80    1.70
   9   4 -12   28.20    1.50
  -9  -4  12   27.20    1.90
  -9  -4  12   28.00    1.90
   8   4 -12  130.39    3.80
  -8  -4  12  128.99    3.80
  -8  -4  12  128.09    4.10
   7   4 -12    0.20    0.50
  -7  -4  12    0.90    0.70
  -7  -4  12    0.80    0.60
   6   4 -12   62.29    2.10
  -6  -4  12   59.69    2.30
  -6  -4  12   62.39    2.10
   5   4 -12   -0.20    0.50
   5   4 -12    0.30    0.50
  -5  -4  12    0.20    0.60
  -5  -4  12    0.80    0.50
   4   4 -12    0.20    0.50
   4   4 -12   -0.50    0.50
  -4  -4  12    0.00    0.40
   3   4 -12   31.40    1.40
   3   4 -12   31.80    1.30
  -3  -4  12   32.60    1.30
   2   4 -12    2.10    0.40
   2   4 -12    2.50    0.50
  -2  -4  12    2.50    0.50
   1   4 -12    3.60    0.50
   1   4 -12    3.70    0.50
  -1  -4  12    3.70    0.60
   0   4 -12    0.50    0.40
   0   4 -12    0.20    0.40
   0  -4  12    0.30    0.50
  -1   4 -12   11.90    0.90
  -1   4 -12   12.60    0.90
   1  -4  12   12.70    0.90
  -2   4 -12  136.29    3.90
  -2   4 -12  141.59    3.80
   2  -4  12  140.39    4.00
  -3   4 -12    8.50    0.90
  -3   4 -12    8.90    0.90
   3  -4  12    9.30    1.00
  -4   4 -12  409.36   10.90
   4  -4  12  422.76   11.00
  -5   4 -12   16.30    1.10
   5  -4  12   14.40    1.20
  -6   4 -12   14.50    1.10
   6  -4  12   13.10    1.30
  -7   4 -12    1.80    0.70
   7  -4  12    1.70    0.80
  -8   4 -12   14.40    1.30
   8  -4  12   16.10    1.50
   9  -4  12   28.00    1.90
  10  -4  12    8.60    1.20
 -12  -3  12   -1.70    0.90
 -11  -3  12    2.20    1.00
  10   3 -12   -0.50    1.00
 -10  -3  12    0.80    0.90
 -10  -3  12    0.90    0.80
   9   3 -12    0.10    0.60
  -9  -3  12    0.50    0.70
  -9  -3  12   -1.30    0.80
   8   3 -12    9.90    1.00
  -8  -3  12    8.60    1.10
  -8  -3  12    8.50    1.10
   7   3 -12    0.50    0.50
  -7  -3  12    0.30    0.70
  -7  -3  12    0.00    0.50
   6   3 -12   47.50    2.00
   6   3 -12   46.70    1.70
  -6  -3  12   44.20    1.90
  -6  -3  12   47.60    1.70
   5   3 -12    0.00    0.40
  -5  -3  12    0.50    0.50
  -5  -3  12   -0.40    0.50
   4   3 -12   76.09    2.40
   4   3 -12   73.69    2.80
  -4  -3  12   79.09    2.70
  -4  -3  12   75.79    2.40
   3   3 -12   34.20    1.50
   3   3 -12   34.10    1.30
  -3  -3  12   34.50    1.40
   2   3 -12   70.49    2.30
   2   3 -12   70.39    2.20
  -2  -3  12   69.09    2.20
   1   3 -12   51.59    1.80
   1   3 -12   51.39    1.70
  -1  -3  12   52.89    1.80
   0   3 -12    7.10    0.70
   0   3 -12    7.30    0.80
   0  -3  12    8.40    0.80
  -1   3 -12    6.40    0.80
  -1   3 -12    3.80    0.50
   1  -3  12    6.00    0.80
  -2   3 -12   95.89    2.70
  -2   3 -12   92.59    2.80
   2  -3  12   95.99    2.90
  -3   3 -12   93.09    2.60
  -3   3 -12   93.79    2.60
  -3   3 -12   87.39    2.70
   3  -3  12   89.89    2.80
  -4   3 -12  231.58    6.30
   4  -3  12  239.78    6.50
  -5   3 -12  158.28    4.40
   5  -3  12  157.48    4.60
  -6   3 -12  131.09    3.80
   6  -3  12  136.39    4.00
  -7   3 -12    1.30    0.60
   7  -3  12   -0.50    0.70
   8  -3  12    1.60    0.80
   9  -3  12   21.90    1.80
  10  -3  12   -1.50    1.00
 -12  -2  12    0.80    1.10
 -11  -2  12   -1.10    1.00
  10   2 -12    9.40    1.40
 -10  -2  12    9.70    1.10
   9   2 -12   32.30    1.60
   9   2 -12   36.50    2.00
  -9  -2  12   33.00    1.50
  -9  -2  12   30.10    1.90
   8   2 -12  143.29    4.20
  -8  -2  12  145.09    4.40
  -8  -2  12  145.39    4.10
   7   2 -12   -0.60    0.50
  -7  -2  12    0.30    0.60
  -7  -2  12    0.10    0.50
   6   2 -12    0.40    0.50
   6   2 -12    0.80    0.70
  -6  -2  12    0.70    0.50
  -6  -2  12    1.20    0.70
   5   2 -12   15.70    1.00
   5   2 -12   15.90    1.20
  -5  -2  12   16.10    1.00
  -5  -2  12   15.20    1.30
   4   2 -12   32.60    1.30
  -4  -2  12   34.90    1.60
  -4  -2  12   35.60    1.40
   3   2 -12  142.29    4.10
   3   2 -12  142.99    4.00
  -3  -2  12  145.19    4.00
   2   2 -12   23.00    1.20
   2   2 -12   20.80    1.00
  -2  -2  12   24.70    1.10
   1   2 -12   16.60    0.90
   1   2 -12   17.20    1.00
  -1  -2  12   19.80    1.00
   0   2 -12   60.29    2.00
   0   2 -12   58.99    1.90
   0  -2  12   59.39    2.00
  -1   2 -12   37.60    1.40
  -1   2 -12   33.20    1.40
   1  -2  12   38.90    1.40
  -2   2 -12    2.70    0.50
  -2   2 -12    1.50    0.50
   2  -2  12    2.50    0.50
  -3   2 -12   -0.40    0.40
  -3   2 -12    0.40    0.50
  -3   2 -12    0.20    0.40
   3  -2  12   -0.40    0.50
  -4   2 -12    9.90    0.90
   4  -2  12   10.70    1.00
  -5   2 -12    9.50    0.90
   5  -2  12    6.70    1.10
  -6   2 -12    6.00    0.90
   6  -2  12    4.80    1.00
  -7   2 -12    1.40    0.60
   7  -2  12   -0.80    0.70
   8  -2  12   18.90    1.50
   9  -2  12    1.60    0.90
  10  -2  12    2.50    1.10
 -12  -1  12   12.50    1.90
  11   1 -12    2.20    1.00
 -11  -1  12    2.90    1.10
  10   1 -12   64.69    2.60
 -10  -1  12   64.99    2.70
 -10  -1  12   65.99    2.70
   9   1 -12   12.50    1.20
  -9  -1  12   12.20    1.60
  -9  -1  12   12.90    1.20
  -8  -1  12   15.20    1.10
  -8  -1  12   15.60    1.50
  -8  -1  12   14.70    1.10
   7   1 -12    9.10    0.90
  -7  -1  12   10.10    0.90
  -7  -1  12   10.00    0.90
  -7  -1  12   10.90    1.30
   6   1 -12    3.90    0.60
   6   1 -12    5.50    0.80
  -6  -1  12    5.00    0.80
  -6  -1  12    4.10    0.60
  -6  -1  12    4.40    0.70
   5   1 -12   18.80    1.00
   5   1 -12   19.30    1.30
  -5  -1  12   20.30    1.00
  -5  -1  12   18.60    1.30
   4   1 -12    7.60    0.80
  -4  -1  12    8.80    0.80
  -4  -1  12    9.80    1.10
   3   1 -12    1.80    0.60
   2   1 -12   11.10    0.80
   2   1 -12   10.10    0.90
  -2  -1  12   11.80    0.80
   1   1 -12   -0.10    0.40
   1   1 -12    0.20    0.40
  -1  -1  12    0.20    0.40
   0   1 -12  219.58    5.90
   0   1 -12  217.18    5.90
   0  -1  12  220.98    5.90
  -1   1 -12    1.10    0.40
  -1   1 -12    0.40    0.40
   1  -1  12    1.00    0.50
  -2   1 -12    2.30    0.50
  -2   1 -12    2.10    0.50
   2  -1  12    2.50    0.50
  -3   1 -12    5.50    0.80
  -3   1 -12    6.50    0.80
   3  -1  12    4.70    0.60
  -4   1 -12    6.70    0.80
   4  -1  12    6.90    0.90
  -5   1 -12    2.80    0.60
   5  -1  12    1.70    0.60
  -6   1 -12    1.20    0.50
  -8   1 -12    6.80    1.10
   9  -1  12   -1.40    0.80
  10  -1  12   10.00    1.30
 -12   0  12  118.09    4.10
  11   0 -12   69.89    2.60
 -11   0  12   68.69    3.00
 -11   0  12   71.79    3.00
  10   0 -12   19.50    1.40
 -10   0  12   19.00    1.90
 -10   0  12   15.10    1.50
   9   0 -12   29.80    1.60
  -9   0  12   27.30    1.90
  -9   0  12   28.30    1.60
   8   0 -12   79.39    2.60
  -8   0  12   77.79    2.60
  -8   0  12   86.09    2.90
  -8   0  12   75.09    2.80
   7   0 -12    8.20    1.10
  -7   0  12    9.30    1.30
  -7   0  12    9.00    0.90
  -7   0  12   10.80    0.90
   6   0 -12    3.80    0.80
   6   0 -12    3.00    0.70
  -6   0  12    4.50    0.80
  -6   0  12    3.90    0.50
  -6   0  12    4.30    0.80
   5   0 -12   23.40    1.30
   5   0 -12   20.80    1.10
  -5   0  12   22.60    1.00
  -5   0  12   20.80    1.00
  -5   0  12   22.30    1.40
   4   0 -12    0.30    0.50
  -4   0  12   -0.30    0.50
  -4   0  12    0.30    0.40
  -4   0  12    0.60    0.40
   3   0 -12    0.40    0.40
   3   0 -12   -0.40    0.50
  -3   0  12    0.20    0.40
   2   0 -12  153.58    4.30
   2   0 -12  152.38    4.20
  -2   0  12  151.28    4.20
   1   0 -12    8.60    0.80
   1   0 -12   10.70    0.90
  -1   0  12   10.00    0.80
   0   0 -12    2.70    0.50
   0   0 -12    3.70    0.50
   0   0  12    3.40    0.50
  -1   0 -12    1.90    0.50
  -1   0 -12    1.40    0.50
   1   0  12    1.20    0.50
  -2   0 -12  176.28    4.70
  -2   0 -12  172.48    4.70
   2   0  12  174.18    4.90
  -3   0 -12   18.70    1.00
  -3   0 -12   20.00    1.00
   3   0  12   19.80    1.10
  -4   0 -12    3.50    0.50
  -4   0 -12    2.90    0.70
  -5   0 -12    0.80    0.70
  -5   0 -12    0.70    0.50
  -6   0 -12    9.70    1.20
  -7   0 -12    0.70    0.80
  -8   0 -12    2.10    0.90
  -9   0 -12   -0.20    0.90
 -10   0 -12    1.60    1.20
  12  -1 -12   54.49    2.40
 -12   1  12   49.99    2.60
  11  -1 -12   15.00    1.70
 -11   1  12   13.20    1.80
 -11   1  12   18.70    2.10
  10  -1 -12    2.00    0.80
 -10   1  12    2.10    0.90
 -10   1  12    2.10    1.00
   9  -1 -12   35.20    1.70
  -9   1  12   36.10    2.00
  -9   1  12   31.90    1.70
   8  -1 -12   63.49    2.30
  -8   1  12   65.09    2.30
  -8   1  12   64.69    2.50
   7  -1 -12   15.40    1.10
  -7   1  12   15.90    1.40
  -7   1  12   14.10    0.90
  -7   1  12   16.20    1.10
   6  -1 -12   54.89    2.00
  -6   1  12   58.19    1.90
  -6   1  12   55.49    1.80
  -6   1  12   55.39    2.20
   5  -1 -12  126.69    3.70
   5  -1 -12  120.89    3.60
  -5   1  12  128.79    3.80
  -5   1  12  124.79    3.50
  -5   1  12  118.09    3.50
   4  -1 -12   85.29    2.60
  -4   1  12   84.99    2.60
  -4   1  12   88.39    2.50
  -4   1  12   87.89    2.80
   3  -1 -12   11.80    0.80
   3  -1 -12   11.20    1.00
  -3   1  12   11.70    0.80
  -3   1  12   12.30    0.70
   2  -1 -12    7.00    0.90
   2  -1 -12    5.60    0.70
  -2   1  12    7.20    0.70
  -2   1  12    6.20    0.70
   1  -1 -12    6.60    0.70
   1  -1 -12    6.40    0.90
  -1   1  12    6.70    0.70
   0  -1 -12  139.19    3.90
   0  -1 -12  136.19    3.90
   0   1  12  140.09    3.90
  -1  -1 -12   50.19    1.80
  -1  -1 -12   50.99    1.70
   1   1  12   50.39    1.80
  -2  -1 -12    0.30    0.40
  -2  -1 -12   -0.10    0.50
   2   1  12    0.50    0.50
  -3  -1 -12   17.80    1.00
  -3  -1 -12   18.30    1.10
  -3  -1 -12   17.80    0.90
  -4  -1 -12   55.09    2.10
  -4  -1 -12   57.19    1.90
  -4  -1 -12   55.19    1.80
  -5  -1 -12   25.60    1.40
  -5  -1 -12   25.30    1.10
  -6  -1 -12    0.70    0.70
  -7  -1 -12    9.80    1.40
  -8  -1 -12   12.50    1.60
  -9  -1 -12    0.10    0.90
  12  -2 -12    3.00    1.10
 -12   2  12    2.40    1.10
 -12   2  12    2.00    1.50
  11  -2 -12    4.80    1.00
 -11   2  12    5.20    1.10
 -11   2  12    3.10    1.60
  10  -2 -12   15.90    1.50
 -10   2  12   17.40    1.70
 -10   2  12   20.90    1.80
   9  -2 -12   34.70    1.90
  -9   2  12   39.70    1.90
  -9   2  12   39.00    2.10
   8  -2 -12    7.70    1.10
  -8   2  12   10.90    1.20
  -8   2  12   10.40    1.40
   7  -2 -12   27.10    1.80
  -7   2  12   28.20    1.40
  -7   2  12   26.50    1.70
   6  -2 -12   -0.30    0.60
  -6   2  12    0.40    0.40
  -6   2  12   -1.00    0.60
  -6   2  12    0.60    0.50
   5  -2 -12    1.00    0.50
   5  -2 -12    0.30    1.00
  -5   2  12    2.00    0.80
  -5   2  12    1.40    0.50
  -5   2  12    1.80    0.80
   4  -2 -12    7.30    0.80
   4  -2 -12    8.10    1.00
  -4   2  12    7.20    0.80
  -4   2  12    7.70    1.20
  -4   2  12    7.20    0.80
   3  -2 -12   13.40    0.90
   3  -2 -12   13.00    1.10
  -3   2  12   13.60    0.80
  -3   2  12   12.40    0.80
   2  -2 -12    0.40    0.50
   2  -2 -12   -0.20    0.40
  -2   2  12    0.10    0.40
  -2   2  12    0.30    0.40
   1  -2 -12    0.10    0.50
   1  -2 -12    0.00    0.40
  -1   2  12    0.20    0.40
  -1   2  12    0.00    0.40
   0  -2 -12    0.80    0.40
   0  -2 -12    0.80    0.50
   0   2  12    1.20    0.50
   0   2  12    1.10    0.40
  -1  -2 -12  125.89    3.60
  -1  -2 -12  131.69    3.80
   1   2  12  131.19    3.60
   1   2  12  128.69    3.70
  -2  -2 -12    1.80    0.50
  -2  -2 -12    1.60    0.40
  -2  -2 -12    1.10    0.50
   2   2  12    1.20    0.80
  -3  -2 -12   39.00    1.40
  -3  -2 -12   41.70    1.80
  -4  -2 -12   -0.10    0.40
  -4  -2 -12   -0.40    0.70
  -4  -2 -12   -0.40    0.60
  -5  -2 -12    6.40    0.90
  -6  -2 -12    0.70    0.80
  -7  -2 -12   22.40    1.70
  -8  -2 -12    1.40    1.00
  -9  -2 -12    1.40    1.10
  12  -3 -12    7.40    1.20
 -12   3  12    5.20    1.30
 -12   3  12    5.90    1.30
  11  -3 -12   -0.70    0.90
 -11   3  12    1.20    1.00
 -11   3  12    1.00    1.10
  10  -3 -12    2.10    0.90
 -10   3  12    1.40    1.00
 -10   3  12    2.00    0.90
   9  -3 -12   -1.50    0.70
  -9   3  12    1.00    0.80
  -9   3  12   -0.80    0.70
   8  -3 -12    7.00    0.80
  -8   3  12    9.30    1.40
  -8   3  12    9.00    1.20
   7  -3 -12   52.59    2.10
  -7   3  12   51.49    2.20
  -7   3  12   53.39    2.00
   6  -3 -12  193.38    5.50
  -6   3  12  201.58    5.70
  -6   3  12  199.48    5.50
   5  -3 -12    0.50    0.90
   5  -3 -12    2.10    0.60
  -5   3  12    1.00    0.50
  -5   3  12    1.20    0.80
   4  -3 -12   19.80    1.10
   4  -3 -12   22.30    1.30
  -4   3  12   20.60    1.00
  -4   3  12   20.70    1.10
   3  -3 -12   49.60    1.90
   3  -3 -12   51.89    1.80
  -3   3  12   50.79    1.70
  -3   3  12   52.49    1.70
   2  -3 -12   23.90    1.10
   2  -3 -12   23.40    1.30
  -2   3  12   24.00    1.10
  -2   3  12   23.40    1.10
   1  -3 -12  298.47    7.90
   1  -3 -12  293.17    7.80
  -1   3  12  292.37    7.80
  -1   3  12  295.87    7.70
   0  -3 -12   21.70    1.10
   0  -3 -12   22.10    1.20
   0   3  12   21.80    1.10
   0   3  12   20.30    1.10
  -1  -3 -12   14.00    1.10
  -1  -3 -12   13.00    0.90
   1   3  12   13.40    0.90
  -2  -3 -12   16.10    1.10
  -2  -3 -12   16.50    1.60
  -2  -3 -12   14.60    0.90
  -3  -3 -12    3.10    0.50
  -3  -3 -12    2.50    0.70
   3   3  12    2.80    0.60
  -4  -3 -12   29.40    1.80
   4   3  12   28.60    2.00
  -5  -3 -12    0.00    0.70
  -5  -3 -12   -0.10    0.70
  -6  -3 -12   16.60    1.50
  -7  -3 -12   53.19    2.30
  -8  -3 -12   32.30    2.10
  -9  -3 -12   15.20    2.00
  11  -4 -12    4.60    1.00
 -11   4  12    4.40    1.20
 -11   4  12    4.60    1.10
  10  -4 -12    1.40    0.80
 -10   4  12    0.90    1.00
 -10   4  12    1.90    1.00
   9  -4 -12   19.40    1.40
  -9   4  12   18.30    1.90
  -9   4  12   15.50    2.40
   8  -4 -12    9.80    1.20
  -8   4  12   11.70    1.20
  -8   4  12    8.90    1.10
   7  -4 -12    2.40    0.70
  -7   4  12    2.60    0.70
  -7   4  12    3.40    1.00
   6  -4 -12    5.20    0.80
  -6   4  12    5.00    0.80
   5  -4 -12    1.00    0.80
   5  -4 -12    0.10    0.70
  -5   4  12   -0.30    0.50
  -5   4  12   -0.20    0.70
   4  -4 -12  124.99    3.80
   4  -4 -12  127.79    3.80
  -4   4  12  124.09    3.50
  -4   4  12  122.89    3.60
   3  -4 -12   11.30    0.90
   3  -4 -12   10.20    1.20
  -3   4  12    9.90    0.80
  -3   4  12    8.90    0.90
   2  -4 -12    1.90    0.60
   2  -4 -12    1.40    0.50
  -2   4  12    1.70    0.50
  -2   4  12    1.40    0.50
   1  -4 -12    1.20    0.50
   1  -4 -12    1.20    0.60
  -1   4  12    1.10    0.50
  -1   4  12    1.30    0.50
   0  -4 -12  219.68    6.00
   0  -4 -12  226.58    6.10
   0   4  12  216.98    6.00
   0   4  12  222.88    6.00
  -1  -4 -12   11.20    0.90
  -1  -4 -12    9.60    0.90
  -1  -4 -12   12.30    1.10
   1   4  12    9.50    1.00
  -2  -4 -12    9.40    1.00
  -2  -4 -12    8.30    1.20
  -2  -4 -12    8.70    0.90
   2   4  12    7.30    1.00
  -3  -4 -12   -0.50    0.60
   3   4  12    0.00    0.60
  -4  -4 -12    9.20    1.30
  -4  -4 -12    8.20    1.20
   4   4  12    8.70    1.10
  -5  -4 -12  128.99    3.70
  -5  -4 -12  125.49    3.90
  -6  -4 -12  184.68    5.40
  -7  -4 -12   77.29    2.90
  -8  -4 -12    2.40    1.10
  11  -5 -12    0.20    0.90
 -11   5  12   -1.10    1.10
 -11   5  12    0.30    1.10
  10  -5 -12    9.00    1.40
 -10   5  12    6.10    1.10
 -10   5  12    5.70    1.10
   9  -5 -12    4.70    0.90
  -9   5  12    5.50    1.00
  -9   5  12    4.80    1.00
   8  -5 -12    3.70    0.90
  -8   5  12    4.90    1.00
  -8   5  12    4.30    0.90
   7  -5 -12    0.60    1.00
  -7   5  12    1.60    0.90
  -7   5  12    2.40    0.70
   6  -5 -12  102.59    3.20
  -6   5  12  104.59    3.50
  -6   5  12  100.49    3.20
   5  -5 -12    3.00    0.60
  -5   5  12    3.50    0.70
   4  -5 -12   25.30    1.60
   4  -5 -12   25.30    1.30
  -4   5  12   24.80    1.30
   3  -5 -12   21.40    1.20
   3  -5 -12   22.90    1.50
  -3   5  12   22.50    1.20
  -3   5  12   20.30    1.00
   2  -5 -12   10.80    1.00
   2  -5 -12   12.30    1.30
  -2   5  12    9.20    1.00
  -2   5  12   10.80    0.90
   1  -5 -12   16.60    1.00
   1  -5 -12   17.70    1.30
  -1   5  12   14.80    1.00
  -1   5  12   16.40    1.10
   0  -5 -12    6.20    0.80
   0  -5 -12    6.90    1.10
   0   5  12    5.80    0.90
   0   5  12    7.20    0.90
  -1  -5 -12   12.90    0.90
  -1  -5 -12   14.10    1.00
  -1  -5 -12   13.80    1.30
   1   5  12   14.70    1.10
  -2  -5 -12    3.00    0.50
  -2  -5 -12    2.90    0.60
  -2  -5 -12    2.30    0.70
   2   5  12    2.70    0.70
  -3  -5 -12    0.30    0.80
  -3  -5 -12    0.20    0.60
   3   5  12   -0.20    0.70
  -4  -5 -12    3.90    0.80
   4   5  12    3.70    0.90
  -5  -5 -12    2.90    0.80
  -5  -5 -12    3.10    0.80
   5   5  12    1.80    1.10
  -6  -5 -12    0.10    0.70
  -6  -5 -12    0.90    0.80
  -7  -5 -12    7.20    1.10
  -8  -5 -12   32.50    2.50
  11  -6 -12    0.30    1.60
 -11   6  12   -1.20    2.00
 -11   6  12    1.20    1.10
  10  -6 -12   16.40    1.60
 -10   6  12   20.50    1.90
 -10   6  12   22.20    2.10
   9  -6 -12   -0.40    0.80
  -9   6  12   -2.10    1.00
  -9   6  12    0.90    0.90
   8  -6 -12   12.70    1.30
  -8   6  12   11.00    1.90
  -8   6  12   14.40    1.50
   7  -6 -12    4.80    0.80
  -7   6  12    7.80    1.20
  -7   6  12    5.70    1.00
   6  -6 -12    9.90    1.40
  -6   6  12   10.90    1.20
  -6   6  12    9.20    1.60
   5  -6 -12   28.30    1.50
  -5   6  12   30.50    1.60
   4  -6 -12    0.00    0.70
   4  -6 -12    0.40    0.60
  -4   6  12   -0.20    0.60
   3  -6 -12    1.10    0.80
   3  -6 -12   -0.10    0.60
  -3   6  12    0.80    0.60
   2  -6 -12    0.50    0.50
   2  -6 -12   -0.20    0.70
  -2   6  12    0.80    0.50
  -2   6  12    1.00    0.60
   1  -6 -12   29.70    1.70
   1  -6 -12   29.80    1.30
  -1   6  12   29.50    1.50
  -1   6  12   31.20    1.40
   0  -6 -12   14.20    1.00
   0  -6 -12   16.40    1.40
   0   6  12   15.90    1.20
  -1  -6 -12   34.30    1.70
  -1  -6 -12   33.90    1.40
  -1  -6 -12   35.10    1.50
   1   6  12   36.50    1.70
  -2  -6 -12   12.40    1.10
  -2  -6 -12   12.70    1.30
   2   6  12   11.50    1.30
  -3  -6 -12    4.30    0.80
  -3  -6 -12    5.40    1.00
   3   6  12    5.80    0.90
  -4  -6 -12   25.90    1.60
  -4  -6 -12   26.90    1.70
   4   6  12   25.70    1.70
  -5  -6 -12    1.60    0.80
  -5  -6 -12    0.20    0.80
   5   6  12   -0.60    1.10
  -6  -6 -12   -1.30    0.80
  -6  -6 -12    0.70    0.90
  -7  -6 -12    0.20    1.00
  10  -7 -12    2.60    1.00
 -10   7  12    4.40    1.20
 -10   7  12    4.10    1.20
   9  -7 -12   32.70    1.90
  -9   7  12   32.30    2.40
  -9   7  12   32.20    2.10
   8  -7 -12  129.19    4.00
  -8   7  12  128.89    4.40
  -8   7  12  125.89    4.10
   7  -7 -12   11.30    1.30
  -7   7  12    9.50    1.40
  -7   7  12   10.80    1.40
   6  -7 -12   29.30    1.60
  -6   7  12   30.20    1.70
   5  -7 -12   14.30    1.80
  -5   7  12   15.90    1.30
   4  -7 -12    2.30    0.70
  -4   7  12    2.00    0.70
   3  -7 -12  116.59    3.70
   3  -7 -12  113.59    3.40
  -3   7  12  112.59    3.60
   2  -7 -12    5.10    0.90
  -2   7  12    5.70    0.80
   1  -7 -12    0.60    0.50
   1  -7 -12    0.50    0.80
  -1   7  12    0.60    0.60
  -1   7  12   -0.40    0.60
   0  -7 -12    3.40    0.60
   0  -7 -12    4.10    0.80
   0   7  12    3.60    0.80
  -1  -7 -12    2.10    0.70
  -1  -7 -12    2.00    0.80
   1   7  12    1.10    0.80
  -2  -7 -12   12.10    1.40
  -2  -7 -12   11.40    1.20
   2   7  12   12.00    1.40
  -3  -7 -12    1.60    0.70
  -3  -7 -12    2.10    0.80
   3   7  12    2.10    1.00
  -4  -7 -12   52.49    2.20
  -4  -7 -12   48.60    2.10
   4   7  12   45.40    2.30
  -5  -7 -12    6.20    1.00
  -5  -7 -12    6.30    1.00
   5   7  12    5.00    1.50
  -6  -7 -12   11.20    1.60
  -6  -7 -12   14.80    1.80
   9  -8 -12   44.30    2.20
  -9   8  12   46.30    2.80
  -9   8  12   45.60    2.40
   8  -8 -12  207.78    6.10
  -8   8  12  206.98    6.20
  -8   8  12  216.48    6.40
   7  -8 -12    1.40    0.80
  -7   8  12    1.80    1.00
   6  -8 -12  260.77    7.10
  -6   8  12  244.98    7.10
   5  -8 -12   12.30    1.30
  -5   8  12   12.50    2.20
   4  -8 -12    7.90    0.90
  -4   8  12    6.20    0.90
   3  -8 -12   37.60    1.70
  -3   8  12   36.60    1.90
   2  -8 -12    1.50    0.70
   2  -8 -12    0.80    0.80
  -2   8  12    0.50    0.70
   1  -8 -12   -0.10    0.60
   1  -8 -12    0.20    0.80
  -1   8  12   -0.60    0.70
   0  -8 -12    3.60    1.20
   0   8  12    2.60    0.90
  -1  -8 -12   -0.30    0.80
  -1  -8 -12   -0.50    0.70
   1   8  12    0.60    1.00
  -2  -8 -12    1.00    0.80
  -2  -8 -12    0.50    0.90
   2   8  12   -0.60    0.90
  -3  -8 -12   31.90    2.00
  -3  -8 -12   32.00    1.70
   3   8  12   31.40    2.00
  -4  -8 -12   22.70    1.70
  -4  -8 -12   23.80    1.90
   4   8  12   19.50    2.00
  -5  -8 -12   17.20    1.60
  -5  -8 -12   19.00    1.90
   8  -9 -12   35.10    2.00
  -8   9  12   32.90    2.20
   7  -9 -12   89.39    3.10
  -7   9  12   86.99    3.30
   6  -9 -12   50.39    2.20
  -6   9  12   49.10    2.40
   5  -9 -12    1.60    0.80
  -5   9  12    1.60    1.00
   4  -9 -12   58.79    2.30
  -4   9  12   55.89    2.50
   3  -9 -12   17.20    1.40
  -3   9  12   18.70    1.70
   2  -9 -12   30.10    2.50
   2  -9 -12   26.50    2.20
  -2   9  12   26.10    1.70
   1  -9 -12    3.40    1.00
  -1   9  12    0.20    0.90
   0  -9 -12    0.80    1.00
   0   9  12    2.40    1.00
  -1  -9 -12    0.30    0.90
   1   9  12    1.80    0.90
  -2  -9 -12    3.50    0.90
  -2  -9 -12    1.00    1.00
   2   9  12    3.10    1.10
  -3  -9 -12   49.60    2.20
  -3  -9 -12   47.90    2.50
   3   9  12   50.39    2.50
  -4  -9 -12   18.50    2.10
  -4  -9 -12   16.40    1.60
   4   9  12   15.30    2.00
   7 -10 -12    0.80    0.80
  -7  10  12   -1.90    1.10
   6 -10 -12    3.10    0.90
  -6  10  12    3.70    1.20
   5 -10 -12   15.50    1.60
  -5  10  12   15.60    1.80
   4 -10 -12    1.20    0.90
   3 -10 -12    4.50    0.90
  -3  10  12   -0.20    1.00
  -2  10  12   51.89    2.40
   1 -10 -12   23.90    2.20
  -1  10  12   19.50    1.80
   0 -10 -12    9.40    1.30
   0  10  12    9.90    1.70
  -1 -10 -12   13.60    2.00
   1  10  12   12.20    1.70
  -2 -10 -12    4.00    1.20
   2  10  12    3.40    1.20
  -3 -10 -12   58.49    2.80
   3  10  12   56.09    2.80
   5 -11 -12    5.60    1.00
  -5  11  12    3.10    1.20
   4 -11 -12   -0.50    0.90
  -4  11  12   -0.90    1.10
  -3  11  12   -1.40    1.10
  -2  11  12    5.90    1.30
  -1  11  12    1.30    1.10
   0 -11 -12   19.10    2.30
   0  11  12   15.10    1.90
  -1 -11 -12    3.20    1.40
   1  11  12    1.40    1.30
   3  14 -13   32.30    2.70
  -3 -14  13   29.00    2.10
   2  14 -13   11.00    1.50
  -2 -14  13    7.90    1.30
   1  14 -13    2.30    1.10
   1  14 -13   -0.60    0.90
  -1 -14  13    0.50    1.00
   0  14 -13    7.00    1.20
   0  14 -13    7.30    1.00
   0 -14  13    4.60    1.10
  -1  14 -13    5.90    1.10
  -1  14 -13    5.30    1.00
   1 -14  13    6.10    1.10
  -2  14 -13    2.90    1.00
  -2  14 -13    1.30    0.90
  -3  14 -13    1.10    0.90
  -3  14 -13    0.10    0.90
  -4  14 -13    2.60    1.20
  -5 -13  13   -0.20    1.10
  -4 -13  13    3.50    1.10
   3  13 -13   33.40    2.50
  -3 -13  13   29.90    2.00
   2  13 -13    6.80    1.00
   2  13 -13    6.10    1.20
  -2 -13  13    6.70    1.00
   1  13 -13    1.90    0.80
   1  13 -13   -0.40    1.00
  -1 -13  13    0.80    0.90
   0  13 -13    3.90    0.90
   0  13 -13    4.20    1.00
   0 -13  13    4.50    1.00
  -1  13 -13    0.70    0.80
  -1  13 -13    1.30    0.90
  -2  13 -13    1.70    0.90
  -2  13 -13    1.20    0.90
   2 -13  13    1.30    1.00
  -3  13 -13   25.20    1.80
  -3  13 -13   25.60    1.70
  -4  13 -13    0.90    0.90
  -5  13 -13   -0.80    1.10
  -6 -12  13   10.50    1.70
  -5 -12  13    6.10    1.10
   4  12 -13    2.60    1.30
  -4 -12  13    1.20    0.90
   3  12 -13    0.50    0.80
   3  12 -13    1.30    1.10
  -3 -12  13    0.10    0.80
   2  12 -13    0.70    1.00
   2  12 -13    1.70    0.80
  -2 -12  13    0.30    0.80
   1  12 -13    3.30    0.80
   1  12 -13    3.60    1.00
  -1 -12  13    2.80    0.90
   0  12 -13   42.00    2.00
   0  12 -13   40.90    2.20
   0 -12  13   43.60    2.10
  -1  12 -13   27.00    1.60
  -1  12 -13   29.30    1.90
   1 -12  13   27.70    1.80
  -2  12 -13    2.20    0.80
  -2  12 -13    1.50    0.80
   2 -12  13   -0.70    0.90
  -3  12 -13    3.10    0.80
  -3  12 -13    3.50    0.90
   3 -12  13    5.40    1.00
  -4  12 -13   66.69    2.60
   4 -12  13   64.09    3.20
  -5  12 -13    6.30    1.10
  -6  12 -13   19.90    1.80
  -7 -11  13   -0.20    1.00
  -6 -11  13   11.50    1.70
  -5 -11  13    6.80    1.10
   4  11 -13   11.90    1.30
  -4 -11  13   10.00    1.50
   3  11 -13    0.90    1.60
   3  11 -13    3.10    0.80
  -3 -11  13   -0.40    0.80
   2  11 -13    0.30    0.70
   2  11 -13    0.10    1.60
  -2 -11  13   -1.00    0.80
   1  11 -13   15.30    1.40
  -1 -11  13   12.00    1.50
   0  11 -13   27.60    2.20
   0  11 -13   25.30    2.20
   0 -11  13   19.40    2.70
  -1  11 -13  102.49    3.30
  -1  11 -13  107.89    3.40
   1 -11  13   98.69    4.00
  -2  11 -13  184.68    5.30
  -2  11 -13  194.58    5.30
   2 -11  13  173.78    6.10
  -3  11 -13    3.90    0.80
  -3  11 -13    4.20    0.80
   3 -11  13    3.20    1.00
  -4  11 -13    3.70    1.00
   4 -11  13    1.40    0.90
  -5  11 -13    6.00    1.00
   5 -11  13    5.50    1.30
  -6  11 -13   16.90    1.70
  -7  11 -13   44.40    2.30
  -8 -10  13    8.80    1.20
  -7 -10  13    1.70    1.00
  -6 -10  13    9.80    1.50
   5  10 -13   32.30    2.10
  -5 -10  13   33.20    1.90
   4  10 -13    0.90    0.70
   4  10 -13    2.00    1.00
  -4 -10  13    0.40    0.80
   3  10 -13    6.40    1.00
   3  10 -13    5.40    0.80
  -3 -10  13    4.40    1.30
   2  10 -13   -1.00    0.60
   2  10 -13    0.50    0.80
  -2 -10  13   -0.60    0.70
   1  10 -13    3.60    1.00
   1  10 -13    3.00    0.70
   1  10 -13    3.60    0.80
  -1 -10  13    2.80    0.80
   0  10 -13   74.09    2.60
   0  10 -13   76.89    2.80
   0 -10  13   75.69    2.70
  -1  10 -13   64.59    2.40
  -1  10 -13   67.59    2.70
   1 -10  13   63.49    2.40
  -2  10 -13   35.10    2.10
  -2  10 -13   32.90    1.90
   2 -10  13   29.40    1.70
  -3  10 -13    3.70    0.90
  -3  10 -13    2.40    0.60
   3 -10  13    2.90    0.80
  -4  10 -13   22.40    1.50
   4 -10  13   19.10    1.60
  -5  10 -13    0.30    0.80
   5 -10  13   -0.20    0.90
  -6  10 -13   36.50    2.00
  -7  10 -13    1.50    1.00
  -8  10 -13    2.50    1.10
  -9  -9  13    2.10    1.00
  -8  -9  13    0.50    0.90
  -7  -9  13    6.30    1.00
  -6  -9  13   13.70    1.50
   5   9 -13    6.40    0.80
   5   9 -13    6.10    1.10
  -5  -9  13    7.30    1.20
   4   9 -13   37.70    1.60
   4   9 -13   37.40    2.00
  -4  -9  13   38.40    1.90
   3   9 -13    0.40    0.60
   3   9 -13   -0.30    0.70
  -3  -9  13    1.00    0.70
   2   9 -13    9.70    1.30
   2   9 -13   10.60    1.10
  -2  -9  13   12.80    1.60
   1   9 -13   19.10    1.30
   1   9 -13   18.40    1.40
  -1  -9  13   18.80    1.40
   0   9 -13   26.60    1.50
   0   9 -13   27.20    1.70
   0  -9  13   27.00    1.50
  -1   9 -13   -0.50    0.70
   1  -9  13   -0.90    0.60
  -2   9 -13    4.80    0.90
  -2   9 -13    4.80    0.80
   2  -9  13    4.30    0.80
  -3   9 -13   -0.40    0.60
  -3   9 -13    0.80    0.60
   3  -9  13   -1.00    0.70
  -4   9 -13    1.70    0.80
   4  -9  13    0.90    0.80
  -5   9 -13   15.70    1.40
   5  -9  13   11.60    1.40
  -6   9 -13    0.50    0.90
   6  -9  13   -1.20    0.80
  -7   9 -13   -0.20    0.90
  -8   9 -13    0.80    1.00
 -10  -8  13    0.60    1.10
  -9  -8  13    5.90    1.00
  -8  -8  13    0.90    0.80
  -7  -8  13    8.50    1.30
   6   8 -13    8.30    1.10
  -6  -8  13    6.20    0.90
   5   8 -13    7.10    1.10
   5   8 -13    5.80    0.80
  -5  -8  13    5.90    0.90
   4   8 -13   18.10    1.50
   4   8 -13   15.20    1.20
  -4  -8  13   14.40    1.30
   3   8 -13   21.60    1.50
   3   8 -13   21.50    1.20
  -3  -8  13   21.40    1.40
   2   8 -13   18.40    1.20
   2   8 -13   16.30    1.30
  -2  -8  13   18.20    1.30
   1   8 -13   17.70    1.30
   1   8 -13   18.00    1.20
  -1  -8  13   17.90    1.30
   0   8 -13    7.90    1.10
   0   8 -13    8.50    1.00
   0  -8  13    8.40    1.10
  -1   8 -13   13.00    1.70
  -1   8 -13   18.40    1.50
   1  -8  13   15.60    1.30
  -2   8 -13   19.90    1.60
  -2   8 -13   20.60    1.40
   2  -8  13   19.50    1.30
  -3   8 -13    6.90    1.30
   3  -8  13    7.30    1.10
  -4   8 -13   14.20    1.50
   4  -8  13   11.00    1.30
  -5   8 -13    4.20    0.90
   5  -8  13    5.00    0.90
  -6   8 -13    3.30    0.90
   6  -8  13    1.00    1.40
  -7   8 -13    6.40    1.00
   7  -8  13    5.10    1.00
  -8   8 -13    3.40    1.00
  -9   8 -13   -0.20    1.00
 -10  -7  13   33.90    2.00
  -9  -7  13   13.70    1.50
  -8  -7  13   39.90    1.90
   7   7 -13   32.60    1.60
  -7  -7  13   30.60    1.70
   6   7 -13   70.69    2.30
  -6  -7  13   69.49    2.50
   5   7 -13    0.80    0.70
   5   7 -13    2.30    0.60
  -5  -7  13    1.80    0.70
   4   7 -13    4.30    0.70
   4   7 -13    4.10    0.80
  -4  -7  13    2.80    0.70
   3   7 -13   34.10    1.50
   3   7 -13   34.20    1.70
  -3  -7  13   34.70    2.00
   2   7 -13   17.50    1.10
   2   7 -13   18.70    1.30
  -2  -7  13   17.00    1.40
   1   7 -13  109.79    3.30
   1   7 -13  109.99    3.30
  -1  -7  13  109.09    3.40
   0   7 -13   61.39    2.10
   0   7 -13   62.69    2.20
   0  -7  13   61.99    2.20
  -1   7 -13   12.10    1.70
  -1   7 -13    9.20    1.10
   1  -7  13    7.90    1.10
  -2   7 -13   70.29    2.40
   2  -7  13   68.89    2.40
  -3   7 -13   10.90    1.00
  -3   7 -13   10.00    1.20
   3  -7  13    7.90    1.10
  -4   7 -13   23.50    1.40
   4  -7  13   22.60    1.40
  -5   7 -13   30.80    1.60
   5  -7  13   30.60    1.60
  -6   7 -13    8.70    1.30
   6  -7  13    5.20    0.80
  -7   7 -13    1.20    0.80
   7  -7  13    2.80    0.80
  -8   7 -13    3.70    1.00
   8  -7  13    3.30    1.00
  -9   7 -13    3.50    1.10
 -11  -6  13   -1.00    1.10
 -11  -6  13    4.20    1.30
 -10  -6  13    9.30    1.40
 -10  -6  13    9.60    1.10
  -9  -6  13    9.70    1.50
  -9  -6  13   14.30    1.40
   8   6 -13    3.00    0.80
  -8  -6  13    2.40    0.80
   7   6 -13    9.50    1.10
  -7  -6  13    8.10    1.20
   6   6 -13   15.20    1.10
  -6  -6  13   12.70    1.20
   5   6 -13    3.60    0.80
   5   6 -13    4.40    0.70
  -5  -6  13    4.00    0.70
   4   6 -13   12.20    1.00
   4   6 -13   13.70    1.20
  -4  -6  13   10.90    1.10
   3   6 -13   25.10    1.40
   3   6 -13   24.80    1.30
  -3  -6  13   25.40    1.30
   2   6 -13   22.30    1.30
   2   6 -13   21.20    1.10
  -2  -6  13   19.70    1.20
   1   6 -13   19.50    1.10
   1   6 -13   20.40    1.20
  -1  -6  13   19.30    1.20
   0   6 -13   83.79    2.60
   0   6 -13   83.09    2.60
   0  -6  13   84.29    2.70
  -1   6 -13    1.10    0.50
  -1   6 -13    0.90    0.60
   1  -6  13    0.50    0.60
  -2   6 -13   44.50    1.80
  -2   6 -13   46.30    1.60
   2  -6  13   45.10    1.80
  -3   6 -13    0.40    0.60
   3  -6  13    0.60    0.60
   4  -6  13   10.80    1.20
  -5   6 -13   25.50    1.40
   5  -6  13   26.10    1.50
  -6   6 -13    1.70    0.80
   6  -6  13    2.00    0.80
  -7   6 -13    6.90    0.90
   7  -6  13    8.20    1.30
  -8   6 -13    3.60    0.90
   8  -6  13    4.70    0.90
  -9   6 -13   -1.60    0.90
 -11  -5  13    1.30    1.10
 -10  -5  13    0.50    1.00
 -10  -5  13    2.60    0.90
  -9  -5  13    0.00    0.70
  -9  -5  13   -0.20    1.10
   8   5 -13    0.00    0.70
  -8  -5  13   -0.70    0.90
  -8  -5  13   -0.20    0.70
   7   5 -13   37.70    1.60
  -7  -5  13   38.50    1.70
   6   5 -13   44.70    1.70
   6   5 -13   46.20    2.90
  -6  -5  13   43.60    1.80
   5   5 -13   42.90    1.90
   5   5 -13   42.10    1.60
  -5  -5  13   40.90    1.70
   4   5 -13   44.80    1.70
   4   5 -13   43.80    1.80
  -4  -5  13   43.90    1.70
   3   5 -13   22.30    1.20
   3   5 -13   24.90    1.30
  -3  -5  13   25.90    1.30
   2   5 -13    0.50    0.50
   2   5 -13    0.60    0.50
  -2  -5  13    1.60    0.60
   1   5 -13   13.90    1.10
   1   5 -13   11.20    1.00
  -1  -5  13   11.20    1.00
   0   5 -13   41.90    1.60
   0   5 -13   42.20    1.60
   0  -5  13   42.40    1.70
  -1   5 -13   17.70    1.00
  -1   5 -13   18.30    1.10
   1  -5  13   17.30    1.20
  -2   5 -13    0.30    0.50
  -2   5 -13   -0.20    0.50
   2  -5  13    0.50    0.60
  -3   5 -13    1.90    0.50
  -3   5 -13    1.20    0.50
   3  -5  13    1.90    0.60
  -4   5 -13   49.70    1.90
   4  -5  13   50.59    2.00
  -5   5 -13   35.50    1.60
   5  -5  13   35.90    1.70
  -6   5 -13  116.19    3.50
   6  -5  13  115.99    3.60
  -7   5 -13   15.00    1.70
   7  -5  13   17.40    1.50
  -8   5 -13    1.70    0.80
   8  -5  13    3.00    0.90
   9  -5  13    4.10    1.10
 -11  -4  13   -0.20    1.00
 -10  -4  13   12.30    2.00
 -10  -4  13   13.50    1.40
   9   4 -13    2.80    0.80
  -9  -4  13    5.10    1.40
  -9  -4  13    4.90    1.10
   8   4 -13    3.20    0.70
  -8  -4  13    2.60    0.90
  -8  -4  13    2.30    0.70
   7   4 -13    3.20    0.60
  -7  -4  13    3.10    0.70
  -7  -4  13    3.00    0.80
   6   4 -13    1.20    0.50
   6   4 -13    0.70    0.80
  -6  -4  13    1.10    0.60
   5   4 -13    0.20    0.70
   5   4 -13    0.80    0.50
  -5  -4  13    0.40    0.50
   4   4 -13   35.10    1.60
   4   4 -13   33.90    1.40
  -4  -4  13   34.80    1.50
   3   4 -13    5.60    1.00
   3   4 -13    5.70    0.80
  -3  -4  13    6.50    0.90
   2   4 -13  131.49    3.80
   2   4 -13  135.49    3.90
  -2  -4  13  133.79    3.90
   1   4 -13    1.50    0.50
   1   4 -13    1.80    0.50
  -1  -4  13    1.90    0.50
   0   4 -13   19.20    1.20
   0   4 -13   19.90    1.10
   0  -4  13   19.00    1.20
  -1   4 -13    0.30    0.40
  -1   4 -13    0.20    0.40
   1  -4  13    0.30    0.50
  -2   4 -13   -0.20    0.40
  -2   4 -13    0.30    0.40
   2  -4  13   -0.20    0.50
  -3   4 -13  126.89    3.40
  -3   4 -13  121.79    3.60
   3  -4  13  121.19    3.70
  -4   4 -13   20.60    1.20
   4  -4  13   22.60    1.40
  -5   4 -13   18.90    1.20
   5  -4  13   19.60    1.40
  -6   4 -13  172.18    4.90
   6  -4  13  176.98    5.10
  -7   4 -13    2.00    0.80
   7  -4  13    2.10    0.90
  -8   4 -13   63.69    2.40
   8  -4  13   67.29    2.60
   9  -4  13   43.90    2.30
 -11  -3  13    3.80    1.10
  10   3 -13   13.70    1.50
 -10  -3  13   13.50    1.90
   9   3 -13    8.50    1.20
  -9  -3  13   10.80    1.20
  -9  -3  13    7.10    1.20
   8   3 -13   -0.20    0.60
  -8  -3  13    0.20    0.60
   7   3 -13   37.00    1.60
  -7  -3  13   36.60    1.60
  -7  -3  13   39.50    1.90
   6   3 -13   94.29    3.10
   6   3 -13   93.69    2.90
  -6  -3  13   91.09    3.30
  -6  -3  13   95.29    2.90
   5   3 -13    0.20    0.60
   5   3 -13    0.10    0.50
  -5  -3  13    0.20    0.50
   4   3 -13   47.50    1.70
   4   3 -13   46.20    1.90
  -4  -3  13   46.20    1.70
   3   3 -13   19.60    1.20
   3   3 -13   18.50    1.10
  -3  -3  13   19.10    1.10
   2   3 -13   31.40    1.30
   2   3 -13   31.20    1.40
  -2  -3  13   32.00    1.40
   1   3 -13   50.79    1.80
   1   3 -13   51.89    1.80
  -1  -3  13   51.69    1.80
   0   3 -13   -0.20    0.40
   0   3 -13   -0.20    0.50
   0  -3  13   -0.10    0.50
  -1   3 -13    2.10    0.50
  -1   3 -13    2.60    0.50
  -2   3 -13   23.80    1.20
  -2   3 -13   22.90    1.20
   2  -3  13   24.80    1.30
  -3   3 -13   36.40    1.30
  -3   3 -13   33.60    1.50
   3  -3  13   34.40    1.60
  -4   3 -13   40.60    1.60
   4  -3  13   41.70    1.80
  -5   3 -13    0.00    0.60
   5  -3  13    0.50    0.70
  -6   3 -13    0.20    0.60
   6  -3  13    0.10    0.80
  -7   3 -13   27.20    1.50
   7  -3  13   26.50    1.60
   8  -3  13    6.80    1.00
   9  -3  13    6.50    1.10
 -11  -2  13    0.40    1.00
  10   2 -13    0.80    0.80
 -10  -2  13   -1.30    1.00
   9   2 -13   -0.70    0.80
  -9  -2  13    1.10    0.70
  -9  -2  13   -1.50    1.00
   8   2 -13   45.90    1.80
  -8  -2  13   44.50    1.80
  -8  -2  13   45.50    2.20
   7   2 -13    9.40    1.00
  -7  -2  13    6.90    1.00
  -7  -2  13    9.60    1.00
   6   2 -13   60.89    2.10
   6   2 -13   62.89    2.50
  -6  -2  13   61.99    2.40
  -6  -2  13   62.59    2.10
   5   2 -13    5.70    0.80
   5   2 -13    4.40    0.60
  -5  -2  13    6.10    0.80
   4   2 -13    0.90    0.50
   4   2 -13    1.00    0.60
  -4  -2  13    1.80    0.50
   3   2 -13   14.00    1.10
   3   2 -13   13.30    0.90
  -3  -2  13   13.70    1.00
   2   2 -13   47.80    1.80
   2   2 -13   48.70    1.70
  -2  -2  13   48.00    1.70
   1   2 -13    3.70    0.60
   1   2 -13    4.80    0.70
  -1  -2  13    3.30    0.50
   0   2 -13    0.00    0.50
   0   2 -13   -0.30    0.50
   0  -2  13    0.10    0.50
  -1   2 -13   13.30    0.90
  -1   2 -13   13.10    1.00
   1  -2  13   13.50    1.00
  -2   2 -13   45.60    1.60
  -2   2 -13   43.50    1.60
   2  -2  13   47.10    1.90
  -3   2 -13    2.80    0.60
  -3   2 -13    3.20    0.50
   3  -2  13    3.80    0.70
  -4   2 -13   -0.60    0.50
   4  -2  13   -0.80    0.60
  -5   2 -13   38.30    1.60
   5  -2  13   39.90    1.90
  -6   2 -13   46.90    1.80
   6  -2  13   48.10    2.10
   7  -2  13   33.10    1.80
   8  -2  13    1.40    0.90
   9  -2  13    1.90    1.10
  11   1 -13    6.70    1.10
 -11  -1  13    7.40    1.40
  10   1 -13   -0.40    0.80
 -10  -1  13    0.00    1.00
   9   1 -13   11.70    1.70
  -9  -1  13   10.60    1.70
   8   1 -13    8.70    1.10
  -8  -1  13    9.70    1.00
  -8  -1  13    6.20    1.00
   7   1 -13    0.90    0.60
  -7  -1  13    0.50    0.60
  -7  -1  13    0.40    0.80
   6   1 -13    2.00    0.90
   6   1 -13    1.50    0.50
  -6  -1  13    3.00    0.60
  -6  -1  13    2.00    0.80
   5   1 -13    6.10    0.90
   5   1 -13    6.00    0.80
  -5  -1  13    6.80    0.80
   4   1 -13    2.20    0.50
   4   1 -13    2.10    0.60
  -4  -1  13    1.70    0.50
   3   1 -13    3.50    0.60
   3   1 -13    3.60    0.50
  -3  -1  13    3.90    0.60
   2   1 -13   67.59    2.20
   2   1 -13   67.39    2.20
  -2  -1  13   65.29    2.20
   1   1 -13   15.80    1.10
   1   1 -13   17.40    1.00
  -1  -1  13   17.10    1.00
   0   1 -13    0.30    0.40
   0   1 -13   -0.60    0.50
   0  -1  13    0.10    0.50
  -1   1 -13    2.50    0.50
  -1   1 -13    2.50    0.50
   1  -1  13    2.30    0.60
  -2   1 -13    9.10    0.90
  -2   1 -13    8.60    0.90
   2  -1  13    9.40    0.90
  -3   1 -13    1.20    0.50
   3  -1  13    1.20    0.60
  -4   1 -13   97.39    3.00
   4  -1  13  102.09    3.20
  -5   1 -13    3.60    0.60
   5  -1  13    3.20    0.70
  -6   1 -13    7.20    1.00
   6  -1  13    6.00    1.60
   7  -1  13    1.70    0.90
   8  -1  13   13.30    1.60
   9  -1  13    0.90    1.00
  11   0 -13   10.00    1.60
 -11   0  13    6.80    1.20
  10   0 -13  436.16   11.60
 -10   0  13  435.96   11.90
   9   0 -13    1.40    0.80
  -9   0  13    2.10    0.90
   8   0 -13   17.00    1.30
  -8   0  13   15.70    1.70
   7   0 -13   33.40    1.50
  -7   0  13   30.70    1.80
  -7   0  13   32.10    1.40
   6   0 -13    3.80    0.60
  -6   0  13    4.50    0.90
  -6   0  13    4.00    0.60
   5   0 -13    2.40    0.70
   5   0 -13    2.20    0.50
  -5   0  13    3.00    0.50
   4   0 -13   17.00    1.20
   4   0 -13   18.30    1.10
  -4   0  13   19.10    1.00
   3   0 -13    5.80    0.80
   3   0 -13    3.90    0.50
  -3   0  13    5.00    0.80
   2   0 -13    4.10    0.60
   2   0 -13    6.20    0.80
  -2   0  13    4.70    0.70
   1   0 -13    0.40    0.50
   1   0 -13    0.50    0.50
  -1   0  13    0.90    0.50
   0   0 -13   68.29    2.20
   0   0 -13   67.79    2.20
   0   0  13   68.99    2.20
  -1   0 -13   55.49    1.90
  -1   0 -13   55.99    1.90
   1   0  13   57.89    2.00
  -2   0 -13   16.00    1.00
  -2   0 -13   15.50    1.10
   2   0  13   16.90    1.10
  -3   0 -13    5.10    0.90
  -3   0 -13    5.40    0.80
   3   0  13    4.90    0.70
  -4   0 -13    8.10    0.90
   4   0  13   10.00    1.30
  -5   0 -13    0.90    0.50
   5   0  13    0.70    0.60
   6   0  13    1.30    0.80
   8   0  13    2.10    0.90
   9   0  13    1.00    1.00
  11  -1 -13    1.60    0.90
 -11   1  13    2.50    1.10
  10  -1 -13   47.20    2.20
 -10   1  13   52.29    2.60
   9  -1 -13    1.30    0.80
  -9   1  13    3.70    1.00
   8  -1 -13  251.07    6.90
  -8   1  13  248.98    7.10
   7  -1 -13    9.50    1.20
   6  -1 -13   24.20    1.60
  -6   1  13   28.50    1.70
  -6   1  13   25.10    1.20
   5  -1 -13   17.60    1.40
   5  -1 -13   17.70    1.60
  -5   1  13   16.80    1.00
   4  -1 -13  112.29    3.40
   4  -1 -13  110.69    3.30
  -4   1  13  111.99    3.20
   3  -1 -13   13.10    1.00
   3  -1 -13   13.70    1.20
  -3   1  13   14.50    0.90
   2  -1 -13    8.10    0.80
   2  -1 -13    7.20    1.00
  -2   1  13    8.50    0.80
   1  -1 -13    0.60    0.40
   1  -1 -13   -0.30    0.50
  -1   1  13    0.80    0.50
   0  -1 -13   54.39    1.90
   0  -1 -13   54.69    1.90
   0   1  13   55.49    1.90
  -1  -1 -13   21.00    1.10
  -1  -1 -13   20.80    1.20
   1   1  13   21.40    1.20
  -2  -1 -13  285.97    7.50
  -2  -1 -13  273.87    7.40
   2   1  13  283.07    7.70
  -3  -1 -13    0.70    0.50
   3   1  13    1.60    0.70
  -4  -1 -13    8.60    0.90
  -4  -1 -13    9.10    1.10
  -5  -1 -13    0.00    0.70
  -6  -1 -13    0.90    0.80
  -7  -1 -13    0.30    0.90
  -8  -1 -13    2.70    1.00
  -9  -1 -13   -2.20    1.00
  11  -2 -13    5.30    1.10
 -11   2  13    3.70    1.20
  10  -2 -13   20.90    1.60
 -10   2  13   22.00    2.00
   9  -2 -13    6.60    0.90
  -9   2  13    7.00    1.90
   8  -2 -13    8.90    1.30
  -8   2  13    9.10    1.50
   7  -2 -13   27.10    1.50
  -7   2  13   34.70    1.90
  -7   2  13   28.70    1.60
   6  -2 -13    0.40    0.60
  -6   2  13    0.40    0.70
  -6   2  13    0.10    0.80
   5  -2 -13   30.70    1.70
   5  -2 -13   27.00    1.60
  -5   2  13   29.40    1.30
   4  -2 -13   26.80    1.40
   4  -2 -13   23.50    1.50
  -4   2  13   24.30    1.20
   3  -2 -13   69.19    2.20
   3  -2 -13   70.49    2.40
  -3   2  13   65.99    2.20
   2  -2 -13    5.50    0.80
   2  -2 -13    6.00    1.00
  -2   2  13    5.80    0.80
   1  -2 -13    2.80    0.50
   1  -2 -13    2.60    0.60
  -1   2  13    3.20    0.50
   0  -2 -13    3.50    0.70
   0  -2 -13    3.10    0.50
   0   2  13    3.20    0.60
  -1  -2 -13   97.99    3.00
  -1  -2 -13   93.29    2.80
   1   2  13   96.29    3.00
  -2  -2 -13   17.10    1.70
  -2  -2 -13   15.90    1.00
   2   2  13   16.10    1.10
  -3  -2 -13    0.10    0.60
  -3  -2 -13    0.80    0.50
  -3  -2 -13    0.20    0.70
  -4  -2 -13   20.10    1.70
  -4  -2 -13   20.10    1.40
  -4  -2 -13   20.80    1.10
  -5  -2 -13   17.30    1.50
  -6  -2 -13    0.00    0.80
  -7  -2 -13   49.10    2.30
  -8  -2 -13   10.80    1.70
  11  -3 -13    2.00    1.00
 -11   3  13    0.70    1.10
  10  -3 -13    0.50    0.80
 -10   3  13    1.90    1.10
   9  -3 -13   -0.80    0.80
  -9   3  13    2.60    1.00
  -9   3  13   -1.40    1.00
   8  -3 -13   -1.00    0.70
  -8   3  13   -0.80    0.70
  -8   3  13   -0.10    1.00
   7  -3 -13   12.50    1.20
  -7   3  13   14.10    1.70
  -7   3  13   15.50    1.30
   6  -3 -13   49.50    2.10
  -6   3  13   49.99    1.90
  -6   3  13   53.29    2.40
   5  -3 -13   14.40    1.40
   5  -3 -13   13.90    1.20
  -5   3  13   14.70    1.10
  -5   3  13   14.70    1.50
   4  -3 -13  118.69    3.60
   4  -3 -13  119.09    3.60
  -4   3  13  117.29    3.40
  -4   3  13  116.59    3.40
   3  -3 -13    6.50    0.90
   3  -3 -13    6.20    1.10
  -3   3  13    6.20    0.80
   2  -3 -13   13.80    1.30
   2  -3 -13   12.20    1.00
  -2   3  13   13.40    0.90
   1  -3 -13   53.79    2.00
   1  -3 -13   49.90    1.80
  -1   3  13   50.99    1.80
   0  -3 -13   11.80    0.90
   0  -3 -13   12.20    1.20
   0   3  13   12.60    1.00
  -1  -3 -13   76.99    2.60
  -1  -3 -13   74.79    2.40
   1   3  13   76.99    2.50
  -2  -3 -13   46.90    1.70
  -3  -3 -13   13.10    1.00
  -3  -3 -13   13.80    1.30
  -3  -3 -13   14.00    1.50
  -4  -3 -13   26.40    1.60
  -4  -3 -13   29.00    1.60
  -5  -3 -13   32.40    1.80
  -5  -3 -13   30.80    1.70
  -6  -3 -13    1.20    0.90
  -7  -3 -13   19.50    1.80
  -8  -3 -13   48.90    2.40
  11  -4 -13    1.90    1.00
 -11   4  13    1.70    1.20
  10  -4 -13    0.70    0.90
 -10   4  13    0.90    1.10
   9  -4 -13    1.80    0.80
  -9   4  13    3.30    1.00
  -9   4  13    2.20    0.90
   8  -4 -13   28.50    1.60
  -8   4  13   27.60    2.00
  -8   4  13   28.40    1.70
   7  -4 -13   49.20    2.00
  -7   4  13   48.20    2.30
  -7   4  13   45.90    2.00
   6  -4 -13    0.10    0.60
  -6   4  13    0.90    0.70
   5  -4 -13   20.10    1.30
  -5   4  13   18.70    1.30
   4  -4 -13    8.10    1.30
   4  -4 -13    7.70    1.00
  -4   4  13    5.30    0.70
  -4   4  13    6.00    1.00
   3  -4 -13    2.00    0.60
   3  -4 -13    1.50    0.70
  -3   4  13    1.40    0.60
  -3   4  13    1.70    0.50
   2  -4 -13  234.58    6.40
   2  -4 -13  243.08    6.60
  -2   4  13  232.98    6.40
  -2   4  13  236.18    6.40
   1  -4 -13    8.20    0.90
   1  -4 -13   10.00    1.20
  -1   4  13    9.10    0.90
  -1   4  13    7.20    1.10
   0  -4 -13    5.80    0.80
   0  -4 -13    5.30    0.60
   0   4  13    6.00    0.90
  -1  -4 -13   13.30    1.00
  -1  -4 -13   13.10    1.30
   1   4  13   12.70    1.10
  -2  -4 -13   47.20    1.90
  -2  -4 -13   47.30    1.80
  -2  -4 -13   45.30    1.70
  -3  -4 -13    1.70    0.70
  -3  -4 -13    0.70    0.70
  -4  -4 -13   -0.40    0.70
  -4  -4 -13    0.10    0.70
  -5  -4 -13    0.30    0.70
  -5  -4 -13    0.90    0.80
  -6  -4 -13   -0.10    0.90
  -7  -4 -13   17.90    1.80
  10  -5 -13    9.80    1.50
 -10   5  13    7.50    1.30
 -10   5  13   11.40    2.00
   9  -5 -13    1.40    0.80
  -9   5  13    0.40    0.90
  -9   5  13   -0.50    1.00
   8  -5 -13    4.00    0.80
  -8   5  13    1.60    1.40
  -8   5  13    3.30    1.00
   7  -5 -13    2.20    0.80
  -7   5  13    1.00    1.20
  -7   5  13    0.20    0.80
   6  -5 -13   29.00    1.90
  -6   5  13   31.60    1.60
   5  -5 -13    0.60    0.70
  -5   5  13    1.30    0.70
   4  -5 -13   52.99    2.00
   4  -5 -13   53.39    2.30
  -4   5  13   53.09    2.00
   3  -5 -13    1.30    0.60
   3  -5 -13    1.50    0.80
  -3   5  13    1.60    0.60
  -3   5  13    1.70    0.50
   2  -5 -13    7.80    1.00
   2  -5 -13    8.00    0.90
  -2   5  13    8.20    0.90
  -2   5  13    6.40    0.80
   1  -5 -13    0.20    0.70
   1  -5 -13   -0.30    0.50
  -1   5  13   -0.20    0.50
  -1   5  13    0.00    0.60
   0  -5 -13   -0.40    0.70
   0  -5 -13    0.10    0.50
   0   5  13    0.00    0.60
   0   5  13   -0.10    0.60
  -1  -5 -13    0.70    0.50
  -1  -5 -13    0.40    0.70
   1   5  13    1.10    0.60
  -2  -5 -13   18.80    1.50
  -2  -5 -13   17.60    1.20
  -3  -5 -13    8.00    1.00
  -3  -5 -13    7.70    1.00
  -4  -5 -13    1.40    0.80
  -4  -5 -13    1.50    0.80
  -5  -5 -13   -0.30    0.80
  -5  -5 -13    0.10    0.80
  -6  -5 -13    0.90    1.00
  -7  -5 -13   15.10    1.90
  10  -6 -13   -0.30    1.00
 -10   6  13    2.60    1.30
 -10   6  13    0.50    1.30
   9  -6 -13   16.80    1.60
  -9   6  13   18.60    1.80
  -9   6  13   14.60    1.60
   8  -6 -13   35.90    1.90
  -8   6  13   35.50    2.40
  -8   6  13   36.90    2.00
   7  -6 -13   -0.20    0.70
  -7   6  13    1.40    1.40
   6  -6 -13    7.60    1.20
  -6   6  13    5.80    0.90
   5  -6 -13    0.00    0.80
  -5   6  13    0.20    0.70
   4  -6 -13   -0.30    0.70
  -4   6  13   -0.60    0.70
   3  -6 -13    9.60    1.50
   3  -6 -13   10.90    1.10
  -3   6  13   11.00    1.20
   2  -6 -13   22.50    1.30
   2  -6 -13   26.20    1.70
  -2   6  13   25.20    1.50
  -2   6  13   24.70    1.30
   1  -6 -13    2.80    0.80
   1  -6 -13    3.50    0.70
  -1   6  13    3.00    0.70
  -1   6  13    3.10    0.60
   0  -6 -13   18.20    1.50
   0  -6 -13   16.70    1.10
   0   6  13   16.80    1.20
   0   6  13   16.20    1.30
  -1  -6 -13    1.50    0.80
   1   6  13    0.80    0.80
  -2  -6 -13    4.10    0.90
  -2  -6 -13    4.00    1.30
  -3  -6 -13   16.80    1.40
  -3  -6 -13   17.50    1.60
  -4  -6 -13   -0.10    0.80
  -4  -6 -13    0.80    0.90
  -5  -6 -13    0.90    1.00
  -5  -6 -13    0.70    0.80
  -6  -6 -13    7.10    1.20
  -6  -6 -13    8.50    1.00
   9  -7 -13   46.50    2.20
  -9   7  13   42.60    2.80
  -9   7  13   43.10    2.40
   8  -7 -13   43.30    2.10
  -8   7  13   45.50    2.30
   7  -7 -13    0.60    0.80
  -7   7  13    2.30    0.90
   6  -7 -13  207.58    5.80
  -6   7  13  201.78    5.90
   5  -7 -13    1.60    0.70
  -5   7  13   -0.80    0.80
   4  -7 -13   48.20    1.90
  -4   7  13   44.40    2.00
   3  -7 -13   30.30    1.70
   3  -7 -13   33.60    2.10
  -3   7  13   31.50    1.70
   2  -7 -13    6.20    1.00
   2  -7 -13    5.60    0.70
  -2   7  13    4.80    0.90
   1  -7 -13   55.39    2.30
   1  -7 -13   52.19    2.00
  -1   7  13   53.69    2.20
  -1   7  13   53.69    2.40
   0  -7 -13   -0.70    1.60
   0  -7 -13    1.20    0.70
   0   7  13    1.90    0.70
   0   7  13    1.10    0.80
  -1  -7 -13    0.40    0.80
   1   7  13    1.20    0.80
  -2  -7 -13    1.00    0.70
  -2  -7 -13   -0.90    0.80
  -3  -7 -13   30.50    2.00
  -3  -7 -13   30.30    1.70
  -4  -7 -13    9.70    1.50
  -4  -7 -13   12.80    1.70
  -5  -7 -13    0.20    1.00
  -5  -7 -13    0.30    1.00
   8  -8 -13   48.40    2.20
  -8   8  13   45.00    2.50
   7  -8 -13    1.20    0.80
  -7   8  13   -0.30    1.00
   6  -8 -13   17.60    1.60
  -6   8  13   15.80    1.80
   5  -8 -13    5.20    0.90
  -5   8  13    5.60    1.10
   4  -8 -13  353.26    9.40
  -4   8  13  342.17    9.50
   3  -8 -13   50.09    2.10
  -3   8  13   50.89    2.40
   2  -8 -13  150.58    4.20
  -2   8  13  125.79    5.10
   1  -8 -13   12.20    1.80
   1  -8 -13   14.20    1.50
  -1   8  13   11.80    1.50
   0  -8 -13   10.00    1.20
   0   8  13    8.60    1.10
  -1  -8 -13    1.40    1.00
   1   8  13   -0.10    0.90
  -2  -8 -13    3.10    0.80
  -2  -8 -13    3.00    1.00
  -3  -8 -13    1.60    0.90
  -3  -8 -13    2.70    1.00
  -4  -8 -13   31.00    2.00
  -4  -8 -13   31.00    2.20
   7  -9 -13    7.50    1.20
  -7   9  13    8.40    1.30
   6  -9 -13   66.89    2.50
  -6   9  13   59.89    2.80
   5  -9 -13   82.49    2.90
  -5   9  13   80.49    3.10
   4  -9 -13    3.00    0.90
  -4   9  13    2.90    1.10
   3  -9 -13    4.30    0.90
  -3   9  13    2.30    1.10
   2  -9 -13   63.49    2.50
  -2   9  13   64.79    2.70
   1  -9 -13   10.70    1.40
  -1   9  13    9.00    1.20
   0  -9 -13    8.20    1.20
   0   9  13    6.00    1.20
  -1  -9 -13   -0.30    1.00
   1   9  13   -2.10    1.30
  -2  -9 -13    1.90    1.00
  -3  -9 -13   39.50    2.40
  -3  -9 -13   36.00    2.10
   6 -10 -13    2.70    1.00
  -6  10  13    2.10    1.20
   5 -10 -13    7.40    1.10
  -5  10  13   12.60    1.90
   4 -10 -13    9.30    1.50
  -4  10  13    7.40    1.30
  -3  10  13    0.10    1.10
  -2  10  13   -0.10    1.10
   1 -10 -13    3.90    1.80
  -1  10  13    2.60    1.10
   0 -10 -13    9.40    1.40
   0  10  13   11.10    2.00
  -1 -10 -13   55.59    2.80
   2  14 -14   49.99    2.80
  -2 -14  14   46.50    2.50
   1  14 -14    2.80    1.30
   1  14 -14    0.90    1.00
  -1 -14  14   -0.10    1.10
   0  14 -14   17.20    1.70
   0  14 -14   17.30    2.10
   0 -14  14   19.80    1.90
  -1  14 -14    1.60    0.90
  -1  14 -14   -0.20    1.10
   1 -14  14    0.50    1.10
  -2  14 -14    2.40    1.00
  -2  14 -14    1.40    1.10
  -4 -13  14    4.80    1.20
  -3 -13  14   18.10    1.90
   2  13 -14    4.80    1.00
   2  13 -14    3.30    1.20
  -2 -13  14    2.00    1.10
   1  13 -14    2.70    1.20
   1  13 -14    3.80    1.00
  -1 -13  14    3.00    1.00
   0  13 -14    3.70    1.10
   0  13 -14    2.80    1.00
   0 -13  14    3.30    1.00
  -1  13 -14    1.90    0.90
  -1  13 -14    1.00    1.00
   1 -13  14    0.40    1.00
  -2  13 -14   14.00    1.60
  -2  13 -14   12.00    1.80
   2 -13  14   12.50    1.80
  -3  13 -14   26.90    1.80
  -3  13 -14   25.40    1.90
  -4  13 -14   20.50    1.90
  -6 -12  14    4.00    1.20
  -5 -12  14    0.80    1.10
   4  12 -14    4.20    1.40
  -4 -12  14    3.90    1.10
   3  12 -14    4.80    1.00
   3  12 -14    3.10    1.20
  -3 -12  14    5.50    1.10
   2  12 -14    5.80    1.10
   2  12 -14    4.70    0.90
  -2 -12  14    6.50    1.10
   1  12 -14    5.70    1.10
   1  12 -14    5.20    0.90
  -1 -12  14    6.50    1.10
   0  12 -14    3.90    0.90
   0  12 -14    2.00    0.90
   0 -12  14    2.70    1.00
  -1  12 -14    5.70    1.00
  -1  12 -14    6.00    1.00
   1 -12  14    5.30    1.00
  -2  12 -14   12.70    1.60
  -2  12 -14   11.40    1.60
   2 -12  14    9.40    1.20
  -3  12 -14    7.70    0.90
  -3  12 -14   11.10    1.60
   3 -12  14    7.10    1.10
  -4  12 -14   20.60    1.90
   4 -12  14   19.10    2.30
  -5  12 -14   16.80    1.90
  -7 -11  14   15.40    1.90
  -6 -11  14   85.99    3.20
  -5 -11  14    0.00    1.00
   4  11 -14    3.30    1.10
   4  11 -14    2.50    1.10
   4  11 -14    5.40    0.90
  -4 -11  14    3.20    0.90
   3  11 -14   23.70    2.10
   3  11 -14   21.60    1.50
  -3 -11  14   21.10    1.70
   2  11 -14    1.40    0.70
   2  11 -14    0.80    1.00
   1  11 -14    0.90    0.80
   1  11 -14    0.50    1.00
  -1 -11  14    0.10    0.80
   0  11 -14   25.60    1.60
   0  11 -14   27.20    1.90
   0 -11  14   21.40    1.70
  -1  11 -14    3.40    0.90
  -1  11 -14    1.80    0.90
   1 -11  14    2.50    0.90
  -2  11 -14   26.90    1.80
  -2  11 -14   31.70    1.80
   2 -11  14   25.20    1.80
  -3  11 -14   77.49    2.60
  -3  11 -14   74.09    2.80
   3 -11  14   69.99    2.70
  -4  11 -14   78.89    2.90
   4 -11  14   72.79    2.80
  -5  11 -14   11.70    1.60
   5 -11  14    8.60    1.50
  -6  11 -14   11.90    1.80
  -8 -10  14   -1.30    1.10
  -7 -10  14   14.30    1.70
  -6 -10  14    0.80    0.90
   5  10 -14    3.10    0.90
  -5 -10  14    3.70    0.90
   4  10 -14   12.40    1.90
  -4 -10  14   13.90    1.50
   3  10 -14   12.40    1.80
   3  10 -14    9.80    1.50
  -3 -10  14    8.80    1.10
   2  10 -14    2.50    1.00
   2  10 -14    1.60    0.80
  -2 -10  14    2.30    0.90
   1  10 -14    2.30    0.90
  -1 -10  14    1.20    0.80
   0  10 -14   -0.20    1.20
   0  10 -14   -0.90    1.00
   0 -10  14   -0.60    1.00
  -1  10 -14    2.00    0.80
  -1  10 -14    1.60    0.80
   1 -10  14    2.20    1.30
  -2  10 -14   11.40    1.40
   2 -10  14    9.70    1.40
  -3  10 -14    0.90    0.70
  -3  10 -14    1.10    0.80
   3 -10  14    0.70    0.90
  -4  10 -14    2.70    0.80
   4 -10  14    0.50    0.90
  -5  10 -14    6.00    1.10
   5 -10  14    3.10    1.10
  -6  10 -14   31.30    1.90
  -7  10 -14    6.60    1.10
  -9  -9  14    6.40    1.30
  -8  -9  14   -0.30    1.00
  -7  -9  14    0.20    0.90
  -6  -9  14    1.20    0.90
   5   9 -14    7.20    1.20
   5   9 -14    8.30    1.20
  -5  -9  14   10.40    1.40
   4   9 -14    0.90    0.70
   4   9 -14    2.10    0.90
  -4  -9  14    2.40    0.90
   3   9 -14    5.80    1.00
   3   9 -14    4.10    0.80
  -3  -9  14    3.50    1.30
   2   9 -14    2.10    0.70
   2   9 -14    1.40    0.80
  -2  -9  14    2.70    0.80
   1   9 -14   -0.70    0.60
   1   9 -14   -0.60    0.70
  -1  -9  14   -0.70    0.70
   0   9 -14   12.40    1.50
   0   9 -14   12.20    1.50
   0  -9  14   11.10    1.30
  -1   9 -14    1.00    0.70
  -1   9 -14    1.20    0.80
   1  -9  14    0.80    0.80
  -2   9 -14   24.20    2.50
   2  -9  14   22.60    1.60
  -3   9 -14    0.50    0.70
   3  -9  14   -1.70    0.90
  -4   9 -14    1.50    0.80
   4  -9  14   -1.40    0.80
  -5   9 -14    2.10    0.90
  -6   9 -14    1.40    0.90
   6  -9  14    1.20    0.90
  -7   9 -14    2.50    1.00
  -8   9 -14    4.50    1.20
  -9  -8  14    5.60    1.10
  -8  -8  14    5.10    1.00
  -7  -8  14    2.60    0.90
   6   8 -14    9.10    1.30
  -6  -8  14    9.00    1.40
   5   8 -14    4.90    0.80
   5   8 -14    5.20    1.00
  -5  -8  14    5.50    0.90
   4   8 -14   21.60    1.40
   4   8 -14   18.80    1.70
  -4  -8  14   21.50    1.50
   3   8 -14    0.30    0.70
   3   8 -14    1.00    0.60
  -3  -8  14   -0.20    0.90
   2   8 -14   17.90    1.30
   2   8 -14   16.80    1.50
  -2  -8  14   20.00    1.70
   1   8 -14    1.30    0.70
   1   8 -14    1.60    0.70
  -1  -8  14    2.00    0.70
   0   8 -14   41.80    1.90
   0   8 -14   42.40    1.80
   0  -8  14   41.60    1.90
  -1   8 -14   18.70    1.50
   1  -8  14   18.10    1.40
  -2   8 -14    4.00    0.80
   2  -8  14    3.30    0.80
  -3   8 -14   12.70    1.30
   3  -8  14   11.90    1.30
  -4   8 -14    5.40    0.90
   4  -8  14    6.50    1.10
  -5   8 -14    7.10    0.90
   5  -8  14    7.20    1.00
  -6   8 -14    0.30    0.90
   6  -8  14   -1.80    0.90
  -7   8 -14    0.60    1.00
   7  -8  14    1.80    1.00
  -8   8 -14    7.50    1.10
 -10  -7  14   -0.60    0.90
  -9  -7  14   27.80    1.90
  -8  -7  14   97.89    3.30
   7   7 -14   49.80    2.00
  -7  -7  14   46.90    2.10
   6   7 -14   56.39    2.10
  -6  -7  14   56.29    2.30
   5   7 -14    9.20    1.50
   5   7 -14    9.60    1.10
  -5  -7  14    9.90    1.30
   4   7 -14   20.30    1.60
   4   7 -14   22.50    1.30
  -4  -7  14   21.10    1.40
   3   7 -14   -0.30    0.70
   3   7 -14    0.30    0.70
  -3  -7  14   -0.30    0.70
   2   7 -14   82.09    2.90
   2   7 -14   79.89    2.70
   1   7 -14   75.89    2.50
   1   7 -14   74.29    2.70
  -1  -7  14   75.99    2.60
   0   7 -14   24.60    1.40
   0   7 -14   24.30    2.00
   0  -7  14   27.70    1.70
  -1   7 -14   39.80    1.70
  -1   7 -14   38.80    1.70
   1  -7  14   40.10    1.80
  -2   7 -14   38.90    1.70
   2  -7  14   36.00    1.80
  -3   7 -14    3.20    0.80
   3  -7  14    2.50    0.80
  -4   7 -14   15.20    1.40
   4  -7  14   14.40    1.40
  -5   7 -14    0.70    0.70
   5  -7  14   -0.90    0.80
  -6   7 -14    1.50    0.70
   6  -7  14    1.80    0.80
  -7   7 -14    0.50    0.90
   7  -7  14    1.50    0.90
  -8   7 -14   -0.10    0.90
   8  -7  14   -0.50    1.00
 -10  -6  14   10.60    1.60
  -9  -6  14    1.50    0.90
   8   6 -14    2.00    1.40
  -8  -6  14    1.50    0.80
   7   6 -14    2.30    0.70
  -7  -6  14    2.30    0.80
   6   6 -14    1.30    0.60
  -6  -6  14    0.10    0.70
   5   6 -14   36.90    1.90
   5   6 -14   36.20    1.60
  -5  -6  14   34.10    1.70
   4   6 -14    2.20    0.70
   4   6 -14    4.10    0.70
  -4  -6  14    4.00    0.70
   3   6 -14    0.40    0.70
   3   6 -14    0.60    0.70
  -3  -6  14    0.70    0.60
   2   6 -14   10.50    1.00
   2   6 -14   10.40    1.20
  -2  -6  14    9.90    1.10
   1   6 -14   20.60    1.40
   1   6 -14   21.00    1.30
  -1  -6  14   19.20    1.50
   0   6 -14    7.70    1.10
   0   6 -14    8.60    1.10
   0  -6  14    7.30    1.10
  -1   6 -14   -0.80    0.60
  -1   6 -14    0.10    0.60
   1  -6  14   -1.10    0.60
  -2   6 -14    8.40    1.00
  -2   6 -14    7.40    1.10
   2  -6  14    7.70    1.20
  -3   6 -14    0.60    0.60
  -3   6 -14   -0.10    0.50
   3  -6  14   -0.10    0.80
  -4   6 -14   27.20    1.50
   4  -6  14   26.10    1.50
  -5   6 -14   30.40    2.30
   5  -6  14   30.90    2.30
  -6   6 -14   23.20    1.60
   6  -6  14   23.60    1.60
  -7   6 -14    6.00    1.00
   7  -6  14    5.20    1.00
  -8   6 -14    3.40    1.00
   8  -6  14    5.10    1.10
 -10  -5  14   12.00    1.50
  -9  -5  14    3.10    0.90
   8   5 -14    4.60    1.30
  -8  -5  14    5.40    0.90
   7   5 -14    6.70    0.90
  -7  -5  14    7.20    1.20
   6   5 -14    1.50    0.70
  -6  -5  14    2.00    0.70
   5   5 -14    3.80    0.70
   5   5 -14    4.20    0.90
  -5  -5  14    4.00    0.70
   4   5 -14    9.70    1.20
   4   5 -14   10.20    1.20
  -4  -5  14    9.60    1.10
   3   5 -14   69.19    2.50
   3   5 -14   70.99    2.30
  -3  -5  14   68.49    2.40
   2   5 -14   -0.70    0.60
   2   5 -14    0.20    0.60
  -2  -5  14    0.10    0.60
   1   5 -14    8.20    1.00
   1   5 -14   10.00    1.10
  -1  -5  14    9.00    1.00
   0   5 -14   28.20    1.40
   0   5 -14   27.90    1.40
   0  -5  14   27.90    1.50
  -1   5 -14   26.40    1.50
  -1   5 -14   25.50    1.30
   1  -5  14   25.90    1.40
  -2   5 -14    5.50    1.00
  -2   5 -14    6.40    0.90
   2  -5  14    7.00    1.00
  -3   5 -14   51.39    1.70
  -3   5 -14   49.00    2.30
   3  -5  14   50.29    2.00
  -4   5 -14    8.50    1.10
   4  -5  14    8.70    1.30
  -5   5 -14   10.10    1.20
   5  -5  14    7.80    1.20
  -6   5 -14    4.80    0.90
   6  -5  14    3.50    0.90
  -7   5 -14    1.00    0.80
   7  -5  14    1.10    0.90
  -8   5 -14   23.70    1.70
   8  -5  14   24.00    1.80
   9  -5  14    5.30    1.10
 -11  -4  14   -1.80    1.00
 -10  -4  14   22.30    2.30
   9   4 -14   17.20    1.50
  -9  -4  14   17.50    1.50
   8   4 -14    0.10    0.80
  -8  -4  14   -0.70    0.80
   7   4 -14    1.80    0.70
  -7  -4  14    1.10    0.70
   6   4 -14   53.29    2.00
   6   4 -14   47.30    3.20
  -6  -4  14   55.69    2.00
   5   4 -14   15.40    1.10
   5   4 -14   11.50    1.40
  -5  -4  14   13.90    1.10
   4   4 -14  171.58    4.90
   4   4 -14  166.38    4.70
  -4  -4  14  165.88    4.80
   3   4 -14    0.70    0.70
  -3  -4  14    0.30    0.60
   2   4 -14   32.40    1.50
   2   4 -14   31.10    1.40
  -2  -4  14   30.90    1.50
   1   4 -14   -0.10    0.50
   1   4 -14    1.20    0.60
  -1  -4  14    0.20    0.60
   0   4 -14   53.09    2.40
   0   4 -14   57.29    2.30
   0  -4  14   54.29    2.00
  -1   4 -14    9.20    1.00
  -1   4 -14    8.70    1.00
   1  -4  14    9.80    1.10
  -2   4 -14    5.70    1.00
  -2   4 -14    4.60    0.60
   2  -4  14    5.70    1.00
  -3   4 -14    8.20    0.90
  -3   4 -14    6.30    1.00
   3  -4  14    6.70    0.90
  -4   4 -14   34.30    1.50
   4  -4  14   31.50    1.70
  -5   4 -14   67.49    2.40
   5  -4  14   68.39    2.50
  -6   4 -14   39.70    1.90
   6  -4  14   41.00    2.00
  -7   4 -14    4.90    0.90
   7  -4  14    5.40    1.00
   8  -4  14   22.90    1.90
   9  -4  14    3.70    1.10
 -11  -3  14    2.30    1.20
 -10  -3  14    0.30    1.10
   9   3 -14    2.50    0.80
  -9  -3  14    2.80    0.90
   8   3 -14   19.00    1.40
  -8  -3  14   19.40    1.40
   7   3 -14    1.60    0.60
  -7  -3  14    1.00    0.70
   6   3 -14    0.50    0.60
  -6  -3  14   -0.70    0.60
   5   3 -14   35.70    1.60
   5   3 -14   35.60    1.80
  -5  -3  14   35.90    1.60
   4   3 -14   60.49    2.30
   4   3 -14   57.99    2.10
  -4  -3  14   61.49    2.10
   3   3 -14   -0.30    0.60
   3   3 -14    0.00    0.50
  -3  -3  14   -0.10    0.60
   2   3 -14   -0.40    0.50
   2   3 -14    0.30    0.50
  -2  -3  14   -0.60    0.60
   1   3 -14    1.60    0.50
   1   3 -14    1.30    0.60
  -1  -3  14    1.70    0.60
   0   3 -14    2.90    0.70
   0   3 -14    4.40    0.60
   0  -3  14    3.20    0.60
  -1   3 -14    4.10    0.60
  -1   3 -14    3.80    0.60
   1  -3  14    5.40    0.80
  -2   3 -14   48.30    1.80
  -2   3 -14   51.79    1.80
   2  -3  14   51.29    2.10
  -3   3 -14    1.40    0.50
  -3   3 -14    0.70    0.50
   3  -3  14    1.60    0.60
  -4   3 -14    3.80    0.70
   4  -3  14    4.50    0.80
  -5   3 -14    1.80    0.60
   5  -3  14    2.60    0.80
  -6   3 -14   17.70    1.30
   6  -3  14   16.80    1.60
  -7   3 -14   36.10    1.70
   7  -3  14   32.90    2.00
   8  -3  14   72.69    2.90
   9  -3  14    0.10    1.10
 -11  -2  14    1.00    1.20
  10   2 -14   12.10    1.50
 -10  -2  14   13.40    2.20
   9   2 -14    2.70    0.80
  -9  -2  14    1.30    1.90
   8   2 -14   15.70    1.90
  -8  -2  14   15.10    1.20
  -8  -2  14   11.20    1.60
   7   2 -14    0.90    0.70
  -7  -2  14    1.30    0.70
   6   2 -14    1.00    0.60
  -6  -2  14   -0.20    0.60
   5   2 -14    2.00    0.60
   5   2 -14    1.60    0.80
  -5  -2  14    2.20    0.60
   4   2 -14    1.00    0.60
   4   2 -14    1.60    0.70
  -4  -2  14    1.30    0.60
   3   2 -14   10.10    1.20
   3   2 -14    9.70    1.00
  -3  -2  14   10.30    1.00
   2   2 -14   54.89    1.90
   2   2 -14   55.89    2.00
  -2  -2  14   55.49    2.00
   1   2 -14   16.60    1.10
   1   2 -14   15.90    1.20
  -1  -2  14   16.90    1.10
   0   2 -14   -0.10    0.50
   0   2 -14   -0.70    0.50
   0  -2  14    0.10    0.50
  -1   2 -14   13.30    1.00
  -1   2 -14   13.60    1.00
   1  -2  14   13.90    1.10
  -2   2 -14    0.20    0.60
   2  -2  14    0.60    0.60
  -3   2 -14   -0.30    0.50
  -3   2 -14    0.00    0.60
   3  -2  14   -0.20    0.80
  -4   2 -14   -0.90    0.50
   4  -2  14    0.30    0.90
  -5   2 -14    1.80    0.60
   5  -2  14    1.50    1.00
  -6   2 -14    8.40    1.20
   6  -2  14    9.00    1.40
   7  -2  14   29.70    1.90
   8  -2  14   23.20    1.90
   9  -2  14    7.00    1.20
  11   1 -14   22.80    1.90
 -11  -1  14   29.60    2.60
  10   1 -14   -0.70    0.90
 -10  -1  14    0.40    1.10
   9   1 -14    0.70    0.80
  -9  -1  14   -1.90    1.90
   8   1 -14   93.19    3.60
  -8  -1  14  106.79    3.70
  -8  -1  14  113.49    3.80
   7   1 -14    0.70    0.60
  -7  -1  14    0.20    0.60
   6   1 -14    0.80    0.60
  -6  -1  14    0.20    0.50
   5   1 -14   64.79    2.50
   5   1 -14   64.19    2.30
  -5  -1  14   64.79    2.20
   4   1 -14   14.70    1.30
   4   1 -14   14.10    1.10
  -4  -1  14   12.80    1.00
   3   1 -14    3.30    0.60
   3   1 -14    6.60    1.10
  -3  -1  14    5.50    0.90
   2   1 -14    6.40    0.90
   2   1 -14    6.00    1.00
  -2  -1  14    7.10    0.90
   1   1 -14    3.30    0.60
   1   1 -14    2.90    0.60
  -1  -1  14    3.30    0.60
   0   1 -14   49.99    1.80
   0   1 -14   50.19    1.90
   0  -1  14   52.19    1.90
  -1   1 -14   66.59    2.20
  -1   1 -14   66.89    2.20
   1  -1  14   69.49    2.30
  -2   1 -14   22.30    1.20
  -2   1 -14   22.50    1.80
   2  -1  14   22.90    1.40
  -3   1 -14    0.40    0.50
  -3   1 -14    0.10    0.70
   3  -1  14    0.70    0.60
  -4   1 -14    2.00    0.60
   4  -1  14    2.20    0.70
  -5   1 -14    1.80    0.70
   5  -1  14    1.20    0.90
   6  -1  14   51.79    2.30
   7  -1  14    1.20    0.90
   8  -1  14    0.40    0.90
  11   0 -14   -0.70    1.00
 -11   0  14   -0.50    1.10
  10   0 -14    2.50    0.90
 -10   0  14    0.70    1.20
   9   0 -14   19.50    1.50
  -9   0  14   18.90    2.50
   8   0 -14  299.87    8.20
  -8   0  14  299.77    8.40
   7   0 -14   11.70    1.20
  -7   0  14   10.10    1.10
   6   0 -14  508.95   13.40
  -6   0  14  485.35   12.90
   5   0 -14  112.59    3.60
   5   0 -14  111.69    3.40
  -5   0  14  112.09    3.30
   4   0 -14   27.00    1.70
   4   0 -14   24.10    1.50
  -4   0  14   24.50    1.30
   3   0 -14    2.70    0.80
   3   0 -14    2.40    0.60
  -3   0  14    1.90    0.60
   2   0 -14    2.40    0.60
   2   0 -14    2.00    0.70
  -2   0  14    2.50    0.60
   1   0 -14   24.10    1.20
   1   0 -14   24.30    1.30
  -1   0  14   24.90    1.30
   0   0 -14    9.50    0.90
   0   0 -14    9.10    1.50
   0   0  14    9.20    1.00
  -1   0 -14   29.10    1.30
  -1   0 -14   26.40    1.50
   1   0  14   28.30    1.40
  -2   0 -14    1.50    0.70
  -2   0 -14    1.50    0.50
   2   0  14    1.40    0.60
  -3   0 -14   20.60    1.30
  -3   0 -14   19.30    1.20
   3   0  14   20.70    1.40
  -4   0 -14  106.29    3.20
   4   0  14  107.09    3.40
  -5   0 -14    1.50    0.70
   5   0  14    3.50    0.80
   6   0  14    0.60    0.80
   7   0  14   11.30    1.60
   8   0  14    5.60    1.10
  11  -1 -14   26.90    1.90
 -11   1  14   20.60    2.50
  10  -1 -14   13.90    1.50
 -10   1  14   15.80    2.30
   9  -1 -14   22.80    1.60
  -9   1  14   24.50    2.00
   8  -1 -14    0.10    0.70
  -8   1  14    1.60    1.00
   7  -1 -14    1.30    0.80
   6  -1 -14  241.58    6.80
  -6   1  14  242.88    6.50
   5  -1 -14   11.00    1.40
   5  -1 -14    7.80    1.10
  -5   1  14    7.70    1.00
   4  -1 -14   11.40    1.30
   4  -1 -14   11.70    1.00
  -4   1  14   12.60    1.00
   3  -1 -14   75.19    2.50
   3  -1 -14   78.59    2.60
  -3   1  14   74.19    2.40
   2  -1 -14    9.20    1.10
   2  -1 -14    8.80    0.90
  -2   1  14    7.50    0.90
   1  -1 -14    6.80    1.10
   1  -1 -14    6.00    0.90
  -1   1  14    6.50    0.90
   0  -1 -14   34.40    1.60
   0  -1 -14   34.40    1.50
   0   1  14   34.90    1.50
  -1  -1 -14   48.30    1.80
  -1  -1 -14   51.09    1.90
   1   1  14   51.99    1.90
  -2  -1 -14   41.60    1.90
  -2  -1 -14   40.50    1.60
   2   1  14   38.90    1.80
  -3  -1 -14    0.10    0.50
  -3  -1 -14   -0.20    0.70
   3   1  14   -0.50    0.60
  -4  -1 -14   29.60    1.60
  -4  -1 -14   30.00    1.40
   4   1  14   31.70    1.90
   5   1  14    4.60    0.90
   6   1  14   50.39    2.20
   7   1  14   21.50    1.80
   8   1  14    6.80    1.20
  11  -2 -14    3.60    1.10
 -11   2  14    1.80    1.20
  10  -2 -14    9.90    1.50
 -10   2  14    8.50    1.30
   9  -2 -14    0.30    0.70
  -9   2  14    0.30    1.00
   8  -2 -14   40.40    2.00
  -8   2  14   45.10    2.50
   7  -2 -14    1.50    0.90
   6  -2 -14    3.90    0.80
   5  -2 -14   -1.40    0.80
   5  -2 -14    1.20    0.90
  -5   2  14   -0.10    0.50
   4  -2 -14    1.80    0.60
   4  -2 -14    3.20    0.80
  -4   2  14    1.80    0.60
   3  -2 -14    0.80    0.60
   3  -2 -14   -0.10    0.60
  -3   2  14    0.40    0.50
   2  -2 -14   29.00    1.60
   2  -2 -14   28.10    1.30
  -2   2  14   26.80    1.30
   1  -2 -14   68.59    2.40
   1  -2 -14   67.59    2.30
  -1   2  14   69.29    2.30
   0  -2 -14    0.00    0.50
   0  -2 -14   -0.90    0.60
   0   2  14   -0.20    0.50
  -1  -2 -14    7.20    0.90
  -1  -2 -14    9.30    1.30
   1   2  14    7.20    1.00
  -2  -2 -14   10.60    1.00
   2   2  14    7.70    1.10
  -3  -2 -14    0.80    0.50
  -3  -2 -14   -0.40    0.60
   3   2  14    0.20    0.70
  -4  -2 -14    4.40    0.70
   4   2  14    7.50    1.20
  -7  -2 -14   36.90    2.10
  -8  -2 -14   -2.60    1.40
  11  -3 -14   16.20    2.20
 -11   3  14   18.30    2.60
  10  -3 -14    8.40    1.10
 -10   3  14    8.00    1.30
   9  -3 -14    1.20    0.80
  -9   3  14    0.20    1.10
   8  -3 -14   15.10    1.40
   7  -3 -14    0.70    0.80
   6  -3 -14   16.60    1.70
   5  -3 -14   19.40    1.70
   5  -3 -14   17.30    1.30
   4  -3 -14    0.00    0.50
   4  -3 -14   -0.80    0.80
  -4   3  14   -0.60    0.50
   3  -3 -14    0.00    0.50
   3  -3 -14   -0.30    0.60
  -3   3  14    0.00    0.50
   2  -3 -14   14.60    1.40
   2  -3 -14   13.10    1.10
  -2   3  14   13.40    1.00
   1  -3 -14   17.80    1.10
   1  -3 -14   19.00    1.40
  -1   3  14   18.10    1.20
   0  -3 -14  140.19    4.00
   0  -3 -14  142.69    4.20
   0   3  14  139.09    4.10
  -1  -3 -14    0.40    0.50
   1   3  14   -0.70    0.60
  -2  -3 -14    3.60    0.70
  -2  -3 -14    3.60    1.50
   2   3  14    2.80    0.70
  -3  -3 -14   14.40    1.60
  -3  -3 -14   15.40    1.60
   3   3  14   11.90    1.80
  -4  -3 -14   20.70    1.60
  -4  -3 -14   24.60    1.50
  -5  -3 -14   54.89    2.30
  -6  -3 -14   -0.70    0.90
  -7  -3 -14    7.90    1.20
  10  -4 -14   36.00    2.10
 -10   4  14   28.90    2.70
   9  -4 -14    2.80    1.00
  -9   4  14    0.70    1.20
   8  -4 -14   27.20    1.70
   7  -4 -14    3.80    0.80
   6  -4 -14   23.60    1.50
   5  -4 -14   -0.30    0.80
   4  -4 -14    1.60    0.90
   4  -4 -14    1.30    0.60
   3  -4 -14    8.20    1.00
   3  -4 -14   10.10    1.30
  -3   4  14    8.50    1.00
   2  -4 -14   17.20    1.50
   2  -4 -14   17.00    1.20
  -2   4  14   18.10    1.20
   1  -4 -14    0.60    0.80
   1  -4 -14    0.80    0.60
  -1   4  14    0.40    0.60
   0  -4 -14   36.90    1.80
   0  -4 -14   34.60    1.50
   0   4  14   34.30    1.60
  -1  -4 -14    1.90    0.80
  -1  -4 -14    2.70    0.70
   1   4  14    1.90    0.70
  -2  -4 -14   15.80    1.20
  -2  -4 -14   18.00    2.40
   2   4  14   17.80    1.30
  -3  -4 -14    2.20    0.80
  -4  -4 -14    8.50    1.30
  -4  -4 -14    6.50    0.90
  -5  -4 -14    6.00    1.00
  -5  -4 -14    5.90    0.80
  -6  -4 -14    7.00    1.10
  -7  -4 -14    0.50    1.40
  10  -5 -14    0.50    1.00
 -10   5  14    2.60    1.30
  -9   5  14    4.10    2.20
   8  -5 -14   36.60    1.90
   7  -5 -14   -0.50    0.70
   6  -5 -14   43.20    1.90
   5  -5 -14   10.40    1.20
   4  -5 -14    2.90    1.00
   4  -5 -14    1.80    0.70
   3  -5 -14    0.60    0.60
   3  -5 -14    0.30    0.80
   2  -5 -14    6.30    0.90
   2  -5 -14    7.00    0.80
  -2   5  14    6.80    1.00
   1  -5 -14   16.40    1.60
   1  -5 -14   13.40    1.20
  -1   5  14   15.70    1.20
   0  -5 -14  122.89    3.90
   0  -5 -14  121.39    3.60
   0   5  14  125.89    3.70
  -1  -5 -14    0.70    1.00
  -1  -5 -14    0.10    0.60
   1   5  14    0.40    0.70
  -2  -5 -14    1.00    0.80
   2   5  14    0.90    0.70
  -3  -5 -14   10.20    1.30
  -3  -5 -14   12.60    1.50
  -4  -5 -14   27.50    1.70
  -4  -5 -14   29.20    1.80
  -5  -5 -14   -0.20    0.90
  -5  -5 -14    0.40    0.80
  -6  -5 -14    1.00    1.00
   9  -6 -14   -0.30    1.00
   8  -6 -14    0.00    0.90
   7  -6 -14   -1.20    0.80
   6  -6 -14    1.90    0.90
   5  -6 -14    1.80    0.70
   4  -6 -14   34.60    1.70
   3  -6 -14   48.30    2.30
   3  -6 -14   52.79    2.40
   2  -6 -14   11.50    1.20
   2  -6 -14   14.10    1.70
   1  -6 -14    5.60    1.20
   1  -6 -14    6.10    0.80
  -1   6  14    6.80    1.10
   0  -6 -14    1.10    0.90
   0  -6 -14   -0.90    0.70
   0   6  14    0.80    0.70
  -1  -6 -14    2.60    0.90
   1   6  14    4.50    0.90
  -2  -6 -14    7.60    1.10
   2   6  14   11.50    1.40
  -3  -6 -14   12.80    1.70
  -3  -6 -14   12.30    1.40
  -4  -6 -14    2.60    0.90
  -4  -6 -14    2.30    0.90
  -5  -6 -14    4.50    1.00
  -5  -6 -14    5.10    1.00
   8  -7 -14   91.09    3.20
   7  -7 -14    6.50    1.10
   6  -7 -14  109.89    3.60
   5  -7 -14    1.10    0.70
   4  -7 -14    0.10    0.70
   3  -7 -14    5.70    0.80
   2  -7 -14   36.20    1.70
   2  -7 -14   33.10    2.20
   1  -7 -14   10.10    1.70
   1  -7 -14   11.70    1.40
   0  -7 -14   17.20    1.90
   0   7  14   15.50    1.40
  -1  -7 -14    1.40    1.00
   1   7  14    2.50    0.90
  -2  -7 -14    3.30    1.10
   2   7  14    6.10    1.00
  -3  -7 -14   41.00    2.30
  -3  -7 -14   37.10    2.00
  -4  -7 -14    2.50    1.00
   7  -8 -14   57.99    2.50
   6  -8 -14   99.19    3.40
   5  -8 -14    1.00    0.90
   4  -8 -14  184.38    5.30
   3  -8 -14   49.80    2.10
   2  -8 -14   80.69    3.30
   2  -8 -14   79.29    2.80
   1  -8 -14    0.90    1.10
   0  -8 -14   84.99    3.30
  -1  -8 -14   35.10    2.40
  -2  -8 -14    7.00    1.20
   2   8  14   11.10    1.60
  -3  -8 -14   17.30    1.70
  -3  -8 -14   16.60    2.20
   6  -9 -14   10.70    1.60
   5  -9 -14    6.60    1.10
   4  -9 -14   53.09    2.30
   3  -9 -14    5.10    0.90
   1  -9 -14   25.30    2.50
   0  -9 -14   32.20    2.50
  -1  -9 -14   21.70    2.30
   3  13 -15    7.80    1.50
   2  13 -15    2.30    1.00
   2  13 -15    0.30    1.20
  -2 -13  15    1.60    1.10
   1  13 -15   -2.20    1.10
   1  13 -15    2.80    1.00
  -1 -13  15   -1.90    1.00
   0  13 -15    1.00    1.00
   0  13 -15    1.30    1.10
   0 -13  15    1.00    1.10
  -1  13 -15    0.80    0.90
  -1  13 -15   -0.20    1.00
   1 -13  15   -1.00    1.00
  -2  13 -15    0.30    0.90
  -2  13 -15    0.10    1.00
   2 -13  15    1.40    1.10
  -3  13 -15   18.20    2.20
  -3  13 -15   18.40    2.00
  -5 -12  15    5.10    1.30
   4  12 -15   40.80    3.00
  -4 -12  15   38.10    2.30
   3  12 -15   -1.60    1.10
   3  12 -15   -0.10    0.90
  -3 -12  15    1.70    1.00
   2  12 -15    2.20    1.30
   2  12 -15    1.80    0.90
  -2 -12  15    1.70    1.00
   1  12 -15    3.80    1.00
   1  12 -15    5.10    1.20
  -1 -12  15    4.50    1.10
   0  12 -15   12.40    2.00
   0  12 -15   13.80    1.60
   0 -12  15   13.90    1.70
  -1  12 -15    6.70    1.10
  -1  12 -15    4.70    1.00
   1 -12  15    5.00    1.20
  -2  12 -15    5.90    1.10
  -2  12 -15    4.70    1.00
   2 -12  15    4.90    1.10
  -3  12 -15   -1.00    0.80
  -3  12 -15   -0.10    0.90
   3 -12  15   -1.60    1.00
  -4  12 -15    5.70    1.20
   4 -12  15    5.80    1.80
  -6 -11  15    0.50    1.10
  -5 -11  15   24.40    1.90
   4  11 -15   25.70    2.60
   4  11 -15   32.40    1.90
   4  11 -15   25.90    2.40
  -4 -11  15   25.00    1.90
   3  11 -15    1.40    1.10
   3  11 -15    2.40    0.90
   3  11 -15   -0.70    1.00
  -3 -11  15    1.10    0.90
   2  11 -15   12.50    1.50
   2  11 -15   13.70    2.10
  -2 -11  15   11.50    1.60
   1  11 -15   12.20    2.10
   1  11 -15   11.70    1.50
  -1 -11  15   10.60    1.60
   0  11 -15   26.40    2.00
   0  11 -15   25.60    1.80
   0 -11  15   23.10    1.80
  -1  11 -15    2.30    0.90
  -1  11 -15    2.60    1.00
   1 -11  15    2.40    0.90
  -2  11 -15    6.90    1.10
  -2  11 -15   11.00    1.70
   2 -11  15    5.90    1.10
  -3  11 -15    1.90    1.00
  -3  11 -15    0.40    0.70
   3 -11  15   -0.80    0.90
  -4  11 -15    2.00    1.00
   4 -11  15    1.20    1.10
  -5  11 -15   12.00    1.80
  -7 -10  15    0.60    1.00
  -6 -10  15    4.20    1.10
   5  10 -15   -0.20    0.90
  -5 -10  15   -0.10    0.90
   4  10 -15    8.90    1.20
  -4 -10  15   11.90    1.60
   3  10 -15    1.20    0.90
   3  10 -15    2.20    0.80
  -3 -10  15    0.90    0.90
   2  10 -15   -0.40    0.80
   2  10 -15   -0.40    0.80
  -2 -10  15    0.50    0.80
   1  10 -15    0.50    0.80
   1  10 -15   -1.20    0.70
  -1 -10  15    0.50    0.80
   0  10 -15    1.30    0.80
   0  10 -15   -1.00    0.90
   0 -10  15   -0.50    0.90
  -1  10 -15    2.40    0.90
  -1  10 -15    1.70    0.90
   1 -10  15    2.80    1.00
  -2  10 -15    0.50    0.80
  -2  10 -15   -0.70    0.80
   2 -10  15    0.20    0.80
  -3  10 -15    5.90    1.10
   3 -10  15    6.80    1.10
  -4  10 -15   11.20    1.60
   4 -10  15    8.00    1.20
  -5  10 -15   16.90    1.70
   5 -10  15   12.00    1.80
  -6  10 -15   -0.30    1.00
  -8  -9  15   13.90    1.80
  -7  -9  15    0.80    1.00
   6   9 -15   28.60    2.50
  -6  -9  15   26.10    1.80
   5   9 -15   11.40    1.50
   5   9 -15   12.80    1.40
  -5  -9  15   12.60    1.60
   4   9 -15    8.50    1.20
  -4  -9  15    9.80    1.50
   3   9 -15   -0.60    0.70
   3   9 -15   -0.60    1.50
  -3  -9  15   -0.50    0.80
   2   9 -15    4.10    1.00
  -2  -9  15    4.40    0.90
   1   9 -15   -0.60    0.90
   1   9 -15   -0.90    0.80
  -1  -9  15   -0.70    0.80
   0   9 -15   11.20    1.40
   0   9 -15    9.00    1.40
   0  -9  15   10.70    1.40
  -1   9 -15    1.10    0.70
  -1   9 -15    0.40    0.80
  -1   9 -15   -0.70    0.90
   1  -9  15    1.10    0.80
  -2   9 -15   49.90    2.20
  -2   9 -15   54.39    2.20
   2  -9  15   48.20    2.20
   3  -9  15    5.30    1.00
  -4   9 -15   35.60    2.00
   4  -9  15   31.00    1.90
  -5   9 -15    2.90    0.90
   5  -9  15   -1.60    0.90
  -6   9 -15    0.10    0.90
   6  -9  15   -0.30    1.00
  -7   9 -15    0.20    1.00
  -9  -8  15   20.30    2.00
  -8  -8  15    4.60    1.00
  -7  -8  15   78.09    3.00
   6   8 -15    2.40    0.90
  -6  -8  15    2.10    0.90
   5   8 -15   14.60    1.50
   5   8 -15   14.50    1.90
  -5  -8  15   14.70    1.50
   4   8 -15   -0.90    0.80
   4   8 -15    0.20    0.80
  -4  -8  15    0.20    0.80
   3   8 -15   22.70    1.50
   3   8 -15   22.30    1.80
  -3  -8  15   21.20    1.60
   2   8 -15    1.50    0.70
   2   8 -15    0.50    0.70
  -2  -8  15    0.80    1.20
   1   8 -15   19.20    1.50
   1   8 -15   17.00    1.40
  -1  -8  15   20.00    1.50
   0   8 -15    2.90    0.80
   0   8 -15    3.00    0.80
   0  -8  15    3.30    1.00
  -1   8 -15   11.50    1.60
   1  -8  15   13.60    1.60
  -2   8 -15    0.20    0.80
  -2   8 -15   -0.30    0.70
  -2   8 -15    0.70    0.60
   2  -8  15   -2.00    1.20
  -3   8 -15   40.80    1.90
   3  -8  15   36.30    1.90
  -4   8 -15    3.80    0.80
   4  -8  15    2.10    0.90
  -5   8 -15   22.70    1.70
   5  -8  15   20.60    1.70
  -6   8 -15    2.30    0.90
   6  -8  15    0.40    1.00
  -7   8 -15    0.50    0.90
   7  -8  15    0.30    1.10
  -9  -7  15    0.20    1.00
  -8  -7  15   23.90    1.80
   7   7 -15    3.90    0.90
  -7  -7  15    5.00    0.90
   6   7 -15   22.60    1.60
  -6  -7  15   21.10    1.60
   5   7 -15    0.70    0.70
   5   7 -15    1.70    1.00
  -5  -7  15    1.60    0.80
   4   7 -15    5.90    1.00
   4   7 -15    7.50    1.20
  -4  -7  15    5.70    1.30
   3   7 -15   26.90    1.80
   3   7 -15   25.80    1.50
  -3  -7  15   26.20    1.70
   2   7 -15   64.29    2.30
   2   7 -15   61.49    2.40
  -2  -7  15   60.99    2.50
   1   7 -15   21.00    1.40
   1   7 -15   21.30    1.50
  -1  -7  15   21.50    1.70
   0   7 -15  102.09    3.80
   0   7 -15   97.99    3.30
   0  -7  15   97.29    3.20
  -1   7 -15    0.30    0.60
  -1   7 -15    0.40    0.70
   1  -7  15   -0.30    0.90
  -2   7 -15   27.00    1.50
  -2   7 -15   31.20    1.60
   2  -7  15   27.60    1.70
  -3   7 -15    3.70    0.90
   3  -7  15    4.10    1.40
  -4   7 -15    7.80    1.00
   4  -7  15    7.20    1.00
  -5   7 -15   24.10    1.60
   5  -7  15   20.10    1.70
  -6   7 -15    2.70    0.90
   6  -7  15    0.80    0.90
  -7   7 -15    2.70    1.00
   7  -7  15    2.70    1.10
  -8   7 -15    6.30    1.20
   8  -7  15    7.70    1.30
 -10  -6  15    2.00    1.00
  -9  -6  15   23.80    1.80
   8   6 -15   53.39    2.30
  -8  -6  15   50.39    2.30
   7   6 -15   11.80    1.40
  -7  -6  15   11.80    1.40
   6   6 -15    0.00    0.80
  -6  -6  15    0.70    0.80
   5   6 -15    3.40    0.90
   5   6 -15    2.10    0.80
  -5  -6  15    1.60    0.80
   4   6 -15    0.00    0.70
   4   6 -15    0.90    0.70
  -4  -6  15    0.50    0.70
   3   6 -15   34.20    1.80
   3   6 -15   35.20    1.70
  -3  -6  15   35.00    1.70
   2   6 -15   -0.20    0.60
   2   6 -15    0.50    0.70
   1   6 -15   30.80    1.60
   1   6 -15   30.60    1.60
  -1  -6  15   33.60    2.00
   0   6 -15    0.20    0.60
   0   6 -15    0.00    0.60
   0  -6  15   -0.10    0.60
  -1   6 -15    1.00    0.80
   1  -6  15    0.80    0.80
  -2   6 -15    1.60    0.70
  -2   6 -15    2.20    0.60
   2  -6  15    0.90    0.80
  -3   6 -15    2.60    0.80
   3  -6  15    2.20    0.80
  -4   6 -15    3.90    0.80
   4  -6  15    4.50    0.90
  -5   6 -15   34.80    1.80
   5  -6  15   32.10    1.80
  -6   6 -15    4.80    0.90
   6  -6  15    4.50    1.00
  -7   6 -15    2.50    1.00
   7  -6  15    1.30    1.00
  -8   6 -15   -0.20    1.00
   8  -6  15    0.90    1.10
 -10  -5  15   10.60    2.10
  -9  -5  15    1.40    0.90
   8   5 -15    3.30    0.90
  -8  -5  15    3.80    0.90
   7   5 -15   -0.10    0.80
  -7  -5  15    2.00    0.80
   6   5 -15    0.20    0.70
  -6  -5  15    0.30    0.70
   5   5 -15    1.10    0.90
   5   5 -15    0.80    0.60
  -5  -5  15    0.50    0.70
   4   5 -15    0.10    0.70
   4   5 -15    0.50    0.60
  -4  -5  15    0.10    0.60
   3   5 -15    1.00    0.70
   3   5 -15    0.80    0.70
  -3  -5  15    1.60    0.70
   2   5 -15   34.00    1.70
   2   5 -15   31.70    1.70
  -2  -5  15   34.80    1.70
   1   5 -15    4.50    0.80
   1   5 -15    4.20    0.90
  -1  -5  15    5.10    0.90
   0   5 -15    0.80    0.60
   0   5 -15    0.20    0.60
   0  -5  15    0.30    0.70
  -1   5 -15   43.30    2.50
  -1   5 -15   40.00    1.70
   1  -5  15   40.50    1.80
  -2   5 -15   37.40    1.80
   2  -5  15   37.40    1.80
  -3   5 -15   55.19    2.10
   3  -5  15   54.39    2.20
  -4   5 -15    5.40    1.00
   4  -5  15    6.50    1.00
  -5   5 -15    5.70    0.80
   5  -5  15    5.40    1.00
  -6   5 -15    0.90    0.90
   6  -5  15   -0.20    0.90
  -7   5 -15    0.70    0.90
   7  -5  15    0.50    1.00
   8  -5  15    2.40    1.00
   9   4 -15    4.00    0.90
  -9  -4  15    3.50    0.90
   8   4 -15   19.10    1.50
  -8  -4  15   18.30    1.50
   7   4 -15    9.50    1.50
  -7  -4  15    9.30    1.60
   6   4 -15    0.60    0.60
  -6  -4  15   -0.60    0.70
   5   4 -15    1.90    0.90
   5   4 -15    3.60    0.70
  -5  -4  15    3.70    0.70
   4   4 -15   83.09    2.90
   4   4 -15   84.79    2.70
  -4  -4  15   83.59    2.80
   3   4 -15   48.60    2.10
   3   4 -15   51.79    2.10
  -3  -4  15   51.99    2.00
   2   4 -15  136.09    4.10
   2   4 -15  143.39    4.20
  -2  -4  15  141.29    4.20
   1   4 -15    0.30    1.10
   1   4 -15    0.10    0.60
  -1  -4  15   -0.30    0.60
   0   4 -15    8.40    1.10
   0   4 -15    6.40    0.80
   0  -4  15    9.80    1.20
  -1   4 -15   -0.10    0.60
  -1   4 -15   -0.60    0.50
   1  -4  15    0.30    0.70
  -2   4 -15    0.50    0.70
   2  -4  15    0.00    0.70
  -3   4 -15    4.30    0.80
   3  -4  15    4.10    0.80
  -4   4 -15   18.00    1.30
   4  -4  15   19.70    2.10
  -5   4 -15   -0.60    0.70
   5  -4  15    0.50    0.80
  -6   4 -15    5.70    0.90
   6  -4  15    4.30    1.00
  -7   4 -15   17.70    1.60
   7  -4  15   22.30    1.80
   8  -4  15   13.10    1.90
  10   3 -15   15.90    1.80
   9   3 -15   -1.00    0.80
   8   3 -15    8.20    1.00
  -8  -3  15    9.80    1.30
   7   3 -15    7.60    1.10
  -7  -3  15    8.70    1.20
   6   3 -15    0.30    0.70
  -6  -3  15    0.40    0.60
   5   3 -15    4.30    0.80
  -5  -3  15    3.90    0.70
   4   3 -15   11.40    1.20
   4   3 -15    9.30    1.40
  -4  -3  15   12.80    1.20
   3   3 -15   -0.50    0.60
  -3  -3  15   -0.50    0.60
   2   3 -15   -0.40    0.70
   2   3 -15   -0.50    0.60
  -2  -3  15   -0.10    0.60
   1   3 -15   21.60    1.30
   1   3 -15   19.20    1.40
  -1  -3  15   20.80    1.30
   0   3 -15   37.50    1.60
   0   3 -15   39.10    2.10
   0  -3  15   38.60    1.70
  -1   3 -15   -0.10    0.60
  -1   3 -15   -0.50    0.60
   1  -3  15   -0.20    0.60
  -2   3 -15    0.10    0.60
   2  -3  15    0.30    0.60
  -3   3 -15   10.90    1.10
  -3   3 -15   10.20    1.10
   3  -3  15   11.10    1.30
  -4   3 -15   29.80    1.50
   4  -3  15   28.90    2.20
  -5   3 -15    6.80    1.00
   5  -3  15    9.00    1.40
  -6   3 -15    0.50    0.80
   6  -3  15    3.30    0.90
   7  -3  15    7.10    1.20
   8  -3  15   13.50    1.90
  10   2 -15   -1.00    1.00
   9   2 -15    6.40    1.00
   8   2 -15    0.50    0.80
  -8  -2  15   -0.40    0.70
   7   2 -15    0.40    0.70
  -7  -2  15    0.80    0.70
   6   2 -15    0.30    0.70
  -6  -2  15    0.90    0.70
   5   2 -15    0.10    0.60
  -5  -2  15    0.00    0.60
   4   2 -15   28.90    1.50
   4   2 -15   26.30    1.70
  -4  -2  15   30.10    1.50
   3   2 -15   66.49    2.50
   3   2 -15   66.89    2.50
  -3  -2  15   68.19    2.30
   2   2 -15    6.60    0.90
  -2  -2  15    7.10    1.00
   1   2 -15    2.80    0.70
   1   2 -15    2.80    0.70
  -1  -2  15    3.20    0.70
   0   2 -15   20.40    1.80
   0   2 -15   22.60    1.30
   0  -2  15   22.10    1.40
  -1   2 -15   -0.50    0.60
  -1   2 -15    0.40    0.60
   1  -2  15    0.10    0.60
  -2   2 -15    9.80    1.10
  -2   2 -15   10.50    1.10
   2  -2  15   10.00    1.20
  -3   2 -15   13.30    1.20
  -3   2 -15   12.80    1.10
   3  -2  15   12.30    1.30
  -4   2 -15   34.00    1.60
   4  -2  15   34.00    1.90
  -5   2 -15    1.50    0.70
   5  -2  15    2.20    0.90
  -6   2 -15    5.50    0.90
   6  -2  15    5.40    1.00
   7  -2  15   -0.80    1.00
   8  -2  15    6.80    1.20
  10   1 -15   36.70    2.00
   9   1 -15    5.30    0.90
   8   1 -15    1.10    0.80
   7   1 -15   10.70    1.30
  -7  -1  15   11.60    1.20
   6   1 -15   60.69    2.20
  -6  -1  15   58.99    2.10
   5   1 -15   34.50    2.00
   5   1 -15   35.30    1.60
  -5  -1  15   35.30    1.60
   4   1 -15   14.80    1.20
   4   1 -15   15.60    1.50
  -4  -1  15   17.30    1.20
   3   1 -15   -0.10    0.60
   3   1 -15    0.80    0.70
  -3  -1  15    0.70    0.60
   2   1 -15    2.70    0.60
   2   1 -15    2.70    0.70
  -2  -1  15    2.70    0.70
   1   1 -15    9.40    1.20
   1   1 -15   10.40    1.00
  -1  -1  15    9.30    1.10
   0   1 -15    3.50    0.90
   0   1 -15    4.80    0.70
   0  -1  15    3.30    0.70
  -1   1 -15   43.20    1.70
   1  -1  15   43.60    1.80
  -2   1 -15    0.50    0.70
  -2   1 -15    0.00    0.60
   2  -1  15    0.70    0.70
  -3   1 -15    2.90    0.70
  -3   1 -15    1.50    0.60
   3  -1  15    3.50    0.80
  -4   1 -15   -0.50    0.60
   4  -1  15    1.10    0.80
  -5   1 -15    1.60    0.70
   5  -1  15    2.40    0.80
   6  -1  15    0.80    1.00
   7  -1  15   14.10    1.70
   8  -1  15    0.50    1.20
  10   0 -15   -1.70    0.90
   9   0 -15   43.50    2.10
   8   0 -15   92.09    3.10
   7   0 -15    4.20    0.80
   6   0 -15  100.89    3.40
  -6   0  15  103.59    3.20
   5   0 -15    2.20    0.90
   5   0 -15    2.20    0.80
  -5   0  15    2.10    0.60
   4   0 -15  637.04   16.90
   4   0 -15  634.84   16.60
  -4   0  15  640.04   16.50
   3   0 -15   16.30    1.20
   3   0 -15   15.70    1.40
  -3   0  15   16.20    1.20
   2   0 -15   44.30    1.80
   2   0 -15   45.60    1.90
  -2   0  15   44.90    1.80
   1   0 -15   14.60    1.10
   1   0 -15   12.40    1.30
  -1   0  15   14.60    1.20
   0   0 -15   11.30    1.10
   0   0  15   13.30    1.10
  -1   0 -15    2.50    0.60
   1   0  15    3.10    1.00
  -2   0 -15   16.50    1.20
   2   0  15   14.20    1.40
  -3   0 -15    1.50    0.80
  -3   0 -15    0.40    0.60
   3   0  15   -0.10    0.80
  -4   0 -15    2.00    0.70
   4   0  15    2.90    0.90
   5   0  15    1.40    0.80
   6   0  15   17.60    1.70
   7   0  15   16.20    1.80
  10  -1 -15   11.00    1.60
   9  -1 -15   -0.30    0.80
   8  -1 -15    9.20    1.10
   7  -1 -15   30.40    1.70
   6  -1 -15  146.29    4.50
   5  -1 -15   10.60    1.50
   5  -1 -15    7.50    1.00
  -5   1  15    6.00    0.80
   4  -1 -15   72.59    2.60
   4  -1 -15   69.39    2.50
  -4   1  15   66.59    2.30
   3  -1 -15    5.90    0.90
   3  -1 -15    5.60    0.80
  -3   1  15    4.70    0.70
   2  -1 -15  114.39    3.60
   2  -1 -15  116.49    3.60
  -2   1  15  110.09    3.40
   1  -1 -15  100.89    3.10
   1  -1 -15   98.99    3.20
  -1   1  15   99.49    3.10
   0  -1 -15    0.00    0.70
   0  -1 -15    1.00    0.60
   0   1  15    0.10    0.60
  -1  -1 -15   15.70    1.20
  -1  -1 -15   13.70    1.30
   1   1  15   14.70    1.30
  -2  -1 -15   12.20    1.10
  -2  -1 -15   11.40    1.30
   2   1  15   11.40    1.40
  -3  -1 -15    4.80    0.80
  -3  -1 -15    4.50    0.70
   3   1  15    4.40    0.90
  -4  -1 -15    0.00    0.70
   4   1  15   -0.20    0.80
   5   1  15    2.80    0.90
   6   1  15    3.40    1.00
   7   1  15    9.60    1.30
  10  -2 -15    6.70    1.10
   9  -2 -15   14.10    1.50
   8  -2 -15    6.90    0.90
   7  -2 -15   -0.50    0.70
   6  -2 -15    0.90    0.70
   5  -2 -15   11.40    1.60
   5  -2 -15   10.90    1.40
  -5   2  15   10.80    1.20
   4  -2 -15   50.79    2.20
   4  -2 -15   49.10    2.00
  -4   2  15   45.10    1.80
   3  -2 -15    0.60    0.70
   3  -2 -15    0.00    0.60
  -3   2  15    0.40    0.60
   2  -2 -15    1.40    0.60
   2  -2 -15    2.20    0.80
  -2   2  15    1.90    0.60
   1  -2 -15    7.30    1.10
   1  -2 -15    6.30    0.90
  -1   2  15    8.60    1.10
   0  -2 -15    1.90    0.60
   0  -2 -15    0.80    0.70
   0   2  15    1.70    0.70
  -1  -2 -15    4.00    1.30
  -1  -2 -15    2.70    0.60
   1   2  15    2.30    0.70
  -2  -2 -15    2.50    0.70
   2   2  15    2.70    0.90
  -3  -2 -15   22.70    1.50
  -3  -2 -15   23.40    1.40
   3   2  15   22.10    1.50
  -4  -2 -15    7.30    1.30
   4   2  15    8.00    1.00
   5   2  15   22.70    1.80
   6   2  15   13.70    1.70
   7   2  15    0.30    1.10
  10  -3 -15    3.40    1.10
   9  -3 -15    3.10    1.00
   8  -3 -15   -0.50    0.80
   7  -3 -15    2.70    0.80
   6  -3 -15    2.90    0.70
   5  -3 -15    0.80    0.80
   4  -3 -15    0.60    0.60
   4  -3 -15    0.70    0.90
  -4   3  15    0.50    0.60
   3  -3 -15   -0.90    0.80
   3  -3 -15   -0.70    0.70
  -3   3  15   -0.60    0.60
   2  -3 -15   46.80    2.10
   2  -3 -15   45.60    1.80
  -2   3  15   44.90    1.80
   1  -3 -15   12.20    1.40
   1  -3 -15   12.20    1.20
  -1   3  15   13.50    1.20
   0  -3 -15    1.40    0.80
   0  -3 -15    2.40    0.70
   0   3  15    1.40    0.70
  -1  -3 -15    7.20    1.10
   1   3  15    7.70    1.20
  -2  -3 -15   34.60    1.80
  -2  -3 -15   31.80    1.50
   2   3  15   31.40    1.70
  -3  -3 -15    9.00    1.30
   3   3  15    8.50    1.40
  -4  -3 -15    0.20    0.70
   4   3  15    0.90    0.80
   5   3  15    0.80    0.90
   6   3  15    6.50    1.10
   9  -4 -15    3.60    1.00
   8  -4 -15    0.20    0.80
   7  -4 -15    5.90    0.90
   6  -4 -15   75.79    2.70
   5  -4 -15   31.90    1.70
   4  -4 -15   -0.30    0.60
   4  -4 -15    0.60    0.90
   3  -4 -15   10.90    1.40
   3  -4 -15   14.60    1.60
  -3   4  15   14.30    1.20
   2  -4 -15    0.30    0.70
   2  -4 -15    0.80    0.90
  -2   4  15    0.80    0.60
   1  -4 -15    0.80    0.80
   1  -4 -15    0.00    0.60
  -1   4  15   -0.20    0.70
   0  -4 -15   12.90    1.40
   0   4  15   11.60    1.30
  -1  -4 -15   28.50    1.70
  -1  -4 -15   25.60    1.50
   1   4  15   22.80    1.70
  -2  -4 -15   16.10    1.50
   2   4  15   16.20    1.40
  -3  -4 -15    4.50    0.90
   3   4  15    4.90    0.90
  -4  -4 -15   19.60    1.60
   4   4  15   19.60    1.70
   5   4  15    2.90    1.00
   6   4  15   16.50    2.40
   9  -5 -15   14.90    1.80
   8  -5 -15   11.20    1.60
   7  -5 -15   -1.40    0.70
   6  -5 -15    0.50    0.80
   5  -5 -15    0.00    0.70
   4  -5 -15    3.80    0.80
   4  -5 -15    2.70    1.20
   3  -5 -15   26.30    1.60
   3  -5 -15   33.60    2.00
   2  -5 -15    2.10    0.90
   2  -5 -15    3.30    1.20
  -2   5  15    3.20    0.80
   1  -5 -15    3.60    1.00
   1  -5 -15    4.70    1.30
  -1   5  15    5.00    0.80
   0  -5 -15   21.90    1.70
   0  -5 -15   20.20    1.40
   0   5  15   17.10    2.20
  -1  -5 -15   10.00    1.50
   1   5  15    9.30    1.30
  -2  -5 -15   57.79    2.40
   2   5  15   56.89    2.40
  -3  -5 -15    1.90    0.80
   3   5  15    0.40    0.90
  -4  -5 -15   -0.10    0.90
   4   5  15    1.00    0.90
  -5  -5 -15    3.40    0.90
   5   5  15    5.10    1.10
   8  -6 -15   20.70    1.70
   7  -6 -15    2.20    1.00
   6  -6 -15    1.40    0.80
   5  -6 -15    0.10    0.80
   4  -6 -15    5.40    0.80
   3  -6 -15   38.50    1.90
   3  -6 -15   39.90    2.30
   2  -6 -15   22.10    1.90
   2  -6 -15   19.70    1.50
   1  -6 -15   21.20    1.90
   1  -6 -15   22.00    1.50
   0  -6 -15   -1.30    0.80
   0  -6 -15   -0.90    1.10
   0   6  15    0.60    0.80
  -1  -6 -15    3.70    1.00
   1   6  15    4.00    0.90
   2   6  15   -0.40    0.90
  -3  -6 -15    6.10    1.10
   3   6  15   10.70    1.60
  -4  -6 -15    2.20    0.90
   4   6  15    1.60    1.00
   7  -7 -15   20.00    1.80
   6  -7 -15    8.00    1.10
   5  -7 -15    5.10    0.90
   4  -7 -15  265.07    7.30
   3  -7 -15   10.20    1.40
   2  -7 -15  158.18    4.90
   2  -7 -15  152.38    4.60
   1  -7 -15    2.10    1.30
   1  -7 -15    1.60    1.10
   0  -7 -15   33.70    3.90
  -1  -7 -15   30.60    2.10
   1   7  15   29.80    1.80
  -2  -7 -15    1.10    1.10
   2   7  15    2.10    1.00
  -3  -7 -15    0.20    1.10
   3   7  15    2.10    1.00
   6  -8 -15   -1.30    0.90
   5  -8 -15   24.80    1.80
   4  -8 -15    4.30    1.00
   3  -8 -15    4.40    1.00
   2  -8 -15  263.37    7.60
   1  -8 -15   -0.10    1.20
   0  -8 -15   31.10    2.30
  -1  -8 -15    0.70    1.20
   1  13 -16    2.40    1.10
   0  13 -16    6.60    1.40
   0 -13  16    3.90    1.50
   4  12 -16    0.80    1.50
   3  12 -16    4.90    1.40
   3  12 -16    4.80    1.10
  -3 -12  16    6.20    1.20
   2  12 -16    5.00    1.30
   2  12 -16    3.60    1.00
  -2 -12  16    3.30    1.20
   1  12 -16   -1.00    1.10
   1  12 -16    0.50    1.00
  -1 -12  16   -1.20    1.10
   0  12 -16    0.40    1.10
   0  12 -16    0.70    1.00
   0 -12  16   -0.40    1.00
  -1  12 -16    7.40    1.20
  -1  12 -16    6.50    1.20
   1 -12  16    4.90    1.20
  -2  12 -16    2.10    0.90
  -2  12 -16    1.00    1.00
   2 -12  16    0.90    1.10
  -3  12 -16   -0.70    1.10
   3 -12  16   -1.00    1.10
  -5 -11  16    0.50    1.10
   4  11 -16    6.10    1.30
   4  11 -16    6.10    1.50
  -4 -11  16    6.80    1.20
   3  11 -16    0.40    1.10
   3  11 -16    1.20    1.20
   3  11 -16    3.10    1.00
  -3 -11  16    1.90    1.10
   2  11 -16    1.50    1.20
  -2 -11  16    1.70    1.00
   1  11 -16    2.30    1.20
   1  11 -16    2.30    0.90
  -1 -11  16    1.80    1.00
   0  11 -16   18.90    1.70
   0  11 -16   20.80    2.10
   0 -11  16   16.80    1.80
  -1  11 -16   -0.70    1.00
  -1  11 -16    0.80    0.90
   1 -11  16   -1.40    1.00
  -2  11 -16   12.30    1.80
  -2  11 -16   14.40    1.90
   2 -11  16   11.10    1.80
  -3  11 -16    2.20    1.00
   3 -11  16    0.40    1.00
  -4  11 -16    5.30    1.20
   4 -11  16    4.70    1.30
  -6 -10  16   -0.30    1.00
   5  10 -16   -0.40    1.00
  -5 -10  16   -0.30    0.90
   4  10 -16   46.00    2.70
   4  10 -16   51.69    2.20
  -4 -10  16   47.00    2.40
   3  10 -16    4.30    1.10
   3  10 -16    6.90    1.00
  -3 -10  16    4.50    1.10
   2  10 -16    4.90    1.00
   2  10 -16    4.80    1.00
  -2 -10  16    5.90    1.10
   1  10 -16    6.40    1.10
   1  10 -16    7.70    1.10
  -1 -10  16    6.10    1.10
   0  10 -16    4.10    0.90
   0  10 -16    4.10    1.10
   0 -10  16    1.60    1.00
  -1  10 -16    0.10    1.00
  -1  10 -16    0.00    0.90
   1 -10  16    0.10    0.90
  -2  10 -16   12.00    1.70
  -2  10 -16   11.70    1.70
   2 -10  16    9.80    1.60
  -3  10 -16    2.40    0.90
   3 -10  16    0.90    1.00
  -4  10 -16    3.00    1.00
   4 -10  16    0.90    1.00
  -5  10 -16    9.40    1.30
   5 -10  16    7.50    1.30
  -7  -9  16    2.30    1.10
   6   9 -16    7.60    1.40
  -6  -9  16    8.00    1.10
   5   9 -16   10.20    1.40
   5   9 -16   11.90    1.50
  -5  -9  16   13.30    1.70
   4   9 -16    7.90    1.20
   4   9 -16    8.60    1.10
  -4  -9  16    8.50    1.10
   3   9 -16    2.10    0.80
   3   9 -16    0.30    1.00
  -3  -9  16    1.10    1.00
   2   9 -16    0.30    0.80
   2   9 -16   -0.20    0.90
  -2  -9  16    1.40    0.90
   1   9 -16   16.50    1.60
   1   9 -16   16.60    1.70
  -1  -9  16   17.20    1.70
   0   9 -16    0.10    0.80
   0   9 -16   -0.30    0.80
   0  -9  16   -0.20    0.90
  -1   9 -16    4.50    1.00
  -1   9 -16    4.70    0.90
  -1   9 -16    4.00    1.00
   1  -9  16    4.60    1.10
  -2   9 -16   -0.20    0.80
  -2   9 -16   -0.40    0.90
   2  -9  16   -0.50    0.90
  -3   9 -16    1.00    1.00
   3  -9  16   -0.80    0.90
  -4   9 -16   16.90    1.80
   4  -9  16   11.50    1.40
   5  -9  16    9.70    1.30
  -6   9 -16    2.00    1.10
   6  -9  16    0.70    1.20
  -8  -8  16  143.19    4.60
  -7  -8  16   17.00    1.80
   6   8 -16   87.09    3.10
  -6  -8  16   86.69    3.20
   5   8 -16   27.40    2.40
   5   8 -16   30.50    1.80
  -5  -8  16   27.60    1.90
   4   8 -16   -1.00    0.90
   4   8 -16    0.90    0.80
  -4  -8  16   -0.10    0.80
   3   8 -16    4.30    0.90
   3   8 -16    3.40    1.00
  -3  -8  16    4.80    1.00
   2   8 -16   13.20    1.60
   2   8 -16   11.40    1.40
  -2  -8  16   13.00    1.50
   1   8 -16    1.70    0.80
   1   8 -16    0.50    0.80
  -1  -8  16    2.30    0.90
   0   8 -16    8.70    1.40
   0   8 -16   10.60    1.50
   0  -8  16    9.40    1.50
  -1   8 -16    0.70    0.80
  -1   8 -16    0.20    0.70
   1  -8  16    1.20    0.80
  -2   8 -16    9.30    1.60
  -2   8 -16   10.40    1.50
   2  -8  16    6.70    1.10
  -3   8 -16    2.50    0.90
   3  -8  16    2.30    0.90
  -4   8 -16    0.90    0.90
   4  -8  16    0.10    0.90
  -5   8 -16   -0.40    0.90
   5  -8  16   -1.30    1.00
  -6   8 -16    2.60    1.00
   6  -8  16    2.60    1.10
  -8  -7  16   25.40    1.90
   7   7 -16   75.29    2.80
  -7  -7  16   73.39    2.80
   6   7 -16  147.19    4.40
  -6  -7  16  145.39    4.60
   5   7 -16   26.10    1.70
   5   7 -16   24.90    3.60
  -5  -7  16   26.60    1.80
   4   7 -16   28.90    2.30
   4   7 -16   27.60    1.70
  -4  -7  16   29.30    1.80
   3   7 -16   14.10    1.40
   3   7 -16   14.40    1.80
  -3  -7  16   13.60    1.50
   2   7 -16    7.50    1.10
   2   7 -16    9.20    1.60
  -2  -7  16   10.10    1.30
   1   7 -16   62.19    3.30
   1   7 -16   62.99    2.60
  -1  -7  16   66.39    2.50
   0   7 -16   26.10    1.60
   0   7 -16   22.40    2.10
   0  -7  16   25.50    1.70
  -1   7 -16    1.70    0.70
  -1   7 -16    1.50    0.80
   1  -7  16    1.20    0.90
  -2   7 -16   21.80    1.60
  -2   7 -16   21.20    1.50
   2  -7  16   18.50    1.60
  -3   7 -16    4.40    0.90
   3  -7  16    3.20    0.90
  -4   7 -16   69.19    2.70
   4  -7  16   67.89    2.70
  -5   7 -16   11.30    1.50
   5  -7  16    7.10    1.10
  -6   7 -16   35.10    2.10
   6  -7  16   32.50    2.10
  -7   7 -16    3.10    1.10
   7  -7  16    4.60    1.20
  -9  -6  16    4.10    1.10
   8   6 -16   -0.30    1.00
  -8  -6  16    0.10    0.90
   7   6 -16    5.30    1.00
  -7  -6  16    7.80    1.10
   6   6 -16    0.40    0.90
  -6  -6  16    1.50    0.90
   5   6 -16    4.60    1.00
   5   6 -16    3.50    0.80
  -5  -6  16    3.70    0.90
   4   6 -16   -0.40    0.90
   4   6 -16    0.70    0.80
  -4  -6  16    0.60    0.80
   3   6 -16    0.30    0.80
   3   6 -16    0.60    0.90
  -3  -6  16    0.80    1.30
   2   6 -16   11.20    1.40
   2   6 -16    9.30    1.10
  -2  -6  16    9.40    1.40
   1   6 -16   -0.70    0.70
   1   6 -16   -0.30    0.70
  -1  -6  16   -0.30    0.70
   0   6 -16    3.00    0.80
   0   6 -16    3.40    0.80
   0  -6  16    2.40    1.30
  -1   6 -16    1.50    1.20
   1  -6  16    2.00    1.10
  -2   6 -16    9.60    1.20
  -2   6 -16    8.50    1.30
   2  -6  16   10.40    1.40
  -3   6 -16    0.60    0.90
   3  -6  16    0.00    0.80
  -4   6 -16    3.40    0.80
   4  -6  16    3.10    0.90
  -5   6 -16   23.30    1.60
   5  -6  16   17.40    1.70
  -6   6 -16    0.60    1.00
   6  -6  16    2.30    1.00
  -7   6 -16    1.00    1.00
   7  -6  16    1.90    1.10
  -9  -5  16   -0.90    1.00
   8   5 -16   -0.70    0.90
  -8  -5  16    0.00    0.90
   7   5 -16    1.80    0.90
  -7  -5  16    3.30    0.90
   6   5 -16    1.80    0.80
  -6  -5  16    1.80    0.80
   5   5 -16    0.60    1.00
   5   5 -16    0.90    0.70
  -5  -5  16    0.50    0.70
   4   5 -16    5.30    0.90
   4   5 -16    5.50    0.90
  -4  -5  16    4.50    0.90
   3   5 -16    2.80    0.80
   3   5 -16    3.20    0.80
  -3  -5  16    4.40    0.90
   2   5 -16   30.30    1.60
   2   5 -16   26.90    1.70
  -2  -5  16   28.40    1.60
   1   5 -16    2.00    0.70
   1   5 -16    2.00    0.80
  -1  -5  16    3.50    0.80
   0   5 -16    8.30    1.20
   0   5 -16    6.20    0.80
   0  -5  16    6.10    0.90
  -1   5 -16    1.30    0.80
  -1   5 -16    0.30    0.70
   1  -5  16   -0.10    0.80
  -2   5 -16    0.20    0.70
  -2   5 -16    0.90    1.40
   2  -5  16    1.00    0.80
  -3   5 -16   15.90    1.40
   3  -5  16   16.80    1.50
  -4   5 -16    0.60    0.70
   4  -5  16    1.60    0.90
  -5   5 -16   12.20    1.50
   5  -5  16   10.90    1.60
  -6   5 -16    4.50    1.00
   6  -5  16    5.10    1.10
  -7   5 -16    9.20    1.20
   7  -5  16   10.90    1.80
   9   4 -16    3.50    1.10
  -9  -4  16   -1.30    1.20
   8   4 -16   19.60    1.60
  -8  -4  16   20.00    1.60
   7   4 -16    4.80    1.00
  -7  -4  16    5.90    1.00
   6   4 -16    1.70    0.90
  -6  -4  16    1.60    0.80
   5   4 -16    2.00    0.90
   5   4 -16    4.30    1.10
  -5  -4  16    4.00    0.80
   4   4 -16    8.40    1.20
  -4  -4  16    9.40    1.20
   3   4 -16   19.00    1.30
   3   4 -16   14.20    1.60
  -3  -4  16   20.20    1.40
   2   4 -16   10.50    1.40
   2   4 -16    7.60    0.90
  -2  -4  16   10.40    1.20
   1   4 -16    2.40    0.70
   1   4 -16    1.80    0.70
  -1  -4  16    2.60    0.70
   0   4 -16   39.50    1.80
   0   4 -16   38.70    2.30
   0  -4  16   39.00    1.90
  -1   4 -16    0.40    0.70
  -1   4 -16    0.20    0.70
   1  -4  16    1.10    0.70
  -2   4 -16   76.79    2.60
   2  -4  16   70.29    3.40
  -3   4 -16    1.70    0.80
   3  -4  16    1.60    0.80
  -4   4 -16   -0.10    0.70
   4  -4  16    1.40    0.90
  -5   4 -16    2.20    0.90
   5  -4  16    0.90    0.90
  -6   4 -16   12.50    1.60
   6  -4  16    9.90    1.60
   7  -4  16    3.50    1.10
  10   3 -16   12.20    1.90
   9   3 -16   34.20    2.00
   8   3 -16   -1.00    0.80
  -8  -3  16    0.20    0.80
   7   3 -16    3.40    0.80
  -7  -3  16    3.00    0.90
   6   3 -16    1.30    0.80
  -6  -3  16   -0.20    0.80
   5   3 -16    0.60    1.30
  -5  -3  16    0.10    0.70
   4   3 -16    8.40    1.20
   4   3 -16    6.80    1.00
  -4  -3  16   10.60    1.20
   3   3 -16    0.10    0.70
   3   3 -16   -1.10    0.80
  -3  -3  16    0.10    0.70
   2   3 -16  111.99    3.50
   2   3 -16  111.99    3.50
  -2  -3  16  110.09    3.50
   1   3 -16   13.90    1.30
   1   3 -16   13.50    1.20
  -1  -3  16   12.30    1.30
   0   3 -16    8.20    1.00
   0   3 -16    8.60    1.20
   0  -3  16    9.40    1.20
  -1   3 -16   18.50    1.40
  -1   3 -16   17.60    1.40
   1  -3  16   18.60    1.40
  -2   3 -16   31.60    1.60
   2  -3  16   33.00    2.50
  -3   3 -16    0.20    1.00
   3  -3  16    0.20    0.80
  -4   3 -16    1.20    0.70
   4  -3  16    2.40    0.90
  -5   3 -16    3.70    0.80
   5  -3  16    2.90    1.00
  -6   3 -16   -0.40    0.90
   6  -3  16    1.00    1.00
   7  -3  16   16.90    1.90
  10   2 -16   22.50    2.00
   9   2 -16    3.70    1.00
   8   2 -16    0.50    0.90
   7   2 -16    1.40    0.80
  -7  -2  16    0.80    1.30
   6   2 -16    3.10    0.90
  -6  -2  16    3.70    0.80
   5   2 -16    2.30    1.20
   5   2 -16    0.80    0.90
  -5  -2  16    2.40    0.70
   4   2 -16   27.50    1.90
   4   2 -16   33.30    1.70
  -4  -2  16   31.10    1.60
   3   2 -16    5.90    0.90
   3   2 -16    8.50    1.30
  -3  -2  16    8.20    1.10
   2   2 -16    4.50    0.90
  -2  -2  16    3.80    0.80
   1   2 -16   35.40    1.80
   1   2 -16   37.20    1.70
  -1  -2  16   37.10    1.70
   0   2 -16   -0.90    0.70
   0   2 -16   -0.10    0.60
   0  -2  16    0.50    0.70
  -1   2 -16    2.20    0.70
  -1   2 -16    2.60    0.70
   1  -2  16    3.00    0.80
  -2   2 -16    0.00    0.60
   2  -2  16   -1.50    1.30
  -3   2 -16    0.10    0.70
   3  -2  16    0.20    0.80
  -4   2 -16    4.50    0.80
   4  -2  16    4.80    1.00
  -5   2 -16    1.00    0.70
   5  -2  16   -0.10    0.90
   6  -2  16   30.40    2.00
   7  -2  16    6.90    1.20
  10   1 -16    3.70    1.10
   9   1 -16    3.10    1.00
   8   1 -16    6.60    1.00
   7   1 -16   15.70    1.50
  -7  -1  16   17.90    1.70
   6   1 -16  118.89    3.70
  -6  -1  16  117.39    3.60
   5   1 -16   62.19    2.60
   5   1 -16   61.29    2.70
  -5  -1  16   61.39    2.20
   4   1 -16    1.60    0.80
   4   1 -16    2.00    0.80
  -4  -1  16    2.80    0.70
   3   1 -16    0.00    0.80
   3   1 -16    0.50    0.70
  -3  -1  16    0.40    0.70
   2   1 -16   69.49    2.60
   2   1 -16   69.09    2.40
  -2  -1  16   71.59    2.50
   1   1 -16   11.80    1.20
   1   1 -16   13.60    1.40
  -1  -1  16   14.10    1.20
   0   1 -16   -0.30    0.70
   0   1 -16   -0.30    0.70
   0  -1  16    0.00    0.70
  -1   1 -16   33.60    1.70
  -1   1 -16   35.20    1.70
   1  -1  16   35.00    1.80
  -2   1 -16   16.90    1.70
  -2   1 -16   18.00    1.40
   2  -1  16   20.60    1.70
  -3   1 -16    0.50    0.70
  -3   1 -16    0.30    0.60
   3  -1  16    1.30    0.80
  -4   1 -16    0.00    0.70
   4  -1  16    0.90    0.90
  -5   1 -16   -0.80    1.00
   5  -1  16   -0.50    0.90
   6  -1  16    1.20    1.00
   7  -1  16    6.10    1.20
  10   0 -16   11.50    1.50
   9   0 -16    3.20    1.00
   8   0 -16    3.20    0.90
   7   0 -16   10.20    1.40
   6   0 -16   99.19    3.20
  -6   0  16   93.99    3.10
   5   0 -16   25.10    2.00
   5   0 -16   23.70    1.50
  -5   0  16   22.90    1.50
   4   0 -16   54.49    2.40
   4   0 -16   52.59    2.50
  -4   0  16   54.69    2.10
   3   0 -16   38.00    1.90
   3   0 -16   36.10    1.90
  -3   0  16   32.00    1.70
   2   0 -16  133.39    4.00
   2   0 -16  133.59    4.00
  -2   0  16  127.89    3.90
   1   0 -16    8.70    1.30
   1   0 -16    9.00    1.10
  -1   0  16    6.70    1.10
   0   0 -16  165.08    4.80
   0   0 -16  167.38    4.80
   0   0  16  164.98    4.80
  -1   0 -16  146.49    4.30
   1   0  16  145.49    4.40
  -2   0 -16   31.60    1.60
  -2   0 -16   33.80    1.70
   2   0  16   31.20    1.80
  -3   0 -16   -1.10    0.70
  -3   0 -16   -0.10    0.70
   3   0  16   -0.10    0.80
  -4   0 -16   -0.30    0.80
   4   0  16    1.80    0.90
   5   0  16    7.70    1.10
   6   0  16   10.60    1.70
  10  -1 -16   -0.60    1.30
   9  -1 -16    1.90    0.90
   8  -1 -16    1.70    0.90
   7  -1 -16    5.60    1.00
   6  -1 -16   10.00    1.30
   5  -1 -16    7.90    1.20
  -5   1  16    8.10    0.90
   4  -1 -16  161.08    4.90
   4  -1 -16  163.88    4.90
  -4   1  16  161.78    4.70
   3  -1 -16   42.60    2.00
   3  -1 -16   43.10    2.10
  -3   1  16   42.10    1.80
   2  -1 -16   10.60    1.20
   2  -1 -16   10.10    1.40
  -2   1  16   10.10    1.20
   1  -1 -16    3.00    0.80
   1  -1 -16    2.60    0.80
  -1   1  16    2.50    0.80
   0  -1 -16   25.30    1.50
   0  -1 -16   26.60    1.60
   0   1  16   26.70    1.50
  -1  -1 -16   10.40    1.20
  -1  -1 -16   10.60    1.40
   1   1  16    8.80    1.50
  -2  -1 -16   15.10    1.40
  -2  -1 -16   14.30    1.30
   2   1  16   14.60    1.50
  -3  -1 -16   20.60    1.70
  -3  -1 -16   23.00    1.50
   3   1  16   22.60    1.70
   4   1  16    1.80    1.00
   5   1  16    2.00    1.00
   6   1  16    2.80    1.10
   9  -2 -16    1.10    1.00
   8  -2 -16   19.50    1.70
   7  -2 -16    9.90    1.40
   6  -2 -16    0.80    0.80
   5  -2 -16   -1.60    0.80
   4  -2 -16    1.70    1.00
   4  -2 -16    1.90    0.80
  -4   2  16    1.80    0.70
   3  -2 -16   21.20    1.70
   3  -2 -16   20.40    1.60
  -3   2  16   22.10    1.40
   2  -2 -16   77.59    2.80
   2  -2 -16   75.99    2.90
  -2   2  16   74.59    2.60
   1  -2 -16    2.00    0.90
   1  -2 -16    2.00    0.70
  -1   2  16    0.90    0.70
   0  -2 -16    7.40    1.00
   0  -2 -16    7.70    1.10
   0   2  16    8.20    1.00
  -1  -2 -16    7.90    1.20
  -1  -2 -16    5.50    0.90
   1   2  16    6.60    0.90
  -2  -2 -16   -0.80    0.70
  -2  -2 -16   -0.10    0.80
   2   2  16   -0.10    0.80
  -3  -2 -16    1.00    0.80
   3   2  16    0.50    0.90
  -4  -2 -16    2.00    0.70
   4   2  16    2.10    0.90
   5   2  16   37.00    2.20
   6   2  16   -0.10    1.10
   9  -3 -16    1.20    0.90
   8  -3 -16   45.40    2.20
   7  -3 -16    2.20    0.80
   6  -3 -16    5.30    0.80
   5  -3 -16    1.50    0.80
   4  -3 -16    0.50    1.00
   4  -3 -16   -0.80    0.70
   3  -3 -16    4.80    0.90
   3  -3 -16    4.80    0.90
  -3   3  16    4.30    0.80
   2  -3 -16   16.00    2.00
   2  -3 -16   16.60    1.40
  -2   3  16   17.20    1.30
   1  -3 -16   13.40    1.60
   1  -3 -16   11.40    1.70
  -1   3  16   10.30    1.30
   0  -3 -16   24.30    2.50
   0  -3 -16   25.00    1.80
   0   3  16   25.10    1.60
  -1  -3 -16    2.20    0.90
  -1  -3 -16    1.00    1.30
   1   3  16    0.90    0.80
  -2  -3 -16    6.00    0.90
  -2  -3 -16    5.20    1.30
   2   3  16    6.10    1.00
  -3  -3 -16   -0.20    0.80
   3   3  16   -0.10    0.80
  -4  -3 -16    2.40    0.80
   4   3  16    1.50    0.90
   5   3  16   10.20    1.30
   8  -4 -16   82.89    3.00
   7  -4 -16   12.00    1.50
   6  -4 -16    2.40    1.00
   5  -4 -16    3.90    0.90
   4  -4 -16    8.10    1.00
   4  -4 -16    8.50    2.00
   3  -4 -16   19.60    1.90
   3  -4 -16   19.70    1.50
   2  -4 -16    5.10    1.00
   2  -4 -16    4.90    0.90
  -2   4  16    7.20    1.20
   1  -4 -16   16.80    1.50
   1  -4 -16   19.80    1.80
  -1   4  16   20.00    1.50
   0  -4 -16   39.20    2.10
   0  -4 -16   39.00    1.80
   0   4  16   38.30    1.90
  -1  -4 -16    0.70    0.90
  -1  -4 -16    2.40    0.80
   1   4  16    0.20    0.80
  -2  -4 -16   13.00    1.70
   2   4  16   12.00    1.50
  -3  -4 -16   33.60    1.90
   3   4  16   32.20    1.90
  -4  -4 -16   38.40    2.00
   4   4  16   38.60    2.20
   8  -5 -16    4.30    1.10
   7  -5 -16    1.80    0.90
   6  -5 -16   63.39    2.50
   5  -5 -16    3.90    0.90
   4  -5 -16   -0.30    0.80
   3  -5 -16    5.60    1.00
   3  -5 -16    3.00    1.10
   2  -5 -16    7.60    1.10
   2  -5 -16    9.80    1.30
   1  -5 -16    0.00    0.80
   1  -5 -16    1.00    1.00
  -1   5  16    1.80    0.80
   0  -5 -16    4.70    1.00
   0  -5 -16    4.10    0.90
   0   5  16    4.90    0.90
  -1  -5 -16    1.10    0.90
   1   5  16    1.80    0.90
  -2  -5 -16    0.20    0.90
   2   5  16    1.00    0.90
  -3  -5 -16    6.20    1.00
   3   5  16    4.70    1.00
   4   5  16    1.50    1.00
   7  -6 -16    4.50    1.00
   6  -6 -16    0.40    0.90
   5  -6 -16   -0.50    0.80
   4  -6 -16   21.80    1.70
   3  -6 -16    9.80    1.00
   3  -6 -16   12.60    2.10
   2  -6 -16    6.90    1.00
   2  -6 -16    8.00    1.30
   1  -6 -16   -0.20    0.90
   1  -6 -16    1.40    1.10
   0  -6 -16    5.70    1.10
   0   6  16    6.40    1.10
  -1  -6 -16    6.70    1.10
   1   6  16    7.20    1.10
  -2  -6 -16    4.00    1.00
   2   6  16    2.80    1.10
   6  -7 -16    1.10    1.20
   5  -7 -16   10.20    1.20
   4  -7 -16    0.20    0.90
   3  -7 -16   13.20    1.60
   2  -7 -16  100.59    3.80
   2  -7 -16   98.99    3.30
   1  -7 -16   -0.10    1.10
   0  -7 -16  134.09    4.40
  -1  -7 -16    0.90    1.10
   1  12 -17    0.60    1.10
   1  12 -17    0.40    1.50
  -1 -12  17    2.10    1.80
   0  12 -17   10.70    1.30
   0 -12  17    8.70    1.50
   4  11 -17    1.10    1.50
   4  11 -17    3.10    1.30
   4  11 -17    5.90    1.20
  -4 -11  17    1.40    1.30
   3  11 -17   20.30    1.90
   3  11 -17   15.40    2.40
   3  11 -17   16.20    2.50
  -3 -11  17   13.70    2.00
   2  11 -17   34.00    2.60
   2  11 -17   29.90    2.00
  -2 -11  17   31.00    2.20
   1  11 -17   17.70    2.60
   1  11 -17   18.90    1.90
  -1 -11  17   14.20    1.90
   0  11 -17   17.30    1.90
   0  11 -17   18.00    2.20
  -1  11 -17    8.70    1.20
   1 -11  17    5.90    1.20
  -2  11 -17    7.80    1.30
  -2  11 -17    7.60    1.10
   2 -11  17    6.90    1.30
  -3  11 -17    1.10    1.50
   3 -11  17   -0.60    1.10
   5  10 -17   12.50    1.40
  -5 -10  17   14.70    1.90
   4  10 -17    3.40    1.10
   4  10 -17    1.80    1.30
  -4 -10  17    0.50    1.10
   3  10 -17    0.10    1.00
   3  10 -17    0.70    0.90
  -3 -10  17    0.00    1.00
   2  10 -17   17.40    1.80
   2  10 -17   15.50    2.00
  -2 -10  17   18.60    1.90
   1  10 -17    7.80    1.10
   1  10 -17    6.40    1.10
  -1 -10  17    6.10    1.20
   0  10 -17    2.20    1.00
   0  10 -17    1.70    1.10
   0 -10  17   -0.60    1.00
  -1  10 -17    7.50    1.20
  -1  10 -17    7.60    1.10
   1 -10  17    6.30    1.20
  -2  10 -17    3.40    1.00
  -2  10 -17    5.70    1.10
   2 -10  17    3.70    1.10
  -3  10 -17    1.30    1.10
   3 -10  17   -0.50    1.10
  -4  10 -17    7.00    1.30
   4 -10  17    5.30    1.20
  -6  -9  17    3.40    1.10
   5   9 -17    0.30    0.90
   5   9 -17   -0.30    1.30
  -5  -9  17    0.60    1.00
   4   9 -17    5.60    1.20
   4   9 -17    5.10    1.10
  -4  -9  17    6.90    1.20
   3   9 -17    1.50    1.10
   3   9 -17    3.50    1.00
  -3  -9  17    2.30    1.00
   2   9 -17    7.20    1.10
   2   9 -17    4.80    1.10
  -2  -9  17    6.40    1.10
   1   9 -17   12.10    1.80
   1   9 -17   14.70    1.70
  -1  -9  17   12.50    1.70
   0   9 -17    4.50    1.20
   0   9 -17    4.30    1.00
   0  -9  17    3.40    1.00
  -1   9 -17   -0.40    1.00
  -1   9 -17    0.00    1.00
   1  -9  17   -0.20    1.00
  -2   9 -17    2.10    1.00
  -2   9 -17    2.40    0.90
   2  -9  17    3.10    1.10
  -3   9 -17    1.90    1.00
   3  -9  17   -0.10    1.00
  -4   9 -17   -0.30    1.10
  -5   9 -17    5.20    1.30
   5  -9  17    0.20    1.20
  -7  -8  17   -0.20    1.00
   6   8 -17   67.99    2.70
  -6  -8  17   62.89    2.80
   5   8 -17   17.50    1.70
   5   8 -17   21.70    2.50
  -5  -8  17   14.10    1.80
   4   8 -17  118.89    3.80
   4   8 -17  121.39    4.20
  -4  -8  17  118.49    4.00
   3   8 -17   23.50    1.70
   3   8 -17   21.30    2.10
  -3  -8  17   21.20    1.80
   2   8 -17   57.59    2.60
   2   8 -17   53.79    2.30
  -2  -8  17   56.69    2.50
   1   8 -17   39.10    2.20
   1   8 -17   36.30    2.00
  -1  -8  17   36.80    2.10
   0   8 -17    9.20    1.10
   0   8 -17   12.40    1.70
   0  -8  17   10.40    1.60
  -1   8 -17   14.80    1.70
  -1   8 -17   12.60    1.60
   1  -8  17    9.60    1.20
  -2   8 -17    0.90    1.00
  -2   8 -17    1.90    0.90
   2  -8  17    0.10    1.00
  -3   8 -17    7.40    1.10
   3  -8  17    6.40    1.20
  -4   8 -17    0.60    0.90
   4  -8  17   -0.90    1.00
  -5   8 -17   12.30    1.90
   5  -8  17   12.40    1.80
  -8  -7  17   19.80    2.00
   7   7 -17   17.30    1.90
  -7  -7  17   16.30    1.80
   6   7 -17    1.70    1.00
  -6  -7  17    0.20    1.00
   5   7 -17   35.30    2.60
   5   7 -17   35.70    2.00
  -5  -7  17   35.60    2.10
   4   7 -17  144.89    4.60
   4   7 -17  136.59    4.30
  -4  -7  17  131.39    4.40
   3   7 -17    1.60    0.90
   3   7 -17    0.90    1.00
  -3  -7  17    0.60    0.90
   2   7 -17   31.40    1.90
   2   7 -17   33.20    2.10
  -2  -7  17   29.70    1.90
   1   7 -17   11.40    1.60
   1   7 -17   10.50    1.50
  -1  -7  17   10.80    1.60
   0   7 -17    2.80    0.90
   0   7 -17    3.00    0.80
   0  -7  17    2.30    1.00
  -1   7 -17   -0.20    0.70
  -1   7 -17    0.70    0.80
   1  -7  17   -1.10    0.90
  -2   7 -17    0.20    0.70
  -2   7 -17    0.60    0.90
   2  -7  17   -0.40    0.90
  -3   7 -17    5.70    1.00
   3  -7  17    2.90    1.10
  -4   7 -17   23.30    1.90
   4  -7  17   19.90    1.80
  -5   7 -17    3.10    1.00
   5  -7  17    4.10    1.10
  -6   7 -17   35.40    2.20
   6  -7  17   25.70    3.10
   8   6 -17   -1.50    1.10
  -8  -6  17   -0.90    1.10
   7   6 -17    1.30    1.00
  -7  -6  17    2.50    1.00
   6   6 -17   31.90    2.00
  -6  -6  17   33.00    2.00
   5   6 -17    2.00    1.00
  -5  -6  17   -1.80    0.80
   4   6 -17   18.60    1.80
   4   6 -17   17.30    1.60
  -4  -6  17   14.70    1.60
   3   6 -17   11.10    1.40
  -3  -6  17    8.90    1.20
   2   6 -17   11.90    1.50
   2   6 -17    8.30    1.00
  -2  -6  17    7.80    1.10
   1   6 -17    7.30    1.00
   1   6 -17    6.00    0.90
  -1  -6  17    6.30    1.10
   0   6 -17   -0.20    0.70
   0   6 -17    0.10    0.70
   0  -6  17   -0.60    0.80
  -1   6 -17    1.40    0.70
  -1   6 -17    0.10    0.80
   1  -6  17    0.80    0.80
  -2   6 -17    1.80    0.70
  -2   6 -17    1.40    0.90
   2  -6  17    0.80    0.90
  -3   6 -17   15.70    1.70
   3  -6  17   13.80    1.70
  -4   6 -17    2.00    0.80
   4  -6  17    0.80    1.00
  -5   6 -17    0.80    0.90
   5  -6  17    0.20    1.00
  -6   6 -17    1.90    1.10
   6  -6  17    2.20    1.10
   8   5 -17    3.30    1.00
  -8  -5  17    3.20    1.00
   7   5 -17   12.00    1.60
  -7  -5  17   11.40    1.50
   6   5 -17    2.90    1.00
  -6  -5  17    3.10    1.00
   5   5 -17    2.10    1.30
   5   5 -17    0.20    0.80
  -5  -5  17    1.30    0.80
   4   5 -17    1.20    0.80
  -4  -5  17    1.70    0.80
   3   5 -17    0.20    0.80
  -3  -5  17   -0.20    0.80
   2   5 -17    0.30    0.70
   2   5 -17    1.50    1.00
  -2  -5  17   -0.60    0.80
   1   5 -17    8.90    1.30
   1   5 -17    6.10    0.90
  -1  -5  17    5.50    0.90
   0   5 -17    2.10    0.80
   0   5 -17    2.90    0.80
   0  -5  17    2.30    0.90
  -1   5 -17    0.50    0.80
  -1   5 -17   -0.10    0.70
   1  -5  17   -0.10    0.80
  -2   5 -17    1.10    0.70
  -2   5 -17    1.50    0.80
   2  -5  17    1.30    0.90
  -3   5 -17    9.20    1.40
   3  -5  17    6.50    1.10
  -4   5 -17    6.30    1.00
   4  -5  17    7.20    1.10
  -5   5 -17    1.90    0.90
   5  -5  17    0.20    1.00
  -6   5 -17   -0.40    1.10
   6  -5  17   -1.40    1.00
   9   4 -17    0.60    1.10
   8   4 -17   40.90    2.10
  -8  -4  17   37.10    2.00
   7   4 -17    1.70    0.90
  -7  -4  17    3.50    1.00
   6   4 -17    1.60    0.90
  -6  -4  17    2.30    0.90
   5   4 -17   28.30    3.20
   5   4 -17   28.40    1.70
  -5  -4  17   27.40    1.70
   4   4 -17   -1.30    0.90
   4   4 -17    0.30    0.80
  -4  -4  17   -0.10    0.70
   3   4 -17    0.10    0.70
  -3  -4  17    0.10    0.80
   2   4 -17   15.80    1.40
   2   4 -17   12.10    1.70
  -2  -4  17   13.70    1.40
   1   4 -17   -0.40    0.60
  -1  -4  17    0.40    0.80
   0   4 -17   20.60    1.50
   0   4 -17   18.60    1.50
   0  -4  17   20.40    1.60
  -1   4 -17    3.50    0.80
  -1   4 -17    3.70    0.80
   1  -4  17    4.30    1.00
  -2   4 -17    2.10    0.80
  -2   4 -17    3.70    0.70
   2  -4  17    2.50    0.90
  -3   4 -17    8.00    1.00
   3  -4  17    6.00    1.10
  -4   4 -17   49.90    2.20
   4  -4  17   49.60    2.40
  -5   4 -17    1.70    0.90
   5  -4  17    1.80    1.00
  -6   4 -17    2.10    1.00
   6  -4  17    2.00    1.10
   9   3 -17    9.30    1.20
   8   3 -17   15.30    1.70
   7   3 -17   10.40    1.50
  -7  -3  17    9.20    1.50
   6   3 -17    0.70    0.80
  -6  -3  17   -0.90    0.80
   5   3 -17    7.00    1.10
   5   3 -17    7.00    1.00
  -5  -3  17    8.00    1.30
   4   3 -17   -1.00    0.90
   4   3 -17    1.70    0.80
  -4  -3  17    1.30    0.80
   3   3 -17   -0.10    0.70
  -3  -3  17   -0.30    1.00
   2   3 -17    5.40    0.80
  -2  -3  17    4.90    1.60
   1   3 -17    0.40    1.40
   1   3 -17    2.40    0.80
  -1  -3  17    2.10    0.90
   0   3 -17   45.90    1.90
   0   3 -17   44.60    2.00
   0  -3  17   44.80    2.10
  -1   3 -17   23.00    1.60
  -1   3 -17   24.90    1.60
   1  -3  17   27.30    1.70
  -2   3 -17   11.20    1.30
  -2   3 -17   10.80    1.30
   2  -3  17   11.10    1.40
  -3   3 -17    2.10    0.80
   3  -3  17    1.90    0.90
  -4   3 -17    3.00    0.90
   4  -3  17    3.60    1.00
  -5   3 -17    1.50    0.90
   5  -3  17    0.30    1.00
   6  -3  17   -0.40    1.00
   9   2 -17    0.30    1.00
   8   2 -17   25.20    1.80
   7   2 -17    1.20    0.90
  -7  -2  17    1.60    0.90
   6   2 -17   26.90    1.70
  -6  -2  17   26.20    1.70
   5   2 -17    8.40    1.30
   5   2 -17   11.90    1.40
  -5  -2  17    8.10    1.30
   4   2 -17    6.10    0.90
   4   2 -17    3.40    0.90
  -4  -2  17    3.20    1.40
   3   2 -17   10.40    1.60
   3   2 -17   13.90    1.40
  -3  -2  17   11.70    1.60
   2   2 -17    3.70    0.80
   2   2 -17    2.30    0.90
  -2  -2  17    5.20    1.20
   1   2 -17    1.00    0.80
  -1  -2  17    0.10    1.20
   0   2 -17    5.10    0.90
   0   2 -17    5.80    1.00
   0  -2  17    6.80    0.90
  -1   2 -17    2.70    0.80
  -1   2 -17    3.20    0.80
   1  -2  17    2.60    0.80
  -2   2 -17   15.00    1.40
  -2   2 -17   19.40    1.40
   2  -2  17   19.40    1.60
  -3   2 -17   10.30    1.30
   3  -2  17    9.30    1.50
  -4   2 -17    3.20    0.90
   4  -2  17    2.20    1.00
  -5   2 -17    2.40    0.90
   5  -2  17    0.10    1.00
   6  -2  17    5.40    1.30
   9   1 -17    6.20    1.20
   8   1 -17   -0.30    0.90
   7   1 -17   -0.70    0.90
   6   1 -17   14.90    1.50
  -6  -1  17   13.80    1.40
   5   1 -17   35.90    1.90
   5   1 -17   36.70    2.30
  -5  -1  17   36.90    2.30
   4   1 -17  147.19    4.60
   4   1 -17  142.49    4.30
  -4  -1  17  141.99    4.90
   3   1 -17    1.20    0.70
   3   1 -17   -0.90    0.90
  -3  -1  17    0.00    0.70
   2   1 -17   16.90    1.80
   2   1 -17   20.10    1.50
  -2  -1  17   18.00    1.70
   1   1 -17    0.00    0.70
   1   1 -17    0.50    1.40
  -1  -1  17    0.10    0.90
   0   1 -17    1.10    0.70
   0   1 -17   -0.30    0.80
   0  -1  17    0.10    0.70
  -1   1 -17   -0.70    0.70
  -1   1 -17    0.60    0.70
   1  -1  17    0.90    0.80
  -2   1 -17   -1.10    0.70
  -2   1 -17    0.30    0.80
   2  -1  17    0.50    0.90
  -3   1 -17    2.10    0.80
  -3   1 -17    3.00    0.80
   3  -1  17    2.00    1.00
  -4   1 -17    0.10    0.80
   4  -1  17    0.10    1.00
   5  -1  17    0.90    1.00
   6  -1  17    5.90    1.20
   9   0 -17    2.30    1.00
   8   0 -17   28.70    1.90
   7   0 -17    1.80    0.90
   6   0 -17   -0.40    0.80
   5   0 -17    2.00    0.80
   5   0 -17    1.40    1.20
  -5   0  17    5.20    1.60
   4   0 -17   85.19    3.20
   4   0 -17   81.69    2.90
  -4   0  17   78.99    2.90
   3   0 -17    3.90    1.30
   3   0 -17    3.20    0.80
  -3   0  17    1.80    0.80
   2   0 -17  354.46    9.50
  -2   0  17  354.06   10.30
   1   0 -17    3.60    0.90
   1   0 -17    3.00    0.90
  -1   0  17    3.20    0.90
   0   0 -17    1.60    0.90
   0   0 -17    2.90    0.80
   0   0  17    2.90    0.80
  -1   0 -17    7.70    1.00
  -1   0 -17   12.20    1.60
   1   0  17   10.90    1.40
  -2   0 -17   78.99    2.70
  -2   0 -17   77.69    2.80
   2   0  17   78.49    2.90
  -3   0 -17   42.70    1.90
  -3   0 -17   39.30    1.90
   3   0  17   42.10    2.20
   4   0  17   10.40    1.70
   5   0  17    7.50    1.30
   9  -1 -17   -1.60    1.10
   8  -1 -17   -2.20    0.90
   7  -1 -17    4.10    1.00
   6  -1 -17   14.20    1.50
   5  -1 -17    1.30    0.90
   4  -1 -17   21.60    3.10
   4  -1 -17   19.50    1.50
  -4   1  17   17.40    1.50
   3  -1 -17    8.40    1.00
   3  -1 -17    9.80    1.80
  -3   1  17    9.60    1.40
   2  -1 -17   52.89    2.40
   2  -1 -17   54.19    2.20
  -2   1  17   47.20    2.60
   1  -1 -17   84.99    2.90
   1  -1 -17   88.99    3.10
  -1   1  17   84.89    3.00
   0  -1 -17  162.68    4.80
   0  -1 -17  163.88    4.90
   0   1  17  163.78    4.90
  -1  -1 -17    1.80    0.80
  -1  -1 -17    0.50    0.70
   1   1  17    1.20    0.90
  -2  -1 -17    5.50    0.90
  -2  -1 -17    6.20    0.90
   2   1  17    4.50    1.00
  -3  -1 -17    9.10    1.50
  -3  -1 -17   10.60    1.50
   3   1  17    8.80    1.20
   4   1  17   19.50    1.90
   5   1  17   45.20    2.50
   8  -2 -17    5.00    1.20
   7  -2 -17    1.60    0.90
   6  -2 -17   -1.30    0.80
   5  -2 -17    0.60    0.80
   4  -2 -17   -0.70    0.70
   4  -2 -17   -1.50    0.90
   3  -2 -17   -0.70    0.90
   3  -2 -17   -0.80    0.80
  -3   2  17   -1.00    0.90
   2  -2 -17   -0.70    0.80
   2  -2 -17    0.80    1.00
  -2   2  17    0.60    0.70
   1  -2 -17    7.00    0.90
   1  -2 -17    9.00    1.50
  -1   2  17   10.80    1.40
   0  -2 -17    1.40    0.90
   0  -2 -17    2.50    0.80
   0   2  17    2.40    0.90
  -1  -2 -17    1.30    0.80
  -1  -2 -17    0.00    0.80
   1   2  17   -0.10    0.90
  -2  -2 -17   -0.10    0.80
  -2  -2 -17    0.90    0.80
   2   2  17    1.10    0.90
  -3  -2 -17    1.80    0.80
   3   2  17    1.80    1.00
   4   2  17    3.50    1.10
   8  -3 -17    0.60    1.10
   7  -3 -17    0.60    1.10
   6  -3 -17  118.09    3.80
   5  -3 -17   -0.30    0.80
   4  -3 -17    7.10    1.00
   4  -3 -17    6.10    1.30
   3  -3 -17    4.00    1.20
   3  -3 -17    4.40    0.90
   2  -3 -17    2.90    1.00
   2  -3 -17    1.70    0.90
  -2   3  17    2.10    0.80
   1  -3 -17   25.70    1.90
   1  -3 -17   22.40    1.60
  -1   3  17   25.60    1.60
   0  -3 -17   24.50    1.70
   0  -3 -17   29.30    2.00
   0   3  17   29.50    1.70
  -1  -3 -17    1.20    0.90
  -1  -3 -17    0.10    0.90
   1   3  17    0.70    0.90
  -2  -3 -17    0.80    0.90
   2   3  17    0.70    0.90
  -3  -3 -17   -0.20    0.90
   3   3  17   -0.10    1.00
  -4  -3 -17   17.90    1.60
   4   3  17   16.50    1.90
   7  -4 -17    3.30    1.00
   6  -4 -17    2.80    1.00
   5  -4 -17    3.80    1.00
   4  -4 -17   57.09    2.40
   4  -4 -17   58.19    3.10
   3  -4 -17    6.80    1.30
   3  -4 -17    5.10    0.90
   2  -4 -17    4.70    1.00
   2  -4 -17    5.50    1.00
   1  -4 -17    3.30    1.00
   1  -4 -17    2.20    1.00
  -1   4  17    2.70    0.90
   0  -4 -17    9.20    1.10
   0  -4 -17    9.90    1.70
   0   4  17   10.80    1.50
  -1  -4 -17    6.50    1.10
   1   4  17    6.80    1.10
  -2  -4 -17   19.60    1.90
   2   4  17   20.10    1.80
  -3  -4 -17   -1.60    1.00
   3   4  17    1.40    1.10
   6  -5 -17   12.50    1.70
   5  -5 -17   -0.40    0.90
   4  -5 -17    4.70    1.00
   3  -5 -17   28.70    2.40
   3  -5 -17   34.20    1.90
   2  -5 -17    1.10    0.90
   2  -5 -17   -0.30    1.10
   1  -5 -17    8.70    1.30
   1  -5 -17    7.60    1.10
   0  -5 -17    1.70    1.00
   0   5  17    2.40    1.00
  -1  -5 -17   -1.90    1.00
   1   5  17    1.80    1.00
  -2  -5 -17   -0.50    1.00
   2   5  17    0.40    1.10
   5  -6 -17    0.50    1.10
   4  -6 -17    3.10    1.00
   3  -6 -17   31.40    1.90
   3  -6 -17   26.80    2.70
   2  -6 -17   24.30    1.90
   2  -6 -17   24.60    2.40
   1  -6 -17   -1.20    1.10
   0  -6 -17    4.20    1.30
   1  11 -18    8.90    1.70
   4  10 -18    1.90    1.10
   4  10 -18    0.20    1.30
   3  10 -18    6.00    1.30
   3  10 -18    6.00    1.20
  -3 -10  18    7.10    1.30
   2  10 -18    1.60    1.20
   2  10 -18    1.50    1.20
  -2 -10  18    1.00    1.10
   1  10 -18   -0.20    1.10
   1  10 -18    0.60    1.10
   1  10 -18    0.30    1.30
  -1 -10  18    0.10    1.10
   0  10 -18    4.20    1.30
   0  10 -18    3.30    1.10
  -1  10 -18    0.50    1.10
  -1  10 -18    0.10    1.10
   1 -10  18    0.40    1.10
  -2  10 -18    5.70    1.20
  -2  10 -18    2.20    1.10
   2 -10  18    3.60    1.20
   5   9 -18    4.60    1.20
   5   9 -18    3.10    2.00
  -5  -9  18    5.00    1.20
   4   9 -18    3.70    1.30
   4   9 -18    3.70    1.10
  -4  -9  18    4.90    1.20
   3   9 -18    1.20    1.10
   3   9 -18    0.60    0.90
  -3  -9  18    0.50    1.10
   2   9 -18    2.60    1.00
   2   9 -18    1.90    1.10
  -2  -9  18    4.20    1.20
   1   9 -18    7.20    1.20
   1   9 -18   12.60    1.90
  -1  -9  18    7.80    1.30
   0   9 -18   -0.30    1.00
   0   9 -18    1.50    1.20
   0  -9  18    0.30    1.10
  -1   9 -18    1.40    1.10
  -1   9 -18    1.50    1.10
   1  -9  18    0.10    1.10
  -2   9 -18    1.20    1.10
  -2   9 -18    1.90    1.00
   2  -9  18    1.00    1.10
  -3   9 -18   -1.20    1.00
   3  -9  18   -0.70    1.10
   6   8 -18   27.70    2.10
  -6  -8  18   27.20    2.20
   5   8 -18    8.60    1.20
  -5  -8  18    7.60    1.30
   4   8 -18    3.60    1.10
   4   8 -18    3.30    1.30
  -4  -8  18    1.30    1.00
   3   8 -18   27.50    3.30
   3   8 -18   27.60    1.90
  -3  -8  18   25.20    2.10
   2   8 -18  138.79    4.50
   2   8 -18  132.69    4.30
  -2  -8  18  133.89    4.40
   1   8 -18   27.70    2.00
   1   8 -18   31.40    2.20
  -1  -8  18   23.30    2.00
   0   8 -18   61.19    2.70
   0   8 -18   56.59    2.60
   0  -8  18   57.39    2.60
  -1   8 -18   32.60    2.20
  -1   8 -18   32.70    2.00
   1  -8  18   27.10    2.10
  -2   8 -18    3.20    1.10
  -2   8 -18    3.40    1.10
   2  -8  18    0.10    1.10
  -3   8 -18   -0.70    1.00
   3  -8  18   -1.10    1.10
  -4   8 -18   15.00    1.90
   4  -8  18    9.00    1.30
   6   7 -18    7.10    1.20
  -6  -7  18    7.50    1.20
   5   7 -18   11.10    1.30
   5   7 -18   11.60    1.60
  -5  -7  18   14.70    1.90
   4   7 -18   30.50    2.60
   4   7 -18   27.40    2.00
  -4  -7  18   27.80    2.00
   3   7 -18    7.80    1.10
   3   7 -18    5.70    1.30
  -3  -7  18    4.60    1.20
   2   7 -18    0.00    0.90
   2   7 -18    0.90    1.00
  -2  -7  18   -0.20    1.00
   1   7 -18   21.40    1.80
   1   7 -18   23.10    2.00
  -1  -7  18   19.20    1.90
   0   7 -18   37.80    2.10
   0   7 -18   37.40    2.10
   0  -7  18   35.50    2.20
  -1   7 -18   34.70    2.20
  -1   7 -18   41.50    2.20
   1  -7  18   36.30    2.20
  -2   7 -18   30.20    1.90
  -2   7 -18   28.60    2.10
   2  -7  18   21.50    2.00
  -3   7 -18   13.00    1.80
   3  -7  18    8.50    1.30
  -4   7 -18    1.10    1.10
   4  -7  18   -0.30    1.10
  -7  -6  18    0.20    1.00
   6   6 -18    6.40    1.10
  -6  -6  18    6.50    1.20
   5   6 -18   20.30    1.80
  -5  -6  18   15.60    1.80
   4   6 -18   75.39    3.10
   4   6 -18   69.59    2.80
  -4  -6  18   64.99    2.80
   3   6 -18   11.40    1.60
  -3  -6  18   10.20    1.60
   2   6 -18   14.60    1.70
   2   6 -18   18.50    1.90
  -2  -6  18   17.20    1.80
   1   6 -18    2.10    0.90
   1   6 -18    4.50    1.00
  -1  -6  18    2.20    1.00
   0   6 -18    3.90    0.90
   0   6 -18    3.30    0.90
   0  -6  18    3.80    1.10
  -1   6 -18    0.90    0.90
  -1   6 -18    0.10    0.70
   1  -6  18   -0.80    0.90
  -2   6 -18    4.30    1.10
  -2   6 -18    6.10    0.90
   2  -6  18    2.70    1.10
  -3   6 -18    2.10    1.00
   3  -6  18    0.10    1.00
  -4   6 -18    6.80    1.10
   4  -6  18    5.00    1.20
  -5   6 -18    3.40    1.10
   5  -6  18    3.00    1.30
   7   5 -18    8.70    1.20
  -7  -5  18    8.70    1.20
   6   5 -18   11.00    1.70
  -6  -5  18   12.50    1.70
   5   5 -18   13.40    2.10
   5   5 -18   11.30    1.60
  -5  -5  18   13.40    1.60
   4   5 -18   -2.00    0.90
   4   5 -18   -1.80    1.00
  -4  -5  18   -1.00    0.90
   3   5 -18    1.60    0.90
   3   5 -18    1.90    0.90
  -3  -5  18    1.20    0.90
   2   5 -18    0.40    0.90
   2   5 -18    2.50    0.90
  -2  -5  18    0.60    0.90
   1   5 -18    0.50    0.90
   1   5 -18    1.30    1.00
  -1  -5  18    0.60    0.90
   0   5 -18    0.70    0.80
   0   5 -18    1.00    0.80
   0  -5  18    0.10    0.90
  -1   5 -18   -0.30    0.70
  -1   5 -18    1.30    0.90
   1  -5  18   -1.10    0.90
  -2   5 -18    6.60    0.90
  -2   5 -18    6.90    1.10
   2  -5  18    6.60    1.20
  -3   5 -18    3.00    1.00
   3  -5  18    2.90    1.10
  -4   5 -18    2.00    0.90
   4  -5  18    0.40    1.10
  -5   5 -18    2.20    1.00
   5  -5  18    0.20    1.10
   8   4 -18    5.10    1.10
   7   4 -18   -0.90    1.00
  -7  -4  18   -0.40    1.00
   6   4 -18   -0.30    0.90
  -6  -4  18   -0.90    0.90
   5   4 -18    1.30    1.10
   5   4 -18    2.00    1.00
  -5  -4  18    2.10    0.90
   4   4 -18    0.80    1.00
   4   4 -18    1.10    1.00
  -4  -4  18    0.10    0.90
   3   4 -18   25.20    1.90
   3   4 -18   27.40    1.80
  -3  -4  18   26.00    1.80
   2   4 -18    3.70    0.90
   2   4 -18    3.30    1.00
  -2  -4  18    2.90    1.00
   1   4 -18    5.60    1.00
   1   4 -18   10.50    1.40
  -1  -4  18    6.90    1.00
   0   4 -18   -0.90    0.80
   0   4 -18   -1.40    0.90
   0  -4  18   -1.30    0.90
  -1   4 -18   13.00    1.50
  -1   4 -18   11.40    1.50
   1  -4  18   10.00    1.60
  -2   4 -18   32.70    1.90
  -2   4 -18   34.00    1.70
   2  -4  18   29.40    2.00
  -3   4 -18    2.80    0.90
   3  -4  18    4.40    1.10
  -4   4 -18    0.10    0.90
   4  -4  18    0.90    1.10
  -5   4 -18    1.90    1.00
   5  -4  18    0.90    1.10
   8   3 -18    7.20    1.20
   7   3 -18    3.70    1.00
  -7  -3  18    3.30    1.10
   6   3 -18   28.70    1.90
  -6  -3  18   29.60    1.90
   5   3 -18    0.70    0.90
   5   3 -18    0.90    1.20
  -5  -3  18    1.70    0.80
   4   3 -18   -1.50    0.80
   4   3 -18   -1.40    1.00
  -4  -3  18   -1.30    0.80
   3   3 -18    5.20    1.10
   3   3 -18    7.70    1.10
  -3  -3  18    7.60    1.10
   2   3 -18    4.20    1.00
   2   3 -18    5.30    0.90
  -2  -3  18    5.70    1.00
   1   3 -18    4.00    1.00
   1   3 -18    5.40    0.90
  -1  -3  18    7.30    1.00
   0   3 -18    0.40    0.80
   0  -3  18   -0.10    0.80
  -1   3 -18    8.00    1.10
  -1   3 -18    9.80    1.40
   1  -3  18    8.40    1.10
  -2   3 -18    0.10    0.90
  -2   3 -18   -0.20    0.70
   2  -3  18   -0.10    0.90
  -3   3 -18    2.20    0.90
   3  -3  18    3.10    1.00
  -4   3 -18   36.40    2.00
   4  -3  18   38.50    2.30
  -5   3 -18    2.80    1.10
   5  -3  18    3.90    1.20
   8   2 -18    2.10    1.10
   7   2 -18    1.40    1.00
   6   2 -18   51.19    2.30
  -6  -2  18   52.59    2.30
   5   2 -18   10.50    1.40
   5   2 -18   10.10    1.50
  -5  -2  18    9.40    1.40
   4   2 -18   41.40    2.30
   4   2 -18   38.00    2.00
  -4  -2  18   37.40    2.00
   3   2 -18   -1.50    0.90
   3   2 -18   -0.10    0.80
  -3  -2  18   -0.70    0.80
   2   2 -18    1.10    0.90
  -2  -2  18   -0.40    0.80
   1   2 -18    3.70    0.80
  -1  -2  18    3.50    0.90
   0   2 -18    4.20    0.90
   0   2 -18    4.60    1.00
   0  -2  18    5.10    1.00
  -1   2 -18   21.40    1.70
  -1   2 -18   21.60    1.70
   1  -2  18   23.90    1.70
  -2   2 -18    2.20    0.80
  -2   2 -18    3.90    0.90
   2  -2  18    2.60    1.00
  -3   2 -18   -0.70    0.80
   3  -2  18    1.50    0.90
  -4   2 -18    2.50    1.00
   4  -2  18    4.00    1.10
   5  -2  18    4.60    1.30
   8   1 -18    7.40    1.20
   7   1 -18    0.50    0.90
   6   1 -18   12.70    1.70
   5   1 -18   -1.40    1.00
   5   1 -18    1.10    0.90
  -5  -1  18   -1.10    0.80
   4   1 -18   -1.20    1.00
   4   1 -18   -0.70    0.80
  -4  -1  18   -0.70    0.80
   3   1 -18    0.60    0.80
   3   1 -18   -0.30    0.90
  -3  -1  18   -0.90    0.80
   2   1 -18   35.70    2.10
   2   1 -18   35.60    1.90
  -2  -1  18   36.50    1.90
   1   1 -18   -0.70    0.90
   1   1 -18    0.20    0.90
  -1  -1  18    0.40    0.80
   0   1 -18  163.48    4.80
   0   1 -18  161.48    4.80
   0  -1  18  161.48    4.90
  -1   1 -18   20.50    1.60
  -1   1 -18   18.70    1.70
   1  -1  18   21.40    1.70
  -2   1 -18   14.40    1.60
  -2   1 -18   13.10    1.50
   2  -1  18   12.80    1.60
  -3   1 -18    3.40    1.00
   3  -1  18    4.80    1.10
   4  -1  18    6.10    1.20
   8   0 -18   -0.80    1.10
   7   0 -18    0.10    0.90
   6   0 -18    0.90    1.00
   5   0 -18    9.90    1.20
   5   0 -18    9.80    1.50
  -5   0  18   11.40    1.40
   4   0 -18    5.80    1.10
   4   0 -18    6.60    1.00
  -4   0  18    5.00    1.00
   3   0 -18    4.40    1.10
   3   0 -18    3.10    0.90
  -3   0  18    4.30    0.90
   2   0 -18   11.30    1.40
  -2   0  18    7.70    1.00
   1   0 -18    3.40    1.00
   1   0 -18    2.00    0.90
  -1   0  18    1.90    0.90
   0   0 -18  161.28    4.80
   0   0 -18  168.38    5.00
   0   0  18  162.98    4.90
  -1   0 -18    7.70    1.10
  -1   0 -18   11.70    1.40
   1   0  18   10.60    1.60
  -2   0 -18   66.09    2.60
  -2   0 -18   65.39    2.60
   2   0  18   66.59    2.70
  -3   0 -18   15.80    1.60
  -3   0 -18   14.80    1.60
   3   0  18   15.80    1.80
   4   0  18    1.90    1.10
   7  -1 -18   -0.30    1.00
   6  -1 -18    0.10    1.00
   5  -1 -18    0.00    0.90
   4  -1 -18    0.80    0.90
   4  -1 -18    0.50    1.10
  -4   1  18    0.20    0.80
   3  -1 -18    3.00    1.00
   3  -1 -18    2.30    0.90
  -3   1  18    1.70    0.90
   2  -1 -18   57.09    2.40
   2  -1 -18   60.59    2.60
  -2   1  18   59.39    2.40
   1  -1 -18    2.30    0.90
   1  -1 -18    0.00    0.90
  -1   1  18    2.20    0.80
   0  -1 -18    5.30    1.00
   0   1  18    3.90    0.90
  -1  -1 -18   33.20    2.00
  -1  -1 -18   31.20    1.80
   1   1  18   30.10    1.90
  -2  -1 -18   57.59    2.40
  -2  -1 -18   59.79    2.50
   2   1  18   57.59    2.60
  -3  -1 -18    1.30    0.90
   3   1  18    1.90    1.10
   4   1  18    0.80    1.20
   7  -2 -18    2.80    1.00
   6  -2 -18    5.50    1.00
   5  -2 -18    1.40    1.00
   4  -2 -18    8.50    1.30
   4  -2 -18   10.10    1.50
   3  -2 -18    2.40    1.10
   3  -2 -18    3.20    1.00
  -3   2  18    3.20    0.90
   2  -2 -18    0.60    1.00
   2  -2 -18    0.90    0.90
  -2   2  18   -0.30    0.80
   1  -2 -18   -0.30    0.90
   1  -2 -18   -0.50    0.90
  -1   2  18    1.40    0.90
   0  -2 -18    4.50    1.00
   0  -2 -18    6.50    1.00
  -1  -2 -18    2.40    1.00
  -1  -2 -18    3.90    1.00
   1   2  18    4.20    1.00
  -2  -2 -18    3.80    0.90
   2   2  18    2.70    1.10
  -3  -2 -18    1.10    0.90
   3   2  18    2.50    1.20
   6  -3 -18    0.80    1.00
   5  -3 -18    1.30    1.00
   4  -3 -18   22.80    1.80
   4  -3 -18   20.60    2.30
   3  -3 -18   -0.80    0.90
   3  -3 -18   -1.40    1.00
   2  -3 -18   14.20    1.90
   2  -3 -18   13.80    1.60
  -2   3  18   15.30    1.60
   1  -3 -18    2.20    1.00
   1  -3 -18    1.60    0.90
  -1   3  18    4.40    1.00
   0  -3 -18   21.90    1.80
   0  -3 -18   20.60    1.90
   0   3  18   18.60    1.70
  -1  -3 -18    1.10    1.00
   1   3  18    3.70    1.00
  -2  -3 -18    1.30    1.00
   2   3  18    3.50    1.10
   5  -4 -18   -0.20    1.00
   4  -4 -18    4.10    1.00
   3  -4 -18    0.70    1.30
   3  -4 -18    0.90    1.00
   2  -4 -18   61.89    2.90
   2  -4 -18   68.19    2.70
   1  -4 -18   -1.20    1.10
   1  -4 -18    0.50    1.00
  -1   4  18    1.80    1.10
   0  -4 -18   -0.90    1.10
   0  -4 -18    0.70    1.50
   0   4  18    0.30    0.90
  -1  -4 -18    8.20    1.30
   1   4  18   13.80    1.80
   4  -5 -18   81.49    3.20
   3  -5 -18    4.20    1.10
   3  -5 -18    3.20    1.50
   2  -5 -18   11.90    1.50
   1  -5 -18   -0.50    1.30
   1  -5 -18   -0.20    1.40
   3   9 -19    3.20    1.30
   3   9 -19    1.20    1.50
   2   9 -19   11.10    1.40
   2   9 -19   12.60    2.00
  -2  -9  19   12.70    2.10
   1   9 -19   25.90    2.30
   1   9 -19   29.80    2.30
  -1  -9  19   22.80    2.30
   0   9 -19    3.60    1.30
   0   9 -19    4.00    1.20
   0  -9  19    3.20    1.30
  -1   9 -19    3.70    1.60
   1  -9  19    0.90    2.00
   4   8 -19   47.80    3.00
   4   8 -19   47.80    2.50
  -4  -8  19   46.50    2.60
   3   8 -19    2.60    1.10
   3   8 -19    0.40    1.20
  -3  -8  19    0.30    1.10
   2   8 -19   28.10    2.40
   2   8 -19   24.60    2.10
  -2  -8  19   22.20    2.10
   1   8 -19    5.70    1.20
   1   8 -19    3.60    1.20
  -1  -8  19    1.30    1.10
   0   8 -19    7.20    1.20
   0   8 -19    9.20    1.40
   0  -8  19    7.20    1.30
  -1   8 -19    0.30    1.10
  -1   8 -19    1.70    1.00
   1  -8  19    1.50    1.20
   2  -8  19    9.60    1.50
   5   7 -19    2.30    1.20
   5   7 -19    0.40    1.50
  -5  -7  19    3.30    1.20
   4   7 -19    3.10    1.20
   4   7 -19   -1.90    1.20
   3   7 -19   32.90    2.60
   3   7 -19   30.90    2.10
  -3  -7  19   31.70    2.20
   2   7 -19  108.99    3.80
   2   7 -19  103.59    3.70
  -2  -7  19  100.29    3.70
   1   7 -19    4.10    1.20
   1   7 -19    3.40    1.10
  -1  -7  19    1.30    1.10
   0   7 -19   14.30    2.00
   0  -7  19   10.60    1.40
  -1   7 -19    5.70    1.00
  -1   7 -19    5.40    1.10
   1  -7  19    3.70    1.20
  -2   7 -19   19.30    2.00
  -2   7 -19   15.50    2.10
  -3   7 -19    8.50    1.40
   3  -7  19    6.30    1.70
   6   6 -19    0.40    1.10
  -6  -6  19   -1.80    1.20
   5   6 -19    0.90    1.40
   5   6 -19   -0.30    1.00
  -5  -6  19   -1.30    1.00
   4   6 -19    9.40    1.40
   4   6 -19    6.40    1.20
  -4  -6  19    8.50    1.20
   3   6 -19   17.10    2.00
   3   6 -19   21.40    2.30
  -3  -6  19   18.50    1.90
   2   6 -19   15.20    2.00
   2   6 -19   17.50    1.90
  -2  -6  19   15.80    1.90
   1   6 -19   15.30    1.80
   1   6 -19   17.60    2.00
   0   6 -19   26.10    2.00
   0   6 -19   26.30    1.90
   0  -6  19   19.10    2.00
  -1   6 -19   -1.40    1.10
  -1   6 -19    1.20    0.90
   1  -6  19   -1.00    1.00
  -2   6 -19   26.40    2.10
  -2   6 -19   30.40    2.00
   2  -6  19   19.30    2.10
  -3   6 -19    0.80    1.00
   6   5 -19    6.90    1.30
  -6  -5  19    6.80    1.20
   5   5 -19    3.70    1.30
   5   5 -19    2.30    1.10
  -5  -5  19    3.20    1.10
   4   5 -19   -1.40    0.90
   4   5 -19   -1.00    1.00
  -4  -5  19   -0.40    0.90
   3   5 -19    1.20    1.00
   3   5 -19    0.10    1.40
  -3  -5  19    0.30    1.00
   2   5 -19    4.00    1.00
   2   5 -19    5.30    1.10
  -2  -5  19    3.10    1.10
   1   5 -19    1.00    0.90
   1   5 -19   -0.50    0.90
   0   5 -19    0.20    0.90
   0   5 -19   -0.40    0.90
   0  -5  19   -0.50    1.00
  -1   5 -19    0.00    0.90
  -1   5 -19    0.60    0.90
   1  -5  19   -1.40    1.00
  -2   5 -19    1.10    0.80
  -2   5 -19    0.90    1.00
   2  -5  19   -0.20    1.00
  -3   5 -19    3.40    1.10
   3  -5  19    1.60    1.20
   6   4 -19   16.00    1.80
  -6  -4  19   14.80    1.80
   5   4 -19    2.60    1.30
   5   4 -19    3.00    1.10
  -5  -4  19    2.60    1.00
   4   4 -19   46.20    2.30
   4   4 -19   48.00    2.50
  -4  -4  19   44.30    2.30
   3   4 -19    1.40    1.40
   3   4 -19   -0.20    1.00
  -3  -4  19    0.10    1.00
   2   4 -19    2.40    1.00
   2   4 -19    0.30    0.90
  -2  -4  19    0.30    1.00
   1   4 -19    0.80    0.90
   1   4 -19    1.50    0.90
  -1  -4  19    1.80    1.00
   0   4 -19   -0.40    0.90
   0   4 -19   -0.80    0.90
   0  -4  19   -0.70    0.90
  -1   4 -19   13.40    1.60
  -1   4 -19   12.60    1.60
   1  -4  19    9.30    1.30
  -2   4 -19    1.60    0.90
  -2   4 -19    1.10    0.80
   2  -4  19    1.30    1.00
  -3   4 -19    7.30    1.10
   3  -4  19    8.40    1.30
  -4   4 -19    1.90    1.00
   7   3 -19    4.60    1.30
   6   3 -19    3.40    1.10
  -6  -3  19    3.50    1.10
   5   3 -19   48.90    2.80
   5   3 -19   50.09    2.40
  -5  -3  19   51.09    2.40
   4   3 -19   11.80    2.10
   4   3 -19   15.20    1.70
  -4  -3  19   17.80    1.70
   3   3 -19    3.50    1.00
   3   3 -19   -1.30    1.10
  -3  -3  19   -0.20    0.90
   2   3 -19    4.90    1.00
   2   3 -19    5.70    1.00
  -2  -3  19    6.20    1.10
   1   3 -19    6.00    1.10
  -1  -3  19    7.70    1.10
   0   3 -19   -0.40    0.90
   0   3 -19    0.00    0.90
   0  -3  19   -0.70    0.90
  -1   3 -19   17.90    1.70
  -1   3 -19   16.90    1.70
   1  -3  19   15.70    1.80
  -2   3 -19    3.10    0.80
  -2   3 -19    1.40    1.00
   2  -3  19    3.30    1.10
  -3   3 -19    4.10    1.10
   3  -3  19    4.10    1.10
   7   2 -19   -0.10    1.10
   6   2 -19    5.00    1.20
  -6  -2  19    3.40    1.20
   5   2 -19    4.00    1.30
   5   2 -19    6.50    1.10
  -5  -2  19    7.50    1.20
   4   2 -19    1.40    1.10
   4   2 -19    3.50    1.00
  -4  -2  19    2.50    1.00
   3   2 -19    1.10    0.90
   3   2 -19   -0.10    1.00
  -3  -2  19   -0.70    0.90
   2   2 -19   12.50    1.60
   2   2 -19    7.90    1.10
  -2  -2  19    8.60    1.10
   1   2 -19   -0.20    1.00
   1   2 -19   -1.60    0.90
  -1  -2  19    0.40    1.00
   0   2 -19   13.60    1.60
   0   2 -19    7.90    1.10
   0  -2  19   10.20    1.60
  -1   2 -19    9.80    1.10
   1  -2  19   11.60    1.70
  -2   2 -19    0.20    1.00
  -2   2 -19   -0.80    0.80
   2  -2  19    0.80    1.00
  -3   2 -19    0.50    0.90
   3  -2  19    1.80    1.10
   7   1 -19    4.40    2.00
   6   1 -19    3.70    1.10
   5   1 -19   -0.10    1.30
  -5  -1  19   -0.70    0.90
   4   1 -19    1.70    1.10
   4   1 -19    2.90    1.20
  -4  -1  19    0.20    1.00
   3   1 -19   10.00    1.20
   3   1 -19    9.50    1.10
  -3  -1  19    9.40    1.20
   2   1 -19    5.10    1.00
   2   1 -19    2.40    1.00
  -2  -1  19    3.60    1.00
   1   1 -19    2.80    1.00
   1   1 -19    0.10    0.90
  -1  -1  19   -1.00    0.90
   0   1 -19   17.30    1.70
   0   1 -19   15.20    1.80
   0  -1  19   17.50    1.70
  -1   1 -19    0.70    1.00
  -1   1 -19    1.00    1.00
   1  -1  19    1.60    1.00
  -2   1 -19   82.79    3.00
  -2   1 -19   79.49    2.90
   2  -1  19   83.19    3.20
  -3   1 -19    0.50    1.00
   3  -1  19    0.40    1.10
   6   0 -19   24.70    2.00
   5   0 -19    1.90    1.10
   4   0 -19    1.20    1.00
   4   0 -19    0.60    1.30
   3   0 -19   -0.40    1.10
   3   0 -19    1.60    0.90
  -3   0  19   -1.80    0.90
   2   0 -19    5.50    1.20
   2   0 -19    7.10    1.00
  -2   0  19    5.40    1.10
   1   0 -19   10.60    1.60
   1   0 -19    8.20    1.20
  -1   0  19    9.50    1.60
   0   0 -19   28.60    2.00
   0   0 -19   28.70    2.10
   0   0  19   29.30    1.90
  -1   0 -19   -0.10    1.00
  -1   0 -19    0.00    0.90
   1   0  19   -0.10    1.00
  -2   0 -19   34.40    2.10
  -2   0 -19   34.70    2.00
   2   0  19   35.10    2.20
   6  -1 -19    6.50    1.30
   5  -1 -19    2.30    1.10
   4  -1 -19    7.50    1.10
   4  -1 -19    5.00    1.40
   3  -1 -19   -0.20    1.20
   3  -1 -19    0.80    0.90
  -3   1  19    1.30    1.00
   2  -1 -19    3.50    1.00
   2  -1 -19    6.80    1.30
  -2   1  19    4.50    1.00
   1  -1 -19    8.60    1.20
  -1   1  19   10.60    1.60
   0  -1 -19   16.00    2.00
   0  -1 -19   14.60    1.70
   0   1  19   18.30    1.70
  -1  -1 -19   19.00    1.80
  -1  -1 -19   17.00    2.00
   1   1  19   17.80    1.80
  -2  -1 -19   29.90    2.30
   2   1  19   32.30    2.20
   5  -2 -19    1.60    1.10
   4  -2 -19    0.30    1.40
   4  -2 -19    0.70    1.00
   3  -2 -19    5.00    1.30
   3  -2 -19    3.30    1.00
   2  -2 -19    6.50    1.20
   2  -2 -19    7.80    1.30
  -2   2  19    5.30    1.10
   1  -2 -19   -0.20    1.00
   1  -2 -19    0.20    0.90
  -1   2  19   -0.40    1.00
   0  -2 -19    5.20    1.10
   0   2  19    3.10    1.10
  -1  -2 -19    2.20    1.20
  -1  -2 -19    5.10    1.20
   1   2  19    4.50    1.10
   4  -3 -19   10.00    2.40
   4  -3 -19    6.60    1.30
   3  -3 -19    0.70    1.00
   3  -3 -19    1.20    1.20
   2  -3 -19    3.60    1.10
   2  -3 -19    2.80    1.20
   1  -3 -19    1.50    1.10
   1  -3 -19   -0.40    1.10
  -1   3  19    1.10    1.10
   0  -3 -19   42.70    2.30
   0   3  19   41.90    2.30
   2   7 -20   -0.70    1.40
   2   7 -20   -0.30    1.20
  -2  -7  20   -2.20    1.50
   1   7 -20   19.60    2.30
   1   7 -20   13.40    1.80
  -1  -7  20   17.20    2.40
   4   6 -20    0.10    1.60
   3   6 -20   -1.70    1.20
   3   6 -20    1.10    1.20
  -3  -6  20   -1.50    1.10
   2   6 -20    0.10    1.10
   2   6 -20    1.70    1.10
  -2  -6  20    0.70    1.10
   1   6 -20   -0.70    1.10
   1   6 -20    0.10    1.10
  -1  -6  20   -0.30    1.20
   0   6 -20    1.10    1.00
   0   6 -20    0.70    1.10
  -1   6 -20    1.70    1.60
   1  -6  20    0.60    2.00
   4   5 -20    4.20    1.20
   4   5 -20    2.10    1.10
  -4  -5  20    0.30    1.10
   3   5 -20    1.60    1.10
   3   5 -20   -2.00    1.10
  -3  -5  20    0.50    1.00
   2   5 -20   24.50    2.20
   2   5 -20   30.70    2.10
  -2  -5  20   21.60    2.20
   1   5 -20    0.70    1.00
   1   5 -20   -0.30    1.10
  -1  -5  20   -2.00    1.10
   0   5 -20    3.00    1.00
   0   5 -20    1.70    1.20
   0  -5  20   -0.60    1.10
  -1   5 -20    0.40    0.90
  -1   5 -20   -0.10    1.20
   1  -5  20   -2.30    1.10
   5   4 -20    2.10    1.40
  -5  -4  20   -0.40    1.20
   4   4 -20    4.70    1.20
   4   4 -20    8.10    1.40
  -4  -4  20    4.60    1.20
   3   4 -20   33.10    2.20
   3   4 -20   39.70    2.50
  -3  -4  20   34.60    2.20
   2   4 -20   25.90    2.10
   2   4 -20   20.10    1.90
  -2  -4  20   19.10    2.00
   1   4 -20    0.60    1.00
   1   4 -20   -0.20    1.00
  -1  -4  20   -0.70    1.20
   0   4 -20    1.00    0.90
   0   4 -20   -0.60    1.10
   0  -4  20   -0.70    1.10
  -1   4 -20    3.90    1.10
  -1   4 -20    5.00    0.90
   1  -4  20    1.90    1.20
   5   3 -20   20.80    2.50
   5   3 -20   25.20    2.40
  -5  -3  20   17.10    2.00
   4   3 -20   18.10    1.90
   4   3 -20   17.10    2.20
  -4  -3  20   13.20    1.80
   3   3 -20    1.90    1.20
   3   3 -20    4.40    1.10
  -3  -3  20    2.50    1.10
   2   3 -20   -0.80    1.10
   2   3 -20    0.70    1.00
  -2  -3  20   -1.10    1.00
   1   3 -20   -0.30    1.10
   1   3 -20   -0.80    1.00
  -1  -3  20   -1.20    1.00
   0   3 -20   -0.30    1.00
   0   3 -20    0.80    1.00
   0  -3  20   -1.00    1.10
  -1   3 -20   -0.60    1.00
  -1   3 -20    1.40    0.90
   1  -3  20   -2.10    1.10
   5   2 -20    8.30    2.20
   5   2 -20    7.80    1.80
  -5  -2  20    7.50    1.20
   4   2 -20   -0.30    1.10
   4   2 -20   -0.20    1.20
  -4  -2  20    0.10    1.00
   3   2 -20    0.00    1.20
   3   2 -20    1.30    1.10
  -3  -2  20   -0.50    1.10
   2   2 -20   12.80    1.80
   2   2 -20   11.30    2.00
  -2  -2  20   14.60    1.80
   1   2 -20   -0.20    1.00
   1   2 -20    1.40    1.00
  -1  -2  20   -1.10    1.00
   0   2 -20   10.60    1.20
   0   2 -20   15.20    1.90
   0  -2  20   11.90    1.90
  -1   2 -20   15.10    1.80
  -1   2 -20   12.70    1.70
   1  -2  20   11.80    1.90
   4   1 -20   20.00    2.40
   4   1 -20   20.70    2.00
  -4  -1  20   23.10    2.00
   3   1 -20    6.10    1.30
   3   1 -20    2.80    1.20
  -3  -1  20    4.20    1.20
   2   1 -20    3.70    1.00
   2   1 -20    0.40    1.10
  -2  -1  20    1.40    1.00
   1   1 -20    4.30    1.10
   1   1 -20    4.90    1.20
  -1  -1  20    3.90    1.10
   0   1 -20    1.60    1.00
   0   1 -20    0.90    1.00
   0  -1  20   -0.30    1.00
  -1   1 -20    2.00    1.10
   1  -1  20    1.80    1.30
   4   0 -20    7.80    1.40
   4   0 -20    6.40    1.40
   3   0 -20    0.90    1.00
   3   0 -20   -1.20    1.10
  -3   0  20    0.30    1.10
   2   0 -20   -0.30    1.10
   2   0 -20    0.10    1.20
  -2   0  20   -2.20    1.00
   1   0 -20   -0.20    1.10
   1   0 -20    0.80    1.10
  -1   0  20   -0.60    1.00
   0   0 -20    1.70    1.30
   0   0 -20   -1.90    1.00
   0   0  20    0.50    1.10
   3  -1 -20   -0.80    1.50
   2  -1 -20   19.50    2.50
   2  -1 -20   22.50    2.30
  -2   1  20   14.90    1.90
   0   0   0    0.00    0.00

_computing_structure_solution     'SHELXT 2014/5 (Sheldrick, 2014)'
;
_shelx_hkl_checksum              85200
loop_
_space_group_symop_operation_xyz
'x, y, z'
'-x, -y, -z'
loop_
_atom_site_label
_atom_site_type_symbol
_atom_site_fract_x
_atom_site_fract_y
_atom_site_fract_z
_atom_site_U_iso_or_equiv
_atom_site_adp_type
_atom_site_occupancy
_atom_site_site_symmetry_order
_atom_site_calc_flag
_atom_site_refinement_flags_posn
_atom_site_refinement_flags_adp
_atom_site_refinement_flags_occupancy
_atom_site_disorder_assembly
_atom_site_disorder_group
C1 C 0.83661(7) 0.54821(6) 0.51238(5) 0.01199(8) Uani 1 1 d . . . . .
H1 H 0.7245 0.5809 0.5206 0.014 Uiso 1 1 calc R U . . .
C2 C 0.84583(7) 0.40496(6) 0.44537(5) 0.01116(8) Uani 1 1 d . . . . .
C3 C 0.98843(7) 0.64557(6) 0.56807(5) 0.01115(8) Uani 1 1 d . . . . .
C21 C 0.67249(7) 0.31545(6) 0.39046(5) 0.01179(8) Uani 1 1 d . . . . .
O21 O 0.53608(6) 0.37089(5) 0.37860(5) 0.01766(9) Uani 1 1 d . . . . .
C22 C 0.51866(8) 0.08013(7) 0.29743(6) 0.01566(10) Uani 1 1 d . . . . .
H22A H 0.4635 0.1248 0.2310 0.019 Uiso 1 1 calc R U . . .
H22B H 0.4360 0.0757 0.3579 0.019 Uiso 1 1 calc R U . . .
O22 O 0.68323(6) 0.16959(5) 0.35614(5) 0.01517(8) Uani 1 1 d . . . . .
C23 C 0.56058(8) -0.07348(6) 0.24618(5) 0.01282(9) Uani 1 1 d . . . . .
C24 C 0.53387(9) -0.19342(7) 0.30325(6) 0.01561(10) Uani 1 1 d . . . . .
F24 F 0.47406(8) -0.16813(6) 0.41232(4) 0.02525(10) Uani 1 1 d . . . . .
C25 C 0.56364(10) -0.33825(7) 0.25437(7) 0.01977(11) Uani 1 1 d . . . . .
H25 H 0.5435 -0.4174 0.2963 0.024 Uiso 1 1 calc R U . . .
C26 C 0.62367(9) -0.36246(8) 0.14219(7) 0.02085(12) Uani 1 1 d . . . . .
F26 F 0.65526(8) -0.50064(6) 0.09059(6) 0.03367(14) Uani 1 1 d . . . . .
C27 C 0.65374(9) -0.24781(8) 0.08046(6) 0.01948(11) Uani 1 1 d . . . . .
F27 F 0.71033(8) -0.27376(8) -0.02904(5) 0.03232(13) Uani 1 1 d . . . . .
C28 C 0.62399(8) -0.10509(7) 0.13450(6) 0.01564(10) Uani 1 1 d . . . . .
F28 F 0.65757(7) 0.00629(6) 0.07575(5) 0.02532(10) Uani 1 1 d . . . . .
C31 C 0.96577(8) 0.78986(6) 0.63515(6) 0.01327(9) Uani 1 1 d . . . . .
C32 C 0.94292(8) 0.91258(6) 0.68935(6) 0.01385(9) Uani 1 1 d . . . . .
C33 C 0.92427(7) 1.06064(6) 0.75164(5) 0.01249(9) Uani 1 1 d . . . . .
C34 C 0.94900(10) 1.18080(7) 0.69266(6) 0.01801(11) Uani 1 1 d . . . . .
H34 H 0.9784 1.1639 0.6118 0.022 Uiso 1 1 calc R U . . .
C35 C 0.93038(11) 1.32491(7) 0.75286(7) 0.02096(12) Uani 1 1 d . . . . .
H35 H 0.9478 1.4064 0.7130 0.025 Uiso 1 1 calc R U . . .
C36 C 0.88644(10) 1.35028(7) 0.87101(7) 0.02025(12) Uani 1 1 d . . . . .
H36 H 0.8722 1.4486 0.9112 0.024 Uiso 1 1 calc R U . . .
C37 C 0.86327(10) 1.23135(8) 0.93033(6) 0.01965(11) Uani 1 1 d . . . . .
H37 H 0.8345 1.2489 1.0114 0.024 Uiso 1 1 calc R U . . .
C38 C 0.88225(9) 1.08680(7) 0.87108(6) 0.01605(10) Uani 1 1 d . . . . .
H38 H 0.8667 1.0059 0.9118 0.019 Uiso 1 1 calc R U . . .
loop_
_atom_site_aniso_label
_atom_site_aniso_U_11
_atom_site_aniso_U_22
_atom_site_aniso_U_33
_atom_site_aniso_U_23
_atom_site_aniso_U_13
_atom_site_aniso_U_12
C1 0.01034(18) 0.00863(17) 0.0164(2) 0.00011(15) 0.00343(16) 0.00130(14)
C2 0.01023(18) 0.00828(17) 0.0145(2) 0.00058(14) 0.00285(15) 0.00087(14)
C3 0.01088(18) 0.00792(17) 0.0143(2) 0.00036(14) 0.00330(15) 0.00133(14)
C21 0.01087(19) 0.00865(17) 0.0153(2) 0.00105(15) 0.00265(15) 0.00054(14)
O21 0.01152(17) 0.01198(17) 0.0284(2) 0.00158(16) 0.00169(16) 0.00267(13)
C22 0.0108(2) 0.01056(19) 0.0227(3) -0.00186(17) 0.00047(18) -0.00028(15)
O22 0.01054(16) 0.00826(15) 0.0240(2) -0.00152(14) 0.00019(14) 0.00013(12)
C23 0.0126(2) 0.00999(19) 0.0144(2) 0.00010(15) 0.00131(16) -0.00035(15)
C24 0.0178(2) 0.0133(2) 0.0145(2) 0.00166(17) 0.00145(18) -0.00062(17)
F24 0.0337(3) 0.0255(2) 0.01676(18) 0.00414(16) 0.00844(17) -0.00113(18)
C25 0.0219(3) 0.0115(2) 0.0246(3) 0.0031(2) -0.0004(2) 0.00112(19)
C26 0.0184(3) 0.0133(2) 0.0263(3) -0.0054(2) -0.0006(2) 0.00360(19)
F26 0.0304(3) 0.0165(2) 0.0464(3) -0.0119(2) 0.0005(2) 0.00810(18)
C27 0.0168(2) 0.0218(3) 0.0166(2) -0.0043(2) 0.00302(19) 0.0022(2)
F27 0.0295(3) 0.0429(3) 0.0203(2) -0.0080(2) 0.01020(19) 0.0043(2)
C28 0.0147(2) 0.0165(2) 0.0150(2) 0.00213(17) 0.00248(17) 0.00019(17)
F28 0.0270(2) 0.0279(2) 0.0243(2) 0.01280(18) 0.00686(17) -0.00037(18)
C31 0.0126(2) 0.00960(18) 0.0168(2) -0.00060(16) 0.00364(16) 0.00190(15)
C32 0.0128(2) 0.01010(19) 0.0175(2) -0.00104(16) 0.00368(17) 0.00174(15)
C33 0.0125(2) 0.00936(18) 0.0145(2) -0.00099(15) 0.00271(16) 0.00182(14)
C34 0.0260(3) 0.0123(2) 0.0160(2) 0.00160(17) 0.0051(2) 0.00310(19)
C35 0.0301(3) 0.0110(2) 0.0212(3) 0.00193(19) 0.0019(2) 0.0041(2)
C36 0.0232(3) 0.0125(2) 0.0218(3) -0.00406(19) 0.0014(2) 0.00436(19)
C37 0.0234(3) 0.0169(2) 0.0165(2) -0.00384(19) 0.0056(2) 0.0033(2)
C38 0.0189(2) 0.0134(2) 0.0152(2) 0.00013(17) 0.00467(18) 0.00160(17)
loop_
_atom_type_symbol
_atom_type_description
_atom_type_scat_dispersion_real
_atom_type_scat_dispersion_imag
_atom_type_scat_source
C C 0.0033 0.0016 'International Tables Vol C Tables 4.2.6.8 and 6.1.1.4'
H H 0.0000 0.0000 'International Tables Vol C Tables 4.2.6.8 and 6.1.1.4'
F F 0.0171 0.0103 'International Tables Vol C Tables 4.2.6.8 and 6.1.1.4'
O O 0.0106 0.0060 'International Tables Vol C Tables 4.2.6.8 and 6.1.1.4'
loop_
_geom_angle_atom_site_label_1
_geom_angle_atom_site_label_2
_geom_angle_atom_site_label_3
_geom_angle
_geom_angle_site_symmetry_1
_geom_angle_site_symmetry_3
_geom_angle_publ_flag
C2 C1 C3 121.88(5) . . ?
C2 C1 H1 119.1 . . ?
C3 C1 H1 119.1 . . ?
C1 C2 C3 119.87(5) . 2_766 ?
C1 C2 C21 115.49(5) . . ?
C3 C2 C21 124.64(5) 2_766 . ?
C1 C3 C2 118.25(5) . 2_766 ?
C1 C3 C31 117.84(5) . . ?
C2 C3 C31 123.92(5) 2_766 . ?
O21 C21 O22 123.55(5) . . ?
O21 C21 C2 123.13(5) . . ?
O22 C21 C2 113.32(5) . . ?
O22 C22 C23 107.43(5) . . ?
O22 C22 H22A 110.2 . . ?
C23 C22 H22A 110.2 . . ?
O22 C22 H22B 110.2 . . ?
C23 C22 H22B 110.2 . . ?
H22A C22 H22B 108.5 . . ?
C21 O22 C22 114.79(5) . . ?
C24 C23 C28 115.88(5) . . ?
C24 C23 C22 123.10(6) . . ?
C28 C23 C22 120.98(6) . . ?
F24 C24 C25 117.86(6) . . ?
F24 C24 C23 118.11(6) . . ?
C25 C24 C23 124.02(6) . . ?
C26 C25 C24 117.13(6) . . ?
C26 C25 H25 121.4 . . ?
C24 C25 H25 121.4 . . ?
F26 C26 C25 119.69(7) . . ?
F26 C26 C27 118.45(7) . . ?
C25 C26 C27 121.86(6) . . ?
F27 C27 C28 120.53(7) . . ?
F27 C27 C26 121.02(6) . . ?
C28 C27 C26 118.45(6) . . ?
F28 C28 C27 118.22(6) . . ?
F28 C28 C23 119.16(6) . . ?
C27 C28 C23 122.62(6) . . ?
C32 C31 C3 178.14(7) . . ?
C31 C32 C33 177.03(6) . . ?
C38 C33 C34 119.63(5) . . ?
C38 C33 C32 120.65(5) . . ?
C34 C33 C32 119.72(5) . . ?
C35 C34 C33 119.86(6) . . ?
C35 C34 H34 120.1 . . ?
C33 C34 H34 120.1 . . ?
C36 C35 C34 120.37(6) . . ?
C36 C35 H35 119.8 . . ?
C34 C35 H35 119.8 . . ?
C35 C36 C37 119.94(6) . . ?
C35 C36 H36 120.0 . . ?
C37 C36 H36 120.0 . . ?
C36 C37 C38 120.14(6) . . ?
C36 C37 H37 119.9 . . ?
C38 C37 H37 119.9 . . ?
C37 C38 C33 120.05(6) . . ?
C37 C38 H38 120.0 . . ?
C33 C38 H38 120.0 . . ?
loop_
_geom_bond_atom_site_label_1
_geom_bond_atom_site_label_2
_geom_bond_distance
_geom_bond_site_symmetry_2
_geom_bond_publ_flag
C1 C2 1.3952(7) . ?
C1 C3 1.4058(8) . ?
C1 H1 0.9500 . ?
C2 C3 1.4148(8) 2_766 ?
C2 C21 1.4990(8) . ?
C3 C2 1.4148(8) 2_766 ?
C3 C31 1.4282(7) . ?
C21 O21 1.2146(7) . ?
C21 O22 1.3324(7) . ?
C22 O22 1.4553(7) . ?
C22 C23 1.4959(8) . ?
C22 H22A 0.9900 . ?
C22 H22B 0.9900 . ?
C23 C24 1.3885(9) . ?
C23 C28 1.3896(9) . ?
C24 F24 1.3470(8) . ?
C24 C25 1.3872(9) . ?
C25 C26 1.3797(11) . ?
C25 H25 0.9500 . ?
C26 F26 1.3452(8) . ?
C26 C27 1.3848(11) . ?
C27 F27 1.3401(8) . ?
C27 C28 1.3848(9) . ?
C28 F28 1.3419(8) . ?
C31 C32 1.2112(8) . ?
C32 C33 1.4312(8) . ?
C33 C38 1.3993(9) . ?
C33 C34 1.4021(9) . ?
C34 C35 1.3925(9) . ?
C34 H34 0.9500 . ?
C35 C36 1.3909(11) . ?
C35 H35 0.9500 . ?
C36 C37 1.3933(11) . ?
C36 H36 0.9500 . ?
C37 C38 1.3933(9) . ?
C37 H37 0.9500 . ?
C38 H38 0.9500 . ?
loop_
_publcif_info_cif.paper_type
?
